0:0
     RDKit          3D

107111  0  0  0  0  0  0  0  0999 V2000
   59.4960   22.2180   44.8760 C   0  0  0  0  0  0  0  0  0  0  0  0
   58.4470   23.2410   45.2920 C   0  0  0  0  0  0  0  0  0  0  0  0
   57.0980   22.6530   45.1250 N   0  0  0  0  0  0  0  0  0  0  0  0
   56.9740   21.8390   43.8940 C   0  0  0  0  0  0  0  0  0  0  0  0
   56.2900   22.5720   42.7310 C   0  0  0  0  0  0  0  0  0  0  0  0
   55.9970   23.6300   45.2820 C   0  0  0  0  0  0  0  0  0  0  0  0
   56.5220   25.0690   45.2540 C   0  0  0  0  0  0  0  0  0  0  0  0
   55.9950   25.7890   46.3480 O   0  0  0  0  0  0  0  0  0  0  0  0
   57.0210   26.4870   47.0270 C   0  0  0  0  0  0  0  0  0  0  0  0
   58.3870   26.1790   46.4100 C   0  0  0  0  0  0  0  0  0  0  0  0
   59.4230   26.6860   47.2440 O   0  0  0  0  0  0  0  0  0  0  0  0
   59.6930   28.0500   47.3800 C   0  0  0  0  0  0  0  0  0  0  0  0
   60.5190   28.4800   48.4300 C   0  0  0  0  0  0  0  0  0  0  0  0
   60.9900   27.5210   49.3480 O   0  0  0  0  0  0  0  0  0  0  0  0
   60.7680   27.5490   50.7600 C   0  0  0  0  0  0  0  0  0  0  0  0
   59.9080   28.7610   51.1290 C   0  0  0  0  0  0  0  0  0  0  0  0
   60.6860   29.7910   51.9620 C   0  0  0  0  0  0  0  0  0  0  0  0
   62.1470   29.5400   51.9160 N   0  0  0  0  0  0  0  0  0  0  0  0
   62.6270   29.2260   53.2760 C   0  0  0  0  0  0  0  0  0  0  0  0
   62.9090   30.6870   51.3540 C   0  0  0  0  0  0  0  0  0  0  0  0
   63.4380   31.5790   52.4790 C   0  0  0  0  0  0  0  0  0  0  0  0
   62.8110   32.8450   52.4260 O   0  0  0  0  0  0  0  0  0  0  0  0
   62.8890   33.4980   53.6830 C   0  0  0  0  0  0  0  0  0  0  0  0
   62.4380   32.5620   54.7990 C   0  0  0  0  0  0  0  0  0  0  0  0
   61.0950   32.1850   54.5540 O   0  0  0  0  0  0  0  0  0  0  0  0
   60.1760   33.0990   55.1230 C   0  0  0  0  0  0  0  0  0  0  0  0
   59.4580   33.9240   54.0450 C   0  0  0  0  0  0  0  0  0  0  0  0
   60.1490   33.7970   52.7520 N   0  0  0  0  0  0  0  0  0  0  0  0
   59.2010   33.7920   51.6280 C   0  0  0  0  0  0  0  0  0  0  0  0
   59.9380   33.7130   50.3190 C   0  0  0  0  0  0  0  0  0  0  0  0
   59.2840   34.0470   49.1230 C   0  0  0  0  0  0  0  0  0  0  0  0
   59.9990   34.0660   47.9290 C   0  0  0  0  0  0  0  0  0  0  0  0
   61.3660   33.7720   47.9280 C   0  0  0  0  0  0  0  0  0  0  0  0
   62.1180   33.8290   46.7440 C   0  0  0  0  0  0  0  0  0  0  0  0
   63.4860   33.5520   46.7730 C   0  0  0  0  0  0  0  0  0  0  0  0
   64.1120   33.2300   47.9780 C   0  0  0  0  0  0  0  0  0  0  0  0
   63.3760   33.1770   49.1630 C   0  0  0  0  0  0  0  0  0  0  0  0
   61.9950   33.4330   49.1470 C   0  0  0  0  0  0  0  0  0  0  0  0
   61.2650   33.3920   50.3020 N   0  0  0  0  0  0  0  0  0  0  0  0
   60.8340   29.8480   48.5380 C   0  0  0  0  0  0  0  0  0  0  0  0
   60.3250   30.7740   47.6200 C   0  0  0  0  0  0  0  0  0  0  0  0
   59.4920   30.3500   46.5710 C   0  0  0  0  0  0  0  0  0  0  0  0
   58.9510   31.2490   45.6340 C   0  0  0  0  0  0  0  0  0  0  0  0
   59.2090   32.4840   45.7090 O   0  0  0  0  0  0  0  0  0  0  0  0
   58.1280   30.7590   44.6070 C   0  0  0  0  0  0  0  0  0  0  0  0
   57.5660   31.6010   43.6310 C   0  0  0  0  0  0  0  0  0  0  0  0
   56.7500   31.0670   42.6300 C   0  0  0  0  0  0  0  0  0  0  0  0
   56.4740   29.6980   42.6050 C   0  0  0  0  0  0  0  0  0  0  0  0
   57.0300   28.8500   43.5690 C   0  0  0  0  0  0  0  0  0  0  0  0
   57.8580   29.3720   44.5680 C   0  0  0  0  0  0  0  0  0  0  0  0
   58.3850   28.5560   45.4750 O   0  0  0  0  0  0  0  0  0  0  0  0
   59.1760   28.9780   46.4550 C   0  0  0  0  0  0  0  0  0  0  0  0
   59.9513   21.7740   45.7735 H   0  0  0  0  0  0  0  0  0  0  0  0
   59.0201   21.4276   44.2770 H   0  0  0  0  0  0  0  0  0  0  0  0
   60.2742   22.7136   44.2770 H   0  0  0  0  0  0  0  0  0  0  0  0
   58.6000   23.5167   46.3459 H   0  0  0  0  0  0  0  0  0  0  0  0
   58.5382   24.1393   44.6637 H   0  0  0  0  0  0  0  0  0  0  0  0
   57.9830   21.5427   43.5714 H   0  0  0  0  0  0  0  0  0  0  0  0
   56.3406   20.9752   44.1443 H   0  0  0  0  0  0  0  0  0  0  0  0
   55.5908   23.3213   43.1304 H   0  0  0  0  0  0  0  0  0  0  0  0
   57.0513   23.0726   42.1147 H   0  0  0  0  0  0  0  0  0  0  0  0
   55.7380   21.8471   42.1147 H   0  0  0  0  0  0  0  0  0  0  0  0
   55.2780   23.4948   44.4606 H   0  0  0  0  0  0  0  0  0  0  0  0
   55.5138   23.4554   46.2546 H   0  0  0  0  0  0  0  0  0  0  0  0
   57.6201   25.0589   45.3177 H   0  0  0  0  0  0  0  0  0  0  0  0
   56.2109   25.5521   44.3160 H   0  0  0  0  0  0  0  0  0  0  0  0
   56.8291   27.5679   46.9574 H   0  0  0  0  0  0  0  0  0  0  0  0
   57.0288   26.1669   48.0794 H   0  0  0  0  0  0  0  0  0  0  0  0
   58.5028   25.0900   46.3064 H   0  0  0  0  0  0  0  0  0  0  0  0
   58.4528   26.6568   45.4214 H   0  0  0  0  0  0  0  0  0  0  0  0
   60.2504   26.6279   51.0661 H   0  0  0  0  0  0  0  0  0  0  0  0
   61.7361   27.6213   51.2772 H   0  0  0  0  0  0  0  0  0  0  0  0
   59.5599   29.2435   50.2038 H   0  0  0  0  0  0  0  0  0  0  0  0
   59.0630   28.4039   51.7360 H   0  0  0  0  0  0  0  0  0  0  0  0
   60.4841   30.7968   51.5650 H   0  0  0  0  0  0  0  0  0  0  0  0
   60.3556   29.7074   53.0079 H   0  0  0  0  0  0  0  0  0  0  0  0
   61.9466   29.6711   54.0169 H   0  0  0  0  0  0  0  0  0  0  0  0
   62.6544   28.1348   53.4123 H   0  0  0  0  0  0  0  0  0  0  0  0
   63.6378   29.6380   53.4123 H   0  0  0  0  0  0  0  0  0  0  0  0
   63.7562   30.3055   50.7652 H   0  0  0  0  0  0  0  0  0  0  0  0
   62.2398   31.2801   50.7134 H   0  0  0  0  0  0  0  0  0  0  0  0
   63.2247   31.1069   53.4494 H   0  0  0  0  0  0  0  0  0  0  0  0
   64.5237   31.7078   52.3582 H   0  0  0  0  0  0  0  0  0  0  0  0
   63.9287   33.8063   53.8670 H   0  0  0  0  0  0  0  0  0  0  0  0
   62.2297   34.3784   53.6684 H   0  0  0  0  0  0  0  0  0  0  0  0
   63.0777   31.6673   54.8141 H   0  0  0  0  0  0  0  0  0  0  0  0
   62.5154   33.0702   55.7715 H   0  0  0  0  0  0  0  0  0  0  0  0
   59.4269   32.5385   55.7014 H   0  0  0  0  0  0  0  0  0  0  0  0
   60.7350   33.7909   55.7702 H   0  0  0  0  0  0  0  0  0  0  0  0
   58.4248   33.5614   53.9402 H   0  0  0  0  0  0  0  0  0  0  0  0
   59.4604   34.9818   54.3468 H   0  0  0  0  0  0  0  0  0  0  0  0
   60.6520   32.8770   52.7450 H   0  0  0  0  0  0  0  0  0  0  0  0
   58.5336   32.9226   51.7209 H   0  0  0  0  0  0  0  0  0  0  0  0
   58.6156   34.7230   51.6516 H   0  0  0  0  0  0  0  0  0  0  0  0
   58.2118   34.2925   49.1292 H   0  0  0  0  0  0  0  0  0  0  0  0
   59.4887   34.3123   46.9862 H   0  0  0  0  0  0  0  0  0  0  0  0
   61.6297   34.0917   45.7940 H   0  0  0  0  0  0  0  0  0  0  0  0
   64.0724   33.5877   45.8430 H   0  0  0  0  0  0  0  0  0  0  0  0
   65.1910   33.0168   47.9941 H   0  0  0  0  0  0  0  0  0  0  0  0
   63.8784   32.9343   50.1110 H   0  0  0  0  0  0  0  0  0  0  0  0
   61.7410   33.1540   51.2030 H   0  0  0  0  0  0  0  0  0  0  0  0
   61.4874   30.1929   49.3529 H   0  0  0  0  0  0  0  0  0  0  0  0
   60.5786   31.8396   47.7204 H   0  0  0  0  0  0  0  0  0  0  0  0
   57.7690   32.6818   43.6555 H   0  0  0  0  0  0  0  0  0  0  0  0
   56.3239   31.7266   41.8597 H   0  0  0  0  0  0  0  0  0  0  0  0
   55.8174   29.2853   41.8249 H   0  0  0  0  0  0  0  0  0  0  0  0
   56.8156   27.7714   43.5412 H   0  0  0  0  0  0  0  0  0  0  0  0
  1  2  1  0
  2  3  1  0
  3  4  1  0
  4  5  1  0
  3  6  1  0
  6  7  1  0
  7  8  1  0
  8  9  1  0
  9 10  1  0
 10 11  1  0
 11 12  1  0
 12 13  2  0
 13 14  1  0
 14 15  1  0
 15 16  1  0
 16 17  1  0
 17 18  1  0
 18 19  1  0
 18 20  1  0
 20 21  1  0
 21 22  1  0
 22 23  1  0
 23 24  1  0
 24 25  1  0
 25 26  1  0
 26 27  1  0
 27 28  1  0
 28 29  1  0
 29 30  1  0
 30 31  2  0
 31 32  1  0
 32 33  2  0
 33 34  1  0
 34 35  2  0
 35 36  1  0
 36 37  2  0
 37 38  1  0
 38 39  2  0
 13 40  1  0
 40 41  2  0
 41 42  1  0
 42 43  1  0
 43 44  2  0
 43 45  1  0
 45 46  2  0
 46 47  1  0
 47 48  2  0
 48 49  1  0
 49 50  2  0
 50 51  1  0
 51 52  1  0
 52 12  1  0
 39 30  1  0
 52 42  2  0
 38 33  1  0
 50 45  1  0
  1 53  1  0
  1 54  1  0
  1 55  1  0
  2 56  1  0
  2 57  1  0
  4 58  1  0
  4 59  1  0
  5 60  1  0
  5 61  1  0
  5 62  1  0
  6 63  1  0
  6 64  1  0
  7 65  1  0
  7 66  1  0
  9 67  1  0
  9 68  1  0
 10 69  1  0
 10 70  1  0
 15 71  1  0
 15 72  1  0
 16 73  1  0
 16 74  1  0
 17 75  1  0
 17 76  1  0
 19 77  1  0
 19 78  1  0
 19 79  1  0
 20 80  1  0
 20 81  1  0
 21 82  1  0
 21 83  1  0
 23 84  1  0
 23 85  1  0
 24 86  1  0
 24 87  1  0
 26 88  1  0
 26 89  1  0
 27 90  1  0
 27 91  1  0
 28 92  1  0
 29 93  1  0
 29 94  1  0
 31 95  1  0
 32 96  1  0
 34 97  1  0
 35 98  1  0
 36 99  1  0
 37100  1  0
 39101  1  0
 40102  1  0
 41103  1  0
 46104  1  0
 47105  1  0
 48106  1  0
 49107  1  0
M  CHG  1  39   1
M  END
>  <UniqueID>  (1) 
1

>  <SMILES>  (1) 
CCN(CC)CCOCCOc1c(OCCCN(C)CCOCCOCCNCc2ccc3ccccc3[nH+]2)ccc2c(=O)c3ccccc3oc12

>  <Energy>  (1) 
119.7925775793823

>  <Genealogy>  (1) 
CCN(CC)CCOCCOc1c(OCCCN(C)CCOCCOCCNCc2ccc3ccccc3[nH+]2)ccc2c(=O)c3ccccc3oc12 (protonated)
CCN(CC)CCOCCOc1c(OCCCN(C)CCOCCOCCNCc2ccc3ccccc3[nH+]2)ccc2c(=O)c3ccccc3oc12 (3D coordinates assigned)
CCN(CC)CCOCCOc1c(OCCCN(C)CCOCCOCCNCc2ccc3ccccc3[nH+]2)ccc2c(=O)c3ccccc3oc12 (optimized conformer: 119.7925775793823 kcal/mol)

>  <smiles>  (1) 
CCN(CC)CCOCCOc1c(OCCCN(C)CCOCCOCCNCc2ccc3ccccc3n2)ccc2c(=O)c3ccccc3oc12

>  <score_type>  (1) 
oracle

>  <origin>  (1) 
adg

>  <m_score__min__energy>  (1) 
-5.4800000000000004

>  <m_primary>  (1) 
energy

$$$$
1:0
     RDKit          3D

 61 63  0  0  0  0  0  0  0  0999 V2000
   63.4100   33.1510   46.7820 C   0  0  0  0  0  0  0  0  0  0  0  0
   62.5850   32.0740   47.4770 C   0  0  0  0  0  0  0  0  0  0  0  0
   62.0990   32.5840   48.7670 N   0  0  0  0  0  0  0  0  0  0  0  0
   61.9420   34.0460   48.7640 C   0  0  0  0  0  0  0  0  0  0  0  0
   60.4890   34.4160   48.4760 C   0  0  0  0  0  0  0  0  0  0  0  0
   59.7810   33.2700   48.0070 O   0  0  0  0  0  0  0  0  0  0  0  0
   59.0530   33.1970   46.8070 C   0  0  0  0  0  0  0  0  0  0  0  0
   58.6470   34.3730   46.1540 C   0  0  0  0  0  0  0  0  0  0  0  0
   58.0180   34.3150   44.9200 C   0  0  0  0  0  0  0  0  0  0  0  0
   57.7670   33.0910   44.3150 C   0  0  0  0  0  0  0  0  0  0  0  0
   58.1010   31.8750   44.9560 C   0  0  0  0  0  0  0  0  0  0  0  0
   58.7570   31.9300   46.2210 C   0  0  0  0  0  0  0  0  0  0  0  0
   59.1150   30.7140   46.8460 C   0  0  0  0  0  0  0  0  0  0  0  0
   59.5460   30.6800   48.2160 N   0  0  0  0  0  0  0  0  0  0  0  0
   58.9030   29.8060   49.1980 C   0  0  0  0  0  0  0  0  0  0  0  0
   59.0620   30.3510   50.6180 C   0  0  0  0  0  0  0  0  0  0  0  0
   59.8720   31.5910   50.5870 N   0  0  0  0  0  0  0  0  0  0  0  0
   61.0590   31.4580   51.4460 C   0  0  0  0  0  0  0  0  0  0  0  0
   59.0780   32.7760   50.9760 C   0  0  0  0  0  0  0  0  0  0  0  0
   57.7660   32.3410   51.6270 C   0  0  0  0  0  0  0  0  0  0  0  0
   59.0150   29.5080   46.1320 C   0  0  0  0  0  0  0  0  0  0  0  0
   59.5130   28.3030   46.6730 C   0  0  0  0  0  0  0  0  0  0  0  0
   59.4390   27.1150   45.9480 C   0  0  0  0  0  0  0  0  0  0  0  0
   58.8820   27.1090   44.6740 C   0  0  0  0  0  0  0  0  0  0  0  0
   58.3680   28.2840   44.1290 C   0  0  0  0  0  0  0  0  0  0  0  0
   58.3890   29.5000   44.8600 C   0  0  0  0  0  0  0  0  0  0  0  0
   57.8150   30.6550   44.3690 N   0  0  0  0  0  0  0  0  0  0  0  0
   56.8710   30.5820   43.2310 C   0  0  0  0  0  0  0  0  0  0  0  0
   63.8960   33.7854   47.5378 H   0  0  0  0  0  0  0  0  0  0  0  0
   64.1777   32.6762   46.1533 H   0  0  0  0  0  0  0  0  0  0  0  0
   62.7517   33.7685   46.1533 H   0  0  0  0  0  0  0  0  0  0  0  0
   61.7275   31.8033   46.8434 H   0  0  0  0  0  0  0  0  0  0  0  0
   63.2110   31.1856   47.6468 H   0  0  0  0  0  0  0  0  0  0  0  0
   61.1630   32.1530   48.9530 H   0  0  0  0  0  0  0  0  0  0  0  0
   62.2312   34.4452   49.7474 H   0  0  0  0  0  0  0  0  0  0  0  0
   62.5853   34.4760   47.9821 H   0  0  0  0  0  0  0  0  0  0  0  0
   60.0166   34.7845   49.3985 H   0  0  0  0  0  0  0  0  0  0  0  0
   60.4605   35.2003   47.7053 H   0  0  0  0  0  0  0  0  0  0  0  0
   58.8301   35.3493   46.6266 H   0  0  0  0  0  0  0  0  0  0  0  0
   57.7157   35.2452   44.4167 H   0  0  0  0  0  0  0  0  0  0  0  0
   57.3000   33.0663   43.3193 H   0  0  0  0  0  0  0  0  0  0  0  0
   60.3700   31.2490   48.5040 H   0  0  0  0  0  0  0  0  0  0  0  0
   57.8314   29.7296   48.9618 H   0  0  0  0  0  0  0  0  0  0  0  0
   59.3844   28.8181   49.1502 H   0  0  0  0  0  0  0  0  0  0  0  0
   58.0699   30.5723   51.0383 H   0  0  0  0  0  0  0  0  0  0  0  0
   59.5677   29.6001   51.2428 H   0  0  0  0  0  0  0  0  0  0  0  0
   60.7531   31.4923   52.5020 H   0  0  0  0  0  0  0  0  0  0  0  0
   61.5557   30.4986   51.2391 H   0  0  0  0  0  0  0  0  0  0  0  0
   61.7557   32.2837   51.2391 H   0  0  0  0  0  0  0  0  0  0  0  0
   59.6550   33.3815   51.6905 H   0  0  0  0  0  0  0  0  0  0  0  0
   58.8536   33.3688   50.0770 H   0  0  0  0  0  0  0  0  0  0  0  0
   57.8706   32.3757   52.7215 H   0  0  0  0  0  0  0  0  0  0  0  0
   56.9588   33.0196   51.3141 H   0  0  0  0  0  0  0  0  0  0  0  0
   57.5241   31.3146   51.3141 H   0  0  0  0  0  0  0  0  0  0  0  0
   59.9638   28.3016   47.6764 H   0  0  0  0  0  0  0  0  0  0  0  0
   59.8218   26.1806   46.3844 H   0  0  0  0  0  0  0  0  0  0  0  0
   58.8470   26.1744   44.0949 H   0  0  0  0  0  0  0  0  0  0  0  0
   57.9392   28.2686   43.1161 H   0  0  0  0  0  0  0  0  0  0  0  0
   55.8423   30.5025   43.6124 H   0  0  0  0  0  0  0  0  0  0  0  0
   56.9654   31.4901   42.6175 H   0  0  0  0  0  0  0  0  0  0  0  0
   57.1039   29.6992   42.6175 H   0  0  0  0  0  0  0  0  0  0  0  0
  1  2  1  0
  2  3  1  0
  3  4  1  0
  4  5  1  0
  5  6  1  0
  6  7  1  0
  7  8  2  0
  8  9  1  0
  9 10  2  0
 10 11  1  0
 11 12  2  0
 12 13  1  0
 13 14  1  0
 14 15  1  0
 15 16  1  0
 16 17  1  0
 17 18  1  0
 17 19  1  0
 19 20  1  0
 13 21  2  0
 21 22  1  0
 22 23  2  0
 23 24  1  0
 24 25  2  0
 25 26  1  0
 26 27  2  0
 27 28  1  0
 12  7  1  0
 26 21  1  0
 27 11  1  0
  1 29  1  0
  1 30  1  0
  1 31  1  0
  2 32  1  0
  2 33  1  0
  3 34  1  0
  4 35  1  0
  4 36  1  0
  5 37  1  0
  5 38  1  0
  8 39  1  0
  9 40  1  0
 10 41  1  0
 14 42  1  0
 15 43  1  0
 15 44  1  0
 16 45  1  0
 16 46  1  0
 18 47  1  0
 18 48  1  0
 18 49  1  0
 19 50  1  0
 19 51  1  0
 20 52  1  0
 20 53  1  0
 20 54  1  0
 22 55  1  0
 23 56  1  0
 24 57  1  0
 25 58  1  0
 28 59  1  0
 28 60  1  0
 28 61  1  0
M  CHG  1  27   1
M  END
>  <UniqueID>  (2) 
2

>  <SMILES>  (2) 
CCNCCOc1cccc2c1c(NCCN(C)CC)c1ccccc1[n+]2C

>  <Energy>  (2) 
81.59707163231248

>  <Genealogy>  (2) 
CCNCCOc1cccc2c1c(NCCN(C)CC)c1ccccc1[n+]2C (3D coordinates assigned)
CCNCCOc1cccc2c1c(NCCN(C)CC)c1ccccc1[n+]2C (optimized conformer: 81.59707163231248 kcal/mol)

>  <smiles>  (2) 
CCNCCOc1cccc2c1c(NCCN(C)CC)c1ccccc1[n+]2C

>  <score_type>  (2) 
oracle

>  <origin>  (2) 
adg

>  <m_score__min__energy>  (2) 
-4.3600000000000003

>  <m_primary>  (2) 
energy

$$$$
2:0
     RDKit          3D

 33 34  0  0  0  0  0  0  0  0999 V2000
   50.2170   34.2740   53.9070 C   0  0  0  0  0  0  0  0  0  0  0  0
   50.1510   32.8160   53.4620 C   0  0  0  0  0  0  0  0  0  0  0  0
   50.2550   32.7120   52.0090 N   0  0  0  0  0  0  0  0  0  0  0  0
   51.3860   32.2080   51.2830 C   0  0  0  0  0  0  0  0  0  0  0  0
   51.5560   32.5830   50.0930 O   0  0  0  0  0  0  0  0  0  0  0  0
   52.3440   31.2570   51.8770 C   0  0  0  0  0  0  0  0  0  0  0  0
   53.6480   31.1350   51.3870 C   0  0  0  0  0  0  0  0  0  0  0  0
   54.5010   30.2360   51.9420 N   0  0  0  0  0  0  0  0  0  0  0  0
   54.1130   29.4360   52.9730 C   0  0  0  0  0  0  0  0  0  0  0  0
   55.0460   28.4950   53.5360 N   0  0  0  0  0  0  0  0  0  0  0  0
   56.4080   28.9360   53.8550 C   0  0  0  0  0  0  0  0  0  0  0  0
   57.3540   27.7320   53.8700 C   0  0  0  0  0  0  0  0  0  0  0  0
   56.8560   26.7100   54.7130 O   0  0  0  0  0  0  0  0  0  0  0  0
   55.6420   26.2070   54.1880 C   0  0  0  0  0  0  0  0  0  0  0  0
   54.5550   27.2850   54.2040 C   0  0  0  0  0  0  0  0  0  0  0  0
   52.8340   29.5130   53.4390 N   0  0  0  0  0  0  0  0  0  0  0  0
   51.9490   30.3990   52.9080 C   0  0  0  0  0  0  0  0  0  0  0  0
   50.2192   34.3222   55.0059 H   0  0  0  0  0  0  0  0  0  0  0  0
   51.1369   34.7348   53.5179 H   0  0  0  0  0  0  0  0  0  0  0  0
   49.3425   34.8161   53.5179 H   0  0  0  0  0  0  0  0  0  0  0  0
   50.9804   32.2602   53.9236 H   0  0  0  0  0  0  0  0  0  0  0  0
   49.1852   32.3945   53.7774 H   0  0  0  0  0  0  0  0  0  0  0  0
   53.9829   31.7675   50.5517 H   0  0  0  0  0  0  0  0  0  0  0  0
   56.7458   29.6562   53.0952 H   0  0  0  0  0  0  0  0  0  0  0  0
   56.4121   29.4129   54.8462 H   0  0  0  0  0  0  0  0  0  0  0  0
   57.4534   27.3391   52.8474 H   0  0  0  0  0  0  0  0  0  0  0  0
   58.3324   28.0581   54.2526 H   0  0  0  0  0  0  0  0  0  0  0  0
   55.8067   25.8762   53.1519 H   0  0  0  0  0  0  0  0  0  0  0  0
   55.3110   25.3631   54.8112 H   0  0  0  0  0  0  0  0  0  0  0  0
   53.6639   26.9130   53.6772 H   0  0  0  0  0  0  0  0  0  0  0  0
   54.2962   27.5247   55.2459 H   0  0  0  0  0  0  0  0  0  0  0  0
   52.5030   28.8690   54.1900 H   0  0  0  0  0  0  0  0  0  0  0  0
   50.9187   30.4407   53.2911 H   0  0  0  0  0  0  0  0  0  0  0  0
  1  2  1  0
  2  3  1  0
  3  4  1  0
  4  5  2  0
  4  6  1  0
  6  7  2  0
  7  8  1  0
  8  9  2  0
  9 10  1  0
 10 11  1  0
 11 12  1  0
 12 13  1  0
 13 14  1  0
 14 15  1  0
  9 16  1  0
 16 17  2  0
 17  6  1  0
 15 10  1  0
  1 18  1  0
  1 19  1  0
  1 20  1  0
  2 21  1  0
  2 22  1  0
  7 23  1  0
 11 24  1  0
 11 25  1  0
 12 26  1  0
 12 27  1  0
 14 28  1  0
 14 29  1  0
 15 30  1  0
 15 31  1  0
 16 32  1  0
 17 33  1  0
M  CHG  2   3  -1  16   1
M  END
>  <UniqueID>  (3) 
3

>  <SMILES>  (3) 
CC[N-]C(=O)c1cnc(N2CCOCC2)[nH+]c1

>  <Energy>  (3) 
37.972436854230494

>  <Genealogy>  (3) 
CC[N-]C(=O)c1cnc(N2CCOCC2)[nH+]c1 (protonated)
CC[N-]C(=O)c1cnc(N2CCOCC2)[nH+]c1 (3D coordinates assigned)
CC[N-]C(=O)c1cnc(N2CCOCC2)[nH+]c1 (nonaromatic ring conformer: 37.972436854230494 kcal/mol)

>  <smiles>  (3) 
CCNC(=O)c1cnc(N2CCOCC2)nc1

>  <score_type>  (3) 
oracle

>  <origin>  (3) 
adg

>  <m_score__min__energy>  (3) 
-6.6900000000000004

>  <m_primary>  (3) 
energy

$$$$
3:0
     RDKit          3D

 43 45  0  0  0  0  0  0  0  0999 V2000
   56.6900   34.9497   44.9487 H   0  0  0  0  0  0  0  0  0  0  0  0
   57.3130   34.0960   45.2540 C   0  0  0  0  0  0  0  0  0  0  0  0
   56.8040   32.8260   45.1900 N   0  0  0  0  0  0  0  0  0  0  0  0
   57.5330   31.7260   45.5590 C   0  0  0  0  0  0  0  0  0  0  0  0
   57.0310   30.5290   45.4920 N   0  0  0  0  0  0  0  0  0  0  0  0
   56.6740   29.8620   44.2440 C   0  0  0  0  0  0  0  0  0  0  0  0
   56.4264   30.6181   43.4844 H   0  0  0  0  0  0  0  0  0  0  0  0
   55.8050   29.2104   44.4177 H   0  0  0  0  0  0  0  0  0  0  0  0
   57.8470   29.0150   43.7520 C   0  0  0  0  0  0  0  0  0  0  0  0
   58.0095   29.2093   42.6816 H   0  0  0  0  0  0  0  0  0  0  0  0
   57.6105   27.9530   43.9139 H   0  0  0  0  0  0  0  0  0  0  0  0
   59.0270   29.3350   44.4680 O   0  0  0  0  0  0  0  0  0  0  0  0
   59.9040   28.2270   44.4990 C   0  0  0  0  0  0  0  0  0  0  0  0
   60.9297   28.5619   44.2849 H   0  0  0  0  0  0  0  0  0  0  0  0
   59.6003   27.4901   43.7409 H   0  0  0  0  0  0  0  0  0  0  0  0
   59.8510   27.5900   45.8930 C   0  0  0  0  0  0  0  0  0  0  0  0
   60.8046   27.7826   46.4064 H   0  0  0  0  0  0  0  0  0  0  0  0
   59.6748   26.5119   45.7638 H   0  0  0  0  0  0  0  0  0  0  0  0
   58.7530   28.1310   46.7140 N   0  0  0  0  0  0  0  0  0  0  0  0
   58.2520   28.8820   46.1860 H   0  0  0  0  0  0  0  0  0  0  0  0
   57.7870   27.0990   47.1210 C   0  0  0  0  0  0  0  0  0  0  0  0
   57.1049   27.5178   47.8756 H   0  0  0  0  0  0  0  0  0  0  0  0
   58.3342   26.2426   47.5418 H   0  0  0  0  0  0  0  0  0  0  0  0
   56.9780   26.6280   45.9180 C   0  0  0  0  0  0  0  0  0  0  0  0
   56.0761   26.1029   46.2655 H   0  0  0  0  0  0  0  0  0  0  0  0
   56.6852   27.4968   45.3102 H   0  0  0  0  0  0  0  0  0  0  0  0
   57.5890   25.9444   45.3102 H   0  0  0  0  0  0  0  0  0  0  0  0
   58.8360   31.9260   46.0120 C   0  0  0  0  0  0  0  0  0  0  0  0
   59.3620   33.1970   46.0810 C   0  0  0  0  0  0  0  0  0  0  0  0
   58.6260   34.3170   45.7070 C   0  0  0  0  0  0  0  0  0  0  0  0
   59.0519   35.3297   45.7631 H   0  0  0  0  0  0  0  0  0  0  0  0
   60.6440   33.0550   46.5590 C   0  0  0  0  0  0  0  0  0  0  0  0
   61.6430   33.9870   46.8350 C   0  0  0  0  0  0  0  0  0  0  0  0
   61.4792   35.0627   46.6734 H   0  0  0  0  0  0  0  0  0  0  0  0
   62.8690   33.5020   47.3280 C   0  0  0  0  0  0  0  0  0  0  0  0
   63.6823   34.2064   47.5570 H   0  0  0  0  0  0  0  0  0  0  0  0
   63.0630   32.1170   47.5310 C   0  0  0  0  0  0  0  0  0  0  0  0
   64.0267   31.7527   47.9165 H   0  0  0  0  0  0  0  0  0  0  0  0
   62.0360   31.2000   47.2450 C   0  0  0  0  0  0  0  0  0  0  0  0
   62.1798   30.1207   47.4015 H   0  0  0  0  0  0  0  0  0  0  0  0
   60.8300   31.7010   46.7570 C   0  0  0  0  0  0  0  0  0  0  0  0
   59.7270   30.9950   46.4240 N   0  0  0  0  0  0  0  0  0  0  0  0
   59.5950   29.9600   46.4750 H   0  0  0  0  0  0  0  0  0  0  0  0
  1  2  1  0
  2  3  1  0
  3  4  1  0
  4  5  2  0
  5  6  1  0
  6  7  1  0
  6  8  1  0
  6  9  1  0
  9 10  1  0
  9 11  1  0
  9 12  1  0
 12 13  1  0
 13 14  1  0
 13 15  1  0
 13 16  1  0
 16 17  1  0
 16 18  1  0
 16 19  1  0
 19 20  1  0
 19 21  1  0
 21 22  1  0
 21 23  1  0
 21 24  1  0
 24 25  1  0
 24 26  1  0
 24 27  1  0
  4 28  1  0
 28 29  2  0
 29 30  1  0
 30 31  1  0
 29 32  1  0
 32 33  2  0
 33 34  1  0
 33 35  1  0
 35 36  1  0
 35 37  2  0
 37 38  1  0
 37 39  1  0
 39 40  1  0
 39 41  2  0
 41 42  1  0
 42 43  1  0
 30  2  2  0
 41 32  1  0
 42 28  1  0
M  CHG  1   3  -1
M  END
>  <UniqueID>  (4) 
4

>  <SMILES>  (4) 
CCNCCOCC/N=c1\[n-]ccc2c1[nH]c1ccccc12

>  <Energy>  (4) 
82.95797642494206

>  <Genealogy>  (4) 
CCNCCOCCN=c1[n-]ccc2c1[nH]c1ccccc12 (protonated)
CCNCCOCC/N=c1\[n-]ccc2c1[nH]c1ccccc12 (cis-trans isomerization)
CCNCCOCC/N=c1\[n-]ccc2c1[nH]c1ccccc12 (3D coordinates assigned)
CCNCCOCC/N=c1\[n-]ccc2c1[nH]c1ccccc12 (optimized conformer: 82.95797642494206 kcal/mol)

>  <smiles>  (4) 
CCNCCOCCN=c1[nH]ccc2c1[nH]c1ccccc12

>  <score_type>  (4) 
oracle

>  <origin>  (4) 
adg

>  <m_score__min__energy>  (4) 
-7.4199999999999999

>  <m_primary>  (4) 
energy

$$$$
4:0
     RDKit          3D

 52 55  0  0  0  0  0  0  0  0999 V2000
   64.0470   33.2960   48.0950 C   0  0  0  0  0  0  0  0  0  0  0  0
   64.1120   31.9840   48.8840 C   0  0  0  0  0  0  0  0  0  0  0  0
   64.1820   32.2030   50.3520 N   0  0  0  0  0  0  0  0  0  0  0  0
   64.9510   31.1180   51.0160 C   0  0  0  0  0  0  0  0  0  0  0  0
   64.0790   30.0020   51.6130 C   0  0  0  0  0  0  0  0  0  0  0  0
   64.7140   33.5530   50.7080 C   0  0  0  0  0  0  0  0  0  0  0  0
   63.5980   34.5550   51.0590 C   0  0  0  0  0  0  0  0  0  0  0  0
   62.3130   33.8780   51.2460 N   0  0  0  0  0  0  0  0  0  0  0  0
   61.4240   33.5740   50.1550 C   0  0  0  0  0  0  0  0  0  0  0  0
   60.9790   34.5680   49.2390 C   0  0  0  0  0  0  0  0  0  0  0  0
   60.1110   34.1890   48.1990 C   0  0  0  0  0  0  0  0  0  0  0  0
   59.5910   34.9920   47.2460 N   0  0  0  0  0  0  0  0  0  0  0  0
   58.8270   34.1790   46.4840 C   0  0  0  0  0  0  0  0  0  0  0  0
   58.0790   34.5410   45.3680 C   0  0  0  0  0  0  0  0  0  0  0  0
   57.3450   33.5410   44.7080 C   0  0  0  0  0  0  0  0  0  0  0  0
   57.3670   32.1960   45.1730 C   0  0  0  0  0  0  0  0  0  0  0  0
   56.6460   31.1740   44.5380 O   0  0  0  0  0  0  0  0  0  0  0  0
   57.0170   30.5820   43.2980 C   0  0  0  0  0  0  0  0  0  0  0  0
   58.1340   31.8620   46.3060 C   0  0  0  0  0  0  0  0  0  0  0  0
   58.8520   32.8750   46.9400 C   0  0  0  0  0  0  0  0  0  0  0  0
   59.6790   32.8800   48.0460 C   0  0  0  0  0  0  0  0  0  0  0  0
   60.1120   31.9060   48.9400 C   0  0  0  0  0  0  0  0  0  0  0  0
   59.8720   30.5560   49.0540 C   0  0  0  0  0  0  0  0  0  0  0  0
   60.6080   30.1640   50.1650 C   0  0  0  0  0  0  0  0  0  0  0  0
   61.2470   31.1950   50.6870 O   0  0  0  0  0  0  0  0  0  0  0  0
   60.9630   32.2530   49.9650 C   0  0  0  0  0  0  0  0  0  0  0  0
   64.0050   34.1433   48.7953 H   0  0  0  0  0  0  0  0  0  0  0  0
   64.9417   33.3877   47.4617 H   0  0  0  0  0  0  0  0  0  0  0  0
   63.1476   33.2988   47.4617 H   0  0  0  0  0  0  0  0  0  0  0  0
   63.2125   31.3924   48.6585 H   0  0  0  0  0  0  0  0  0  0  0  0
   65.0297   31.4583   48.5814 H   0  0  0  0  0  0  0  0  0  0  0  0
   63.2060   32.1060   50.7220 H   0  0  0  0  0  0  0  0  0  0  0  0
   65.6254   30.6683   50.2724 H   0  0  0  0  0  0  0  0  0  0  0  0
   65.4902   31.5810   51.8556 H   0  0  0  0  0  0  0  0  0  0  0  0
   64.1190   30.0532   52.7111 H   0  0  0  0  0  0  0  0  0  0  0  0
   63.0392   30.1300   51.2776 H   0  0  0  0  0  0  0  0  0  0  0  0
   64.4547   29.0241   51.2776 H   0  0  0  0  0  0  0  0  0  0  0  0
   65.3818   33.4510   51.5761 H   0  0  0  0  0  0  0  0  0  0  0  0
   65.2483   33.9433   49.8292 H   0  0  0  0  0  0  0  0  0  0  0  0
   63.8658   35.0781   51.9889 H   0  0  0  0  0  0  0  0  0  0  0  0
   63.4969   35.2669   50.2266 H   0  0  0  0  0  0  0  0  0  0  0  0
   62.0240   33.5940   52.2100 H   0  0  0  0  0  0  0  0  0  0  0  0
   61.3075   35.6127   49.3423 H   0  0  0  0  0  0  0  0  0  0  0  0
   59.7480   36.0170   47.1240 H   0  0  0  0  0  0  0  0  0  0  0  0
   58.0627   35.5817   45.0121 H   0  0  0  0  0  0  0  0  0  0  0  0
   56.7468   33.8005   43.8221 H   0  0  0  0  0  0  0  0  0  0  0  0
   57.5924   29.6639   43.4876 H   0  0  0  0  0  0  0  0  0  0  0  0
   56.1116   30.3354   42.7240 H   0  0  0  0  0  0  0  0  0  0  0  0
   57.6337   31.2892   42.7240 H   0  0  0  0  0  0  0  0  0  0  0  0
   58.1657   30.8284   46.6811 H   0  0  0  0  0  0  0  0  0  0  0  0
   59.2392   29.9279   48.4098 H   0  0  0  0  0  0  0  0  0  0  0  0
   60.6524   29.1368   50.5559 H   0  0  0  0  0  0  0  0  0  0  0  0
  1  2  1  0
  2  3  1  0
  3  4  1  0
  4  5  1  0
  3  6  1  0
  6  7  1  0
  7  8  1  0
  8  9  1  0
  9 10  2  0
 10 11  1  0
 11 12  1  0
 12 13  1  0
 13 14  2  0
 14 15  1  0
 15 16  2  0
 16 17  1  0
 17 18  1  0
 16 19  1  0
 19 20  2  0
 20 21  1  0
 21 22  1  0
 22 23  1  0
 23 24  2  0
 24 25  1  0
 25 26  1  0
 26  9  1  0
 21 11  2  0
 26 22  2  0
 20 13  1  0
  1 27  1  0
  1 28  1  0
  1 29  1  0
  2 30  1  0
  2 31  1  0
  3 32  1  0
  4 33  1  0
  4 34  1  0
  5 35  1  0
  5 36  1  0
  5 37  1  0
  6 38  1  0
  6 39  1  0
  7 40  1  0
  7 41  1  0
  8 42  1  0
 10 43  1  0
 12 44  1  0
 14 45  1  0
 15 46  1  0
 18 47  1  0
 18 48  1  0
 18 49  1  0
 19 50  1  0
 23 51  1  0
 24 52  1  0
M  CHG  1   3   1
M  END
>  <UniqueID>  (5) 
5

>  <SMILES>  (5) 
CC[NH+](CC)CCNc1cc2[nH]c3ccc(OC)cc3c2c2ccoc12

>  <Energy>  (5) 
132.38069804085683

>  <Genealogy>  (5) 
CC[NH+](CC)CCNc1cc2[nH]c3ccc(OC)cc3c2c2ccoc12 (protonated)
CC[NH+](CC)CCNc1cc2[nH]c3ccc(OC)cc3c2c2ccoc12 (3D coordinates assigned)
CC[NH+](CC)CCNc1cc2[nH]c3ccc(OC)cc3c2c2ccoc12 (optimized conformer: 132.38069804085683 kcal/mol)

>  <smiles>  (5) 
CCN(CC)CCNc1cc2[nH]c3ccc(OC)cc3c2c2ccoc12

>  <score_type>  (5) 
oracle

>  <origin>  (5) 
adg

>  <m_score__min__energy>  (5) 
-5.3499999999999996

>  <m_primary>  (5) 
energy

$$$$
5:0
     RDKit          3D

 42 44  0  0  0  0  0  0  0  0999 V2000
   56.0240   30.0010   43.6450 C   0  0  0  0  0  0  0  0  0  0  0  0
   56.3700   30.7110   44.8150 O   0  0  0  0  0  0  0  0  0  0  0  0
   57.5870   31.4040   44.6220 C   0  0  0  0  0  0  0  0  0  0  0  0
   58.6200   30.9620   45.6310 C   0  0  0  0  0  0  0  0  0  0  0  0
   58.9890   29.6470   45.9000 C   0  0  0  0  0  0  0  0  0  0  0  0
   58.3950   28.4400   45.3770 N   0  0  0  0  0  0  0  0  0  0  0  0
   58.8840   27.8920   44.1100 C   0  0  0  0  0  0  0  0  0  0  0  0
   57.3910   27.7030   46.1460 C   0  0  0  0  0  0  0  0  0  0  0  0
   60.1020   29.6930   46.7170 C   0  0  0  0  0  0  0  0  0  0  0  0
   60.3740   31.0310   46.9240 C   0  0  0  0  0  0  0  0  0  0  0  0
   61.5430   31.5270   47.6840 C   0  0  0  0  0  0  0  0  0  0  0  0
   61.7870   31.0550   48.9850 C   0  0  0  0  0  0  0  0  0  0  0  0
   62.8920   31.5130   49.7060 C   0  0  0  0  0  0  0  0  0  0  0  0
   63.7720   32.4360   49.1320 C   0  0  0  0  0  0  0  0  0  0  0  0
   65.2830   33.0600   50.1200 Br  0  0  0  0  0  0  0  0  0  0  0  0
   63.5480   32.8970   47.8310 C   0  0  0  0  0  0  0  0  0  0  0  0
   62.4420   32.4410   47.1070 C   0  0  0  0  0  0  0  0  0  0  0  0
   59.4550   31.8030   46.2910 N   0  0  0  0  0  0  0  0  0  0  0  0
   59.4060   33.2720   46.2620 C   0  0  0  0  0  0  0  0  0  0  0  0
   58.0640   33.8500   46.6950 C   0  0  0  0  0  0  0  0  0  0  0  0
   59.2540   33.9280   47.6300 C   0  0  0  0  0  0  0  0  0  0  0  0
   55.5576   29.0439   43.9214 H   0  0  0  0  0  0  0  0  0  0  0  0
   55.3150   30.5964   43.0510 H   0  0  0  0  0  0  0  0  0  0  0  0
   56.9298   29.8095   43.0510 H   0  0  0  0  0  0  0  0  0  0  0  0
   57.9620   31.1994   43.6083 H   0  0  0  0  0  0  0  0  0  0  0  0
   57.4046   32.4810   44.7519 H   0  0  0  0  0  0  0  0  0  0  0  0
   59.6038   27.0853   44.3129 H   0  0  0  0  0  0  0  0  0  0  0  0
   58.0376   27.4915   43.5327 H   0  0  0  0  0  0  0  0  0  0  0  0
   59.3779   28.6875   43.5327 H   0  0  0  0  0  0  0  0  0  0  0  0
   57.5787   27.8408   47.2211 H   0  0  0  0  0  0  0  0  0  0  0  0
   56.3884   28.0812   45.8974 H   0  0  0  0  0  0  0  0  0  0  0  0
   57.4514   26.6332   45.8974 H   0  0  0  0  0  0  0  0  0  0  0  0
   60.6598   28.8356   47.1216 H   0  0  0  0  0  0  0  0  0  0  0  0
   61.1042   30.3210   49.4378 H   0  0  0  0  0  0  0  0  0  0  0  0
   63.0706   31.1469   50.7278 H   0  0  0  0  0  0  0  0  0  0  0  0
   64.2425   33.6190   47.3767 H   0  0  0  0  0  0  0  0  0  0  0  0
   62.2745   32.7993   46.0806 H   0  0  0  0  0  0  0  0  0  0  0  0
   60.0819   33.4074   45.4048 H   0  0  0  0  0  0  0  0  0  0  0  0
   57.6795   34.7634   46.2177 H   0  0  0  0  0  0  0  0  0  0  0  0
   57.0390   33.4586   46.7737 H   0  0  0  0  0  0  0  0  0  0  0  0
   59.7326   34.8979   47.8306 H   0  0  0  0  0  0  0  0  0  0  0  0
   59.4490   33.6166   48.6668 H   0  0  0  0  0  0  0  0  0  0  0  0
  1  2  1  0
  2  3  1  0
  3  4  1  0
  4  5  2  0
  5  6  1  0
  6  7  1  0
  6  8  1  0
  5  9  1  0
  9 10  2  0
 10 11  1  0
 11 12  2  0
 12 13  1  0
 13 14  2  0
 14 15  1  0
 14 16  1  0
 16 17  2  0
 10 18  1  0
 18 19  1  0
 19 20  1  0
 20 21  1  0
 18  4  1  0
 21 19  1  0
 17 11  1  0
  1 22  1  0
  1 23  1  0
  1 24  1  0
  3 25  1  0
  3 26  1  0
  7 27  1  0
  7 28  1  0
  7 29  1  0
  8 30  1  0
  8 31  1  0
  8 32  1  0
  9 33  1  0
 12 34  1  0
 13 35  1  0
 16 36  1  0
 17 37  1  0
 19 38  1  0
 20 39  1  0
 20 40  1  0
 21 41  1  0
 21 42  1  0
M  END
>  <UniqueID>  (6) 
6

>  <SMILES>  (6) 
COCc1c(N(C)C)cc(-c2ccc(Br)cc2)n1C1CC1

>  <Energy>  (6) 
341.99006644338704

>  <Genealogy>  (6) 
COCc1c(N(C)C)cc(-c2ccc(Br)cc2)n1C1CC1 (3D coordinates assigned)
COCc1c(N(C)C)cc(-c2ccc(Br)cc2)n1C1CC1 (nonaromatic ring conformer: 341.99006644338704 kcal/mol)

>  <smiles>  (6) 
COCc1c(N(C)C)cc(-c2ccc(Br)cc2)n1C1CC1

>  <score_type>  (6) 
oracle

>  <origin>  (6) 
adg

>  <m_score__min__energy>  (6) 
-6.9000000000000004

>  <m_primary>  (6) 
energy

$$$$
6:0
     RDKit          3D

 69 71  0  0  0  0  0  0  0  0999 V2000
   56.6510   22.1940   42.6950 C   0  0  0  0  0  0  0  0  0  0  0  0
   56.3460   23.6620   43.0290 C   0  0  0  0  0  0  0  0  0  0  0  0
   56.7320   24.0830   44.4030 N   0  0  2  0  0  0  0  0  0  0  0  0
   58.1190   23.6840   44.7160 C   0  0  0  0  0  0  0  0  0  0  0  0
   55.8140   23.6160   45.4740 C   0  0  0  0  0  0  0  0  0  0  0  0
   54.6330   24.5730   45.7300 C   0  0  0  0  0  0  0  0  0  0  0  0
   55.0440   25.9270   45.6330 O   0  0  0  0  0  0  0  0  0  0  0  0
   56.1840   26.1800   46.4370 C   0  0  0  0  0  0  0  0  0  0  0  0
   57.0810   27.2400   45.7840 C   0  0  0  0  0  0  0  0  0  0  0  0
   58.1790   26.6350   44.9960 N   0  0  0  0  0  0  0  0  0  0  0  0
   58.1610   27.1340   43.6090 C   0  0  0  0  0  0  0  0  0  0  0  0
   59.5270   26.7550   45.6070 C   0  0  0  0  0  0  0  0  0  0  0  0
   60.0460   28.2050   45.7280 C   0  0  0  0  0  0  0  0  0  0  0  0
   59.6920   28.8220   47.0860 C   0  0  0  0  0  0  0  0  0  0  0  0
   58.5040   29.6700   46.9920 N   0  0  0  0  0  0  0  0  0  0  0  0
   58.6090   31.0080   46.4960 C   0  0  0  0  0  0  0  0  0  0  0  0
   58.2320   31.2980   45.1900 C   0  0  0  0  0  0  0  0  0  0  0  0
   58.3190   32.5730   44.6960 C   0  0  0  0  0  0  0  0  0  0  0  0
   58.7880   33.6170   45.4560 N   0  0  0  0  0  0  0  0  0  0  0  0
   58.8900   34.9690   44.8750 C   0  0  0  0  0  0  0  0  0  0  0  0
   59.1480   33.3810   46.7730 C   0  0  0  0  0  0  0  0  0  0  0  0
   59.6020   34.4220   47.6190 C   0  0  0  0  0  0  0  0  0  0  0  0
   59.9660   34.1640   48.9420 C   0  0  0  0  0  0  0  0  0  0  0  0
   59.8870   32.8720   49.4540 C   0  0  0  0  0  0  0  0  0  0  0  0
   59.4400   31.8260   48.6500 C   0  0  0  0  0  0  0  0  0  0  0  0
   59.0650   32.0600   47.3130 C   0  0  0  0  0  0  0  0  0  0  0  0
   57.8490   32.6360   43.2830 C   0  0  0  0  0  0  0  0  0  0  0  0
   57.3510   31.2140   42.9770 C   0  0  0  0  0  0  0  0  0  0  0  0
   57.6900   30.3410   44.1940 C   0  0  0  0  0  0  0  0  0  0  0  0
   56.7697   21.6228   43.6276 H   0  0  0  0  0  0  0  0  0  0  0  0
   55.8215   21.7713   42.1091 H   0  0  0  0  0  0  0  0  0  0  0  0
   57.5802   22.1367   42.1091 H   0  0  0  0  0  0  0  0  0  0  0  0
   56.8883   24.2958   42.3120 H   0  0  0  0  0  0  0  0  0  0  0  0
   55.2534   23.7729   42.9668 H   0  0  0  0  0  0  0  0  0  0  0  0
   56.7250   25.1330   44.4080 H   0  0  0  0  0  0  0  0  0  0  0  0
   58.2521   23.6457   45.8072 H   0  0  0  0  0  0  0  0  0  0  0  0
   58.3207   22.6914   44.2869 H   0  0  0  0  0  0  0  0  0  0  0  0
   58.8173   24.4177   44.2869 H   0  0  0  0  0  0  0  0  0  0  0  0
   55.4107   22.6346   45.1838 H   0  0  0  0  0  0  0  0  0  0  0  0
   56.3992   23.5672   46.4041 H   0  0  0  0  0  0  0  0  0  0  0  0
   53.8471   24.3816   44.9845 H   0  0  0  0  0  0  0  0  0  0  0  0
   54.2524   24.3949   46.7466 H   0  0  0  0  0  0  0  0  0  0  0  0
   55.8577   26.5406   47.4236 H   0  0  0  0  0  0  0  0  0  0  0  0
   56.7571   25.2471   46.5433 H   0  0  0  0  0  0  0  0  0  0  0  0
   56.4664   27.8615   45.1162 H   0  0  0  0  0  0  0  0  0  0  0  0
   57.5329   27.8411   46.5868 H   0  0  0  0  0  0  0  0  0  0  0  0
   58.1213   28.2333   43.6153 H   0  0  0  0  0  0  0  0  0  0  0  0
   59.0717   26.8029   43.0884 H   0  0  0  0  0  0  0  0  0  0  0  0
   57.2765   26.7382   43.0884 H   0  0  0  0  0  0  0  0  0  0  0  0
   59.4876   26.3184   46.6159 H   0  0  0  0  0  0  0  0  0  0  0  0
   60.2229   26.2272   44.9383 H   0  0  0  0  0  0  0  0  0  0  0  0
   61.1398   28.2031   45.6115 H   0  0  0  0  0  0  0  0  0  0  0  0
   59.5671   28.8075   44.9421 H   0  0  0  0  0  0  0  0  0  0  0  0
   59.4992   28.0140   47.8071 H   0  0  0  0  0  0  0  0  0  0  0  0
   60.5372   29.4444   47.4150 H   0  0  0  0  0  0  0  0  0  0  0  0
   57.5950   29.3690   47.4120 H   0  0  0  0  0  0  0  0  0  0  0  0
   58.9461   35.7124   45.6838 H   0  0  0  0  0  0  0  0  0  0  0  0
   59.7956   35.0338   44.2539 H   0  0  0  0  0  0  0  0  0  0  0  0
   58.0044   35.1690   44.2539 H   0  0  0  0  0  0  0  0  0  0  0  0
   59.6688   35.4481   47.2284 H   0  0  0  0  0  0  0  0  0  0  0  0
   60.3170   34.9860   49.5831 H   0  0  0  0  0  0  0  0  0  0  0  0
   60.1784   32.6765   50.4965 H   0  0  0  0  0  0  0  0  0  0  0  0
   59.3794   30.8083   49.0631 H   0  0  0  0  0  0  0  0  0  0  0  0
   57.0319   33.3648   43.1775 H   0  0  0  0  0  0  0  0  0  0  0  0
   58.6429   32.9578   42.5929 H   0  0  0  0  0  0  0  0  0  0  0  0
   56.2636   31.2233   42.8113 H   0  0  0  0  0  0  0  0  0  0  0  0
   57.8304   30.8200   42.0688 H   0  0  0  0  0  0  0  0  0  0  0  0
   56.7880   29.8444   44.5811 H   0  0  0  0  0  0  0  0  0  0  0  0
   58.4016   29.5382   43.9510 H   0  0  0  0  0  0  0  0  0  0  0  0
  1  2  1  0
  2  3  1  0
  3  4  1  0
  3  5  1  0
  5  6  1  0
  6  7  1  0
  7  8  1  0
  8  9  1  0
  9 10  1  0
 10 11  1  0
 10 12  1  0
 12 13  1  0
 13 14  1  0
 14 15  1  0
 15 16  1  0
 16 17  2  0
 17 18  1  0
 18 19  2  0
 19 20  1  0
 19 21  1  0
 21 22  2  0
 22 23  1  0
 23 24  2  0
 24 25  1  0
 25 26  2  0
 18 27  1  0
 27 28  1  0
 28 29  1  0
 26 16  1  0
 29 17  1  0
 26 21  1  0
  1 30  1  0
  1 31  1  0
  1 32  1  0
  2 33  1  0
  2 34  1  0
  3 35  1  6
  4 36  1  0
  4 37  1  0
  4 38  1  0
  5 39  1  0
  5 40  1  0
  6 41  1  0
  6 42  1  0
  8 43  1  0
  8 44  1  0
  9 45  1  0
  9 46  1  0
 11 47  1  0
 11 48  1  0
 11 49  1  0
 12 50  1  0
 12 51  1  0
 13 52  1  0
 13 53  1  0
 14 54  1  0
 14 55  1  0
 15 56  1  0
 20 57  1  0
 20 58  1  0
 20 59  1  0
 22 60  1  0
 23 61  1  0
 24 62  1  0
 25 63  1  0
 27 64  1  0
 27 65  1  0
 28 66  1  0
 28 67  1  0
 29 68  1  0
 29 69  1  0
M  CHG  2   3   1  19   1
M  END
>  <UniqueID>  (7) 
7

>  <SMILES>  (7) 
CC[N@H+](C)CCOCCN(C)CCCNc1c2c([n+](C)c3ccccc13)CCC2

>  <Energy>  (7) 
96.55773987025906

>  <Genealogy>  (7) 
CC[NH+](C)CCOCCN(C)CCCNc1c2c([n+](C)c3ccccc13)CCC2 (protonated)
CC[N@H+](C)CCOCCN(C)CCCNc1c2c([n+](C)c3ccccc13)CCC2 (chirality)
CC[N@H+](C)CCOCCN(C)CCCNc1c2c([n+](C)c3ccccc13)CCC2 (3D coordinates assigned)
CC[N@H+](C)CCOCCN(C)CCCNc1c2c([n+](C)c3ccccc13)CCC2 (nonaromatic ring conformer: 96.55773987025906 kcal/mol)

>  <smiles>  (7) 
CCN(C)CCOCCN(C)CCCNc1c2c([n+](C)c3ccccc13)CCC2

>  <score_type>  (7) 
oracle

>  <origin>  (7) 
adg

>  <m_score__min__energy>  (7) 
-3.9399999999999999

>  <m_primary>  (7) 
energy

$$$$
7:0
     RDKit          3D

 39 42  0  0  0  0  0  0  0  0999 V2000
   59.8390   33.8640   50.2470 C   0  0  0  0  0  0  0  0  0  0  0  0
   61.2030   33.5110   49.8760 N   0  0  0  0  0  0  0  0  0  0  0  0
   62.1820   33.1280   50.7350 C   0  0  0  0  0  0  0  0  0  0  0  0
   63.3770   32.9080   50.1290 N   0  0  0  0  0  0  0  0  0  0  0  0
   63.1000   33.1570   48.8390 C   0  0  0  0  0  0  0  0  0  0  0  0
   63.9880   33.1380   47.8170 N   0  0  0  0  0  0  0  0  0  0  0  0
   63.5460   33.4740   46.5700 C   0  0  0  0  0  0  0  0  0  0  0  0
   62.2360   33.8160   46.3660 N   0  0  0  0  0  0  0  0  0  0  0  0
   61.3290   33.8320   47.3870 C   0  0  0  0  0  0  0  0  0  0  0  0
   59.9630   34.1410   47.1000 N   0  0  0  0  0  0  0  0  0  0  0  0
   58.6640   33.4630   47.2930 C   0  0  0  0  0  0  0  0  0  0  0  0
   57.9550   34.1390   46.1630 C   0  0  0  0  0  0  0  0  0  0  0  0
   57.5190   33.1850   45.0390 C   0  0  0  0  0  0  0  0  0  0  0  0
   57.3140   31.8700   45.5570 O   0  0  0  0  0  0  0  0  0  0  0  0
   57.4820   30.6690   44.8490 C   0  0  0  0  0  0  0  0  0  0  0  0
   56.7170   30.3510   43.7090 C   0  0  0  0  0  0  0  0  0  0  0  0
   56.9220   29.1440   43.0350 C   0  0  0  0  0  0  0  0  0  0  0  0
   57.8960   28.2470   43.4810 C   0  0  0  0  0  0  0  0  0  0  0  0
   58.1510   26.7330   42.6340 Cl  0  0  0  0  0  0  0  0  0  0  0  0
   58.6700   28.5610   44.6010 C   0  0  0  0  0  0  0  0  0  0  0  0
   58.4700   29.7680   45.2800 C   0  0  0  0  0  0  0  0  0  0  0  0
   59.5440   30.1640   46.8130 Br  0  0  0  0  0  0  0  0  0  0  0  0
   59.2820   34.8030   45.9710 C   0  0  0  0  0  0  0  0  0  0  0  0
   61.7950   33.5020   48.6670 C   0  0  0  0  0  0  0  0  0  0  0  0
   59.7514   33.8867   51.3433 H   0  0  0  0  0  0  0  0  0  0  0  0
   59.5929   34.8554   49.8389 H   0  0  0  0  0  0  0  0  0  0  0  0
   59.1429   33.1164   49.8389 H   0  0  0  0  0  0  0  0  0  0  0  0
   62.0227   33.0076   51.8167 H   0  0  0  0  0  0  0  0  0  0  0  0
   64.2475   33.4700   45.7227 H   0  0  0  0  0  0  0  0  0  0  0  0
   58.7311   32.3732   47.1594 H   0  0  0  0  0  0  0  0  0  0  0  0
   58.2036   33.5420   48.2889 H   0  0  0  0  0  0  0  0  0  0  0  0
   57.0082   34.6915   46.2542 H   0  0  0  0  0  0  0  0  0  0  0  0
   56.5810   33.5508   44.5959 H   0  0  0  0  0  0  0  0  0  0  0  0
   58.3083   33.1492   44.2737 H   0  0  0  0  0  0  0  0  0  0  0  0
   55.9544   31.0566   43.3477 H   0  0  0  0  0  0  0  0  0  0  0  0
   56.3149   28.8995   42.1509 H   0  0  0  0  0  0  0  0  0  0  0  0
   59.4394   27.8568   44.9503 H   0  0  0  0  0  0  0  0  0  0  0  0
   59.7396   34.5614   45.0003 H   0  0  0  0  0  0  0  0  0  0  0  0
   59.2912   35.9029   45.9600 H   0  0  0  0  0  0  0  0  0  0  0  0
  1  2  1  0
  2  3  1  0
  3  4  2  0
  4  5  1  0
  5  6  2  0
  6  7  1  0
  7  8  2  0
  8  9  1  0
  9 10  1  0
 10 11  1  0
 11 12  1  0
 12 13  1  0
 13 14  1  0
 14 15  1  0
 15 16  2  0
 16 17  1  0
 17 18  2  0
 18 19  1  0
 18 20  1  0
 20 21  2  0
 21 22  1  0
 12 23  1  0
  9 24  2  0
 24  2  1  0
 24  5  1  0
 23 10  1  0
 21 15  1  0
  1 25  1  0
  1 26  1  0
  1 27  1  0
  3 28  1  0
  7 29  1  0
 11 30  1  0
 11 31  1  0
 12 32  1  0
 13 33  1  0
 13 34  1  0
 16 35  1  0
 17 36  1  0
 20 37  1  0
 23 38  1  0
 23 39  1  0
M  END
>  <UniqueID>  (8) 
8

>  <SMILES>  (8) 
Cn1cnc2ncnc(N3CC(COc4ccc(Cl)cc4Br)C3)c21

>  <Energy>  (8) 
136.78657943620695

>  <Genealogy>  (8) 
Cn1cnc2ncnc(N3CC(COc4ccc(Cl)cc4Br)C3)c21 (3D coordinates assigned)
Cn1cnc2ncnc(N3CC(COc4ccc(Cl)cc4Br)C3)c21 (nonaromatic ring conformer: 136.78657943620695 kcal/mol)

>  <smiles>  (8) 
Cn1cnc2ncnc(N3CC(COc4ccc(Cl)cc4Br)C3)c21

>  <score_type>  (8) 
oracle

>  <origin>  (8) 
adg

>  <m_score__min__energy>  (8) 
-7.8799999999999999

>  <m_primary>  (8) 
energy

$$$$
8:0
     RDKit          3D

 45 47  0  0  0  0  0  0  0  0999 V2000
   63.2640   33.8580   46.3700 C   0  0  0  0  0  0  0  0  0  0  0  0
   63.7440   32.9550   47.2290 C   0  0  0  0  0  0  0  0  0  0  0  0
   63.2730   32.9060   48.6540 C   0  0  0  0  0  0  0  0  0  0  0  0
   62.8900   31.5330   49.0040 N   0  0  0  0  0  0  0  0  0  0  0  0
   61.5670   31.4840   49.6430 C   0  0  0  0  0  0  0  0  0  0  0  0
   60.5150   30.8810   48.6970 C   0  0  0  0  0  0  0  0  0  0  0  0
   61.0190   30.6770   47.3220 N   0  0  0  0  0  0  0  0  0  0  0  0
   59.9650   30.7880   46.3190 C   0  0  0  0  0  0  0  0  0  0  0  0
   59.4090   29.6340   45.6910 C   0  0  0  0  0  0  0  0  0  0  0  0
   59.8540   28.3190   45.9880 C   0  0  0  0  0  0  0  0  0  0  0  0
   59.2520   27.2030   45.4110 C   0  0  0  0  0  0  0  0  0  0  0  0
   58.1900   27.3590   44.5360 C   0  0  0  0  0  0  0  0  0  0  0  0
   57.7520   28.6330   44.1960 C   0  0  0  0  0  0  0  0  0  0  0  0
   58.3740   29.7940   44.7240 C   0  0  0  0  0  0  0  0  0  0  0  0
   57.9850   31.0520   44.3170 N   0  0  0  0  0  0  0  0  0  0  0  0
   57.1790   31.2120   43.0850 C   0  0  0  0  0  0  0  0  0  0  0  0
   58.3870   32.1650   45.0240 C   0  0  0  0  0  0  0  0  0  0  0  0
   57.7800   33.4300   44.8080 C   0  0  0  0  0  0  0  0  0  0  0  0
   58.2390   34.5710   45.4580 C   0  0  0  0  0  0  0  0  0  0  0  0
   59.3000   34.4860   46.3440 C   0  0  0  0  0  0  0  0  0  0  0  0
   59.8840   33.2520   46.6180 C   0  0  0  0  0  0  0  0  0  0  0  0
   59.4220   32.0650   45.9950 C   0  0  0  0  0  0  0  0  0  0  0  0
   63.6243   33.8745   45.3308 H   0  0  0  0  0  0  0  0  0  0  0  0
   62.5083   34.5853   46.7017 H   0  0  0  0  0  0  0  0  0  0  0  0
   64.4994   32.2328   46.8858 H   0  0  0  0  0  0  0  0  0  0  0  0
   64.0838   33.2396   49.3183 H   0  0  0  0  0  0  0  0  0  0  0  0
   62.4019   33.5673   48.7716 H   0  0  0  0  0  0  0  0  0  0  0  0
   63.5950   31.1750   49.6930 H   0  0  0  0  0  0  0  0  0  0  0  0
   61.6296   30.8660   50.5508 H   0  0  0  0  0  0  0  0  0  0  0  0
   61.2627   32.5110   49.8934 H   0  0  0  0  0  0  0  0  0  0  0  0
   60.1975   29.9085   49.1012 H   0  0  0  0  0  0  0  0  0  0  0  0
   59.6804   31.5951   48.6374 H   0  0  0  0  0  0  0  0  0  0  0  0
   61.4580   29.7320   47.2540 H   0  0  0  0  0  0  0  0  0  0  0  0
   61.8380   31.2930   47.1410 H   0  0  0  0  0  0  0  0  0  0  0  0
   60.6910   28.1785   46.6878 H   0  0  0  0  0  0  0  0  0  0  0  0
   59.6213   26.1950   45.6511 H   0  0  0  0  0  0  0  0  0  0  0  0
   57.6934   26.4746   44.1103 H   0  0  0  0  0  0  0  0  0  0  0  0
   56.9051   28.7440   43.5028 H   0  0  0  0  0  0  0  0  0  0  0  0
   56.1332   31.4196   43.3554 H   0  0  0  0  0  0  0  0  0  0  0  0
   57.5775   32.0486   42.4922 H   0  0  0  0  0  0  0  0  0  0  0  0
   57.2277   30.2867   42.4922 H   0  0  0  0  0  0  0  0  0  0  0  0
   56.9307   33.5094   44.1135 H   0  0  0  0  0  0  0  0  0  0  0  0
   57.7586   35.5421   45.2680 H   0  0  0  0  0  0  0  0  0  0  0  0
   59.6820   35.3948   46.8321 H   0  0  0  0  0  0  0  0  0  0  0  0
   60.7196   33.1970   47.3313 H   0  0  0  0  0  0  0  0  0  0  0  0
  1  2  2  0
  2  3  1  0
  3  4  1  0
  4  5  1  0
  5  6  1  0
  6  7  1  0
  7  8  1  0
  8  9  2  0
  9 10  1  0
 10 11  2  0
 11 12  1  0
 12 13  2  0
 13 14  1  0
 14 15  2  0
 15 16  1  0
 15 17  1  0
 17 18  2  0
 18 19  1  0
 19 20  2  0
 20 21  1  0
 21 22  2  0
 22  8  1  0
 14  9  1  0
 22 17  1  0
  1 23  1  0
  1 24  1  0
  2 25  1  0
  3 26  1  0
  3 27  1  0
  4 28  1  0
  5 29  1  0
  5 30  1  0
  6 31  1  0
  6 32  1  0
  7 33  1  0
  7 34  1  0
 10 35  1  0
 11 36  1  0
 12 37  1  0
 13 38  1  0
 16 39  1  0
 16 40  1  0
 16 41  1  0
 18 42  1  0
 19 43  1  0
 20 44  1  0
 21 45  1  0
M  CHG  2   7   1  15   1
M  END
>  <UniqueID>  (9) 
9

>  <SMILES>  (9) 
C=CCNCC[NH2+]c1c2ccccc2[n+](C)c2ccccc12

>  <Energy>  (9) 
69.7870077369864

>  <Genealogy>  (9) 
C=CCNCC[NH2+]c1c2ccccc2[n+](C)c2ccccc12 (protonated)
C=CCNCC[NH2+]c1c2ccccc2[n+](C)c2ccccc12 (3D coordinates assigned)
C=CCNCC[NH2+]c1c2ccccc2[n+](C)c2ccccc12 (optimized conformer: 69.7870077369864 kcal/mol)

>  <smiles>  (9) 
C=CCNCCNc1c2ccccc2[n+](C)c2ccccc12

>  <score_type>  (9) 
oracle

>  <origin>  (9) 
adg

>  <m_score__min__energy>  (9) 
-4.3600000000000003

>  <m_primary>  (9) 
energy

$$$$
9:0
     RDKit          3D

 34 34  0  0  0  0  0  0  0  0999 V2000
   57.3280   29.0080   44.5150 Br  0  0  0  0  0  0  0  0  0  0  0  0
   56.4200   30.4690   43.6140 C   0  0  0  0  0  0  0  0  0  0  0  0
   57.3980   31.3450   42.8170 C   0  0  0  0  0  0  0  0  0  0  0  0
   57.8740   32.5890   43.5860 C   0  0  0  0  0  0  0  0  0  0  0  0
   57.3830   32.6200   45.0410 C   0  0  0  0  0  0  0  0  0  0  0  0
   57.5150   34.0100   45.6880 C   0  0  0  0  0  0  0  0  0  0  0  0
   58.9790   34.4390   45.9200 C   0  0  0  0  0  0  0  0  0  0  0  0
   59.4470   34.1490   47.3570 C   0  0  0  0  0  0  0  0  0  0  0  0
   60.0680   32.7550   47.4900 C   0  0  0  0  0  0  0  0  0  0  0  0
   61.5180   32.8080   47.3000 N   0  0  0  0  0  0  0  0  0  0  0  0
   62.2280   33.8240   46.7750 C   0  0  0  0  0  0  0  0  0  0  0  0
   63.5520   33.4420   46.7250 C   0  0  0  0  0  0  0  0  0  0  0  0
   63.6580   32.1930   47.2170 N   0  0  0  0  0  0  0  0  0  0  0  0
   62.4070   31.8290   47.5580 C   0  0  0  0  0  0  0  0  0  0  0  0
   55.6724   30.0515   42.9235 H   0  0  0  0  0  0  0  0  0  0  0  0
   55.9436   31.0989   44.3797 H   0  0  0  0  0  0  0  0  0  0  0  0
   58.2780   30.7377   42.5584 H   0  0  0  0  0  0  0  0  0  0  0  0
   56.8606   31.7015   41.9259 H   0  0  0  0  0  0  0  0  0  0  0  0
   58.9739   32.6008   43.5870 H   0  0  0  0  0  0  0  0  0  0  0  0
   57.4541   33.4700   43.0784 H   0  0  0  0  0  0  0  0  0  0  0  0
   56.3241   32.3229   45.0605 H   0  0  0  0  0  0  0  0  0  0  0  0
   58.0134   31.9265   45.6170 H   0  0  0  0  0  0  0  0  0  0  0  0
   57.0350   34.7487   45.0293 H   0  0  0  0  0  0  0  0  0  0  0  0
   57.0308   33.9575   46.6743 H   0  0  0  0  0  0  0  0  0  0  0  0
   59.6248   33.8897   45.2191 H   0  0  0  0  0  0  0  0  0  0  0  0
   59.0437   35.5247   45.7556 H   0  0  0  0  0  0  0  0  0  0  0  0
   60.1972   34.9005   47.6443 H   0  0  0  0  0  0  0  0  0  0  0  0
   58.5668   34.1922   48.0153 H   0  0  0  0  0  0  0  0  0  0  0  0
   59.8506   32.3582   48.4927 H   0  0  0  0  0  0  0  0  0  0  0  0
   59.6362   32.1031   46.7164 H   0  0  0  0  0  0  0  0  0  0  0  0
   61.8224   34.7912   46.4434 H   0  0  0  0  0  0  0  0  0  0  0  0
   64.3830   34.0553   46.3464 H   0  0  0  0  0  0  0  0  0  0  0  0
   64.5260   31.6230   47.3050 H   0  0  0  0  0  0  0  0  0  0  0  0
   62.1437   30.8536   47.9931 H   0  0  0  0  0  0  0  0  0  0  0  0
  1  2  1  0
  2  3  1  0
  3  4  1  0
  4  5  1  0
  5  6  1  0
  6  7  1  0
  7  8  1  0
  8  9  1  0
  9 10  1  0
 10 11  1  0
 11 12  2  0
 12 13  1  0
 13 14  2  0
 14 10  1  0
  2 15  1  0
  2 16  1  0
  3 17  1  0
  3 18  1  0
  4 19  1  0
  4 20  1  0
  5 21  1  0
  5 22  1  0
  6 23  1  0
  6 24  1  0
  7 25  1  0
  7 26  1  0
  8 27  1  0
  8 28  1  0
  9 29  1  0
  9 30  1  0
 11 31  1  0
 12 32  1  0
 13 33  1  0
 14 34  1  0
M  CHG  1  13   1
M  END
>  <UniqueID>  (10) 
10

>  <SMILES>  (10) 
BrCCCCCCCCn1cc[nH+]c1

>  <Energy>  (10) 
50.7809403561513

>  <Genealogy>  (10) 
BrCCCCCCCCn1cc[nH+]c1 (protonated)
BrCCCCCCCCn1cc[nH+]c1 (3D coordinates assigned)
BrCCCCCCCCn1cc[nH+]c1 (optimized conformer: 50.7809403561513 kcal/mol)

>  <smiles>  (10) 
BrCCCCCCCCn1ccnc1

>  <score_type>  (10) 
oracle

>  <origin>  (10) 
adg

>  <m_score__min__energy>  (10) 
-4.3200000000000003

>  <m_primary>  (10) 
energy

$$$$
10:0
     RDKit          3D

 71 73  0  0  0  0  0  0  0  0999 V2000
   60.0112   28.3572   44.0330 H   0  0  0  0  0  0  0  0  0  0  0  0
   59.1310   27.8030   44.3910 C   0  0  0  0  0  0  0  0  0  0  0  0
   58.9790   27.6560   45.7280 C   0  0  0  0  0  0  0  0  0  0  0  0
   59.4290   26.3450   46.3290 C   0  0  0  0  0  0  0  0  0  0  0  0
   59.4043   26.4170   47.4264 H   0  0  0  0  0  0  0  0  0  0  0  0
   58.7557   25.5401   45.9991 H   0  0  0  0  0  0  0  0  0  0  0  0
   60.4547   26.1233   45.9991 H   0  0  0  0  0  0  0  0  0  0  0  0
   58.6030   28.8230   46.6380 C   0  0  0  0  0  0  0  0  0  0  0  0
   59.1666   28.7148   47.5765 H   0  0  0  0  0  0  0  0  0  0  0  0
   57.5117   28.7655   46.7635 H   0  0  0  0  0  0  0  0  0  0  0  0
   58.8890   30.2380   46.0710 C   0  0  0  0  0  0  0  0  0  0  0  0
   58.0435   30.4937   45.4155 H   0  0  0  0  0  0  0  0  0  0  0  0
   59.8781   30.1262   45.6029 H   0  0  0  0  0  0  0  0  0  0  0  0
   59.0880   31.4490   47.0440 C   0  0  2  0  0  0  0  0  0  0  0  0
   58.4323   31.1322   47.8685 H   0  0  0  0  0  0  0  0  0  0  0  0
   58.5870   32.7910   46.4490 C   0  0  1  0  0  0  0  0  0  0  0  0
   57.3090   32.7260   45.8610 O   0  0  0  0  0  0  0  0  0  0  0  0
   57.4010   33.4360   47.0780 C   0  0  0  0  0  0  0  0  0  0  0  0
   56.9651   33.0198   47.9982 H   0  0  0  0  0  0  0  0  0  0  0  0
   57.1431   34.4482   47.4228 H   0  0  0  0  0  0  0  0  0  0  0  0
   59.5570   33.7050   45.7030 C   0  0  0  0  0  0  0  0  0  0  0  0
   59.8355   33.2383   44.7466 H   0  0  0  0  0  0  0  0  0  0  0  0
   59.0707   34.6739   45.5164 H   0  0  0  0  0  0  0  0  0  0  0  0
   60.8100   33.9260   46.5410 C   0  0  0  0  0  0  0  0  0  0  0  0
   61.5479   34.4794   45.9416 H   0  0  0  0  0  0  0  0  0  0  0  0
   60.5286   34.4956   47.4390 H   0  0  0  0  0  0  0  0  0  0  0  0
   61.4340   32.5840   46.9930 C   0  0  1  0  0  0  0  0  0  0  0  0
   61.5693   32.0963   46.0163 H   0  0  0  0  0  0  0  0  0  0  0  0
   62.7570   32.6360   47.5220 O   0  0  0  0  0  0  0  0  0  0  0  0
   63.0120   32.9200   48.8990 C   0  0  0  0  0  0  0  0  0  0  0  0
   62.4340   34.3040   49.2910 C   0  0  0  0  0  0  0  0  0  0  0  0
   62.3984   34.3894   50.3871 H   0  0  0  0  0  0  0  0  0  0  0  0
   63.0755   35.0985   48.8820 H   0  0  0  0  0  0  0  0  0  0  0  0
   61.4180   34.4062   48.8820 H   0  0  0  0  0  0  0  0  0  0  0  0
   64.5510   33.0780   48.9620 C   0  0  0  0  0  0  0  0  0  0  0  0
   64.8735   33.1111   50.0132 H   0  0  0  0  0  0  0  0  0  0  0  0
   65.0282   32.2241   48.4588 H   0  0  0  0  0  0  0  0  0  0  0  0
   64.8447   34.0110   48.4588 H   0  0  0  0  0  0  0  0  0  0  0  0
   62.6120   31.8090   49.9390 C   0  0  1  0  0  0  0  0  0  0  0  0
   62.7625   30.8576   49.4077 H   0  0  0  0  0  0  0  0  0  0  0  0
   63.4620   31.8190   51.0890 O   0  0  0  0  0  0  0  0  0  0  0  0
   63.9180   30.6690   51.7430 C   0  0  0  0  0  0  0  0  0  0  0  0
   63.6800   29.5210   51.2810 O   0  0  0  0  0  0  0  0  0  0  0  0
   64.6760   30.8070   53.0190 C   0  0  0  0  0  0  0  0  0  0  0  0
   63.9890   30.6819   53.8689 H   0  0  0  0  0  0  0  0  0  0  0  0
   65.4601   30.0368   53.0649 H   0  0  0  0  0  0  0  0  0  0  0  0
   65.1383   31.8041   53.0649 H   0  0  0  0  0  0  0  0  0  0  0  0
   61.1300   31.8360   50.3460 C   0  0  0  0  0  0  0  0  0  0  0  0
   60.8522   30.8344   50.7061 H   0  0  0  0  0  0  0  0  0  0  0  0
   61.0277   32.6094   51.1215 H   0  0  0  0  0  0  0  0  0  0  0  0
   60.1730   32.2220   49.2050 C   0  0  0  0  0  0  0  0  0  0  0  0
   59.1640   31.8895   49.4903 H   0  0  0  0  0  0  0  0  0  0  0  0
   60.2851   33.3104   49.0914 H   0  0  0  0  0  0  0  0  0  0  0  0
   60.4840   31.6300   47.7940 C   0  0  1  0  0  0  0  0  0  0  0  0
   61.1770   30.2510   47.9800 C   0  0  0  0  0  0  0  0  0  0  0  0
   61.2847   30.0366   49.0535 H   0  0  0  0  0  0  0  0  0  0  0  0
   60.5658   29.4670   47.5091 H   0  0  0  0  0  0  0  0  0  0  0  0
   62.1708   30.2736   47.5091 H   0  0  0  0  0  0  0  0  0  0  0  0
   58.1710   27.2560   43.3540 C   0  0  0  0  0  0  0  0  0  0  0  0
   58.7508   26.8455   42.5141 H   0  0  0  0  0  0  0  0  0  0  0  0
   57.5600   26.4765   43.8326 H   0  0  0  0  0  0  0  0  0  0  0  0
   57.2630   28.2980   42.8420 N   0  0  0  0  0  0  0  0  0  0  0  0
   57.7570   28.8130   42.0760 H   0  0  0  0  0  0  0  0  0  0  0  0
   56.4310   27.8420   42.4000 H   0  0  0  0  0  0  0  0  0  0  0  0
   56.8130   29.2320   43.9010 C   0  0  0  0  0  0  0  0  0  0  0  0
   55.9369   28.7975   44.4047 H   0  0  0  0  0  0  0  0  0  0  0  0
   57.6524   29.3749   44.5974 H   0  0  0  0  0  0  0  0  0  0  0  0
   56.4280   30.6120   43.3480 C   0  0  0  0  0  0  0  0  0  0  0  0
   55.8506   30.4769   42.4215 H   0  0  0  0  0  0  0  0  0  0  0  0
   55.8310   31.1338   44.1105 H   0  0  0  0  0  0  0  0  0  0  0  0
   57.8690   31.6030   42.9930 Cl  0  0  0  0  0  0  0  0  0  0  0  0
  1  2  1  0
  2  3  2  0
  3  4  1  0
  4  5  1  0
  4  6  1  0
  4  7  1  0
  3  8  1  0
  8  9  1  0
  8 10  1  0
  8 11  1  0
 11 12  1  0
 11 13  1  0
 11 14  1  0
 14 15  1  1
 14 16  1  0
 16 17  1  6
 17 18  1  0
 18 19  1  0
 18 20  1  0
 16 21  1  0
 21 22  1  0
 21 23  1  0
 21 24  1  0
 24 25  1  0
 24 26  1  0
 24 27  1  0
 27 28  1  6
 27 29  1  0
 29 30  1  0
 30 31  1  0
 31 32  1  0
 31 33  1  0
 31 34  1  0
 30 35  1  0
 35 36  1  0
 35 37  1  0
 35 38  1  0
 30 39  1  0
 39 40  1  6
 39 41  1  0
 41 42  1  0
 42 43  2  0
 42 44  1  0
 44 45  1  0
 44 46  1  0
 44 47  1  0
 39 48  1  0
 48 49  1  0
 48 50  1  0
 48 51  1  0
 51 52  1  0
 51 53  1  0
 51 54  1  0
 54 55  1  1
 55 56  1  0
 55 57  1  0
 55 58  1  0
  2 59  1  0
 59 60  1  0
 59 61  1  0
 59 62  1  0
 62 63  1  0
 62 64  1  0
 62 65  1  0
 65 66  1  0
 65 67  1  0
 65 68  1  0
 68 69  1  0
 68 70  1  0
 68 71  1  0
 54 14  1  0
 18 16  1  0
 54 27  1  0
M  CHG  1  62   1
M  END
>  <UniqueID>  (11) 
11

>  <SMILES>  (11) 
CC(=O)O[C@H]1CC[C@]2(C)C(CCC3(CO3)C2CC/C(C)=C\C[NH2+]CCCl)OC1(C)C

>  <Energy>  (11) 
437.18929580279877

>  <Genealogy>  (11) 
CC(=O)OC1CCC2(C)C(CCC3(CO3)C2CCC(C)=CC[NH2+]CCCl)OC1(C)C (protonated)
CC(=O)O[C@H]1CC[C@]2(C)C(CCC3(CO3)C2CCC(C)=CC[NH2+]CCCl)OC1(C)C (chirality)
CC(=O)O[C@H]1CC[C@]2(C)C(CCC3(CO3)C2CC/C(C)=C\C[NH2+]CCCl)OC1(C)C (cis-trans isomerization)
CC(=O)O[C@H]1CC[C@]2(C)C(CCC3(CO3)C2CC/C(C)=C\C[NH2+]CCCl)OC1(C)C (3D coordinates assigned)
CC(=O)O[C@H]1CC[C@]2(C)C(CCC3(CO3)C2CC/C(C)=C\C[NH2+]CCCl)OC1(C)C (nonaromatic ring conformer: 437.18929580279877 kcal/mol)

>  <smiles>  (11) 
CC(=O)OC1CCC2(C)C(CCC3(CO3)C2CCC(C)=CCNCCCl)OC1(C)C

>  <score_type>  (11) 
oracle

>  <origin>  (11) 
adg

>  <m_score__min__energy>  (11) 
-5.9199999999999999

>  <m_primary>  (11) 
energy

$$$$
11:0
     RDKit          3D

 54 56  0  0  0  0  0  0  0  0999 V2000
   58.8430   28.8706   43.5997 H   0  0  0  0  0  0  0  0  0  0  0  0
   58.7760   29.4830   44.5110 C   0  0  0  0  0  0  0  0  0  0  0  0
   57.8630   30.5410   44.5760 C   0  0  0  0  0  0  0  0  0  0  0  0
   56.7950   30.8910   43.1770 S   0  0  0  0  0  0  0  0  0  0  0  0
   57.7290   32.3560   42.6110 C   0  0  0  0  0  0  0  0  0  0  0  0
   57.2251   33.2644   42.9728 H   0  0  0  0  0  0  0  0  0  0  0  0
   58.7513   32.2932   43.0121 H   0  0  0  0  0  0  0  0  0  0  0  0
   57.8100   32.4050   41.0910 C   0  0  0  0  0  0  0  0  0  0  0  0
   58.7152   32.9525   40.7895 H   0  0  0  0  0  0  0  0  0  0  0  0
   57.8516   31.3804   40.6928 H   0  0  0  0  0  0  0  0  0  0  0  0
   56.9218   32.9174   40.6928 H   0  0  0  0  0  0  0  0  0  0  0  0
   57.7650   31.3070   45.7440 C   0  0  0  0  0  0  0  0  0  0  0  0
   57.0348   32.1276   45.8017 H   0  0  0  0  0  0  0  0  0  0  0  0
   58.5990   31.0300   46.8460 C   0  0  0  0  0  0  0  0  0  0  0  0
   58.5350   31.7610   48.0420 C   0  0  0  0  0  0  0  0  0  0  0  0
   57.6820   32.6900   48.1350 O   0  0  0  0  0  0  0  0  0  0  0  0
   59.3690   31.4670   49.1080 N   0  0  0  0  0  0  0  0  0  0  0  0
   59.0890   32.1810   50.3770 C   0  0  0  0  0  0  0  0  0  0  0  0
   59.5083   31.6040   51.2144 H   0  0  0  0  0  0  0  0  0  0  0  0
   57.9995   32.2847   50.4875 H   0  0  0  0  0  0  0  0  0  0  0  0
   59.7140   33.5800   50.3700 C   0  0  0  0  0  0  0  0  0  0  0  0
   60.1781   33.7759   51.3479 H   0  0  0  0  0  0  0  0  0  0  0  0
   58.9282   34.3240   50.1724 H   0  0  0  0  0  0  0  0  0  0  0  0
   60.6980   33.6680   49.3600 O   0  0  0  0  0  0  0  0  0  0  0  0
   60.2810   34.5420   48.3290 C   0  0  0  0  0  0  0  0  0  0  0  0
   60.7173   35.5376   48.4973 H   0  0  0  0  0  0  0  0  0  0  0  0
   59.1830   34.6087   48.3355 H   0  0  0  0  0  0  0  0  0  0  0  0
   60.7410   34.0120   46.9750 C   0  0  0  0  0  0  0  0  0  0  0  0
   61.4551   33.1892   47.1267 H   0  0  0  0  0  0  0  0  0  0  0  0
   59.8715   33.6435   46.4108 H   0  0  0  0  0  0  0  0  0  0  0  0
   61.2281   34.8210   46.4108 H   0  0  0  0  0  0  0  0  0  0  0  0
   60.2910   30.4280   48.9690 C   0  0  0  0  0  0  0  0  0  0  0  0
   61.1730   30.0600   49.8660 N   0  0  0  0  0  0  0  0  0  0  0  0
   62.4650   30.5420   50.3540 C   0  0  0  0  0  0  0  0  0  0  0  0
   62.4349   30.6085   51.4516 H   0  0  0  0  0  0  0  0  0  0  0  0
   63.2488   29.8384   50.0367 H   0  0  0  0  0  0  0  0  0  0  0  0
   62.7680   31.8780   49.7940 N   0  0  0  0  0  0  0  0  0  0  0  0
   61.9650   32.5310   49.9570 H   0  0  0  0  0  0  0  0  0  0  0  0
   63.0280   31.8410   48.3480 C   0  0  0  0  0  0  0  0  0  0  0  0
   63.5337   30.9023   48.0777 H   0  0  0  0  0  0  0  0  0  0  0  0
   62.0898   31.8920   47.7760 H   0  0  0  0  0  0  0  0  0  0  0  0
   63.9260   33.0300   48.0340 C   0  0  0  0  0  0  0  0  0  0  0  0
   64.7049   32.7439   47.3118 H   0  0  0  0  0  0  0  0  0  0  0  0
   63.3624   33.8605   47.5838 H   0  0  0  0  0  0  0  0  0  0  0  0
   64.5520   33.4260   49.3630 C   0  0  0  0  0  0  0  0  0  0  0  0
   65.6467   33.3294   49.3160 H   0  0  0  0  0  0  0  0  0  0  0  0
   64.3329   34.4726   49.6209 H   0  0  0  0  0  0  0  0  0  0  0  0
   63.9760   32.4590   50.3900 C   0  0  0  0  0  0  0  0  0  0  0  0
   64.7055   31.6672   50.6155 H   0  0  0  0  0  0  0  0  0  0  0  0
   63.7417   32.9768   51.3318 H   0  0  0  0  0  0  0  0  0  0  0  0
   60.3190   29.7130   47.8150 N   0  0  0  0  0  0  0  0  0  0  0  0
   59.5150   29.9770   46.7640 C   0  0  0  0  0  0  0  0  0  0  0  0
   59.6030   29.2030   45.6020 C   0  0  0  0  0  0  0  0  0  0  0  0
   60.3235   28.3736   45.5471 H   0  0  0  0  0  0  0  0  0  0  0  0
  1  2  1  0
  2  3  2  0
  3  4  1  0
  4  5  1  0
  5  6  1  0
  5  7  1  0
  5  8  1  0
  8  9  1  0
  8 10  1  0
  8 11  1  0
  3 12  1  0
 12 13  1  0
 12 14  2  0
 14 15  1  0
 15 16  2  0
 15 17  1  0
 17 18  1  0
 18 19  1  0
 18 20  1  0
 18 21  1  0
 21 22  1  0
 21 23  1  0
 21 24  1  0
 24 25  1  0
 25 26  1  0
 25 27  1  0
 25 28  1  0
 28 29  1  0
 28 30  1  0
 28 31  1  0
 17 32  1  0
 32 33  2  0
 33 34  1  0
 34 35  1  0
 34 36  1  0
 34 37  1  0
 37 38  1  0
 37 39  1  0
 39 40  1  0
 39 41  1  0
 39 42  1  0
 42 43  1  0
 42 44  1  0
 42 45  1  0
 45 46  1  0
 45 47  1  0
 45 48  1  0
 48 49  1  0
 48 50  1  0
 32 51  1  0
 51 52  1  0
 52 53  2  0
 53 54  1  0
 53  2  1  0
 52 14  1  0
 48 37  1  0
M  CHG  2  37   1  51  -1
M  END
>  <UniqueID>  (12) 
12

>  <SMILES>  (12) 
CCOCCn1c(=O)c2cc(SCC)ccc2[n-]/c1=N/C[NH+]1CCCC1

>  <Energy>  (12) 
76.14357011339051

>  <Genealogy>  (12) 
CCOCCn1c(=NC[NH+]2CCCC2)[n-]c2ccc(SCC)cc2c1=O (protonated)
CCOCCn1c(=O)c2cc(SCC)ccc2[n-]/c1=N/C[NH+]1CCCC1 (cis-trans isomerization)
CCOCCn1c(=O)c2cc(SCC)ccc2[n-]/c1=N/C[NH+]1CCCC1 (3D coordinates assigned)
CCOCCn1c(=O)c2cc(SCC)ccc2[n-]/c1=N/C[NH+]1CCCC1 (nonaromatic ring conformer: 76.14357011339051 kcal/mol)

>  <smiles>  (12) 
CCOCCn1c(=NCN2CCCC2)[nH]c2ccc(SCC)cc2c1=O

>  <score_type>  (12) 
oracle

>  <origin>  (12) 
adg

>  <m_score__min__energy>  (12) 
-6.5

>  <m_primary>  (12) 
energy

$$$$
12:0
     RDKit          3D

 34 35  0  0  0  0  0  0  0  0999 V2000
   57.5180   33.4400   44.9550 C   0  0  0  0  0  0  0  0  0  0  0  0
   58.1270   32.3080   44.1360 C   0  0  0  0  0  0  0  0  0  0  0  0
   57.2660   31.1320   44.1830 N   0  0  0  0  0  0  0  0  0  0  0  0
   57.3180   30.1510   45.1040 C   0  0  0  0  0  0  0  0  0  0  0  0
   56.3810   29.2060   44.7500 C   0  0  0  0  0  0  0  0  0  0  0  0
   56.0730   27.9780   45.4230 N   0  0  0  0  0  0  0  0  0  0  0  0
   56.9970   27.3280   46.3510 C   0  0  0  0  0  0  0  0  0  0  0  0
   57.1970   25.8790   45.9730 C   0  0  0  0  0  0  0  0  0  0  0  0
   58.5060   25.3790   45.8610 C   0  0  0  0  0  0  0  0  0  0  0  0
   58.7290   24.0470   45.5100 C   0  0  0  0  0  0  0  0  0  0  0  0
   57.6510   23.1970   45.2740 C   0  0  0  0  0  0  0  0  0  0  0  0
   56.3430   23.6730   45.3920 C   0  0  0  0  0  0  0  0  0  0  0  0
   56.1000   25.0160   45.7480 C   0  0  0  0  0  0  0  0  0  0  0  0
   54.7940   25.5140   45.8860 O   0  0  0  0  0  0  0  0  0  0  0  0
   53.6110   24.7870   45.5700 C   0  0  0  0  0  0  0  0  0  0  0  0
   55.7940   29.6660   43.5900 C   0  0  0  0  0  0  0  0  0  0  0  0
   56.3580   30.8450   43.2590 N   0  0  0  0  0  0  0  0  0  0  0  0
   57.6355   33.2216   46.0267 H   0  0  0  0  0  0  0  0  0  0  0  0
   58.0304   34.3832   44.7147 H   0  0  0  0  0  0  0  0  0  0  0  0
   56.4485   33.5322   44.7147 H   0  0  0  0  0  0  0  0  0  0  0  0
   58.2389   32.6347   43.0916 H   0  0  0  0  0  0  0  0  0  0  0  0
   59.1101   32.0498   44.5564 H   0  0  0  0  0  0  0  0  0  0  0  0
   57.9854   30.1118   45.9775 H   0  0  0  0  0  0  0  0  0  0  0  0
   55.1450   27.5310   45.2470 H   0  0  0  0  0  0  0  0  0  0  0  0
   57.9663   27.8472   46.3194 H   0  0  0  0  0  0  0  0  0  0  0  0
   56.5735   27.3752   47.3651 H   0  0  0  0  0  0  0  0  0  0  0  0
   59.3617   26.0434   46.0517 H   0  0  0  0  0  0  0  0  0  0  0  0
   59.7576   23.6677   45.4195 H   0  0  0  0  0  0  0  0  0  0  0  0
   57.8301   22.1484   44.9940 H   0  0  0  0  0  0  0  0  0  0  0  0
   55.4965   22.9956   45.2060 H   0  0  0  0  0  0  0  0  0  0  0  0
   53.1103   24.4793   46.4999 H   0  0  0  0  0  0  0  0  0  0  0  0
   52.9342   25.4253   44.9830 H   0  0  0  0  0  0  0  0  0  0  0  0
   53.8747   23.8949   44.9830 H   0  0  0  0  0  0  0  0  0  0  0  0
   54.9978   29.1557   43.0281 H   0  0  0  0  0  0  0  0  0  0  0  0
  1  2  1  0
  2  3  1  0
  3  4  1  0
  4  5  2  0
  5  6  1  0
  6  7  1  0
  7  8  1  0
  8  9  2  0
  9 10  1  0
 10 11  2  0
 11 12  1  0
 12 13  2  0
 13 14  1  0
 14 15  1  0
  5 16  1  0
 16 17  2  0
 17  3  1  0
 13  8  1  0
  1 18  1  0
  1 19  1  0
  1 20  1  0
  2 21  1  0
  2 22  1  0
  4 23  1  0
  6 24  1  0
  7 25  1  0
  7 26  1  0
  9 27  1  0
 10 28  1  0
 11 29  1  0
 12 30  1  0
 15 31  1  0
 15 32  1  0
 15 33  1  0
 16 34  1  0
M  END
>  <UniqueID>  (13) 
13

>  <SMILES>  (13) 
CCn1cc(NCc2ccccc2OC)cn1

>  <Energy>  (13) 
58.547250235255376

>  <Genealogy>  (13) 
CCn1cc(NCc2ccccc2OC)cn1 (3D coordinates assigned)
CCn1cc(NCc2ccccc2OC)cn1 (optimized conformer: 58.547250235255376 kcal/mol)

>  <smiles>  (13) 
CCn1cc(NCc2ccccc2OC)cn1

>  <score_type>  (13) 
oracle

>  <origin>  (13) 
adg

>  <m_score__min__energy>  (13) 
-5.6500000000000004

>  <m_primary>  (13) 
energy

$$$$
13:0
     RDKit          3D

 70 73  0  0  0  0  0  0  0  0999 V2000
   63.4040   33.4940   46.5420 C   0  0  0  0  0  0  0  0  0  0  0  0
   62.9610   32.5130   47.6240 C   0  0  0  0  0  0  0  0  0  0  0  0
   62.3230   33.2160   48.7600 N   0  0  0  0  0  0  0  0  0  0  0  0
   63.2530   33.7600   49.7810 C   0  0  0  0  0  0  0  0  0  0  0  0
   62.6650   33.8500   51.1940 C   0  0  0  0  0  0  0  0  0  0  0  0
   61.2070   34.1230   48.3940 C   0  0  0  0  0  0  0  0  0  0  0  0
   59.9800   34.0250   49.3310 C   0  0  0  0  0  0  0  0  0  0  0  0
   59.2830   32.7460   49.1750 N   0  0  0  0  0  0  0  0  0  0  0  0
   59.4070   31.9720   47.9670 C   0  0  0  0  0  0  0  0  0  0  0  0
   58.7830   32.4360   46.7960 C   0  0  0  0  0  0  0  0  0  0  0  0
   58.3230   33.7670   46.7070 C   0  0  0  0  0  0  0  0  0  0  0  0
   57.6560   34.2160   45.5700 C   0  0  0  0  0  0  0  0  0  0  0  0
   57.4200   33.3450   44.5130 C   0  0  0  0  0  0  0  0  0  0  0  0
   57.8790   32.0300   44.5730 C   0  0  0  0  0  0  0  0  0  0  0  0
   58.6000   31.5540   45.7000 C   0  0  0  0  0  0  0  0  0  0  0  0
   59.0700   30.2570   45.7680 N   0  0  0  0  0  0  0  0  0  0  0  0
   59.0590   29.3970   44.5620 C   0  0  0  0  0  0  0  0  0  0  0  0
   59.5940   29.7700   46.9510 C   0  0  0  0  0  0  0  0  0  0  0  0
   59.7620   28.3800   47.1600 C   0  0  0  0  0  0  0  0  0  0  0  0
   60.3240   27.8960   48.3330 C   0  0  0  0  0  0  0  0  0  0  0  0
   60.8170   28.7740   49.2840 C   0  0  0  0  0  0  0  0  0  0  0  0
   60.7150   30.1690   49.1070 C   0  0  0  0  0  0  0  0  0  0  0  0
   61.3960   31.0770   50.0190 N   0  0  0  0  0  0  0  0  0  0  0  0
   61.6730   30.5150   51.3640 C   0  0  0  0  0  0  0  0  0  0  0  0
   60.8180   31.1810   52.4570 C   0  0  0  0  0  0  0  0  0  0  0  0
   59.6470   31.8570   51.8680 N   0  0  0  0  0  0  0  0  0  0  0  0
   58.4370   31.0280   51.8950 C   0  0  0  0  0  0  0  0  0  0  0  0
   57.2480   31.9790   51.9370 C   0  0  0  0  0  0  0  0  0  0  0  0
   57.8170   33.3210   52.3700 C   0  0  0  0  0  0  0  0  0  0  0  0
   59.2960   33.0680   52.6160 C   0  0  0  0  0  0  0  0  0  0  0  0
   59.9270   30.6560   48.0130 C   0  0  0  0  0  0  0  0  0  0  0  0
   63.8130   34.3998   47.0135 H   0  0  0  0  0  0  0  0  0  0  0  0
   64.1777   33.0250   45.9163 H   0  0  0  0  0  0  0  0  0  0  0  0
   62.5406   33.7643   45.9163 H   0  0  0  0  0  0  0  0  0  0  0  0
   62.2400   31.8039   47.1911 H   0  0  0  0  0  0  0  0  0  0  0  0
   63.8502   31.9847   47.9983 H   0  0  0  0  0  0  0  0  0  0  0  0
   64.1397   33.1102   49.8188 H   0  0  0  0  0  0  0  0  0  0  0  0
   63.4868   34.7900   49.4736 H   0  0  0  0  0  0  0  0  0  0  0  0
   63.4692   33.7269   51.9343 H   0  0  0  0  0  0  0  0  0  0  0  0
   62.1878   34.8316   51.3307 H   0  0  0  0  0  0  0  0  0  0  0  0
   61.9161   33.0560   51.3307 H   0  0  0  0  0  0  0  0  0  0  0  0
   61.5799   35.1575   48.4202 H   0  0  0  0  0  0  0  0  0  0  0  0
   60.8667   33.8192   47.3930 H   0  0  0  0  0  0  0  0  0  0  0  0
   60.3181   34.1225   50.3732 H   0  0  0  0  0  0  0  0  0  0  0  0
   59.2807   34.8322   49.0676 H   0  0  0  0  0  0  0  0  0  0  0  0
   58.9670   32.2600   50.0460 H   0  0  0  0  0  0  0  0  0  0  0  0
   58.4933   34.4581   47.5457 H   0  0  0  0  0  0  0  0  0  0  0  0
   57.3158   35.2603   45.5085 H   0  0  0  0  0  0  0  0  0  0  0  0
   56.8697   33.6941   43.6269 H   0  0  0  0  0  0  0  0  0  0  0  0
   57.6791   31.3491   43.7325 H   0  0  0  0  0  0  0  0  0  0  0  0
   59.0455   28.3398   44.8656 H   0  0  0  0  0  0  0  0  0  0  0  0
   58.1636   29.6178   43.9624 H   0  0  0  0  0  0  0  0  0  0  0  0
   59.9597   29.5948   43.9624 H   0  0  0  0  0  0  0  0  0  0  0  0
   59.4422   27.6726   46.3807 H   0  0  0  0  0  0  0  0  0  0  0  0
   60.3781   26.8114   48.5080 H   0  0  0  0  0  0  0  0  0  0  0  0
   61.2955   28.3768   50.1914 H   0  0  0  0  0  0  0  0  0  0  0  0
   60.8540   31.9700   50.0800 H   0  0  0  0  0  0  0  0  0  0  0  0
   62.3390   31.2900   49.6240 H   0  0  0  0  0  0  0  0  0  0  0  0
   61.4541   29.4371   51.3500 H   0  0  0  0  0  0  0  0  0  0  0  0
   62.7308   30.7043   51.5990 H   0  0  0  0  0  0  0  0  0  0  0  0
   60.4726   30.4116   53.1632 H   0  0  0  0  0  0  0  0  0  0  0  0
   61.4327   31.9305   52.9770 H   0  0  0  0  0  0  0  0  0  0  0  0
   58.3880   30.4012   50.9924 H   0  0  0  0  0  0  0  0  0  0  0  0
   58.4374   30.3603   52.7692 H   0  0  0  0  0  0  0  0  0  0  0  0
   56.7854   32.0604   50.9423 H   0  0  0  0  0  0  0  0  0  0  0  0
   56.4665   31.6255   52.6257 H   0  0  0  0  0  0  0  0  0  0  0  0
   57.6809   34.0713   51.5772 H   0  0  0  0  0  0  0  0  0  0  0  0
   57.3125   33.7108   53.2664 H   0  0  0  0  0  0  0  0  0  0  0  0
   59.8911   33.9208   52.2574 H   0  0  0  0  0  0  0  0  0  0  0  0
   59.5027   32.9437   53.6892 H   0  0  0  0  0  0  0  0  0  0  0  0
  1  2  1  0
  2  3  1  0
  3  4  1  0
  4  5  1  0
  3  6  1  0
  6  7  1  0
  7  8  1  0
  8  9  1  0
  9 10  2  0
 10 11  1  0
 11 12  2  0
 12 13  1  0
 13 14  2  0
 14 15  1  0
 15 16  2  0
 16 17  1  0
 16 18  1  0
 18 19  2  0
 19 20  1  0
 20 21  2  0
 21 22  1  0
 22 23  1  0
 23 24  1  0
 24 25  1  0
 25 26  1  0
 26 27  1  0
 27 28  1  0
 28 29  1  0
 29 30  1  0
 22 31  2  0
 31  9  1  0
 15 10  1  0
 31 18  1  0
 30 26  1  0
  1 32  1  0
  1 33  1  0
  1 34  1  0
  2 35  1  0
  2 36  1  0
  4 37  1  0
  4 38  1  0
  5 39  1  0
  5 40  1  0
  5 41  1  0
  6 42  1  0
  6 43  1  0
  7 44  1  0
  7 45  1  0
  8 46  1  0
 11 47  1  0
 12 48  1  0
 13 49  1  0
 14 50  1  0
 17 51  1  0
 17 52  1  0
 17 53  1  0
 19 54  1  0
 20 55  1  0
 21 56  1  0
 23 57  1  0
 23 58  1  0
 24 59  1  0
 24 60  1  0
 25 61  1  0
 25 62  1  0
 27 63  1  0
 27 64  1  0
 28 65  1  0
 28 66  1  0
 29 67  1  0
 29 68  1  0
 30 69  1  0
 30 70  1  0
M  CHG  2  16   1  23   1
M  END
>  <UniqueID>  (14) 
14

>  <SMILES>  (14) 
CCN(CC)CCNc1c2ccccc2[n+](C)c2cccc([NH2+]CCN3CCCC3)c12

>  <Energy>  (14) 
120.95418605632372

>  <Genealogy>  (14) 
CCN(CC)CCNc1c2ccccc2[n+](C)c2cccc([NH2+]CCN3CCCC3)c12 (protonated)
CCN(CC)CCNc1c2ccccc2[n+](C)c2cccc([NH2+]CCN3CCCC3)c12 (3D coordinates assigned)
CCN(CC)CCNc1c2ccccc2[n+](C)c2cccc([NH2+]CCN3CCCC3)c12 (nonaromatic ring conformer: 120.95418605632372 kcal/mol)

>  <smiles>  (14) 
CCN(CC)CCNc1c2ccccc2[n+](C)c2cccc(NCCN3CCCC3)c12

>  <score_type>  (14) 
oracle

>  <origin>  (14) 
adg

>  <m_score__min__energy>  (14) 
-4.2999999999999998

>  <m_primary>  (14) 
energy

$$$$
14:0
     RDKit          3D

 76 79  0  0  0  0  0  0  0  0999 V2000
   58.6140   33.5970   52.0740 C   0  0  0  0  0  0  0  0  0  0  0  0
   59.6440   33.7990   50.9630 C   0  0  0  0  0  0  0  0  0  0  0  0
   59.4250   32.8820   49.8330 N   0  0  0  0  0  0  0  0  0  0  0  0
   58.6150   31.6860   50.1370 C   0  0  0  0  0  0  0  0  0  0  0  0
   58.8560   30.4730   49.2060 C   0  0  0  0  0  0  0  0  0  0  0  0
   60.0550   30.6080   48.3520 N   0  0  0  0  0  0  0  0  0  0  0  0
   59.7140   30.7780   46.9460 C   0  0  0  0  0  0  0  0  0  0  0  0
   59.4170   29.6500   46.1440 C   0  0  0  0  0  0  0  0  0  0  0  0
   59.9140   28.3640   46.4570 C   0  0  0  0  0  0  0  0  0  0  0  0
   59.6450   27.2740   45.6320 C   0  0  0  0  0  0  0  0  0  0  0  0
   58.8900   27.4430   44.4790 C   0  0  0  0  0  0  0  0  0  0  0  0
   58.3730   28.6960   44.1590 C   0  0  0  0  0  0  0  0  0  0  0  0
   58.5970   29.8150   44.9990 C   0  0  0  0  0  0  0  0  0  0  0  0
   58.0320   31.0440   44.7330 N   0  0  0  0  0  0  0  0  0  0  0  0
   56.8850   31.1480   43.8050 C   0  0  0  0  0  0  0  0  0  0  0  0
   58.5630   32.1790   45.3160 C   0  0  0  0  0  0  0  0  0  0  0  0
   58.2200   33.4700   44.8490 C   0  0  0  0  0  0  0  0  0  0  0  0
   58.7870   34.6070   45.4050 C   0  0  0  0  0  0  0  0  0  0  0  0
   59.7770   34.4940   46.3680 C   0  0  0  0  0  0  0  0  0  0  0  0
   60.1990   33.2300   46.8240 C   0  0  0  0  0  0  0  0  0  0  0  0
   61.3590   33.1180   47.6200 O   0  0  0  0  0  0  0  0  0  0  0  0
   62.6930   33.1850   47.1060 C   0  0  0  0  0  0  0  0  0  0  0  0
   63.7270   32.4370   47.9860 C   0  0  0  0  0  0  0  0  0  0  0  0
   63.8540   32.8780   49.4210 N   0  0  0  0  0  0  0  0  0  0  0  0
   63.1510   34.1730   49.6360 C   0  0  0  0  0  0  0  0  0  0  0  0
   65.3130   33.0840   49.7100 C   0  0  0  0  0  0  0  0  0  0  0  0
   65.6520   32.9110   51.2060 C   0  0  0  0  0  0  0  0  0  0  0  0
   65.3820   31.5190   51.6870 N   0  0  0  0  0  0  0  0  0  0  0  0
   64.9610   31.5680   53.1090 C   0  0  0  0  0  0  0  0  0  0  0  0
   66.6290   30.7160   51.6080 C   0  0  0  0  0  0  0  0  0  0  0  0
   64.3230   30.8440   50.8750 C   0  0  0  0  0  0  0  0  0  0  0  0
   63.2720   31.8360   50.3350 C   0  0  0  0  0  0  0  0  0  0  0  0
   59.4950   32.0660   46.3890 C   0  0  0  0  0  0  0  0  0  0  0  0
   59.1067   33.6936   53.0527 H   0  0  0  0  0  0  0  0  0  0  0  0
   57.8242   34.3574   51.9844 H   0  0  0  0  0  0  0  0  0  0  0  0
   58.1699   32.5946   51.9844 H   0  0  0  0  0  0  0  0  0  0  0  0
   59.5743   34.8345   50.5984 H   0  0  0  0  0  0  0  0  0  0  0  0
   60.6396   33.5899   51.3814 H   0  0  0  0  0  0  0  0  0  0  0  0
   60.3490   32.5910   49.4430 H   0  0  0  0  0  0  0  0  0  0  0  0
   58.8414   31.3745   51.1674 H   0  0  0  0  0  0  0  0  0  0  0  0
   57.5660   31.9817   49.9880 H   0  0  0  0  0  0  0  0  0  0  0  0
   58.9733   29.5745   49.8297 H   0  0  0  0  0  0  0  0  0  0  0  0
   57.9882   30.4068   48.5333 H   0  0  0  0  0  0  0  0  0  0  0  0
   60.6030   31.4010   48.7350 H   0  0  0  0  0  0  0  0  0  0  0  0
   60.6520   29.7600   48.4680 H   0  0  0  0  0  0  0  0  0  0  0  0
   60.5208   28.2222   47.3635 H   0  0  0  0  0  0  0  0  0  0  0  0
   60.0313   26.2781   45.8944 H   0  0  0  0  0  0  0  0  0  0  0  0
   58.6998   26.5854   43.8169 H   0  0  0  0  0  0  0  0  0  0  0  0
   57.7815   28.8189   43.2398 H   0  0  0  0  0  0  0  0  0  0  0  0
   55.9526   31.2325   44.3825 H   0  0  0  0  0  0  0  0  0  0  0  0
   57.0058   32.0389   43.1712 H   0  0  0  0  0  0  0  0  0  0  0  0
   56.8436   30.2499   43.1712 H   0  0  0  0  0  0  0  0  0  0  0  0
   57.4915   33.5735   44.0313 H   0  0  0  0  0  0  0  0  0  0  0  0
   58.4496   35.6023   45.0803 H   0  0  0  0  0  0  0  0  0  0  0  0
   60.2390   35.4027   46.7814 H   0  0  0  0  0  0  0  0  0  0  0  0
   62.7026   32.7391   46.1005 H   0  0  0  0  0  0  0  0  0  0  0  0
   62.9839   34.2457   47.0916 H   0  0  0  0  0  0  0  0  0  0  0  0
   63.4503   31.3724   47.9898 H   0  0  0  0  0  0  0  0  0  0  0  0
   64.7031   32.6624   47.5317 H   0  0  0  0  0  0  0  0  0  0  0  0
   63.0493   34.3603   50.7152 H   0  0  0  0  0  0  0  0  0  0  0  0
   63.7315   34.9862   49.1758 H   0  0  0  0  0  0  0  0  0  0  0  0
   62.1528   34.1292   49.1758 H   0  0  0  0  0  0  0  0  0  0  0  0
   65.8938   32.3516   49.1302 H   0  0  0  0  0  0  0  0  0  0  0  0
   65.5659   34.1168   49.4284 H   0  0  0  0  0  0  0  0  0  0  0  0
   66.7177   33.1380   51.3568 H   0  0  0  0  0  0  0  0  0  0  0  0
   65.0127   33.5979   51.7800 H   0  0  0  0  0  0  0  0  0  0  0  0
   65.8442   31.4652   53.7566 H   0  0  0  0  0  0  0  0  0  0  0  0
   64.4672   32.5297   53.3123 H   0  0  0  0  0  0  0  0  0  0  0  0
   64.2595   30.7454   53.3123 H   0  0  0  0  0  0  0  0  0  0  0  0
   66.9832   30.4879   52.6241 H   0  0  0  0  0  0  0  0  0  0  0  0
   66.4274   29.7776   51.0707 H   0  0  0  0  0  0  0  0  0  0  0  0
   67.3999   31.2878   51.0707 H   0  0  0  0  0  0  0  0  0  0  0  0
   64.8005   30.3373   50.0234 H   0  0  0  0  0  0  0  0  0  0  0  0
   63.8033   30.1295   51.5303 H   0  0  0  0  0  0  0  0  0  0  0  0
   62.5103   31.2697   49.7790 H   0  0  0  0  0  0  0  0  0  0  0  0
   62.8455   32.3632   51.2011 H   0  0  0  0  0  0  0  0  0  0  0  0
  1  2  1  0
  2  3  1  0
  3  4  1  0
  4  5  1  0
  5  6  1  0
  6  7  1  0
  7  8  2  0
  8  9  1  0
  9 10  2  0
 10 11  1  0
 11 12  2  0
 12 13  1  0
 13 14  2  0
 14 15  1  0
 14 16  1  0
 16 17  2  0
 17 18  1  0
 18 19  2  0
 19 20  1  0
 20 21  1  0
 21 22  1  0
 22 23  1  0
 23 24  1  0
 24 25  1  0
 24 26  1  0
 26 27  1  0
 27 28  1  0
 28 29  1  0
 28 30  1  0
 28 31  1  0
 31 32  1  0
 20 33  2  0
 33  7  1  0
 13  8  1  0
 33 16  1  0
 32 24  1  0
  1 34  1  0
  1 35  1  0
  1 36  1  0
  2 37  1  0
  2 38  1  0
  3 39  1  0
  4 40  1  0
  4 41  1  0
  5 42  1  0
  5 43  1  0
  6 44  1  0
  6 45  1  0
  9 46  1  0
 10 47  1  0
 11 48  1  0
 12 49  1  0
 15 50  1  0
 15 51  1  0
 15 52  1  0
 17 53  1  0
 18 54  1  0
 19 55  1  0
 22 56  1  0
 22 57  1  0
 23 58  1  0
 23 59  1  0
 25 60  1  0
 25 61  1  0
 25 62  1  0
 26 63  1  0
 26 64  1  0
 27 65  1  0
 27 66  1  0
 29 67  1  0
 29 68  1  0
 29 69  1  0
 30 70  1  0
 30 71  1  0
 30 72  1  0
 31 73  1  0
 31 74  1  0
 32 75  1  0
 32 76  1  0
M  CHG  4   6   1  14   1  24   1  28   1
M  END
>  <UniqueID>  (15) 
15

>  <SMILES>  (15) 
CCNCC[NH2+]c1c2ccccc2[n+](C)c2cccc(OCC[N+]3(C)CC[N+](C)(C)CC3)c12

>  <Energy>  (15) 
141.81660348596031

>  <Genealogy>  (15) 
CCNCC[NH2+]c1c2ccccc2[n+](C)c2cccc(OCC[N+]3(C)CC[N+](C)(C)CC3)c12 (protonated)
CCNCC[NH2+]c1c2ccccc2[n+](C)c2cccc(OCC[N+]3(C)CC[N+](C)(C)CC3)c12 (3D coordinates assigned)
CCNCC[NH2+]c1c2ccccc2[n+](C)c2cccc(OCC[N+]3(C)CC[N+](C)(C)CC3)c12 (nonaromatic ring conformer: 141.81660348596031 kcal/mol)

>  <smiles>  (15) 
CCNCCNc1c2ccccc2[n+](C)c2cccc(OCC[N+]3(C)CC[N+](C)(C)CC3)c12

>  <score_type>  (15) 
oracle

>  <origin>  (15) 
adg

>  <m_score__min__energy>  (15) 
-2.0499999999999998

>  <m_primary>  (15) 
energy

$$$$
15:0
     RDKit          3D

 60 59  0  0  0  0  0  0  0  0999 V2000
   59.1980   29.6370   45.0570 C   0  0  0  0  0  0  0  0  0  0  0  0
   57.7690   29.8240   45.6000 C   0  0  0  0  0  0  0  0  0  0  0  0
   57.0420   30.9860   45.0270 N   0  0  0  0  0  0  0  0  0  0  0  0
   57.0190   30.9770   43.5480 C   0  0  0  0  0  0  0  0  0  0  0  0
   56.2700   29.7500   43.0360 C   0  0  0  0  0  0  0  0  0  0  0  0
   57.4750   32.2880   45.5880 C   0  0  0  0  0  0  0  0  0  0  0  0
   57.5930   33.3360   44.4730 C   0  0  0  0  0  0  0  0  0  0  0  0
   58.8400   34.2160   44.6410 C   0  0  0  0  0  0  0  0  0  0  0  0
   59.7620   33.6340   45.5490 O   0  0  0  0  0  0  0  0  0  0  0  0
   60.2910   34.6200   46.4150 C   0  0  0  0  0  0  0  0  0  0  0  0
   59.3300   34.8670   47.5840 C   0  0  0  0  0  0  0  0  0  0  0  0
   59.6160   34.0010   48.8270 C   0  0  0  0  0  0  0  0  0  0  0  0
   59.2700   32.5220   48.6390 C   0  0  0  0  0  0  0  0  0  0  0  0
   60.4110   31.7220   48.8730 O   0  0  0  0  0  0  0  0  0  0  0  0
   60.8860   31.1980   47.6510 C   0  0  0  0  0  0  0  0  0  0  0  0
   62.3750   31.5690   47.4940 C   0  0  0  0  0  0  0  0  0  0  0  0
   62.9040   32.5570   48.4820 N   0  0  0  0  0  0  0  0  0  0  0  0
   63.8160   31.9460   49.4890 C   0  0  0  0  0  0  0  0  0  0  0  0
   65.1090   32.7290   49.7480 C   0  0  0  0  0  0  0  0  0  0  0  0
   63.4570   33.8130   47.9030 C   0  0  0  0  0  0  0  0  0  0  0  0
   63.3930   33.8260   46.3710 C   0  0  0  0  0  0  0  0  0  0  0  0
   59.9008   29.5450   45.8982 H   0  0  0  0  0  0  0  0  0  0  0  0
   59.2404   28.7256   44.4425 H   0  0  0  0  0  0  0  0  0  0  0  0
   59.4735   30.5068   44.4425 H   0  0  0  0  0  0  0  0  0  0  0  0
   57.1938   28.9136   45.3756 H   0  0  0  0  0  0  0  0  0  0  0  0
   57.8656   30.0151   46.6790 H   0  0  0  0  0  0  0  0  0  0  0  0
   56.5151   31.8860   43.1876 H   0  0  0  0  0  0  0  0  0  0  0  0
   58.0533   30.9456   43.1749 H   0  0  0  0  0  0  0  0  0  0  0  0
   55.9087   29.1582   43.8900 H   0  0  0  0  0  0  0  0  0  0  0  0
   55.4141   30.0716   42.4245 H   0  0  0  0  0  0  0  0  0  0  0  0
   56.9473   29.1357   42.4245 H   0  0  0  0  0  0  0  0  0  0  0  0
   56.7360   32.6278   46.3285 H   0  0  0  0  0  0  0  0  0  0  0  0
   58.4576   32.1624   46.0662 H   0  0  0  0  0  0  0  0  0  0  0  0
   57.6512   32.8187   43.5040 H   0  0  0  0  0  0  0  0  0  0  0  0
   56.7080   33.9873   44.5235 H   0  0  0  0  0  0  0  0  0  0  0  0
   59.3280   34.3368   43.6626 H   0  0  0  0  0  0  0  0  0  0  0  0
   58.5259   35.1911   45.0417 H   0  0  0  0  0  0  0  0  0  0  0  0
   61.2600   34.2775   46.8071 H   0  0  0  0  0  0  0  0  0  0  0  0
   60.4234   35.5571   45.8544 H   0  0  0  0  0  0  0  0  0  0  0  0
   59.4050   35.9251   47.8753 H   0  0  0  0  0  0  0  0  0  0  0  0
   58.3244   34.5940   47.2314 H   0  0  0  0  0  0  0  0  0  0  0  0
   60.6868   34.0795   49.0661 H   0  0  0  0  0  0  0  0  0  0  0  0
   58.9762   34.3804   49.6374 H   0  0  0  0  0  0  0  0  0  0  0  0
   58.4772   32.2410   49.3479 H   0  0  0  0  0  0  0  0  0  0  0  0
   58.9240   32.3619   47.6072 H   0  0  0  0  0  0  0  0  0  0  0  0
   60.7761   30.1035   47.6509 H   0  0  0  0  0  0  0  0  0  0  0  0
   60.3070   31.6176   46.8151 H   0  0  0  0  0  0  0  0  0  0  0  0
   62.9653   30.6458   47.5900 H   0  0  0  0  0  0  0  0  0  0  0  0
   62.4613   32.0532   46.5101 H   0  0  0  0  0  0  0  0  0  0  0  0
   62.0710   32.8470   49.0500 H   0  0  0  0  0  0  0  0  0  0  0  0
   63.2694   31.8646   50.4401 H   0  0  0  0  0  0  0  0  0  0  0  0
   64.1218   30.9726   49.0779 H   0  0  0  0  0  0  0  0  0  0  0  0
   65.2683   32.8255   50.8321 H   0  0  0  0  0  0  0  0  0  0  0  0
   65.9583   32.1933   49.2988 H   0  0  0  0  0  0  0  0  0  0  0  0
   65.0278   33.7298   49.2988 H   0  0  0  0  0  0  0  0  0  0  0  0
   62.8777   34.6650   48.2883 H   0  0  0  0  0  0  0  0  0  0  0  0
   64.5151   33.8808   48.1959 H   0  0  0  0  0  0  0  0  0  0  0  0
   62.3623   34.0354   46.0488 H   0  0  0  0  0  0  0  0  0  0  0  0
   64.0642   34.6061   45.9826 H   0  0  0  0  0  0  0  0  0  0  0  0
   63.7066   32.8458   45.9826 H   0  0  0  0  0  0  0  0  0  0  0  0
  1  2  1  0
  2  3  1  0
  3  4  1  0
  4  5  1  0
  3  6  1  0
  6  7  1  0
  7  8  1  0
  8  9  1  0
  9 10  1  0
 10 11  1  0
 11 12  1  0
 12 13  1  0
 13 14  1  0
 14 15  1  0
 15 16  1  0
 16 17  1  0
 17 18  1  0
 18 19  1  0
 17 20  1  0
 20 21  1  0
  1 22  1  0
  1 23  1  0
  1 24  1  0
  2 25  1  0
  2 26  1  0
  4 27  1  0
  4 28  1  0
  5 29  1  0
  5 30  1  0
  5 31  1  0
  6 32  1  0
  6 33  1  0
  7 34  1  0
  7 35  1  0
  8 36  1  0
  8 37  1  0
 10 38  1  0
 10 39  1  0
 11 40  1  0
 11 41  1  0
 12 42  1  0
 12 43  1  0
 13 44  1  0
 13 45  1  0
 15 46  1  0
 15 47  1  0
 16 48  1  0
 16 49  1  0
 17 50  1  0
 18 51  1  0
 18 52  1  0
 19 53  1  0
 19 54  1  0
 19 55  1  0
 20 56  1  0
 20 57  1  0
 21 58  1  0
 21 59  1  0
 21 60  1  0
M  CHG  1  17   1
M  END
>  <UniqueID>  (16) 
16

>  <SMILES>  (16) 
CCN(CC)CCCOCCCCOCC[NH+](CC)CC

>  <Energy>  (16) 
53.08175209749713

>  <Genealogy>  (16) 
CCN(CC)CCCOCCCCOCC[NH+](CC)CC (protonated)
CCN(CC)CCCOCCCCOCC[NH+](CC)CC (3D coordinates assigned)
CCN(CC)CCCOCCCCOCC[NH+](CC)CC (optimized conformer: 53.08175209749713 kcal/mol)

>  <smiles>  (16) 
CCN(CC)CCCOCCCCOCCN(CC)CC

>  <score_type>  (16) 
oracle

>  <origin>  (16) 
adg

>  <m_score__min__energy>  (16) 
-3.5

>  <m_primary>  (16) 
energy

$$$$
16:0
     RDKit          3D

 63 65  0  0  0  0  0  0  0  0999 V2000
   63.3940   33.9060   46.3630 C   0  0  0  0  0  0  0  0  0  0  0  0
   63.3890   33.4590   47.8380 C   0  0  0  0  0  0  0  0  0  0  0  0
   63.5500   31.9950   48.0340 N   0  0  1  0  0  0  0  0  0  0  0  0
   63.4020   31.6270   49.4580 C   0  0  0  0  0  0  0  0  0  0  0  0
   62.6360   31.2140   47.1620 C   0  0  0  0  0  0  0  0  0  0  0  0
   61.2630   31.2170   47.6830 N   0  0  0  0  0  0  0  0  0  0  0  0
   60.1080   31.1090   46.8310 C   0  0  0  0  0  0  0  0  0  0  0  0
   59.5400   32.2650   46.2690 C   0  0  0  0  0  0  0  0  0  0  0  0
   60.0150   33.5480   46.6150 C   0  0  0  0  0  0  0  0  0  0  0  0
   59.4390   34.6910   46.0670 C   0  0  0  0  0  0  0  0  0  0  0  0
   58.3810   34.5770   45.1720 C   0  0  0  0  0  0  0  0  0  0  0  0
   57.9080   33.3190   44.8000 C   0  0  0  0  0  0  0  0  0  0  0  0
   58.4930   32.1350   45.3180 C   0  0  0  0  0  0  0  0  0  0  0  0
   58.0710   30.8810   44.9190 N   0  0  0  0  0  0  0  0  0  0  0  0
   57.2270   30.7400   43.7100 C   0  0  0  0  0  0  0  0  0  0  0  0
   58.4680   29.7610   45.6280 C   0  0  0  0  0  0  0  0  0  0  0  0
   57.8390   28.5010   45.4460 C   0  0  0  0  0  0  0  0  0  0  0  0
   58.2790   27.3590   46.1380 C   0  0  0  0  0  0  0  0  0  0  0  0
   57.7160   26.0860   45.9530 O   0  0  0  0  0  0  0  0  0  0  0  0
   57.7220   25.3310   44.7430 C   0  0  0  0  0  0  0  0  0  0  0  0
   58.1380   23.8530   44.9500 C   0  0  0  0  0  0  0  0  0  0  0  0
   57.2510   22.8140   44.3340 N   0  0  0  0  0  0  0  0  0  0  0  0
   56.6030   23.3000   43.0920 C   0  0  0  0  0  0  0  0  0  0  0  0
   58.0970   21.6440   43.9860 C   0  0  0  0  0  0  0  0  0  0  0  0
   56.2120   22.3570   45.2900 C   0  0  0  0  0  0  0  0  0  0  0  0
   59.3140   27.4810   47.0600 C   0  0  0  0  0  0  0  0  0  0  0  0
   59.9110   28.7130   47.2970 C   0  0  0  0  0  0  0  0  0  0  0  0
   59.5130   29.8600   46.5810 C   0  0  0  0  0  0  0  0  0  0  0  0
   63.4063   35.0048   46.3129 H   0  0  0  0  0  0  0  0  0  0  0  0
   64.2877   33.5061   45.8617 H   0  0  0  0  0  0  0  0  0  0  0  0
   62.4916   33.5262   45.8617 H   0  0  0  0  0  0  0  0  0  0  0  0
   64.2153   33.9687   48.3552 H   0  0  0  0  0  0  0  0  0  0  0  0
   62.4018   33.7244   48.2441 H   0  0  0  0  0  0  0  0  0  0  0  0
   64.5370   31.7730   47.7570 H   0  0  0  0  0  0  0  0  0  0  0  0
   63.7381   32.4626   50.0895 H   0  0  0  0  0  0  0  0  0  0  0  0
   62.3456   31.4074   49.6721 H   0  0  0  0  0  0  0  0  0  0  0  0
   64.0122   30.7371   49.6721 H   0  0  0  0  0  0  0  0  0  0  0  0
   62.6373   31.6568   46.1550 H   0  0  0  0  0  0  0  0  0  0  0  0
   62.9920   30.1736   47.1324 H   0  0  0  0  0  0  0  0  0  0  0  0
   61.1160   31.3460   48.7090 H   0  0  0  0  0  0  0  0  0  0  0  0
   60.8492   33.6461   47.3252 H   0  0  0  0  0  0  0  0  0  0  0  0
   59.8212   35.6850   46.3423 H   0  0  0  0  0  0  0  0  0  0  0  0
   57.9154   35.4825   44.7558 H   0  0  0  0  0  0  0  0  0  0  0  0
   57.0680   33.2436   44.0938 H   0  0  0  0  0  0  0  0  0  0  0  0
   56.1831   30.5656   44.0099 H   0  0  0  0  0  0  0  0  0  0  0  0
   57.2875   31.6607   43.1111 H   0  0  0  0  0  0  0  0  0  0  0  0
   57.5835   29.8890   43.1111 H   0  0  0  0  0  0  0  0  0  0  0  0
   56.9912   28.4168   44.7502 H   0  0  0  0  0  0  0  0  0  0  0  0
   56.7102   25.3527   44.3120 H   0  0  0  0  0  0  0  0  0  0  0  0
   58.4650   25.7899   44.0741 H   0  0  0  0  0  0  0  0  0  0  0  0
   59.1447   23.7269   44.5250 H   0  0  0  0  0  0  0  0  0  0  0  0
   58.0741   23.6828   46.0349 H   0  0  0  0  0  0  0  0  0  0  0  0
   55.7478   23.9414   43.3514 H   0  0  0  0  0  0  0  0  0  0  0  0
   57.3291   23.8781   42.5016 H   0  0  0  0  0  0  0  0  0  0  0  0
   56.2513   22.4411   42.5016 H   0  0  0  0  0  0  0  0  0  0  0  0
   58.4483   21.1582   44.9083 H   0  0  0  0  0  0  0  0  0  0  0  0
   57.5069   20.9273   43.3960 H   0  0  0  0  0  0  0  0  0  0  0  0
   58.9625   21.9799   43.3960 H   0  0  0  0  0  0  0  0  0  0  0  0
   56.5668   22.5131   46.3194 H   0  0  0  0  0  0  0  0  0  0  0  0
   55.2879   22.9317   45.1296 H   0  0  0  0  0  0  0  0  0  0  0  0
   56.0111   21.2875   45.1296 H   0  0  0  0  0  0  0  0  0  0  0  0
   59.6632   26.5928   47.6069 H   0  0  0  0  0  0  0  0  0  0  0  0
   60.7051   28.7944   48.0538 H   0  0  0  0  0  0  0  0  0  0  0  0
  1  2  1  0
  2  3  1  0
  3  4  1  0
  3  5  1  0
  5  6  1  0
  6  7  1  0
  7  8  2  0
  8  9  1  0
  9 10  2  0
 10 11  1  0
 11 12  2  0
 12 13  1  0
 13 14  2  0
 14 15  1  0
 14 16  1  0
 16 17  2  0
 17 18  1  0
 18 19  1  0
 19 20  1  0
 20 21  1  0
 21 22  1  0
 22 23  1  0
 22 24  1  0
 22 25  1  0
 18 26  2  0
 26 27  1  0
 27 28  2  0
 28  7  1  0
 13  8  1  0
 28 16  1  0
  1 29  1  0
  1 30  1  0
  1 31  1  0
  2 32  1  0
  2 33  1  0
  3 34  1  6
  4 35  1  0
  4 36  1  0
  4 37  1  0
  5 38  1  0
  5 39  1  0
  6 40  1  0
  9 41  1  0
 10 42  1  0
 11 43  1  0
 12 44  1  0
 15 45  1  0
 15 46  1  0
 15 47  1  0
 17 48  1  0
 20 49  1  0
 20 50  1  0
 21 51  1  0
 21 52  1  0
 23 53  1  0
 23 54  1  0
 23 55  1  0
 24 56  1  0
 24 57  1  0
 24 58  1  0
 25 59  1  0
 25 60  1  0
 25 61  1  0
 26 62  1  0
 27 63  1  0
M  CHG  3   3   1  14   1  22   1
M  END
>  <UniqueID>  (17) 
17

>  <SMILES>  (17) 
CC[N@@H+](C)CNc1c2ccccc2[n+](C)c2cc(OCC[N+](C)(C)C)ccc12

>  <Energy>  (17) 
100.29047233705278

>  <Genealogy>  (17) 
CC[NH+](C)CNc1c2ccccc2[n+](C)c2cc(OCC[N+](C)(C)C)ccc12 (protonated)
CC[N@@H+](C)CNc1c2ccccc2[n+](C)c2cc(OCC[N+](C)(C)C)ccc12 (chirality)
CC[N@@H+](C)CNc1c2ccccc2[n+](C)c2cc(OCC[N+](C)(C)C)ccc12 (3D coordinates assigned)
CC[N@@H+](C)CNc1c2ccccc2[n+](C)c2cc(OCC[N+](C)(C)C)ccc12 (optimized conformer: 100.29047233705278 kcal/mol)

>  <smiles>  (17) 
CCN(C)CNc1c2ccccc2[n+](C)c2cc(OCC[N+](C)(C)C)ccc12

>  <score_type>  (17) 
oracle

>  <origin>  (17) 
adg

>  <m_score__min__energy>  (17) 
-2.9700000000000002

>  <m_primary>  (17) 
energy

$$$$
17:0
     RDKit          3D

 73 75  0  0  0  0  0  0  0  0999 V2000
   62.0770   33.4380   47.0490 C   0  0  0  0  0  0  0  0  0  0  0  0
   62.8310   32.1120   47.1140 C   0  0  0  0  0  0  0  0  0  0  0  0
   62.6330   31.4530   48.4130 N   0  0  0  0  0  0  0  0  0  0  0  0
   63.8000   31.6250   49.2890 C   0  0  0  0  0  0  0  0  0  0  0  0
   64.1300   33.1170   49.4370 C   0  0  0  0  0  0  0  0  0  0  0  0
   63.0940   33.8650   50.2850 C   0  0  0  0  0  0  0  0  0  0  0  0
   62.0610   32.9400   50.7860 N   0  0  0  0  0  0  0  0  0  0  0  0
   61.0500   33.6000   51.6250 C   0  0  0  0  0  0  0  0  0  0  0  0
   59.6960   33.7150   50.9090 C   0  0  0  0  0  0  0  0  0  0  0  0
   59.8530   34.0630   49.4240 C   0  0  0  0  0  0  0  0  0  0  0  0
   58.8570   33.3500   48.6240 N   0  0  0  0  0  0  0  0  0  0  0  0
   58.8660   33.3370   47.1820 C   0  0  0  0  0  0  0  0  0  0  0  0
   58.8710   34.5600   46.4920 C   0  0  0  0  0  0  0  0  0  0  0  0
   58.7190   34.5990   45.1160 C   0  0  0  0  0  0  0  0  0  0  0  0
   58.4830   33.4300   44.4050 C   0  0  0  0  0  0  0  0  0  0  0  0
   58.4290   32.1740   45.0550 C   0  0  0  0  0  0  0  0  0  0  0  0
   58.7390   32.1180   46.4460 C   0  0  0  0  0  0  0  0  0  0  0  0
   58.9380   30.8480   47.0390 C   0  0  0  0  0  0  0  0  0  0  0  0
   59.5220   30.7290   48.3430 N   0  0  0  0  0  0  0  0  0  0  0  0
   58.6580   30.5920   49.5170 C   0  0  0  0  0  0  0  0  0  0  0  0
   59.4760   30.3480   50.7890 C   0  0  0  0  0  0  0  0  0  0  0  0
   60.9090   30.5760   50.5460 N   0  0  0  0  0  0  0  0  0  0  0  0
   61.5840   29.3480   50.1080 C   0  0  0  0  0  0  0  0  0  0  0  0
   60.6290   28.1640   50.2050 C   0  0  0  0  0  0  0  0  0  0  0  0
   58.7480   29.6810   46.2770 C   0  0  0  0  0  0  0  0  0  0  0  0
   58.9730   28.4070   46.8430 C   0  0  0  0  0  0  0  0  0  0  0  0
   58.8450   27.2520   46.0770 C   0  0  0  0  0  0  0  0  0  0  0  0
   58.5050   27.3440   44.7330 C   0  0  0  0  0  0  0  0  0  0  0  0
   58.2700   28.5900   44.1530 C   0  0  0  0  0  0  0  0  0  0  0  0
   58.3560   29.7840   44.9190 C   0  0  0  0  0  0  0  0  0  0  0  0
   58.1070   31.0230   44.3620 N   0  0  0  0  0  0  0  0  0  0  0  0
   57.4590   31.1190   43.0330 C   0  0  0  0  0  0  0  0  0  0  0  0
   61.8741   33.7948   48.0695 H   0  0  0  0  0  0  0  0  0  0  0  0
   62.6876   34.1812   46.5153 H   0  0  0  0  0  0  0  0  0  0  0  0
   61.1261   33.2933   46.5153 H   0  0  0  0  0  0  0  0  0  0  0  0
   62.4634   31.4503   46.3159 H   0  0  0  0  0  0  0  0  0  0  0  0
   63.9046   32.3142   46.9852 H   0  0  0  0  0  0  0  0  0  0  0  0
   61.8180   31.9240   48.8750 H   0  0  0  0  0  0  0  0  0  0  0  0
   63.5777   31.2011   50.2794 H   0  0  0  0  0  0  0  0  0  0  0  0
   64.6633   31.1064   48.8465 H   0  0  0  0  0  0  0  0  0  0  0  0
   65.1153   33.2148   49.9161 H   0  0  0  0  0  0  0  0  0  0  0  0
   64.1241   33.5626   48.4313 H   0  0  0  0  0  0  0  0  0  0  0  0
   63.6006   34.3370   51.1398 H   0  0  0  0  0  0  0  0  0  0  0  0
   62.6097   34.6280   49.6579 H   0  0  0  0  0  0  0  0  0  0  0  0
   61.5610   32.5370   49.9600 H   0  0  0  0  0  0  0  0  0  0  0  0
   60.9160   33.0147   52.5467 H   0  0  0  0  0  0  0  0  0  0  0  0
   61.4044   34.6171   51.8483 H   0  0  0  0  0  0  0  0  0  0  0  0
   59.1679   32.7537   50.9935 H   0  0  0  0  0  0  0  0  0  0  0  0
   59.1291   34.5271   51.3877 H   0  0  0  0  0  0  0  0  0  0  0  0
   59.7176   35.1463   49.2895 H   0  0  0  0  0  0  0  0  0  0  0  0
   60.8579   33.7630   49.0920 H   0  0  0  0  0  0  0  0  0  0  0  0
   57.9720   33.0680   49.1040 H   0  0  0  0  0  0  0  0  0  0  0  0
   58.9972   35.4987   47.0514 H   0  0  0  0  0  0  0  0  0  0  0  0
   58.7855   35.5597   44.5844 H   0  0  0  0  0  0  0  0  0  0  0  0
   58.3352   33.4810   43.3162 H   0  0  0  0  0  0  0  0  0  0  0  0
   60.5310   30.9810   48.4580 H   0  0  0  0  0  0  0  0  0  0  0  0
   58.0725   31.5151   49.6399 H   0  0  0  0  0  0  0  0  0  0  0  0
   57.9964   29.7273   49.3603 H   0  0  0  0  0  0  0  0  0  0  0  0
   59.1308   31.0347   51.5759 H   0  0  0  0  0  0  0  0  0  0  0  0
   59.3354   29.3026   51.1010 H   0  0  0  0  0  0  0  0  0  0  0  0
   60.9940   31.2750   49.7700 H   0  0  0  0  0  0  0  0  0  0  0  0
   61.9133   29.4657   49.0651 H   0  0  0  0  0  0  0  0  0  0  0  0
   62.4537   29.1638   50.7558 H   0  0  0  0  0  0  0  0  0  0  0  0
   60.4407   27.9306   51.2633 H   0  0  0  0  0  0  0  0  0  0  0  0
   59.6795   28.4174   49.7108 H   0  0  0  0  0  0  0  0  0  0  0  0
   61.0776   27.2896   49.7108 H   0  0  0  0  0  0  0  0  0  0  0  0
   59.2532   28.3263   47.9036 H   0  0  0  0  0  0  0  0  0  0  0  0
   59.0130   26.2664   46.5356 H   0  0  0  0  0  0  0  0  0  0  0  0
   58.4210   26.4313   44.1248 H   0  0  0  0  0  0  0  0  0  0  0  0
   58.0138   28.6498   43.0849 H   0  0  0  0  0  0  0  0  0  0  0  0
   56.3785   31.2791   43.1626 H   0  0  0  0  0  0  0  0  0  0  0  0
   57.8904   31.9630   42.4749 H   0  0  0  0  0  0  0  0  0  0  0  0
   57.6271   30.1861   42.4749 H   0  0  0  0  0  0  0  0  0  0  0  0
  1  2  1  0
  2  3  1  0
  3  4  1  0
  4  5  1  0
  5  6  1  0
  6  7  1  0
  7  8  1  0
  8  9  1  0
  9 10  1  0
 10 11  1  0
 11 12  1  0
 12 13  2  0
 13 14  1  0
 14 15  2  0
 15 16  1  0
 16 17  2  0
 17 18  1  0
 18 19  1  0
 19 20  1  0
 20 21  1  0
 21 22  1  0
 22 23  1  0
 23 24  1  0
 18 25  2  0
 25 26  1  0
 26 27  2  0
 27 28  1  0
 28 29  2  0
 29 30  1  0
 30 31  2  0
 31 32  1  0
 17 12  1  0
 30 25  1  0
 31 16  1  0
  1 33  1  0
  1 34  1  0
  1 35  1  0
  2 36  1  0
  2 37  1  0
  3 38  1  0
  4 39  1  0
  4 40  1  0
  5 41  1  0
  5 42  1  0
  6 43  1  0
  6 44  1  0
  7 45  1  0
  8 46  1  0
  8 47  1  0
  9 48  1  0
  9 49  1  0
 10 50  1  0
 10 51  1  0
 11 52  1  0
 13 53  1  0
 14 54  1  0
 15 55  1  0
 19 56  1  0
 20 57  1  0
 20 58  1  0
 21 59  1  0
 21 60  1  0
 22 61  1  0
 23 62  1  0
 23 63  1  0
 24 64  1  0
 24 65  1  0
 24 66  1  0
 26 67  1  0
 27 68  1  0
 28 69  1  0
 29 70  1  0
 32 71  1  0
 32 72  1  0
 32 73  1  0
M  CHG  1  31   1
M  END
>  <UniqueID>  (18) 
18

>  <SMILES>  (18) 
CCNCCCNCCCNc1cccc2c1c(NCCNCC)c1ccccc1[n+]2C

>  <Energy>  (18) 
89.83974429781122

>  <Genealogy>  (18) 
CCNCCCNCCCNc1cccc2c1c(NCCNCC)c1ccccc1[n+]2C (3D coordinates assigned)
CCNCCCNCCCNc1cccc2c1c(NCCNCC)c1ccccc1[n+]2C (optimized conformer: 89.83974429781122 kcal/mol)

>  <smiles>  (18) 
CCNCCCNCCCNc1cccc2c1c(NCCNCC)c1ccccc1[n+]2C

>  <score_type>  (18) 
oracle

>  <origin>  (18) 
adg

>  <m_score__min__energy>  (18) 
-5.5099999999999998

>  <m_primary>  (18) 
energy

$$$$
18:0
     RDKit          3D

 84 88  0  0  0  0  0  0  0  0999 V2000
   63.6510   30.3770   51.2190 C   0  0  0  0  0  0  0  0  0  0  0  0
   62.7300   29.3010   51.7920 C   0  0  0  0  0  0  0  0  0  0  0  0
   61.4500   29.3680   51.1910 O   0  0  0  0  0  0  0  0  0  0  0  0
   60.8810   30.6580   51.3250 C   0  0  0  0  0  0  0  0  0  0  0  0
   59.6420   30.7930   50.4320 C   0  0  0  0  0  0  0  0  0  0  0  0
   59.8030   29.9760   49.1380 C   0  0  0  0  0  0  0  0  0  0  0  0
   60.0060   28.5410   49.4110 N   0  0  0  0  0  0  0  0  0  0  0  0
   59.2210   27.6940   48.4990 C   0  0  0  0  0  0  0  0  0  0  0  0
   59.7600   27.7940   47.0650 C   0  0  0  0  0  0  0  0  0  0  0  0
   58.7120   28.3320   46.1280 C   0  0  0  0  0  0  0  0  0  0  0  0
   57.7630   27.6160   45.3850 C   0  0  0  0  0  0  0  0  0  0  0  0
   57.6030   26.1490   45.3230 C   0  0  0  0  0  0  0  0  0  0  0  0
   58.7390   25.3260   45.3060 C   0  0  0  0  0  0  0  0  0  0  0  0
   58.6080   23.9300   45.2480 C   0  0  0  0  0  0  0  0  0  0  0  0
   59.8260   23.0550   45.2360 C   0  0  0  0  0  0  0  0  0  0  0  0
   57.3280   23.3550   45.2540 C   0  0  0  0  0  0  0  0  0  0  0  0
   56.1850   24.1670   45.3070 C   0  0  0  0  0  0  0  0  0  0  0  0
   54.8180   23.5490   45.2740 C   0  0  0  0  0  0  0  0  0  0  0  0
   56.3280   25.5620   45.3280 C   0  0  0  0  0  0  0  0  0  0  0  0
   56.9450   28.4680   44.7220 N   0  0  0  0  0  0  0  0  0  0  0  0
   57.3740   29.7060   45.0230 C   0  0  0  0  0  0  0  0  0  0  0  0
   56.8460   30.9080   44.5700 C   0  0  0  0  0  0  0  0  0  0  0  0
   57.4460   32.0990   45.0080 C   0  0  0  0  0  0  0  0  0  0  0  0
   58.5660   32.0860   45.8910 C   0  0  0  0  0  0  0  0  0  0  0  0
   59.1770   33.4250   46.3380 C   0  0  0  0  0  0  0  0  0  0  0  0
   58.1160   34.4830   46.7150 C   0  0  0  0  0  0  0  0  0  0  0  0
   60.0190   33.9760   45.1650 C   0  0  0  0  0  0  0  0  0  0  0  0
   60.0320   33.1860   47.5750 C   0  0  0  0  0  0  0  0  0  0  0  0
   59.5050   33.2990   48.7170 O   0  0  0  0  0  0  0  0  0  0  0  0
   61.4190   32.8250   47.4710 N   0  0  0  0  0  0  0  0  0  0  0  0
   62.4810   33.7650   47.1670 C   0  0  1  0  0  0  0  0  0  0  0  0
   62.7890   34.4020   48.5330 C   0  0  0  0  0  0  0  0  0  0  0  0
   62.5690   33.2170   49.4800 C   0  0  0  0  0  0  0  0  0  0  0  0
   62.1580   32.1100   48.4940 C   0  0  2  0  0  0  0  0  0  0  0  0
   63.4050   31.6480   47.7290 C   0  0  0  0  0  0  0  0  0  0  0  0
   63.6400   32.8350   46.7830 C   0  0  0  0  0  0  0  0  0  0  0  0
   59.0530   30.8300   46.3470 C   0  0  0  0  0  0  0  0  0  0  0  0
   58.4430   29.6660   45.8750 C   0  0  0  0  0  0  0  0  0  0  0  0
   64.1249   30.9307   52.0429 H   0  0  0  0  0  0  0  0  0  0  0  0
   64.4279   29.9035   50.6008 H   0  0  0  0  0  0  0  0  0  0  0  0
   63.0632   31.0715   50.6008 H   0  0  0  0  0  0  0  0  0  0  0  0
   63.1681   28.3105   51.5997 H   0  0  0  0  0  0  0  0  0  0  0  0
   62.6224   29.4663   52.8742 H   0  0  0  0  0  0  0  0  0  0  0  0
   60.5907   30.8186   52.3738 H   0  0  0  0  0  0  0  0  0  0  0  0
   61.6244   31.4086   51.0185 H   0  0  0  0  0  0  0  0  0  0  0  0
   58.7615   30.4276   50.9809 H   0  0  0  0  0  0  0  0  0  0  0  0
   59.5169   31.8525   50.1641 H   0  0  0  0  0  0  0  0  0  0  0  0
   58.8961   30.0963   48.5272 H   0  0  0  0  0  0  0  0  0  0  0  0
   60.6921   30.3498   48.6091 H   0  0  0  0  0  0  0  0  0  0  0  0
   59.6940   28.3480   50.3930 H   0  0  0  0  0  0  0  0  0  0  0  0
   61.0240   28.3000   49.3430 H   0  0  0  0  0  0  0  0  0  0  0  0
   59.2818   26.6484   48.8353 H   0  0  0  0  0  0  0  0  0  0  0  0
   58.1763   28.0383   48.5085 H   0  0  0  0  0  0  0  0  0  0  0  0
   60.6304   28.4665   47.0545 H   0  0  0  0  0  0  0  0  0  0  0  0
   60.0454   26.7865   46.7282 H   0  0  0  0  0  0  0  0  0  0  0  0
   59.7410   25.7788   45.3384 H   0  0  0  0  0  0  0  0  0  0  0  0
   60.1305   22.8362   46.2701 H   0  0  0  0  0  0  0  0  0  0  0  0
   59.5964   22.1141   44.7145 H   0  0  0  0  0  0  0  0  0  0  0  0
   60.6444   23.5729   44.7145 H   0  0  0  0  0  0  0  0  0  0  0  0
   57.2200   22.2609   45.2169 H   0  0  0  0  0  0  0  0  0  0  0  0
   54.4632   23.3886   46.3028 H   0  0  0  0  0  0  0  0  0  0  0  0
   54.1244   24.2211   44.7475 H   0  0  0  0  0  0  0  0  0  0  0  0
   54.8643   22.5843   44.7475 H   0  0  0  0  0  0  0  0  0  0  0  0
   55.4333   26.2016   45.3486 H   0  0  0  0  0  0  0  0  0  0  0  0
   56.1480   28.2170   44.0960 H   0  0  0  0  0  0  0  0  0  0  0  0
   55.9831   30.9262   43.8881 H   0  0  0  0  0  0  0  0  0  0  0  0
   57.0438   33.0629   44.6629 H   0  0  0  0  0  0  0  0  0  0  0  0
   58.0434   34.5554   47.8102 H   0  0  0  0  0  0  0  0  0  0  0  0
   58.4088   35.4594   46.3016 H   0  0  0  0  0  0  0  0  0  0  0  0
   57.1404   34.1874   46.3016 H   0  0  0  0  0  0  0  0  0  0  0  0
   60.8774   34.5377   45.5620 H   0  0  0  0  0  0  0  0  0  0  0  0
   60.3812   33.1397   44.5491 H   0  0  0  0  0  0  0  0  0  0  0  0
   59.3976   34.6428   44.5491 H   0  0  0  0  0  0  0  0  0  0  0  0
   62.2787   34.5262   46.3991 H   0  0  0  0  0  0  0  0  0  0  0  0
   62.0978   35.2282   48.7560 H   0  0  0  0  0  0  0  0  0  0  0  0
   63.7906   34.8514   48.6024 H   0  0  0  0  0  0  0  0  0  0  0  0
   61.7695   33.4257   50.2061 H   0  0  0  0  0  0  0  0  0  0  0  0
   63.4448   32.9665   50.0965 H   0  0  0  0  0  0  0  0  0  0  0  0
   61.6410   31.2840   49.0042 H   0  0  0  0  0  0  0  0  0  0  0  0
   63.2129   30.7203   47.1699 H   0  0  0  0  0  0  0  0  0  0  0  0
   64.2644   31.4105   48.3732 H   0  0  0  0  0  0  0  0  0  0  0  0
   63.5764   32.5276   45.7288 H   0  0  0  0  0  0  0  0  0  0  0  0
   64.6348   33.2947   46.8781 H   0  0  0  0  0  0  0  0  0  0  0  0
   59.8921   30.7767   47.0562 H   0  0  0  0  0  0  0  0  0  0  0  0
  1  2  1  0
  2  3  1  0
  3  4  1  0
  4  5  1  0
  5  6  1  0
  6  7  1  0
  7  8  1  0
  8  9  1  0
  9 10  1  0
 10 11  2  0
 11 12  1  0
 12 13  2  0
 13 14  1  0
 14 15  1  0
 14 16  2  0
 16 17  1  0
 17 18  1  0
 17 19  2  0
 11 20  1  0
 20 21  1  0
 21 22  2  0
 22 23  1  0
 23 24  2  0
 24 25  1  0
 25 26  1  0
 25 27  1  0
 25 28  1  0
 28 29  2  0
 28 30  1  0
 30 31  1  0
 31 32  1  0
 32 33  1  0
 33 34  1  0
 34 35  1  0
 35 36  1  0
 24 37  1  0
 37 38  2  0
 38 10  1  0
 19 12  1  0
 38 21  1  0
 34 30  1  0
 36 31  1  0
  1 39  1  0
  1 40  1  0
  1 41  1  0
  2 42  1  0
  2 43  1  0
  4 44  1  0
  4 45  1  0
  5 46  1  0
  5 47  1  0
  6 48  1  0
  6 49  1  0
  7 50  1  0
  7 51  1  0
  8 52  1  0
  8 53  1  0
  9 54  1  0
  9 55  1  0
 13 56  1  0
 15 57  1  0
 15 58  1  0
 15 59  1  0
 16 60  1  0
 18 61  1  0
 18 62  1  0
 18 63  1  0
 19 64  1  0
 20 65  1  0
 22 66  1  0
 23 67  1  0
 26 68  1  0
 26 69  1  0
 26 70  1  0
 27 71  1  0
 27 72  1  0
 27 73  1  0
 31 74  1  6
 32 75  1  0
 32 76  1  0
 33 77  1  0
 33 78  1  0
 34 79  1  1
 35 80  1  0
 35 81  1  0
 36 82  1  0
 36 83  1  0
 37 84  1  0
M  CHG  1   7   1
M  END
>  <UniqueID>  (19) 
19

>  <SMILES>  (19) 
CCOCCC[NH2+]CCc1c(-c2cc(C)cc(C)c2)[nH]c2ccc(C(C)(C)C(=O)N3C4CCC3CC4)cc12

>  <Energy>  (19) 
157.33969574333355

>  <Genealogy>  (19) 
CCOCCC[NH2+]CCc1c(-c2cc(C)cc(C)c2)[nH]c2ccc(C(C)(C)C(=O)N3C4CCC3CC4)cc12 (protonated)
CCOCCC[NH2+]CCc1c(-c2cc(C)cc(C)c2)[nH]c2ccc(C(C)(C)C(=O)N3C4CCC3CC4)cc12 (3D coordinates assigned)
CCOCCC[NH2+]CCc1c(-c2cc(C)cc(C)c2)[nH]c2ccc(C(C)(C)C(=O)N3C4CCC3CC4)cc12 (nonaromatic ring conformer: 157.33969574333355 kcal/mol)

>  <smiles>  (19) 
CCOCCCNCCc1c(-c2cc(C)cc(C)c2)[nH]c2ccc(C(C)(C)C(=O)N3C4CCC3CC4)cc12

>  <score_type>  (19) 
oracle

>  <origin>  (19) 
adg

>  <m_score__min__energy>  (19) 
-8.0099999999999998

>  <m_primary>  (19) 
energy

$$$$
19:0
     RDKit          3D

 55 57  0  0  0  0  0  0  0  0999 V2000
   57.4287   32.3423   48.5283 H   0  0  0  0  0  0  0  0  0  0  0  0
   57.9570   32.7260   47.6430 C   0  0  0  0  0  0  0  0  0  0  0  0
   57.3980   32.5760   46.4750 N   0  0  0  0  0  0  0  0  0  0  0  0
   57.8770   31.7520   45.4030 C   0  0  0  0  0  0  0  0  0  0  0  0
   58.5290   32.2900   44.4700 O   0  0  0  0  0  0  0  0  0  0  0  0
   57.6780   30.2870   45.3950 C   0  0  0  0  0  0  0  0  0  0  0  0
   58.2410   29.3540   46.2600 C   0  0  0  0  0  0  0  0  0  0  0  0
   59.2150   29.6270   47.3660 C   0  0  0  0  0  0  0  0  0  0  0  0
   58.7164   29.4872   48.3365 H   0  0  0  0  0  0  0  0  0  0  0  0
   60.0641   28.9322   47.2866 H   0  0  0  0  0  0  0  0  0  0  0  0
   59.5793   30.6619   47.2866 H   0  0  0  0  0  0  0  0  0  0  0  0
   57.6520   28.1330   45.9510 C   0  0  0  0  0  0  0  0  0  0  0  0
   57.7850   26.8530   46.7260 C   0  0  0  0  0  0  0  0  0  0  0  0
   58.8492   26.5881   46.8116 H   0  0  0  0  0  0  0  0  0  0  0  0
   57.3527   26.9916   47.7280 H   0  0  0  0  0  0  0  0  0  0  0  0
   57.0520   25.7460   46.0220 C   0  0  0  0  0  0  0  0  0  0  0  0
   55.6910   25.6900   45.7470 C   0  0  0  0  0  0  0  0  0  0  0  0
   54.7840   26.7050   46.0280 O   0  0  0  0  0  0  0  0  0  0  0  0
   55.3280   24.5220   45.1690 N   0  0  0  0  0  0  0  0  0  0  0  0
   56.4790   23.8290   45.0850 C   0  0  0  0  0  0  0  0  0  0  0  0
   56.6340   22.5410   44.5740 C   0  0  0  0  0  0  0  0  0  0  0  0
   55.7747   21.9845   44.1716 H   0  0  0  0  0  0  0  0  0  0  0  0
   57.9210   21.9740   44.5880 C   0  0  0  0  0  0  0  0  0  0  0  0
   58.0753   20.9577   44.1963 H   0  0  0  0  0  0  0  0  0  0  0  0
   59.0160   22.7020   45.1020 C   0  0  0  0  0  0  0  0  0  0  0  0
   60.0186   22.2494   45.1063 H   0  0  0  0  0  0  0  0  0  0  0  0
   58.8350   24.0000   45.6080 C   0  0  0  0  0  0  0  0  0  0  0  0
   59.6831   24.5776   46.0044 H   0  0  0  0  0  0  0  0  0  0  0  0
   57.5450   24.5340   45.5920 C   0  0  0  0  0  0  0  0  0  0  0  0
   56.7920   28.2810   44.9250 N   0  0  0  0  0  0  0  0  0  0  0  0
   56.1890   27.5370   44.5090 H   0  0  0  0  0  0  0  0  0  0  0  0
   56.8080   29.5820   44.5760 C   0  0  0  0  0  0  0  0  0  0  0  0
   55.9180   30.1660   43.5250 C   0  0  0  0  0  0  0  0  0  0  0  0
   55.0907   30.7089   44.0054 H   0  0  0  0  0  0  0  0  0  0  0  0
   56.4972   30.8602   42.8984 H   0  0  0  0  0  0  0  0  0  0  0  0
   55.5117   29.3584   42.8984 H   0  0  0  0  0  0  0  0  0  0  0  0
   59.2970   33.4020   47.8420 C   0  0  0  0  0  0  0  0  0  0  0  0
   59.8820   32.8219   48.5709 H   0  0  0  0  0  0  0  0  0  0  0  0
   59.1101   34.4242   48.2027 H   0  0  0  0  0  0  0  0  0  0  0  0
   60.0690   33.4980   46.5760 N   0  0  0  0  0  0  0  0  0  0  0  0
   59.5420   32.9730   45.8370 H   0  0  0  0  0  0  0  0  0  0  0  0
   60.1410   34.9080   46.1020 C   0  0  0  0  0  0  0  0  0  0  0  0
   61.1834   35.1239   45.8250 H   0  0  0  0  0  0  0  0  0  0  0  0
   59.7755   35.5337   46.9296 H   0  0  0  0  0  0  0  0  0  0  0  0
   59.2490   35.2230   44.8920 C   0  0  0  0  0  0  0  0  0  0  0  0
   58.2656   35.5703   45.2419 H   0  0  0  0  0  0  0  0  0  0  0  0
   59.7203   36.0091   44.2838 H   0  0  0  0  0  0  0  0  0  0  0  0
   59.1222   34.3153   44.2838 H   0  0  0  0  0  0  0  0  0  0  0  0
   61.4010   32.8540   46.7290 C   0  0  0  0  0  0  0  0  0  0  0  0
   61.4174   32.3071   47.6833 H   0  0  0  0  0  0  0  0  0  0  0  0
   61.5418   32.1852   45.8671 H   0  0  0  0  0  0  0  0  0  0  0  0
   62.5600   33.8560   46.7220 C   0  0  0  0  0  0  0  0  0  0  0  0
   62.8410   34.0989   47.7574 H   0  0  0  0  0  0  0  0  0  0  0  0
   63.4230   33.4148   46.2018 H   0  0  0  0  0  0  0  0  0  0  0  0
   62.2482   34.7737   46.2018 H   0  0  0  0  0  0  0  0  0  0  0  0
  1  2  1  0
  2  3  2  0
  3  4  1  0
  4  5  2  0
  4  6  1  0
  6  7  1  0
  7  8  1  0
  8  9  1  0
  8 10  1  0
  8 11  1  0
  7 12  2  0
 12 13  1  0
 13 14  1  0
 13 15  1  0
 13 16  1  0
 16 17  2  0
 17 18  1  0
 17 19  1  0
 19 20  1  0
 20 21  2  0
 21 22  1  0
 21 23  1  0
 23 24  1  0
 23 25  2  0
 25 26  1  0
 25 27  1  0
 27 28  1  0
 27 29  2  0
 12 30  1  0
 30 31  1  0
 30 32  1  0
 32 33  1  0
 33 34  1  0
 33 35  1  0
 33 36  1  0
  2 37  1  0
 37 38  1  0
 37 39  1  0
 37 40  1  0
 40 41  1  0
 40 42  1  0
 42 43  1  0
 42 44  1  0
 42 45  1  0
 45 46  1  0
 45 47  1  0
 45 48  1  0
 40 49  1  0
 49 50  1  0
 49 51  1  0
 49 52  1  0
 52 53  1  0
 52 54  1  0
 52 55  1  0
 32  6  2  0
 29 16  1  0
 29 20  1  0
M  CHG  3  18  -1  19  -1  40   1
M  END
>  <UniqueID>  (20) 
20

>  <SMILES>  (20) 
CC[NH+](CC)C/C=N\C(=O)c1c(C)[nH]c(Cc2c([O-])[n-]c3ccccc23)c1C

>  <Energy>  (20) 
115.37608112121168

>  <Genealogy>  (20) 
CC[NH+](CC)CC=NC(=O)c1c(C)[nH]c(Cc2c([O-])[n-]c3ccccc23)c1C (protonated)
CC[NH+](CC)C/C=N\C(=O)c1c(C)[nH]c(Cc2c([O-])[n-]c3ccccc23)c1C (cis-trans isomerization)
CC[NH+](CC)C/C=N\C(=O)c1c(C)[nH]c(Cc2c([O-])[n-]c3ccccc23)c1C (3D coordinates assigned)
CC[NH+](CC)C/C=N\C(=O)c1c(C)[nH]c(Cc2c([O-])[n-]c3ccccc23)c1C (optimized conformer: 115.37608112121168 kcal/mol)

>  <smiles>  (20) 
CCN(CC)CC=NC(=O)c1c(C)[nH]c(Cc2c(O)[nH]c3ccccc23)c1C

>  <score_type>  (20) 
oracle

>  <origin>  (20) 
adg

>  <m_score__min__energy>  (20) 
-12.18

>  <m_primary>  (20) 
energy

$$$$
20:0
     RDKit          3D

 33 34  0  0  0  0  0  0  0  0999 V2000
   61.3520   30.9990   47.1860 C   0  0  0  0  0  0  0  0  0  0  0  0
   60.3510   31.2080   48.3170 C   0  0  0  0  0  0  0  0  0  0  0  0
   58.9850   31.1770   47.7970 N   0  0  0  0  0  0  0  0  0  0  0  0
   58.5480   31.9420   46.6550 C   0  0  0  0  0  0  0  0  0  0  0  0
   58.2250   33.3010   46.8150 C   0  0  0  0  0  0  0  0  0  0  0  0
   57.7220   34.0410   45.7510 C   0  0  0  0  0  0  0  0  0  0  0  0
   57.5030   33.4350   44.5190 C   0  0  0  0  0  0  0  0  0  0  0  0
   57.8040   32.0770   44.3270 C   0  0  0  0  0  0  0  0  0  0  0  0
   58.3860   31.3230   45.3840 C   0  0  0  0  0  0  0  0  0  0  0  0
   58.8080   29.8620   45.2050 C   0  0  0  0  0  0  0  0  0  0  0  0
   57.7260   28.8390   44.7680 C   0  0  0  0  0  0  0  0  0  0  0  0
   57.3160   28.9820   43.3600 N   0  0  0  0  0  0  0  0  0  0  0  0
   56.5980   30.2440   43.1040 C   0  0  0  0  0  0  0  0  0  0  0  0
   57.5230   31.4660   42.9810 C   0  0  0  0  0  0  0  0  0  0  0  0
   62.3458   30.7915   47.6096 H   0  0  0  0  0  0  0  0  0  0  0  0
   61.0326   30.1482   46.5663 H   0  0  0  0  0  0  0  0  0  0  0  0
   61.3998   31.9065   46.5663 H   0  0  0  0  0  0  0  0  0  0  0  0
   60.4738   30.4087   49.0627 H   0  0  0  0  0  0  0  0  0  0  0  0
   60.5351   32.1879   48.7816 H   0  0  0  0  0  0  0  0  0  0  0  0
   58.2880   30.6010   48.3200 H   0  0  0  0  0  0  0  0  0  0  0  0
   58.3718   33.7838   47.7924 H   0  0  0  0  0  0  0  0  0  0  0  0
   57.4966   35.1094   45.8843 H   0  0  0  0  0  0  0  0  0  0  0  0
   57.0902   34.0247   43.6872 H   0  0  0  0  0  0  0  0  0  0  0  0
   59.6029   29.8420   44.4449 H   0  0  0  0  0  0  0  0  0  0  0  0
   59.1028   29.5359   46.2133 H   0  0  0  0  0  0  0  0  0  0  0  0
   58.1271   27.8250   44.9125 H   0  0  0  0  0  0  0  0  0  0  0  0
   56.8350   29.0273   45.3850 H   0  0  0  0  0  0  0  0  0  0  0  0
   58.1400   28.8930   42.7190 H   0  0  0  0  0  0  0  0  0  0  0  0
   56.6670   28.1950   43.1240 H   0  0  0  0  0  0  0  0  0  0  0  0
   56.0344   30.1389   42.1652 H   0  0  0  0  0  0  0  0  0  0  0  0
   55.9421   30.4224   43.9688 H   0  0  0  0  0  0  0  0  0  0  0  0
   58.4733   31.1515   42.5249 H   0  0  0  0  0  0  0  0  0  0  0  0
   57.0215   32.2194   42.3557 H   0  0  0  0  0  0  0  0  0  0  0  0
  1  2  1  0
  2  3  1  0
  3  4  1  0
  4  5  2  0
  5  6  1  0
  6  7  2  0
  7  8  1  0
  8  9  2  0
  9 10  1  0
 10 11  1  0
 11 12  1  0
 12 13  1  0
 13 14  1  0
  9  4  1  0
 14  8  1  0
  1 15  1  0
  1 16  1  0
  1 17  1  0
  2 18  1  0
  2 19  1  0
  3 20  1  0
  5 21  1  0
  6 22  1  0
  7 23  1  0
 10 24  1  0
 10 25  1  0
 11 26  1  0
 11 27  1  0
 12 28  1  0
 12 29  1  0
 13 30  1  0
 13 31  1  0
 14 32  1  0
 14 33  1  0
M  CHG  1  12   1
M  END
>  <UniqueID>  (21) 
21

>  <SMILES>  (21) 
CCNc1cccc2c1CC[NH2+]CC2

>  <Energy>  (21) 
44.82947451730363

>  <Genealogy>  (21) 
CCNc1cccc2c1CC[NH2+]CC2 (protonated)
CCNc1cccc2c1CC[NH2+]CC2 (3D coordinates assigned)
CCNc1cccc2c1CC[NH2+]CC2 (nonaromatic ring conformer: 44.82947451730363 kcal/mol)

>  <smiles>  (21) 
CCNc1cccc2c1CCNCC2

>  <score_type>  (21) 
oracle

>  <origin>  (21) 
adg

>  <m_score__min__energy>  (21) 
-2.6600000000000001

>  <m_primary>  (21) 
energy

$$$$
21:0
     RDKit          3D

 57 58  0  0  0  0  0  0  0  0999 V2000
   62.0880   31.0310   49.8590 C   0  0  0  0  0  0  0  0  0  0  0  0
   61.1730   30.4600   48.7770 C   0  0  0  0  0  0  0  0  0  0  0  0
   61.6100   30.9010   47.4330 N   0  0  0  0  0  0  0  0  0  0  0  0
   61.9110   32.3570   47.4040 C   0  0  0  0  0  0  0  0  0  0  0  0
   63.3920   32.5680   47.1190 C   0  0  0  0  0  0  0  0  0  0  0  0
   60.6050   30.5240   46.4130 C   0  0  0  0  0  0  0  0  0  0  0  0
   59.6590   29.4310   46.9240 C   0  0  0  0  0  0  0  0  0  0  0  0
   58.4030   29.5400   46.2730 O   0  0  0  0  0  0  0  0  0  0  0  0
   58.4950   29.2390   44.8940 C   0  0  0  0  0  0  0  0  0  0  0  0
   57.4770   30.0490   44.0830 C   0  0  0  0  0  0  0  0  0  0  0  0
   56.8440   31.0780   44.9220 N   0  0  0  0  0  0  0  0  0  0  0  0
   57.4270   32.4070   44.6770 C   0  0  0  0  0  0  0  0  0  0  0  0
   58.1480   32.9280   45.8920 C   0  0  0  0  0  0  0  0  0  0  0  0
   58.0580   32.3720   47.1150 N   0  0  0  0  0  0  0  0  0  0  0  0
   58.7780   33.2110   47.8930 C   0  0  0  0  0  0  0  0  0  0  0  0
   58.9630   33.0270   49.3460 C   0  0  0  0  0  0  0  0  0  0  0  0
   58.2400   32.0450   50.0410 C   0  0  0  0  0  0  0  0  0  0  0  0
   58.4160   31.8810   51.4180 C   0  0  0  0  0  0  0  0  0  0  0  0
   59.3120   32.6910   52.1230 C   0  0  0  0  0  0  0  0  0  0  0  0
   59.4550   32.4860   53.5040 O   0  0  0  0  0  0  0  0  0  0  0  0
   59.3820   33.5180   54.4820 C   0  0  0  0  0  0  0  0  0  0  0  0
   60.0360   33.6790   51.4290 C   0  0  0  0  0  0  0  0  0  0  0  0
   59.8610   33.8440   50.0520 C   0  0  0  0  0  0  0  0  0  0  0  0
   59.2820   34.2230   47.2170 O   0  0  0  0  0  0  0  0  0  0  0  0
   58.8990   34.0810   45.9750 C   0  0  0  0  0  0  0  0  0  0  0  0
   59.2330   35.0300   44.8720 C   0  0  0  0  0  0  0  0  0  0  0  0
   61.6845   30.7792   50.8508 H   0  0  0  0  0  0  0  0  0  0  0  0
   63.0947   30.6005   49.7526 H   0  0  0  0  0  0  0  0  0  0  0  0
   62.1437   32.1244   49.7526 H   0  0  0  0  0  0  0  0  0  0  0  0
   61.2017   29.3613   48.8232 H   0  0  0  0  0  0  0  0  0  0  0  0
   60.1498   30.8238   48.9522 H   0  0  0  0  0  0  0  0  0  0  0  0
   61.3144   32.8383   46.6151 H   0  0  0  0  0  0  0  0  0  0  0  0
   61.6602   32.8009   48.3787 H   0  0  0  0  0  0  0  0  0  0  0  0
   63.9407   32.6462   48.0691 H   0  0  0  0  0  0  0  0  0  0  0  0
   63.7792   31.7160   46.5410 H   0  0  0  0  0  0  0  0  0  0  0  0
   63.5258   33.4943   46.5410 H   0  0  0  0  0  0  0  0  0  0  0  0
   60.0131   31.4132   46.1504 H   0  0  0  0  0  0  0  0  0  0  0  0
   61.1389   30.1316   45.5350 H   0  0  0  0  0  0  0  0  0  0  0  0
   60.0948   28.4431   46.7138 H   0  0  0  0  0  0  0  0  0  0  0  0
   59.5178   29.5505   48.0083 H   0  0  0  0  0  0  0  0  0  0  0  0
   59.5086   29.4793   44.5407 H   0  0  0  0  0  0  0  0  0  0  0  0
   58.2805   28.1691   44.7549 H   0  0  0  0  0  0  0  0  0  0  0  0
   57.9912   30.5357   43.2411 H   0  0  0  0  0  0  0  0  0  0  0  0
   56.6978   29.3671   43.7117 H   0  0  0  0  0  0  0  0  0  0  0  0
   56.9640   30.8320   45.9340 H   0  0  0  0  0  0  0  0  0  0  0  0
   58.1396   32.3359   43.8421 H   0  0  0  0  0  0  0  0  0  0  0  0
   56.6094   33.1027   44.4372 H   0  0  0  0  0  0  0  0  0  0  0  0
   57.5313   31.4012   49.4994 H   0  0  0  0  0  0  0  0  0  0  0  0
   57.8444   31.1076   51.9521 H   0  0  0  0  0  0  0  0  0  0  0  0
   59.4135   33.0731   55.4875 H   0  0  0  0  0  0  0  0  0  0  0  0
   60.2340   34.2025   54.3571 H   0  0  0  0  0  0  0  0  0  0  0  0
   58.4422   34.0758   54.3571 H   0  0  0  0  0  0  0  0  0  0  0  0
   60.7423   34.3238   51.9726 H   0  0  0  0  0  0  0  0  0  0  0  0
   60.4304   34.6189   49.5178 H   0  0  0  0  0  0  0  0  0  0  0  0
   59.5694   35.9858   45.3000 H   0  0  0  0  0  0  0  0  0  0  0  0
   60.0350   34.6035   44.2517 H   0  0  0  0  0  0  0  0  0  0  0  0
   58.3406   35.1999   44.2517 H   0  0  0  0  0  0  0  0  0  0  0  0
  1  2  1  0
  2  3  1  0
  3  4  1  0
  4  5  1  0
  3  6  1  0
  6  7  1  0
  7  8  1  0
  8  9  1  0
  9 10  1  0
 10 11  1  0
 11 12  1  0
 12 13  1  0
 13 14  1  0
 14 15  2  0
 15 16  1  0
 16 17  2  0
 17 18  1  0
 18 19  2  0
 19 20  1  0
 20 21  1  0
 19 22  1  0
 22 23  2  0
 15 24  1  0
 24 25  1  0
 25 26  1  0
 25 13  2  0
 23 16  1  0
  1 27  1  0
  1 28  1  0
  1 29  1  0
  2 30  1  0
  2 31  1  0
  4 32  1  0
  4 33  1  0
  5 34  1  0
  5 35  1  0
  5 36  1  0
  6 37  1  0
  6 38  1  0
  7 39  1  0
  7 40  1  0
  9 41  1  0
  9 42  1  0
 10 43  1  0
 10 44  1  0
 11 45  1  0
 12 46  1  0
 12 47  1  0
 17 48  1  0
 18 49  1  0
 21 50  1  0
 21 51  1  0
 21 52  1  0
 22 53  1  0
 23 54  1  0
 26 55  1  0
 26 56  1  0
 26 57  1  0
M  END
>  <UniqueID>  (22) 
22

>  <SMILES>  (22) 
CCN(CC)CCOCCNCc1nc(-c2ccc(OC)cc2)oc1C

>  <Energy>  (22) 
79.21757796585484

>  <Genealogy>  (22) 
CCN(CC)CCOCCNCc1nc(-c2ccc(OC)cc2)oc1C (3D coordinates assigned)
CCN(CC)CCOCCNCc1nc(-c2ccc(OC)cc2)oc1C (optimized conformer: 79.21757796585484 kcal/mol)

>  <smiles>  (22) 
CCN(CC)CCOCCNCc1nc(-c2ccc(OC)cc2)oc1C

>  <score_type>  (22) 
oracle

>  <origin>  (22) 
adg

>  <m_score__min__energy>  (22) 
-6.2999999999999998

>  <m_primary>  (22) 
energy

$$$$
22:0
     RDKit          3D

 52 55  0  0  0  0  0  0  0  0999 V2000
   57.5971   33.8245   43.2349 H   0  0  0  0  0  0  0  0  0  0  0  0
   57.9740   33.7110   44.2620 C   0  0  0  0  0  0  0  0  0  0  0  0
   58.6710   34.6150   44.8810 N   0  0  0  0  0  0  0  0  0  0  0  0
   58.9350   34.0910   46.1770 C   0  0  0  0  0  0  0  0  0  0  0  0
   59.5520   34.7630   47.1810 N   0  0  0  0  0  0  0  0  0  0  0  0
   59.6430   34.1900   48.4170 C   0  0  0  0  0  0  0  0  0  0  0  0
   60.1740   34.7142   49.2252 H   0  0  0  0  0  0  0  0  0  0  0  0
   59.0600   32.9300   48.6630 C   0  0  0  0  0  0  0  0  0  0  0  0
   59.1212   32.4797   49.6647 H   0  0  0  0  0  0  0  0  0  0  0  0
   58.4010   32.2520   47.6250 C   0  0  0  0  0  0  0  0  0  0  0  0
   57.9095   31.2838   47.8011 H   0  0  0  0  0  0  0  0  0  0  0  0
   58.3900   32.8470   46.3620 C   0  0  0  0  0  0  0  0  0  0  0  0
   57.7460   32.5170   45.0920 C   0  0  0  0  0  0  0  0  0  0  0  0
   57.0830   31.4210   44.7020 C   0  0  0  0  0  0  0  0  0  0  0  0
   56.2661   31.5460   43.9760 H   0  0  0  0  0  0  0  0  0  0  0  0
   57.3740   30.0640   45.1790 C   0  0  0  0  0  0  0  0  0  0  0  0
   58.5430   29.7000   45.6730 O   0  0  0  0  0  0  0  0  0  0  0  0
   58.4490   28.4400   46.0400 C   0  0  0  0  0  0  0  0  0  0  0  0
   59.4440   27.6370   46.6100 C   0  0  0  0  0  0  0  0  0  0  0  0
   60.7570   28.1610   46.8930 N   0  0  0  0  0  0  0  0  0  0  0  0
   61.4120   27.8500   46.1420 H   0  0  0  0  0  0  0  0  0  0  0  0
   61.0980   27.7760   47.8050 H   0  0  0  0  0  0  0  0  0  0  0  0
   60.7060   29.6290   46.9570 C   0  0  0  0  0  0  0  0  0  0  0  0
   59.6855   29.9586   46.7121 H   0  0  0  0  0  0  0  0  0  0  0  0
   61.4386   30.0232   46.2374 H   0  0  0  0  0  0  0  0  0  0  0  0
   61.0790   30.1660   48.3520 C   0  0  0  0  0  0  0  0  0  0  0  0
   60.5259   31.0985   48.5378 H   0  0  0  0  0  0  0  0  0  0  0  0
   62.1635   30.3483   48.3780 H   0  0  0  0  0  0  0  0  0  0  0  0
   60.7400   29.1810   49.4120 N   0  0  0  0  0  0  0  0  0  0  0  0
   59.2730   29.0440   49.6030 C   0  0  0  0  0  0  0  0  0  0  0  0
   59.0523   28.0618   50.0464 H   0  0  0  0  0  0  0  0  0  0  0  0
   58.7693   29.1316   48.6290 H   0  0  0  0  0  0  0  0  0  0  0  0
   58.7700   30.1440   50.5320 C   0  0  0  0  0  0  0  0  0  0  0  0
   58.9118   29.8339   51.5778 H   0  0  0  0  0  0  0  0  0  0  0  0
   59.3345   31.0692   50.3441 H   0  0  0  0  0  0  0  0  0  0  0  0
   57.7009   30.3222   50.3441 H   0  0  0  0  0  0  0  0  0  0  0  0
   61.4360   29.5040   50.6800 C   0  0  0  0  0  0  0  0  0  0  0  0
   60.6871   29.6373   51.4745 H   0  0  0  0  0  0  0  0  0  0  0  0
   62.1185   28.6751   50.9191 H   0  0  0  0  0  0  0  0  0  0  0  0
   62.2630   30.7850   50.5570 C   0  0  0  0  0  0  0  0  0  0  0  0
   62.5065   31.1621   51.5612 H   0  0  0  0  0  0  0  0  0  0  0  0
   63.1932   30.5699   50.0106 H   0  0  0  0  0  0  0  0  0  0  0  0
   61.6841   31.5442   50.0106 H   0  0  0  0  0  0  0  0  0  0  0  0
   59.0930   26.3100   46.9490 C   0  0  0  0  0  0  0  0  0  0  0  0
   59.8410   25.6497   47.4122 H   0  0  0  0  0  0  0  0  0  0  0  0
   57.7890   25.8240   46.6980 C   0  0  0  0  0  0  0  0  0  0  0  0
   57.5336   24.7869   46.9611 H   0  0  0  0  0  0  0  0  0  0  0  0
   56.8160   26.6550   46.1150 C   0  0  0  0  0  0  0  0  0  0  0  0
   55.7989   26.2872   45.9142 H   0  0  0  0  0  0  0  0  0  0  0  0
   57.1860   27.9600   45.8010 C   0  0  0  0  0  0  0  0  0  0  0  0
   56.4810   29.0010   45.2540 C   0  0  0  0  0  0  0  0  0  0  0  0
   55.1440   28.9990   44.8770 O   0  0  0  0  0  0  0  0  0  0  0  0
  1  2  1  0
  2  3  2  0
  3  4  1  0
  4  5  2  0
  5  6  1  0
  6  7  1  0
  6  8  2  0
  8  9  1  0
  8 10  1  0
 10 11  1  0
 10 12  2  0
 12 13  1  0
 13 14  2  0
 14 15  1  0
 14 16  1  0
 16 17  1  0
 17 18  1  0
 18 19  2  0
 19 20  1  0
 20 21  1  0
 20 22  1  0
 20 23  1  0
 23 24  1  0
 23 25  1  0
 23 26  1  0
 26 27  1  0
 26 28  1  0
 26 29  1  0
 29 30  1  0
 30 31  1  0
 30 32  1  0
 30 33  1  0
 33 34  1  0
 33 35  1  0
 33 36  1  0
 29 37  1  0
 37 38  1  0
 37 39  1  0
 37 40  1  0
 40 41  1  0
 40 42  1  0
 40 43  1  0
 19 44  1  0
 44 45  1  0
 44 46  2  0
 46 47  1  0
 46 48  1  0
 48 49  1  0
 48 50  2  0
 50 51  1  0
 51 52  1  0
 13  2  1  0
 51 16  2  0
 12  4  1  0
 50 18  1  0
M  CHG  2  20   1  52  -1
M  END
>  <UniqueID>  (23) 
23

>  <SMILES>  (23) 
CCN(CC)CC[NH2+]c1cccc2c([O-])c(/C=C3/C=Nc4ncccc43)oc12

>  <Energy>  (23) 
132.59038650913007

>  <Genealogy>  (23) 
CCN(CC)CC[NH2+]c1cccc2c([O-])c(C=C3C=Nc4ncccc43)oc12 (protonated)
CCN(CC)CC[NH2+]c1cccc2c([O-])c(/C=C3/C=Nc4ncccc43)oc12 (cis-trans isomerization)
CCN(CC)CC[NH2+]c1cccc2c([O-])c(/C=C3/C=Nc4ncccc43)oc12 (3D coordinates assigned)
CCN(CC)CC[NH2+]c1cccc2c([O-])c(/C=C3/C=Nc4ncccc43)oc12 (nonaromatic ring conformer: 132.59038650913007 kcal/mol)

>  <smiles>  (23) 
CCN(CC)CCNc1cccc2c(O)c(C=C3C=Nc4ncccc43)oc12

>  <score_type>  (23) 
oracle

>  <origin>  (23) 
adg

>  <m_score__min__energy>  (23) 
-9.6500000000000004

>  <m_primary>  (23) 
energy

$$$$
24:0
     RDKit          3D

 60 61  0  0  0  0  0  0  0  0999 V2000
   61.0360   28.6780   44.8990 C   0  0  0  0  0  0  0  0  0  0  0  0
   60.7730   29.6130   46.0760 C   0  0  0  0  0  0  0  0  0  0  0  0
   60.1140   28.8940   47.1890 N   0  0  0  0  0  0  0  0  0  0  0  0
   60.3220   29.5270   48.5130 C   0  0  0  0  0  0  0  0  0  0  0  0
   58.9750   29.7490   49.1900 C   0  0  0  0  0  0  0  0  0  0  0  0
   60.4050   27.4410   47.1870 C   0  0  0  0  0  0  0  0  0  0  0  0
   59.4740   26.6070   48.0960 C   0  0  0  0  0  0  0  0  0  0  0  0
   58.2230   26.3710   47.4750 O   0  0  0  0  0  0  0  0  0  0  0  0
   58.3150   26.4680   46.0650 C   0  0  0  0  0  0  0  0  0  0  0  0
   56.9160   26.5170   45.4460 C   0  0  0  0  0  0  0  0  0  0  0  0
   56.3380   27.8480   45.5930 N   0  0  0  0  0  0  0  0  0  0  0  0
   57.0140   29.0970   45.3790 C   0  0  0  0  0  0  0  0  0  0  0  0
   57.1430   29.8750   46.3610 O   0  0  0  0  0  0  0  0  0  0  0  0
   57.4830   29.5370   44.0060 C   0  0  1  0  0  0  0  0  0  0  0  0
   56.2860   29.9870   43.1520 C   0  0  0  0  0  0  0  0  0  0  0  0
   56.7600   30.8500   41.9890 C   0  0  0  0  0  0  0  0  0  0  0  0
   57.4270   32.1400   42.4980 C   0  0  0  0  0  0  0  0  0  0  0  0
   58.1550   31.9860   43.7850 N   0  0  0  0  0  0  0  0  0  0  0  0
   57.4750   32.6220   44.9320 C   0  0  0  0  0  0  0  0  0  0  0  0
   58.4810   33.0320   45.9760 C   0  0  0  0  0  0  0  0  0  0  0  0
   58.2980   32.6530   47.3150 C   0  0  0  0  0  0  0  0  0  0  0  0
   59.2350   33.0170   48.2860 C   0  0  0  0  0  0  0  0  0  0  0  0
   60.3620   33.7650   47.9280 C   0  0  0  0  0  0  0  0  0  0  0  0
   61.5380   34.2180   49.1460 Cl  0  0  0  0  0  0  0  0  0  0  0  0
   60.5500   34.1490   46.5950 C   0  0  0  0  0  0  0  0  0  0  0  0
   59.6150   33.7830   45.6210 C   0  0  0  0  0  0  0  0  0  0  0  0
   58.6140   30.6070   44.0660 C   0  0  0  0  0  0  0  0  0  0  0  0
   61.3158   27.6833   45.2763 H   0  0  0  0  0  0  0  0  0  0  0  0
   60.1263   28.5952   44.2861 H   0  0  0  0  0  0  0  0  0  0  0  0
   61.8555   29.0815   44.2861 H   0  0  0  0  0  0  0  0  0  0  0  0
   61.7302   30.0235   46.4299 H   0  0  0  0  0  0  0  0  0  0  0  0
   60.1075   30.4214   45.7389 H   0  0  0  0  0  0  0  0  0  0  0  0
   60.9429   28.8698   49.1396 H   0  0  0  0  0  0  0  0  0  0  0  0
   60.8283   30.4945   48.3802 H   0  0  0  0  0  0  0  0  0  0  0  0
   59.1055   29.7275   50.2820 H   0  0  0  0  0  0  0  0  0  0  0  0
   58.5696   30.7261   48.8883 H   0  0  0  0  0  0  0  0  0  0  0  0
   58.2775   28.9537   48.8883 H   0  0  0  0  0  0  0  0  0  0  0  0
   60.3034   27.0703   46.1563 H   0  0  0  0  0  0  0  0  0  0  0  0
   61.4239   27.3222   47.5843 H   0  0  0  0  0  0  0  0  0  0  0  0
   59.9548   25.6413   48.3113 H   0  0  0  0  0  0  0  0  0  0  0  0
   59.2994   27.1710   49.0241 H   0  0  0  0  0  0  0  0  0  0  0  0
   58.8624   27.3842   45.7988 H   0  0  0  0  0  0  0  0  0  0  0  0
   58.8477   25.5866   45.6786 H   0  0  0  0  0  0  0  0  0  0  0  0
   56.9845   26.2683   44.3767 H   0  0  0  0  0  0  0  0  0  0  0  0
   56.2724   25.7908   45.9641 H   0  0  0  0  0  0  0  0  0  0  0  0
   57.9405   28.6657   43.5145 H   0  0  0  0  0  0  0  0  0  0  0  0
   55.7677   29.1003   42.7581 H   0  0  0  0  0  0  0  0  0  0  0  0
   55.6011   30.5768   43.7790 H   0  0  0  0  0  0  0  0  0  0  0  0
   57.4868   30.2807   41.3910 H   0  0  0  0  0  0  0  0  0  0  0  0
   55.8883   31.1234   41.3764 H   0  0  0  0  0  0  0  0  0  0  0  0
   58.1431   32.4813   41.7359 H   0  0  0  0  0  0  0  0  0  0  0  0
   56.6177   32.8628   42.6786 H   0  0  0  0  0  0  0  0  0  0  0  0
   56.9311   33.5122   44.5831 H   0  0  0  0  0  0  0  0  0  0  0  0
   56.7730   31.9008   45.3760 H   0  0  0  0  0  0  0  0  0  0  0  0
   57.4126   32.0665   47.6016 H   0  0  0  0  0  0  0  0  0  0  0  0
   59.0863   32.7150   49.3332 H   0  0  0  0  0  0  0  0  0  0  0  0
   61.4343   34.7394   46.3130 H   0  0  0  0  0  0  0  0  0  0  0  0
   59.7676   34.0838   44.5740 H   0  0  0  0  0  0  0  0  0  0  0  0
   59.3818   30.3404   43.3248 H   0  0  0  0  0  0  0  0  0  0  0  0
   58.9999   30.6042   45.0961 H   0  0  0  0  0  0  0  0  0  0  0  0
  1  2  1  0
  2  3  1  0
  3  4  1  0
  4  5  1  0
  3  6  1  0
  6  7  1  0
  7  8  1  0
  8  9  1  0
  9 10  1  0
 10 11  1  0
 11 12  1  0
 12 13  2  0
 12 14  1  0
 14 15  1  0
 15 16  1  0
 16 17  1  0
 17 18  1  0
 18 19  1  0
 19 20  1  0
 20 21  2  0
 21 22  1  0
 22 23  2  0
 23 24  1  0
 23 25  1  0
 25 26  2  0
 18 27  1  0
 27 14  1  0
 26 20  1  0
  1 28  1  0
  1 29  1  0
  1 30  1  0
  2 31  1  0
  2 32  1  0
  4 33  1  0
  4 34  1  0
  5 35  1  0
  5 36  1  0
  5 37  1  0
  6 38  1  0
  6 39  1  0
  7 40  1  0
  7 41  1  0
  9 42  1  0
  9 43  1  0
 10 44  1  0
 10 45  1  0
 14 46  1  6
 15 47  1  0
 15 48  1  0
 16 49  1  0
 16 50  1  0
 17 51  1  0
 17 52  1  0
 19 53  1  0
 19 54  1  0
 21 55  1  0
 22 56  1  0
 25 57  1  0
 26 58  1  0
 27 59  1  0
 27 60  1  0
M  CHG  1  11  -1
M  END
>  <UniqueID>  (24) 
24

>  <SMILES>  (24) 
CCN(CC)CCOCC[N-]C(=O)[C@H]1CCCN(Cc2ccc(Cl)cc2)C1

>  <Energy>  (24) 
70.3423952051822

>  <Genealogy>  (24) 
CCN(CC)CCOCC[N-]C(=O)C1CCCN(Cc2ccc(Cl)cc2)C1 (protonated)
CCN(CC)CCOCC[N-]C(=O)[C@H]1CCCN(Cc2ccc(Cl)cc2)C1 (chirality)
CCN(CC)CCOCC[N-]C(=O)[C@H]1CCCN(Cc2ccc(Cl)cc2)C1 (3D coordinates assigned)
CCN(CC)CCOCC[N-]C(=O)[C@H]1CCCN(Cc2ccc(Cl)cc2)C1 (nonaromatic ring conformer: 70.3423952051822 kcal/mol)

>  <smiles>  (24) 
CCN(CC)CCOCCNC(=O)C1CCCN(Cc2ccc(Cl)cc2)C1

>  <score_type>  (24) 
oracle

>  <origin>  (24) 
adg

>  <m_score__min__energy>  (24) 
-10.34

>  <m_primary>  (24) 
energy

$$$$
