0:0
     RDKit          3D

 50 51  0  0  0  0  0  0  0  0999 V2000
   56.9170   24.2360   43.4060 C   0  0  0  0  0  0  0  0  0  0  0  0
   56.0280   23.3880   44.3150 C   0  0  0  0  0  0  0  0  0  0  0  0
   54.5620   23.8250   44.2200 C   0  0  0  0  0  0  0  0  0  0  0  0
   54.1280   24.5620   45.4910 C   0  0  0  0  0  0  0  0  0  0  0  0
   54.8170   25.8470   45.5950 N   0  0  0  0  0  0  0  0  0  0  0  0
   56.0230   26.0190   46.3510 C   0  0  0  0  0  0  0  0  0  0  0  0
   56.5390   25.0380   46.9530 O   0  0  0  0  0  0  0  0  0  0  0  0
   56.6530   27.3060   46.3800 N   0  0  0  0  0  0  0  0  0  0  0  0
   57.9950   27.6110   45.9660 C   0  0  0  0  0  0  0  0  0  0  0  0
   59.0820   26.8000   46.3470 C   0  0  0  0  0  0  0  0  0  0  0  0
   60.3810   27.1240   45.9490 C   0  0  0  0  0  0  0  0  0  0  0  0
   60.6140   28.2660   45.1830 C   0  0  0  0  0  0  0  0  0  0  0  0
   59.5510   29.0960   44.8210 C   0  0  0  0  0  0  0  0  0  0  0  0
   58.2380   28.7830   45.2140 C   0  0  0  0  0  0  0  0  0  0  0  0
   57.1040   29.7040   44.8280 C   0  0  0  0  0  0  0  0  0  0  0  0
   57.4840   31.1210   45.0160 N   0  0  0  0  0  0  0  0  0  0  0  0
   58.2080   31.3580   46.2900 C   0  0  0  0  0  0  0  0  0  0  0  0
   57.8470   32.6730   47.0190 C   0  0  0  0  0  0  0  0  0  0  0  0
   57.5610   33.8960   46.1160 C   0  0  0  0  0  0  0  0  0  0  0  0
   58.4770   34.0160   44.8850 C   0  0  0  0  0  0  0  0  0  0  0  0
   58.0420   33.1840   43.6490 C   0  0  0  0  0  0  0  0  0  0  0  0
   58.1400   31.6500   43.7990 C   0  0  0  0  0  0  0  0  0  0  0  0
   57.5766   24.8652   44.0216 H   0  0  0  0  0  0  0  0  0  0  0  0
   57.5270   23.5767   42.7711 H   0  0  0  0  0  0  0  0  0  0  0  0
   56.2872   24.8765   42.7711 H   0  0  0  0  0  0  0  0  0  0  0  0
   56.1084   22.3333   44.0131 H   0  0  0  0  0  0  0  0  0  0  0  0
   56.3646   23.5206   45.3538 H   0  0  0  0  0  0  0  0  0  0  0  0
   54.4412   24.4951   43.3561 H   0  0  0  0  0  0  0  0  0  0  0  0
   53.9350   22.9289   44.1018 H   0  0  0  0  0  0  0  0  0  0  0  0
   53.0422   24.7346   45.4571 H   0  0  0  0  0  0  0  0  0  0  0  0
   54.3857   23.9470   46.3658 H   0  0  0  0  0  0  0  0  0  0  0  0
   54.3860   26.6850   45.1430 H   0  0  0  0  0  0  0  0  0  0  0  0
   58.9065   25.9052   46.9623 H   0  0  0  0  0  0  0  0  0  0  0  0
   61.2218   26.4773   46.2402 H   0  0  0  0  0  0  0  0  0  0  0  0
   61.6371   28.5133   44.8634 H   0  0  0  0  0  0  0  0  0  0  0  0
   59.7422   30.0003   44.2246 H   0  0  0  0  0  0  0  0  0  0  0  0
   56.8491   29.5372   43.7710 H   0  0  0  0  0  0  0  0  0  0  0  0
   56.2398   29.4847   45.4723 H   0  0  0  0  0  0  0  0  0  0  0  0
   57.9856   30.5211   46.9683 H   0  0  0  0  0  0  0  0  0  0  0  0
   59.2725   31.4388   46.0250 H   0  0  0  0  0  0  0  0  0  0  0  0
   56.9484   32.4854   47.6250 H   0  0  0  0  0  0  0  0  0  0  0  0
   58.7390   32.9405   47.6044 H   0  0  0  0  0  0  0  0  0  0  0  0
   56.5213   33.8259   45.7637 H   0  0  0  0  0  0  0  0  0  0  0  0
   57.7506   34.7875   46.7319 H   0  0  0  0  0  0  0  0  0  0  0  0
   58.5091   35.0745   44.5875 H   0  0  0  0  0  0  0  0  0  0  0  0
   59.4535   33.6141   45.1930 H   0  0  0  0  0  0  0  0  0  0  0  0
   56.9943   33.4344   43.4261 H   0  0  0  0  0  0  0  0  0  0  0  0
   58.7476   33.4501   42.8482 H   0  0  0  0  0  0  0  0  0  0  0  0
   57.6667   31.1857   42.9213 H   0  0  0  0  0  0  0  0  0  0  0  0
   59.2094   31.4060   43.8822 H   0  0  0  0  0  0  0  0  0  0  0  0
  1  2  1  0
  2  3  1  0
  3  4  1  0
  4  5  1  0
  5  6  1  0
  6  7  2  0
  6  8  1  0
  8  9  1  0
  9 10  2  0
 10 11  1  0
 11 12  2  0
 12 13  1  0
 13 14  2  0
 14 15  1  0
 15 16  1  0
 16 17  1  0
 17 18  1  0
 18 19  1  0
 19 20  1  0
 20 21  1  0
 21 22  1  0
 14  9  1  0
 22 16  1  0
  1 23  1  0
  1 24  1  0
  1 25  1  0
  2 26  1  0
  2 27  1  0
  3 28  1  0
  3 29  1  0
  4 30  1  0
  4 31  1  0
  5 32  1  0
 10 33  1  0
 11 34  1  0
 12 35  1  0
 13 36  1  0
 15 37  1  0
 15 38  1  0
 17 39  1  0
 17 40  1  0
 18 41  1  0
 18 42  1  0
 19 43  1  0
 19 44  1  0
 20 45  1  0
 20 46  1  0
 21 47  1  0
 21 48  1  0
 22 49  1  0
 22 50  1  0
M  CHG  1   8  -1
M  END
>  <UniqueID>  (1) 
1

>  <SMILES>  (1) 
CCCCNC(=O)[N-]c1ccccc1CN1CCCCCC1

>  <Energy>  (1) 
57.190504899680775

>  <Genealogy>  (1) 
CCCCNC(=O)[N-]c1ccccc1CN1CCCCCC1 (protonated)
CCCCNC(=O)[N-]c1ccccc1CN1CCCCCC1 (3D coordinates assigned)
CCCCNC(=O)[N-]c1ccccc1CN1CCCCCC1 (nonaromatic ring conformer: 57.190504899680775 kcal/mol)

>  <smiles>  (1) 
CCCCNC(=O)Nc1ccccc1CN1CCCCCC1

>  <score_type>  (1) 
oracle

>  <origin>  (1) 
adg

>  <m_score__min__energy>  (1) 
-7.4900000000000002

>  <m_primary>  (1) 
energy

$$$$
1:0
     RDKit          3D

 56 59  0  0  0  0  0  0  0  0999 V2000
   62.7730   33.8590   47.9000 C   0  0  0  0  0  0  0  0  0  0  0  0
   62.0030   33.7460   49.2110 C   0  0  0  0  0  0  0  0  0  0  0  0
   60.6000   33.8860   48.9880 O   0  0  0  0  0  0  0  0  0  0  0  0
   59.8790   33.3090   47.9280 C   0  0  0  0  0  0  0  0  0  0  0  0
   58.7480   33.9140   47.3550 C   0  0  0  0  0  0  0  0  0  0  0  0
   58.0680   33.2900   46.3080 C   0  0  0  0  0  0  0  0  0  0  0  0
   58.4990   32.0530   45.8080 C   0  0  0  0  0  0  0  0  0  0  0  0
   57.7440   31.4530   44.6940 C   0  0  0  0  0  0  0  0  0  0  0  0
   58.0150   31.8170   43.3650 C   0  0  0  0  0  0  0  0  0  0  0  0
   57.2720   31.2400   42.3330 C   0  0  0  0  0  0  0  0  0  0  0  0
   56.2620   30.3230   42.6330 C   0  0  0  0  0  0  0  0  0  0  0  0
   56.0070   29.9980   43.9700 C   0  0  0  0  0  0  0  0  0  0  0  0
   56.7450   30.5660   44.9610 N   0  0  0  0  0  0  0  0  0  0  0  0
   59.6260   31.4210   46.3950 C   0  0  0  0  0  0  0  0  0  0  0  0
   60.0950   30.0380   45.9910 C   0  0  0  0  0  0  0  0  0  0  0  0
   58.9880   29.0660   46.1010 N   0  0  0  0  0  0  0  0  0  0  0  0
   58.9210   28.1950   44.9090 C   0  0  0  0  0  0  0  0  0  0  0  0
   57.6280   27.3560   44.9240 C   0  0  0  0  0  0  0  0  0  0  0  0
   57.0290   27.2190   46.3350 C   0  0  0  0  0  0  0  0  0  0  0  0
   56.1610   26.0850   46.3650 O   0  0  0  0  0  0  0  0  0  0  0  0
   56.3470   24.9420   45.5810 C   0  0  0  0  0  0  0  0  0  0  0  0
   55.2640   24.4160   44.8710 C   0  0  0  0  0  0  0  0  0  0  0  0
   55.4460   23.2740   44.0870 C   0  0  0  0  0  0  0  0  0  0  0  0
   56.7040   22.6700   44.0210 C   0  0  0  0  0  0  0  0  0  0  0  0
   56.9500   21.2360   43.0420 Cl  0  0  0  0  0  0  0  0  0  0  0  0
   57.7630   23.2220   44.7450 C   0  0  0  0  0  0  0  0  0  0  0  0
   57.5640   24.3340   45.5020 N   0  0  0  0  0  0  0  0  0  0  0  0
   58.1460   27.0680   47.3780 C   0  0  0  0  0  0  0  0  0  0  0  0
   59.1460   28.2460   47.3250 C   0  0  0  0  0  0  0  0  0  0  0  0
   60.3050   32.0680   47.4430 C   0  0  0  0  0  0  0  0  0  0  0  0
   63.8405   34.0157   48.1141 H   0  0  0  0  0  0  0  0  0  0  0  0
   62.6474   32.9328   47.3200 H   0  0  0  0  0  0  0  0  0  0  0  0
   62.3866   34.7101   47.3200 H   0  0  0  0  0  0  0  0  0  0  0  0
   62.2002   32.7621   49.6615 H   0  0  0  0  0  0  0  0  0  0  0  0
   62.3349   34.5491   49.8854 H   0  0  0  0  0  0  0  0  0  0  0  0
   58.3963   34.8851   47.7337 H   0  0  0  0  0  0  0  0  0  0  0  0
   57.1831   33.7746   45.8697 H   0  0  0  0  0  0  0  0  0  0  0  0
   58.8044   32.5491   43.1393 H   0  0  0  0  0  0  0  0  0  0  0  0
   57.4816   31.5069   41.2867 H   0  0  0  0  0  0  0  0  0  0  0  0
   55.6732   29.8612   41.8267 H   0  0  0  0  0  0  0  0  0  0  0  0
   55.2093   29.2828   44.2195 H   0  0  0  0  0  0  0  0  0  0  0  0
   60.4510   30.0656   44.9506 H   0  0  0  0  0  0  0  0  0  0  0  0
   60.9101   29.7278   46.6614 H   0  0  0  0  0  0  0  0  0  0  0  0
   58.9367   28.8193   44.0034 H   0  0  0  0  0  0  0  0  0  0  0  0
   59.7857   27.5152   44.9167 H   0  0  0  0  0  0  0  0  0  0  0  0
   56.8862   27.8399   44.2716 H   0  0  0  0  0  0  0  0  0  0  0  0
   57.8816   26.3460   44.5697 H   0  0  0  0  0  0  0  0  0  0  0  0
   56.4550   28.1250   46.5794 H   0  0  0  0  0  0  0  0  0  0  0  0
   54.2765   24.8972   44.9290 H   0  0  0  0  0  0  0  0  0  0  0  0
   54.6011   22.8516   43.5233 H   0  0  0  0  0  0  0  0  0  0  0  0
   58.7589   22.7569   44.7029 H   0  0  0  0  0  0  0  0  0  0  0  0
   57.6942   27.0296   48.3802 H   0  0  0  0  0  0  0  0  0  0  0  0
   58.6971   26.1422   47.1563 H   0  0  0  0  0  0  0  0  0  0  0  0
   58.9831   28.8876   48.2036 H   0  0  0  0  0  0  0  0  0  0  0  0
   60.1617   27.8238   47.3172 H   0  0  0  0  0  0  0  0  0  0  0  0
   61.1884   31.5888   47.8901 H   0  0  0  0  0  0  0  0  0  0  0  0
  1  2  1  0
  2  3  1  0
  3  4  1  0
  4  5  2  0
  5  6  1  0
  6  7  2  0
  7  8  1  0
  8  9  2  0
  9 10  1  0
 10 11  2  0
 11 12  1  0
 12 13  2  0
  7 14  1  0
 14 15  1  0
 15 16  1  0
 16 17  1  0
 17 18  1  0
 18 19  1  0
 19 20  1  0
 20 21  1  0
 21 22  2  0
 22 23  1  0
 23 24  2  0
 24 25  1  0
 24 26  1  0
 26 27  2  0
 19 28  1  0
 28 29  1  0
 14 30  2  0
 30  4  1  0
 13  8  1  0
 29 16  1  0
 27 21  1  0
  1 31  1  0
  1 32  1  0
  1 33  1  0
  2 34  1  0
  2 35  1  0
  5 36  1  0
  6 37  1  0
  9 38  1  0
 10 39  1  0
 11 40  1  0
 12 41  1  0
 15 42  1  0
 15 43  1  0
 17 44  1  0
 17 45  1  0
 18 46  1  0
 18 47  1  0
 19 48  1  0
 22 49  1  0
 23 50  1  0
 26 51  1  0
 28 52  1  0
 28 53  1  0
 29 54  1  0
 29 55  1  0
 30 56  1  0
M  END
>  <UniqueID>  (2) 
2

>  <SMILES>  (2) 
CCOc1ccc(-c2ccccn2)c(CN2CCC(Oc3ccc(Cl)cn3)CC2)c1

>  <Energy>  (2) 
70.6490156925704

>  <Genealogy>  (2) 
CCOc1ccc(-c2ccccn2)c(CN2CCC(Oc3ccc(Cl)cn3)CC2)c1 (3D coordinates assigned)
CCOc1ccc(-c2ccccn2)c(CN2CCC(Oc3ccc(Cl)cn3)CC2)c1 (nonaromatic ring conformer: 70.6490156925704 kcal/mol)

>  <smiles>  (2) 
CCOc1ccc(-c2ccccn2)c(CN2CCC(Oc3ccc(Cl)cn3)CC2)c1

>  <score_type>  (2) 
oracle

>  <origin>  (2) 
adg

>  <m_score__min__energy>  (2) 
-9.3100000000000005

>  <m_primary>  (2) 
energy

$$$$
2:0
     RDKit          3D

 45 48  0  0  0  0  0  0  0  0999 V2000
   55.2650   28.6550   45.6090 H   0  0  0  0  0  0  0  0  0  0  0  0
   55.1460   29.3850   44.8710 N   0  0  0  0  0  0  0  0  0  0  0  0
   56.2440   29.7840   44.0530 C   0  0  0  0  0  0  0  0  0  0  0  0
   56.1730   29.6430   42.8030 O   0  0  0  0  0  0  0  0  0  0  0  0
   57.4280   30.4290   44.6590 C   0  0  0  0  0  0  0  0  0  0  0  0
   57.3520   31.8140   44.8720 C   0  0  0  0  0  0  0  0  0  0  0  0
   56.5418   32.3918   44.4032 H   0  0  0  0  0  0  0  0  0  0  0  0
   58.2630   32.4480   45.6470 N   0  0  0  0  0  0  0  0  0  0  0  0
   59.2820   31.7860   46.2480 C   0  0  0  0  0  0  0  0  0  0  0  0
   60.1750   32.4920   47.0610 C   0  0  0  0  0  0  0  0  0  0  0  0
   60.0401   33.5739   47.2067 H   0  0  0  0  0  0  0  0  0  0  0  0
   61.2420   31.8330   47.6930 C   0  0  0  0  0  0  0  0  0  0  0  0
   62.1880   32.5850   48.5580 C   0  0  0  0  0  0  0  0  0  0  0  0
   61.7140   33.5210   49.4930 C   0  0  0  0  0  0  0  0  0  0  0  0
   60.6339   33.7042   49.5924 H   0  0  0  0  0  0  0  0  0  0  0  0
   62.6210   34.2180   50.2960 C   0  0  0  0  0  0  0  0  0  0  0  0
   62.2531   34.9530   51.0271 H   0  0  0  0  0  0  0  0  0  0  0  0
   63.9570   33.9910   50.1770 N   0  0  0  0  0  0  0  0  0  0  0  0
   64.6210   34.5200   50.7840 H   0  0  0  0  0  0  0  0  0  0  0  0
   64.4440   33.0910   49.2810 C   0  0  0  0  0  0  0  0  0  0  0  0
   65.5290   32.9272   49.2043 H   0  0  0  0  0  0  0  0  0  0  0  0
   63.5730   32.3740   48.4580 C   0  0  0  0  0  0  0  0  0  0  0  0
   63.9700   31.6469   47.7343 H   0  0  0  0  0  0  0  0  0  0  0  0
   61.4020   30.4520   47.4940 C   0  0  0  0  0  0  0  0  0  0  0  0
   62.2325   29.9240   47.9854 H   0  0  0  0  0  0  0  0  0  0  0  0
   60.5180   29.7420   46.6790 C   0  0  0  0  0  0  0  0  0  0  0  0
   60.6638   28.6622   46.5284 H   0  0  0  0  0  0  0  0  0  0  0  0
   59.4400   30.3960   46.0470 C   0  0  0  0  0  0  0  0  0  0  0  0
   58.5430   29.7120   45.1890 C   0  0  0  0  0  0  0  0  0  0  0  0
   58.8050   28.4590   44.9010 N   0  0  0  0  0  0  0  0  0  0  0  0
   58.2820   27.2550   45.4780 C   0  0  0  0  0  0  0  0  0  0  0  0
   59.1110   26.3820   46.2010 C   0  0  0  0  0  0  0  0  0  0  0  0
   60.1865   26.5946   46.2911 H   0  0  0  0  0  0  0  0  0  0  0  0
   58.5720   25.2440   46.8060 C   0  0  0  0  0  0  0  0  0  0  0  0
   59.2282   24.5500   47.3516 H   0  0  0  0  0  0  0  0  0  0  0  0
   57.2020   24.9850   46.7200 C   0  0  0  0  0  0  0  0  0  0  0  0
   56.7842   24.0823   47.1896 H   0  0  0  0  0  0  0  0  0  0  0  0
   56.3540   25.8760   46.0340 C   0  0  0  0  0  0  0  0  0  0  0  0
   54.9700   25.6710   45.9320 O   0  0  0  0  0  0  0  0  0  0  0  0
   54.3690   24.5010   45.3880 C   0  0  0  0  0  0  0  0  0  0  0  0
   54.0331   23.8470   46.2062 H   0  0  0  0  0  0  0  0  0  0  0  0
   53.5058   24.7863   44.7687 H   0  0  0  0  0  0  0  0  0  0  0  0
   55.1036   23.9655   44.7687 H   0  0  0  0  0  0  0  0  0  0  0  0
   56.9030   27.0150   45.4300 C   0  0  0  0  0  0  0  0  0  0  0  0
   56.2441   27.7280   44.9128 H   0  0  0  0  0  0  0  0  0  0  0  0
  1  2  1  0
  2  3  1  0
  3  4  2  0
  3  5  1  0
  5  6  2  0
  6  7  1  0
  6  8  1  0
  8  9  1  0
  9 10  2  0
 10 11  1  0
 10 12  1  0
 12 13  1  0
 13 14  2  0
 14 15  1  0
 14 16  1  0
 16 17  1  0
 16 18  2  0
 18 19  1  0
 18 20  1  0
 20 21  1  0
 20 22  2  0
 22 23  1  0
 12 24  2  0
 24 25  1  0
 24 26  1  0
 26 27  1  0
 26 28  2  0
 28 29  1  0
 29 30  2  0
 30 31  1  0
 31 32  2  0
 32 33  1  0
 32 34  1  0
 34 35  1  0
 34 36  2  0
 36 37  1  0
 36 38  1  0
 38 39  1  0
 39 40  1  0
 40 41  1  0
 40 42  1  0
 40 43  1  0
 38 44  2  0
 44 45  1  0
 29  5  1  0
 44 31  1  0
 28  9  1  0
 22 13  1  0
M  CHG  3   2  -1   8  -1  18   1
M  END
>  <UniqueID>  (3) 
3

>  <SMILES>  (3) 
COc1cccc(/N=c2\c(C([NH-])=O)c[n-]c3cc(-c4cc[nH+]cc4)ccc23)c1

>  <Energy>  (3) 
80.4969038362623

>  <Genealogy>  (3) 
COc1cccc(N=c2c(C([NH-])=O)c[n-]c3cc(-c4cc[nH+]cc4)ccc23)c1 (protonated)
COc1cccc(/N=c2\c(C([NH-])=O)c[n-]c3cc(-c4cc[nH+]cc4)ccc23)c1 (cis-trans isomerization)
COc1cccc(/N=c2\c(C([NH-])=O)c[n-]c3cc(-c4cc[nH+]cc4)ccc23)c1 (3D coordinates assigned)
COc1cccc(/N=c2\c(C([NH-])=O)c[n-]c3cc(-c4cc[nH+]cc4)ccc23)c1 (optimized conformer: 80.4969038362623 kcal/mol)

>  <smiles>  (3) 
COc1cccc(N=c2c(C(N)=O)c[nH]c3cc(-c4ccncc4)ccc23)c1

>  <score_type>  (3) 
oracle

>  <origin>  (3) 
adg

>  <m_score__min__energy>  (3) 
-11.41

>  <m_primary>  (3) 
energy

$$$$
3:0
     RDKit          3D

 58 61  0  0  0  0  0  0  0  0999 V2000
   58.0376   34.7466   47.9127 H   0  0  0  0  0  0  0  0  0  0  0  0
   58.6780   34.3230   47.1250 C   0  0  0  0  0  0  0  0  0  0  0  0
   59.9170   34.8130   46.9710 C   0  0  0  0  0  0  0  0  0  0  0  0
   60.0448   35.7332   46.3819 H   0  0  0  0  0  0  0  0  0  0  0  0
   61.1230   34.1780   47.5540 C   0  0  0  0  0  0  0  0  0  0  0  0
   62.1390   33.7410   46.6910 C   0  0  0  0  0  0  0  0  0  0  0  0
   62.0239   33.8694   45.6046 H   0  0  0  0  0  0  0  0  0  0  0  0
   63.2960   33.1440   47.1990 C   0  0  0  0  0  0  0  0  0  0  0  0
   64.0783   32.7960   46.5084 H   0  0  0  0  0  0  0  0  0  0  0  0
   63.4680   32.9850   48.5790 C   0  0  0  0  0  0  0  0  0  0  0  0
   64.6450   32.3760   49.0380 O   0  0  0  0  0  0  0  0  0  0  0  0
   65.4430   32.8750   50.1070 C   0  0  0  0  0  0  0  0  0  0  0  0
   64.9885   32.5908   51.0675 H   0  0  0  0  0  0  0  0  0  0  0  0
   66.4546   32.4483   50.0395 H   0  0  0  0  0  0  0  0  0  0  0  0
   65.5022   33.9713   50.0395 H   0  0  0  0  0  0  0  0  0  0  0  0
   62.4620   33.4400   49.4510 C   0  0  0  0  0  0  0  0  0  0  0  0
   62.5890   33.3276   50.5379 H   0  0  0  0  0  0  0  0  0  0  0  0
   61.3020   34.0340   48.9450 C   0  0  0  0  0  0  0  0  0  0  0  0
   60.5244   34.3911   49.6362 H   0  0  0  0  0  0  0  0  0  0  0  0
   58.1390   33.2400   46.2820 C   0  0  0  0  0  0  0  0  0  0  0  0
   57.1850   33.4290   45.3480 N   0  0  0  0  0  0  0  0  0  0  0  0
   56.9590   32.2530   44.7820 N   0  0  0  0  0  0  0  0  0  0  0  0
   57.7370   31.3270   45.3210 N   0  0  0  0  0  0  0  0  0  0  0  0
   57.7450   29.9500   44.9310 C   0  0  0  0  0  0  0  0  0  0  0  0
   57.5010   29.6010   43.6400 N   0  0  0  0  0  0  0  0  0  0  0  0
   57.5020   28.3000   43.2540 C   0  0  0  0  0  0  0  0  0  0  0  0
   57.3054   28.0373   42.2041 H   0  0  0  0  0  0  0  0  0  0  0  0
   57.7540   27.2900   44.1950 C   0  0  0  0  0  0  0  0  0  0  0  0
   57.7710   25.9330   43.8560 C   0  0  0  0  0  0  0  0  0  0  0  0
   57.5570   25.5850   42.6610 O   0  0  0  0  0  0  0  0  0  0  0  0
   58.0250   24.9890   44.8190 N   0  0  0  0  0  0  0  0  0  0  0  0
   58.0670   23.5540   44.4620 C   0  0  0  0  0  0  0  0  0  0  0  0
   58.2799   22.9669   45.3675 H   0  0  0  0  0  0  0  0  0  0  0  0
   58.8537   23.4101   43.7067 H   0  0  0  0  0  0  0  0  0  0  0  0
   56.7330   23.0810   43.8630 C   0  0  0  0  0  0  0  0  0  0  0  0
   56.7150   21.9812   43.8657 H   0  0  0  0  0  0  0  0  0  0  0  0
   56.6631   23.4833   42.8416 H   0  0  0  0  0  0  0  0  0  0  0  0
   55.5270   23.5930   44.6480 C   0  0  0  0  0  0  0  0  0  0  0  0
   55.7281   23.5076   45.7261 H   0  0  0  0  0  0  0  0  0  0  0  0
   55.3431   24.6468   44.3916 H   0  0  0  0  0  0  0  0  0  0  0  0
   54.6412   22.9933   44.3916 H   0  0  0  0  0  0  0  0  0  0  0  0
   58.2700   25.3750   46.1150 C   0  0  0  0  0  0  0  0  0  0  0  0
   58.5080   24.4980   46.9930 O   0  0  0  0  0  0  0  0  0  0  0  0
   58.2560   26.7040   46.4710 N   0  0  0  0  0  0  0  0  0  0  0  0
   58.5490   27.0880   47.8710 C   0  0  0  0  0  0  0  0  0  0  0  0
   57.8183   27.8439   48.1945 H   0  0  0  0  0  0  0  0  0  0  0  0
   58.4831   26.1858   48.4969 H   0  0  0  0  0  0  0  0  0  0  0  0
   59.9630   27.6690   48.0120 C   0  0  0  0  0  0  0  0  0  0  0  0
   60.4809   27.1427   48.8274 H   0  0  0  0  0  0  0  0  0  0  0  0
   60.4783   27.5312   47.0500 H   0  0  0  0  0  0  0  0  0  0  0  0
   59.9530   29.1650   48.3230 C   0  0  0  0  0  0  0  0  0  0  0  0
   59.9520   29.3129   49.4130 H   0  0  0  0  0  0  0  0  0  0  0  0
   60.8480   29.6355   47.8899 H   0  0  0  0  0  0  0  0  0  0  0  0
   59.0518   29.6235   47.8899 H   0  0  0  0  0  0  0  0  0  0  0  0
   58.0010   27.6610   45.5240 C   0  0  0  0  0  0  0  0  0  0  0  0
   57.9890   28.9830   45.8530 N   0  0  0  0  0  0  0  0  0  0  0  0
   58.4950   31.9050   46.2690 C   0  0  0  0  0  0  0  0  0  0  0  0
   59.2463   31.4145   46.9053 H   0  0  0  0  0  0  0  0  0  0  0  0
  1  2  1  0
  2  3  2  0
  3  4  1  0
  3  5  1  0
  5  6  2  0
  6  7  1  0
  6  8  1  0
  8  9  1  0
  8 10  2  0
 10 11  1  0
 11 12  1  0
 12 13  1  0
 12 14  1  0
 12 15  1  0
 10 16  1  0
 16 17  1  0
 16 18  2  0
 18 19  1  0
  2 20  1  0
 20 21  1  0
 21 22  2  0
 22 23  1  0
 23 24  1  0
 24 25  2  0
 25 26  1  0
 26 27  1  0
 26 28  2  0
 28 29  1  0
 29 30  2  0
 29 31  1  0
 31 32  1  0
 32 33  1  0
 32 34  1  0
 32 35  1  0
 35 36  1  0
 35 37  1  0
 35 38  1  0
 38 39  1  0
 38 40  1  0
 38 41  1  0
 31 42  1  0
 42 43  2  0
 42 44  1  0
 44 45  1  0
 45 46  1  0
 45 47  1  0
 45 48  1  0
 48 49  1  0
 48 50  1  0
 48 51  1  0
 51 52  1  0
 51 53  1  0
 51 54  1  0
 44 55  1  0
 55 56  2  0
 23 57  1  0
 57 58  1  0
 18  5  1  0
 57 20  2  0
 56 24  1  0
 55 28  1  0
M  END
>  <UniqueID>  (4) 
4

>  <SMILES>  (4) 
CCCn1c(=O)c2cnc(-n3cc(/C=C/c4ccc(OC)cc4)nn3)nc2n(CCC)c1=O

>  <Energy>  (4) 
101.47739664388645

>  <Genealogy>  (4) 
CCCn1c(=O)c2cnc(-n3cc(/C=C/c4ccc(OC)cc4)nn3)nc2n(CCC)c1=O (cis-trans isomerization)
CCCn1c(=O)c2cnc(-n3cc(/C=C/c4ccc(OC)cc4)nn3)nc2n(CCC)c1=O (3D coordinates assigned)
CCCn1c(=O)c2cnc(-n3cc(/C=C/c4ccc(OC)cc4)nn3)nc2n(CCC)c1=O (optimized conformer: 101.47739664388645 kcal/mol)

>  <smiles>  (4) 
CCCn1c(=O)c2cnc(-n3cc(C=Cc4ccc(OC)cc4)nn3)nc2n(CCC)c1=O

>  <score_type>  (4) 
oracle

>  <origin>  (4) 
adg

>  <m_score__min__energy>  (4) 
-8.3100000000000005

>  <m_primary>  (4) 
energy

$$$$
4:0
     RDKit          3D

 37 39  0  0  0  0  0  0  0  0999 V2000
   59.6450   35.4700   46.4380 C   0  0  0  0  0  0  0  0  0  0  0  0
   59.0720   34.1930   45.8890 C   0  0  0  0  0  0  0  0  0  0  0  0
   58.0970   34.2520   44.8810 C   0  0  0  0  0  0  0  0  0  0  0  0
   57.5370   33.0800   44.3670 C   0  0  0  0  0  0  0  0  0  0  0  0
   57.9310   31.8330   44.8650 C   0  0  0  0  0  0  0  0  0  0  0  0
   57.2380   30.3550   44.2080 S   0  0  0  0  0  0  0  0  0  0  0  0
   58.3570   29.0020   44.4950 C   0  0  0  0  0  0  0  0  0  0  0  0
   55.9220   30.0700   44.8760 O   0  0  0  0  0  0  0  0  0  0  0  0
   57.0060   30.5080   42.7310 O   0  0  0  0  0  0  0  0  0  0  0  0
   58.8950   31.7660   45.8770 C   0  0  0  0  0  0  0  0  0  0  0  0
   59.4610   32.9370   46.4000 C   0  0  0  0  0  0  0  0  0  0  0  0
   60.4270   32.8410   47.4510 N   0  0  0  0  0  0  0  0  0  0  0  0
   60.1480   33.2640   48.8290 C   0  0  0  0  0  0  0  0  0  0  0  0
   61.4810   33.3980   49.5250 C   0  0  0  0  0  0  0  0  0  0  0  0
   61.6500   33.7620   50.8640 C   0  0  0  0  0  0  0  0  0  0  0  0
   62.9490   33.8580   51.3870 C   0  0  0  0  0  0  0  0  0  0  0  0
   64.0640   33.5940   50.5720 C   0  0  0  0  0  0  0  0  0  0  0  0
   63.8860   33.2310   49.2290 C   0  0  0  0  0  0  0  0  0  0  0  0
   62.5870   33.1410   48.7310 C   0  0  0  0  0  0  0  0  0  0  0  0
   62.1160   32.7120   47.1320 S   0  0  0  0  0  0  0  0  0  0  0  0
   62.5150   31.3100   46.7710 O   0  0  0  0  0  0  0  0  0  0  0  0
   62.5680   33.7190   46.1120 O   0  0  0  0  0  0  0  0  0  0  0  0
   59.6297   35.4359   47.5374 H   0  0  0  0  0  0  0  0  0  0  0  0
   60.6817   35.5865   46.0892 H   0  0  0  0  0  0  0  0  0  0  0  0
   59.0428   36.3219   46.0892 H   0  0  0  0  0  0  0  0  0  0  0  0
   57.7714   35.2284   44.4929 H   0  0  0  0  0  0  0  0  0  0  0  0
   56.7834   33.1376   43.5677 H   0  0  0  0  0  0  0  0  0  0  0  0
   58.4810   28.8521   45.5777 H   0  0  0  0  0  0  0  0  0  0  0  0
   57.9488   28.0863   44.0424 H   0  0  0  0  0  0  0  0  0  0  0  0
   59.3330   29.2311   44.0424 H   0  0  0  0  0  0  0  0  0  0  0  0
   59.2112   30.7866   46.2653 H   0  0  0  0  0  0  0  0  0  0  0  0
   59.6224   34.2303   48.8290 H   0  0  0  0  0  0  0  0  0  0  0  0
   59.5071   32.5327   49.3432 H   0  0  0  0  0  0  0  0  0  0  0  0
   60.7766   33.9704   51.4994 H   0  0  0  0  0  0  0  0  0  0  0  0
   63.0955   34.1412   52.4398 H   0  0  0  0  0  0  0  0  0  0  0  0
   65.0789   33.6724   50.9890 H   0  0  0  0  0  0  0  0  0  0  0  0
   64.7517   33.0221   48.5833 H   0  0  0  0  0  0  0  0  0  0  0  0
  1  2  1  0
  2  3  2  0
  3  4  1  0
  4  5  2  0
  5  6  1  0
  6  7  1  0
  6  8  2  0
  6  9  2  0
  5 10  1  0
 10 11  2  0
 11 12  1  0
 12 13  1  0
 13 14  1  0
 14 15  2  0
 15 16  1  0
 16 17  2  0
 17 18  1  0
 18 19  2  0
 19 20  1  0
 20 21  2  0
 20 22  2  0
 11  2  1  0
 20 12  1  0
 19 14  1  0
  1 23  1  0
  1 24  1  0
  1 25  1  0
  3 26  1  0
  4 27  1  0
  7 28  1  0
  7 29  1  0
  7 30  1  0
 10 31  1  0
 13 32  1  0
 13 33  1  0
 15 34  1  0
 16 35  1  0
 17 36  1  0
 18 37  1  0
M  END
>  <UniqueID>  (5) 
5

>  <SMILES>  (5) 
Cc1ccc(S(C)(=O)=O)cc1N1Cc2ccccc2S1(=O)=O

>  <Energy>  (5) 
58.240734721422115

>  <Genealogy>  (5) 
Cc1ccc(S(C)(=O)=O)cc1N1Cc2ccccc2S1(=O)=O (3D coordinates assigned)
Cc1ccc(S(C)(=O)=O)cc1N1Cc2ccccc2S1(=O)=O (nonaromatic ring conformer: 58.240734721422115 kcal/mol)

>  <smiles>  (5) 
Cc1ccc(S(C)(=O)=O)cc1N1Cc2ccccc2S1(=O)=O

>  <score_type>  (5) 
oracle

>  <origin>  (5) 
adg

>  <m_score__min__energy>  (5) 
-9.0899999999999999

>  <m_primary>  (5) 
energy

$$$$
5:0
     RDKit          3D

 46 50  0  0  0  0  0  0  0  0999 V2000
   55.9160   29.7250   43.4490 C   0  0  0  0  0  0  0  0  0  0  0  0
   56.3730   29.8120   44.7940 O   0  0  0  0  0  0  0  0  0  0  0  0
   57.3880   30.6760   45.2400 C   0  0  0  0  0  0  0  0  0  0  0  0
   57.3490   32.0600   44.9840 C   0  0  0  0  0  0  0  0  0  0  0  0
   58.3650   32.9020   45.4620 C   0  0  0  0  0  0  0  0  0  0  0  0
   58.3190   34.2850   45.2260 C   0  0  0  0  0  0  0  0  0  0  0  0
   59.3330   35.1150   45.7110 C   0  0  0  0  0  0  0  0  0  0  0  0
   60.4000   34.5730   46.4330 C   0  0  0  0  0  0  0  0  0  0  0  0
   60.4580   33.1980   46.6740 C   0  0  0  0  0  0  0  0  0  0  0  0
   59.4450   32.3540   46.1920 C   0  0  0  0  0  0  0  0  0  0  0  0
   59.4900   30.9770   46.4340 C   0  0  0  0  0  0  0  0  0  0  0  0
   58.4610   30.1380   45.9760 C   0  0  0  0  0  0  0  0  0  0  0  0
   58.5050   28.6910   46.2880 C   0  0  0  0  0  0  0  0  0  0  0  0
   58.0930   27.8020   45.3380 N   0  0  0  0  0  0  0  0  0  0  0  0
   58.1710   26.4600   45.5390 C   0  0  0  0  0  0  0  0  0  0  0  0
   58.6820   25.9740   46.7390 C   0  0  0  0  0  0  0  0  0  0  0  0
   59.0790   26.8480   47.6970 N   0  0  0  0  0  0  0  0  0  0  0  0
   59.0030   28.1960   47.5220 C   0  0  0  0  0  0  0  0  0  0  0  0
   59.4050   29.0810   48.6450 C   0  0  0  0  0  0  0  0  0  0  0  0
   60.6690   28.9480   49.2430 C   0  0  0  0  0  0  0  0  0  0  0  0
   61.0310   29.7910   50.2970 C   0  0  0  0  0  0  0  0  0  0  0  0
   60.1300   30.7590   50.7560 C   0  0  0  0  0  0  0  0  0  0  0  0
   60.4620   31.6300   51.8050 C   0  0  0  0  0  0  0  0  0  0  0  0
   59.5400   32.5900   52.2340 C   0  0  0  0  0  0  0  0  0  0  0  0
   58.2860   32.6850   51.6200 C   0  0  0  0  0  0  0  0  0  0  0  0
   57.9470   31.8200   50.5760 C   0  0  0  0  0  0  0  0  0  0  0  0
   58.8630   30.8570   50.1420 C   0  0  0  0  0  0  0  0  0  0  0  0
   58.5390   30.0180   49.1230 N   0  0  0  0  0  0  0  0  0  0  0  0
   54.8354   29.5193   43.4415 H   0  0  0  0  0  0  0  0  0  0  0  0
   56.1117   30.6765   42.9330 H   0  0  0  0  0  0  0  0  0  0  0  0
   56.4476   28.9119   42.9330 H   0  0  0  0  0  0  0  0  0  0  0  0
   56.5157   32.4846   44.4049 H   0  0  0  0  0  0  0  0  0  0  0  0
   57.4821   34.7167   44.6575 H   0  0  0  0  0  0  0  0  0  0  0  0
   59.2914   36.1982   45.5240 H   0  0  0  0  0  0  0  0  0  0  0  0
   61.1960   35.2306   46.8124 H   0  0  0  0  0  0  0  0  0  0  0  0
   61.2995   32.7757   47.2428 H   0  0  0  0  0  0  0  0  0  0  0  0
   60.3382   30.5478   46.9875 H   0  0  0  0  0  0  0  0  0  0  0  0
   57.7280   28.1470   44.4210 H   0  0  0  0  0  0  0  0  0  0  0  0
   57.8325   25.7627   44.7585 H   0  0  0  0  0  0  0  0  0  0  0  0
   58.7631   24.8902   46.9089 H   0  0  0  0  0  0  0  0  0  0  0  0
   61.3719   28.1824   48.8826 H   0  0  0  0  0  0  0  0  0  0  0  0
   62.0218   29.6942   50.7650 H   0  0  0  0  0  0  0  0  0  0  0  0
   61.4469   31.5577   52.2895 H   0  0  0  0  0  0  0  0  0  0  0  0
   59.8012   33.2723   53.0563 H   0  0  0  0  0  0  0  0  0  0  0  0
   57.5649   33.4429   51.9602 H   0  0  0  0  0  0  0  0  0  0  0  0
   56.9602   31.8967   50.0961 H   0  0  0  0  0  0  0  0  0  0  0  0
  1  2  1  0
  2  3  1  0
  3  4  2  0
  4  5  1  0
  5  6  2  0
  6  7  1  0
  7  8  2  0
  8  9  1  0
  9 10  2  0
 10 11  1  0
 11 12  2  0
 12 13  1  0
 13 14  2  0
 14 15  1  0
 15 16  2  0
 16 17  1  0
 17 18  2  0
 18 19  1  0
 19 20  2  0
 20 21  1  0
 21 22  2  0
 22 23  1  0
 23 24  2  0
 24 25  1  0
 25 26  2  0
 26 27  1  0
 27 28  2  0
 12  3  1  0
 18 13  1  0
 28 19  1  0
 10  5  1  0
 27 22  1  0
  1 29  1  0
  1 30  1  0
  1 31  1  0
  4 32  1  0
  6 33  1  0
  7 34  1  0
  8 35  1  0
  9 36  1  0
 11 37  1  0
 14 38  1  0
 15 39  1  0
 16 40  1  0
 20 41  1  0
 21 42  1  0
 23 43  1  0
 24 44  1  0
 25 45  1  0
 26 46  1  0
M  CHG  1  14   1
M  END
>  <UniqueID>  (6) 
6

>  <SMILES>  (6) 
COc1cc2ccccc2cc1-c1[nH+]ccnc1-c1ccc2ccccc2n1

>  <Energy>  (6) 
69.31012147180407

>  <Genealogy>  (6) 
COc1cc2ccccc2cc1-c1[nH+]ccnc1-c1ccc2ccccc2n1 (protonated)
COc1cc2ccccc2cc1-c1[nH+]ccnc1-c1ccc2ccccc2n1 (3D coordinates assigned)
COc1cc2ccccc2cc1-c1[nH+]ccnc1-c1ccc2ccccc2n1 (optimized conformer: 69.31012147180407 kcal/mol)

>  <smiles>  (6) 
COc1cc2ccccc2cc1-c1nccnc1-c1ccc2ccccc2n1

>  <score_type>  (6) 
oracle

>  <origin>  (6) 
adg

>  <m_score__min__energy>  (6) 
-6.6900000000000004

>  <m_primary>  (6) 
energy

$$$$
6:0
     RDKit          3D

 47 49  0  0  0  0  0  0  0  0999 V2000
   56.5879   34.7579   45.2824 H   0  0  0  0  0  0  0  0  0  0  0  0
   57.4670   34.1040   45.3800 C   0  0  0  0  0  0  0  0  0  0  0  0
   57.2510   32.6430   45.4070 C   0  0  0  0  0  0  0  0  0  0  0  0
   56.4627   32.2355   46.0570 H   0  0  0  0  0  0  0  0  0  0  0  0
   57.9800   31.7970   44.6690 C   0  0  0  0  0  0  0  0  0  0  0  0
   58.4370   32.1970   43.4030 O   0  0  0  0  0  0  0  0  0  0  0  0
   57.7280   31.9620   42.1900 C   0  0  0  0  0  0  0  0  0  0  0  0
   56.7073   31.6237   42.4216 H   0  0  0  0  0  0  0  0  0  0  0  0
   57.6821   32.8930   41.6059 H   0  0  0  0  0  0  0  0  0  0  0  0
   58.2472   31.1879   41.6059 H   0  0  0  0  0  0  0  0  0  0  0  0
   58.2790   30.4450   45.2020 C   0  0  0  0  0  0  0  0  0  0  0  0
   59.5810   30.1620   45.6380 C   0  0  0  0  0  0  0  0  0  0  0  0
   60.3614   30.9335   45.5618 H   0  0  0  0  0  0  0  0  0  0  0  0
   59.8950   28.9120   46.1670 C   0  0  0  0  0  0  0  0  0  0  0  0
   60.9208   28.6999   46.5027 H   0  0  0  0  0  0  0  0  0  0  0  0
   58.9090   27.9270   46.2720 C   0  0  0  0  0  0  0  0  0  0  0  0
   59.2170   26.6660   46.8020 C   0  0  0  0  0  0  0  0  0  0  0  0
   60.2401   26.4455   47.1407 H   0  0  0  0  0  0  0  0  0  0  0  0
   58.2230   25.6910   46.8990 C   0  0  0  0  0  0  0  0  0  0  0  0
   58.4560   24.6996   47.3148 H   0  0  0  0  0  0  0  0  0  0  0  0
   56.9330   25.9860   46.4640 C   0  0  0  0  0  0  0  0  0  0  0  0
   56.1426   25.2241   46.5332 H   0  0  0  0  0  0  0  0  0  0  0  0
   56.6490   27.2140   45.9540 N   0  0  0  0  0  0  0  0  0  0  0  0
   57.5860   28.1950   45.8440 C   0  0  0  0  0  0  0  0  0  0  0  0
   57.2630   29.4690   45.3040 C   0  0  0  0  0  0  0  0  0  0  0  0
   55.9770   29.8260   44.8490 O   0  0  0  0  0  0  0  0  0  0  0  0
   55.4790   29.7160   43.5210 C   0  0  0  0  0  0  0  0  0  0  0  0
   54.4053   29.4788   43.5505 H   0  0  0  0  0  0  0  0  0  0  0  0
   55.6296   30.6691   42.9928 H   0  0  0  0  0  0  0  0  0  0  0  0
   56.0170   28.9150   42.9928 H   0  0  0  0  0  0  0  0  0  0  0  0
   58.6770   34.6770   45.4680 C   0  0  0  0  0  0  0  0  0  0  0  0
   58.9140   35.4798   44.7543 H   0  0  0  0  0  0  0  0  0  0  0  0
   59.7160   34.3080   46.4550 C   0  0  0  0  0  0  0  0  0  0  0  0
   59.5230   34.5190   47.8310 C   0  0  0  0  0  0  0  0  0  0  0  0
   58.5768   34.9493   48.1909 H   0  0  0  0  0  0  0  0  0  0  0  0
   60.5270   34.1850   48.7450 C   0  0  0  0  0  0  0  0  0  0  0  0
   60.3604   34.3371   49.8216 H   0  0  0  0  0  0  0  0  0  0  0  0
   61.7500   33.6550   48.2930 C   0  0  0  0  0  0  0  0  0  0  0  0
   62.7870   33.3020   49.1690 O   0  0  0  0  0  0  0  0  0  0  0  0
   64.0350   32.7530   48.7570 C   0  0  0  0  0  0  0  0  0  0  0  0
   64.6309   32.4909   49.6437 H   0  0  0  0  0  0  0  0  0  0  0  0
   63.8573   31.8499   48.1546 H   0  0  0  0  0  0  0  0  0  0  0  0
   64.5806   33.4942   48.1546 H   0  0  0  0  0  0  0  0  0  0  0  0
   61.9500   33.4790   46.9190 C   0  0  0  0  0  0  0  0  0  0  0  0
   62.9067   33.0762   46.5550 H   0  0  0  0  0  0  0  0  0  0  0  0
   60.9460   33.8100   46.0050 C   0  0  0  0  0  0  0  0  0  0  0  0
   61.1222   33.6790   44.9271 H   0  0  0  0  0  0  0  0  0  0  0  0
  1  2  1  0
  2  3  1  0
  3  4  1  0
  3  5  2  0
  5  6  1  0
  6  7  1  0
  7  8  1  0
  7  9  1  0
  7 10  1  0
  5 11  1  0
 11 12  2  0
 12 13  1  0
 12 14  1  0
 14 15  1  0
 14 16  2  0
 16 17  1  0
 17 18  1  0
 17 19  2  0
 19 20  1  0
 19 21  1  0
 21 22  1  0
 21 23  2  0
 23 24  1  0
 24 25  2  0
 25 26  1  0
 26 27  1  0
 27 28  1  0
 27 29  1  0
 27 30  1  0
  2 31  2  0
 31 32  1  0
 31 33  1  0
 33 34  2  0
 34 35  1  0
 34 36  1  0
 36 37  1  0
 36 38  2  0
 38 39  1  0
 39 40  1  0
 40 41  1  0
 40 42  1  0
 40 43  1  0
 38 44  1  0
 44 45  1  0
 44 46  2  0
 46 47  1  0
 25 11  1  0
 46 33  1  0
 24 16  1  0
M  END
>  <UniqueID>  (7) 
7

>  <SMILES>  (7) 
CO/C(=C\C=C/c1ccc(OC)cc1)c1ccc2cccnc2c1OC

>  <Energy>  (7) 
64.02789789016455

>  <Genealogy>  (7) 
CO/C(=C\C=C/c1ccc(OC)cc1)c1ccc2cccnc2c1OC (cis-trans isomerization)
CO/C(=C\C=C/c1ccc(OC)cc1)c1ccc2cccnc2c1OC (3D coordinates assigned)
CO/C(=C\C=C/c1ccc(OC)cc1)c1ccc2cccnc2c1OC (optimized conformer: 64.02789789016455 kcal/mol)

>  <smiles>  (7) 
COC(=CC=Cc1ccc(OC)cc1)c1ccc2cccnc2c1OC

>  <score_type>  (7) 
oracle

>  <origin>  (7) 
adg

>  <m_score__min__energy>  (7) 
-8

>  <m_primary>  (7) 
energy

$$$$
7:0
     RDKit          3D

 49 52  0  0  0  0  0  0  0  0999 V2000
   62.0680   30.8500   47.1060 C   0  0  0  0  0  0  0  0  0  0  0  0
   60.9000   29.9690   47.4780 C   0  0  0  0  0  0  0  0  0  0  0  0
   60.2730   30.1660   48.7160 C   0  0  0  0  0  0  0  0  0  0  0  0
   59.1720   29.3980   49.0820 C   0  0  0  0  0  0  0  0  0  0  0  0
   58.6840   28.4180   48.2220 C   0  0  0  0  0  0  0  0  0  0  0  0
   59.3010   28.1830   46.9800 C   0  0  0  0  0  0  0  0  0  0  0  0
   58.7930   27.1850   46.0790 N   0  0  0  0  0  0  0  0  0  0  0  0
   57.3710   27.3360   45.1010 S   0  0  0  0  0  0  0  0  0  0  0  0
   56.1580   27.0740   45.9460 O   0  0  0  0  0  0  0  0  0  0  0  0
   57.4250   26.3190   43.9970 O   0  0  0  0  0  0  0  0  0  0  0  0
   57.3050   28.9440   44.3860 C   0  0  0  0  0  0  0  0  0  0  0  0
   56.7100   29.1440   43.1340 C   0  0  0  0  0  0  0  0  0  0  0  0
   56.6380   30.4280   42.5890 C   0  0  0  0  0  0  0  0  0  0  0  0
   57.1700   31.5170   43.2860 C   0  0  0  0  0  0  0  0  0  0  0  0
   57.7910   31.3300   44.5330 C   0  0  0  0  0  0  0  0  0  0  0  0
   58.3710   32.4830   45.2610 C   0  0  0  0  0  0  0  0  0  0  0  0
   59.4480   32.4080   46.0800 N   0  0  0  0  0  0  0  0  0  0  0  0
   59.7930   33.6140   46.6200 C   0  0  0  0  0  0  0  0  0  0  0  0
   60.9530   33.7750   47.5320 C   0  0  0  0  0  0  0  0  0  0  0  0
   62.2610   33.8480   47.0170 C   0  0  0  0  0  0  0  0  0  0  0  0
   63.3510   34.0200   47.8760 C   0  0  0  0  0  0  0  0  0  0  0  0
   63.1510   34.1160   49.2540 C   0  0  0  0  0  0  0  0  0  0  0  0
   61.8600   34.0370   49.7780 C   0  0  0  0  0  0  0  0  0  0  0  0
   60.7660   33.8660   48.9250 C   0  0  0  0  0  0  0  0  0  0  0  0
   58.9730   34.6740   46.2260 C   0  0  0  0  0  0  0  0  0  0  0  0
   57.8050   34.0660   45.1790 S   0  0  0  0  0  0  0  0  0  0  0  0
   57.8450   30.0340   45.0800 C   0  0  0  0  0  0  0  0  0  0  0  0
   60.4360   28.9460   46.6100 C   0  0  0  0  0  0  0  0  0  0  0  0
   61.0910   28.7270   45.2640 C   0  0  0  0  0  0  0  0  0  0  0  0
   62.5557   31.2179   48.0207 H   0  0  0  0  0  0  0  0  0  0  0  0
   62.7905   30.2700   46.5131 H   0  0  0  0  0  0  0  0  0  0  0  0
   61.7088   31.7041   46.5131 H   0  0  0  0  0  0  0  0  0  0  0  0
   60.6547   30.9345   49.4043 H   0  0  0  0  0  0  0  0  0  0  0  0
   58.6855   29.5657   50.0542 H   0  0  0  0  0  0  0  0  0  0  0  0
   57.8077   27.8219   48.5165 H   0  0  0  0  0  0  0  0  0  0  0  0
   56.2986   28.2882   42.5788 H   0  0  0  0  0  0  0  0  0  0  0  0
   56.1618   30.5827   41.6095 H   0  0  0  0  0  0  0  0  0  0  0  0
   57.1021   32.5270   42.8555 H   0  0  0  0  0  0  0  0  0  0  0  0
   59.9940   31.5320   46.2360 H   0  0  0  0  0  0  0  0  0  0  0  0
   62.4267   33.7693   45.9324 H   0  0  0  0  0  0  0  0  0  0  0  0
   64.3693   34.0798   47.4643 H   0  0  0  0  0  0  0  0  0  0  0  0
   64.0105   34.2538   49.9266 H   0  0  0  0  0  0  0  0  0  0  0  0
   61.7031   34.1094   50.8643 H   0  0  0  0  0  0  0  0  0  0  0  0
   59.7513   33.8020   49.3448 H   0  0  0  0  0  0  0  0  0  0  0  0
   59.0734   35.7221   46.5444 H   0  0  0  0  0  0  0  0  0  0  0  0
   58.3157   29.8760   46.0616 H   0  0  0  0  0  0  0  0  0  0  0  0
   62.1248   28.3813   45.4112 H   0  0  0  0  0  0  0  0  0  0  0  0
   60.5274   27.9684   44.7010 H   0  0  0  0  0  0  0  0  0  0  0  0
   61.0970   29.6720   44.7010 H   0  0  0  0  0  0  0  0  0  0  0  0
  1  2  1  0
  2  3  2  0
  3  4  1  0
  4  5  2  0
  5  6  1  0
  6  7  1  0
  7  8  1  0
  8  9  2  0
  8 10  2  0
  8 11  1  0
 11 12  2  0
 12 13  1  0
 13 14  2  0
 14 15  1  0
 15 16  1  0
 16 17  2  0
 17 18  1  0
 18 19  1  0
 19 20  2  0
 20 21  1  0
 21 22  2  0
 22 23  1  0
 23 24  2  0
 18 25  2  0
 25 26  1  0
 15 27  2  0
  6 28  2  0
 28 29  1  0
 28  2  1  0
 27 11  1  0
 26 16  1  0
 24 19  1  0
  1 30  1  0
  1 31  1  0
  1 32  1  0
  3 33  1  0
  4 34  1  0
  5 35  1  0
 12 36  1  0
 13 37  1  0
 14 38  1  0
 17 39  1  0
 20 40  1  0
 21 41  1  0
 22 42  1  0
 23 43  1  0
 24 44  1  0
 25 45  1  0
 27 46  1  0
 29 47  1  0
 29 48  1  0
 29 49  1  0
M  CHG  2   7  -1  17   1
M  END
>  <UniqueID>  (8) 
8

>  <SMILES>  (8) 
Cc1cccc([N-]S(=O)(=O)c2cccc(-c3[nH+]c(-c4ccccc4)cs3)c2)c1C

>  <Energy>  (8) 
93.1397340842419

>  <Genealogy>  (8) 
Cc1cccc([N-]S(=O)(=O)c2cccc(-c3[nH+]c(-c4ccccc4)cs3)c2)c1C (protonated)
Cc1cccc([N-]S(=O)(=O)c2cccc(-c3[nH+]c(-c4ccccc4)cs3)c2)c1C (3D coordinates assigned)
Cc1cccc([N-]S(=O)(=O)c2cccc(-c3[nH+]c(-c4ccccc4)cs3)c2)c1C (optimized conformer: 93.1397340842419 kcal/mol)

>  <smiles>  (8) 
Cc1cccc(NS(=O)(=O)c2cccc(-c3nc(-c4ccccc4)cs3)c2)c1C

>  <score_type>  (8) 
oracle

>  <origin>  (8) 
adg

>  <m_score__min__energy>  (8) 
-9.6199999999999992

>  <m_primary>  (8) 
energy

$$$$
8:0
     RDKit          3D

 28 29  0  0  0  0  0  0  0  0999 V2000
   59.2080   34.8930   44.8730 C   0  0  0  0  0  0  0  0  0  0  0  0
   58.7160   33.7670   45.6860 N   0  0  0  0  0  0  0  0  0  0  0  0
   58.5250   34.2080   47.0810 C   0  0  0  0  0  0  0  0  0  0  0  0
   57.4580   33.2410   45.1100 C   0  0  0  0  0  0  0  0  0  0  0  0
   57.4400   31.7380   45.0880 C   0  0  0  0  0  0  0  0  0  0  0  0
   58.5850   31.0410   45.3090 N   0  0  0  0  0  0  0  0  0  0  0  0
   58.5970   29.6830   45.2700 C   0  0  0  0  0  0  0  0  0  0  0  0
   59.7870   28.9850   45.5040 C   0  0  0  0  0  0  0  0  0  0  0  0
   59.8000   27.5880   45.4620 C   0  0  0  0  0  0  0  0  0  0  0  0
   58.6240   26.8820   45.1870 C   0  0  0  0  0  0  0  0  0  0  0  0
   57.4290   27.5700   44.9510 C   0  0  0  0  0  0  0  0  0  0  0  0
   57.4070   28.9760   44.9900 C   0  0  0  0  0  0  0  0  0  0  0  0
   56.2390   29.7210   44.7590 C   0  0  0  0  0  0  0  0  0  0  0  0
   55.1450   29.1490   44.5030 O   0  0  0  0  0  0  0  0  0  0  0  0
   56.2830   31.0770   44.8120 N   0  0  0  0  0  0  0  0  0  0  0  0
   59.5596   35.6976   45.5356 H   0  0  0  0  0  0  0  0  0  0  0  0
   60.0389   34.5514   44.2382 H   0  0  0  0  0  0  0  0  0  0  0  0
   58.3929   35.2706   44.2382 H   0  0  0  0  0  0  0  0  0  0  0  0
   59.4470   33.0170   45.6680 H   0  0  0  0  0  0  0  0  0  0  0  0
   58.8672   33.4178   47.7655 H   0  0  0  0  0  0  0  0  0  0  0  0
   59.1069   35.1244   47.2588 H   0  0  0  0  0  0  0  0  0  0  0  0
   57.4585   34.4105   47.2588 H   0  0  0  0  0  0  0  0  0  0  0  0
   56.6122   33.5984   45.7157 H   0  0  0  0  0  0  0  0  0  0  0  0
   57.3806   33.5992   44.0728 H   0  0  0  0  0  0  0  0  0  0  0  0
   60.7136   29.5366   45.7213 H   0  0  0  0  0  0  0  0  0  0  0  0
   60.7373   27.0423   45.6456 H   0  0  0  0  0  0  0  0  0  0  0  0
   58.6390   25.7825   45.1562 H   0  0  0  0  0  0  0  0  0  0  0  0
   56.5064   27.0114   44.7349 H   0  0  0  0  0  0  0  0  0  0  0  0
  1  2  1  0
  2  3  1  0
  2  4  1  0
  4  5  1  0
  5  6  2  0
  6  7  1  0
  7  8  2  0
  8  9  1  0
  9 10  2  0
 10 11  1  0
 11 12  2  0
 12 13  1  0
 13 14  2  0
 13 15  1  0
 15  5  1  0
 12  7  1  0
  1 16  1  0
  1 17  1  0
  1 18  1  0
  2 19  1  0
  3 20  1  0
  3 21  1  0
  3 22  1  0
  4 23  1  0
  4 24  1  0
  8 25  1  0
  9 26  1  0
 10 27  1  0
 11 28  1  0
M  CHG  2   2   1  15  -1
M  END
>  <UniqueID>  (9) 
9

>  <SMILES>  (9) 
C[NH+](C)Cc1nc2ccccc2c(=O)[n-]1

>  <Energy>  (9) 
32.37176560648101

>  <Genealogy>  (9) 
C[NH+](C)Cc1nc2ccccc2c(=O)[n-]1 (protonated)
C[NH+](C)Cc1nc2ccccc2c(=O)[n-]1 (3D coordinates assigned)
C[NH+](C)Cc1nc2ccccc2c(=O)[n-]1 (optimized conformer: 32.37176560648101 kcal/mol)

>  <smiles>  (9) 
CN(C)Cc1nc2ccccc2c(=O)[nH]1

>  <score_type>  (9) 
oracle

>  <origin>  (9) 
adg

>  <m_score__min__energy>  (9) 
-5.6399999999999997

>  <m_primary>  (9) 
energy

$$$$
9:0
     RDKit          3D

 54 56  0  0  0  0  0  0  0  0999 V2000
   59.7498   30.5817   50.0029 H   0  0  0  0  0  0  0  0  0  0  0  0
   59.5220   31.2300   49.1440 C   0  0  0  0  0  0  0  0  0  0  0  0
   58.4500   32.2360   49.3220 C   0  0  0  0  0  0  0  0  0  0  0  0
   58.2530   32.7140   50.4710 O   0  0  0  0  0  0  0  0  0  0  0  0
   57.6810   32.7170   48.2130 N   0  0  0  0  0  0  0  0  0  0  0  0
   58.2000   33.4550   47.1010 C   0  0  0  0  0  0  0  0  0  0  0  0
   58.9710   34.5950   47.3600 C   0  0  0  0  0  0  0  0  0  0  0  0
   59.1619   34.9000   48.3995 H   0  0  0  0  0  0  0  0  0  0  0  0
   59.4990   35.3470   46.3100 C   0  0  0  0  0  0  0  0  0  0  0  0
   60.0909   36.2494   46.5229 H   0  0  0  0  0  0  0  0  0  0  0  0
   59.2760   34.9540   44.9900 C   0  0  0  0  0  0  0  0  0  0  0  0
   59.6789   35.5564   44.1625 H   0  0  0  0  0  0  0  0  0  0  0  0
   58.5420   33.7970   44.7170 C   0  0  0  0  0  0  0  0  0  0  0  0
   58.3765   33.4879   43.6744 H   0  0  0  0  0  0  0  0  0  0  0  0
   58.0120   33.0230   45.7700 C   0  0  0  0  0  0  0  0  0  0  0  0
   57.3360   31.8100   45.5390 O   0  0  0  0  0  0  0  0  0  0  0  0
   57.4130   31.0230   44.3510 C   0  0  0  0  0  0  0  0  0  0  0  0
   58.2685   30.3359   44.4280 H   0  0  0  0  0  0  0  0  0  0  0  0
   57.5393   31.6952   43.4895 H   0  0  0  0  0  0  0  0  0  0  0  0
   56.1370   30.2130   44.1570 C   0  0  0  0  0  0  0  0  0  0  0  0
   55.7185   29.9473   45.1390 H   0  0  0  0  0  0  0  0  0  0  0  0
   55.4043   30.8117   43.5960 H   0  0  0  0  0  0  0  0  0  0  0  0
   56.3670   29.2952   43.5960 H   0  0  0  0  0  0  0  0  0  0  0  0
   60.2450   31.0390   48.0180 C   0  0  0  0  0  0  0  0  0  0  0  0
   61.4640   31.8540   47.7660 C   0  0  0  0  0  0  0  0  0  0  0  0
   62.6340   31.6530   48.5250 C   0  0  0  0  0  0  0  0  0  0  0  0
   62.6454   30.8932   49.3203 H   0  0  0  0  0  0  0  0  0  0  0  0
   63.7810   32.4130   48.2740 C   0  0  0  0  0  0  0  0  0  0  0  0
   64.6883   32.2521   48.8748 H   0  0  0  0  0  0  0  0  0  0  0  0
   63.7770   33.3760   47.2620 C   0  0  0  0  0  0  0  0  0  0  0  0
   64.6792   33.9752   47.0694 H   0  0  0  0  0  0  0  0  0  0  0  0
   62.6280   33.5780   46.4950 C   0  0  0  0  0  0  0  0  0  0  0  0
   62.6264   34.3351   45.6970 H   0  0  0  0  0  0  0  0  0  0  0  0
   61.4790   32.8190   46.7400 C   0  0  0  0  0  0  0  0  0  0  0  0
   60.5798   32.9770   46.1265 H   0  0  0  0  0  0  0  0  0  0  0  0
   59.9150   29.9640   47.0600 C   0  0  0  0  0  0  0  0  0  0  0  0
   60.7700   29.6830   45.9890 C   0  0  0  0  0  0  0  0  0  0  0  0
   61.7212   30.2263   45.8887 H   0  0  0  0  0  0  0  0  0  0  0  0
   60.4180   28.7140   45.0470 C   0  0  0  0  0  0  0  0  0  0  0  0
   61.0973   28.4929   44.2105 H   0  0  0  0  0  0  0  0  0  0  0  0
   59.1990   28.0180   45.1610 C   0  0  0  0  0  0  0  0  0  0  0  0
   58.8080   27.0460   44.2260 O   0  0  0  0  0  0  0  0  0  0  0  0
   58.0590   27.3170   43.0440 C   0  0  0  0  0  0  0  0  0  0  0  0
   57.0576   27.6793   43.3195 H   0  0  0  0  0  0  0  0  0  0  0  0
   58.5763   28.0850   42.4501 H   0  0  0  0  0  0  0  0  0  0  0  0
   57.9651   26.3958   42.4501 H   0  0  0  0  0  0  0  0  0  0  0  0
   58.3370   28.2980   46.2320 C   0  0  0  0  0  0  0  0  0  0  0  0
   57.1200   27.6020   46.3100 O   0  0  0  0  0  0  0  0  0  0  0  0
   57.0070   26.1890   46.4390 C   0  0  0  0  0  0  0  0  0  0  0  0
   56.9854   25.9187   47.5051 H   0  0  0  0  0  0  0  0  0  0  0  0
   56.0789   25.8498   45.9558 H   0  0  0  0  0  0  0  0  0  0  0  0
   57.8694   25.7066   45.9558 H   0  0  0  0  0  0  0  0  0  0  0  0
   58.7050   29.2670   47.1870 C   0  0  0  0  0  0  0  0  0  0  0  0
   58.0391   29.4777   48.0369 H   0  0  0  0  0  0  0  0  0  0  0  0
  1  2  1  0
  2  3  1  0
  3  4  2  0
  3  5  1  0
  5  6  1  0
  6  7  2  0
  7  8  1  0
  7  9  1  0
  9 10  1  0
  9 11  2  0
 11 12  1  0
 11 13  1  0
 13 14  1  0
 13 15  2  0
 15 16  1  0
 16 17  1  0
 17 18  1  0
 17 19  1  0
 17 20  1  0
 20 21  1  0
 20 22  1  0
 20 23  1  0
  2 24  2  0
 24 25  1  0
 25 26  2  0
 26 27  1  0
 26 28  1  0
 28 29  1  0
 28 30  2  0
 30 31  1  0
 30 32  1  0
 32 33  1  0
 32 34  2  0
 34 35  1  0
 24 36  1  0
 36 37  2  0
 37 38  1  0
 37 39  1  0
 39 40  1  0
 39 41  2  0
 41 42  1  0
 42 43  1  0
 43 44  1  0
 43 45  1  0
 43 46  1  0
 41 47  1  0
 47 48  1  0
 48 49  1  0
 49 50  1  0
 49 51  1  0
 49 52  1  0
 47 53  2  0
 53 54  1  0
 15  6  1  0
 34 25  1  0
 53 36  1  0
M  CHG  1   5  -1
M  END
>  <UniqueID>  (10) 
10

>  <SMILES>  (10) 
CCOc1ccccc1[N-]C(=O)/C=C(/c1ccccc1)c1ccc(OC)c(OC)c1

>  <Energy>  (10) 
70.95606409923302

>  <Genealogy>  (10) 
CCOc1ccccc1[N-]C(=O)C=C(c1ccccc1)c1ccc(OC)c(OC)c1 (protonated)
CCOc1ccccc1[N-]C(=O)/C=C(/c1ccccc1)c1ccc(OC)c(OC)c1 (cis-trans isomerization)
CCOc1ccccc1[N-]C(=O)/C=C(/c1ccccc1)c1ccc(OC)c(OC)c1 (3D coordinates assigned)
CCOc1ccccc1[N-]C(=O)/C=C(/c1ccccc1)c1ccc(OC)c(OC)c1 (optimized conformer: 70.95606409923302 kcal/mol)

>  <smiles>  (10) 
CCOc1ccccc1NC(=O)C=C(c1ccccc1)c1ccc(OC)c(OC)c1

>  <score_type>  (10) 
oracle

>  <origin>  (10) 
adg

>  <m_score__min__energy>  (10) 
-9.5800000000000001

>  <m_primary>  (10) 
energy

$$$$
10:0
     RDKit          3D

 23 24  0  0  0  0  0  0  0  0999 V2000
   56.2458   27.2356   46.0513 H   0  0  0  0  0  0  0  0  0  0  0  0
   56.9570   27.9560   45.6210 C   0  0  0  0  0  0  0  0  0  0  0  0
   56.5360   29.2020   45.2720 N   0  0  0  0  0  0  0  0  0  0  0  0
   57.3800   30.1250   44.7380 C   0  0  0  0  0  0  0  0  0  0  0  0
   56.8650   31.4170   44.3940 N   0  0  0  0  0  0  0  0  0  0  0  0
   56.6350   32.3090   45.2720 N   0  0  0  0  0  0  0  0  0  0  0  0
   57.6540   33.2030   45.7360 C   0  0  0  0  0  0  0  0  0  0  0  0
   58.0510   33.1400   47.0790 C   0  0  0  0  0  0  0  0  0  0  0  0
   57.5801   32.4115   47.7554 H   0  0  0  0  0  0  0  0  0  0  0  0
   59.0430   33.9990   47.5630 C   0  0  0  0  0  0  0  0  0  0  0  0
   59.3505   33.9442   48.6177 H   0  0  0  0  0  0  0  0  0  0  0  0
   59.6440   34.9270   46.7080 C   0  0  0  0  0  0  0  0  0  0  0  0
   60.4241   35.6018   47.0901 H   0  0  0  0  0  0  0  0  0  0  0  0
   59.2540   34.9980   45.3670 C   0  0  0  0  0  0  0  0  0  0  0  0
   59.7274   35.7288   44.6947 H   0  0  0  0  0  0  0  0  0  0  0  0
   58.2620   34.1400   44.8800 C   0  0  0  0  0  0  0  0  0  0  0  0
   57.9564   34.1980   43.8249 H   0  0  0  0  0  0  0  0  0  0  0  0
   58.7310   29.7910   44.5350 C   0  0  0  0  0  0  0  0  0  0  0  0
   59.4257   30.5262   44.1028 H   0  0  0  0  0  0  0  0  0  0  0  0
   59.1820   28.5180   44.8870 C   0  0  0  0  0  0  0  0  0  0  0  0
   60.2366   28.2449   44.7347 H   0  0  0  0  0  0  0  0  0  0  0  0
   58.2910   27.5920   45.4330 C   0  0  0  0  0  0  0  0  0  0  0  0
   58.6370   26.5858   45.7121 H   0  0  0  0  0  0  0  0  0  0  0  0
  1  2  1  0
  2  3  2  0
  3  4  1  0
  4  5  1  0
  5  6  2  0
  6  7  1  0
  7  8  2  0
  8  9  1  0
  8 10  1  0
 10 11  1  0
 10 12  2  0
 12 13  1  0
 12 14  1  0
 14 15  1  0
 14 16  2  0
 16 17  1  0
  4 18  2  0
 18 19  1  0
 18 20  1  0
 20 21  1  0
 20 22  2  0
 22 23  1  0
 22  2  1  0
 16  7  1  0
M  END
>  <UniqueID>  (11) 
11

>  <SMILES>  (11) 
c1ccc(/N=N/c2ccccn2)cc1

>  <Energy>  (11) 
24.729405965678016

>  <Genealogy>  (11) 
c1ccc(/N=N/c2ccccn2)cc1 (cis-trans isomerization)
c1ccc(/N=N/c2ccccn2)cc1 (3D coordinates assigned)
c1ccc(/N=N/c2ccccn2)cc1 (optimized conformer: 24.729405965678016 kcal/mol)

>  <smiles>  (11) 
c1ccc(N=Nc2ccccn2)cc1

>  <score_type>  (11) 
oracle

>  <origin>  (11) 
adg

>  <m_score__min__energy>  (11) 
-6.04

>  <m_primary>  (11) 
energy

$$$$
11:0
     RDKit          3D

 34 36  0  0  0  0  0  0  0  0999 V2000
   66.2290   32.3440   50.3720 C   0  0  0  0  0  0  0  0  0  0  0  0
   65.5740   33.1010   49.3610 O   0  0  0  0  0  0  0  0  0  0  0  0
   64.2040   33.0220   49.0620 C   0  0  0  0  0  0  0  0  0  0  0  0
   63.3290   33.7880   49.6540 N   0  0  0  0  0  0  0  0  0  0  0  0
   61.9220   33.7210   49.3710 C   0  0  0  0  0  0  0  0  0  0  0  0
   61.1570   34.5770   49.8930 O   0  0  0  0  0  0  0  0  0  0  0  0
   61.3240   32.6000   48.5330 C   0  0  1  0  0  0  0  0  0  0  0  0
   60.7130   31.5680   49.5200 C   0  0  0  0  0  0  0  0  0  0  0  0
   59.7020   30.6430   48.8430 C   0  0  0  0  0  0  0  0  0  0  0  0
   58.5320   31.4570   48.2980 C   0  0  0  0  0  0  0  0  0  0  0  0
   58.9900   32.6000   47.4280 C   0  0  0  0  0  0  0  0  0  0  0  0
   58.0790   33.1500   46.5110 C   0  0  0  0  0  0  0  0  0  0  0  0
   58.4440   34.2310   45.7090 C   0  0  0  0  0  0  0  0  0  0  0  0
   59.7200   34.7800   45.8160 C   0  0  0  0  0  0  0  0  0  0  0  0
   60.6320   34.2580   46.7330 C   0  0  0  0  0  0  0  0  0  0  0  0
   60.2780   33.1790   47.5720 C   0  0  0  0  0  0  0  0  0  0  0  0
   62.4100   31.9250   47.7200 C   0  0  0  0  0  0  0  0  0  0  0  0
   62.1060   31.1810   46.7480 O   0  0  0  0  0  0  0  0  0  0  0  0
   63.7860   32.0830   48.0690 N   0  0  0  0  0  0  0  0  0  0  0  0
   65.9156   32.7062   51.3622 H   0  0  0  0  0  0  0  0  0  0  0  0
   65.9597   31.2826   50.2677 H   0  0  0  0  0  0  0  0  0  0  0  0
   67.3181   32.4579   50.2677 H   0  0  0  0  0  0  0  0  0  0  0  0
   63.6340   34.4970   50.3560 H   0  0  0  0  0  0  0  0  0  0  0  0
   61.5254   30.9567   49.9398 H   0  0  0  0  0  0  0  0  0  0  0  0
   60.1830   32.1274   50.3050 H   0  0  0  0  0  0  0  0  0  0  0  0
   60.1928   30.1112   48.0146 H   0  0  0  0  0  0  0  0  0  0  0  0
   59.3252   29.9190   49.5805 H   0  0  0  0  0  0  0  0  0  0  0  0
   57.8867   30.7947   47.7022 H   0  0  0  0  0  0  0  0  0  0  0  0
   57.9878   31.8815   49.1545 H   0  0  0  0  0  0  0  0  0  0  0  0
   57.0685   32.7241   46.4247 H   0  0  0  0  0  0  0  0  0  0  0  0
   57.7237   34.6506   44.9912 H   0  0  0  0  0  0  0  0  0  0  0  0
   60.0087   35.6268   45.1760 H   0  0  0  0  0  0  0  0  0  0  0  0
   61.6401   34.6925   46.8035 H   0  0  0  0  0  0  0  0  0  0  0  0
   64.5100   31.5260   47.5620 H   0  0  0  0  0  0  0  0  0  0  0  0
  1  2  1  0
  2  3  1  0
  3  4  2  0
  4  5  1  0
  5  6  2  0
  5  7  1  0
  7  8  1  1
  8  9  1  0
  9 10  1  0
 10 11  1  0
 11 12  2  0
 12 13  1  0
 13 14  2  0
 14 15  1  0
 15 16  2  0
  7 17  1  0
 17 18  2  0
 17 19  1  0
 19  3  1  0
 16  7  1  0
 16 11  1  0
  1 20  1  0
  1 21  1  0
  1 22  1  0
  4 23  1  0
  8 24  1  0
  8 25  1  0
  9 26  1  0
  9 27  1  0
 10 28  1  0
 10 29  1  0
 12 30  1  0
 13 31  1  0
 14 32  1  0
 15 33  1  0
 19 34  1  0
M  CHG  1   4   1
M  END
>  <UniqueID>  (12) 
12

>  <SMILES>  (12) 
COC1=[NH+]C(=O)[C@]2(CCCc3ccccc32)C(=O)N1

>  <Energy>  (12) 
37.84462727898385

>  <Genealogy>  (12) 
COC1=[NH+]C(=O)C2(CCCc3ccccc32)C(=O)N1 (protonated)
COC1=[NH+]C(=O)[C@]2(CCCc3ccccc32)C(=O)N1 (chirality)
COC1=[NH+]C(=O)[C@]2(CCCc3ccccc32)C(=O)N1 (3D coordinates assigned)
COC1=[NH+]C(=O)[C@]2(CCCc3ccccc32)C(=O)N1 (nonaromatic ring conformer: 37.84462727898385 kcal/mol)

>  <smiles>  (12) 
COC1=NC(=O)C2(CCCc3ccccc32)C(=O)N1

>  <score_type>  (12) 
oracle

>  <origin>  (12) 
adg

>  <m_score__min__energy>  (12) 
-5.0999999999999996

>  <m_primary>  (12) 
energy

$$$$
12:0
     RDKit          3D

 57 60  0  0  0  0  0  0  0  0999 V2000
   55.2710   24.0730   45.7420 C   0  0  0  0  0  0  0  0  0  0  0  0
   55.8600   25.0620   46.6550 N   0  0  0  0  0  0  0  0  0  0  0  0
   57.1460   24.6110   47.2040 C   0  0  0  0  0  0  0  0  0  0  0  0
   55.8950   26.4360   46.1100 C   0  0  0  0  0  0  0  0  0  0  0  0
   57.0660   26.7490   45.1360 C   0  0  0  0  0  0  0  0  0  0  0  0
   57.7620   28.0270   45.4450 N   0  0  0  0  0  0  0  0  0  0  0  0
   58.9860   27.9560   46.0830 C   0  0  0  0  0  0  0  0  0  0  0  0
   59.5670   26.8540   46.2800 O   0  0  0  0  0  0  0  0  0  0  0  0
   59.5870   29.1290   46.5040 C   0  0  0  0  0  0  0  0  0  0  0  0
   60.7690   29.3480   47.1750 C   0  0  0  0  0  0  0  0  0  0  0  0
   60.9300   30.6820   47.3610 N   0  0  0  0  0  0  0  0  0  0  0  0
   62.0690   31.3140   48.0490 C   0  0  0  0  0  0  0  0  0  0  0  0
   62.6570   32.4440   47.1900 C   0  0  0  0  0  0  0  0  0  0  0  0
   63.7080   33.2480   47.9890 C   0  0  0  0  0  0  0  0  0  0  0  0
   63.4150   33.4730   49.3760 O   0  0  0  0  0  0  0  0  0  0  0  0
   62.0440   33.2760   49.6730 C   0  0  0  0  0  0  0  0  0  0  0  0
   61.6510   31.8070   49.4510 C   0  0  0  0  0  0  0  0  0  0  0  0
   59.8550   31.2970   46.7990 C   0  0  0  0  0  0  0  0  0  0  0  0
   59.6430   32.7540   46.7620 C   0  0  0  0  0  0  0  0  0  0  0  0
   59.6710   33.4420   45.5400 C   0  0  0  0  0  0  0  0  0  0  0  0
   59.4950   34.8270   45.5130 C   0  0  0  0  0  0  0  0  0  0  0  0
   59.2880   35.5310   46.7040 C   0  0  0  0  0  0  0  0  0  0  0  0
   59.2530   34.8510   47.9230 C   0  0  0  0  0  0  0  0  0  0  0  0
   59.4280   33.4650   47.9530 C   0  0  0  0  0  0  0  0  0  0  0  0
   59.0120   30.3320   46.2640 C   0  0  0  0  0  0  0  0  0  0  0  0
   57.8390   30.4110   45.5230 C   0  0  0  0  0  0  0  0  0  0  0  0
   57.3440   31.5380   45.2490 O   0  0  0  0  0  0  0  0  0  0  0  0
   57.2520   29.2380   45.0810 N   0  0  0  0  0  0  0  0  0  0  0  0
   56.0820   29.3340   44.1820 C   0  0  0  0  0  0  0  0  0  0  0  0
   54.7942   23.2725   46.3267 H   0  0  0  0  0  0  0  0  0  0  0  0
   54.5172   24.5626   45.1079 H   0  0  0  0  0  0  0  0  0  0  0  0
   56.0605   23.6435   45.1079 H   0  0  0  0  0  0  0  0  0  0  0  0
   57.1012   24.6267   48.3030 H   0  0  0  0  0  0  0  0  0  0  0  0
   57.3526   23.5868   46.8600 H   0  0  0  0  0  0  0  0  0  0  0  0
   57.9470   25.2819   46.8600 H   0  0  0  0  0  0  0  0  0  0  0  0
   54.9521   26.6090   45.5705 H   0  0  0  0  0  0  0  0  0  0  0  0
   56.0430   27.0971   46.9767 H   0  0  0  0  0  0  0  0  0  0  0  0
   57.7977   25.9297   45.1948 H   0  0  0  0  0  0  0  0  0  0  0  0
   56.6349   26.8477   44.1288 H   0  0  0  0  0  0  0  0  0  0  0  0
   61.4696   28.5675   47.5067 H   0  0  0  0  0  0  0  0  0  0  0  0
   62.8613   30.5642   48.1904 H   0  0  0  0  0  0  0  0  0  0  0  0
   63.1353   32.0093   46.2999 H   0  0  0  0  0  0  0  0  0  0  0  0
   61.8435   33.1225   46.8935 H   0  0  0  0  0  0  0  0  0  0  0  0
   64.6617   32.7029   47.9318 H   0  0  0  0  0  0  0  0  0  0  0  0
   63.7278   34.2461   47.5271 H   0  0  0  0  0  0  0  0  0  0  0  0
   61.8587   33.5456   50.7232 H   0  0  0  0  0  0  0  0  0  0  0  0
   61.4409   33.9103   49.0067 H   0  0  0  0  0  0  0  0  0  0  0  0
   62.1475   31.1856   50.2109 H   0  0  0  0  0  0  0  0  0  0  0  0
   60.5570   31.7268   49.5325 H   0  0  0  0  0  0  0  0  0  0  0  0
   59.8317   32.8901   44.6022 H   0  0  0  0  0  0  0  0  0  0  0  0
   59.5192   35.3652   44.5539 H   0  0  0  0  0  0  0  0  0  0  0  0
   59.1525   36.6224   46.6801 H   0  0  0  0  0  0  0  0  0  0  0  0
   59.0879   35.4056   48.8585 H   0  0  0  0  0  0  0  0  0  0  0  0
   59.3972   32.9293   48.9132 H   0  0  0  0  0  0  0  0  0  0  0  0
   55.1634   29.4094   44.7825 H   0  0  0  0  0  0  0  0  0  0  0  0
   56.1795   30.2272   43.5474 H   0  0  0  0  0  0  0  0  0  0  0  0
   56.0326   28.4369   43.5474 H   0  0  0  0  0  0  0  0  0  0  0  0
  1  2  1  0
  2  3  1  0
  2  4  1  0
  4  5  1  0
  5  6  1  0
  6  7  1  0
  7  8  2  0
  7  9  1  0
  9 10  2  0
 10 11  1  0
 11 12  1  0
 12 13  1  0
 13 14  1  0
 14 15  1  0
 15 16  1  0
 16 17  1  0
 11 18  1  0
 18 19  1  0
 19 20  2  0
 20 21  1  0
 21 22  2  0
 22 23  1  0
 23 24  2  0
 18 25  2  0
 25 26  1  0
 26 27  2  0
 26 28  1  0
 28 29  1  0
 28  6  1  0
 25  9  1  0
 17 12  1  0
 24 19  1  0
  1 30  1  0
  1 31  1  0
  1 32  1  0
  3 33  1  0
  3 34  1  0
  3 35  1  0
  4 36  1  0
  4 37  1  0
  5 38  1  0
  5 39  1  0
 10 40  1  0
 12 41  1  0
 13 42  1  0
 13 43  1  0
 14 44  1  0
 14 45  1  0
 16 46  1  0
 16 47  1  0
 17 48  1  0
 17 49  1  0
 20 50  1  0
 21 51  1  0
 22 52  1  0
 23 53  1  0
 24 54  1  0
 29 55  1  0
 29 56  1  0
 29 57  1  0
M  END
>  <UniqueID>  (13) 
13

>  <SMILES>  (13) 
CN(C)CCn1c(=O)c2cn(C3CCOCC3)c(-c3ccccc3)c2c(=O)n1C

>  <Energy>  (13) 
126.59822687544161

>  <Genealogy>  (13) 
CN(C)CCn1c(=O)c2cn(C3CCOCC3)c(-c3ccccc3)c2c(=O)n1C (3D coordinates assigned)
CN(C)CCn1c(=O)c2cn(C3CCOCC3)c(-c3ccccc3)c2c(=O)n1C (nonaromatic ring conformer: 126.59822687544161 kcal/mol)

>  <smiles>  (13) 
CN(C)CCn1c(=O)c2cn(C3CCOCC3)c(-c3ccccc3)c2c(=O)n1C

>  <score_type>  (13) 
oracle

>  <origin>  (13) 
adg

>  <m_score__min__energy>  (13) 
-7.8700000000000001

>  <m_primary>  (13) 
energy

$$$$
13:0
     RDKit          3D

 50 54  0  0  0  0  0  0  0  0999 V2000
   55.5160   23.4280   44.0610 C   0  0  0  0  0  0  0  0  0  0  0  0
   56.2960   24.5710   44.6400 C   0  0  0  0  0  0  0  0  0  0  0  0
   57.3890   25.1070   43.9440 C   0  0  0  0  0  0  0  0  0  0  0  0
   58.0920   26.1970   44.4650 C   0  0  0  0  0  0  0  0  0  0  0  0
   57.7140   26.7710   45.6900 C   0  0  0  0  0  0  0  0  0  0  0  0
   58.4460   27.8950   46.2080 N   0  0  0  0  0  0  0  0  0  0  0  0
   59.4100   27.7930   47.1200 N   0  0  0  0  0  0  0  0  0  0  0  0
   59.8830   29.0340   47.3940 C   0  0  0  0  0  0  0  0  0  0  0  0
   59.1750   29.9460   46.6370 C   0  0  0  0  0  0  0  0  0  0  0  0
   59.2070   31.3330   46.4850 C   0  0  0  0  0  0  0  0  0  0  0  0
   60.1000   32.1730   47.2350 N   0  0  0  0  0  0  0  0  0  0  0  0
   59.8620   32.3710   48.6750 C   0  0  0  0  0  0  0  0  0  0  0  0
   60.5690   33.6280   49.1870 C   0  0  0  0  0  0  0  0  0  0  0  0
   61.9620   33.6230   48.7270 N   0  0  0  0  0  0  0  0  0  0  0  0
   63.0460   33.7680   49.6650 C   0  0  0  0  0  0  0  0  0  0  0  0
   62.8950   34.5790   50.8040 C   0  0  0  0  0  0  0  0  0  0  0  0
   63.9400   34.7050   51.7240 C   0  0  0  0  0  0  0  0  0  0  0  0
   65.1420   34.0200   51.5190 C   0  0  0  0  0  0  0  0  0  0  0  0
   65.2990   33.2060   50.3930 C   0  0  0  0  0  0  0  0  0  0  0  0
   66.8050   32.3390   50.1410 Cl  0  0  0  0  0  0  0  0  0  0  0  0
   64.2540   33.0770   49.4710 C   0  0  0  0  0  0  0  0  0  0  0  0
   62.2600   33.3710   47.3090 C   0  0  0  0  0  0  0  0  0  0  0  0
   60.9860   33.0870   46.5010 C   0  0  0  0  0  0  0  0  0  0  0  0
   58.3380   31.8850   45.5840 N   0  0  0  0  0  0  0  0  0  0  0  0
   57.4560   31.1150   44.8710 C   0  0  0  0  0  0  0  0  0  0  0  0
   57.4280   29.7590   45.0360 N   0  0  0  0  0  0  0  0  0  0  0  0
   58.3020   29.2010   45.9080 C   0  0  0  0  0  0  0  0  0  0  0  0
   56.5960   26.2500   46.3690 C   0  0  0  0  0  0  0  0  0  0  0  0
   55.8920   25.1620   45.8450 C   0  0  0  0  0  0  0  0  0  0  0  0
   55.0997   22.8180   44.8762 H   0  0  0  0  0  0  0  0  0  0  0  0
   54.6963   23.8202   43.4411 H   0  0  0  0  0  0  0  0  0  0  0  0
   56.1800   22.8077   43.4411 H   0  0  0  0  0  0  0  0  0  0  0  0
   57.6947   24.6674   42.9831 H   0  0  0  0  0  0  0  0  0  0  0  0
   58.9485   26.6088   43.9110 H   0  0  0  0  0  0  0  0  0  0  0  0
   60.6927   29.2732   48.0991 H   0  0  0  0  0  0  0  0  0  0  0  0
   58.7806   32.4720   48.8490 H   0  0  0  0  0  0  0  0  0  0  0  0
   60.2634   31.5016   49.2163 H   0  0  0  0  0  0  0  0  0  0  0  0
   60.0573   34.5211   48.7990 H   0  0  0  0  0  0  0  0  0  0  0  0
   60.5444   33.6422   50.2866 H   0  0  0  0  0  0  0  0  0  0  0  0
   61.9502   35.1167   50.9718 H   0  0  0  0  0  0  0  0  0  0  0  0
   63.8167   35.3441   52.6108 H   0  0  0  0  0  0  0  0  0  0  0  0
   65.9636   34.1216   52.2433 H   0  0  0  0  0  0  0  0  0  0  0  0
   64.3790   32.4310   48.5895 H   0  0  0  0  0  0  0  0  0  0  0  0
   62.7594   34.2558   46.8873 H   0  0  0  0  0  0  0  0  0  0  0  0
   62.9086   32.4846   47.2480 H   0  0  0  0  0  0  0  0  0  0  0  0
   60.4564   34.0334   46.3168 H   0  0  0  0  0  0  0  0  0  0  0  0
   61.2687   32.6168   45.5476 H   0  0  0  0  0  0  0  0  0  0  0  0
   56.7654   31.5926   44.1604 H   0  0  0  0  0  0  0  0  0  0  0  0
   56.2742   26.7024   47.3186 H   0  0  0  0  0  0  0  0  0  0  0  0
   55.0163   24.7675   46.3812 H   0  0  0  0  0  0  0  0  0  0  0  0
  1  2  1  0
  2  3  2  0
  3  4  1  0
  4  5  2  0
  5  6  1  0
  6  7  1  0
  7  8  2  0
  8  9  1  0
  9 10  2  0
 10 11  1  0
 11 12  1  0
 12 13  1  0
 13 14  1  0
 14 15  1  0
 15 16  2  0
 16 17  1  0
 17 18  2  0
 18 19  1  0
 19 20  1  0
 19 21  2  0
 14 22  1  0
 22 23  1  0
 10 24  1  0
 24 25  2  0
 25 26  1  0
 26 27  2  0
  5 28  1  0
 28 29  2  0
 29  2  1  0
 27  6  1  0
 27  9  1  0
 23 11  1  0
 21 15  1  0
  1 30  1  0
  1 31  1  0
  1 32  1  0
  3 33  1  0
  4 34  1  0
  8 35  1  0
 12 36  1  0
 12 37  1  0
 13 38  1  0
 13 39  1  0
 16 40  1  0
 17 41  1  0
 18 42  1  0
 21 43  1  0
 22 44  1  0
 22 45  1  0
 23 46  1  0
 23 47  1  0
 25 48  1  0
 28 49  1  0
 29 50  1  0
M  END
>  <UniqueID>  (14) 
14

>  <SMILES>  (14) 
Cc1ccc(-n2ncc3c(N4CCN(c5cccc(Cl)c5)CC4)ncnc32)cc1

>  <Energy>  (14) 
110.18954183741143

>  <Genealogy>  (14) 
Cc1ccc(-n2ncc3c(N4CCN(c5cccc(Cl)c5)CC4)ncnc32)cc1 (3D coordinates assigned)
Cc1ccc(-n2ncc3c(N4CCN(c5cccc(Cl)c5)CC4)ncnc32)cc1 (nonaromatic ring conformer: 110.18954183741143 kcal/mol)

>  <smiles>  (14) 
Cc1ccc(-n2ncc3c(N4CCN(c5cccc(Cl)c5)CC4)ncnc32)cc1

>  <score_type>  (14) 
oracle

>  <origin>  (14) 
adg

>  <m_score__min__energy>  (14) 
-8.2100000000000009

>  <m_primary>  (14) 
energy

$$$$
14:0
     RDKit          3D

 53 56  0  0  0  0  0  0  0  0999 V2000
   59.6430   35.4950   45.6820 C   0  0  0  0  0  0  0  0  0  0  0  0
   58.8930   35.0290   46.9240 C   0  0  0  0  0  0  0  0  0  0  0  0
   59.1680   33.6120   47.2070 N   0  0  0  0  0  0  0  0  0  0  0  0
   59.9690   33.3030   48.3650 C   0  0  0  0  0  0  0  0  0  0  0  0
   59.3570   33.0730   49.5610 N   0  0  0  0  0  0  0  0  0  0  0  0
   60.0750   32.7710   50.6750 C   0  0  0  0  0  0  0  0  0  0  0  0
   61.4290   32.7060   50.6220 N   0  0  0  0  0  0  0  0  0  0  0  0
   62.0950   32.9430   49.4630 C   0  0  0  0  0  0  0  0  0  0  0  0
   63.4930   32.8820   49.4360 C   0  0  0  0  0  0  0  0  0  0  0  0
   64.1830   33.1390   48.2490 C   0  0  0  0  0  0  0  0  0  0  0  0
   63.4800   33.4590   47.0840 C   0  0  0  0  0  0  0  0  0  0  0  0
   62.0830   33.5220   47.1000 C   0  0  0  0  0  0  0  0  0  0  0  0
   61.3770   33.2580   48.2890 C   0  0  0  0  0  0  0  0  0  0  0  0
   58.3440   32.5780   46.5430 C   0  0  0  0  0  0  0  0  0  0  0  0
   58.3330   32.7090   45.0050 C   0  0  0  0  0  0  0  0  0  0  0  0
   57.3940   31.6650   44.3610 C   0  0  0  0  0  0  0  0  0  0  0  0
   57.1990   30.4730   45.2180 N   0  0  0  0  0  0  0  0  0  0  0  0
   56.5260   29.3580   44.5150 C   0  0  0  0  0  0  0  0  0  0  0  0
   57.4750   28.2640   43.9620 C   0  0  0  0  0  0  0  0  0  0  0  0
   57.5150   27.0380   44.8270 C   0  0  0  0  0  0  0  0  0  0  0  0
   57.7830   25.7430   44.4010 C   0  0  0  0  0  0  0  0  0  0  0  0
   57.8000   24.8100   45.4450 C   0  0  0  0  0  0  0  0  0  0  0  0
   57.5590   25.3670   46.6940 C   0  0  0  0  0  0  0  0  0  0  0  0
   57.3290   27.0210   46.4990 S   0  0  0  0  0  0  0  0  0  0  0  0
   58.4240   30.0820   45.9350 C   0  0  0  0  0  0  0  0  0  0  0  0
   58.8010   31.1600   46.9660 C   0  0  0  0  0  0  0  0  0  0  0  0
   60.5414   36.0532   45.9841 H   0  0  0  0  0  0  0  0  0  0  0  0
   59.9385   34.6212   45.0827 H   0  0  0  0  0  0  0  0  0  0  0  0
   58.9905   36.1470   45.0827 H   0  0  0  0  0  0  0  0  0  0  0  0
   59.2110   35.6357   47.7847 H   0  0  0  0  0  0  0  0  0  0  0  0
   57.8140   35.1471   46.7459 H   0  0  0  0  0  0  0  0  0  0  0  0
   58.3180   33.1320   49.6370 H   0  0  0  0  0  0  0  0  0  0  0  0
   59.5551   32.5782   51.6250 H   0  0  0  0  0  0  0  0  0  0  0  0
   64.0494   32.6312   50.3512 H   0  0  0  0  0  0  0  0  0  0  0  0
   65.2817   33.0895   48.2310 H   0  0  0  0  0  0  0  0  0  0  0  0
   64.0273   33.6619   46.1517 H   0  0  0  0  0  0  0  0  0  0  0  0
   61.5346   33.7784   46.1815 H   0  0  0  0  0  0  0  0  0  0  0  0
   57.3092   32.7395   46.8792 H   0  0  0  0  0  0  0  0  0  0  0  0
   57.9879   33.7175   44.7335 H   0  0  0  0  0  0  0  0  0  0  0  0
   59.3537   32.5347   44.6337 H   0  0  0  0  0  0  0  0  0  0  0  0
   56.4154   32.1341   44.1811 H   0  0  0  0  0  0  0  0  0  0  0  0
   57.8602   31.3297   43.4228 H   0  0  0  0  0  0  0  0  0  0  0  0
   55.8295   28.8809   45.2202 H   0  0  0  0  0  0  0  0  0  0  0  0
   56.0269   29.8022   43.6412 H   0  0  0  0  0  0  0  0  0  0  0  0
   57.1309   27.9748   42.9580 H   0  0  0  0  0  0  0  0  0  0  0  0
   58.4903   28.6867   43.9390 H   0  0  0  0  0  0  0  0  0  0  0  0
   57.9637   25.4773   43.3490 H   0  0  0  0  0  0  0  0  0  0  0  0
   57.9867   23.7370   45.2903 H   0  0  0  0  0  0  0  0  0  0  0  0
   57.5245   24.8198   47.6476 H   0  0  0  0  0  0  0  0  0  0  0  0
   58.2529   29.1270   46.4534 H   0  0  0  0  0  0  0  0  0  0  0  0
   59.2453   29.9735   45.2113 H   0  0  0  0  0  0  0  0  0  0  0  0
   58.3269   30.9094   47.9264 H   0  0  0  0  0  0  0  0  0  0  0  0
   59.8980   31.1745   47.0452 H   0  0  0  0  0  0  0  0  0  0  0  0
  1  2  1  0
  2  3  1  0
  3  4  1  0
  4  5  2  0
  5  6  1  0
  6  7  2  0
  7  8  1  0
  8  9  2  0
  9 10  1  0
 10 11  2  0
 11 12  1  0
 12 13  2  0
  3 14  1  0
 14 15  1  0
 15 16  1  0
 16 17  1  0
 17 18  1  0
 18 19  1  0
 19 20  1  0
 20 21  2  0
 21 22  1  0
 22 23  2  0
 23 24  1  0
 17 25  1  0
 25 26  1  0
 13  4  1  0
 26 14  1  0
 13  8  1  0
 24 20  1  0
  1 27  1  0
  1 28  1  0
  1 29  1  0
  2 30  1  0
  2 31  1  0
  5 32  1  0
  6 33  1  0
  9 34  1  0
 10 35  1  0
 11 36  1  0
 12 37  1  0
 14 38  1  0
 15 39  1  0
 15 40  1  0
 16 41  1  0
 16 42  1  0
 18 43  1  0
 18 44  1  0
 19 45  1  0
 19 46  1  0
 21 47  1  0
 22 48  1  0
 23 49  1  0
 25 50  1  0
 25 51  1  0
 26 52  1  0
 26 53  1  0
M  CHG  1   5   1
M  END
>  <UniqueID>  (15) 
15

>  <SMILES>  (15) 
CCN(c1[nH+]cnc2ccccc12)C1CCN(CCc2cccs2)CC1

>  <Energy>  (15) 
96.51024974113376

>  <Genealogy>  (15) 
CCN(c1[nH+]cnc2ccccc12)C1CCN(CCc2cccs2)CC1 (protonated)
CCN(c1[nH+]cnc2ccccc12)C1CCN(CCc2cccs2)CC1 (3D coordinates assigned)
CCN(c1[nH+]cnc2ccccc12)C1CCN(CCc2cccs2)CC1 (nonaromatic ring conformer: 96.51024974113376 kcal/mol)

>  <smiles>  (15) 
CCN(c1ncnc2ccccc12)C1CCN(CCc2cccs2)CC1

>  <score_type>  (15) 
oracle

>  <origin>  (15) 
adg

>  <m_score__min__energy>  (15) 
-6.96

>  <m_primary>  (15) 
energy

$$$$
15:0
     RDKit          3D

 44 46  0  0  0  0  0  0  0  0999 V2000
   55.4230   30.2880   52.4480 C   0  0  0  0  0  0  0  0  0  0  0  0
   56.5910   29.9550   51.7050 O   0  0  0  0  0  0  0  0  0  0  0  0
   57.5860   30.8740   51.3390 C   0  0  0  0  0  0  0  0  0  0  0  0
   57.6400   32.0990   52.0150 C   0  0  0  0  0  0  0  0  0  0  0  0
   58.6120   33.0480   51.6880 C   0  0  0  0  0  0  0  0  0  0  0  0
   59.5520   32.7830   50.6810 C   0  0  0  0  0  0  0  0  0  0  0  0
   60.5740   33.8190   50.3000 C   0  0  0  0  0  0  0  0  0  0  0  0
   60.7880   33.8120   48.8540 N   0  0  0  0  0  0  0  0  0  0  0  0
   59.9000   34.4430   47.8950 C   0  0  0  0  0  0  0  0  0  0  0  0
   60.5490   34.2190   46.5050 C   0  0  2  0  0  0  0  0  0  0  0  0
   59.8490   33.1710   45.7520 N   0  0  0  0  0  0  0  0  0  0  0  0
   58.5020   33.3530   45.2810 C   0  0  0  0  0  0  0  0  0  0  0  0
   57.8360   34.3520   45.6690 O   0  0  0  0  0  0  0  0  0  0  0  0
   57.8750   32.3770   44.3580 C   0  0  0  0  0  0  0  0  0  0  0  0
   57.1410   31.2920   44.8720 C   0  0  0  0  0  0  0  0  0  0  0  0
   56.5400   30.3700   44.0100 C   0  0  0  0  0  0  0  0  0  0  0  0
   56.6570   30.5240   42.6270 C   0  0  0  0  0  0  0  0  0  0  0  0
   57.3710   31.6040   42.1040 C   0  0  0  0  0  0  0  0  0  0  0  0
   57.9750   32.5290   42.9610 C   0  0  0  0  0  0  0  0  0  0  0  0
   62.0090   33.7970   46.7740 C   0  0  0  0  0  0  0  0  0  0  0  0
   62.0090   33.4860   48.2180 C   0  0  0  0  0  0  0  0  0  0  0  0
   62.9980   32.9990   48.8280 O   0  0  0  0  0  0  0  0  0  0  0  0
   59.4950   31.5600   49.9950 C   0  0  0  0  0  0  0  0  0  0  0  0
   58.5220   30.6100   50.3220 C   0  0  0  0  0  0  0  0  0  0  0  0
   55.6427   30.2254   53.5240 H   0  0  0  0  0  0  0  0  0  0  0  0
   55.1082   31.3117   52.1970 H   0  0  0  0  0  0  0  0  0  0  0  0
   54.6157   29.5842   52.1970 H   0  0  0  0  0  0  0  0  0  0  0  0
   56.9113   32.3160   52.8099 H   0  0  0  0  0  0  0  0  0  0  0  0
   58.6403   34.0085   52.2233 H   0  0  0  0  0  0  0  0  0  0  0  0
   60.2166   34.8123   50.6092 H   0  0  0  0  0  0  0  0  0  0  0  0
   61.5240   33.5870   50.8037 H   0  0  0  0  0  0  0  0  0  0  0  0
   58.9040   33.9777   47.9318 H   0  0  0  0  0  0  0  0  0  0  0  0
   59.7665   35.5133   48.1111 H   0  0  0  0  0  0  0  0  0  0  0  0
   60.4941   35.1351   45.8985 H   0  0  0  0  0  0  0  0  0  0  0  0
   60.3160   32.2510   45.5960 H   0  0  0  0  0  0  0  0  0  0  0  0
   57.0394   31.1684   45.9603 H   0  0  0  0  0  0  0  0  0  0  0  0
   55.9739   29.5216   44.4219 H   0  0  0  0  0  0  0  0  0  0  0  0
   56.1871   29.7952   41.9502 H   0  0  0  0  0  0  0  0  0  0  0  0
   57.4585   31.7274   41.0145 H   0  0  0  0  0  0  0  0  0  0  0  0
   58.5315   33.3803   42.5420 H   0  0  0  0  0  0  0  0  0  0  0  0
   62.2798   32.9118   46.1797 H   0  0  0  0  0  0  0  0  0  0  0  0
   62.7399   34.5718   46.4993 H   0  0  0  0  0  0  0  0  0  0  0  0
   60.2199   31.3473   49.1954 H   0  0  0  0  0  0  0  0  0  0  0  0
   58.4883   29.6523   49.7818 H   0  0  0  0  0  0  0  0  0  0  0  0
  1  2  1  0
  2  3  1  0
  3  4  2  0
  4  5  1  0
  5  6  2  0
  6  7  1  0
  7  8  1  0
  8  9  1  0
  9 10  1  0
 10 11  1  0
 11 12  1  0
 12 13  2  0
 12 14  1  0
 14 15  2  0
 15 16  1  0
 16 17  2  0
 17 18  1  0
 18 19  2  0
 10 20  1  0
 20 21  1  0
 21 22  2  0
  6 23  1  0
 23 24  2  0
 24  3  1  0
 21  8  1  0
 19 14  1  0
  1 25  1  0
  1 26  1  0
  1 27  1  0
  4 28  1  0
  5 29  1  0
  7 30  1  0
  7 31  1  0
  9 32  1  0
  9 33  1  0
 10 34  1  6
 11 35  1  0
 15 36  1  0
 16 37  1  0
 17 38  1  0
 18 39  1  0
 19 40  1  0
 20 41  1  0
 20 42  1  0
 23 43  1  0
 24 44  1  0
M  END
>  <UniqueID>  (16) 
16

>  <SMILES>  (16) 
COc1ccc(CN2C[C@H](NC(=O)c3ccccc3)CC2=O)cc1

>  <Energy>  (16) 
51.23105901274825

>  <Genealogy>  (16) 
COc1ccc(CN2C[C@H](NC(=O)c3ccccc3)CC2=O)cc1 (chirality)
COc1ccc(CN2C[C@H](NC(=O)c3ccccc3)CC2=O)cc1 (3D coordinates assigned)
COc1ccc(CN2C[C@H](NC(=O)c3ccccc3)CC2=O)cc1 (nonaromatic ring conformer: 51.23105901274825 kcal/mol)

>  <smiles>  (16) 
COc1ccc(CN2CC(NC(=O)c3ccccc3)CC2=O)cc1

>  <score_type>  (16) 
oracle

>  <origin>  (16) 
adg

>  <m_score__min__energy>  (16) 
-7.9800000000000004

>  <m_primary>  (16) 
energy

$$$$
16:0
     RDKit          3D

 56 59  0  0  0  0  0  0  0  0999 V2000
   55.1800   27.7410   53.8960 C   0  0  0  0  0  0  0  0  0  0  0  0
   55.3200   29.2010   53.7520 N   0  0  0  0  0  0  0  0  0  0  0  0
   55.2450   29.8690   55.0640 C   0  0  0  0  0  0  0  0  0  0  0  0
   54.3850   29.7800   52.7540 C   0  0  0  0  0  0  0  0  0  0  0  0
   54.9980   30.8190   51.7870 C   0  0  0  0  0  0  0  0  0  0  0  0
   56.4200   31.0490   52.0400 N   0  0  0  0  0  0  0  0  0  0  0  0
   57.4970   30.1660   51.6980 C   0  0  0  0  0  0  0  0  0  0  0  0
   57.7620   29.2070   52.4700 O   0  0  0  0  0  0  0  0  0  0  0  0
   58.3220   30.3620   50.4920 C   0  0  0  0  0  0  0  0  0  0  0  0
   59.1790   29.3380   50.0610 C   0  0  0  0  0  0  0  0  0  0  0  0
   59.9840   29.5200   48.9340 C   0  0  0  0  0  0  0  0  0  0  0  0
   59.9230   30.7190   48.2180 C   0  0  0  0  0  0  0  0  0  0  0  0
   59.0610   31.7470   48.6300 C   0  0  0  0  0  0  0  0  0  0  0  0
   58.2490   31.5560   49.7580 C   0  0  0  0  0  0  0  0  0  0  0  0
   59.0100   32.9910   47.9060 N   0  0  0  0  0  0  0  0  0  0  0  0
   57.7760   33.3250   47.1820 C   0  0  0  0  0  0  0  0  0  0  0  0
   57.8190   32.7230   45.8030 C   0  0  0  0  0  0  0  0  0  0  0  0
   57.7670   31.3270   45.6480 C   0  0  0  0  0  0  0  0  0  0  0  0
   57.8700   30.7530   44.3780 C   0  0  0  0  0  0  0  0  0  0  0  0
   58.0340   31.5660   43.2530 C   0  0  0  0  0  0  0  0  0  0  0  0
   58.1000   32.9540   43.3980 C   0  0  0  0  0  0  0  0  0  0  0  0
   57.9990   33.5350   44.6670 C   0  0  0  0  0  0  0  0  0  0  0  0
   58.0810   34.8840   44.7860 F   0  0  0  0  0  0  0  0  0  0  0  0
   60.1760   33.8460   47.8010 C   0  0  0  0  0  0  0  0  0  0  0  0
   60.0330   35.0480   47.4450 O   0  0  0  0  0  0  0  0  0  0  0  0
   61.5440   33.3720   48.1400 C   0  0  0  0  0  0  0  0  0  0  0  0
   62.4050   34.2250   48.8540 C   0  0  0  0  0  0  0  0  0  0  0  0
   63.6820   33.7960   49.2260 C   0  0  0  0  0  0  0  0  0  0  0  0
   64.1170   32.5150   48.8840 C   0  0  0  0  0  0  0  0  0  0  0  0
   63.2830   31.6630   48.1580 C   0  0  0  0  0  0  0  0  0  0  0  0
   62.0070   32.0890   47.7670 C   0  0  0  0  0  0  0  0  0  0  0  0
   60.9830   30.9780   46.8040 S   0  0  0  0  0  0  0  0  0  0  0  0
   55.1548   27.4786   54.9640 H   0  0  0  0  0  0  0  0  0  0  0  0
   54.2463   27.4130   53.4158 H   0  0  0  0  0  0  0  0  0  0  0  0
   56.0344   27.2416   53.4158 H   0  0  0  0  0  0  0  0  0  0  0  0
   56.2860   29.3740   53.3830 H   0  0  0  0  0  0  0  0  0  0  0  0
   55.3293   29.1179   55.8632 H   0  0  0  0  0  0  0  0  0  0  0  0
   56.0674   30.5940   55.1539 H   0  0  0  0  0  0  0  0  0  0  0  0
   54.2823   30.3936   55.1539 H   0  0  0  0  0  0  0  0  0  0  0  0
   53.9802   28.9540   52.1507 H   0  0  0  0  0  0  0  0  0  0  0  0
   53.6239   30.3221   53.3344 H   0  0  0  0  0  0  0  0  0  0  0  0
   54.8775   30.4553   50.7559 H   0  0  0  0  0  0  0  0  0  0  0  0
   54.4722   31.7724   51.9437 H   0  0  0  0  0  0  0  0  0  0  0  0
   59.2171   28.3874   50.6132 H   0  0  0  0  0  0  0  0  0  0  0  0
   60.6658   28.7199   48.6100 H   0  0  0  0  0  0  0  0  0  0  0  0
   57.5508   32.3470   50.0691 H   0  0  0  0  0  0  0  0  0  0  0  0
   56.9106   32.9235   47.7296 H   0  0  0  0  0  0  0  0  0  0  0  0
   57.6859   34.4182   47.0999 H   0  0  0  0  0  0  0  0  0  0  0  0
   57.6446   30.6828   46.5312 H   0  0  0  0  0  0  0  0  0  0  0  0
   57.8219   29.6600   44.2636 H   0  0  0  0  0  0  0  0  0  0  0  0
   58.1111   31.1131   42.2535 H   0  0  0  0  0  0  0  0  0  0  0  0
   58.2318   33.5922   42.5118 H   0  0  0  0  0  0  0  0  0  0  0  0
   62.0704   35.2381   49.1218 H   0  0  0  0  0  0  0  0  0  0  0  0
   64.3451   34.4691   49.7892 H   0  0  0  0  0  0  0  0  0  0  0  0
   65.1187   32.1761   49.1870 H   0  0  0  0  0  0  0  0  0  0  0  0
   63.6290   30.6533   47.8919 H   0  0  0  0  0  0  0  0  0  0  0  0
  1  2  1  0
  2  3  1  0
  2  4  1  0
  4  5  1  0
  5  6  1  0
  6  7  1  0
  7  8  2  0
  7  9  1  0
  9 10  2  0
 10 11  1  0
 11 12  2  0
 12 13  1  0
 13 14  2  0
 13 15  1  0
 15 16  1  0
 16 17  1  0
 17 18  2  0
 18 19  1  0
 19 20  2  0
 20 21  1  0
 21 22  2  0
 22 23  1  0
 15 24  1  0
 24 25  2  0
 24 26  1  0
 26 27  2  0
 27 28  1  0
 28 29  2  0
 29 30  1  0
 30 31  2  0
 31 32  1  0
 14  9  1  0
 22 17  1  0
 31 26  1  0
 32 12  1  0
  1 33  1  0
  1 34  1  0
  1 35  1  0
  2 36  1  0
  3 37  1  0
  3 38  1  0
  3 39  1  0
  4 40  1  0
  4 41  1  0
  5 42  1  0
  5 43  1  0
 10 44  1  0
 11 45  1  0
 14 46  1  0
 16 47  1  0
 16 48  1  0
 18 49  1  0
 19 50  1  0
 20 51  1  0
 21 52  1  0
 27 53  1  0
 28 54  1  0
 29 55  1  0
 30 56  1  0
M  CHG  2   2   1   6  -1
M  END
>  <UniqueID>  (17) 
17

>  <SMILES>  (17) 
C[NH+](C)CC[N-]C(=O)c1ccc2c(c1)N(Cc1ccccc1F)C(=O)c1ccccc1S2

>  <Energy>  (17) 
77.96191052257396

>  <Genealogy>  (17) 
C[NH+](C)CC[N-]C(=O)c1ccc2c(c1)N(Cc1ccccc1F)C(=O)c1ccccc1S2 (protonated)
C[NH+](C)CC[N-]C(=O)c1ccc2c(c1)N(Cc1ccccc1F)C(=O)c1ccccc1S2 (3D coordinates assigned)
C[NH+](C)CC[N-]C(=O)c1ccc2c(c1)N(Cc1ccccc1F)C(=O)c1ccccc1S2 (nonaromatic ring conformer: 77.96191052257396 kcal/mol)

>  <smiles>  (17) 
CN(C)CCNC(=O)c1ccc2c(c1)N(Cc1ccccc1F)C(=O)c1ccccc1S2

>  <score_type>  (17) 
oracle

>  <origin>  (17) 
adg

>  <m_score__min__energy>  (17) 
-8.4700000000000006

>  <m_primary>  (17) 
energy

$$$$
17:0
     RDKit          3D

 35 36  0  0  0  0  0  0  0  0999 V2000
   60.8410   27.4530   45.6590 C   0  0  0  0  0  0  0  0  0  0  0  0
   59.3700   27.3090   45.6740 N   0  0  0  0  0  0  0  0  0  0  0  0
   58.5200   28.2980   45.2120 C   0  0  0  0  0  0  0  0  0  0  0  0
   59.0320   29.5490   44.6660 N   0  0  0  0  0  0  0  0  0  0  0  0
   59.5110   30.4630   45.7190 C   0  0  0  0  0  0  0  0  0  0  0  0
   58.7950   31.7910   45.6780 C   0  0  0  0  0  0  0  0  0  0  0  0
   58.7400   32.6040   46.8230 C   0  0  0  0  0  0  0  0  0  0  0  0
   58.0360   33.8110   46.7960 C   0  0  0  0  0  0  0  0  0  0  0  0
   57.3790   34.2140   45.6300 C   0  0  0  0  0  0  0  0  0  0  0  0
   57.4250   33.4080   44.4890 C   0  0  0  0  0  0  0  0  0  0  0  0
   58.1280   32.1990   44.5110 C   0  0  0  0  0  0  0  0  0  0  0  0
   57.1220   28.1020   45.3160 C   0  0  0  0  0  0  0  0  0  0  0  0
   56.1730   29.1040   44.8760 C   0  0  0  0  0  0  0  0  0  0  0  0
   55.4130   29.9030   44.5230 N   0  0  0  0  0  0  0  0  0  0  0  0
   56.6380   26.9180   45.8770 C   0  0  0  0  0  0  0  0  0  0  0  0
   55.3900   26.7470   45.9880 O   0  0  0  0  0  0  0  0  0  0  0  0
   57.5040   25.9570   46.3130 N   0  0  0  0  0  0  0  0  0  0  0  0
   56.9820   24.7260   46.9360 C   0  0  0  0  0  0  0  0  0  0  0  0
   58.8560   26.1700   46.2490 C   0  0  0  0  0  0  0  0  0  0  0  0
   59.6410   25.3050   46.7360 O   0  0  0  0  0  0  0  0  0  0  0  0
   61.2164   27.4897   46.6923 H   0  0  0  0  0  0  0  0  0  0  0  0
   61.2882   26.5943   45.1368 H   0  0  0  0  0  0  0  0  0  0  0  0
   61.1132   28.3821   45.1368 H   0  0  0  0  0  0  0  0  0  0  0  0
   59.7920   29.3620   43.9780 H   0  0  0  0  0  0  0  0  0  0  0  0
   58.3130   30.0480   44.0940 H   0  0  0  0  0  0  0  0  0  0  0  0
   59.3396   29.9964   46.7003 H   0  0  0  0  0  0  0  0  0  0  0  0
   60.5822   30.6472   45.5500 H   0  0  0  0  0  0  0  0  0  0  0  0
   59.2529   32.2892   47.7438 H   0  0  0  0  0  0  0  0  0  0  0  0
   57.9989   34.4451   47.6941 H   0  0  0  0  0  0  0  0  0  0  0  0
   56.8262   35.1648   45.6103 H   0  0  0  0  0  0  0  0  0  0  0  0
   56.9072   33.7252   43.5718 H   0  0  0  0  0  0  0  0  0  0  0  0
   58.1586   31.5659   43.6120 H   0  0  0  0  0  0  0  0  0  0  0  0
   57.0232   24.8233   48.0309 H   0  0  0  0  0  0  0  0  0  0  0  0
   55.9399   24.5690   46.6208 H   0  0  0  0  0  0  0  0  0  0  0  0
   57.5936   23.8678   46.6208 H   0  0  0  0  0  0  0  0  0  0  0  0
  1  2  1  0
  2  3  1  0
  3  4  1  0
  4  5  1  0
  5  6  1  0
  6  7  2  0
  7  8  1  0
  8  9  2  0
  9 10  1  0
 10 11  2  0
  3 12  2  0
 12 13  1  0
 13 14  3  0
 12 15  1  0
 15 16  2  0
 15 17  1  0
 17 18  1  0
 17 19  1  0
 19 20  2  0
 19  2  1  0
 11  6  1  0
  1 21  1  0
  1 22  1  0
  1 23  1  0
  4 24  1  0
  4 25  1  0
  5 26  1  0
  5 27  1  0
  7 28  1  0
  8 29  1  0
  9 30  1  0
 10 31  1  0
 11 32  1  0
 18 33  1  0
 18 34  1  0
 18 35  1  0
M  CHG  1   4   1
M  END
>  <UniqueID>  (18) 
18

>  <SMILES>  (18) 
Cn1c([NH2+]Cc2ccccc2)c(C#N)c(=O)n(C)c1=O

>  <Energy>  (18) 
48.66617261899146

>  <Genealogy>  (18) 
Cn1c([NH2+]Cc2ccccc2)c(C#N)c(=O)n(C)c1=O (protonated)
Cn1c([NH2+]Cc2ccccc2)c(C#N)c(=O)n(C)c1=O (3D coordinates assigned)
Cn1c([NH2+]Cc2ccccc2)c(C#N)c(=O)n(C)c1=O (optimized conformer: 48.66617261899146 kcal/mol)

>  <smiles>  (18) 
Cn1c(NCc2ccccc2)c(C#N)c(=O)n(C)c1=O

>  <score_type>  (18) 
oracle

>  <origin>  (18) 
adg

>  <m_score__min__energy>  (18) 
-5.0599999999999996

>  <m_primary>  (18) 
energy

$$$$
18:0
     RDKit          3D

 49 51  0  0  0  0  0  0  0  0999 V2000
   59.4960   28.8330   45.0930 C   0  0  0  0  0  0  0  0  0  0  0  0
   58.5000   28.9380   46.2410 C   0  0  0  0  0  0  0  0  0  0  0  0
   58.1970   30.3040   46.5250 O   0  0  0  0  0  0  0  0  0  0  0  0
   59.1310   31.3420   46.6640 C   0  0  0  0  0  0  0  0  0  0  0  0
   60.3160   31.2010   47.4230 C   0  0  0  0  0  0  0  0  0  0  0  0
   61.2190   32.2790   47.5730 C   0  0  0  0  0  0  0  0  0  0  0  0
   62.4560   32.1260   48.3820 C   0  0  0  0  0  0  0  0  0  0  0  0
   62.4630   31.3820   49.4990 C   0  0  0  0  0  0  0  0  0  0  0  0
   63.7350   31.2230   50.2790 C   0  0  0  0  0  0  0  0  0  0  0  0
   64.4240   32.5840   50.4330 C   0  0  0  0  0  0  0  0  0  0  0  0
   64.5580   33.3520   49.0930 C   0  0  0  0  0  0  0  0  0  0  0  0
   63.7590   32.7420   47.9210 C   0  0  0  0  0  0  0  0  0  0  0  0
   60.9250   33.5130   46.9620 C   0  0  0  0  0  0  0  0  0  0  0  0
   59.7610   33.6320   46.2080 C   0  0  0  0  0  0  0  0  0  0  0  0
   58.9000   32.5810   46.0400 C   0  0  0  0  0  0  0  0  0  0  0  0
   57.7920   32.9680   45.2320 N   0  0  0  0  0  0  0  0  0  0  0  0
   56.6660   32.1400   44.7940 C   0  0  0  0  0  0  0  0  0  0  0  0
   57.0840   31.1560   43.6880 C   0  0  0  0  0  0  0  0  0  0  0  0
   56.3360   29.8230   43.7570 C   0  0  0  0  0  0  0  0  0  0  0  0
   55.6070   29.7350   44.9500 O   0  0  0  0  0  0  0  0  0  0  0  0
   57.9100   34.3930   44.9200 C   0  0  0  0  0  0  0  0  0  0  0  0
   59.2630   34.8470   45.5080 C   0  0  0  0  0  0  0  0  0  0  0  0
   60.5129   28.7258   45.4985 H   0  0  0  0  0  0  0  0  0  0  0  0
   59.2530   27.9555   44.4758 H   0  0  0  0  0  0  0  0  0  0  0  0
   59.4413   29.7419   44.4758 H   0  0  0  0  0  0  0  0  0  0  0  0
   57.5738   28.4130   45.9642 H   0  0  0  0  0  0  0  0  0  0  0  0
   58.9452   28.4815   47.1373 H   0  0  0  0  0  0  0  0  0  0  0  0
   60.5389   30.2374   47.9044 H   0  0  0  0  0  0  0  0  0  0  0  0
   61.5402   30.8908   49.8413 H   0  0  0  0  0  0  0  0  0  0  0  0
   63.5043   30.8159   51.2745 H   0  0  0  0  0  0  0  0  0  0  0  0
   64.4057   30.5352   49.7433 H   0  0  0  0  0  0  0  0  0  0  0  0
   63.8354   33.1975   51.1310 H   0  0  0  0  0  0  0  0  0  0  0  0
   65.4413   32.3965   50.8071 H   0  0  0  0  0  0  0  0  0  0  0  0
   64.2042   34.3816   49.2506 H   0  0  0  0  0  0  0  0  0  0  0  0
   65.6192   33.2998   48.8080 H   0  0  0  0  0  0  0  0  0  0  0  0
   63.5382   33.5349   47.1912 H   0  0  0  0  0  0  0  0  0  0  0  0
   64.3705   31.9458   47.4714 H   0  0  0  0  0  0  0  0  0  0  0  0
   61.6048   34.3699   47.0787 H   0  0  0  0  0  0  0  0  0  0  0  0
   56.2862   31.5697   45.6545 H   0  0  0  0  0  0  0  0  0  0  0  0
   55.8880   32.8035   44.3885 H   0  0  0  0  0  0  0  0  0  0  0  0
   56.8824   31.6205   42.7115 H   0  0  0  0  0  0  0  0  0  0  0  0
   58.1534   30.9398   43.8281 H   0  0  0  0  0  0  0  0  0  0  0  0
   55.6456   29.7499   42.9038 H   0  0  0  0  0  0  0  0  0  0  0  0
   57.0663   29.0011   43.7228 H   0  0  0  0  0  0  0  0  0  0  0  0
   56.2030   30.0830   45.6620 H   0  0  0  0  0  0  0  0  0  0  0  0
   57.8951   34.5483   43.8311 H   0  0  0  0  0  0  0  0  0  0  0  0
   57.0735   34.9686   45.3431 H   0  0  0  0  0  0  0  0  0  0  0  0
   59.9558   35.1532   44.7103 H   0  0  0  0  0  0  0  0  0  0  0  0
   59.1710   35.7181   46.1734 H   0  0  0  0  0  0  0  0  0  0  0  0
  1  2  1  0
  2  3  1  0
  3  4  1  0
  4  5  2  0
  5  6  1  0
  6  7  1  0
  7  8  2  0
  8  9  1  0
  9 10  1  0
 10 11  1  0
 11 12  1  0
  6 13  2  0
 13 14  1  0
 14 15  2  0
 15 16  1  0
 16 17  1  0
 17 18  1  0
 18 19  1  0
 19 20  1  0
 16 21  1  0
 21 22  1  0
 15  4  1  0
 12  7  1  0
 22 14  1  0
  1 23  1  0
  1 24  1  0
  1 25  1  0
  2 26  1  0
  2 27  1  0
  5 28  1  0
  8 29  1  0
  9 30  1  0
  9 31  1  0
 10 32  1  0
 10 33  1  0
 11 34  1  0
 11 35  1  0
 12 36  1  0
 12 37  1  0
 13 38  1  0
 17 39  1  0
 17 40  1  0
 18 41  1  0
 18 42  1  0
 19 43  1  0
 19 44  1  0
 20 45  1  0
 21 46  1  0
 21 47  1  0
 22 48  1  0
 22 49  1  0
M  END
>  <UniqueID>  (19) 
19

>  <SMILES>  (19) 
CCOc1cc(C2=CCCCC2)cc2c1N(CCCO)CC2

>  <Energy>  (19) 
62.03269065263779

>  <Genealogy>  (19) 
CCOc1cc(C2=CCCCC2)cc2c1N(CCCO)CC2 (3D coordinates assigned)
CCOc1cc(C2=CCCCC2)cc2c1N(CCCO)CC2 (nonaromatic ring conformer: 62.03269065263779 kcal/mol)

>  <smiles>  (19) 
CCOc1cc(C2=CCCCC2)cc2c1N(CCCO)CC2

>  <score_type>  (19) 
oracle

>  <origin>  (19) 
adg

>  <m_score__min__energy>  (19) 
-8.0399999999999991

>  <m_primary>  (19) 
energy

$$$$
19:0
     RDKit          3D

 61 64  0  0  0  0  0  0  0  0999 V2000
   56.2920   27.9080   44.1570 H   0  0  0  0  0  0  0  0  0  0  0  0
   56.8360   28.7660   44.3860 N   0  0  0  0  0  0  0  0  0  0  0  0
   57.6720   28.9190   45.3740 C   0  0  0  0  0  0  0  0  0  0  0  0
   57.7340   27.9040   46.3540 C   0  0  0  0  0  0  0  0  0  0  0  0
   56.8450   26.7170   46.3200 C   0  0  0  0  0  0  0  0  0  0  0  0
   55.6410   26.8600   45.9720 O   0  0  0  0  0  0  0  0  0  0  0  0
   57.3500   25.4100   46.6360 N   0  0  0  0  0  0  0  0  0  0  0  0
   58.3740   25.2790   46.7970 H   0  0  0  0  0  0  0  0  0  0  0  0
   56.4900   24.2300   46.6790 C   0  0  0  0  0  0  0  0  0  0  0  0
   56.9665   23.4558   47.2983 H   0  0  0  0  0  0  0  0  0  0  0  0
   55.5176   24.5109   47.1098 H   0  0  0  0  0  0  0  0  0  0  0  0
   56.2750   23.6950   45.2990 C   0  0  0  0  0  0  0  0  0  0  0  0
   55.2060   23.9330   44.5770 O   0  0  0  0  0  0  0  0  0  0  0  0
   55.3480   23.3400   43.4150 C   0  0  0  0  0  0  0  0  0  0  0  0
   54.6102   23.3603   42.5994 H   0  0  0  0  0  0  0  0  0  0  0  0
   56.5630   22.6870   43.3710 C   0  0  0  0  0  0  0  0  0  0  0  0
   56.9685   22.1016   42.5326 H   0  0  0  0  0  0  0  0  0  0  0  0
   57.1660   22.9160   44.5890 C   0  0  0  0  0  0  0  0  0  0  0  0
   58.1493   22.5544   44.9243 H   0  0  0  0  0  0  0  0  0  0  0  0
   58.6760   28.0000   47.3770 C   0  0  0  0  0  0  0  0  0  0  0  0
   58.7611   27.1923   48.1189 H   0  0  0  0  0  0  0  0  0  0  0  0
   59.5110   29.1130   47.4660 C   0  0  0  0  0  0  0  0  0  0  0  0
   60.4550   29.2510   48.5030 C   0  0  0  0  0  0  0  0  0  0  0  0
   60.5680   28.3340   49.3660 O   0  0  0  0  0  0  0  0  0  0  0  0
   61.2420   30.3730   48.5780 N   0  0  0  0  0  0  0  0  0  0  0  0
   62.1590   30.5120   49.5900 C   0  0  0  0  0  0  0  0  0  0  0  0
   62.2678   29.7116   50.3366 H   0  0  0  0  0  0  0  0  0  0  0  0
   62.9530   31.6510   49.6850 C   0  0  0  0  0  0  0  0  0  0  0  0
   63.6885   31.7460   50.4974 H   0  0  0  0  0  0  0  0  0  0  0  0
   62.8120   32.6670   48.7490 C   0  0  0  0  0  0  0  0  0  0  0  0
   63.4368   33.5696   48.8201 H   0  0  0  0  0  0  0  0  0  0  0  0
   61.8780   32.5450   47.7170 C   0  0  0  0  0  0  0  0  0  0  0  0
   61.7590   33.6640   46.7170 C   0  0  0  0  0  0  0  0  0  0  0  0
   61.6572   34.6216   47.2487 H   0  0  0  0  0  0  0  0  0  0  0  0
   62.6595   33.6890   46.0858 H   0  0  0  0  0  0  0  0  0  0  0  0
   60.8733   33.4991   46.0858 H   0  0  0  0  0  0  0  0  0  0  0  0
   61.1040   31.3680   47.6320 C   0  0  0  0  0  0  0  0  0  0  0  0
   60.2100   31.2190   46.6200 N   0  0  0  0  0  0  0  0  0  0  0  0
   59.4070   30.1280   46.5020 C   0  0  0  0  0  0  0  0  0  0  0  0
   58.5110   30.0210   45.4570 N   0  0  0  0  0  0  0  0  0  0  0  0
   58.5070   31.0650   44.4020 C   0  0  0  0  0  0  0  0  0  0  0  0
   59.4503   31.6286   44.4523 H   0  0  0  0  0  0  0  0  0  0  0  0
   58.4001   30.5705   43.4252 H   0  0  0  0  0  0  0  0  0  0  0  0
   57.3330   32.0380   44.5830 C   0  0  0  0  0  0  0  0  0  0  0  0
   56.9605   32.3456   43.5948 H   0  0  0  0  0  0  0  0  0  0  0  0
   56.5333   31.5345   45.1460 H   0  0  0  0  0  0  0  0  0  0  0  0
   57.7730   33.2380   45.3360 N   0  0  0  0  0  0  0  0  0  0  0  0
   59.1460   33.6690   44.9960 C   0  0  0  0  0  0  0  0  0  0  0  0
   59.8378   33.3205   45.7770 H   0  0  0  0  0  0  0  0  0  0  0  0
   59.4214   33.2375   44.0223 H   0  0  0  0  0  0  0  0  0  0  0  0
   59.2250   35.1890   44.8990 C   0  0  0  0  0  0  0  0  0  0  0  0
   59.2474   35.6203   45.9107 H   0  0  0  0  0  0  0  0  0  0  0  0
   60.1392   35.4749   44.3582 H   0  0  0  0  0  0  0  0  0  0  0  0
   58.3453   35.5681   44.3582 H   0  0  0  0  0  0  0  0  0  0  0  0
   57.5580   33.1140   46.7980 C   0  0  0  0  0  0  0  0  0  0  0  0
   56.5836   33.5618   47.0432 H   0  0  0  0  0  0  0  0  0  0  0  0
   57.6040   32.0410   47.0357 H   0  0  0  0  0  0  0  0  0  0  0  0
   58.6350   33.8040   47.6510 C   0  0  0  0  0  0  0  0  0  0  0  0
   58.4074   33.6582   48.7173 H   0  0  0  0  0  0  0  0  0  0  0  0
   59.6186   33.3675   47.4230 H   0  0  0  0  0  0  0  0  0  0  0  0
   58.6496   34.8800   47.4230 H   0  0  0  0  0  0  0  0  0  0  0  0
  1  2  1  0
  2  3  2  0
  3  4  1  0
  4  5  1  0
  5  6  2  0
  5  7  1  0
  7  8  1  0
  7  9  1  0
  9 10  1  0
  9 11  1  0
  9 12  1  0
 12 13  1  0
 13 14  1  0
 14 15  1  0
 14 16  2  0
 16 17  1  0
 16 18  1  0
 18 19  1  0
  4 20  2  0
 20 21  1  0
 20 22  1  0
 22 23  1  0
 23 24  2  0
 23 25  1  0
 25 26  1  0
 26 27  1  0
 26 28  2  0
 28 29  1  0
 28 30  1  0
 30 31  1  0
 30 32  2  0
 32 33  1  0
 33 34  1  0
 33 35  1  0
 33 36  1  0
 32 37  1  0
 37 38  2  0
 38 39  1  0
 39 40  1  0
 40 41  1  0
 41 42  1  0
 41 43  1  0
 41 44  1  0
 44 45  1  0
 44 46  1  0
 44 47  1  0
 47 48  1  0
 48 49  1  0
 48 50  1  0
 48 51  1  0
 51 52  1  0
 51 53  1  0
 51 54  1  0
 47 55  1  0
 55 56  1  0
 55 57  1  0
 55 58  1  0
 58 59  1  0
 58 60  1  0
 58 61  1  0
 40  3  1  0
 18 12  2  0
 39 22  2  0
 37 25  1  0
M  END
>  <UniqueID>  (20) 
20

>  <SMILES>  (20) 
[H]/N=c1/c(C(=O)NCc2ccco2)cc2c(=O)n3cccc(C)c3nc2n1CCN(CC)CC

>  <Energy>  (20) 
109.09326233599108

>  <Genealogy>  (20) 
[H]/N=c1/c(C(=O)NCc2ccco2)cc2c(=O)n3cccc(C)c3nc2n1CCN(CC)CC (cis-trans isomerization)
[H]/N=c1/c(C(=O)NCc2ccco2)cc2c(=O)n3cccc(C)c3nc2n1CCN(CC)CC (3D coordinates assigned)
[H]/N=c1/c(C(=O)NCc2ccco2)cc2c(=O)n3cccc(C)c3nc2n1CCN(CC)CC (optimized conformer: 109.09326233599108 kcal/mol)

>  <smiles>  (20) 
CCN(CC)CCn1c(=N)c(C(=O)NCc2ccco2)cc2c(=O)n3cccc(C)c3nc21

>  <score_type>  (20) 
oracle

>  <origin>  (20) 
adg

>  <m_score__min__energy>  (20) 
-8.2300000000000004

>  <m_primary>  (20) 
energy

$$$$
20:0
     RDKit          3D

 44 47  0  0  0  0  0  0  0  0999 V2000
   56.5320   25.2580   45.3400 C   0  0  0  0  0  0  0  0  0  0  0  0
   56.1300   26.5870   45.6600 O   0  0  0  0  0  0  0  0  0  0  0  0
   57.0070   27.6160   46.0380 C   0  0  0  0  0  0  0  0  0  0  0  0
   58.1440   27.3750   46.8260 C   0  0  0  0  0  0  0  0  0  0  0  0
   59.0080   28.4200   47.1810 C   0  0  0  0  0  0  0  0  0  0  0  0
   58.7640   29.7280   46.7060 C   0  0  0  0  0  0  0  0  0  0  0  0
   57.5850   29.9730   45.9710 C   0  0  0  0  0  0  0  0  0  0  0  0
   56.7180   28.9210   45.6230 C   0  0  0  0  0  0  0  0  0  0  0  0
   55.5530   29.1330   44.8670 O   0  0  0  0  0  0  0  0  0  0  0  0
   55.5250   29.7140   43.5660 C   0  0  0  0  0  0  0  0  0  0  0  0
   59.8010   30.7960   47.0480 C   0  0  1  0  0  0  0  0  0  0  0  0
   59.4340   32.2420   46.6920 C   0  0  0  0  0  0  0  0  0  0  0  0
   59.1970   32.5940   45.3480 C   0  0  0  0  0  0  0  0  0  0  0  0
   58.8960   33.9110   44.9950 C   0  0  0  0  0  0  0  0  0  0  0  0
   58.8850   34.9090   45.9690 C   0  0  0  0  0  0  0  0  0  0  0  0
   59.2230   34.6000   47.2870 C   0  0  0  0  0  0  0  0  0  0  0  0
   59.5470   33.2810   47.6450 C   0  0  0  0  0  0  0  0  0  0  0  0
   60.0650   33.0030   49.0260 C   0  0  0  0  0  0  0  0  0  0  0  0
   60.9410   31.7500   49.0140 C   0  0  0  0  0  0  0  0  0  0  0  0
   60.1710   30.6130   48.4790 N   0  0  2  0  0  0  0  0  0  0  0  0
   60.9400   29.3570   48.6160 C   0  0  0  0  0  0  0  0  0  0  0  0
   60.1180   28.1250   48.1710 C   0  0  0  0  0  0  0  0  0  0  0  0
   56.7029   24.6931   46.2683 H   0  0  0  0  0  0  0  0  0  0  0  0
   55.7421   24.7674   44.7524 H   0  0  0  0  0  0  0  0  0  0  0  0
   57.4614   25.2875   44.7524 H   0  0  0  0  0  0  0  0  0  0  0  0
   58.3595   26.3524   47.1693 H   0  0  0  0  0  0  0  0  0  0  0  0
   57.3401   31.0010   45.6657 H   0  0  0  0  0  0  0  0  0  0  0  0
   55.4722   30.8092   43.6546 H   0  0  0  0  0  0  0  0  0  0  0  0
   56.4377   29.4339   43.0196 H   0  0  0  0  0  0  0  0  0  0  0  0
   54.6435   29.3474   43.0196 H   0  0  0  0  0  0  0  0  0  0  0  0
   60.6705   30.6393   46.3927 H   0  0  0  0  0  0  0  0  0  0  0  0
   59.2498   31.8212   44.5670 H   0  0  0  0  0  0  0  0  0  0  0  0
   58.6675   34.1613   43.9485 H   0  0  0  0  0  0  0  0  0  0  0  0
   58.6100   35.9391   45.6984 H   0  0  0  0  0  0  0  0  0  0  0  0
   59.2358   35.3930   48.0492 H   0  0  0  0  0  0  0  0  0  0  0  0
   60.6610   33.8608   49.3709 H   0  0  0  0  0  0  0  0  0  0  0  0
   59.2145   32.8423   49.7049 H   0  0  0  0  0  0  0  0  0  0  0  0
   61.8225   31.9258   48.3799 H   0  0  0  0  0  0  0  0  0  0  0  0
   61.2649   31.5211   50.0400 H   0  0  0  0  0  0  0  0  0  0  0  0
   59.3000   30.5210   49.0600 H   0  0  0  0  0  0  0  0  0  0  0  0
   61.8446   29.4244   47.9938 H   0  0  0  0  0  0  0  0  0  0  0  0
   61.1971   29.2293   49.6779 H   0  0  0  0  0  0  0  0  0  0  0  0
   60.8072   27.4044   47.7065 H   0  0  0  0  0  0  0  0  0  0  0  0
   59.6280   27.7384   49.0768 H   0  0  0  0  0  0  0  0  0  0  0  0
  1  2  1  0
  2  3  1  0
  3  4  2  0
  4  5  1  0
  5  6  2  0
  6  7  1  0
  7  8  2  0
  8  9  1  0
  9 10  1  0
  6 11  1  0
 11 12  1  0
 12 13  2  0
 13 14  1  0
 14 15  2  0
 15 16  1  0
 16 17  2  0
 17 18  1  0
 18 19  1  0
 19 20  1  0
 20 21  1  0
 21 22  1  0
  8  3  1  0
 20 11  1  0
 22  5  1  0
 17 12  1  0
  1 23  1  0
  1 24  1  0
  1 25  1  0
  4 26  1  0
  7 27  1  0
 10 28  1  0
 10 29  1  0
 10 30  1  0
 11 31  1  6
 13 32  1  0
 14 33  1  0
 15 34  1  0
 16 35  1  0
 18 36  1  0
 18 37  1  0
 19 38  1  0
 19 39  1  0
 20 40  1  1
 21 41  1  0
 21 42  1  0
 22 43  1  0
 22 44  1  0
M  CHG  1  20   1
M  END
>  <UniqueID>  (21) 
21

>  <SMILES>  (21) 
COc1cc2c(cc1OC)[C@H]1c3ccccc3CC[N@@H+]1CC2

>  <Energy>  (21) 
66.17719911087397

>  <Genealogy>  (21) 
COc1cc2c(cc1OC)C1c3ccccc3CC[NH+]1CC2 (protonated)
COc1cc2c(cc1OC)[C@H]1c3ccccc3CC[N@@H+]1CC2 (chirality)
COc1cc2c(cc1OC)[C@H]1c3ccccc3CC[N@@H+]1CC2 (3D coordinates assigned)
COc1cc2c(cc1OC)[C@H]1c3ccccc3CC[N@@H+]1CC2 (nonaromatic ring conformer: 66.17719911087397 kcal/mol)

>  <smiles>  (21) 
COc1cc2c(cc1OC)C1c3ccccc3CCN1CC2

>  <score_type>  (21) 
oracle

>  <origin>  (21) 
adg

>  <m_score__min__energy>  (21) 
-5.8499999999999996

>  <m_primary>  (21) 
energy

$$$$
21:0
     RDKit          3D

 47 49  0  0  0  0  0  0  0  0999 V2000
   57.7390   30.2480   51.9570 C   0  0  0  0  0  0  0  0  0  0  0  0
   58.1480   29.6810   50.7160 O   0  0  0  0  0  0  0  0  0  0  0  0
   59.0820   30.2650   49.8460 C   0  0  0  0  0  0  0  0  0  0  0  0
   59.8270   31.3500   50.3080 C   0  0  0  0  0  0  0  0  0  0  0  0
   60.7620   31.9700   49.4810 C   0  0  0  0  0  0  0  0  0  0  0  0
   60.9630   31.5190   48.1710 C   0  0  0  0  0  0  0  0  0  0  0  0
   62.1140   32.3890   47.1640 S   0  0  0  0  0  0  0  0  0  0  0  0
   63.6360   32.4030   47.8740 O   0  0  0  0  0  0  0  0  0  0  0  0
   61.5580   34.0380   46.7830 C   0  0  0  0  0  0  0  0  0  0  0  0
   60.1260   34.0090   46.3310 C   0  0  0  0  0  0  0  0  0  0  0  0
   59.8040   34.2190   44.9810 C   0  0  0  0  0  0  0  0  0  0  0  0
   58.4720   34.1710   44.5580 C   0  0  0  0  0  0  0  0  0  0  0  0
   57.4560   33.8950   45.4760 C   0  0  0  0  0  0  0  0  0  0  0  0
   57.7700   33.6610   46.8180 C   0  0  0  0  0  0  0  0  0  0  0  0
   56.7840   33.3770   47.7040 F   0  0  0  0  0  0  0  0  0  0  0  0
   59.0990   33.7180   47.2450 C   0  0  0  0  0  0  0  0  0  0  0  0
   60.2250   30.4160   47.6800 C   0  0  0  0  0  0  0  0  0  0  0  0
   60.4350   29.9310   46.3330 N   0  0  0  0  0  0  0  0  0  0  0  0
   59.7830   28.7520   45.7600 C   0  0  0  0  0  0  0  0  0  0  0  0
   58.6800   29.1590   44.8190 C   0  0  0  0  0  0  0  0  0  0  0  0
   58.3150   30.5060   44.7000 C   0  0  0  0  0  0  0  0  0  0  0  0
   57.3070   30.8800   43.8100 C   0  0  0  0  0  0  0  0  0  0  0  0
   56.6640   29.9000   43.0530 C   0  0  0  0  0  0  0  0  0  0  0  0
   57.0280   28.5950   43.1740 N   0  0  0  0  0  0  0  0  0  0  0  0
   58.0160   28.2080   44.0270 C   0  0  0  0  0  0  0  0  0  0  0  0
   59.2910   29.7950   48.5360 C   0  0  0  0  0  0  0  0  0  0  0  0
   58.1623   29.6611   52.7855 H   0  0  0  0  0  0  0  0  0  0  0  0
   58.0978   31.2858   52.0219 H   0  0  0  0  0  0  0  0  0  0  0  0
   56.6410   30.2349   52.0219 H   0  0  0  0  0  0  0  0  0  0  0  0
   59.6754   31.7192   51.3330 H   0  0  0  0  0  0  0  0  0  0  0  0
   61.3468   32.8207   49.8608 H   0  0  0  0  0  0  0  0  0  0  0  0
   64.2350   32.0280   47.1820 H   0  0  0  0  0  0  0  0  0  0  0  0
   61.6432   34.6672   47.6813 H   0  0  0  0  0  0  0  0  0  0  0  0
   62.1816   34.4505   45.9762 H   0  0  0  0  0  0  0  0  0  0  0  0
   60.6029   34.4222   44.2527 H   0  0  0  0  0  0  0  0  0  0  0  0
   58.2241   34.3507   43.5015 H   0  0  0  0  0  0  0  0  0  0  0  0
   56.4082   33.8618   45.1428 H   0  0  0  0  0  0  0  0  0  0  0  0
   59.3427   33.5342   48.3018 H   0  0  0  0  0  0  0  0  0  0  0  0
   61.0960   30.4350   45.7020 H   0  0  0  0  0  0  0  0  0  0  0  0
   60.5279   28.1595   45.2086 H   0  0  0  0  0  0  0  0  0  0  0  0
   59.3496   28.1555   46.5763 H   0  0  0  0  0  0  0  0  0  0  0  0
   58.8228   31.2692   45.3080 H   0  0  0  0  0  0  0  0  0  0  0  0
   57.0222   31.9374   43.7063 H   0  0  0  0  0  0  0  0  0  0  0  0
   55.8609   30.1834   42.3568 H   0  0  0  0  0  0  0  0  0  0  0  0
   56.5410   27.8730   42.5970 H   0  0  0  0  0  0  0  0  0  0  0  0
   58.2953   27.1463   44.0962 H   0  0  0  0  0  0  0  0  0  0  0  0
   58.7169   28.9295   48.1736 H   0  0  0  0  0  0  0  0  0  0  0  0
  1  2  1  0
  2  3  1  0
  3  4  2  0
  4  5  1  0
  5  6  2  0
  6  7  1  0
  7  8  1  1
  7  9  1  0
  9 10  1  0
 10 11  2  0
 11 12  1  0
 12 13  2  0
 13 14  1  0
 14 15  1  0
 14 16  2  0
  6 17  1  0
 17 18  1  0
 18 19  1  0
 19 20  1  0
 20 21  2  0
 21 22  1  0
 22 23  2  0
 23 24  1  0
 24 25  2  0
 17 26  2  0
 26  3  1  0
 16 10  1  0
 25 20  1  0
  1 27  1  0
  1 28  1  0
  1 29  1  0
  4 30  1  0
  5 31  1  0
  8 32  1  0
  9 33  1  0
  9 34  1  0
 11 35  1  0
 12 36  1  0
 13 37  1  0
 16 38  1  0
 18 39  1  0
 19 40  1  0
 19 41  1  0
 21 42  1  0
 22 43  1  0
 23 44  1  0
 24 45  1  0
 25 46  1  0
 26 47  1  0
M  CHG  2   7   1  24   1
M  END
>  <UniqueID>  (22) 
22

>  <SMILES>  (22) 
COc1ccc([S@+](O)Cc2cccc(F)c2)c(NCc2ccc[nH+]c2)c1

>  <Energy>  (22) 
40.002100237263306

>  <Genealogy>  (22) 
COc1ccc([S+](O)Cc2cccc(F)c2)c(NCc2ccc[nH+]c2)c1 (protonated)
COc1ccc([S@+](O)Cc2cccc(F)c2)c(NCc2ccc[nH+]c2)c1 (chirality)
COc1ccc([S@+](O)Cc2cccc(F)c2)c(NCc2ccc[nH+]c2)c1 (3D coordinates assigned)
COc1ccc([S@+](O)Cc2cccc(F)c2)c(NCc2ccc[nH+]c2)c1 (optimized conformer: 40.002100237263306 kcal/mol)

>  <smiles>  (22) 
COc1ccc([S+]([O-])Cc2cccc(F)c2)c(NCc2cccnc2)c1

>  <score_type>  (22) 
oracle

>  <origin>  (22) 
adg

>  <m_score__min__energy>  (22) 
-5.2000000000000002

>  <m_primary>  (22) 
energy

$$$$
22:0
     RDKit          3D

 27 28  0  0  0  0  0  0  0  0999 V2000
   58.7290   24.7990   45.9460 C   0  0  0  0  0  0  0  0  0  0  0  0
   57.3250   25.1720   46.0760 N   0  0  0  0  0  0  0  0  0  0  0  0
   56.2760   24.3320   46.1020 C   0  0  0  0  0  0  0  0  0  0  0  0
   55.1110   25.0060   46.0620 N   0  0  0  0  0  0  0  0  0  0  0  0
   55.4080   26.2970   46.0040 N   0  0  0  0  0  0  0  0  0  0  0  0
   56.7510   26.3910   46.0180 C   0  0  0  0  0  0  0  0  0  0  0  0
   57.4660   27.6740   45.9460 C   0  0  0  0  0  0  0  0  0  0  0  0
   57.9880   28.1360   46.9940 O   0  0  0  0  0  0  0  0  0  0  0  0
   57.6220   28.3960   44.7180 N   0  0  0  0  0  0  0  0  0  0  0  0
   56.7140   29.8020   44.2540 S   0  0  0  0  0  0  0  0  0  0  0  0
   55.3460   29.7220   44.8680 O   0  0  0  0  0  0  0  0  0  0  0  0
   56.5700   29.8350   42.7590 O   0  0  0  0  0  0  0  0  0  0  0  0
   57.4890   31.2740   44.8350 C   0  0  0  0  0  0  0  0  0  0  0  0
   58.1360   31.3000   46.0800 C   0  0  0  0  0  0  0  0  0  0  0  0
   58.7170   32.4850   46.5440 C   0  0  0  0  0  0  0  0  0  0  0  0
   58.6570   33.6450   45.7660 C   0  0  0  0  0  0  0  0  0  0  0  0
   58.0170   33.6220   44.5240 C   0  0  0  0  0  0  0  0  0  0  0  0
   57.4360   32.4390   44.0570 C   0  0  0  0  0  0  0  0  0  0  0  0
   59.1713   24.6815   46.9463 H   0  0  0  0  0  0  0  0  0  0  0  0
   58.8067   23.8491   45.3968 H   0  0  0  0  0  0  0  0  0  0  0  0
   59.2679   25.5851   45.3968 H   0  0  0  0  0  0  0  0  0  0  0  0
   56.3585   23.2361   46.1498 H   0  0  0  0  0  0  0  0  0  0  0  0
   58.1864   30.3873   46.6919 H   0  0  0  0  0  0  0  0  0  0  0  0
   59.2213   32.5041   47.5214 H   0  0  0  0  0  0  0  0  0  0  0  0
   59.1139   34.5764   46.1318 H   0  0  0  0  0  0  0  0  0  0  0  0
   57.9702   34.5355   43.9130 H   0  0  0  0  0  0  0  0  0  0  0  0
   56.9363   32.4224   43.0772 H   0  0  0  0  0  0  0  0  0  0  0  0
  1  2  1  0
  2  3  1  0
  3  4  2  0
  4  5  1  0
  5  6  2  0
  6  7  1  0
  7  8  2  0
  7  9  1  0
  9 10  1  0
 10 11  2  0
 10 12  2  0
 10 13  1  0
 13 14  2  0
 14 15  1  0
 15 16  2  0
 16 17  1  0
 17 18  2  0
  6  2  1  0
 18 13  1  0
  1 19  1  0
  1 20  1  0
  1 21  1  0
  3 22  1  0
 14 23  1  0
 15 24  1  0
 16 25  1  0
 17 26  1  0
 18 27  1  0
M  CHG  1   9  -1
M  END
>  <UniqueID>  (23) 
23

>  <SMILES>  (23) 
Cn1cnnc1C(=O)[N-]S(=O)(=O)c1ccccc1

>  <Energy>  (23) 
68.5491200497488

>  <Genealogy>  (23) 
Cn1cnnc1C(=O)[N-]S(=O)(=O)c1ccccc1 (protonated)
Cn1cnnc1C(=O)[N-]S(=O)(=O)c1ccccc1 (3D coordinates assigned)
Cn1cnnc1C(=O)[N-]S(=O)(=O)c1ccccc1 (optimized conformer: 68.5491200497488 kcal/mol)

>  <smiles>  (23) 
Cn1cnnc1C(=O)NS(=O)(=O)c1ccccc1

>  <score_type>  (23) 
oracle

>  <origin>  (23) 
adg

>  <m_score__min__energy>  (23) 
-8.3800000000000008

>  <m_primary>  (23) 
energy

$$$$
23:0
     RDKit          3D

 19 20  0  0  0  0  0  0  0  0999 V2000
   56.2750   29.3560   42.4590 C   0  0  0  0  0  0  0  0  0  0  0  0
   56.7990   30.2470   43.5320 C   0  0  0  0  0  0  0  0  0  0  0  0
   56.5210   30.0860   44.8420 N   0  0  0  0  0  0  0  0  0  0  0  0
   57.0410   31.0400   45.6140 N   0  0  0  0  0  0  0  0  0  0  0  0
   57.7300   31.9800   44.9250 C   0  0  0  0  0  0  0  0  0  0  0  0
   58.3930   33.1410   45.5630 C   0  0  0  0  0  0  0  0  0  0  0  0
   58.5700   33.2040   46.9560 C   0  0  0  0  0  0  0  0  0  0  0  0
   59.1990   34.3090   47.5340 C   0  0  0  0  0  0  0  0  0  0  0  0
   59.6460   35.3460   46.7160 C   0  0  0  0  0  0  0  0  0  0  0  0
   59.4700   35.2760   45.3700 N   0  0  0  0  0  0  0  0  0  0  0  0
   58.8610   34.2120   44.7820 C   0  0  0  0  0  0  0  0  0  0  0  0
   57.7060   31.6400   43.2690 S   0  0  0  0  0  0  0  0  0  0  0  0
   55.7674   28.4929   42.9144 H   0  0  0  0  0  0  0  0  0  0  0  0
   55.5612   29.9139   41.8352 H   0  0  0  0  0  0  0  0  0  0  0  0
   57.1095   29.0033   41.8352 H   0  0  0  0  0  0  0  0  0  0  0  0
   58.2123   32.3811   47.5924 H   0  0  0  0  0  0  0  0  0  0  0  0
   59.3404   34.3607   48.6237 H   0  0  0  0  0  0  0  0  0  0  0  0
   60.1416   36.2217   47.1605 H   0  0  0  0  0  0  0  0  0  0  0  0
   58.7339   34.1892   43.6896 H   0  0  0  0  0  0  0  0  0  0  0  0
  1  2  1  0
  2  3  2  0
  3  4  1  0
  4  5  2  0
  5  6  1  0
  6  7  2  0
  7  8  1  0
  8  9  2  0
  9 10  1  0
 10 11  2  0
  5 12  1  0
 12  2  1  0
 11  6  1  0
  1 13  1  0
  1 14  1  0
  1 15  1  0
  7 16  1  0
  8 17  1  0
  9 18  1  0
 11 19  1  0
M  END
>  <UniqueID>  (24) 
24

>  <SMILES>  (24) 
Cc1nnc(-c2cccnc2)s1

>  <Energy>  (24) 
53.519908396224864

>  <Genealogy>  (24) 
Cc1nnc(-c2cccnc2)s1 (3D coordinates assigned)
Cc1nnc(-c2cccnc2)s1 (optimized conformer: 53.519908396224864 kcal/mol)

>  <smiles>  (24) 
Cc1nnc(-c2cccnc2)s1

>  <score_type>  (24) 
oracle

>  <origin>  (24) 
adg

>  <m_score__min__energy>  (24) 
-6.0300000000000002

>  <m_primary>  (24) 
energy

$$$$
24:0
     RDKit          3D

 59 62  0  0  0  0  0  0  0  0999 V2000
   59.7500   27.5370   45.4680 C   0  0  0  0  0  0  0  0  0  0  0  0
   59.8720   28.2440   46.7850 C   0  0  0  0  0  0  0  0  0  0  0  0
   59.5100   29.5940   46.9060 C   0  0  0  0  0  0  0  0  0  0  0  0
   59.5960   30.2390   48.1430 C   0  0  0  0  0  0  0  0  0  0  0  0
   60.0380   29.5410   49.2780 C   0  0  0  0  0  0  0  0  0  0  0  0
   60.1360   30.2460   50.6050 C   0  0  0  0  0  0  0  0  0  0  0  0
   61.5340   30.3460   51.0310 N   0  0  0  0  0  0  0  0  0  0  0  0
   62.0340   29.9330   52.2140 C   0  0  0  0  0  0  0  0  0  0  0  0
   63.3480   30.2030   52.3250 N   0  0  0  0  0  0  0  0  0  0  0  0
   63.6970   30.8120   51.1780 C   0  0  0  0  0  0  0  0  0  0  0  0
   62.5760   30.9090   50.3790 C   0  0  0  0  0  0  0  0  0  0  0  0
   62.5420   31.5090   49.0020 C   0  0  0  0  0  0  0  0  0  0  0  0
   62.9010   32.9410   49.0600 N   0  0  0  0  0  0  0  0  0  0  0  0
   63.4360   33.4790   47.7910 C   0  0  0  0  0  0  0  0  0  0  0  0
   62.4190   33.5080   46.6350 C   0  0  0  0  0  0  0  0  0  0  0  0
   61.1220   34.2390   47.0260 C   0  0  0  0  0  0  0  0  0  0  0  0
   60.1900   33.4220   47.8420 N   0  0  0  0  0  0  0  0  0  0  0  0
   58.7800   33.7360   47.5200 C   0  0  0  0  0  0  0  0  0  0  0  0
   58.4440   33.3100   46.1160 C   0  0  0  0  0  0  0  0  0  0  0  0
   57.8900   32.0960   45.7630 C   0  0  0  0  0  0  0  0  0  0  0  0
   57.7940   32.1470   44.3860 C   0  0  0  0  0  0  0  0  0  0  0  0
   58.2690   33.3270   43.9400 N   0  0  0  0  0  0  0  0  0  0  0  0
   58.6610   34.0260   44.9930 N   0  0  0  0  0  0  0  0  0  0  0  0
   59.2320   35.3660   44.9000 C   0  0  0  0  0  0  0  0  0  0  0  0
   60.4320   33.4460   49.3060 C   0  0  0  0  0  0  0  0  0  0  0  0
   61.8850   33.7980   49.7070 C   0  0  0  0  0  0  0  0  0  0  0  0
   60.3780   28.1830   49.1610 C   0  0  0  0  0  0  0  0  0  0  0  0
   60.2930   27.5390   47.9240 C   0  0  0  0  0  0  0  0  0  0  0  0
   59.5653   26.4667   45.6421 H   0  0  0  0  0  0  0  0  0  0  0  0
   58.9125   27.9656   44.8979 H   0  0  0  0  0  0  0  0  0  0  0  0
   60.6827   27.6601   44.8979 H   0  0  0  0  0  0  0  0  0  0  0  0
   59.1569   30.1474   46.0234 H   0  0  0  0  0  0  0  0  0  0  0  0
   59.3158   31.2993   48.2276 H   0  0  0  0  0  0  0  0  0  0  0  0
   59.7134   31.2571   50.5098 H   0  0  0  0  0  0  0  0  0  0  0  0
   59.5756   29.6699   51.3561 H   0  0  0  0  0  0  0  0  0  0  0  0
   61.4393   29.4354   52.9942 H   0  0  0  0  0  0  0  0  0  0  0  0
   63.9690   29.9850   53.1360 H   0  0  0  0  0  0  0  0  0  0  0  0
   64.7042   31.1715   50.9205 H   0  0  0  0  0  0  0  0  0  0  0  0
   63.2598   30.9803   48.3576 H   0  0  0  0  0  0  0  0  0  0  0  0
   61.5258   31.4102   48.5926 H   0  0  0  0  0  0  0  0  0  0  0  0
   63.7814   34.5076   47.9716 H   0  0  0  0  0  0  0  0  0  0  0  0
   64.2466   32.8036   47.4799 H   0  0  0  0  0  0  0  0  0  0  0  0
   62.8724   34.0242   45.7760 H   0  0  0  0  0  0  0  0  0  0  0  0
   62.1606   32.4687   46.3837 H   0  0  0  0  0  0  0  0  0  0  0  0
   61.3912   35.1360   47.6030 H   0  0  0  0  0  0  0  0  0  0  0  0
   60.5976   34.4788   46.0892 H   0  0  0  0  0  0  0  0  0  0  0  0
   58.1226   33.2057   48.2247 H   0  0  0  0  0  0  0  0  0  0  0  0
   58.6334   34.8230   47.6029 H   0  0  0  0  0  0  0  0  0  0  0  0
   57.5919   31.2727   46.4288 H   0  0  0  0  0  0  0  0  0  0  0  0
   57.3908   31.3456   43.7495 H   0  0  0  0  0  0  0  0  0  0  0  0
   59.4013   35.7634   45.9116 H   0  0  0  0  0  0  0  0  0  0  0  0
   60.1888   35.3202   44.3591 H   0  0  0  0  0  0  0  0  0  0  0  0
   58.5362   36.0243   44.3591 H   0  0  0  0  0  0  0  0  0  0  0  0
   59.7606   34.1935   49.7537 H   0  0  0  0  0  0  0  0  0  0  0  0
   60.2428   32.4263   49.6728 H   0  0  0  0  0  0  0  0  0  0  0  0
   62.0804   34.8430   49.4245 H   0  0  0  0  0  0  0  0  0  0  0  0
   61.9689   33.6355   50.7917 H   0  0  0  0  0  0  0  0  0  0  0  0
   60.7127   27.6241   50.0473 H   0  0  0  0  0  0  0  0  0  0  0  0
   60.5572   26.4744   47.8420 H   0  0  0  0  0  0  0  0  0  0  0  0
  1  2  1  0
  2  3  2  0
  3  4  1  0
  4  5  2  0
  5  6  1  0
  6  7  1  0
  7  8  1  0
  8  9  2  0
  9 10  1  0
 10 11  2  0
 11 12  1  0
 12 13  1  0
 13 14  1  0
 14 15  1  0
 15 16  1  0
 16 17  1  0
 17 18  1  0
 18 19  1  0
 19 20  2  0
 20 21  1  0
 21 22  2  0
 22 23  1  0
 23 24  1  0
 17 25  1  0
 25 26  1  0
  5 27  1  0
 27 28  2  0
 28  2  1  0
 11  7  1  0
 26 13  1  0
 23 19  1  0
  1 29  1  0
  1 30  1  0
  1 31  1  0
  3 32  1  0
  4 33  1  0
  6 34  1  0
  6 35  1  0
  8 36  1  0
  9 37  1  0
 10 38  1  0
 12 39  1  0
 12 40  1  0
 14 41  1  0
 14 42  1  0
 15 43  1  0
 15 44  1  0
 16 45  1  0
 16 46  1  0
 18 47  1  0
 18 48  1  0
 20 49  1  0
 21 50  1  0
 24 51  1  0
 24 52  1  0
 24 53  1  0
 25 54  1  0
 25 55  1  0
 26 56  1  0
 26 57  1  0
 27 58  1  0
 28 59  1  0
M  CHG  1   9   1
M  END
>  <UniqueID>  (25) 
25

>  <SMILES>  (25) 
Cc1ccc(Cn2c[nH+]cc2CN2CCCN(Cc3ccnn3C)CC2)cc1

>  <Energy>  (25) 
134.58294947929053

>  <Genealogy>  (25) 
Cc1ccc(Cn2c[nH+]cc2CN2CCCN(Cc3ccnn3C)CC2)cc1 (protonated)
Cc1ccc(Cn2c[nH+]cc2CN2CCCN(Cc3ccnn3C)CC2)cc1 (3D coordinates assigned)
Cc1ccc(Cn2c[nH+]cc2CN2CCCN(Cc3ccnn3C)CC2)cc1 (nonaromatic ring conformer: 134.58294947929053 kcal/mol)

>  <smiles>  (25) 
Cc1ccc(Cn2cncc2CN2CCCN(Cc3ccnn3C)CC2)cc1

>  <score_type>  (25) 
oracle

>  <origin>  (25) 
adg

>  <m_score__min__energy>  (25) 
-5.2199999999999998

>  <m_primary>  (25) 
energy

$$$$
25:0
     RDKit          3D

 40 42  0  0  0  0  0  0  0  0999 V2000
   55.8212   31.1651   42.6237 H   0  0  0  0  0  0  0  0  0  0  0  0
   56.4370   30.6320   43.3630 C   0  0  0  0  0  0  0  0  0  0  0  0
   55.8520   29.6810   44.2050 C   0  0  0  0  0  0  0  0  0  0  0  0
   54.7763   29.4652   44.1263 H   0  0  0  0  0  0  0  0  0  0  0  0
   56.6330   29.0040   45.1470 C   0  0  0  0  0  0  0  0  0  0  0  0
   56.1714   28.2491   45.8005 H   0  0  0  0  0  0  0  0  0  0  0  0
   58.0040   29.2840   45.2620 C   0  0  0  0  0  0  0  0  0  0  0  0
   58.8510   28.5300   46.2450 C   0  0  0  0  0  0  0  0  0  0  0  0
   59.8140   28.2733   45.7795 H   0  0  0  0  0  0  0  0  0  0  0  0
   58.3340   27.6067   46.5453 H   0  0  0  0  0  0  0  0  0  0  0  0
   59.0840   29.3640   47.4190 N   0  0  0  0  0  0  0  0  0  0  0  0
   59.8920   30.3830   47.4430 C   0  0  0  0  0  0  0  0  0  0  0  0
   60.7970   30.6730   46.4880 N   0  0  0  0  0  0  0  0  0  0  0  0
   61.0020   30.1420   45.6120 H   0  0  0  0  0  0  0  0  0  0  0  0
   61.3990   31.8000   46.8380 N   0  0  0  0  0  0  0  0  0  0  0  0
   60.8470   32.1770   48.0100 C   0  0  0  0  0  0  0  0  0  0  0  0
   61.2910   33.6900   48.8670 S   0  0  0  0  0  0  0  0  0  0  0  0
   59.6470   34.4650   48.6810 C   0  0  0  0  0  0  0  0  0  0  0  0
   58.9568   34.0251   49.4159 H   0  0  0  0  0  0  0  0  0  0  0  0
   59.7492   35.5475   48.8478 H   0  0  0  0  0  0  0  0  0  0  0  0
   59.0990   34.2430   47.2970 C   0  0  0  0  0  0  0  0  0  0  0  0
   59.7430   34.7960   46.1780 C   0  0  0  0  0  0  0  0  0  0  0  0
   60.6675   35.3774   46.3093 H   0  0  0  0  0  0  0  0  0  0  0  0
   59.2130   34.6100   44.8980 C   0  0  0  0  0  0  0  0  0  0  0  0
   59.7219   35.0439   44.0246 H   0  0  0  0  0  0  0  0  0  0  0  0
   58.0380   33.8740   44.7260 C   0  0  0  0  0  0  0  0  0  0  0  0
   57.6229   33.7282   43.7178 H   0  0  0  0  0  0  0  0  0  0  0  0
   57.3900   33.3230   45.8350 C   0  0  0  0  0  0  0  0  0  0  0  0
   56.4651   32.7434   45.6983 H   0  0  0  0  0  0  0  0  0  0  0  0
   57.9150   33.5070   47.1180 C   0  0  0  0  0  0  0  0  0  0  0  0
   57.4003   33.0749   47.9889 H   0  0  0  0  0  0  0  0  0  0  0  0
   59.9100   31.2980   48.4290 N   0  0  0  0  0  0  0  0  0  0  0  0
   59.0170   31.4030   49.5800 C   0  0  0  0  0  0  0  0  0  0  0  0
   59.6045   31.3339   50.5074 H   0  0  0  0  0  0  0  0  0  0  0  0
   58.4919   32.3691   49.5497 H   0  0  0  0  0  0  0  0  0  0  0  0
   58.2821   30.5851   49.5497 H   0  0  0  0  0  0  0  0  0  0  0  0
   58.5890   30.2300   44.4020 C   0  0  0  0  0  0  0  0  0  0  0  0
   59.6667   30.4400   44.4692 H   0  0  0  0  0  0  0  0  0  0  0  0
   57.8040   30.9050   43.4610 C   0  0  0  0  0  0  0  0  0  0  0  0
   58.2637   31.6520   42.7971 H   0  0  0  0  0  0  0  0  0  0  0  0
  1  2  1  0
  2  3  2  0
  3  4  1  0
  3  5  1  0
  5  6  1  0
  5  7  2  0
  7  8  1  0
  8  9  1  0
  8 10  1  0
  8 11  1  0
 11 12  2  0
 12 13  1  0
 13 14  1  0
 13 15  1  0
 15 16  2  0
 16 17  1  0
 17 18  1  0
 18 19  1  0
 18 20  1  0
 18 21  1  0
 21 22  2  0
 22 23  1  0
 22 24  1  0
 24 25  1  0
 24 26  2  0
 26 27  1  0
 26 28  1  0
 28 29  1  0
 28 30  2  0
 30 31  1  0
 16 32  1  0
 32 33  1  0
 33 34  1  0
 33 35  1  0
 33 36  1  0
  7 37  1  0
 37 38  1  0
 37 39  2  0
 39 40  1  0
 39  2  1  0
 32 12  1  0
 30 21  1  0
M  END
>  <UniqueID>  (26) 
26

>  <SMILES>  (26) 
Cn1c(SCc2ccccc2)n[nH]/c1=N\Cc1ccccc1

>  <Energy>  (26) 
72.10883412237699

>  <Genealogy>  (26) 
Cn1c(SCc2ccccc2)n[nH]/c1=N\Cc1ccccc1 (cis-trans isomerization)
Cn1c(SCc2ccccc2)n[nH]/c1=N\Cc1ccccc1 (3D coordinates assigned)
Cn1c(SCc2ccccc2)n[nH]/c1=N\Cc1ccccc1 (optimized conformer: 72.10883412237699 kcal/mol)

>  <smiles>  (26) 
Cn1c(SCc2ccccc2)n[nH]c1=NCc1ccccc1

>  <score_type>  (26) 
oracle

>  <origin>  (26) 
adg

>  <m_score__min__energy>  (26) 
-8.2100000000000009

>  <m_primary>  (26) 
energy

$$$$
26:0
     RDKit          3D

 48 50  0  0  0  0  0  0  0  0999 V2000
   56.5850   30.5230   43.5800 C   0  0  0  0  0  0  0  0  0  0  0  0
   56.2690   30.0110   44.8710 O   0  0  0  0  0  0  0  0  0  0  0  0
   57.0240   29.0420   45.5530 C   0  0  0  0  0  0  0  0  0  0  0  0
   56.6620   27.6800   45.5370 C   0  0  0  0  0  0  0  0  0  0  0  0
   57.4430   26.7270   46.2000 C   0  0  0  0  0  0  0  0  0  0  0  0
   57.0090   25.0180   46.1250 S   0  0  0  0  0  0  0  0  0  0  0  0
   55.5130   24.9030   46.0220 O   0  0  0  0  0  0  0  0  0  0  0  0
   57.4340   24.3440   47.3980 O   0  0  0  0  0  0  0  0  0  0  0  0
   57.7450   24.2000   44.7620 N   0  0  0  0  0  0  0  0  0  0  0  0
   57.0340   24.4570   43.4960 C   0  0  0  0  0  0  0  0  0  0  0  0
   55.7980   23.5470   43.2970 C   0  0  0  0  0  0  0  0  0  0  0  0
   55.7080   22.5080   44.2520 O   0  0  0  0  0  0  0  0  0  0  0  0
   56.9480   21.8490   44.3560 C   0  0  0  0  0  0  0  0  0  0  0  0
   57.9910   22.7640   45.0180 C   0  0  0  0  0  0  0  0  0  0  0  0
   58.5750   27.1350   46.9100 C   0  0  0  0  0  0  0  0  0  0  0  0
   58.9390   28.4810   46.9420 C   0  0  0  0  0  0  0  0  0  0  0  0
   58.1760   29.4480   46.2580 C   0  0  0  0  0  0  0  0  0  0  0  0
   58.5490   30.8430   46.2740 N   0  0  0  0  0  0  0  0  0  0  0  0
   59.7890   31.3650   46.8510 C   0  0  0  0  0  0  0  0  0  0  0  0
   60.0160   32.8240   46.4280 C   0  0  2  0  0  0  0  0  0  0  0  0
   59.7270   33.7910   47.5640 C   0  0  0  0  0  0  0  0  0  0  0  0
   59.2670   35.0150   46.8370 C   0  0  0  0  0  0  0  0  0  0  0  0
   58.6940   34.4550   45.5480 C   0  0  0  0  0  0  0  0  0  0  0  0
   59.1830   33.1480   45.3380 O   0  0  0  0  0  0  0  0  0  0  0  0
   57.1601   31.4547   43.6858 H   0  0  0  0  0  0  0  0  0  0  0  0
   57.1838   29.7831   43.0286 H   0  0  0  0  0  0  0  0  0  0  0  0
   55.6552   30.7266   43.0286 H   0  0  0  0  0  0  0  0  0  0  0  0
   55.7569   27.3632   44.9982 H   0  0  0  0  0  0  0  0  0  0  0  0
   56.7014   25.5055   43.4881 H   0  0  0  0  0  0  0  0  0  0  0  0
   57.7354   24.2406   42.6767 H   0  0  0  0  0  0  0  0  0  0  0  0
   54.8925   24.1673   43.3698 H   0  0  0  0  0  0  0  0  0  0  0  0
   55.8981   23.0734   42.3092 H   0  0  0  0  0  0  0  0  0  0  0  0
   56.8252   20.9408   44.9644 H   0  0  0  0  0  0  0  0  0  0  0  0
   57.2962   21.5854   43.3464 H   0  0  0  0  0  0  0  0  0  0  0  0
   57.9686   22.5927   46.1043 H   0  0  0  0  0  0  0  0  0  0  0  0
   58.9704   22.5152   44.5834 H   0  0  0  0  0  0  0  0  0  0  0  0
   59.1822   26.3910   47.4464 H   0  0  0  0  0  0  0  0  0  0  0  0
   59.8306   28.7907   47.5069 H   0  0  0  0  0  0  0  0  0  0  0  0
   57.9120   31.5400   45.8260 H   0  0  0  0  0  0  0  0  0  0  0  0
   59.7260   31.3133   47.9480 H   0  0  0  0  0  0  0  0  0  0  0  0
   60.6304   30.7574   46.4865 H   0  0  0  0  0  0  0  0  0  0  0  0
   61.0743   32.9193   46.1435 H   0  0  0  0  0  0  0  0  0  0  0  0
   58.9395   33.4024   48.2264 H   0  0  0  0  0  0  0  0  0  0  0  0
   60.5922   33.9691   48.2195 H   0  0  0  0  0  0  0  0  0  0  0  0
   58.4967   35.5497   47.4121 H   0  0  0  0  0  0  0  0  0  0  0  0
   60.0712   35.7468   46.6706 H   0  0  0  0  0  0  0  0  0  0  0  0
   57.5965   34.4280   45.6172 H   0  0  0  0  0  0  0  0  0  0  0  0
   58.9956   35.0962   44.7066 H   0  0  0  0  0  0  0  0  0  0  0  0
  1  2  1  0
  2  3  1  0
  3  4  2  0
  4  5  1  0
  5  6  1  0
  6  7  2  0
  6  8  2  0
  6  9  1  0
  9 10  1  0
 10 11  1  0
 11 12  1  0
 12 13  1  0
 13 14  1  0
  5 15  2  0
 15 16  1  0
 16 17  2  0
 17 18  1  0
 18 19  1  0
 19 20  1  0
 20 21  1  0
 21 22  1  0
 22 23  1  0
 23 24  1  0
 17  3  1  0
 24 20  1  0
 14  9  1  0
  1 25  1  0
  1 26  1  0
  1 27  1  0
  4 28  1  0
 10 29  1  0
 10 30  1  0
 11 31  1  0
 11 32  1  0
 13 33  1  0
 13 34  1  0
 14 35  1  0
 14 36  1  0
 15 37  1  0
 16 38  1  0
 18 39  1  0
 19 40  1  0
 19 41  1  0
 20 42  1  6
 21 43  1  0
 21 44  1  0
 22 45  1  0
 22 46  1  0
 23 47  1  0
 23 48  1  0
M  END
>  <UniqueID>  (27) 
27

>  <SMILES>  (27) 
COc1cc(S(=O)(=O)N2CCOCC2)ccc1NC[C@@H]1CCCO1

>  <Energy>  (27) 
55.861030916621935

>  <Genealogy>  (27) 
COc1cc(S(=O)(=O)N2CCOCC2)ccc1NC[C@@H]1CCCO1 (chirality)
COc1cc(S(=O)(=O)N2CCOCC2)ccc1NC[C@@H]1CCCO1 (3D coordinates assigned)
COc1cc(S(=O)(=O)N2CCOCC2)ccc1NC[C@@H]1CCCO1 (nonaromatic ring conformer: 55.861030916621935 kcal/mol)

>  <smiles>  (27) 
COc1cc(S(=O)(=O)N2CCOCC2)ccc1NCC1CCCO1

>  <score_type>  (27) 
oracle

>  <origin>  (27) 
adg

>  <m_score__min__energy>  (27) 
-7.5199999999999996

>  <m_primary>  (27) 
energy

$$$$
27:0
     RDKit          3D

 66 68  0  0  0  0  0  0  0  0999 V2000
   57.1070   34.1450   44.9140 C   0  0  0  0  0  0  0  0  0  0  0  0
   58.1920   33.3690   45.1070 C   0  0  0  0  0  0  0  0  0  0  0  0
   59.4410   33.9860   45.7040 C   0  0  0  0  0  0  0  0  0  0  0  0
   59.4510   33.8370   47.1120 O   0  0  0  0  0  0  0  0  0  0  0  0
   60.7730   33.7590   47.6300 C   0  0  2  0  0  0  0  0  0  0  0  0
   61.5440   32.6340   46.8850 C   0  0  2  0  0  0  0  0  0  0  0  0
   60.8150   31.4340   46.7420 O   0  0  0  0  0  0  0  0  0  0  0  0
   62.9330   32.3630   47.5010 C   0  0  1  0  0  0  0  0  0  0  0  0
   63.7780   33.4460   47.2030 O   0  0  0  0  0  0  0  0  0  0  0  0
   62.8910   32.1470   49.0320 C   0  0  2  0  0  0  0  0  0  0  0  0
   62.4300   30.8570   49.3570 O   0  0  0  0  0  0  0  0  0  0  0  0
   62.1110   33.2760   49.7620 C   0  0  2  0  0  0  0  0  0  0  0  0
   62.0530   33.0370   51.2860 C   0  0  0  0  0  0  0  0  0  0  0  0
   60.7330   33.2040   51.7620 O   0  0  0  0  0  0  0  0  0  0  0  0
   60.0990   31.9470   51.9110 C   0  0  2  0  0  0  0  0  0  0  0  0
   60.2270   31.2080   50.7140 O   0  0  0  0  0  0  0  0  0  0  0  0
   58.9880   30.5790   50.4510 C   0  0  0  0  0  0  0  0  0  0  0  0
   57.9950   30.8950   51.5800 C   0  0  1  0  0  0  0  0  0  0  0  0
   56.6910   31.1300   51.0930 O   0  0  0  0  0  0  0  0  0  0  0  0
   57.9330   29.7150   52.5810 C   0  0  0  0  0  0  0  0  0  0  0  0
   56.7800   28.9420   52.3710 O   0  0  0  0  0  0  0  0  0  0  0  0
   58.6140   32.1320   52.2220 C   0  0  2  0  0  0  0  0  0  0  0  0
   58.1210   33.3070   51.6240 O   0  0  0  0  0  0  0  0  0  0  0  0
   60.7010   33.5090   49.1530 C   0  0  1  0  0  0  0  0  0  0  0  0
   60.0580   34.5900   49.7840 O   0  0  0  0  0  0  0  0  0  0  0  0
   58.2310   31.8840   44.7680 C   0  0  2  0  0  0  0  0  0  0  0  0
   57.0110   31.3400   44.0000 C   0  0  0  0  0  0  0  0  0  0  0  0
   57.1980   29.8380   43.7500 C   0  0  0  0  0  0  0  0  0  0  0  0
   57.5720   29.1100   45.0140 C   0  0  0  0  0  0  0  0  0  0  0  0
   58.1850   29.7430   46.0270 C   0  0  0  0  0  0  0  0  0  0  0  0
   58.5760   28.9980   47.2650 C   0  0  0  0  0  0  0  0  0  0  0  0
   58.4120   31.1260   45.9670 O   0  0  0  0  0  0  0  0  0  0  0  0
   56.1921   33.7136   44.4818 H   0  0  0  0  0  0  0  0  0  0  0  0
   57.1364   35.2097   45.1887 H   0  0  0  0  0  0  0  0  0  0  0  0
   60.3264   33.4879   45.2822 H   0  0  0  0  0  0  0  0  0  0  0  0
   59.4544   35.0591   45.4626 H   0  0  0  0  0  0  0  0  0  0  0  0
   61.3175   34.7011   47.4689 H   0  0  0  0  0  0  0  0  0  0  0  0
   61.6914   33.0287   45.8689 H   0  0  0  0  0  0  0  0  0  0  0  0
   59.8420   31.6280   46.7360 H   0  0  0  0  0  0  0  0  0  0  0  0
   63.3109   31.4279   47.0619 H   0  0  0  0  0  0  0  0  0  0  0  0
   64.6990   33.0840   47.1200 H   0  0  0  0  0  0  0  0  0  0  0  0
   63.9239   32.2117   49.4046 H   0  0  0  0  0  0  0  0  0  0  0  0
   61.5070   30.7550   49.0150 H   0  0  0  0  0  0  0  0  0  0  0  0
   62.6753   34.2066   49.6022 H   0  0  0  0  0  0  0  0  0  0  0  0
   62.3903   32.0132   51.5052 H   0  0  0  0  0  0  0  0  0  0  0  0
   62.7071   33.7663   51.7862 H   0  0  0  0  0  0  0  0  0  0  0  0
   60.5791   31.4086   52.7414 H   0  0  0  0  0  0  0  0  0  0  0  0
   58.5857   30.9491   49.4964 H   0  0  0  0  0  0  0  0  0  0  0  0
   59.1378   29.4908   50.3926 H   0  0  0  0  0  0  0  0  0  0  0  0
   56.6230   32.0700   50.7820 H   0  0  0  0  0  0  0  0  0  0  0  0
   58.8216   29.0808   52.4461 H   0  0  0  0  0  0  0  0  0  0  0  0
   57.9034   30.1212   53.6028 H   0  0  0  0  0  0  0  0  0  0  0  0
   56.2810   29.3660   51.6240 H   0  0  0  0  0  0  0  0  0  0  0  0
   58.3937   32.2316   53.2951 H   0  0  0  0  0  0  0  0  0  0  0  0
   58.7530   33.5440   50.8950 H   0  0  0  0  0  0  0  0  0  0  0  0
   60.1168   32.5927   49.3237 H   0  0  0  0  0  0  0  0  0  0  0  0
   59.8540   34.3180   50.7170 H   0  0  0  0  0  0  0  0  0  0  0  0
   59.0795   31.7716   44.0771 H   0  0  0  0  0  0  0  0  0  0  0  0
   56.1000   31.5030   44.5945 H   0  0  0  0  0  0  0  0  0  0  0  0
   56.9171   31.8649   43.0379 H   0  0  0  0  0  0  0  0  0  0  0  0
   56.2571   29.4204   43.3622 H   0  0  0  0  0  0  0  0  0  0  0  0
   58.0133   29.7082   43.0231 H   0  0  0  0  0  0  0  0  0  0  0  0
   57.3385   28.0393   45.1092 H   0  0  0  0  0  0  0  0  0  0  0  0
   58.2732   29.5750   48.1512 H   0  0  0  0  0  0  0  0  0  0  0  0
   58.0758   28.0184   47.2768 H   0  0  0  0  0  0  0  0  0  0  0  0
   59.6664   28.8531   47.2768 H   0  0  0  0  0  0  0  0  0  0  0  0
  1  2  2  0
  2  3  1  0
  3  4  1  0
  4  5  1  0
  5  6  1  0
  6  7  1  0
  6  8  1  0
  8  9  1  0
  8 10  1  0
 10 11  1  0
 10 12  1  0
 12 13  1  0
 13 14  1  0
 14 15  1  0
 15 16  1  0
 16 17  1  0
 17 18  1  0
 18 19  1  6
 18 20  1  0
 20 21  1  0
 18 22  1  0
 22 23  1  0
 12 24  1  0
 24 25  1  0
  2 26  1  0
 26 27  1  0
 27 28  1  0
 28 29  1  0
 29 30  2  0
 30 31  1  0
 30 32  1  0
 24  5  1  0
 32 26  1  0
 22 15  1  0
  1 33  1  0
  1 34  1  0
  3 35  1  0
  3 36  1  0
  5 37  1  1
  6 38  1  6
  7 39  1  0
  8 40  1  6
  9 41  1  0
 10 42  1  1
 11 43  1  0
 12 44  1  1
 13 45  1  0
 13 46  1  0
 15 47  1  1
 17 48  1  0
 17 49  1  0
 19 50  1  0
 20 51  1  0
 20 52  1  0
 21 53  1  0
 22 54  1  1
 23 55  1  0
 24 56  1  6
 25 57  1  0
 26 58  1  6
 27 59  1  0
 27 60  1  0
 28 61  1  0
 28 62  1  0
 29 63  1  0
 31 64  1  0
 31 65  1  0
 31 66  1  0
M  END
>  <UniqueID>  (28) 
28

>  <SMILES>  (28) 
C=C(CO[C@H]1C(O)C(COC2OCC(O)(CO)C2O)C(O)C(O)[C@H]1O)C1CCC=C(C)O1

>  <Energy>  (28) 
79.24786930139331

>  <Genealogy>  (28) 
C=C(CO[C@H]1C(O)C(COC2OCC(O)(CO)C2O)C(O)C(O)[C@H]1O)C1CCC=C(C)O1 (chirality)
C=C(CO[C@H]1C(O)C(COC2OCC(O)(CO)C2O)C(O)C(O)[C@H]1O)C1CCC=C(C)O1 (3D coordinates assigned)
C=C(CO[C@H]1C(O)C(COC2OCC(O)(CO)C2O)C(O)C(O)[C@H]1O)C1CCC=C(C)O1 (nonaromatic ring conformer: 79.24786930139331 kcal/mol)

>  <smiles>  (28) 
C=C(COC1C(O)C(O)C(O)C(COC2OCC(O)(CO)C2O)C1O)C1CCC=C(C)O1

>  <score_type>  (28) 
oracle

>  <origin>  (28) 
adg

>  <m_score__min__energy>  (28) 
-8.3000000000000007

>  <m_primary>  (28) 
energy

$$$$
28:0
     RDKit          3D

 43 43  0  0  0  0  0  0  0  0999 V2000
   54.0620   24.7790   45.6140 C   0  0  0  0  0  0  0  0  0  0  0  0
   54.9440   25.8420   45.8980 O   0  0  0  0  0  0  0  0  0  0  0  0
   56.2740   25.4090   45.7070 C   0  0  0  0  0  0  0  0  0  0  0  0
   57.1650   26.0420   46.7770 C   0  0  0  0  0  0  0  0  0  0  0  0
   57.6550   27.4530   46.3940 C   0  0  0  0  0  0  0  0  0  0  0  0
   56.9280   28.0240   45.2440 N   0  0  0  0  0  0  0  0  0  0  0  0
   57.7820   28.2030   44.0600 C   0  0  0  0  0  0  0  0  0  0  0  0
   57.0180   28.9640   42.9690 C   0  0  0  0  0  0  0  0  0  0  0  0
   56.2470   30.1720   43.5380 C   0  0  0  0  0  0  0  0  0  0  0  0
   57.1600   31.3530   43.9020 C   0  0  0  0  0  0  0  0  0  0  0  0
   57.1890   31.6020   45.3080 O   0  0  0  0  0  0  0  0  0  0  0  0
   58.1410   32.3790   45.9920 C   0  0  0  0  0  0  0  0  0  0  0  0
   59.1130   31.8060   46.8360 C   0  0  0  0  0  0  0  0  0  0  0  0
   60.0270   32.6160   47.5120 C   0  0  0  0  0  0  0  0  0  0  0  0
   59.9950   34.0000   47.3460 C   0  0  0  0  0  0  0  0  0  0  0  0
   59.0500   34.5800   46.4990 C   0  0  0  0  0  0  0  0  0  0  0  0
   58.1130   33.7790   45.8260 C   0  0  0  0  0  0  0  0  0  0  0  0
   57.1350   34.4160   44.8780 C   0  0  0  0  0  0  0  0  0  0  0  0
   53.6993   24.3419   46.5560 H   0  0  0  0  0  0  0  0  0  0  0  0
   53.2082   25.1565   45.0322 H   0  0  0  0  0  0  0  0  0  0  0  0
   54.5905   24.0095   45.0322 H   0  0  0  0  0  0  0  0  0  0  0  0
   56.3202   24.3131   45.7903 H   0  0  0  0  0  0  0  0  0  0  0  0
   56.6223   25.7113   44.7084 H   0  0  0  0  0  0  0  0  0  0  0  0
   56.5926   26.1118   47.7137 H   0  0  0  0  0  0  0  0  0  0  0  0
   58.0536   25.4029   46.8861 H   0  0  0  0  0  0  0  0  0  0  0  0
   57.5192   28.1180   47.2596 H   0  0  0  0  0  0  0  0  0  0  0  0
   58.7126   27.3663   46.1042 H   0  0  0  0  0  0  0  0  0  0  0  0
   56.1050   27.4270   44.9920 H   0  0  0  0  0  0  0  0  0  0  0  0
   58.6791   28.7739   44.3415 H   0  0  0  0  0  0  0  0  0  0  0  0
   58.0729   27.2151   43.6733 H   0  0  0  0  0  0  0  0  0  0  0  0
   57.7364   29.3234   42.2175 H   0  0  0  0  0  0  0  0  0  0  0  0
   56.2865   28.2741   42.5229 H   0  0  0  0  0  0  0  0  0  0  0  0
   55.5208   30.5103   42.7842 H   0  0  0  0  0  0  0  0  0  0  0  0
   55.7551   29.8402   44.4643 H   0  0  0  0  0  0  0  0  0  0  0  0
   58.1815   31.1286   43.5613 H   0  0  0  0  0  0  0  0  0  0  0  0
   56.7606   32.2517   43.4091 H   0  0  0  0  0  0  0  0  0  0  0  0
   59.1518   30.7140   46.9629 H   0  0  0  0  0  0  0  0  0  0  0  0
   60.7750   32.1609   48.1779 H   0  0  0  0  0  0  0  0  0  0  0  0
   60.7151   34.6349   47.8830 H   0  0  0  0  0  0  0  0  0  0  0  0
   59.0388   35.6708   46.3576 H   0  0  0  0  0  0  0  0  0  0  0  0
   56.3486   34.9282   45.4518 H   0  0  0  0  0  0  0  0  0  0  0  0
   57.6606   35.1455   44.2443 H   0  0  0  0  0  0  0  0  0  0  0  0
   56.6803   33.6403   44.2443 H   0  0  0  0  0  0  0  0  0  0  0  0
  1  2  1  0
  2  3  1  0
  3  4  1  0
  4  5  1  0
  5  6  1  0
  6  7  1  0
  7  8  1  0
  8  9  1  0
  9 10  1  0
 10 11  1  0
 11 12  1  0
 12 13  2  0
 13 14  1  0
 14 15  2  0
 15 16  1  0
 16 17  2  0
 17 18  1  0
 17 12  1  0
  1 19  1  0
  1 20  1  0
  1 21  1  0
  3 22  1  0
  3 23  1  0
  4 24  1  0
  4 25  1  0
  5 26  1  0
  5 27  1  0
  6 28  1  0
  7 29  1  0
  7 30  1  0
  8 31  1  0
  8 32  1  0
  9 33  1  0
  9 34  1  0
 10 35  1  0
 10 36  1  0
 13 37  1  0
 14 38  1  0
 15 39  1  0
 16 40  1  0
 18 41  1  0
 18 42  1  0
 18 43  1  0
M  END
>  <UniqueID>  (29) 
29

>  <SMILES>  (29) 
COCCCNCCCCOc1ccccc1C

>  <Energy>  (29) 
33.53146042051583

>  <Genealogy>  (29) 
COCCCNCCCCOc1ccccc1C (3D coordinates assigned)
COCCCNCCCCOc1ccccc1C (optimized conformer: 33.53146042051583 kcal/mol)

>  <smiles>  (29) 
COCCCNCCCCOc1ccccc1C

>  <score_type>  (29) 
oracle

>  <origin>  (29) 
adg

>  <m_score__min__energy>  (29) 
-6.5300000000000002

>  <m_primary>  (29) 
energy

$$$$
29:0
     RDKit          3D

 41 43  0  0  0  0  0  0  0  0999 V2000
   57.6150   28.2220   45.9020 C   0  0  0  0  0  0  0  0  0  0  0  0
   59.0190   28.5010   45.6150 N   0  0  0  0  0  0  0  0  0  0  0  0
   59.6590   28.2630   44.4530 C   0  0  0  0  0  0  0  0  0  0  0  0
   60.9300   28.7070   44.4810 N   0  0  0  0  0  0  0  0  0  0  0  0
   61.1000   29.2570   45.6970 C   0  0  0  0  0  0  0  0  0  0  0  0
   59.9200   29.1310   46.4010 C   0  0  0  0  0  0  0  0  0  0  0  0
   59.6870   29.6010   47.8090 C   0  0  0  0  0  0  0  0  0  0  0  0
   58.5390   30.5170   47.8760 N   0  0  0  0  0  0  0  0  0  0  0  0
   58.9100   31.8600   48.3550 C   0  0  0  0  0  0  0  0  0  0  0  0
   58.9450   32.8540   47.2120 C   0  0  0  0  0  0  0  0  0  0  0  0
   57.7940   33.0130   46.4180 C   0  0  0  0  0  0  0  0  0  0  0  0
   57.7520   33.9780   45.4100 C   0  0  0  0  0  0  0  0  0  0  0  0
   58.8590   34.7890   45.1720 C   0  0  0  0  0  0  0  0  0  0  0  0
   60.0200   34.6290   45.9290 C   0  0  0  0  0  0  0  0  0  0  0  0
   60.0850   33.6560   46.9410 C   0  0  0  0  0  0  0  0  0  0  0  0
   61.3490   33.5150   47.6990 C   0  0  0  0  0  0  0  0  0  0  0  0
   62.4400   32.8240   47.1470 C   0  0  0  0  0  0  0  0  0  0  0  0
   63.6310   32.6970   47.8680 C   0  0  0  0  0  0  0  0  0  0  0  0
   63.7470   33.2690   49.1380 C   0  0  0  0  0  0  0  0  0  0  0  0
   65.3750   33.0930   50.1210 Br  0  0  0  0  0  0  0  0  0  0  0  0
   62.6730   33.9790   49.6840 C   0  0  0  0  0  0  0  0  0  0  0  0
   61.4810   34.1090   48.9650 C   0  0  0  0  0  0  0  0  0  0  0  0
   57.4624   28.1917   46.9909 H   0  0  0  0  0  0  0  0  0  0  0  0
   56.9873   29.0130   45.4657 H   0  0  0  0  0  0  0  0  0  0  0  0
   57.3375   27.2511   45.4657 H   0  0  0  0  0  0  0  0  0  0  0  0
   59.1987   27.7660   43.5863 H   0  0  0  0  0  0  0  0  0  0  0  0
   61.6340   28.6480   43.7130 H   0  0  0  0  0  0  0  0  0  0  0  0
   62.0230   29.7273   46.0671 H   0  0  0  0  0  0  0  0  0  0  0  0
   59.4899   28.7298   48.4510 H   0  0  0  0  0  0  0  0  0  0  0  0
   60.5838   30.1377   48.1520 H   0  0  0  0  0  0  0  0  0  0  0  0
   57.8620   30.1130   48.5660 H   0  0  0  0  0  0  0  0  0  0  0  0
   58.1714   32.1932   49.0990 H   0  0  0  0  0  0  0  0  0  0  0  0
   59.9127   31.8071   48.8041 H   0  0  0  0  0  0  0  0  0  0  0  0
   56.9186   32.3704   46.5934 H   0  0  0  0  0  0  0  0  0  0  0  0
   56.8428   34.0981   44.8026 H   0  0  0  0  0  0  0  0  0  0  0  0
   58.8179   35.5571   44.3857 H   0  0  0  0  0  0  0  0  0  0  0  0
   60.8920   35.2700   45.7320 H   0  0  0  0  0  0  0  0  0  0  0  0
   62.3571   32.3810   46.1435 H   0  0  0  0  0  0  0  0  0  0  0  0
   64.4786   32.1457   47.4349 H   0  0  0  0  0  0  0  0  0  0  0  0
   62.7662   34.4357   50.6803 H   0  0  0  0  0  0  0  0  0  0  0  0
   60.6429   34.6789   49.3926 H   0  0  0  0  0  0  0  0  0  0  0  0
  1  2  1  0
  2  3  1  0
  3  4  2  0
  4  5  1  0
  5  6  2  0
  6  7  1  0
  7  8  1  0
  8  9  1  0
  9 10  1  0
 10 11  2  0
 11 12  1  0
 12 13  2  0
 13 14  1  0
 14 15  2  0
 15 16  1  0
 16 17  2  0
 17 18  1  0
 18 19  2  0
 19 20  1  0
 19 21  1  0
 21 22  2  0
  6  2  1  0
 15 10  1  0
 22 16  1  0
  1 23  1  0
  1 24  1  0
  1 25  1  0
  3 26  1  0
  4 27  1  0
  5 28  1  0
  7 29  1  0
  7 30  1  0
  8 31  1  0
  9 32  1  0
  9 33  1  0
 11 34  1  0
 12 35  1  0
 13 36  1  0
 14 37  1  0
 17 38  1  0
 18 39  1  0
 21 40  1  0
 22 41  1  0
M  CHG  1   4   1
M  END
>  <UniqueID>  (30) 
30

>  <SMILES>  (30) 
Cn1c[nH+]cc1CNCc1ccccc1-c1ccc(Br)cc1

>  <Energy>  (30) 
76.90449481609504

>  <Genealogy>  (30) 
Cn1c[nH+]cc1CNCc1ccccc1-c1ccc(Br)cc1 (protonated)
Cn1c[nH+]cc1CNCc1ccccc1-c1ccc(Br)cc1 (3D coordinates assigned)
Cn1c[nH+]cc1CNCc1ccccc1-c1ccc(Br)cc1 (optimized conformer: 76.90449481609504 kcal/mol)

>  <smiles>  (30) 
Cn1cncc1CNCc1ccccc1-c1ccc(Br)cc1

>  <score_type>  (30) 
oracle

>  <origin>  (30) 
adg

>  <m_score__min__energy>  (30) 
-6.21

>  <m_primary>  (30) 
energy

$$$$
30:0
     RDKit          3D

 42 44  0  0  0  0  0  0  0  0999 V2000
   54.0960   24.9290   45.6160 C   0  0  0  0  0  0  0  0  0  0  0  0
   54.7570   26.1450   45.9480 O   0  0  0  0  0  0  0  0  0  0  0  0
   56.1510   26.3030   46.0170 C   0  0  0  0  0  0  0  0  0  0  0  0
   56.9980   25.2450   46.4050 C   0  0  0  0  0  0  0  0  0  0  0  0
   58.3850   25.4100   46.4000 C   0  0  0  0  0  0  0  0  0  0  0  0
   58.9440   26.6250   46.0010 C   0  0  0  0  0  0  0  0  0  0  0  0
   58.1160   27.6830   45.6230 C   0  0  0  0  0  0  0  0  0  0  0  0
   56.7230   27.5440   45.6560 C   0  0  0  0  0  0  0  0  0  0  0  0
   55.9180   28.6610   45.2570 N   0  0  0  0  0  0  0  0  0  0  0  0
   56.3850   29.7950   44.5160 C   0  0  0  0  0  0  0  0  0  0  0  0
   55.6090   30.4200   43.7430 O   0  0  0  0  0  0  0  0  0  0  0  0
   57.7880   30.2780   44.7050 C   0  0  0  0  0  0  0  0  0  0  0  0
   57.7890   31.6720   45.1560 N   0  0  0  0  0  0  0  0  0  0  0  0
   57.0260   32.6510   44.6300 C   0  0  0  0  0  0  0  0  0  0  0  0
   57.2590   33.8400   45.2880 C   0  0  0  0  0  0  0  0  0  0  0  0
   58.2010   33.5750   46.2620 C   0  0  0  0  0  0  0  0  0  0  0  0
   58.5110   32.2300   46.1590 C   0  0  0  0  0  0  0  0  0  0  0  0
   59.4500   31.5100   47.0510 C   0  0  0  0  0  0  0  0  0  0  0  0
   59.0550   30.4740   47.6500 O   0  0  0  0  0  0  0  0  0  0  0  0
   60.8300   31.9950   47.2920 C   0  0  0  0  0  0  0  0  0  0  0  0
   61.9270   31.1130   47.2530 C   0  0  0  0  0  0  0  0  0  0  0  0
   63.2220   31.5830   47.4950 C   0  0  0  0  0  0  0  0  0  0  0  0
   63.4350   32.9320   47.7870 C   0  0  0  0  0  0  0  0  0  0  0  0
   62.3530   33.8130   47.8430 C   0  0  0  0  0  0  0  0  0  0  0  0
   61.0560   33.3490   47.6020 C   0  0  0  0  0  0  0  0  0  0  0  0
   53.8102   24.4032   46.5390 H   0  0  0  0  0  0  0  0  0  0  0  0
   53.1944   25.1509   45.0262 H   0  0  0  0  0  0  0  0  0  0  0  0
   54.7726   24.2931   45.0262 H   0  0  0  0  0  0  0  0  0  0  0  0
   56.5636   24.2828   46.7139 H   0  0  0  0  0  0  0  0  0  0  0  0
   59.0377   24.5810   46.7110 H   0  0  0  0  0  0  0  0  0  0  0  0
   60.0369   26.7487   45.9845 H   0  0  0  0  0  0  0  0  0  0  0  0
   58.5615   28.6342   45.2964 H   0  0  0  0  0  0  0  0  0  0  0  0
   58.2888   29.6524   45.4585 H   0  0  0  0  0  0  0  0  0  0  0  0
   58.3217   30.2118   43.7455 H   0  0  0  0  0  0  0  0  0  0  0  0
   56.3199   32.5202   43.7967 H   0  0  0  0  0  0  0  0  0  0  0  0
   56.7864   34.8108   45.0779 H   0  0  0  0  0  0  0  0  0  0  0  0
   58.6231   34.2932   46.9803 H   0  0  0  0  0  0  0  0  0  0  0  0
   61.7646   30.0480   47.0309 H   0  0  0  0  0  0  0  0  0  0  0  0
   64.0743   30.8887   47.4552 H   0  0  0  0  0  0  0  0  0  0  0  0
   64.4547   33.3004   47.9728 H   0  0  0  0  0  0  0  0  0  0  0  0
   62.5213   34.8745   48.0772 H   0  0  0  0  0  0  0  0  0  0  0  0
   60.2072   34.0467   47.6551 H   0  0  0  0  0  0  0  0  0  0  0  0
  1  2  1  0
  2  3  1  0
  3  4  2  0
  4  5  1  0
  5  6  2  0
  6  7  1  0
  7  8  2  0
  8  9  1  0
  9 10  1  0
 10 11  2  0
 10 12  1  0
 12 13  1  0
 13 14  1  0
 14 15  2  0
 15 16  1  0
 16 17  2  0
 17 18  1  0
 18 19  2  0
 18 20  1  0
 20 21  2  0
 21 22  1  0
 22 23  2  0
 23 24  1  0
 24 25  2  0
  8  3  1  0
 17 13  1  0
 25 20  1  0
  1 26  1  0
  1 27  1  0
  1 28  1  0
  4 29  1  0
  5 30  1  0
  6 31  1  0
  7 32  1  0
 12 33  1  0
 12 34  1  0
 14 35  1  0
 15 36  1  0
 16 37  1  0
 21 38  1  0
 22 39  1  0
 23 40  1  0
 24 41  1  0
 25 42  1  0
M  CHG  1   9  -1
M  END
>  <UniqueID>  (31) 
31

>  <SMILES>  (31) 
COc1ccccc1[N-]C(=O)Cn1cccc1C(=O)c1ccccc1

>  <Energy>  (31) 
79.16187800382043

>  <Genealogy>  (31) 
COc1ccccc1[N-]C(=O)Cn1cccc1C(=O)c1ccccc1 (protonated)
COc1ccccc1[N-]C(=O)Cn1cccc1C(=O)c1ccccc1 (3D coordinates assigned)
COc1ccccc1[N-]C(=O)Cn1cccc1C(=O)c1ccccc1 (optimized conformer: 79.16187800382043 kcal/mol)

>  <smiles>  (31) 
COc1ccccc1NC(=O)Cn1cccc1C(=O)c1ccccc1

>  <score_type>  (31) 
oracle

>  <origin>  (31) 
adg

>  <m_score__min__energy>  (31) 
-10.6

>  <m_primary>  (31) 
energy

$$$$
31:0
     RDKit          3D

 49 52  0  0  0  0  0  0  0  0999 V2000
   63.3850   33.6690   46.7330 C   0  0  0  0  0  0  0  0  0  0  0  0
   62.9660   33.8130   48.1950 C   0  0  0  0  0  0  0  0  0  0  0  0
   61.6200   33.2370   48.4280 N   0  0  0  0  0  0  0  0  0  0  0  0
   60.5400   34.2530   48.4090 C   0  0  0  0  0  0  0  0  0  0  0  0
   59.7080   34.2140   47.1560 C   0  0  0  0  0  0  0  0  0  0  0  0
   59.9180   34.9760   46.0230 C   0  0  0  0  0  0  0  0  0  0  0  0
   58.9330   34.6040   45.1340 C   0  0  0  0  0  0  0  0  0  0  0  0
   58.1900   33.6370   45.7820 C   0  0  0  0  0  0  0  0  0  0  0  0
   56.9870   32.9390   45.2280 C   0  0  0  0  0  0  0  0  0  0  0  0
   57.1960   31.4770   45.2100 N   0  0  0  0  0  0  0  0  0  0  0  0
   56.6140   30.8930   43.9780 C   0  0  0  0  0  0  0  0  0  0  0  0
   56.6170   29.3560   44.0530 C   0  0  0  0  0  0  0  0  0  0  0  0
   57.9470   28.8720   44.5290 C   0  0  0  0  0  0  0  0  0  0  0  0
   58.5190   27.2930   44.5080 S   0  0  0  0  0  0  0  0  0  0  0  0
   59.9760   27.6330   45.2900 C   0  0  0  0  0  0  0  0  0  0  0  0
   60.0150   28.9910   45.5870 C   0  0  0  0  0  0  0  0  0  0  0  0
   58.8650   29.6750   45.1780 C   0  0  0  0  0  0  0  0  0  0  0  0
   58.6420   31.1520   45.3130 C   0  0  0  0  0  0  0  0  0  0  0  0
   58.6710   33.4270   46.9860 O   0  0  0  0  0  0  0  0  0  0  0  0
   61.3400   32.1130   47.5080 C   0  0  0  0  0  0  0  0  0  0  0  0
   60.9040   30.8770   48.3110 C   0  0  0  0  0  0  0  0  0  0  0  0
   60.3340   31.1720   49.6910 C   0  0  0  0  0  0  0  0  0  0  0  0
   59.4080   30.7490   48.5590 C   0  0  0  0  0  0  0  0  0  0  0  0
   64.4242   33.3118   46.6829 H   0  0  0  0  0  0  0  0  0  0  0  0
   62.7243   32.9463   46.2317 H   0  0  0  0  0  0  0  0  0  0  0  0
   63.3082   34.6451   46.2317 H   0  0  0  0  0  0  0  0  0  0  0  0
   63.6951   33.2887   48.8302 H   0  0  0  0  0  0  0  0  0  0  0  0
   62.9334   34.8841   48.4433 H   0  0  0  0  0  0  0  0  0  0  0  0
   59.8804   34.0775   49.2716 H   0  0  0  0  0  0  0  0  0  0  0  0
   61.0216   35.2411   48.4496 H   0  0  0  0  0  0  0  0  0  0  0  0
   60.7079   35.7247   45.8635 H   0  0  0  0  0  0  0  0  0  0  0  0
   58.7720   34.9960   44.1189 H   0  0  0  0  0  0  0  0  0  0  0  0
   56.1136   33.1715   45.8550 H   0  0  0  0  0  0  0  0  0  0  0  0
   56.8193   33.2857   44.1976 H   0  0  0  0  0  0  0  0  0  0  0  0
   55.5789   31.2473   43.8641 H   0  0  0  0  0  0  0  0  0  0  0  0
   57.2208   31.2070   43.1159 H   0  0  0  0  0  0  0  0  0  0  0  0
   55.8362   29.0237   44.7530 H   0  0  0  0  0  0  0  0  0  0  0  0
   56.4194   28.9446   43.0521 H   0  0  0  0  0  0  0  0  0  0  0  0
   60.7635   26.9020   45.5254 H   0  0  0  0  0  0  0  0  0  0  0  0
   60.8628   29.4774   46.0916 H   0  0  0  0  0  0  0  0  0  0  0  0
   59.0182   31.4859   46.2912 H   0  0  0  0  0  0  0  0  0  0  0  0
   59.1784   31.6660   44.5017 H   0  0  0  0  0  0  0  0  0  0  0  0
   60.5355   32.4004   46.8151 H   0  0  0  0  0  0  0  0  0  0  0  0
   62.2513   31.8736   46.9403 H   0  0  0  0  0  0  0  0  0  0  0  0
   61.6850   30.2124   47.9130 H   0  0  0  0  0  0  0  0  0  0  0  0
   60.5315   30.4840   50.5263 H   0  0  0  0  0  0  0  0  0  0  0  0
   60.3761   32.0253   50.3839 H   0  0  0  0  0  0  0  0  0  0  0  0
   58.9364   29.7554   48.5763 H   0  0  0  0  0  0  0  0  0  0  0  0
   58.5038   31.1700   48.0952 H   0  0  0  0  0  0  0  0  0  0  0  0
  1  2  1  0
  2  3  1  0
  3  4  1  0
  4  5  1  0
  5  6  2  0
  6  7  1  0
  7  8  2  0
  8  9  1  0
  9 10  1  0
 10 11  1  0
 11 12  1  0
 12 13  1  0
 13 14  1  0
 14 15  1  0
 15 16  2  0
 16 17  1  0
 17 18  1  0
  8 19  1  0
  3 20  1  0
 20 21  1  0
 21 22  1  0
 22 23  1  0
 19  5  1  0
 23 21  1  0
 18 10  1  0
 17 13  2  0
  1 24  1  0
  1 25  1  0
  1 26  1  0
  2 27  1  0
  2 28  1  0
  4 29  1  0
  4 30  1  0
  6 31  1  0
  7 32  1  0
  9 33  1  0
  9 34  1  0
 11 35  1  0
 11 36  1  0
 12 37  1  0
 12 38  1  0
 15 39  1  0
 16 40  1  0
 18 41  1  0
 18 42  1  0
 20 43  1  0
 20 44  1  0
 21 45  1  0
 22 46  1  0
 22 47  1  0
 23 48  1  0
 23 49  1  0
M  END
>  <UniqueID>  (32) 
32

>  <SMILES>  (32) 
CCN(Cc1ccc(CN2CCc3sccc3C2)o1)CC1CC1

>  <Energy>  (32) 
369.39215199402616

>  <Genealogy>  (32) 
CCN(Cc1ccc(CN2CCc3sccc3C2)o1)CC1CC1 (3D coordinates assigned)
CCN(Cc1ccc(CN2CCc3sccc3C2)o1)CC1CC1 (nonaromatic ring conformer: 369.39215199402616 kcal/mol)

>  <smiles>  (32) 
CCN(Cc1ccc(CN2CCc3sccc3C2)o1)CC1CC1

>  <score_type>  (32) 
oracle

>  <origin>  (32) 
adg

>  <m_score__min__energy>  (32) 
-8.0399999999999991

>  <m_primary>  (32) 
energy

$$$$
32:0
     RDKit          3D

 51 53  0  0  0  0  0  0  0  0999 V2000
   59.6550   33.4540   50.3560 C   0  0  0  0  0  0  0  0  0  0  0  0
   59.4160   32.1820   50.0240 C   0  0  0  0  0  0  0  0  0  0  0  0
   60.5310   31.2250   49.7050 C   0  0  0  0  0  0  0  0  0  0  0  0
   60.7830   31.1830   48.2560 N   0  0  0  0  0  0  0  0  0  0  0  0
   61.8440   32.0270   47.6730 C   0  0  0  0  0  0  0  0  0  0  0  0
   61.3700   33.4640   47.4190 C   0  0  0  0  0  0  0  0  0  0  0  0
   61.0480   33.6600   45.9990 N   0  0  0  0  0  0  0  0  0  0  0  0
   59.9140   34.5800   45.7880 C   0  0  2  0  0  0  0  0  0  0  0  0
   58.8880   34.5620   46.9550 C   0  0  0  0  0  0  0  0  0  0  0  0
   58.1980   33.1970   47.1300 C   0  0  0  0  0  0  0  0  0  0  0  0
   57.8340   32.6150   45.7980 C   0  0  0  0  0  0  0  0  0  0  0  0
   57.0270   31.5520   45.6200 N   0  0  0  0  0  0  0  0  0  0  0  0
   57.0810   31.3980   44.2750 C   0  0  0  0  0  0  0  0  0  0  0  0
   56.3620   30.3810   43.5760 N   0  0  0  0  0  0  0  0  0  0  0  0
   56.5900   30.1670   42.3670 O   0  0  0  0  0  0  0  0  0  0  0  0
   55.4100   29.6350   44.2300 O   0  0  0  0  0  0  0  0  0  0  0  0
   57.8770   32.2990   43.6630 N   0  0  0  0  0  0  0  0  0  0  0  0
   58.3600   33.0430   44.6390 N   0  0  0  0  0  0  0  0  0  0  0  0
   59.2070   34.2200   44.4650 C   0  0  0  0  0  0  0  0  0  0  0  0
   60.0590   30.2500   47.4190 C   0  0  0  0  0  0  0  0  0  0  0  0
   59.0300   29.4570   47.9560 C   0  0  0  0  0  0  0  0  0  0  0  0
   58.3250   28.5600   47.1480 C   0  0  0  0  0  0  0  0  0  0  0  0
   58.6400   28.4380   45.7820 C   0  0  0  0  0  0  0  0  0  0  0  0
   57.9650   27.5520   44.9290 O   0  0  0  0  0  0  0  0  0  0  0  0
   58.1290   27.5170   43.5150 C   0  0  0  0  0  0  0  0  0  0  0  0
   59.6640   29.2250   45.2460 C   0  0  0  0  0  0  0  0  0  0  0  0
   60.3680   30.1220   46.0540 C   0  0  0  0  0  0  0  0  0  0  0  0
   58.8174   34.1296   50.5839 H   0  0  0  0  0  0  0  0  0  0  0  0
   60.6894   33.8255   50.4014 H   0  0  0  0  0  0  0  0  0  0  0  0
   58.3762   31.8256   49.9830 H   0  0  0  0  0  0  0  0  0  0  0  0
   61.4458   31.5518   50.2211 H   0  0  0  0  0  0  0  0  0  0  0  0
   60.2405   30.2191   50.0423 H   0  0  0  0  0  0  0  0  0  0  0  0
   62.6969   32.0532   48.3672 H   0  0  0  0  0  0  0  0  0  0  0  0
   62.1282   31.5898   46.7044 H   0  0  0  0  0  0  0  0  0  0  0  0
   60.4723   33.6605   48.0235 H   0  0  0  0  0  0  0  0  0  0  0  0
   62.1768   34.1576   47.6982 H   0  0  0  0  0  0  0  0  0  0  0  0
   60.8480   32.7330   45.5600 H   0  0  0  0  0  0  0  0  0  0  0  0
   60.3248   35.5995   45.7453 H   0  0  0  0  0  0  0  0  0  0  0  0
   59.4146   34.8105   47.8882 H   0  0  0  0  0  0  0  0  0  0  0  0
   58.1056   35.2973   46.7159 H   0  0  0  0  0  0  0  0  0  0  0  0
   58.8822   32.5102   47.6498 H   0  0  0  0  0  0  0  0  0  0  0  0
   57.2794   33.3371   47.7186 H   0  0  0  0  0  0  0  0  0  0  0  0
   59.9646   34.0097   43.6957 H   0  0  0  0  0  0  0  0  0  0  0  0
   58.5774   35.0678   44.1570 H   0  0  0  0  0  0  0  0  0  0  0  0
   58.7769   29.5431   49.0230 H   0  0  0  0  0  0  0  0  0  0  0  0
   57.5210   27.9473   47.5817 H   0  0  0  0  0  0  0  0  0  0  0  0
   59.1784   27.2930   43.2730 H   0  0  0  0  0  0  0  0  0  0  0  0
   57.4802   26.7371   43.0898 H   0  0  0  0  0  0  0  0  0  0  0  0
   57.8551   28.4938   43.0898 H   0  0  0  0  0  0  0  0  0  0  0  0
   59.9176   29.1373   44.1792 H   0  0  0  0  0  0  0  0  0  0  0  0
   61.1714   30.7335   45.6175 H   0  0  0  0  0  0  0  0  0  0  0  0
  1  2  2  0
  2  3  1  0
  3  4  1  0
  4  5  1  0
  5  6  1  0
  6  7  1  0
  7  8  1  0
  8  9  1  0
  9 10  1  0
 10 11  1  0
 11 12  2  0
 12 13  1  0
 13 14  1  0
 14 15  2  0
 14 16  1  0
 13 17  2  0
 17 18  1  0
 18 19  1  0
  4 20  1  0
 20 21  2  0
 21 22  1  0
 22 23  2  0
 23 24  1  0
 24 25  1  0
 23 26  1  0
 26 27  2  0
 19  8  1  0
 27 20  1  0
 18 11  1  0
  1 28  1  0
  1 29  1  0
  2 30  1  0
  3 31  1  0
  3 32  1  0
  5 33  1  0
  5 34  1  0
  6 35  1  0
  6 36  1  0
  7 37  1  0
  8 38  1  6
  9 39  1  0
  9 40  1  0
 10 41  1  0
 10 42  1  0
 19 43  1  0
 19 44  1  0
 21 45  1  0
 22 46  1  0
 25 47  1  0
 25 48  1  0
 25 49  1  0
 26 50  1  0
 27 51  1  0
M  CHG  2  14   1  16  -1
M  END
>  <UniqueID>  (33) 
33

>  <SMILES>  (33) 
C=CCN(CCN[C@@H]1CCc2nc([N+](=O)[O-])nn2C1)c1ccc(OC)cc1

>  <Energy>  (33) 
83.57549496233169

>  <Genealogy>  (33) 
C=CCN(CCN[C@@H]1CCc2nc([N+](=O)[O-])nn2C1)c1ccc(OC)cc1 (chirality)
C=CCN(CCN[C@@H]1CCc2nc([N+](=O)[O-])nn2C1)c1ccc(OC)cc1 (3D coordinates assigned)
C=CCN(CCN[C@@H]1CCc2nc([N+](=O)[O-])nn2C1)c1ccc(OC)cc1 (nonaromatic ring conformer: 83.57549496233169 kcal/mol)

>  <smiles>  (33) 
C=CCN(CCNC1CCc2nc([N+](=O)[O-])nn2C1)c1ccc(OC)cc1

>  <score_type>  (33) 
oracle

>  <origin>  (33) 
adg

>  <m_score__min__energy>  (33) 
-8.4600000000000009

>  <m_primary>  (33) 
energy

$$$$
33:0
     RDKit          3D

 38 39  0  0  0  0  0  0  0  0999 V2000
   50.2460   33.8560   53.1650 C   0  0  0  0  0  0  0  0  0  0  0  0
   50.6210   33.0800   52.0330 O   0  0  0  0  0  0  0  0  0  0  0  0
   51.5660   32.0400   52.0580 C   0  0  0  0  0  0  0  0  0  0  0  0
   52.2980   31.7800   50.8940 C   0  0  0  0  0  0  0  0  0  0  0  0
   53.2440   30.7530   50.8630 C   0  0  0  0  0  0  0  0  0  0  0  0
   53.4810   29.9680   52.0060 C   0  0  0  0  0  0  0  0  0  0  0  0
   54.4650   28.9110   51.9840 N   0  0  0  0  0  0  0  0  0  0  0  0
   55.0780   28.6890   53.3070 C   0  0  0  0  0  0  0  0  0  0  0  0
   56.5080   29.2650   53.4430 C   0  0  0  0  0  0  0  0  0  0  0  0
   57.0170   29.7880   52.1540 N   0  0  0  0  0  0  0  0  0  0  0  0
   58.4440   29.4470   51.9990 C   0  0  0  0  0  0  0  0  0  0  0  0
   58.9760   29.9520   50.6420 C   0  0  0  0  0  0  0  0  0  0  0  0
   58.1350   30.9180   50.0350 O   0  0  0  0  0  0  0  0  0  0  0  0
   57.7480   31.8820   50.9860 C   0  0  0  0  0  0  0  0  0  0  0  0
   56.8220   31.2550   52.0440 C   0  0  0  0  0  0  0  0  0  0  0  0
   52.7360   30.2220   53.1710 C   0  0  0  0  0  0  0  0  0  0  0  0
   51.7860   31.2480   53.1990 C   0  0  0  0  0  0  0  0  0  0  0  0
   50.5084   33.3130   54.0850 H   0  0  0  0  0  0  0  0  0  0  0  0
   50.7785   34.8183   53.1426 H   0  0  0  0  0  0  0  0  0  0  0  0
   49.1612   34.0367   53.1426 H   0  0  0  0  0  0  0  0  0  0  0  0
   52.1267   32.3903   49.9950 H   0  0  0  0  0  0  0  0  0  0  0  0
   53.8074   30.5567   49.9388 H   0  0  0  0  0  0  0  0  0  0  0  0
   55.1990   29.1070   51.2720 H   0  0  0  0  0  0  0  0  0  0  0  0
   53.9890   28.0270   51.6910 H   0  0  0  0  0  0  0  0  0  0  0  0
   54.4403   29.1632   54.0676 H   0  0  0  0  0  0  0  0  0  0  0  0
   55.1594   27.6003   53.4413 H   0  0  0  0  0  0  0  0  0  0  0  0
   56.4935   30.0832   54.1781 H   0  0  0  0  0  0  0  0  0  0  0  0
   57.1738   28.4520   53.7681 H   0  0  0  0  0  0  0  0  0  0  0  0
   59.0187   29.9170   52.8107 H   0  0  0  0  0  0  0  0  0  0  0  0
   58.5548   28.3534   52.0398 H   0  0  0  0  0  0  0  0  0  0  0  0
   59.9669   30.4023   50.8011 H   0  0  0  0  0  0  0  0  0  0  0  0
   59.0184   29.0856   49.9656 H   0  0  0  0  0  0  0  0  0  0  0  0
   58.6449   32.2820   51.4815 H   0  0  0  0  0  0  0  0  0  0  0  0
   57.2058   32.6899   50.4729 H   0  0  0  0  0  0  0  0  0  0  0  0
   57.0347   31.7157   53.0200 H   0  0  0  0  0  0  0  0  0  0  0  0
   55.7818   31.4374   51.7362 H   0  0  0  0  0  0  0  0  0  0  0  0
   52.9018   29.6082   54.0686 H   0  0  0  0  0  0  0  0  0  0  0  0
   51.2090   31.4361   54.1165 H   0  0  0  0  0  0  0  0  0  0  0  0
  1  2  1  0
  2  3  1  0
  3  4  2  0
  4  5  1  0
  5  6  2  0
  6  7  1  0
  7  8  1  0
  8  9  1  0
  9 10  1  0
 10 11  1  0
 11 12  1  0
 12 13  1  0
 13 14  1  0
 14 15  1  0
  6 16  1  0
 16 17  2  0
 17  3  1  0
 15 10  1  0
  1 18  1  0
  1 19  1  0
  1 20  1  0
  4 21  1  0
  5 22  1  0
  7 23  1  0
  7 24  1  0
  8 25  1  0
  8 26  1  0
  9 27  1  0
  9 28  1  0
 11 29  1  0
 11 30  1  0
 12 31  1  0
 12 32  1  0
 14 33  1  0
 14 34  1  0
 15 35  1  0
 15 36  1  0
 16 37  1  0
 17 38  1  0
M  CHG  1   7   1
M  END
>  <UniqueID>  (34) 
34

>  <SMILES>  (34) 
COc1ccc([NH2+]CCN2CCOCC2)cc1

>  <Energy>  (34) 
49.43263947316864

>  <Genealogy>  (34) 
COc1ccc([NH2+]CCN2CCOCC2)cc1 (protonated)
COc1ccc([NH2+]CCN2CCOCC2)cc1 (3D coordinates assigned)
COc1ccc([NH2+]CCN2CCOCC2)cc1 (nonaromatic ring conformer: 49.43263947316864 kcal/mol)

>  <smiles>  (34) 
COc1ccc(NCCN2CCOCC2)cc1

>  <score_type>  (34) 
oracle

>  <origin>  (34) 
adg

>  <m_score__min__energy>  (34) 
-4.4100000000000001

>  <m_primary>  (34) 
energy

$$$$
34:0
     RDKit          3D

 40 42  0  0  0  0  0  0  0  0999 V2000
   55.8570   22.2271   44.2713 H   0  0  0  0  0  0  0  0  0  0  0  0
   56.1570   23.1990   44.6900 C   0  0  0  0  0  0  0  0  0  0  0  0
   57.5120   23.5220   44.8050 C   0  0  0  0  0  0  0  0  0  0  0  0
   58.2777   22.8071   44.4696 H   0  0  0  0  0  0  0  0  0  0  0  0
   57.8950   24.7530   45.3460 C   0  0  0  0  0  0  0  0  0  0  0  0
   58.9618   25.0116   45.4172 H   0  0  0  0  0  0  0  0  0  0  0  0
   56.9260   25.6590   45.7980 C   0  0  0  0  0  0  0  0  0  0  0  0
   57.3470   26.9280   46.3140 N   0  0  0  0  0  0  0  0  0  0  0  0
   57.1380   28.0860   45.7530 C   0  0  0  0  0  0  0  0  0  0  0  0
   56.0020   28.4240   45.1050 N   0  0  0  0  0  0  0  0  0  0  0  0
   55.1470   27.8460   44.9440 H   0  0  0  0  0  0  0  0  0  0  0  0
   56.1550   29.7180   44.7730 C   0  0  0  0  0  0  0  0  0  0  0  0
   55.4191   30.3339   44.2353 H   0  0  0  0  0  0  0  0  0  0  0  0
   57.3910   30.1450   45.2200 C   0  0  0  0  0  0  0  0  0  0  0  0
   57.9000   31.5260   45.1140 C   0  0  0  0  0  0  0  0  0  0  0  0
   58.0400   32.1400   43.8600 C   0  0  0  0  0  0  0  0  0  0  0  0
   57.7854   31.5839   42.9457 H   0  0  0  0  0  0  0  0  0  0  0  0
   58.5020   33.4560   43.7690 C   0  0  0  0  0  0  0  0  0  0  0  0
   58.6148   33.9309   42.7832 H   0  0  0  0  0  0  0  0  0  0  0  0
   58.8210   34.1700   44.9270 C   0  0  0  0  0  0  0  0  0  0  0  0
   59.1807   35.2067   44.8503 H   0  0  0  0  0  0  0  0  0  0  0  0
   58.6840   33.5690   46.1870 C   0  0  0  0  0  0  0  0  0  0  0  0
   58.9800   34.3510   47.4320 C   0  0  0  0  0  0  0  0  0  0  0  0
   58.7476   33.7370   48.3146 H   0  0  0  0  0  0  0  0  0  0  0  0
   60.0447   34.6268   47.4473 H   0  0  0  0  0  0  0  0  0  0  0  0
   58.3648   35.2627   47.4473 H   0  0  0  0  0  0  0  0  0  0  0  0
   58.2020   32.2530   46.2760 C   0  0  0  0  0  0  0  0  0  0  0  0
   58.0602   31.7888   47.2631 H   0  0  0  0  0  0  0  0  0  0  0  0
   58.0130   29.1130   45.8380 N   0  0  0  0  0  0  0  0  0  0  0  0
   59.2360   29.1500   46.6480 C   0  0  0  0  0  0  0  0  0  0  0  0
   59.3128   28.2205   47.2311 H   0  0  0  0  0  0  0  0  0  0  0  0
   59.1907   30.0171   47.3233 H   0  0  0  0  0  0  0  0  0  0  0  0
   60.4620   29.2840   45.7530 C   0  0  0  0  0  0  0  0  0  0  0  0
   61.3625   29.3824   46.3770 H   0  0  0  0  0  0  0  0  0  0  0  0
   60.5518   28.3903   45.1180 H   0  0  0  0  0  0  0  0  0  0  0  0
   60.3567   30.1760   45.1180 H   0  0  0  0  0  0  0  0  0  0  0  0
   55.5610   25.3440   45.6500 C   0  0  0  0  0  0  0  0  0  0  0  0
   54.6020   26.2400   45.9940 F   0  0  0  0  0  0  0  0  0  0  0  0
   55.1830   24.1110   45.1070 C   0  0  0  0  0  0  0  0  0  0  0  0
   54.1169   23.8587   45.0080 H   0  0  0  0  0  0  0  0  0  0  0  0
  1  2  1  0
  2  3  2  0
  3  4  1  0
  3  5  1  0
  5  6  1  0
  5  7  2  0
  7  8  1  0
  8  9  2  0
  9 10  1  0
 10 11  1  0
 10 12  1  0
 12 13  1  0
 12 14  2  0
 14 15  1  0
 15 16  2  0
 16 17  1  0
 16 18  1  0
 18 19  1  0
 18 20  2  0
 20 21  1  0
 20 22  1  0
 22 23  1  0
 23 24  1  0
 23 25  1  0
 23 26  1  0
 22 27  2  0
 27 28  1  0
 14 29  1  0
 29 30  1  0
 30 31  1  0
 30 32  1  0
 30 33  1  0
 33 34  1  0
 33 35  1  0
 33 36  1  0
  7 37  1  0
 37 38  1  0
 37 39  2  0
 39 40  1  0
 39  2  1  0
 29  9  1  0
 27 15  1  0
M  END
>  <UniqueID>  (35) 
35

>  <SMILES>  (35) 
CCn1c(-c2cccc(C)c2)c[nH]/c1=N\c1ccccc1F

>  <Energy>  (35) 
83.33755718856729

>  <Genealogy>  (35) 
CCn1c(-c2cccc(C)c2)c[nH]/c1=N\c1ccccc1F (cis-trans isomerization)
CCn1c(-c2cccc(C)c2)c[nH]/c1=N\c1ccccc1F (3D coordinates assigned)
CCn1c(-c2cccc(C)c2)c[nH]/c1=N\c1ccccc1F (optimized conformer: 83.33755718856729 kcal/mol)

>  <smiles>  (35) 
CCn1c(-c2cccc(C)c2)c[nH]c1=Nc1ccccc1F

>  <score_type>  (35) 
oracle

>  <origin>  (35) 
adg

>  <m_score__min__energy>  (35) 
-7.6100000000000003

>  <m_primary>  (35) 
energy

$$$$
35:0
     RDKit          3D

 30 33  0  0  0  0  0  0  0  0999 V2000
   56.2690   29.3510   42.3460 C   0  0  0  0  0  0  0  0  0  0  0  0
   56.8810   30.1820   43.3750 N   0  0  0  0  0  0  0  0  0  0  0  0
   57.1160   31.4820   43.1890 N   0  0  0  0  0  0  0  0  0  0  0  0
   57.6550   31.9320   44.3340 C   0  0  0  0  0  0  0  0  0  0  0  0
   58.0530   33.1970   44.6130 N   0  0  0  0  0  0  0  0  0  0  0  0
   58.5810   33.4500   45.8530 C   0  0  0  0  0  0  0  0  0  0  0  0
   59.0120   34.7370   46.2030 C   0  0  0  0  0  0  0  0  0  0  0  0
   59.5470   34.9750   47.4730 C   0  0  0  0  0  0  0  0  0  0  0  0
   59.6570   33.9340   48.4020 C   0  0  0  0  0  0  0  0  0  0  0  0
   59.2330   32.6430   48.0720 C   0  0  0  0  0  0  0  0  0  0  0  0
   58.6950   32.3860   46.8070 C   0  0  0  0  0  0  0  0  0  0  0  0
   58.2780   31.1260   46.4790 N   0  0  0  0  0  0  0  0  0  0  0  0
   57.7620   30.9310   45.2420 C   0  0  0  0  0  0  0  0  0  0  0  0
   57.2770   29.8020   44.6260 C   0  0  0  0  0  0  0  0  0  0  0  0
   57.1900   28.4620   45.2450 C   0  0  0  0  0  0  0  0  0  0  0  0
   58.2290   27.6560   45.6810 C   0  0  0  0  0  0  0  0  0  0  0  0
   57.6350   26.5230   46.1950 C   0  0  0  0  0  0  0  0  0  0  0  0
   56.2780   26.7020   46.0500 C   0  0  0  0  0  0  0  0  0  0  0  0
   56.0440   27.8630   45.4850 O   0  0  0  0  0  0  0  0  0  0  0  0
   55.6808   28.5523   42.8215 H   0  0  0  0  0  0  0  0  0  0  0  0
   55.6089   29.9693   41.7199 H   0  0  0  0  0  0  0  0  0  0  0  0
   57.0553   28.9041   41.7199 H   0  0  0  0  0  0  0  0  0  0  0  0
   57.9570   33.9510   43.8940 H   0  0  0  0  0  0  0  0  0  0  0  0
   58.9294   35.5604   45.4783 H   0  0  0  0  0  0  0  0  0  0  0  0
   59.8835   35.9867   47.7435 H   0  0  0  0  0  0  0  0  0  0  0  0
   60.0796   34.1326   49.3980 H   0  0  0  0  0  0  0  0  0  0  0  0
   59.3226   31.8298   48.8073 H   0  0  0  0  0  0  0  0  0  0  0  0
   59.3057   27.8749   45.6280 H   0  0  0  0  0  0  0  0  0  0  0  0
   58.1433   25.6513   46.6329 H   0  0  0  0  0  0  0  0  0  0  0  0
   55.5070   25.9815   46.3605 H   0  0  0  0  0  0  0  0  0  0  0  0
  1  2  1  0
  2  3  1  0
  3  4  2  0
  4  5  1  0
  5  6  2  0
  6  7  1  0
  7  8  2  0
  8  9  1  0
  9 10  2  0
 10 11  1  0
 11 12  2  0
 12 13  1  0
 13 14  2  0
 14 15  1  0
 15 16  2  0
 16 17  1  0
 17 18  2  0
 18 19  1  0
 14  2  1  0
 19 15  1  0
 13  4  1  0
 11  6  1  0
  1 20  1  0
  1 21  1  0
  1 22  1  0
  5 23  1  0
  7 24  1  0
  8 25  1  0
  9 26  1  0
 10 27  1  0
 16 28  1  0
 17 29  1  0
 18 30  1  0
M  CHG  1   5   1
M  END
>  <UniqueID>  (36) 
36

>  <SMILES>  (36) 
Cn1nc2[nH+]c3ccccc3nc2c1-c1ccco1

>  <Energy>  (36) 
107.7455012711554

>  <Genealogy>  (36) 
Cn1nc2[nH+]c3ccccc3nc2c1-c1ccco1 (protonated)
Cn1nc2[nH+]c3ccccc3nc2c1-c1ccco1 (3D coordinates assigned)
Cn1nc2[nH+]c3ccccc3nc2c1-c1ccco1 (optimized conformer: 107.7455012711554 kcal/mol)

>  <smiles>  (36) 
Cn1nc2nc3ccccc3nc2c1-c1ccco1

>  <score_type>  (36) 
oracle

>  <origin>  (36) 
adg

>  <m_score__min__energy>  (36) 
-5.5

>  <m_primary>  (36) 
energy

$$$$
36:0
     RDKit          3D

 48 51  0  0  0  0  0  0  0  0999 V2000
   55.5060   29.7640   43.6490 C   0  0  0  0  0  0  0  0  0  0  0  0
   56.3110   29.2080   44.6850 O   0  0  0  0  0  0  0  0  0  0  0  0
   57.3300   29.8980   45.3590 C   0  0  0  0  0  0  0  0  0  0  0  0
   58.1040   29.1960   46.2740 C   0  0  0  0  0  0  0  0  0  0  0  0
   59.1230   29.8290   46.9800 C   0  0  0  0  0  0  0  0  0  0  0  0
   59.4180   31.2010   46.7740 C   0  0  0  0  0  0  0  0  0  0  0  0
   58.6280   31.9260   45.8440 C   0  0  0  0  0  0  0  0  0  0  0  0
   57.5870   31.2610   45.1520 C   0  0  0  0  0  0  0  0  0  0  0  0
   58.8750   33.3090   45.6510 C   0  0  0  0  0  0  0  0  0  0  0  0
   58.2040   34.0450   44.5010 C   0  0  0  0  0  0  0  0  0  0  0  0
   59.7170   33.9800   46.5120 N   0  0  0  0  0  0  0  0  0  0  0  0
   59.6690   35.4560   46.5750 C   0  0  0  0  0  0  0  0  0  0  0  0
   60.6000   33.2790   47.3090 C   0  0  0  0  0  0  0  0  0  0  0  0
   61.6640   33.9400   47.9730 C   0  0  0  0  0  0  0  0  0  0  0  0
   62.5650   33.2430   48.7860 C   0  0  0  0  0  0  0  0  0  0  0  0
   63.6040   33.9210   49.4400 C   0  0  0  0  0  0  0  0  0  0  0  0
   64.5170   33.2190   50.2510 C   0  0  0  0  0  0  0  0  0  0  0  0
   65.5670   33.8650   50.9230 O   0  0  0  0  0  0  0  0  0  0  0  0
   65.5260   34.2690   52.2880 C   0  0  0  0  0  0  0  0  0  0  0  0
   64.3870   31.8310   50.4010 C   0  0  0  0  0  0  0  0  0  0  0  0
   65.3140   31.1610   51.2160 O   0  0  0  0  0  0  0  0  0  0  0  0
   66.6980   31.0140   50.9130 C   0  0  0  0  0  0  0  0  0  0  0  0
   63.3460   31.1530   49.7400 C   0  0  0  0  0  0  0  0  0  0  0  0
   62.4350   31.8550   48.9340 C   0  0  0  0  0  0  0  0  0  0  0  0
   61.4070   31.1780   48.2670 C   0  0  0  0  0  0  0  0  0  0  0  0
   60.4730   31.8690   47.4550 C   0  0  0  0  0  0  0  0  0  0  0  0
   54.6784   30.3356   44.0945 H   0  0  0  0  0  0  0  0  0  0  0  0
   56.1195   30.4318   43.0264 H   0  0  0  0  0  0  0  0  0  0  0  0
   55.0986   28.9538   43.0264 H   0  0  0  0  0  0  0  0  0  0  0  0
   57.9093   28.1266   46.4428 H   0  0  0  0  0  0  0  0  0  0  0  0
   59.7105   29.2545   47.7113 H   0  0  0  0  0  0  0  0  0  0  0  0
   56.9679   31.8243   44.4383 H   0  0  0  0  0  0  0  0  0  0  0  0
   57.5141   34.8017   44.9028 H   0  0  0  0  0  0  0  0  0  0  0  0
   58.9701   34.5378   43.8844 H   0  0  0  0  0  0  0  0  0  0  0  0
   57.6426   33.3276   43.8844 H   0  0  0  0  0  0  0  0  0  0  0  0
   59.6585   35.7780   47.6268 H   0  0  0  0  0  0  0  0  0  0  0  0
   60.5540   35.8734   46.0726 H   0  0  0  0  0  0  0  0  0  0  0  0
   58.7587   35.8150   46.0726 H   0  0  0  0  0  0  0  0  0  0  0  0
   61.7842   35.0260   47.8462 H   0  0  0  0  0  0  0  0  0  0  0  0
   63.7067   35.0095   49.3187 H   0  0  0  0  0  0  0  0  0  0  0  0
   65.6158   33.3841   52.9352 H   0  0  0  0  0  0  0  0  0  0  0  0
   66.3588   34.9582   52.4916 H   0  0  0  0  0  0  0  0  0  0  0  0
   64.5717   34.7768   52.4916 H   0  0  0  0  0  0  0  0  0  0  0  0
   67.2736   30.9529   51.8484 H   0  0  0  0  0  0  0  0  0  0  0  0
   66.8497   30.0947   50.3283 H   0  0  0  0  0  0  0  0  0  0  0  0
   67.0394   31.8809   50.3283 H   0  0  0  0  0  0  0  0  0  0  0  0
   63.2449   30.0638   49.8556 H   0  0  0  0  0  0  0  0  0  0  0  0
   61.3223   30.0866   48.3754 H   0  0  0  0  0  0  0  0  0  0  0  0
  1  2  1  0
  2  3  1  0
  3  4  2  0
  4  5  1  0
  5  6  2  0
  6  7  1  0
  7  8  2  0
  7  9  1  0
  9 10  1  0
  9 11  2  0
 11 12  1  0
 11 13  1  0
 13 14  2  0
 14 15  1  0
 15 16  2  0
 16 17  1  0
 17 18  1  0
 18 19  1  0
 17 20  2  0
 20 21  1  0
 21 22  1  0
 20 23  1  0
 23 24  2  0
 24 25  1  0
 25 26  2  0
  8  3  1  0
 26 13  1  0
 26  6  1  0
 24 15  1  0
  1 27  1  0
  1 28  1  0
  1 29  1  0
  4 30  1  0
  5 31  1  0
  8 32  1  0
 10 33  1  0
 10 34  1  0
 10 35  1  0
 12 36  1  0
 12 37  1  0
 12 38  1  0
 14 39  1  0
 16 40  1  0
 19 41  1  0
 19 42  1  0
 19 43  1  0
 22 44  1  0
 22 45  1  0
 22 46  1  0
 23 47  1  0
 25 48  1  0
M  CHG  1  11   1
M  END
>  <UniqueID>  (37) 
37

>  <SMILES>  (37) 
COc1ccc2c(c1)c(C)[n+](C)c1cc3cc(OC)c(OC)cc3cc21

>  <Energy>  (37) 
80.72249826138457

>  <Genealogy>  (37) 
COc1ccc2c(c1)c(C)[n+](C)c1cc3cc(OC)c(OC)cc3cc21 (3D coordinates assigned)
COc1ccc2c(c1)c(C)[n+](C)c1cc3cc(OC)c(OC)cc3cc21 (optimized conformer: 80.72249826138457 kcal/mol)

>  <smiles>  (37) 
COc1ccc2c(c1)c(C)[n+](C)c1cc3cc(OC)c(OC)cc3cc21

>  <score_type>  (37) 
oracle

>  <origin>  (37) 
adg

>  <m_score__min__energy>  (37) 
-5.6299999999999999

>  <m_primary>  (37) 
energy

$$$$
37:0
     RDKit          3D

 55 58  0  0  1  0  0  0  0  0999 V2000
   55.7000   29.9180   44.0390 C   0  0  0  0  0  0  0  0  0  0  0  0
   56.8770   30.5500   43.3420 C   0  0  0  0  0  0  0  0  0  0  0  0
   57.6580   31.3890   44.2830 C   0  0  0  0  0  0  0  0  0  0  0  0
   58.5530   30.8450   45.0090 O   0  0  0  0  0  0  0  0  0  0  0  0
   57.3900   32.7830   44.3520 N   0  0  0  0  0  0  0  0  0  0  0  0
   58.1720   33.5400   45.2740 C   0  0  0  0  0  0  0  0  0  0  0  0
   58.9130   34.6310   44.8740 C   0  0  0  0  0  0  0  0  0  0  0  0
   59.6350   35.3020   45.8260 C   0  0  0  0  0  0  0  0  0  0  0  0
   59.6730   34.9640   47.1530 C   0  0  0  0  0  0  0  0  0  0  0  0
   58.9270   33.8660   47.5540 C   0  0  0  0  0  0  0  0  0  0  0  0
   58.8710   33.4150   48.8430 O   0  0  0  0  0  0  0  0  0  0  0  0
   58.7240   32.1110   49.2530 C   0  0  0  0  0  0  0  0  0  0  0  0
   59.2490   31.0560   48.5960 N   0  0  0  0  0  0  0  0  0  0  0  0
   59.0260   29.8420   49.1080 C   0  0  0  0  0  0  0  0  0  0  0  0
   59.5100   28.8290   48.5100 N   0  0  0  0  0  0  0  0  0  0  0  0
   59.1390   28.3750   47.2260 C   0  0  0  0  0  0  0  0  0  0  0  0
   59.9900   28.3300   46.1450 C   0  0  0  0  0  0  0  0  0  0  0  0
   59.5700   27.8720   44.8960 C   0  0  0  0  0  0  0  0  0  0  0  0
   58.2480   27.4500   44.7450 C   0  0  0  0  0  0  0  0  0  0  0  0
   57.3820   27.4920   45.8320 C   0  0  0  0  0  0  0  0  0  0  0  0
   56.0920   27.0670   45.6410 F   0  0  0  0  0  0  0  0  0  0  0  0
   57.8220   27.9470   47.0470 C   0  0  0  0  0  0  0  0  0  0  0  0
   58.3060   29.6320   50.2380 N   0  0  0  0  0  0  0  0  0  0  0  0
   57.7830   30.6940   50.8880 C   0  0  0  0  0  0  0  0  0  0  0  0
   57.0340   30.4330   52.0700 N   0  0  0  0  0  0  0  0  0  0  0  0
   55.7970   31.1750   52.2760 C   0  0  0  0  0  0  0  0  0  0  0  0
   54.8080   30.1510   52.8110 C   0  0  0  0  0  0  0  0  0  0  0  0
   55.3090   29.7660   54.0660 O   0  0  0  0  0  0  0  0  0  0  0  0
   56.3780   28.9150   53.8880 C   0  0  0  0  0  0  0  0  0  0  0  0
   57.4730   29.4690   53.0340 C   0  0  0  0  0  0  0  0  0  0  0  0
   58.0020   31.9030   50.3850 N   0  0  0  0  0  0  0  0  0  0  0  0
   58.1910   33.1780   46.5990 C   0  0  0  0  0  0  0  0  0  0  0  0
   55.8362   29.9912   45.1281 H   0  0  0  0  0  0  0  0  0  0  0  0
   54.7774   30.4420   43.7489 H   0  0  0  0  0  0  0  0  0  0  0  0
   55.6272   28.8595   43.7489 H   0  0  0  0  0  0  0  0  0  0  0  0
   57.5264   29.7580   42.9408 H   0  0  0  0  0  0  0  0  0  0  0  0
   56.5034   31.1880   42.5275 H   0  0  0  0  0  0  0  0  0  0  0  0
   56.6460   33.2430   43.7490 H   0  0  0  0  0  0  0  0  0  0  0  0
   58.9245   34.9534   43.8224 H   0  0  0  0  0  0  0  0  0  0  0  0
   60.2248   36.1722   45.5022 H   0  0  0  0  0  0  0  0  0  0  0  0
   60.2721   35.5413   47.8726 H   0  0  0  0  0  0  0  0  0  0  0  0
   61.0305   28.6646   46.2695 H   0  0  0  0  0  0  0  0  0  0  0  0
   60.2676   27.8439   44.0460 H   0  0  0  0  0  0  0  0  0  0  0  0
   57.8927   27.0856   43.7698 H   0  0  0  0  0  0  0  0  0  0  0  0
   57.1248   27.9757   47.8974 H   0  0  0  0  0  0  0  0  0  0  0  0
   55.9485   31.9841   53.0057 H   0  0  0  0  0  0  0  0  0  0  0  0
   55.4404   31.6489   51.3496 H   0  0  0  0  0  0  0  0  0  0  0  0
   53.8093   30.5998   52.9168 H   0  0  0  0  0  0  0  0  0  0  0  0
   54.7027   29.2917   52.1323 H   0  0  0  0  0  0  0  0  0  0  0  0
   56.7986   28.6795   54.8768 H   0  0  0  0  0  0  0  0  0  0  0  0
   55.9899   28.0286   53.3649 H   0  0  0  0  0  0  0  0  0  0  0  0
   58.2130   29.9499   53.6906 H   0  0  0  0  0  0  0  0  0  0  0  0
   57.8915   28.6236   52.4682 H   0  0  0  0  0  0  0  0  0  0  0  0
   57.5840   32.7200   50.9090 H   0  0  0  0  0  0  0  0  0  0  0  0
   57.5986   32.3071   46.9163 H   0  0  0  0  0  0  0  0  0  0  0  0
  1  2  1  0
  2  3  1  0
  3  4  2  0
  3  5  1  0
  5  6  1  0
  6  7  2  0
  7  8  1  0
  8  9  2  0
  9 10  1  0
 10 11  1  0
 11 12  1  0
 12 13  2  0
 13 14  1  0
 14 15  2  0
 15 16  1  0
 16 17  2  0
 17 18  1  0
 18 19  2  0
 19 20  1  0
 20 21  1  0
 20 22  2  0
 14 23  1  0
 23 24  2  0
 24 25  1  0
 25 26  1  0
 26 27  1  0
 27 28  1  0
 28 29  1  0
 29 30  1  0
 24 31  1  0
 10 32  2  0
 32  6  1  0
 31 12  1  0
 22 16  1  0
 30 25  1  0
  1 33  1  0
  1 34  1  0
  1 35  1  0
  2 36  1  0
  2 37  1  0
  5 38  1  0
  7 39  1  0
  8 40  1  0
  9 41  1  0
 17 42  1  0
 18 43  1  0
 19 44  1  0
 22 45  1  0
 26 46  1  0
 26 47  1  0
 27 48  1  0
 27 49  1  0
 29 50  1  0
 29 51  1  0
 30 52  1  0
 30 53  1  0
 31 54  1  0
 32 55  1  0
M  END
>  <smiles>  (38) 
CCC(=O)Nc1cccc(Oc2nc(=Nc3cccc(F)c3)nc(N3CCOCC3)[nH]2)c1

>  <score_type>  (38) 
oracle

>  <origin>  (38) 
adg

>  <m_score__min__energy>  (38) 
-8.7599999999999998

>  <m_primary>  (38) 
energy

$$$$
38:0
     RDKit          3D

 37 39  0  0  0  0  0  0  0  0999 V2000
   55.5770   29.6640   44.8980 O   0  0  0  0  0  0  0  0  0  0  0  0
   56.8320   29.7730   44.8740 C   0  0  0  0  0  0  0  0  0  0  0  0
   57.6240   28.5800   44.8470 N   0  0  0  0  0  0  0  0  0  0  0  0
   58.0100   27.8000   46.0190 C   0  0  0  0  0  0  0  0  0  0  0  0
   57.8770   26.3060   45.7230 C   0  0  0  0  0  0  0  0  0  0  0  0
   56.4330   25.8960   45.6360 C   0  0  0  0  0  0  0  0  0  0  0  0
   55.4250   26.6550   46.1140 N   0  0  0  0  0  0  0  0  0  0  0  0
   54.3110   25.9490   45.9940 N   0  0  0  0  0  0  0  0  0  0  0  0
   54.6570   24.7640   45.4590 C   0  0  0  0  0  0  0  0  0  0  0  0
   53.5770   23.5800   45.1210 S   0  0  0  0  0  0  0  0  0  0  0  0
   55.9820   24.6920   45.2200 N   0  0  0  0  0  0  0  0  0  0  0  0
   56.7320   23.5870   44.6940 C   0  0  0  0  0  0  0  0  0  0  0  0
   57.8730   23.1290   45.3700 C   0  0  0  0  0  0  0  0  0  0  0  0
   58.6150   22.0610   44.8570 C   0  0  0  0  0  0  0  0  0  0  0  0
   58.2150   21.4390   43.6720 C   0  0  0  0  0  0  0  0  0  0  0  0
   57.0720   21.8810   42.9990 C   0  0  0  0  0  0  0  0  0  0  0  0
   56.3290   22.9510   43.5080 C   0  0  0  0  0  0  0  0  0  0  0  0
   55.2060   23.3530   42.8620 F   0  0  0  0  0  0  0  0  0  0  0  0
   57.4320   31.1220   44.8290 C   0  0  0  0  0  0  0  0  0  0  0  0
   57.5730   31.7810   43.5980 C   0  0  0  0  0  0  0  0  0  0  0  0
   58.1290   33.0630   43.5430 C   0  0  0  0  0  0  0  0  0  0  0  0
   58.5350   33.7010   44.7190 C   0  0  0  0  0  0  0  0  0  0  0  0
   58.3770   33.0620   45.9510 C   0  0  0  0  0  0  0  0  0  0  0  0
   57.8210   31.7790   46.0090 C   0  0  0  0  0  0  0  0  0  0  0  0
   59.0541   28.0277   46.2798 H   0  0  0  0  0  0  0  0  0  0  0  0
   57.3490   28.0609   46.8587 H   0  0  0  0  0  0  0  0  0  0  0  0
   58.3713   26.0844   44.7656 H   0  0  0  0  0  0  0  0  0  0  0  0
   58.3499   25.7448   46.5424 H   0  0  0  0  0  0  0  0  0  0  0  0
   58.1850   23.6123   46.3076 H   0  0  0  0  0  0  0  0  0  0  0  0
   59.5134   21.7106   45.3863 H   0  0  0  0  0  0  0  0  0  0  0  0
   58.8003   20.6000   43.2676 H   0  0  0  0  0  0  0  0  0  0  0  0
   56.7568   21.3867   42.0682 H   0  0  0  0  0  0  0  0  0  0  0  0
   57.2446   31.2867   42.6718 H   0  0  0  0  0  0  0  0  0  0  0  0
   58.2470   33.5698   42.5739 H   0  0  0  0  0  0  0  0  0  0  0  0
   58.9790   34.7064   44.6740 H   0  0  0  0  0  0  0  0  0  0  0  0
   58.6899   33.5677   46.8764 H   0  0  0  0  0  0  0  0  0  0  0  0
   57.6879   31.2829   46.9817 H   0  0  0  0  0  0  0  0  0  0  0  0
  1  2  2  0
  2  3  1  0
  3  4  1  0
  4  5  1  0
  5  6  1  0
  6  7  2  0
  7  8  1  0
  8  9  1  0
  9 10  2  0
  9 11  1  0
 11 12  1  0
 12 13  2  0
 13 14  1  0
 14 15  2  0
 15 16  1  0
 16 17  2  0
 17 18  1  0
  2 19  1  0
 19 20  2  0
 20 21  1  0
 21 22  2  0
 22 23  1  0
 23 24  2  0
 11  6  1  0
 17 12  1  0
 24 19  1  0
  4 25  1  0
  4 26  1  0
  5 27  1  0
  5 28  1  0
 13 29  1  0
 14 30  1  0
 15 31  1  0
 16 32  1  0
 20 33  1  0
 21 34  1  0
 22 35  1  0
 23 36  1  0
 24 37  1  0
M  CHG  2   3  -1   8  -1
M  END
>  <UniqueID>  (39) 
38

>  <SMILES>  (39) 
O=C([N-]CCc1n[n-]c(=S)n1-c1ccccc1F)c1ccccc1

>  <Energy>  (39) 
82.29682753736299

>  <Genealogy>  (39) 
O=C([N-]CCc1n[n-]c(=S)n1-c1ccccc1F)c1ccccc1 (protonated)
O=C([N-]CCc1n[n-]c(=S)n1-c1ccccc1F)c1ccccc1 (3D coordinates assigned)
O=C([N-]CCc1n[n-]c(=S)n1-c1ccccc1F)c1ccccc1 (optimized conformer: 82.29682753736299 kcal/mol)

>  <smiles>  (39) 
O=C(NCCc1n[nH]c(=S)n1-c1ccccc1F)c1ccccc1

>  <score_type>  (39) 
oracle

>  <origin>  (39) 
adg

>  <m_score__min__energy>  (39) 
-12.31

>  <m_primary>  (39) 
energy

$$$$
39:0
     RDKit          3D

 36 38  0  0  0  0  0  0  0  0999 V2000
   54.2880   24.8620   45.6620 O   0  0  0  0  0  0  0  0  0  0  0  0
   55.4560   25.3200   45.7830 C   0  0  0  0  0  0  0  0  0  0  0  0
   56.6310   24.4140   45.6070 C   0  0  0  0  0  0  0  0  0  0  0  0
   56.3570   23.4470   44.5530 N   0  0  0  0  0  0  0  0  0  0  0  0
   55.9790   23.6920   43.2880 C   0  0  0  0  0  0  0  0  0  0  0  0
   55.9060   22.5320   42.6080 N   0  0  0  0  0  0  0  0  0  0  0  0
   56.2530   21.5920   43.4780 N   0  0  0  0  0  0  0  0  0  0  0  0
   56.5330   22.1420   44.6520 N   0  0  0  0  0  0  0  0  0  0  0  0
   55.6690   26.7130   46.0360 N   0  0  0  0  0  0  0  0  0  0  0  0
   56.9680   27.3640   45.9190 C   0  0  0  0  0  0  0  0  0  0  0  0
   56.8050   28.7630   45.4030 C   0  0  0  0  0  0  0  0  0  0  0  0
   57.7200   29.7630   45.7530 C   0  0  0  0  0  0  0  0  0  0  0  0
   57.5190   31.0650   45.2660 C   0  0  0  0  0  0  0  0  0  0  0  0
   58.4260   32.1350   45.5900 N   0  0  0  0  0  0  0  0  0  0  0  0
   59.5860   31.9500   46.4460 C   0  0  0  0  0  0  0  0  0  0  0  0
   60.1630   33.3430   46.6650 C   0  0  0  0  0  0  0  0  0  0  0  0
   59.5530   34.2250   45.5800 C   0  0  0  0  0  0  0  0  0  0  0  0
   58.2980   33.5020   45.1090 C   0  0  0  0  0  0  0  0  0  0  0  0
   56.4420   31.3130   44.4710 N   0  0  0  0  0  0  0  0  0  0  0  0
   55.5620   30.3310   44.1440 C   0  0  0  0  0  0  0  0  0  0  0  0
   55.7440   29.0710   44.6110 N   0  0  0  0  0  0  0  0  0  0  0  0
   57.5141   25.0105   45.3343 H   0  0  0  0  0  0  0  0  0  0  0  0
   56.8206   23.8791   46.5493 H   0  0  0  0  0  0  0  0  0  0  0  0
   55.7624   24.6868   42.8715 H   0  0  0  0  0  0  0  0  0  0  0  0
   57.4483   27.3958   46.9081 H   0  0  0  0  0  0  0  0  0  0  0  0
   57.5918   26.7936   45.2151 H   0  0  0  0  0  0  0  0  0  0  0  0
   58.5810   29.5332   46.3979 H   0  0  0  0  0  0  0  0  0  0  0  0
   59.2871   31.5034   47.4058 H   0  0  0  0  0  0  0  0  0  0  0  0
   60.3229   31.2723   45.9903 H   0  0  0  0  0  0  0  0  0  0  0  0
   59.8885   33.7182   47.6619 H   0  0  0  0  0  0  0  0  0  0  0  0
   61.2616   33.3377   46.6101 H   0  0  0  0  0  0  0  0  0  0  0  0
   59.2943   35.2122   45.9904 H   0  0  0  0  0  0  0  0  0  0  0  0
   60.2576   34.3910   44.7518 H   0  0  0  0  0  0  0  0  0  0  0  0
   57.4006   33.9754   45.5339 H   0  0  0  0  0  0  0  0  0  0  0  0
   58.1954   33.5388   44.0144 H   0  0  0  0  0  0  0  0  0  0  0  0
   54.7003   30.5584   43.4992 H   0  0  0  0  0  0  0  0  0  0  0  0
  1  2  2  0
  2  3  1  0
  3  4  1  0
  4  5  1  0
  5  6  2  0
  6  7  1  0
  7  8  2  0
  2  9  1  0
  9 10  1  0
 10 11  1  0
 11 12  2  0
 12 13  1  0
 13 14  1  0
 14 15  1  0
 15 16  1  0
 16 17  1  0
 17 18  1  0
 13 19  2  0
 19 20  1  0
 20 21  2  0
  8  4  1  0
 21 11  1  0
 18 14  1  0
  3 22  1  0
  3 23  1  0
  5 24  1  0
 10 25  1  0
 10 26  1  0
 12 27  1  0
 15 28  1  0
 15 29  1  0
 16 30  1  0
 16 31  1  0
 17 32  1  0
 17 33  1  0
 18 34  1  0
 18 35  1  0
 20 36  1  0
M  CHG  1   9  -1
M  END
>  <UniqueID>  (40) 
39

>  <SMILES>  (40) 
O=C(Cn1cnnn1)[N-]Cc1cc(N2CCCC2)ncn1

>  <Energy>  (40) 
72.52420321274612

>  <Genealogy>  (40) 
O=C(Cn1cnnn1)[N-]Cc1cc(N2CCCC2)ncn1 (protonated)
O=C(Cn1cnnn1)[N-]Cc1cc(N2CCCC2)ncn1 (3D coordinates assigned)
O=C(Cn1cnnn1)[N-]Cc1cc(N2CCCC2)ncn1 (nonaromatic ring conformer: 72.52420321274612 kcal/mol)

>  <smiles>  (40) 
O=C(Cn1cnnn1)NCc1cc(N2CCCC2)ncn1

>  <score_type>  (40) 
oracle

>  <origin>  (40) 
adg

>  <m_score__min__energy>  (40) 
-10.06

>  <m_primary>  (40) 
energy

$$$$
40:0
     RDKit          3D

 49 51  0  0  0  0  0  0  0  0999 V2000
   55.4700   29.7210   42.3840 H   0  0  0  0  0  0  0  0  0  0  0  0
   55.6200   29.4980   43.3940 N   0  0  0  0  0  0  0  0  0  0  0  0
   56.4740   30.1550   44.1150 C   0  0  0  0  0  0  0  0  0  0  0  0
   56.1920   31.4310   44.4880 N   0  0  0  0  0  0  0  0  0  0  0  0
   57.0400   32.1700   45.2440 C   0  0  0  0  0  0  0  0  0  0  0  0
   56.7692   33.2010   45.5155 H   0  0  0  0  0  0  0  0  0  0  0  0
   58.2570   31.6350   45.6830 C   0  0  0  0  0  0  0  0  0  0  0  0
   59.1210   32.4630   46.5530 C   0  0  0  0  0  0  0  0  0  0  0  0
   59.4490   32.0300   47.8480 C   0  0  0  0  0  0  0  0  0  0  0  0
   59.0747   31.0619   48.2123 H   0  0  0  0  0  0  0  0  0  0  0  0
   60.2480   32.8220   48.6760 C   0  0  0  0  0  0  0  0  0  0  0  0
   60.5038   32.4720   49.6870 H   0  0  0  0  0  0  0  0  0  0  0  0
   60.7280   34.0670   48.2230 C   0  0  0  0  0  0  0  0  0  0  0  0
   61.5370   34.9030   49.0100 O   0  0  0  0  0  0  0  0  0  0  0  0
   62.5190   34.4600   49.9470 C   0  0  0  0  0  0  0  0  0  0  0  0
   62.8766   35.3215   50.5301 H   0  0  0  0  0  0  0  0  0  0  0  0
   62.0620   33.7128   50.6125 H   0  0  0  0  0  0  0  0  0  0  0  0
   63.7040   33.8160   49.2230 C   0  0  0  0  0  0  0  0  0  0  0  0
   63.7897   34.2445   48.2135 H   0  0  0  0  0  0  0  0  0  0  0  0
   64.6237   34.0130   49.7934 H   0  0  0  0  0  0  0  0  0  0  0  0
   63.5040   32.3520   49.1180 N   0  0  0  0  0  0  0  0  0  0  0  0
   64.4650   31.5930   49.9580 C   0  0  0  0  0  0  0  0  0  0  0  0
   64.0186   31.4552   50.9539 H   0  0  0  0  0  0  0  0  0  0  0  0
   64.6541   30.6413   49.4399 H   0  0  0  0  0  0  0  0  0  0  0  0
   65.8270   32.2780   50.1320 C   0  0  0  0  0  0  0  0  0  0  0  0
   66.0474   32.3888   51.2040 H   0  0  0  0  0  0  0  0  0  0  0  0
   66.6085   31.6657   49.6584 H   0  0  0  0  0  0  0  0  0  0  0  0
   65.8014   33.2705   49.6584 H   0  0  0  0  0  0  0  0  0  0  0  0
   63.4590   31.9100   47.7050 C   0  0  0  0  0  0  0  0  0  0  0  0
   64.2304   31.1418   47.5474 H   0  0  0  0  0  0  0  0  0  0  0  0
   62.4548   31.5086   47.5038 H   0  0  0  0  0  0  0  0  0  0  0  0
   63.7100   33.0690   46.7400 C   0  0  0  0  0  0  0  0  0  0  0  0
   63.9087   33.9867   47.3130 H   0  0  0  0  0  0  0  0  0  0  0  0
   64.5787   32.8370   46.1064 H   0  0  0  0  0  0  0  0  0  0  0  0
   62.8231   33.2172   46.1064 H   0  0  0  0  0  0  0  0  0  0  0  0
   60.3830   34.5020   46.9380 C   0  0  0  0  0  0  0  0  0  0  0  0
   60.7447   35.4761   46.5771 H   0  0  0  0  0  0  0  0  0  0  0  0
   59.5830   33.7100   46.1090 C   0  0  0  0  0  0  0  0  0  0  0  0
   59.3148   34.0669   45.1037 H   0  0  0  0  0  0  0  0  0  0  0  0
   58.6030   30.3160   45.2970 C   0  0  0  0  0  0  0  0  0  0  0  0
   57.6920   29.5660   44.5110 C   0  0  0  0  0  0  0  0  0  0  0  0
   58.0390   28.2540   44.1410 C   0  0  0  0  0  0  0  0  0  0  0  0
   57.3422   27.6509   43.5404 H   0  0  0  0  0  0  0  0  0  0  0  0
   59.2620   27.7170   44.5330 C   0  0  0  0  0  0  0  0  0  0  0  0
   59.5319   26.6886   44.2509 H   0  0  0  0  0  0  0  0  0  0  0  0
   60.1410   28.4920   45.2850 C   0  0  0  0  0  0  0  0  0  0  0  0
   61.1125   28.0755   45.5895 H   0  0  0  0  0  0  0  0  0  0  0  0
   59.8070   29.7610   45.6460 N   0  0  0  0  0  0  0  0  0  0  0  0
   60.5160   30.3020   46.1860 H   0  0  0  0  0  0  0  0  0  0  0  0
  1  2  1  0
  2  3  2  0
  3  4  1  0
  4  5  1  0
  5  6  1  0
  5  7  2  0
  7  8  1  0
  8  9  2  0
  9 10  1  0
  9 11  1  0
 11 12  1  0
 11 13  2  0
 13 14  1  0
 14 15  1  0
 15 16  1  0
 15 17  1  0
 15 18  1  0
 18 19  1  0
 18 20  1  0
 18 21  1  0
 21 22  1  0
 22 23  1  0
 22 24  1  0
 22 25  1  0
 25 26  1  0
 25 27  1  0
 25 28  1  0
 21 29  1  0
 29 30  1  0
 29 31  1  0
 29 32  1  0
 32 33  1  0
 32 34  1  0
 32 35  1  0
 13 36  1  0
 36 37  1  0
 36 38  2  0
 38 39  1  0
  7 40  1  0
 40 41  2  0
 41 42  1  0
 42 43  1  0
 42 44  2  0
 44 45  1  0
 44 46  1  0
 46 47  1  0
 46 48  2  0
 48 49  1  0
 41  3  1  0
 38  8  1  0
 48 40  1  0
M  CHG  2   4  -1  48   1
M  END
>  <UniqueID>  (41) 
40

>  <SMILES>  (41) 
[H]/N=c1\[n-]cc(-c2ccc(OCCN(CC)CC)cc2)c2[nH+]cccc12

>  <Energy>  (41) 
65.08125539906224

>  <Genealogy>  (41) 
CCN(CC)CCOc1ccc(-c2c[n-]c(=N)c3ccc[nH+]c23)cc1 (protonated)
[H]/N=c1\[n-]cc(-c2ccc(OCCN(CC)CC)cc2)c2[nH+]cccc12 (cis-trans isomerization)
[H]/N=c1\[n-]cc(-c2ccc(OCCN(CC)CC)cc2)c2[nH+]cccc12 (3D coordinates assigned)
[H]/N=c1\[n-]cc(-c2ccc(OCCN(CC)CC)cc2)c2[nH+]cccc12 (optimized conformer: 65.08125539906224 kcal/mol)

>  <smiles>  (41) 
CCN(CC)CCOc1ccc(-c2c[nH]c(=N)c3cccnc23)cc1

>  <score_type>  (41) 
oracle

>  <origin>  (41) 
adg

>  <m_score__min__energy>  (41) 
-7.3499999999999996

>  <m_primary>  (41) 
energy

$$$$
41:0
     RDKit          3D

 32 33  0  0  0  0  0  0  0  0999 V2000
   57.1200   30.7710   44.0070 C   0  0  0  0  0  0  0  0  0  0  0  0
   57.0130   31.5490   45.1950 O   0  0  0  0  0  0  0  0  0  0  0  0
   57.8300   32.6470   45.4980 C   0  0  0  0  0  0  0  0  0  0  0  0
   58.3580   33.4930   44.5030 C   0  0  0  0  0  0  0  0  0  0  0  0
   59.1740   34.5710   44.8570 C   0  0  0  0  0  0  0  0  0  0  0  0
   59.4680   34.8180   46.2000 C   0  0  0  0  0  0  0  0  0  0  0  0
   58.9450   33.9880   47.2020 C   0  0  0  0  0  0  0  0  0  0  0  0
   59.3010   34.2210   48.6490 C   0  0  0  0  0  0  0  0  0  0  0  0
   60.0730   33.1000   49.2140 N   0  0  0  0  0  0  0  0  0  0  0  0
   61.3300   32.9170   48.5210 C   0  0  0  0  0  0  0  0  0  0  0  0
   62.2770   33.9600   48.5190 C   0  0  0  0  0  0  0  0  0  0  0  0
   63.4840   33.8260   47.8320 C   0  0  0  0  0  0  0  0  0  0  0  0
   63.7660   32.6510   47.1340 C   0  0  0  0  0  0  0  0  0  0  0  0
   62.8400   31.6050   47.1240 C   0  0  0  0  0  0  0  0  0  0  0  0
   61.6250   31.7260   47.8100 C   0  0  0  0  0  0  0  0  0  0  0  0
   60.5090   30.3650   47.7510 Cl  0  0  0  0  0  0  0  0  0  0  0  0
   58.1300   32.9020   46.8420 C   0  0  0  0  0  0  0  0  0  0  0  0
   57.2654   29.7136   44.2730 H   0  0  0  0  0  0  0  0  0  0  0  0
   56.1988   30.8769   43.4152 H   0  0  0  0  0  0  0  0  0  0  0  0
   57.9784   31.1216   43.4152 H   0  0  0  0  0  0  0  0  0  0  0  0
   58.1273   33.3045   43.4441 H   0  0  0  0  0  0  0  0  0  0  0  0
   59.5859   35.2268   44.0758 H   0  0  0  0  0  0  0  0  0  0  0  0
   60.1123   35.6669   46.4727 H   0  0  0  0  0  0  0  0  0  0  0  0
   59.9017   35.1395   48.7237 H   0  0  0  0  0  0  0  0  0  0  0  0
   58.3648   34.3110   49.2194 H   0  0  0  0  0  0  0  0  0  0  0  0
   59.4960   32.2290   49.2090 H   0  0  0  0  0  0  0  0  0  0  0  0
   60.2740   33.3130   50.2180 H   0  0  0  0  0  0  0  0  0  0  0  0
   62.0625   34.8904   49.0652 H   0  0  0  0  0  0  0  0  0  0  0  0
   64.2147   34.6482   47.8406 H   0  0  0  0  0  0  0  0  0  0  0  0
   64.7175   32.5484   46.5916 H   0  0  0  0  0  0  0  0  0  0  0  0
   63.0667   30.6800   46.5736 H   0  0  0  0  0  0  0  0  0  0  0  0
   57.7229   32.2446   47.6244 H   0  0  0  0  0  0  0  0  0  0  0  0
  1  2  1  0
  2  3  1  0
  3  4  2  0
  4  5  1  0
  5  6  2  0
  6  7  1  0
  7  8  1  0
  8  9  1  0
  9 10  1  0
 10 11  2  0
 11 12  1  0
 12 13  2  0
 13 14  1  0
 14 15  2  0
 15 16  1  0
  7 17  2  0
 17  3  1  0
 15 10  1  0
  1 18  1  0
  1 19  1  0
  1 20  1  0
  4 21  1  0
  5 22  1  0
  6 23  1  0
  8 24  1  0
  8 25  1  0
  9 26  1  0
  9 27  1  0
 11 28  1  0
 12 29  1  0
 13 30  1  0
 14 31  1  0
 17 32  1  0
M  CHG  1   9   1
M  END
>  <UniqueID>  (42) 
41

>  <SMILES>  (42) 
COc1cccc(C[NH2+]c2ccccc2Cl)c1

>  <Energy>  (42) 
32.90790333325633

>  <Genealogy>  (42) 
COc1cccc(C[NH2+]c2ccccc2Cl)c1 (protonated)
COc1cccc(C[NH2+]c2ccccc2Cl)c1 (3D coordinates assigned)
COc1cccc(C[NH2+]c2ccccc2Cl)c1 (optimized conformer: 32.90790333325633 kcal/mol)

>  <smiles>  (42) 
COc1cccc(CNc2ccccc2Cl)c1

>  <score_type>  (42) 
oracle

>  <origin>  (42) 
adg

>  <m_score__min__energy>  (42) 
-5.46

>  <m_primary>  (42) 
energy

$$$$
42:0
     RDKit          3D

 40 43  0  0  0  0  0  0  0  0999 V2000
   62.7870   31.4200   49.8240 C   0  0  0  0  0  0  0  0  0  0  0  0
   63.6230   32.6170   49.6190 N   0  0  0  0  0  0  0  0  0  0  0  0
   64.0550   32.7530   48.2030 C   0  0  0  0  0  0  0  0  0  0  0  0
   63.2960   33.8410   47.4200 C   0  0  0  0  0  0  0  0  0  0  0  0
   61.9250   33.9660   47.9210 N   0  0  0  0  0  0  0  0  0  0  0  0
   60.7910   33.8190   47.0440 C   0  0  0  0  0  0  0  0  0  0  0  0
   60.1350   34.9630   46.5250 C   0  0  0  0  0  0  0  0  0  0  0  0
   59.0200   34.8320   45.6830 C   0  0  0  0  0  0  0  0  0  0  0  0
   58.5640   33.5520   45.3710 C   0  0  0  0  0  0  0  0  0  0  0  0
   59.1940   32.4350   45.8820 C   0  0  0  0  0  0  0  0  0  0  0  0
   60.3040   32.5340   46.7200 C   0  0  0  0  0  0  0  0  0  0  0  0
   58.4950   31.2630   45.4010 C   0  0  0  0  0  0  0  0  0  0  0  0
   58.7420   29.9090   45.6360 C   0  0  0  0  0  0  0  0  0  0  0  0
   57.8920   28.9660   45.0340 C   0  0  0  0  0  0  0  0  0  0  0  0
   56.8240   29.3890   44.2180 C   0  0  0  0  0  0  0  0  0  0  0  0
   56.5960   30.7580   43.9960 C   0  0  0  0  0  0  0  0  0  0  0  0
   57.4480   31.6830   44.6010 C   0  0  0  0  0  0  0  0  0  0  0  0
   57.3940   33.1810   44.5060 C   0  0  0  0  0  0  0  0  0  0  0  0
   61.7230   34.2190   49.3520 C   0  0  0  0  0  0  0  0  0  0  0  0
   62.9790   33.8350   50.1540 C   0  0  0  0  0  0  0  0  0  0  0  0
   62.6617   31.2405   50.9020 H   0  0  0  0  0  0  0  0  0  0  0  0
   61.8015   31.5775   49.3615 H   0  0  0  0  0  0  0  0  0  0  0  0
   63.2741   30.5489   49.3615 H   0  0  0  0  0  0  0  0  0  0  0  0
   65.1266   33.0011   48.1902 H   0  0  0  0  0  0  0  0  0  0  0  0
   63.8373   31.7943   47.7095 H   0  0  0  0  0  0  0  0  0  0  0  0
   63.8152   34.8033   47.5401 H   0  0  0  0  0  0  0  0  0  0  0  0
   63.2639   33.5598   46.3570 H   0  0  0  0  0  0  0  0  0  0  0  0
   60.5043   35.9659   46.7854 H   0  0  0  0  0  0  0  0  0  0  0  0
   58.5159   35.7215   45.2773 H   0  0  0  0  0  0  0  0  0  0  0  0
   60.7893   31.6314   47.1196 H   0  0  0  0  0  0  0  0  0  0  0  0
   59.5787   29.5895   46.2746 H   0  0  0  0  0  0  0  0  0  0  0  0
   58.0612   27.8919   45.2006 H   0  0  0  0  0  0  0  0  0  0  0  0
   56.1642   28.6427   43.7515 H   0  0  0  0  0  0  0  0  0  0  0  0
   55.7640   31.0931   43.3592 H   0  0  0  0  0  0  0  0  0  0  0  0
   57.5283   33.5274   43.4707 H   0  0  0  0  0  0  0  0  0  0  0  0
   56.4364   33.6258   44.8145 H   0  0  0  0  0  0  0  0  0  0  0  0
   61.5104   35.2876   49.5034 H   0  0  0  0  0  0  0  0  0  0  0  0
   60.8781   33.6086   49.7036 H   0  0  0  0  0  0  0  0  0  0  0  0
   63.6978   34.6665   50.1090 H   0  0  0  0  0  0  0  0  0  0  0  0
   62.6727   33.6316   51.1907 H   0  0  0  0  0  0  0  0  0  0  0  0
  1  2  1  0
  2  3  1  0
  3  4  1  0
  4  5  1  0
  5  6  1  0
  6  7  2  0
  7  8  1  0
  8  9  2  0
  9 10  1  0
 10 11  2  0
 10 12  1  0
 12 13  2  0
 13 14  1  0
 14 15  2  0
 15 16  1  0
 16 17  2  0
 17 18  1  0
  5 19  1  0
 19 20  1  0
 20  2  1  0
 11  6  1  0
 17 12  1  0
 18  9  1  0
  1 21  1  0
  1 22  1  0
  1 23  1  0
  3 24  1  0
  3 25  1  0
  4 26  1  0
  4 27  1  0
  7 28  1  0
  8 29  1  0
 11 30  1  0
 13 31  1  0
 14 32  1  0
 15 33  1  0
 16 34  1  0
 18 35  1  0
 18 36  1  0
 19 37  1  0
 19 38  1  0
 20 39  1  0
 20 40  1  0
M  END
>  <UniqueID>  (43) 
42

>  <SMILES>  (43) 
CN1CCN(c2ccc3c(c2)-c2ccccc2C3)CC1

>  <Energy>  (43) 
76.35397314107843

>  <Genealogy>  (43) 
CN1CCN(c2ccc3c(c2)-c2ccccc2C3)CC1 (3D coordinates assigned)
CN1CCN(c2ccc3c(c2)-c2ccccc2C3)CC1 (nonaromatic ring conformer: 76.35397314107843 kcal/mol)

>  <smiles>  (43) 
CN1CCN(c2ccc3c(c2)-c2ccccc2C3)CC1

>  <score_type>  (43) 
oracle

>  <origin>  (43) 
adg

>  <m_score__min__energy>  (43) 
-7.6799999999999997

>  <m_primary>  (43) 
energy

$$$$
43:0
     RDKit          3D

 45 48  0  0  0  0  0  0  0  0999 V2000
   63.5470   31.5680   51.4090 C   0  0  0  0  0  0  0  0  0  0  0  0
   62.1660   31.2270   51.4590 O   0  0  0  0  0  0  0  0  0  0  0  0
   61.3350   31.1190   50.3330 C   0  0  0  0  0  0  0  0  0  0  0  0
   59.9330   31.2290   50.4170 C   0  0  0  0  0  0  0  0  0  0  0  0
   59.1480   31.1170   49.2650 C   0  0  0  0  0  0  0  0  0  0  0  0
   59.7510   30.8980   48.0180 C   0  0  0  0  0  0  0  0  0  0  0  0
   58.9420   30.7840   46.8310 N   0  0  0  0  0  0  0  0  0  0  0  0
   58.1510   31.8300   46.4280 C   0  0  0  0  0  0  0  0  0  0  0  0
   58.1340   33.4070   47.3020 S   0  0  0  0  0  0  0  0  0  0  0  0
   59.4820   34.1550   46.3180 C   0  0  0  0  0  0  0  0  0  0  0  0
   60.7970   34.0840   47.0480 C   0  0  0  0  0  0  0  0  0  0  0  0
   60.8530   34.3080   48.4340 C   0  0  0  0  0  0  0  0  0  0  0  0
   62.0670   34.1840   49.1180 C   0  0  0  0  0  0  0  0  0  0  0  0
   63.2300   33.8400   48.4260 C   0  0  0  0  0  0  0  0  0  0  0  0
   64.4050   33.7190   49.0900 F   0  0  0  0  0  0  0  0  0  0  0  0
   63.1820   33.6180   47.0450 C   0  0  0  0  0  0  0  0  0  0  0  0
   61.9690   33.7370   46.3580 C   0  0  0  0  0  0  0  0  0  0  0  0
   57.3840   31.7160   45.3140 N   0  0  0  0  0  0  0  0  0  0  0  0
   57.3860   30.5910   44.5620 C   0  0  0  0  0  0  0  0  0  0  0  0
   56.5960   30.5190   43.4090 C   0  0  0  0  0  0  0  0  0  0  0  0
   56.6060   29.3620   42.6260 C   0  0  0  0  0  0  0  0  0  0  0  0
   57.4030   28.2740   42.9930 C   0  0  0  0  0  0  0  0  0  0  0  0
   58.1970   28.3390   44.1430 C   0  0  0  0  0  0  0  0  0  0  0  0
   58.1950   29.5020   44.9360 C   0  0  0  0  0  0  0  0  0  0  0  0
   58.9740   29.6230   46.0990 C   0  0  0  0  0  0  0  0  0  0  0  0
   59.7000   28.6580   46.4710 O   0  0  0  0  0  0  0  0  0  0  0  0
   61.1450   30.7800   47.9360 C   0  0  0  0  0  0  0  0  0  0  0  0
   61.9300   30.8940   49.0870 C   0  0  0  0  0  0  0  0  0  0  0  0
   63.9381   31.6646   52.4326 H   0  0  0  0  0  0  0  0  0  0  0  0
   64.1004   30.7795   50.8779 H   0  0  0  0  0  0  0  0  0  0  0  0
   63.6698   32.5234   50.8779 H   0  0  0  0  0  0  0  0  0  0  0  0
   59.4542   31.4035   51.3918 H   0  0  0  0  0  0  0  0  0  0  0  0
   58.0536   31.2010   49.3373 H   0  0  0  0  0  0  0  0  0  0  0  0
   59.5720   33.6142   45.3643 H   0  0  0  0  0  0  0  0  0  0  0  0
   59.2384   35.2135   46.1439 H   0  0  0  0  0  0  0  0  0  0  0  0
   59.9397   34.5816   48.9827 H   0  0  0  0  0  0  0  0  0  0  0  0
   62.1055   34.3579   50.2035 H   0  0  0  0  0  0  0  0  0  0  0  0
   64.0987   33.3498   46.4993 H   0  0  0  0  0  0  0  0  0  0  0  0
   61.9337   33.5580   45.2732 H   0  0  0  0  0  0  0  0  0  0  0  0
   55.9670   31.3736   43.1192 H   0  0  0  0  0  0  0  0  0  0  0  0
   55.9857   29.3072   41.7193 H   0  0  0  0  0  0  0  0  0  0  0  0
   57.4059   27.3636   42.3756 H   0  0  0  0  0  0  0  0  0  0  0  0
   58.8233   27.4807   44.4277 H   0  0  0  0  0  0  0  0  0  0  0  0
   61.6232   30.5970   46.9624 H   0  0  0  0  0  0  0  0  0  0  0  0
   63.0239   30.8061   49.0125 H   0  0  0  0  0  0  0  0  0  0  0  0
  1  2  1  0
  2  3  1  0
  3  4  2  0
  4  5  1  0
  5  6  2  0
  6  7  1  0
  7  8  1  0
  8  9  1  0
  9 10  1  0
 10 11  1  0
 11 12  2  0
 12 13  1  0
 13 14  2  0
 14 15  1  0
 14 16  1  0
 16 17  2  0
  8 18  2  0
 18 19  1  0
 19 20  2  0
 20 21  1  0
 21 22  2  0
 22 23  1  0
 23 24  2  0
 24 25  1  0
 25 26  2  0
  6 27  1  0
 27 28  2  0
 28  3  1  0
 25  7  1  0
 17 11  1  0
 24 19  1  0
  1 29  1  0
  1 30  1  0
  1 31  1  0
  4 32  1  0
  5 33  1  0
 10 34  1  0
 10 35  1  0
 12 36  1  0
 13 37  1  0
 16 38  1  0
 17 39  1  0
 20 40  1  0
 21 41  1  0
 22 42  1  0
 23 43  1  0
 27 44  1  0
 28 45  1  0
M  END
>  <UniqueID>  (44) 
43

>  <SMILES>  (44) 
COc1ccc(-n2c(SCc3ccc(F)cc3)nc3ccccc3c2=O)cc1

>  <Energy>  (44) 
57.338509379304426

>  <Genealogy>  (44) 
COc1ccc(-n2c(SCc3ccc(F)cc3)nc3ccccc3c2=O)cc1 (3D coordinates assigned)
COc1ccc(-n2c(SCc3ccc(F)cc3)nc3ccccc3c2=O)cc1 (optimized conformer: 57.338509379304426 kcal/mol)

>  <smiles>  (44) 
COc1ccc(-n2c(SCc3ccc(F)cc3)nc3ccccc3c2=O)cc1

>  <score_type>  (44) 
oracle

>  <origin>  (44) 
adg

>  <m_score__min__energy>  (44) 
-7.3600000000000003

>  <m_primary>  (44) 
energy

$$$$
44:0
     RDKit          3D

 46 48  0  0  0  0  0  0  0  0999 V2000
   56.8360   30.5610   43.8220 C   0  0  0  0  0  0  0  0  0  0  0  0
   56.6280   31.5210   44.8520 O   0  0  0  0  0  0  0  0  0  0  0  0
   57.5980   32.4350   45.2900 C   0  0  0  0  0  0  0  0  0  0  0  0
   57.7830   33.6110   44.5560 C   0  0  0  0  0  0  0  0  0  0  0  0
   58.7340   34.5540   44.9570 C   0  0  0  0  0  0  0  0  0  0  0  0
   59.5150   34.3230   46.0910 C   0  0  0  0  0  0  0  0  0  0  0  0
   59.3590   33.1410   46.8290 C   0  0  0  0  0  0  0  0  0  0  0  0
   60.1860   32.9080   48.0310 C   0  0  0  0  0  0  0  0  0  0  0  0
   60.2690   33.8350   48.8810 O   0  0  0  0  0  0  0  0  0  0  0  0
   60.8800   31.6550   48.2670 N   0  0  0  0  0  0  0  0  0  0  0  0
   60.0660   30.4400   48.4770 C   0  0  0  0  0  0  0  0  0  0  0  0
   59.8150   29.6540   47.2070 C   0  0  0  0  0  0  0  0  0  0  0  0
   58.7220   28.7670   47.1670 C   0  0  0  0  0  0  0  0  0  0  0  0
   58.4770   27.9920   46.0310 C   0  0  0  0  0  0  0  0  0  0  0  0
   59.3290   28.0770   44.9280 C   0  0  0  0  0  0  0  0  0  0  0  0
   60.4290   28.9340   44.9620 C   0  0  0  0  0  0  0  0  0  0  0  0
   60.6790   29.7130   46.0960 C   0  0  0  0  0  0  0  0  0  0  0  0
   62.3620   31.5820   48.1950 C   0  0  1  0  0  0  0  0  0  0  0  0
   62.9540   32.5280   47.1220 C   0  0  0  0  0  0  0  0  0  0  0  0
   63.3800   33.8510   47.7520 C   0  0  0  0  0  0  0  0  0  0  0  0
   63.7740   33.4690   49.4250 S   0  0  0  0  0  0  0  0  0  0  0  0
   63.1650   34.4600   50.3780 O   0  0  0  0  0  0  0  0  0  0  0  0
   65.2600   33.3830   49.6300 O   0  0  0  0  0  0  0  0  0  0  0  0
   63.0130   31.8790   49.5600 C   0  0  0  0  0  0  0  0  0  0  0  0
   58.3830   32.2090   46.4380 C   0  0  0  0  0  0  0  0  0  0  0  0
   57.0485   29.5802   44.2724 H   0  0  0  0  0  0  0  0  0  0  0  0
   55.9323   30.4902   43.1988 H   0  0  0  0  0  0  0  0  0  0  0  0
   57.6879   30.8706   43.1988 H   0  0  0  0  0  0  0  0  0  0  0  0
   57.1762   33.7952   43.6572 H   0  0  0  0  0  0  0  0  0  0  0  0
   58.8672   35.4797   44.3780 H   0  0  0  0  0  0  0  0  0  0  0  0
   60.2562   35.0718   46.4070 H   0  0  0  0  0  0  0  0  0  0  0  0
   60.5906   29.7887   49.1916 H   0  0  0  0  0  0  0  0  0  0  0  0
   59.0859   30.7682   48.8534 H   0  0  0  0  0  0  0  0  0  0  0  0
   58.0553   28.6837   48.0380 H   0  0  0  0  0  0  0  0  0  0  0  0
   57.6115   27.3136   46.0053 H   0  0  0  0  0  0  0  0  0  0  0  0
   59.1328   27.4685   44.0329 H   0  0  0  0  0  0  0  0  0  0  0  0
   61.1019   28.9972   44.0941 H   0  0  0  0  0  0  0  0  0  0  0  0
   61.5562   30.3763   46.1207 H   0  0  0  0  0  0  0  0  0  0  0  0
   62.5958   30.5477   47.9027 H   0  0  0  0  0  0  0  0  0  0  0  0
   63.8296   32.0485   46.6601 H   0  0  0  0  0  0  0  0  0  0  0  0
   62.1854   32.7277   46.3609 H   0  0  0  0  0  0  0  0  0  0  0  0
   64.2602   34.2583   47.2330 H   0  0  0  0  0  0  0  0  0  0  0  0
   62.5874   34.6105   47.6823 H   0  0  0  0  0  0  0  0  0  0  0  0
   63.7695   31.1153   49.7934 H   0  0  0  0  0  0  0  0  0  0  0  0
   62.2649   31.8657   50.3663 H   0  0  0  0  0  0  0  0  0  0  0  0
   58.2306   31.2961   47.0325 H   0  0  0  0  0  0  0  0  0  0  0  0
  1  2  1  0
  2  3  1  0
  3  4  2  0
  4  5  1  0
  5  6  2  0
  6  7  1  0
  7  8  1  0
  8  9  2  0
  8 10  1  0
 10 11  1  0
 11 12  1  0
 12 13  2  0
 13 14  1  0
 14 15  2  0
 15 16  1  0
 16 17  2  0
 10 18  1  0
 18 19  1  0
 19 20  1  0
 20 21  1  0
 21 22  2  0
 21 23  2  0
 21 24  1  0
  7 25  2  0
 25  3  1  0
 17 12  1  0
 24 18  1  0
  1 26  1  0
  1 27  1  0
  1 28  1  0
  4 29  1  0
  5 30  1  0
  6 31  1  0
 11 32  1  0
 11 33  1  0
 13 34  1  0
 14 35  1  0
 15 36  1  0
 16 37  1  0
 17 38  1  0
 18 39  1  6
 19 40  1  0
 19 41  1  0
 20 42  1  0
 20 43  1  0
 24 44  1  0
 24 45  1  0
 25 46  1  0
M  END
>  <UniqueID>  (45) 
44

>  <SMILES>  (45) 
COc1cccc(C(=O)N(Cc2ccccc2)[C@H]2CCS(=O)(=O)C2)c1

>  <Energy>  (45) 
53.320014779332524

>  <Genealogy>  (45) 
COc1cccc(C(=O)N(Cc2ccccc2)[C@H]2CCS(=O)(=O)C2)c1 (chirality)
COc1cccc(C(=O)N(Cc2ccccc2)[C@H]2CCS(=O)(=O)C2)c1 (3D coordinates assigned)
COc1cccc(C(=O)N(Cc2ccccc2)[C@H]2CCS(=O)(=O)C2)c1 (nonaromatic ring conformer: 53.320014779332524 kcal/mol)

>  <smiles>  (45) 
COc1cccc(C(=O)N(Cc2ccccc2)C2CCS(=O)(=O)C2)c1

>  <score_type>  (45) 
oracle

>  <origin>  (45) 
adg

>  <m_score__min__energy>  (45) 
-8.8000000000000007

>  <m_primary>  (45) 
energy

$$$$
45:0
     RDKit          3D

 39 40  0  0  0  0  0  0  0  0999 V2000
   57.3530   28.7810   43.7380 C   0  0  0  0  0  0  0  0  0  0  0  0
   56.1270   29.6770   43.8750 C   0  0  0  0  0  0  0  0  0  0  0  0
   56.4710   30.9060   44.5120 O   0  0  0  0  0  0  0  0  0  0  0  0
   57.6830   31.5710   44.2970 C   0  0  0  0  0  0  0  0  0  0  0  0
   58.1280   31.7450   43.1290 O   0  0  0  0  0  0  0  0  0  0  0  0
   58.4690   32.0630   45.4730 C   0  0  0  0  0  0  0  0  0  0  0  0
   57.9300   33.3470   45.9760 N   0  0  0  0  0  0  0  0  0  0  0  0
   58.6030   34.5170   45.3490 C   0  0  0  0  0  0  0  0  0  0  0  0
   59.6430   35.2030   46.2570 C   0  0  0  0  0  0  0  0  0  0  0  0
   60.2320   34.2320   47.1820 N   0  0  0  0  0  0  0  0  0  0  0  0
   61.6160   33.8510   47.0540 C   0  0  0  0  0  0  0  0  0  0  0  0
   62.1500   33.8290   45.9130 O   0  0  0  0  0  0  0  0  0  0  0  0
   62.4230   33.4520   48.2240 C   0  0  0  0  0  0  0  0  0  0  0  0
   63.3320   32.3830   48.1550 C   0  0  0  0  0  0  0  0  0  0  0  0
   64.0640   32.0310   49.2890 C   0  0  0  0  0  0  0  0  0  0  0  0
   63.8780   32.7310   50.4830 C   0  0  0  0  0  0  0  0  0  0  0  0
   62.9510   33.7750   50.5230 C   0  0  0  0  0  0  0  0  0  0  0  0
   62.2490   34.1050   49.4070 N   0  0  0  0  0  0  0  0  0  0  0  0
   59.3270   33.4680   48.0500 C   0  0  0  0  0  0  0  0  0  0  0  0
   57.9090   33.4310   47.4560 C   0  0  0  0  0  0  0  0  0  0  0  0
   57.7231   28.5105   44.7379 H   0  0  0  0  0  0  0  0  0  0  0  0
   57.0803   27.8679   43.1886 H   0  0  0  0  0  0  0  0  0  0  0  0
   58.1402   29.3181   43.1886 H   0  0  0  0  0  0  0  0  0  0  0  0
   55.7212   29.8896   42.8749 H   0  0  0  0  0  0  0  0  0  0  0  0
   55.3758   29.1581   44.4886 H   0  0  0  0  0  0  0  0  0  0  0  0
   58.4199   31.3135   46.2766 H   0  0  0  0  0  0  0  0  0  0  0  0
   59.5100   32.2221   45.1551 H   0  0  0  0  0  0  0  0  0  0  0  0
   59.1129   34.1746   44.4364 H   0  0  0  0  0  0  0  0  0  0  0  0
   57.8201   35.2617   45.1428 H   0  0  0  0  0  0  0  0  0  0  0  0
   60.4379   35.6380   45.6334 H   0  0  0  0  0  0  0  0  0  0  0  0
   59.1441   35.9926   46.8381 H   0  0  0  0  0  0  0  0  0  0  0  0
   63.4653   31.8282   47.2145 H   0  0  0  0  0  0  0  0  0  0  0  0
   64.7868   31.2031   49.2428 H   0  0  0  0  0  0  0  0  0  0  0  0
   64.4544   32.4635   51.3809 H   0  0  0  0  0  0  0  0  0  0  0  0
   62.7890   34.3306   51.4585 H   0  0  0  0  0  0  0  0  0  0  0  0
   59.7042   32.4395   48.1492 H   0  0  0  0  0  0  0  0  0  0  0  0
   59.2858   33.9553   49.0353 H   0  0  0  0  0  0  0  0  0  0  0  0
   57.3797   32.5528   47.8543 H   0  0  0  0  0  0  0  0  0  0  0  0
   57.3981   34.3639   47.7366 H   0  0  0  0  0  0  0  0  0  0  0  0
  1  2  1  0
  2  3  1  0
  3  4  1  0
  4  5  2  0
  4  6  1  0
  6  7  1  0
  7  8  1  0
  8  9  1  0
  9 10  1  0
 10 11  1  0
 11 12  2  0
 11 13  1  0
 13 14  2  0
 14 15  1  0
 15 16  2  0
 16 17  1  0
 17 18  2  0
 10 19  1  0
 19 20  1  0
 20  7  1  0
 18 13  1  0
  1 21  1  0
  1 22  1  0
  1 23  1  0
  2 24  1  0
  2 25  1  0
  6 26  1  0
  6 27  1  0
  8 28  1  0
  8 29  1  0
  9 30  1  0
  9 31  1  0
 14 32  1  0
 15 33  1  0
 16 34  1  0
 17 35  1  0
 19 36  1  0
 19 37  1  0
 20 38  1  0
 20 39  1  0
M  END
>  <UniqueID>  (46) 
45

>  <SMILES>  (46) 
CCOC(=O)CN1CCN(C(=O)c2ccccn2)CC1

>  <Energy>  (46) 
47.811363169768754

>  <Genealogy>  (46) 
CCOC(=O)CN1CCN(C(=O)c2ccccn2)CC1 (3D coordinates assigned)
CCOC(=O)CN1CCN(C(=O)c2ccccn2)CC1 (nonaromatic ring conformer: 47.811363169768754 kcal/mol)

>  <smiles>  (46) 
CCOC(=O)CN1CCN(C(=O)c2ccccn2)CC1

>  <score_type>  (46) 
oracle

>  <origin>  (46) 
adg

>  <m_score__min__energy>  (46) 
-6.4800000000000004

>  <m_primary>  (46) 
energy

$$$$
46:0
     RDKit          3D

 45 47  0  0  0  0  0  0  0  0999 V2000
   56.9880   21.4670   43.2450 C   0  0  0  0  0  0  0  0  0  0  0  0
   55.9430   22.4330   43.2380 O   0  0  0  0  0  0  0  0  0  0  0  0
   55.8380   23.4960   44.1490 C   0  0  0  0  0  0  0  0  0  0  0  0
   56.8290   24.4900   44.2600 C   0  0  0  0  0  0  0  0  0  0  0  0
   56.6880   25.5430   45.1860 C   0  0  0  0  0  0  0  0  0  0  0  0
   57.7320   26.5940   45.2970 C   0  0  0  0  0  0  0  0  0  0  0  0
   59.0040   26.2840   45.8080 C   0  0  0  0  0  0  0  0  0  0  0  0
   59.9860   27.2720   45.9090 C   0  0  0  0  0  0  0  0  0  0  0  0
   59.7130   28.5830   45.5090 C   0  0  0  0  0  0  0  0  0  0  0  0
   60.7070   29.5490   45.6340 O   0  0  0  0  0  0  0  0  0  0  0  0
   58.4420   28.9160   45.0050 C   0  0  0  0  0  0  0  0  0  0  0  0
   58.1350   30.2960   44.5650 C   0  0  0  0  0  0  0  0  0  0  0  0
   58.0140   30.5370   43.3330 O   0  0  0  0  0  0  0  0  0  0  0  0
   57.9670   31.3640   45.5180 N   0  0  0  0  0  0  0  0  0  0  0  0
   58.9090   31.5010   46.6380 C   0  0  0  0  0  0  0  0  0  0  0  0
   58.5460   32.7050   47.5210 C   0  0  0  0  0  0  0  0  0  0  0  0
   58.3620   33.9550   46.7450 N   0  0  0  0  0  0  0  0  0  0  0  0
   59.6250   34.6970   46.6210 C   0  0  0  0  0  0  0  0  0  0  0  0
   57.7100   33.7860   45.4200 C   0  0  0  0  0  0  0  0  0  0  0  0
   57.0010   32.4370   45.2710 C   0  0  0  0  0  0  0  0  0  0  0  0
   57.4620   27.9150   44.8940 C   0  0  0  0  0  0  0  0  0  0  0  0
   55.5420   25.5880   45.9980 C   0  0  0  0  0  0  0  0  0  0  0  0
   54.5590   24.6040   45.8900 C   0  0  0  0  0  0  0  0  0  0  0  0
   54.7050   23.5630   44.9700 C   0  0  0  0  0  0  0  0  0  0  0  0
   53.7160   22.5900   44.8730 O   0  0  0  0  0  0  0  0  0  0  0  0
   57.2535   21.2216   44.2839 H   0  0  0  0  0  0  0  0  0  0  0  0
   56.6495   20.5569   42.7283 H   0  0  0  0  0  0  0  0  0  0  0  0
   57.8688   21.8759   42.7283 H   0  0  0  0  0  0  0  0  0  0  0  0
   57.7212   24.4443   43.6182 H   0  0  0  0  0  0  0  0  0  0  0  0
   59.2276   25.2564   46.1305 H   0  0  0  0  0  0  0  0  0  0  0  0
   60.9798   27.0169   46.3056 H   0  0  0  0  0  0  0  0  0  0  0  0
   58.8781   30.5859   47.2476 H   0  0  0  0  0  0  0  0  0  0  0  0
   59.9179   31.6588   46.2291 H   0  0  0  0  0  0  0  0  0  0  0  0
   57.6094   32.4808   48.0525 H   0  0  0  0  0  0  0  0  0  0  0  0
   59.3824   32.8683   48.2165 H   0  0  0  0  0  0  0  0  0  0  0  0
   60.0154   34.9264   47.6235 H   0  0  0  0  0  0  0  0  0  0  0  0
   60.3573   34.0855   46.0734 H   0  0  0  0  0  0  0  0  0  0  0  0
   59.4474   35.6343   46.0734 H   0  0  0  0  0  0  0  0  0  0  0  0
   56.9688   34.5881   45.2890 H   0  0  0  0  0  0  0  0  0  0  0  0
   58.5002   33.8291   44.6560 H   0  0  0  0  0  0  0  0  0  0  0  0
   56.1794   32.3691   45.9993 H   0  0  0  0  0  0  0  0  0  0  0  0
   56.5898   32.3420   44.2552 H   0  0  0  0  0  0  0  0  0  0  0  0
   56.4716   28.1671   44.4871 H   0  0  0  0  0  0  0  0  0  0  0  0
   55.4191   26.4051   46.7241 H   0  0  0  0  0  0  0  0  0  0  0  0
   53.6663   24.6480   46.5312 H   0  0  0  0  0  0  0  0  0  0  0  0
  1  2  1  0
  2  3  1  0
  3  4  2  0
  4  5  1  0
  5  6  1  0
  6  7  2  0
  7  8  1  0
  8  9  2  0
  9 10  1  0
  9 11  1  0
 11 12  1  0
 12 13  2  0
 12 14  1  0
 14 15  1  0
 15 16  1  0
 16 17  1  0
 17 18  1  0
 17 19  1  0
 19 20  1  0
 11 21  2  0
  5 22  2  0
 22 23  1  0
 23 24  2  0
 24 25  1  0
 24  3  1  0
 21  6  1  0
 20 14  1  0
  1 26  1  0
  1 27  1  0
  1 28  1  0
  4 29  1  0
  7 30  1  0
  8 31  1  0
 15 32  1  0
 15 33  1  0
 16 34  1  0
 16 35  1  0
 18 36  1  0
 18 37  1  0
 18 38  1  0
 19 39  1  0
 19 40  1  0
 20 41  1  0
 20 42  1  0
 21 43  1  0
 22 44  1  0
 23 45  1  0
M  CHG  2  10  -1  25  -1
M  END
>  <UniqueID>  (47) 
46

>  <SMILES>  (47) 
COc1cc(-c2ccc([O-])c(C(=O)N3CCN(C)CC3)c2)ccc1[O-]

>  <Energy>  (47) 
64.95307857689575

>  <Genealogy>  (47) 
COc1cc(-c2ccc([O-])c(C(=O)N3CCN(C)CC3)c2)ccc1[O-] (protonated)
COc1cc(-c2ccc([O-])c(C(=O)N3CCN(C)CC3)c2)ccc1[O-] (3D coordinates assigned)
COc1cc(-c2ccc([O-])c(C(=O)N3CCN(C)CC3)c2)ccc1[O-] (nonaromatic ring conformer: 64.95307857689575 kcal/mol)

>  <smiles>  (47) 
COc1cc(-c2ccc(O)c(C(=O)N3CCN(C)CC3)c2)ccc1O

>  <score_type>  (47) 
oracle

>  <origin>  (47) 
adg

>  <m_score__min__energy>  (47) 
-11.09

>  <m_primary>  (47) 
energy

$$$$
47:0
     RDKit          3D

 27 29  0  0  0  0  0  0  0  0999 V2000
   57.7750   27.4540   43.6800 C   0  0  0  0  0  0  0  0  0  0  0  0
   57.7120   28.7640   44.3170 N   0  0  0  0  0  0  0  0  0  0  0  0
   56.7070   29.6720   44.2450 C   0  0  0  0  0  0  0  0  0  0  0  0
   56.9980   30.8470   44.8710 N   0  0  0  0  0  0  0  0  0  0  0  0
   58.2460   30.6410   45.3310 C   0  0  0  0  0  0  0  0  0  0  0  0
   59.0630   31.5150   46.0380 C   0  0  0  0  0  0  0  0  0  0  0  0
   60.3570   31.0630   46.3920 C   0  0  0  0  0  0  0  0  0  0  0  0
   61.2830   31.9440   47.1500 C   0  0  0  0  0  0  0  0  0  0  0  0
   60.7930   33.0190   47.9100 C   0  0  0  0  0  0  0  0  0  0  0  0
   61.6740   33.8380   48.6160 C   0  0  0  0  0  0  0  0  0  0  0  0
   63.0430   33.5780   48.5610 C   0  0  0  0  0  0  0  0  0  0  0  0
   63.5110   32.5360   47.8230 N   0  0  0  0  0  0  0  0  0  0  0  0
   62.6700   31.7230   47.1260 C   0  0  0  0  0  0  0  0  0  0  0  0
   60.7560   29.7520   46.0050 C   0  0  0  0  0  0  0  0  0  0  0  0
   59.9080   28.9390   45.3070 N   0  0  0  0  0  0  0  0  0  0  0  0
   58.6750   29.4010   44.9920 C   0  0  0  0  0  0  0  0  0  0  0  0
   57.8126   26.6720   44.4527 H   0  0  0  0  0  0  0  0  0  0  0  0
   56.8829   27.3077   43.0534 H   0  0  0  0  0  0  0  0  0  0  0  0
   58.6771   27.3940   43.0534 H   0  0  0  0  0  0  0  0  0  0  0  0
   55.7528   29.4793   43.7327 H   0  0  0  0  0  0  0  0  0  0  0  0
   58.7165   32.5222   46.3128 H   0  0  0  0  0  0  0  0  0  0  0  0
   59.7114   33.2154   47.9484 H   0  0  0  0  0  0  0  0  0  0  0  0
   61.2925   34.6811   49.2106 H   0  0  0  0  0  0  0  0  0  0  0  0
   63.7458   34.2171   49.1157 H   0  0  0  0  0  0  0  0  0  0  0  0
   64.5390   32.3510   47.7950 H   0  0  0  0  0  0  0  0  0  0  0  0
   63.0797   30.8871   46.5399 H   0  0  0  0  0  0  0  0  0  0  0  0
   61.7597   29.3891   46.2713 H   0  0  0  0  0  0  0  0  0  0  0  0
  1  2  1  0
  2  3  1  0
  3  4  2  0
  4  5  1  0
  5  6  2  0
  6  7  1  0
  7  8  1  0
  8  9  2  0
  9 10  1  0
 10 11  2  0
 11 12  1  0
 12 13  2  0
  7 14  2  0
 14 15  1  0
 15 16  2  0
 16  2  1  0
 16  5  1  0
 13  8  1  0
  1 17  1  0
  1 18  1  0
  1 19  1  0
  3 20  1  0
  6 21  1  0
  9 22  1  0
 10 23  1  0
 11 24  1  0
 12 25  1  0
 13 26  1  0
 14 27  1  0
M  CHG  1  12   1
M  END
>  <UniqueID>  (48) 
47

>  <SMILES>  (48) 
Cn1cnc2cc(-c3ccc[nH+]c3)cnc21

>  <Energy>  (48) 
73.60025400195944

>  <Genealogy>  (48) 
Cn1cnc2cc(-c3ccc[nH+]c3)cnc21 (protonated)
Cn1cnc2cc(-c3ccc[nH+]c3)cnc21 (3D coordinates assigned)
Cn1cnc2cc(-c3ccc[nH+]c3)cnc21 (optimized conformer: 73.60025400195944 kcal/mol)

>  <smiles>  (48) 
Cn1cnc2cc(-c3cccnc3)cnc21

>  <score_type>  (48) 
oracle

>  <origin>  (48) 
adg

>  <m_score__min__energy>  (48) 
-4.3600000000000003

>  <m_primary>  (48) 
energy

$$$$
48:0
     RDKit          3D

 39 41  0  0  0  0  0  0  0  0999 V2000
   55.1720   29.3050   45.0290 O   0  0  0  0  0  0  0  0  0  0  0  0
   55.2150   29.7790   43.7110 C   0  0  0  0  0  0  0  0  0  0  0  0
   56.6590   30.0610   43.2770 C   0  0  0  0  0  0  0  0  0  0  0  0
   57.2780   31.2450   44.0240 C   0  0  0  0  0  0  0  0  0  0  0  0
   57.2920   30.9840   45.4130 O   0  0  0  0  0  0  0  0  0  0  0  0
   58.0710   31.9560   46.0850 C   0  0  0  0  0  0  0  0  0  0  0  0
   59.4080   31.4350   46.4050 N   0  0  0  0  0  0  0  0  0  0  0  0
   59.8510   30.1440   46.3600 C   0  0  0  0  0  0  0  0  0  0  0  0
   59.0510   28.9850   45.9160 C   0  0  0  0  0  0  0  0  0  0  0  0
   58.1430   28.3870   46.8070 C   0  0  0  0  0  0  0  0  0  0  0  0
   57.3910   27.2780   46.4100 C   0  0  0  0  0  0  0  0  0  0  0  0
   57.5490   26.7470   45.1280 C   0  0  0  0  0  0  0  0  0  0  0  0
   58.4670   27.3200   44.2430 C   0  0  0  0  0  0  0  0  0  0  0  0
   59.2200   28.4300   44.6370 C   0  0  0  0  0  0  0  0  0  0  0  0
   61.1210   29.9960   46.8230 N   0  0  0  0  0  0  0  0  0  0  0  0
   61.4790   31.2500   47.1460 C   0  0  0  0  0  0  0  0  0  0  0  0
   62.6960   31.6690   47.6770 C   0  0  0  0  0  0  0  0  0  0  0  0
   62.8530   33.0390   47.9550 C   0  0  0  0  0  0  0  0  0  0  0  0
   61.8000   33.9450   47.7010 C   0  0  0  0  0  0  0  0  0  0  0  0
   60.5810   33.4900   47.1660 C   0  0  0  0  0  0  0  0  0  0  0  0
   60.4580   32.1220   46.8970 C   0  0  0  0  0  0  0  0  0  0  0  0
   55.3280   30.0880   45.6200 H   0  0  0  0  0  0  0  0  0  0  0  0
   54.7792   29.0225   43.0419 H   0  0  0  0  0  0  0  0  0  0  0  0
   54.6423   30.7165   43.6561 H   0  0  0  0  0  0  0  0  0  0  0  0
   57.2667   29.1650   43.4718 H   0  0  0  0  0  0  0  0  0  0  0  0
   56.6415   30.3148   42.2068 H   0  0  0  0  0  0  0  0  0  0  0  0
   58.3085   31.3999   43.6717 H   0  0  0  0  0  0  0  0  0  0  0  0
   56.6792   32.1474   43.8314 H   0  0  0  0  0  0  0  0  0  0  0  0
   58.1753   32.8411   45.4402 H   0  0  0  0  0  0  0  0  0  0  0  0
   57.5649   32.2197   47.0254 H   0  0  0  0  0  0  0  0  0  0  0  0
   58.0238   28.7940   47.8219 H   0  0  0  0  0  0  0  0  0  0  0  0
   56.6735   26.8226   47.1084 H   0  0  0  0  0  0  0  0  0  0  0  0
   56.9514   25.8783   44.8148 H   0  0  0  0  0  0  0  0  0  0  0  0
   58.5969   26.8972   43.2359 H   0  0  0  0  0  0  0  0  0  0  0  0
   59.9490   28.8712   43.9413 H   0  0  0  0  0  0  0  0  0  0  0  0
   63.5076   30.9527   47.8726 H   0  0  0  0  0  0  0  0  0  0  0  0
   63.8018   33.4068   48.3728 H   0  0  0  0  0  0  0  0  0  0  0  0
   61.9338   35.0140   47.9230 H   0  0  0  0  0  0  0  0  0  0  0  0
   59.7528   34.1857   46.9659 H   0  0  0  0  0  0  0  0  0  0  0  0
  1  2  1  0
  2  3  1  0
  3  4  1  0
  4  5  1  0
  5  6  1  0
  6  7  1  0
  7  8  1  0
  8  9  1  0
  9 10  2  0
 10 11  1  0
 11 12  2  0
 12 13  1  0
 13 14  2  0
  8 15  2  0
 15 16  1  0
 16 17  2  0
 17 18  1  0
 18 19  2  0
 19 20  1  0
 20 21  2  0
 21  7  1  0
 14  9  1  0
 21 16  1  0
  1 22  1  0
  2 23  1  0
  2 24  1  0
  3 25  1  0
  3 26  1  0
  4 27  1  0
  4 28  1  0
  6 29  1  0
  6 30  1  0
 10 31  1  0
 11 32  1  0
 12 33  1  0
 13 34  1  0
 14 35  1  0
 17 36  1  0
 18 37  1  0
 19 38  1  0
 20 39  1  0
M  END
>  <UniqueID>  (49) 
48

>  <SMILES>  (49) 
OCCCOCn1c(-c2ccccc2)nc2ccccc21

>  <Energy>  (49) 
80.0719036279834

>  <Genealogy>  (49) 
OCCCOCn1c(-c2ccccc2)nc2ccccc21 (3D coordinates assigned)
OCCCOCn1c(-c2ccccc2)nc2ccccc21 (optimized conformer: 80.0719036279834 kcal/mol)

>  <smiles>  (49) 
OCCCOCn1c(-c2ccccc2)nc2ccccc21

>  <score_type>  (49) 
oracle

>  <origin>  (49) 
adg

>  <m_score__min__energy>  (49) 
-7.1600000000000001

>  <m_primary>  (49) 
energy

$$$$
