0:0
     RDKit          3D

 38 40  0  0  0  0  0  0  0  0999 V2000
   58.8720   22.2700   44.9170 C   0  0  0  0  0  0  0  0  0  0  0  0
   59.0140   23.3900   45.7830 O   0  0  0  0  0  0  0  0  0  0  0  0
   58.1020   24.4530   45.8600 C   0  0  0  0  0  0  0  0  0  0  0  0
   56.7870   24.1810   46.2420 C   0  0  0  0  0  0  0  0  0  0  0  0
   55.8730   25.1830   46.3180 N   0  0  0  0  0  0  0  0  0  0  0  0
   56.1950   26.4720   46.0350 C   0  0  0  0  0  0  0  0  0  0  0  0
   57.5050   26.8090   45.6610 C   0  0  0  0  0  0  0  0  0  0  0  0
   57.8500   28.1740   45.3510 N   0  0  0  0  0  0  0  0  0  0  0  0
   57.4600   28.8660   44.1340 C   0  0  0  0  0  0  0  0  0  0  0  0
   58.2650   30.1890   44.1120 C   0  0  1  0  0  0  0  0  0  0  0  0
   57.3990   31.3520   43.5790 C   0  0  0  0  0  0  0  0  0  0  0  0
   58.1230   32.7100   43.5690 C   0  0  0  0  0  0  0  0  0  0  0  0
   57.9500   33.5040   44.7940 N   0  0  0  0  0  0  0  0  0  0  0  0
   58.6260   32.9530   45.9800 C   0  0  0  0  0  0  0  0  0  0  0  0
   58.1940   31.5120   46.3700 C   0  0  0  0  0  0  0  0  0  0  0  0
   58.8450   30.3780   45.5470 C   0  0  1  0  0  0  0  0  0  0  0  0
   58.5840   29.0610   46.1800 C   0  0  0  0  0  0  0  0  0  0  0  0
   58.9530   28.7680   47.3490 O   0  0  0  0  0  0  0  0  0  0  0  0
   58.4580   25.7810   45.5630 C   0  0  0  0  0  0  0  0  0  0  0  0
   58.7560   21.3552   45.5167 H   0  0  0  0  0  0  0  0  0  0  0  0
   57.9841   22.4074   44.2824 H   0  0  0  0  0  0  0  0  0  0  0  0
   59.7661   22.1815   44.2824 H   0  0  0  0  0  0  0  0  0  0  0  0
   56.4895   23.1497   46.4827 H   0  0  0  0  0  0  0  0  0  0  0  0
   55.4254   27.2553   46.0993 H   0  0  0  0  0  0  0  0  0  0  0  0
   57.7059   28.2554   43.2527 H   0  0  0  0  0  0  0  0  0  0  0  0
   56.3767   29.0556   44.1104 H   0  0  0  0  0  0  0  0  0  0  0  0
   59.1103   30.1653   43.4085 H   0  0  0  0  0  0  0  0  0  0  0  0
   57.0938   31.1138   42.5494 H   0  0  0  0  0  0  0  0  0  0  0  0
   56.5406   31.4510   44.2597 H   0  0  0  0  0  0  0  0  0  0  0  0
   59.1982   32.5247   43.4291 H   0  0  0  0  0  0  0  0  0  0  0  0
   57.6766   33.2956   42.7519 H   0  0  0  0  0  0  0  0  0  0  0  0
   58.1890   34.5100   44.6350 H   0  0  0  0  0  0  0  0  0  0  0  0
   59.7081   32.9435   45.7828 H   0  0  0  0  0  0  0  0  0  0  0  0
   58.3424   33.5988   46.8241 H   0  0  0  0  0  0  0  0  0  0  0  0
   58.4526   31.3550   47.4276 H   0  0  0  0  0  0  0  0  0  0  0  0
   57.1149   31.4537   46.1647 H   0  0  0  0  0  0  0  0  0  0  0  0
   59.9026   30.6775   45.5046 H   0  0  0  0  0  0  0  0  0  0  0  0
   59.4869   26.0158   45.2527 H   0  0  0  0  0  0  0  0  0  0  0  0
  1  2  1  0
  2  3  1  0
  3  4  2  0
  4  5  1  0
  5  6  2  0
  6  7  1  0
  7  8  1  0
  8  9  1  0
  9 10  1  0
 10 11  1  0
 11 12  1  0
 12 13  1  0
 13 14  1  0
 14 15  1  0
 15 16  1  0
 16 17  1  0
 17 18  2  0
  7 19  2  0
 19  3  1  0
 17  8  1  0
 16 10  1  0
  1 20  1  0
  1 21  1  0
  1 22  1  0
  4 23  1  0
  6 24  1  0
  9 25  1  0
  9 26  1  0
 10 27  1  6
 11 28  1  0
 11 29  1  0
 12 30  1  0
 12 31  1  0
 13 32  1  0
 14 33  1  0
 14 34  1  0
 15 35  1  0
 15 36  1  0
 16 37  1  6
 19 38  1  0
M  END
>  <UniqueID>  (1) 
1

>  <SMILES>  (1) 
COc1cncc(N2C[C@H]3CCNCC[C@H]3C2=O)c1

>  <Energy>  (1) 
60.952569217405276

>  <Genealogy>  (1) 
COc1cncc(N2C[C@H]3CCNCC[C@H]3C2=O)c1 (chirality)
COc1cncc(N2C[C@H]3CCNCC[C@H]3C2=O)c1 (3D coordinates assigned)
COc1cncc(N2C[C@H]3CCNCC[C@H]3C2=O)c1 (nonaromatic ring conformer: 60.952569217405276 kcal/mol)

>  <smiles>  (1) 
COc1cncc(N2CC3CCNCCC3C2=O)c1

>  <score_type>  (1) 
oracle

>  <origin>  (1) 
adg

>  <m_score__min__energy>  (1) 
-4.5099999999999998

>  <m_primary>  (1) 
energy

$$$$
1:0
     RDKit          3D

 33 33  0  0  0  0  0  0  0  0999 V2000
   59.9410   26.4410   46.8780 C   0  0  0  0  0  0  0  0  0  0  0  0
   58.8030   27.1140   47.6350 C   0  0  0  0  0  0  0  0  0  0  0  0
   57.7690   27.5170   46.7390 O   0  0  0  0  0  0  0  0  0  0  0  0
   56.9810   26.6120   46.0190 C   0  0  0  0  0  0  0  0  0  0  0  0
   55.8920   26.1840   46.4940 O   0  0  0  0  0  0  0  0  0  0  0  0
   57.4040   26.1990   44.6500 C   0  0  0  0  0  0  0  0  0  0  0  0
   58.0850   27.5980   43.7710 S   0  0  0  0  0  5  0  0  0  0  0  0
   59.4090   28.2270   44.6010 O   0  0  0  0  0  0  0  0  0  0  0  0
   58.5930   27.0710   42.2570 O   0  0  0  0  0  0  0  0  0  0  0  0
   56.9870   28.7080   43.5840 N   0  0  0  0  0  0  0  0  0  0  0  0
   56.4870   29.5170   44.6540 C   0  0  0  0  0  0  0  0  0  0  0  0
   55.2420   29.6190   44.8080 O   0  0  0  0  0  0  0  0  0  0  0  0
   57.3900   30.1630   45.5630 N   0  0  0  0  0  0  0  0  0  0  0  0
   57.7760   31.5460   45.5680 C   0  0  0  0  0  0  0  0  0  0  0  0
   57.0380   32.5240   44.8730 C   0  0  0  0  0  0  0  0  0  0  0  0
   57.4570   33.8580   44.8760 C   0  0  0  0  0  0  0  0  0  0  0  0
   58.6190   34.2260   45.5590 C   0  0  0  0  0  0  0  0  0  0  0  0
   59.3700   33.2590   46.2310 C   0  0  0  0  0  0  0  0  0  0  0  0
   58.9580   31.9210   46.2310 C   0  0  0  0  0  0  0  0  0  0  0  0
   59.9350   30.7260   47.0730 Cl  0  0  0  0  0  0  0  0  0  0  0  0
   60.6584   26.0167   47.5958 H   0  0  0  0  0  0  0  0  0  0  0  0
   59.5359   25.6371   46.2458 H   0  0  0  0  0  0  0  0  0  0  0  0
   60.4503   27.1833   46.2458 H   0  0  0  0  0  0  0  0  0  0  0  0
   58.3893   26.4064   48.3686 H   0  0  0  0  0  0  0  0  0  0  0  0
   59.1965   28.0060   48.1443 H   0  0  0  0  0  0  0  0  0  0  0  0
   58.1674   25.4108   44.7271 H   0  0  0  0  0  0  0  0  0  0  0  0
   56.5293   25.8196   44.1015 H   0  0  0  0  0  0  0  0  0  0  0  0
   59.0310   28.7160   45.3740 H   0  0  0  0  0  0  0  0  0  0  0  0
   58.1850   27.7060   41.6170 H   0  0  0  0  0  0  0  0  0  0  0  0
   56.1281   32.2370   44.3255 H   0  0  0  0  0  0  0  0  0  0  0  0
   56.8709   34.6189   44.3398 H   0  0  0  0  0  0  0  0  0  0  0  0
   58.9424   35.2774   45.5675 H   0  0  0  0  0  0  0  0  0  0  0  0
   60.2884   33.5497   46.7621 H   0  0  0  0  0  0  0  0  0  0  0  0
  1  2  1  0
  2  3  1  0
  3  4  1  0
  4  5  2  0
  4  6  1  0
  6  7  1  0
  7  8  1  0
  7  9  1  0
  7 10  2  0
 10 11  1  0
 11 12  2  0
 11 13  1  0
 13 14  1  0
 14 15  2  0
 15 16  1  0
 16 17  2  0
 17 18  1  0
 18 19  2  0
 19 20  1  0
 19 14  1  0
  1 21  1  0
  1 22  1  0
  1 23  1  0
  2 24  1  0
  2 25  1  0
  6 26  1  0
  6 27  1  0
  8 28  1  0
  9 29  1  0
 15 30  1  0
 16 31  1  0
 17 32  1  0
 18 33  1  0
M  CHG  2   7   1  13  -1
M  END
>  <UniqueID>  (2) 
2

>  <SMILES>  (2) 
CCOC(=O)C[S+](O)(O)=NC(=O)[N-]c1ccccc1Cl

>  <Energy>  (2) 
24.508415939844017

>  <Genealogy>  (2) 
CCOC(=O)C[S+](O)(O)=NC(=O)[N-]c1ccccc1Cl (protonated)
CCOC(=O)C[S+](O)(O)=NC(=O)[N-]c1ccccc1Cl (3D coordinates assigned)
CCOC(=O)C[S+](O)(O)=NC(=O)[N-]c1ccccc1Cl (optimized conformer: 24.508415939844017 kcal/mol)

>  <smiles>  (2) 
CCOC(=O)C[S+]([O-])([O-])=NC(=O)Nc1ccccc1Cl

>  <score_type>  (2) 
oracle

>  <origin>  (2) 
adg

>  <m_score__min__energy>  (2) 
-6.9500000000000002

>  <m_primary>  (2) 
energy

$$$$
2:0
     RDKit          3D

 29 30  0  0  0  0  0  0  0  0999 V2000
   56.2515   33.7598   44.8512 H   0  0  0  0  0  0  0  0  0  0  0  0
   57.0090   33.0510   45.2170 C   0  0  0  0  0  0  0  0  0  0  0  0
   56.9330   31.7970   44.8820 N   0  0  0  0  0  0  0  0  0  0  0  0
   57.6410   31.1590   43.8060 C   0  0  0  0  0  0  0  0  0  0  0  0
   57.3900   31.5890   42.2390 S   0  0  0  0  0  0  0  0  0  0  0  0
   58.4990   30.0410   44.0830 N   0  0  0  0  0  0  0  0  0  0  0  0
   58.7380   29.3980   43.2950 H   0  0  0  0  0  0  0  0  0  0  0  0
   58.9470   29.6870   45.4030 C   0  0  0  0  0  0  0  0  0  0  0  0
   58.3690   28.5870   46.0540 C   0  0  0  0  0  0  0  0  0  0  0  0
   57.5740   28.0128   45.5557 H   0  0  0  0  0  0  0  0  0  0  0  0
   58.7970   28.2160   47.3320 C   0  0  0  0  0  0  0  0  0  0  0  0
   58.3292   27.3605   47.8411 H   0  0  0  0  0  0  0  0  0  0  0  0
   59.8190   28.9310   47.9640 C   0  0  0  0  0  0  0  0  0  0  0  0
   60.4040   28.4230   49.7100 Br  0  0  0  0  0  0  0  0  0  0  0  0
   60.4180   30.0130   47.3130 C   0  0  0  0  0  0  0  0  0  0  0  0
   61.2262   30.5721   47.8072 H   0  0  0  0  0  0  0  0  0  0  0  0
   59.9920   30.3860   46.0350 C   0  0  0  0  0  0  0  0  0  0  0  0
   60.4758   31.2297   45.5211 H   0  0  0  0  0  0  0  0  0  0  0  0
   58.1030   33.5320   46.0840 C   0  0  0  0  0  0  0  0  0  0  0  0
   59.0250   34.4960   45.6350 C   0  0  0  0  0  0  0  0  0  0  0  0
   58.9383   34.9044   44.6173 H   0  0  0  0  0  0  0  0  0  0  0  0
   60.0510   34.9370   46.4770 C   0  0  0  0  0  0  0  0  0  0  0  0
   60.7694   35.6895   46.1197 H   0  0  0  0  0  0  0  0  0  0  0  0
   60.1650   34.4230   47.7720 C   0  0  0  0  0  0  0  0  0  0  0  0
   60.9718   34.7719   48.4334 H   0  0  0  0  0  0  0  0  0  0  0  0
   59.2540   33.4660   48.2260 C   0  0  0  0  0  0  0  0  0  0  0  0
   59.3660   32.9680   49.4820 F   0  0  0  0  0  0  0  0  0  0  0  0
   58.2260   33.0210   47.3880 C   0  0  0  0  0  0  0  0  0  0  0  0
   57.5109   32.2681   47.7509 H   0  0  0  0  0  0  0  0  0  0  0  0
  1  2  1  0
  2  3  2  0
  3  4  1  0
  4  5  2  0
  4  6  1  0
  6  7  1  0
  6  8  1  0
  8  9  2  0
  9 10  1  0
  9 11  1  0
 11 12  1  0
 11 13  2  0
 13 14  1  0
 13 15  1  0
 15 16  1  0
 15 17  2  0
 17 18  1  0
  2 19  1  0
 19 20  2  0
 20 21  1  0
 20 22  1  0
 22 23  1  0
 22 24  2  0
 24 25  1  0
 24 26  1  0
 26 27  1  0
 26 28  2  0
 28 29  1  0
 17  8  1  0
 28 19  1  0
M  END
>  <UniqueID>  (3) 
3

>  <SMILES>  (3) 
Fc1cccc(/C=N/C(=S)Nc2ccc(Br)cc2)c1

>  <Energy>  (3) 
33.67571513060673

>  <Genealogy>  (3) 
Fc1cccc(/C=N/C(=S)Nc2ccc(Br)cc2)c1 (cis-trans isomerization)
Fc1cccc(/C=N/C(=S)Nc2ccc(Br)cc2)c1 (3D coordinates assigned)
Fc1cccc(/C=N/C(=S)Nc2ccc(Br)cc2)c1 (optimized conformer: 33.67571513060673 kcal/mol)

>  <smiles>  (3) 
Fc1cccc(C=NC(=S)Nc2ccc(Br)cc2)c1

>  <score_type>  (3) 
oracle

>  <origin>  (3) 
adg

>  <m_score__min__energy>  (3) 
-7.1299999999999999

>  <m_primary>  (3) 
energy

$$$$
3:0
     RDKit          3D

 43 44  0  0  0  0  0  0  0  0999 V2000
   65.8880   32.1660   50.1460 C   0  0  0  0  0  0  0  0  0  0  0  0
   65.1150   33.3540   50.0050 O   0  0  0  0  0  0  0  0  0  0  0  0
   63.9430   33.4510   49.2410 C   0  0  0  0  0  0  0  0  0  0  0  0
   62.7400   33.9560   49.7650 C   0  0  0  0  0  0  0  0  0  0  0  0
   61.5970   34.0320   48.9620 C   0  0  0  0  0  0  0  0  0  0  0  0
   61.6300   33.5980   47.6260 C   0  0  0  0  0  0  0  0  0  0  0  0
   60.4070   33.6940   46.7890 C   0  0  0  0  0  0  0  0  0  0  0  0
   60.0410   34.8800   46.1380 C   0  0  0  0  0  0  0  0  0  0  0  0
   58.8920   34.9020   45.3550 C   0  0  0  0  0  0  0  0  0  0  0  0
   58.1260   33.7440   45.2270 C   0  0  0  0  0  0  0  0  0  0  0  0
   57.0910   33.7620   44.5060 O   0  0  0  0  0  0  0  0  0  0  0  0
   58.5120   32.6040   45.8800 N   0  0  0  0  0  0  0  0  0  0  0  0
   57.7600   31.3520   45.7450 C   0  0  0  0  0  0  0  0  0  0  0  0
   57.7980   30.8690   44.2890 C   0  0  0  0  0  0  0  0  0  0  0  0
   56.8970   29.6470   44.0410 C   0  0  0  0  0  0  0  0  0  0  0  0
   57.1920   28.4640   44.9690 C   0  0  0  0  0  0  0  0  0  0  0  0
   55.9490   27.8500   45.4260 N   0  0  0  0  0  0  0  0  0  0  0  0
   55.8670   26.5360   45.9850 C   0  0  0  0  0  0  0  0  0  0  0  0
   57.0600   25.8710   46.6000 C   0  0  0  0  0  0  0  0  0  0  0  0
   54.7670   25.9240   45.9520 O   0  0  0  0  0  0  0  0  0  0  0  0
   59.6230   32.5930   46.6210 N   0  0  0  0  0  0  0  0  0  0  0  0
   62.8400   33.1030   47.1050 C   0  0  0  0  0  0  0  0  0  0  0  0
   63.9810   33.0290   47.9080 C   0  0  0  0  0  0  0  0  0  0  0  0
   66.0310   31.9462   51.2143 H   0  0  0  0  0  0  0  0  0  0  0  0
   65.3622   31.3273   49.6663 H   0  0  0  0  0  0  0  0  0  0  0  0
   66.8678   32.3070   49.6663 H   0  0  0  0  0  0  0  0  0  0  0  0
   62.6974   34.2929   50.8113 H   0  0  0  0  0  0  0  0  0  0  0  0
   60.6632   34.4355   49.3806 H   0  0  0  0  0  0  0  0  0  0  0  0
   60.6569   35.7850   46.2454 H   0  0  0  0  0  0  0  0  0  0  0  0
   58.5897   35.8260   44.8405 H   0  0  0  0  0  0  0  0  0  0  0  0
   58.2090   30.5860   46.3944 H   0  0  0  0  0  0  0  0  0  0  0  0
   56.7146   31.5261   46.0396 H   0  0  0  0  0  0  0  0  0  0  0  0
   57.4634   31.6900   43.6378 H   0  0  0  0  0  0  0  0  0  0  0  0
   58.8324   30.5673   44.0677 H   0  0  0  0  0  0  0  0  0  0  0  0
   55.8505   29.9517   44.1892 H   0  0  0  0  0  0  0  0  0  0  0  0
   57.0943   29.3061   43.0139 H   0  0  0  0  0  0  0  0  0  0  0  0
   57.7862   27.7158   44.4239 H   0  0  0  0  0  0  0  0  0  0  0  0
   57.7510   28.8287   45.8434 H   0  0  0  0  0  0  0  0  0  0  0  0
   56.9801   25.9155   47.6962 H   0  0  0  0  0  0  0  0  0  0  0  0
   57.1007   24.8201   46.2777 H   0  0  0  0  0  0  0  0  0  0  0  0
   57.9753   26.3891   46.2777 H   0  0  0  0  0  0  0  0  0  0  0  0
   62.8879   32.7717   46.0572 H   0  0  0  0  0  0  0  0  0  0  0  0
   64.9182   32.6351   47.4878 H   0  0  0  0  0  0  0  0  0  0  0  0
  1  2  1  0
  2  3  1  0
  3  4  2  0
  4  5  1  0
  5  6  2  0
  6  7  1  0
  7  8  1  0
  8  9  2  0
  9 10  1  0
 10 11  2  0
 10 12  1  0
 12 13  1  0
 13 14  1  0
 14 15  1  0
 15 16  1  0
 16 17  1  0
 17 18  1  0
 18 19  1  0
 18 20  2  0
 12 21  1  0
  6 22  1  0
 22 23  2  0
 23  3  1  0
 21  7  2  0
  1 24  1  0
  1 25  1  0
  1 26  1  0
  4 27  1  0
  5 28  1  0
  8 29  1  0
  9 30  1  0
 13 31  1  0
 13 32  1  0
 14 33  1  0
 14 34  1  0
 15 35  1  0
 15 36  1  0
 16 37  1  0
 16 38  1  0
 19 39  1  0
 19 40  1  0
 19 41  1  0
 22 42  1  0
 23 43  1  0
M  CHG  1  17  -1
M  END
>  <UniqueID>  (4) 
4

>  <SMILES>  (4) 
COc1ccc(-c2ccc(=O)n(CCCC[N-]C(C)=O)n2)cc1

>  <Energy>  (4) 
38.71434622412591

>  <Genealogy>  (4) 
COc1ccc(-c2ccc(=O)n(CCCC[N-]C(C)=O)n2)cc1 (protonated)
COc1ccc(-c2ccc(=O)n(CCCC[N-]C(C)=O)n2)cc1 (3D coordinates assigned)
COc1ccc(-c2ccc(=O)n(CCCC[N-]C(C)=O)n2)cc1 (optimized conformer: 38.71434622412591 kcal/mol)

>  <smiles>  (4) 
COc1ccc(-c2ccc(=O)n(CCCCNC(C)=O)n2)cc1

>  <score_type>  (4) 
oracle

>  <origin>  (4) 
adg

>  <m_score__min__energy>  (4) 
-9.4199999999999999

>  <m_primary>  (4) 
energy

$$$$
4:0
     RDKit          3D

 65 67  0  0  0  0  0  0  0  0999 V2000
   66.0180   32.8390   50.1350 C   0  0  0  0  0  0  0  0  0  0  0  0
   65.0140   32.1800   49.3700 O   0  0  0  0  0  0  0  0  0  0  0  0
   63.7980   32.7630   48.9830 C   0  0  0  0  0  0  0  0  0  0  0  0
   63.5590   32.9490   47.6200 C   0  0  0  0  0  0  0  0  0  0  0  0
   62.3650   33.5220   47.1810 C   0  0  0  0  0  0  0  0  0  0  0  0
   61.3820   33.9180   48.1010 C   0  0  0  0  0  0  0  0  0  0  0  0
   60.1140   34.5580   47.5860 C   0  0  0  0  0  0  0  0  0  0  0  0
   59.5110   33.7480   46.5070 N   0  0  0  0  0  0  0  0  0  0  0  0
   59.3570   34.5360   45.2640 C   0  0  0  0  0  0  0  0  0  0  0  0
   58.7650   33.6610   44.1570 C   0  0  0  0  0  0  0  0  0  0  0  0
   57.3850   33.0760   44.5520 C   0  0  0  0  0  0  0  0  0  0  0  0
   57.2810   31.6010   44.2110 C   0  0  0  0  0  0  0  0  0  0  0  0
   58.2700   31.0130   43.6990 O   0  0  0  0  0  0  0  0  0  0  0  0
   56.1090   30.8290   44.5060 N   0  0  0  0  0  0  0  0  0  0  0  0
   56.0450   29.3740   44.5160 C   0  0  0  0  0  0  0  0  0  0  0  0
   57.0280   28.8290   45.5650 C   0  0  0  0  0  0  0  0  0  0  0  0
   57.4690   27.4370   45.3150 N   0  0  0  0  0  0  0  0  0  0  0  0
   56.6380   26.4490   46.0240 C   0  0  0  0  0  0  0  0  0  0  0  0
   58.9090   27.2360   45.5750 C   0  0  0  0  0  0  0  0  0  0  0  0
   59.4680   28.4100   46.3340 C   0  0  0  0  0  0  0  0  0  0  0  0
   60.2110   29.4010   45.6710 C   0  0  0  0  0  0  0  0  0  0  0  0
   60.7040   30.5010   46.3790 C   0  0  0  0  0  0  0  0  0  0  0  0
   60.4540   30.6230   47.7490 C   0  0  0  0  0  0  0  0  0  0  0  0
   59.7080   29.6450   48.4140 C   0  0  0  0  0  0  0  0  0  0  0  0
   59.3580   29.8170   50.2840 Br  0  0  0  0  0  0  0  0  0  0  0  0
   59.2130   28.5420   47.7080 C   0  0  0  0  0  0  0  0  0  0  0  0
   57.0460   33.3090   46.0370 C   0  0  0  0  0  0  0  0  0  0  0  0
   58.2580   33.0830   46.9600 C   0  0  0  0  0  0  0  0  0  0  0  0
   61.6130   33.7490   49.4830 C   0  0  0  0  0  0  0  0  0  0  0  0
   60.6320   34.1750   50.3950 O   0  0  0  0  0  0  0  0  0  0  0  0
   59.4970   33.4080   50.7840 C   0  0  0  0  0  0  0  0  0  0  0  0
   62.8220   33.1650   49.9150 C   0  0  0  0  0  0  0  0  0  0  0  0
   65.8107   32.7030   51.2067 H   0  0  0  0  0  0  0  0  0  0  0  0
   67.0023   32.4107   49.8946 H   0  0  0  0  0  0  0  0  0  0  0  0
   66.0166   33.9124   49.8946 H   0  0  0  0  0  0  0  0  0  0  0  0
   64.3184   32.6412   46.8861 H   0  0  0  0  0  0  0  0  0  0  0  0
   62.1926   33.6647   46.1040 H   0  0  0  0  0  0  0  0  0  0  0  0
   59.3946   34.6472   48.4134 H   0  0  0  0  0  0  0  0  0  0  0  0
   60.3622   35.5504   47.1816 H   0  0  0  0  0  0  0  0  0  0  0  0
   58.6860   35.3868   45.4533 H   0  0  0  0  0  0  0  0  0  0  0  0
   60.3441   34.9018   44.9448 H   0  0  0  0  0  0  0  0  0  0  0  0
   58.6453   34.2703   43.2490 H   0  0  0  0  0  0  0  0  0  0  0  0
   59.4530   32.8201   43.9853 H   0  0  0  0  0  0  0  0  0  0  0  0
   56.6417   33.6237   43.9540 H   0  0  0  0  0  0  0  0  0  0  0  0
   55.0235   29.0529   44.7679 H   0  0  0  0  0  0  0  0  0  0  0  0
   56.3145   28.9866   43.5224 H   0  0  0  0  0  0  0  0  0  0  0  0
   57.9171   29.4766   45.5746 H   0  0  0  0  0  0  0  0  0  0  0  0
   56.4950   28.8249   46.5272 H   0  0  0  0  0  0  0  0  0  0  0  0
   56.7525   26.5851   47.1095 H   0  0  0  0  0  0  0  0  0  0  0  0
   55.5831   26.5901   45.7460 H   0  0  0  0  0  0  0  0  0  0  0  0
   56.9578   25.4339   45.7460 H   0  0  0  0  0  0  0  0  0  0  0  0
   59.0469   26.3203   46.1687 H   0  0  0  0  0  0  0  0  0  0  0  0
   59.4381   27.1438   44.6150 H   0  0  0  0  0  0  0  0  0  0  0  0
   60.4053   29.3112   44.5920 H   0  0  0  0  0  0  0  0  0  0  0  0
   61.2898   31.2720   45.8571 H   0  0  0  0  0  0  0  0  0  0  0  0
   60.8443   31.4887   48.3041 H   0  0  0  0  0  0  0  0  0  0  0  0
   58.6222   27.7762   48.2319 H   0  0  0  0  0  0  0  0  0  0  0  0
   56.6962   34.3445   46.1609 H   0  0  0  0  0  0  0  0  0  0  0  0
   56.2693   32.5836   46.3208 H   0  0  0  0  0  0  0  0  0  0  0  0
   58.0060   33.4687   47.9588 H   0  0  0  0  0  0  0  0  0  0  0  0
   58.4581   32.0014   46.9548 H   0  0  0  0  0  0  0  0  0  0  0  0
   59.4395   33.3691   51.8818 H   0  0  0  0  0  0  0  0  0  0  0  0
   58.5845   33.8754   50.3853 H   0  0  0  0  0  0  0  0  0  0  0  0
   59.5903   32.3870   50.3853 H   0  0  0  0  0  0  0  0  0  0  0  0
   63.0042   33.0222   50.9904 H   0  0  0  0  0  0  0  0  0  0  0  0
  1  2  1  0
  2  3  1  0
  3  4  2  0
  4  5  1  0
  5  6  2  0
  6  7  1  0
  7  8  1  0
  8  9  1  0
  9 10  1  0
 10 11  1  0
 11 12  1  0
 12 13  2  0
 12 14  1  0
 14 15  1  0
 15 16  1  0
 16 17  1  0
 17 18  1  0
 17 19  1  0
 19 20  1  0
 20 21  2  0
 21 22  1  0
 22 23  2  0
 23 24  1  0
 24 25  1  0
 24 26  2  0
 11 27  1  0
 27 28  1  0
  6 29  1  0
 29 30  1  0
 30 31  1  0
 29 32  2  0
 32  3  1  0
 28  8  1  0
 26 20  1  0
  1 33  1  0
  1 34  1  0
  1 35  1  0
  4 36  1  0
  5 37  1  0
  7 38  1  0
  7 39  1  0
  9 40  1  0
  9 41  1  0
 10 42  1  0
 10 43  1  0
 11 44  1  0
 15 45  1  0
 15 46  1  0
 16 47  1  0
 16 48  1  0
 18 49  1  0
 18 50  1  0
 18 51  1  0
 19 52  1  0
 19 53  1  0
 21 54  1  0
 22 55  1  0
 23 56  1  0
 26 57  1  0
 27 58  1  0
 27 59  1  0
 28 60  1  0
 28 61  1  0
 31 62  1  0
 31 63  1  0
 31 64  1  0
 32 65  1  0
M  CHG  1  14  -1
M  END
>  <UniqueID>  (5) 
5

>  <SMILES>  (5) 
COc1ccc(CN2CCC(C(=O)[N-]CCN(C)Cc3cccc(Br)c3)CC2)c(OC)c1

>  <Energy>  (5) 
74.54303496061334

>  <Genealogy>  (5) 
COc1ccc(CN2CCC(C(=O)[N-]CCN(C)Cc3cccc(Br)c3)CC2)c(OC)c1 (protonated)
COc1ccc(CN2CCC(C(=O)[N-]CCN(C)Cc3cccc(Br)c3)CC2)c(OC)c1 (3D coordinates assigned)
COc1ccc(CN2CCC(C(=O)[N-]CCN(C)Cc3cccc(Br)c3)CC2)c(OC)c1 (nonaromatic ring conformer: 74.54303496061334 kcal/mol)

>  <smiles>  (5) 
COc1ccc(CN2CCC(C(=O)NCCN(C)Cc3cccc(Br)c3)CC2)c(OC)c1

>  <score_type>  (5) 
oracle

>  <origin>  (5) 
adg

>  <m_score__min__energy>  (5) 
-10.359999999999999

>  <m_primary>  (5) 
energy

$$$$
5:0
     RDKit          3D

 51 53  0  0  0  0  0  0  0  0999 V2000
   55.9810   23.6610   43.8400 C   0  0  0  0  0  0  0  0  0  0  0  0
   57.4660   23.5080   44.1700 C   0  0  0  0  0  0  0  0  0  0  0  0
   57.7150   23.1030   45.6350 C   0  0  0  0  0  0  0  0  0  0  0  0
   57.2530   24.1560   46.6520 C   0  0  0  0  0  0  0  0  0  0  0  0
   57.5480   25.5110   46.1940 N   0  0  0  0  0  0  0  0  0  0  0  0
   58.8250   26.0630   45.8650 C   0  0  0  0  0  0  0  0  0  0  0  0
   59.9180   25.4520   45.9990 O   0  0  0  0  0  0  0  0  0  0  0  0
   58.6630   27.4230   45.3640 C   0  0  0  0  0  0  0  0  0  0  0  0
   59.6070   28.3500   44.9340 C   0  0  0  0  0  0  0  0  0  0  0  0
   59.1510   29.6070   44.4990 C   0  0  0  0  0  0  0  0  0  0  0  0
   57.7650   29.9180   44.4980 C   0  0  0  0  0  0  0  0  0  0  0  0
   57.2920   31.2410   44.0380 C   0  0  0  0  0  0  0  0  0  0  0  0
   57.4850   31.6030   42.8440 O   0  0  0  0  0  0  0  0  0  0  0  0
   56.6240   32.0900   44.9310 O   0  0  0  0  0  0  0  0  0  0  0  0
   57.0390   33.4260   45.2060 C   0  0  0  0  0  0  0  0  0  0  0  0
   58.3040   33.4240   46.0090 C   0  0  0  0  0  0  0  0  0  0  0  0
   58.8110   34.5240   46.3550 O   0  0  0  0  0  0  0  0  0  0  0  0
   58.8880   32.1830   46.4340 N   0  0  0  0  0  0  0  0  0  0  0  0
   60.1810   32.0740   47.0550 C   0  0  0  0  0  0  0  0  0  0  0  0
   61.2110   32.9850   46.7550 C   0  0  0  0  0  0  0  0  0  0  0  0
   62.4800   32.8440   47.3410 C   0  0  0  0  0  0  0  0  0  0  0  0
   63.5730   33.8280   47.0430 C   0  0  0  0  0  0  0  0  0  0  0  0
   62.7140   31.7930   48.2380 C   0  0  0  0  0  0  0  0  0  0  0  0
   61.7010   30.8750   48.5250 C   0  0  0  0  0  0  0  0  0  0  0  0
   60.4440   31.0060   47.9280 C   0  0  0  0  0  0  0  0  0  0  0  0
   59.4750   30.0990   48.2160 F   0  0  0  0  0  0  0  0  0  0  0  0
   56.8340   28.9510   44.9430 C   0  0  0  0  0  0  0  0  0  0  0  0
   57.3170   27.7150   45.3680 C   0  0  0  0  0  0  0  0  0  0  0  0
   56.6100   26.5410   45.8700 C   0  0  0  0  0  0  0  0  0  0  0  0
   55.3620   26.4310   45.9920 O   0  0  0  0  0  0  0  0  0  0  0  0
   55.4022   23.7206   44.7735 H   0  0  0  0  0  0  0  0  0  0  0  0
   55.8282   24.5796   43.2545 H   0  0  0  0  0  0  0  0  0  0  0  0
   55.6441   22.7928   43.2545 H   0  0  0  0  0  0  0  0  0  0  0  0
   57.8935   22.7350   43.5145 H   0  0  0  0  0  0  0  0  0  0  0  0
   57.9421   24.4870   44.0123 H   0  0  0  0  0  0  0  0  0  0  0  0
   57.1729   22.1667   45.8337 H   0  0  0  0  0  0  0  0  0  0  0  0
   58.8024   22.9918   45.7580 H   0  0  0  0  0  0  0  0  0  0  0  0
   56.1674   24.0575   46.7998 H   0  0  0  0  0  0  0  0  0  0  0  0
   57.7946   23.9855   47.5941 H   0  0  0  0  0  0  0  0  0  0  0  0
   60.6797   28.1065   44.9343 H   0  0  0  0  0  0  0  0  0  0  0  0
   59.8766   30.3589   44.1552 H   0  0  0  0  0  0  0  0  0  0  0  0
   57.2127   33.9544   44.2570 H   0  0  0  0  0  0  0  0  0  0  0  0
   56.2511   33.9335   45.7818 H   0  0  0  0  0  0  0  0  0  0  0  0
   58.3090   31.3170   46.3530 H   0  0  0  0  0  0  0  0  0  0  0  0
   61.0210   33.8134   46.0567 H   0  0  0  0  0  0  0  0  0  0  0  0
   63.9931   34.2062   47.9866 H   0  0  0  0  0  0  0  0  0  0  0  0
   64.3645   33.3320   46.4620 H   0  0  0  0  0  0  0  0  0  0  0  0
   63.1626   34.6670   46.4620 H   0  0  0  0  0  0  0  0  0  0  0  0
   63.6986   31.6906   48.7176 H   0  0  0  0  0  0  0  0  0  0  0  0
   61.8931   30.0467   49.2228 H   0  0  0  0  0  0  0  0  0  0  0  0
   55.7559   29.1690   44.9534 H   0  0  0  0  0  0  0  0  0  0  0  0
  1  2  1  0
  2  3  1  0
  3  4  1  0
  4  5  1  0
  5  6  1  0
  6  7  2  0
  6  8  1  0
  8  9  2  0
  9 10  1  0
 10 11  2  0
 11 12  1  0
 12 13  2  0
 12 14  1  0
 14 15  1  0
 15 16  1  0
 16 17  2  0
 16 18  1  0
 18 19  1  0
 19 20  2  0
 20 21  1  0
 21 22  1  0
 21 23  2  0
 23 24  1  0
 24 25  2  0
 25 26  1  0
 11 27  1  0
 27 28  2  0
 28 29  1  0
 29 30  2  0
 29  5  1  0
 28  8  1  0
 25 19  1  0
  1 31  1  0
  1 32  1  0
  1 33  1  0
  2 34  1  0
  2 35  1  0
  3 36  1  0
  3 37  1  0
  4 38  1  0
  4 39  1  0
  9 40  1  0
 10 41  1  0
 15 42  1  0
 15 43  1  0
 18 44  1  0
 20 45  1  0
 22 46  1  0
 22 47  1  0
 22 48  1  0
 23 49  1  0
 24 50  1  0
 27 51  1  0
M  END
>  <UniqueID>  (6) 
6

>  <SMILES>  (6) 
CCCCN1C(=O)c2ccc(C(=O)OCC(=O)Nc3cc(C)ccc3F)cc2C1=O

>  <Energy>  (6) 
80.30270956930136

>  <Genealogy>  (6) 
CCCCN1C(=O)c2ccc(C(=O)OCC(=O)Nc3cc(C)ccc3F)cc2C1=O (3D coordinates assigned)
CCCCN1C(=O)c2ccc(C(=O)OCC(=O)Nc3cc(C)ccc3F)cc2C1=O (nonaromatic ring conformer: 80.30270956930136 kcal/mol)

>  <smiles>  (6) 
CCCCN1C(=O)c2ccc(C(=O)OCC(=O)Nc3cc(C)ccc3F)cc2C1=O

>  <score_type>  (6) 
oracle

>  <origin>  (6) 
adg

>  <m_score__min__energy>  (6) 
-8.5399999999999991

>  <m_primary>  (6) 
energy

$$$$
6:0
     RDKit          3D

 43 45  0  0  0  0  0  0  0  0999 V2000
   63.3700   33.8400   46.1540 C   0  0  0  0  0  0  0  0  0  0  0  0
   62.9670   33.0050   47.2340 O   0  0  0  0  0  0  0  0  0  0  0  0
   63.2410   33.2590   48.5860 C   0  0  0  0  0  0  0  0  0  0  0  0
   64.5340   33.0910   49.1220 C   0  0  0  0  0  0  0  0  0  0  0  0
   64.7890   33.3820   50.4630 C   0  0  0  0  0  0  0  0  0  0  0  0
   63.7630   33.8470   51.2860 C   0  0  0  0  0  0  0  0  0  0  0  0
   64.0150   34.1350   52.5860 F   0  0  0  0  0  0  0  0  0  0  0  0
   62.4760   34.0120   50.7710 C   0  0  0  0  0  0  0  0  0  0  0  0
   62.1990   33.7060   49.4290 C   0  0  0  0  0  0  0  0  0  0  0  0
   60.8120   33.9000   48.9350 C   0  0  0  0  0  0  0  0  0  0  0  0
   60.0100   34.5390   49.6700 O   0  0  0  0  0  0  0  0  0  0  0  0
   60.3270   33.3600   47.6750 N   0  0  0  0  0  0  0  0  0  0  0  0
   59.7050   34.3870   46.8080 C   0  0  0  0  0  0  0  0  0  0  0  0
   59.3360   33.7780   45.4520 C   0  0  0  0  0  0  0  0  0  0  0  0
   58.5530   32.5470   45.6270 N   0  0  0  0  0  0  0  0  0  0  0  0
   57.9120   31.9470   44.4810 C   0  0  0  0  0  0  0  0  0  0  0  0
   57.1520   30.7690   44.6180 C   0  0  0  0  0  0  0  0  0  0  0  0
   56.5270   30.1960   43.5060 C   0  0  0  0  0  0  0  0  0  0  0  0
   56.6530   30.7890   42.2490 C   0  0  0  0  0  0  0  0  0  0  0  0
   57.4010   31.9580   42.1000 C   0  0  0  0  0  0  0  0  0  0  0  0
   58.0270   32.5360   43.2080 C   0  0  0  0  0  0  0  0  0  0  0  0
   58.2390   32.0780   46.9840 C   0  0  0  0  0  0  0  0  0  0  0  0
   59.4770   32.1560   47.8980 C   0  0  0  0  0  0  0  0  0  0  0  0
   63.8158   34.7638   46.5513 H   0  0  0  0  0  0  0  0  0  0  0  0
   64.1117   33.3104   45.5380 H   0  0  0  0  0  0  0  0  0  0  0  0
   62.4939   34.0911   45.5380 H   0  0  0  0  0  0  0  0  0  0  0  0
   65.3485   32.7276   48.4782 H   0  0  0  0  0  0  0  0  0  0  0  0
   65.8009   33.2444   50.8718 H   0  0  0  0  0  0  0  0  0  0  0  0
   61.6719   34.3850   51.4223 H   0  0  0  0  0  0  0  0  0  0  0  0
   61.1830   33.0400   47.1610 H   0  0  0  0  0  0  0  0  0  0  0  0
   58.7959   34.7711   47.2938 H   0  0  0  0  0  0  0  0  0  0  0  0
   60.4209   35.2074   46.6513 H   0  0  0  0  0  0  0  0  0  0  0  0
   58.7410   34.5053   44.8802 H   0  0  0  0  0  0  0  0  0  0  0  0
   60.2627   33.5320   44.9128 H   0  0  0  0  0  0  0  0  0  0  0  0
   57.0495   30.2967   45.6061 H   0  0  0  0  0  0  0  0  0  0  0  0
   55.9350   29.2762   43.6223 H   0  0  0  0  0  0  0  0  0  0  0  0
   56.1626   30.3350   41.3753 H   0  0  0  0  0  0  0  0  0  0  0  0
   57.4980   32.4252   41.1089 H   0  0  0  0  0  0  0  0  0  0  0  0
   58.6139   33.4581   43.0841 H   0  0  0  0  0  0  0  0  0  0  0  0
   57.4409   32.7066   47.4057 H   0  0  0  0  0  0  0  0  0  0  0  0
   57.9140   31.0288   46.9246 H   0  0  0  0  0  0  0  0  0  0  0  0
   59.1340   32.1648   48.9431 H   0  0  0  0  0  0  0  0  0  0  0  0
   60.1002   31.2811   47.6609 H   0  0  0  0  0  0  0  0  0  0  0  0
  1  2  1  0
  2  3  1  0
  3  4  2  0
  4  5  1  0
  5  6  2  0
  6  7  1  0
  6  8  1  0
  8  9  2  0
  9 10  1  0
 10 11  2  0
 10 12  1  0
 12 13  1  0
 13 14  1  0
 14 15  1  0
 15 16  1  0
 16 17  2  0
 17 18  1  0
 18 19  2  0
 19 20  1  0
 20 21  2  0
 15 22  1  0
 22 23  1  0
  9  3  1  0
 23 12  1  0
 21 16  1  0
  1 24  1  0
  1 25  1  0
  1 26  1  0
  4 27  1  0
  5 28  1  0
  8 29  1  0
 12 30  1  0
 13 31  1  0
 13 32  1  0
 14 33  1  0
 14 34  1  0
 17 35  1  0
 18 36  1  0
 19 37  1  0
 20 38  1  0
 21 39  1  0
 22 40  1  0
 22 41  1  0
 23 42  1  0
 23 43  1  0
M  CHG  1  12   1
M  END
>  <UniqueID>  (7) 
7

>  <SMILES>  (7) 
COc1ccc(F)cc1C(=O)[NH+]1CCN(c2ccccc2)CC1

>  <Energy>  (7) 
64.12014767156192

>  <Genealogy>  (7) 
COc1ccc(F)cc1C(=O)[NH+]1CCN(c2ccccc2)CC1 (protonated)
COc1ccc(F)cc1C(=O)[NH+]1CCN(c2ccccc2)CC1 (3D coordinates assigned)
COc1ccc(F)cc1C(=O)[NH+]1CCN(c2ccccc2)CC1 (nonaromatic ring conformer: 64.12014767156192 kcal/mol)

>  <smiles>  (7) 
COc1ccc(F)cc1C(=O)N1CCN(c2ccccc2)CC1

>  <score_type>  (7) 
oracle

>  <origin>  (7) 
adg

>  <m_score__min__energy>  (7) 
-5.0599999999999996

>  <m_primary>  (7) 
energy

$$$$
7:0
     RDKit          3D

 58 59  0  0  0  0  0  0  0  0999 V2000
   59.6020   30.0720   48.9770 C   0  0  0  0  0  0  0  0  0  0  0  0
   59.6600   28.8950   48.0270 C   0  0  0  0  0  0  0  0  0  0  0  0
   58.4730   28.7190   47.3420 O   0  0  0  0  0  0  0  0  0  0  0  0
   58.4290   27.6150   46.5220 C   0  0  0  0  0  0  0  0  0  0  0  0
   57.2350   27.6810   45.6240 C   0  0  0  0  0  0  0  0  0  0  0  0
   57.5570   28.3970   44.3120 C   0  0  0  0  0  0  0  0  0  0  0  0
   56.8310   29.6340   44.3000 N   0  0  0  0  0  0  0  0  0  0  0  0
   55.5150   29.7200   43.7030 C   0  0  0  0  0  0  0  0  0  0  0  0
   57.4020   30.8000   44.8780 C   0  0  0  0  0  0  0  0  0  0  0  0
   56.7830   31.9920   44.8040 N   0  0  0  0  0  0  0  0  0  0  0  0
   57.2770   33.1230   45.3330 C   0  0  0  0  0  0  0  0  0  0  0  0
   56.6450   34.2310   45.2290 N   0  0  0  0  0  0  0  0  0  0  0  0
   58.4830   33.0960   45.9940 C   0  0  0  0  0  0  0  0  0  0  0  0
   59.1290   34.2560   46.6190 C   0  0  0  0  0  0  0  0  0  0  0  0
   60.0830   33.9280   47.6970 C   0  0  0  0  0  0  0  0  0  0  0  0
   59.5520   33.8590   48.9900 C   0  0  0  0  0  0  0  0  0  0  0  0
   60.3870   33.5550   50.0620 C   0  0  0  0  0  0  0  0  0  0  0  0
   59.6630   33.4570   51.8370 Br  0  0  0  0  0  0  0  0  0  0  0  0
   61.7350   33.3230   49.8530 C   0  0  0  0  0  0  0  0  0  0  0  0
   62.5530   33.0230   50.9290 O   0  0  0  0  0  0  0  0  0  0  0  0
   63.2270   33.9380   51.7360 C   0  0  0  0  0  0  0  0  0  0  0  0
   64.7400   33.8760   51.5200 C   0  0  0  0  0  0  0  0  0  0  0  0
   65.3110   32.5650   52.0400 C   0  0  0  0  0  0  0  0  0  0  0  0
   64.4740   31.5010   51.4980 N   0  0  0  0  0  0  0  0  0  0  0  0
   62.2480   33.3950   48.5750 C   0  0  0  0  0  0  0  0  0  0  0  0
   64.1080   33.0820   48.2280 Br  0  0  0  0  0  0  0  0  0  0  0  0
   61.4260   33.6950   47.5050 C   0  0  0  0  0  0  0  0  0  0  0  0
   59.1260   31.8670   46.0740 C   0  0  0  0  0  0  0  0  0  0  0  0
   58.5820   30.7630   45.5220 N   0  0  0  0  0  0  0  0  0  0  0  0
   59.6200   29.7070   50.0145 H   0  0  0  0  0  0  0  0  0  0  0  0
   60.4690   30.7264   48.8034 H   0  0  0  0  0  0  0  0  0  0  0  0
   58.6749   30.6380   48.8034 H   0  0  0  0  0  0  0  0  0  0  0  0
   60.4670   29.0663   47.2994 H   0  0  0  0  0  0  0  0  0  0  0  0
   59.8441   27.9887   48.6226 H   0  0  0  0  0  0  0  0  0  0  0  0
   59.3420   27.5817   45.9094 H   0  0  0  0  0  0  0  0  0  0  0  0
   58.3585   26.7106   47.1441 H   0  0  0  0  0  0  0  0  0  0  0  0
   56.9001   26.6576   45.3994 H   0  0  0  0  0  0  0  0  0  0  0  0
   56.4464   28.2476   46.1408 H   0  0  0  0  0  0  0  0  0  0  0  0
   58.6370   28.5960   44.2492 H   0  0  0  0  0  0  0  0  0  0  0  0
   57.2696   27.7735   43.4525 H   0  0  0  0  0  0  0  0  0  0  0  0
   54.7549   29.7697   44.4966 H   0  0  0  0  0  0  0  0  0  0  0  0
   55.4536   30.6241   43.0794 H   0  0  0  0  0  0  0  0  0  0  0  0
   55.3365   28.8316   43.0794 H   0  0  0  0  0  0  0  0  0  0  0  0
   55.9520   34.5710   45.9290 H   0  0  0  0  0  0  0  0  0  0  0  0
   59.6723   34.8073   45.8374 H   0  0  0  0  0  0  0  0  0  0  0  0
   58.3248   34.8437   47.0858 H   0  0  0  0  0  0  0  0  0  0  0  0
   58.4808   34.0439   49.1585 H   0  0  0  0  0  0  0  0  0  0  0  0
   62.8740   34.9520   51.4968 H   0  0  0  0  0  0  0  0  0  0  0  0
   63.0201   33.6861   52.7866 H   0  0  0  0  0  0  0  0  0  0  0  0
   64.9537   33.9600   50.4442 H   0  0  0  0  0  0  0  0  0  0  0  0
   65.2073   34.7053   52.0712 H   0  0  0  0  0  0  0  0  0  0  0  0
   66.3495   32.4417   51.6990 H   0  0  0  0  0  0  0  0  0  0  0  0
   65.3165   32.5436   53.1398 H   0  0  0  0  0  0  0  0  0  0  0  0
   63.5530   31.4180   51.9820 H   0  0  0  0  0  0  0  0  0  0  0  0
   64.2570   31.7250   50.4840 H   0  0  0  0  0  0  0  0  0  0  0  0
   61.8489   33.7480   46.4909 H   0  0  0  0  0  0  0  0  0  0  0  0
   60.0921   31.7932   46.5947 H   0  0  0  0  0  0  0  0  0  0  0  0
   59.1250   29.8740   45.6230 H   0  0  0  0  0  0  0  0  0  0  0  0
  1  2  1  0
  2  3  1  0
  3  4  1  0
  4  5  1  0
  5  6  1  0
  6  7  1  0
  7  8  1  0
  7  9  1  0
  9 10  2  0
 10 11  1  0
 11 12  2  3
 11 13  1  0
 13 14  1  0
 14 15  1  0
 15 16  2  0
 16 17  1  0
 17 18  1  0
 17 19  2  0
 19 20  1  0
 20 21  1  0
 21 22  1  0
 22 23  1  0
 23 24  1  0
 19 25  1  0
 25 26  1  0
 25 27  2  0
 13 28  2  0
 28 29  1  0
 29  9  1  0
 27 15  1  0
  1 30  1  0
  1 31  1  0
  1 32  1  0
  2 33  1  0
  2 34  1  0
  4 35  1  0
  4 36  1  0
  5 37  1  0
  5 38  1  0
  6 39  1  0
  6 40  1  0
  8 41  1  0
  8 42  1  0
  8 43  1  0
 12 44  1  0
 14 45  1  0
 14 46  1  0
 16 47  1  0
 21 48  1  0
 21 49  1  0
 22 50  1  0
 22 51  1  0
 23 52  1  0
 23 53  1  0
 24 54  1  0
 24 55  1  0
 27 56  1  0
 28 57  1  0
 29 58  1  0
M  END
>  <smiles>  (8) 
CCOCCCN(C)c1nc(=N)c(Cc2cc(Br)c(OCCCN)c(Br)c2)c[nH]1

>  <score_type>  (8) 
oracle

>  <origin>  (8) 
adg

>  <m_score__min__energy>  (8) 
-8.2200000000000006

>  <m_primary>  (8) 
energy

$$$$
8:0
     RDKit          3D

 39 41  0  0  0  0  0  0  0  0999 V2000
   55.5870   29.7430   43.6640 C   0  0  0  0  0  0  0  0  0  0  0  0
   55.5260   29.0250   44.8780 O   0  0  0  0  0  0  0  0  0  0  0  0
   56.7710   28.4130   45.1470 C   0  0  0  0  0  0  0  0  0  0  0  0
   57.6650   29.3560   45.8900 C   0  0  0  0  0  0  0  0  0  0  0  0
   58.5250   29.0260   46.9090 C   0  0  0  0  0  0  0  0  0  0  0  0
   59.1560   30.2120   47.2330 C   0  0  0  0  0  0  0  0  0  0  0  0
   58.6680   31.2050   46.4320 N   0  0  0  0  0  0  0  0  0  0  0  0
   57.7740   30.6640   45.6130 N   0  0  0  0  0  0  0  0  0  0  0  0
   59.0220   32.6070   46.3170 C   0  0  0  0  0  0  0  0  0  0  0  0
   58.6690   33.2870   45.1280 C   0  0  0  0  0  0  0  0  0  0  0  0
   58.9630   34.6380   44.9500 C   0  0  0  0  0  0  0  0  0  0  0  0
   59.6120   35.3480   45.9540 C   0  0  0  0  0  0  0  0  0  0  0  0
   59.9720   34.7060   47.1360 C   0  0  0  0  0  0  0  0  0  0  0  0
   59.6940   33.3380   47.3310 C   0  0  0  0  0  0  0  0  0  0  0  0
   60.1090   32.7170   48.6350 C   0  0  0  0  0  0  0  0  0  0  0  0
   60.9260   31.5020   48.4660 N   0  0  0  0  0  0  0  0  0  0  0  0
   61.9910   31.5470   47.4370 C   0  0  0  0  0  0  0  0  0  0  0  0
   63.0720   32.5700   47.8000 C   0  0  0  0  0  0  0  0  0  0  0  0
   63.8570   32.8660   46.6770 O   0  0  0  0  0  0  0  0  0  0  0  0
   60.1030   30.2900   48.4040 C   0  0  0  0  0  0  0  0  0  0  0  0
   55.6783   30.8181   43.8781 H   0  0  0  0  0  0  0  0  0  0  0  0
   56.4600   29.4091   43.0840 H   0  0  0  0  0  0  0  0  0  0  0  0
   54.6702   29.5612   43.0840 H   0  0  0  0  0  0  0  0  0  0  0  0
   56.6080   27.5118   45.7563 H   0  0  0  0  0  0  0  0  0  0  0  0
   57.2496   28.1429   44.1941 H   0  0  0  0  0  0  0  0  0  0  0  0
   58.6776   28.0370   47.3658 H   0  0  0  0  0  0  0  0  0  0  0  0
   58.1517   32.7383   44.3271 H   0  0  0  0  0  0  0  0  0  0  0  0
   58.6812   35.1429   44.0142 H   0  0  0  0  0  0  0  0  0  0  0  0
   59.8406   36.4149   45.8148 H   0  0  0  0  0  0  0  0  0  0  0  0
   60.4805   35.2744   47.9287 H   0  0  0  0  0  0  0  0  0  0  0  0
   60.6939   33.4552   49.2032 H   0  0  0  0  0  0  0  0  0  0  0  0
   59.1904   32.4221   49.1634 H   0  0  0  0  0  0  0  0  0  0  0  0
   62.4524   30.5518   47.3549 H   0  0  0  0  0  0  0  0  0  0  0  0
   61.5374   31.8454   46.4803 H   0  0  0  0  0  0  0  0  0  0  0  0
   62.5928   33.4919   48.1612 H   0  0  0  0  0  0  0  0  0  0  0  0
   63.7156   32.1476   48.5858 H   0  0  0  0  0  0  0  0  0  0  0  0
   64.6850   32.3230   46.7600 H   0  0  0  0  0  0  0  0  0  0  0  0
   60.7783   29.4232   48.3530 H   0  0  0  0  0  0  0  0  0  0  0  0
   59.4717   30.3052   49.3047 H   0  0  0  0  0  0  0  0  0  0  0  0
  1  2  1  0
  2  3  1  0
  3  4  1  0
  4  5  1  0
  5  6  2  0
  6  7  1  0
  7  8  1  0
  7  9  1  0
  9 10  2  0
 10 11  1  0
 11 12  2  0
 12 13  1  0
 13 14  2  0
 14 15  1  0
 15 16  1  0
 16 17  1  0
 17 18  1  0
 18 19  1  0
 16 20  1  0
  8  4  2  0
 14  9  1  0
 20  6  1  0
  1 21  1  0
  1 22  1  0
  1 23  1  0
  3 24  1  0
  3 25  1  0
  5 26  1  0
 10 27  1  0
 11 28  1  0
 12 29  1  0
 13 30  1  0
 15 31  1  0
 15 32  1  0
 17 33  1  0
 17 34  1  0
 18 35  1  0
 18 36  1  0
 19 37  1  0
 20 38  1  0
 20 39  1  0
M  END
>  <UniqueID>  (9) 
8

>  <SMILES>  (9) 
COCc1cc2n(n1)-c1ccccc1CN(CCO)C2

>  <Energy>  (9) 
88.98763107518894

>  <Genealogy>  (9) 
COCc1cc2n(n1)-c1ccccc1CN(CCO)C2 (3D coordinates assigned)
COCc1cc2n(n1)-c1ccccc1CN(CCO)C2 (nonaromatic ring conformer: 88.98763107518894 kcal/mol)

>  <smiles>  (9) 
COCc1cc2n(n1)-c1ccccc1CN(CCO)C2

>  <score_type>  (9) 
oracle

>  <origin>  (9) 
adg

>  <m_score__min__energy>  (9) 
-7.2199999999999998

>  <m_primary>  (9) 
energy

$$$$
9:0
     RDKit          3D

 34 35  0  0  0  0  0  0  0  0999 V2000
   57.7230   32.0950   42.2080 C   0  0  0  0  0  0  0  0  0  0  0  0
   57.9330   32.3210   43.6810 C   0  0  0  0  0  0  0  0  0  0  0  0
   58.3270   33.5910   44.1360 C   0  0  0  0  0  0  0  0  0  0  0  0
   58.4690   33.8390   45.5020 C   0  0  0  0  0  0  0  0  0  0  0  0
   58.1850   32.8360   46.4280 C   0  0  0  0  0  0  0  0  0  0  0  0
   57.7740   31.5750   45.9900 C   0  0  0  0  0  0  0  0  0  0  0  0
   57.6810   31.2940   44.6150 C   0  0  0  0  0  0  0  0  0  0  0  0
   57.2420   30.0070   44.1540 N   0  0  0  0  0  0  0  0  0  0  0  0
   56.3730   29.0880   44.8300 C   0  0  0  0  0  0  0  0  0  0  0  0
   55.1390   29.3320   44.8530 O   0  0  0  0  0  0  0  0  0  0  0  0
   56.8570   27.7800   45.3950 C   0  0  0  0  0  0  0  0  0  0  0  0
   55.7410   27.0430   45.9790 N   0  0  0  0  0  0  0  0  0  0  0  0
   55.3700   25.6950   45.6580 C   0  0  0  0  0  0  0  0  0  0  0  0
   54.1540   25.3740   45.7210 O   0  0  0  0  0  0  0  0  0  0  0  0
   56.3620   24.6690   45.2710 C   0  0  0  0  0  0  0  0  0  0  0  0
   57.5850   24.5850   45.9570 C   0  0  0  0  0  0  0  0  0  0  0  0
   58.5420   23.6370   45.5820 C   0  0  0  0  0  0  0  0  0  0  0  0
   58.2920   22.7750   44.5120 C   0  0  0  0  0  0  0  0  0  0  0  0
   59.2160   21.8490   44.1550 F   0  0  0  0  0  0  0  0  0  0  0  0
   57.0910   22.8710   43.8050 C   0  0  0  0  0  0  0  0  0  0  0  0
   56.1350   23.8230   44.1720 C   0  0  0  0  0  0  0  0  0  0  0  0
   56.9809   31.2963   42.0617 H   0  0  0  0  0  0  0  0  0  0  0  0
   57.3594   33.0231   41.7428 H   0  0  0  0  0  0  0  0  0  0  0  0
   58.6753   31.8004   41.7428 H   0  0  0  0  0  0  0  0  0  0  0  0
   58.5246   34.3944   43.4111 H   0  0  0  0  0  0  0  0  0  0  0  0
   58.8055   34.8272   45.8487 H   0  0  0  0  0  0  0  0  0  0  0  0
   58.2847   33.0380   47.5047 H   0  0  0  0  0  0  0  0  0  0  0  0
   57.5214   30.7967   46.7251 H   0  0  0  0  0  0  0  0  0  0  0  0
   57.3077   27.1805   44.5903 H   0  0  0  0  0  0  0  0  0  0  0  0
   57.6050   27.9798   46.1764 H   0  0  0  0  0  0  0  0  0  0  0  0
   57.7909   25.2687   46.7937 H   0  0  0  0  0  0  0  0  0  0  0  0
   59.4931   23.5701   46.1305 H   0  0  0  0  0  0  0  0  0  0  0  0
   56.8971   22.1964   42.9580 H   0  0  0  0  0  0  0  0  0  0  0  0
   55.2008   23.9102   43.5978 H   0  0  0  0  0  0  0  0  0  0  0  0
  1  2  1  0
  2  3  2  0
  3  4  1  0
  4  5  2  0
  5  6  1  0
  6  7  2  0
  7  8  1  0
  8  9  1  0
  9 10  2  0
  9 11  1  0
 11 12  1  0
 12 13  1  0
 13 14  2  0
 13 15  1  0
 15 16  2  0
 16 17  1  0
 17 18  2  0
 18 19  1  0
 18 20  1  0
 20 21  2  0
  7  2  1  0
 21 15  1  0
  1 22  1  0
  1 23  1  0
  1 24  1  0
  3 25  1  0
  4 26  1  0
  5 27  1  0
  6 28  1  0
 11 29  1  0
 11 30  1  0
 16 31  1  0
 17 32  1  0
 20 33  1  0
 21 34  1  0
M  CHG  2   8  -1  12  -1
M  END
>  <UniqueID>  (10) 
9

>  <SMILES>  (10) 
Cc1ccccc1[N-]C(=O)C[N-]C(=O)c1ccc(F)cc1

>  <Energy>  (10) 
39.24861099381331

>  <Genealogy>  (10) 
Cc1ccccc1[N-]C(=O)C[N-]C(=O)c1ccc(F)cc1 (protonated)
Cc1ccccc1[N-]C(=O)C[N-]C(=O)c1ccc(F)cc1 (3D coordinates assigned)
Cc1ccccc1[N-]C(=O)C[N-]C(=O)c1ccc(F)cc1 (optimized conformer: 39.24861099381331 kcal/mol)

>  <smiles>  (10) 
Cc1ccccc1NC(=O)CNC(=O)c1ccc(F)cc1

>  <score_type>  (10) 
oracle

>  <origin>  (10) 
adg

>  <m_score__min__energy>  (10) 
-10.85

>  <m_primary>  (10) 
energy

$$$$
10:0
     RDKit          3D

 52 55  0  0  0  0  0  0  0  0999 V2000
   56.6270   27.0250   45.6820 C   0  0  0  0  0  0  0  0  0  0  0  0
   55.9320   28.1890   45.2500 O   0  0  0  0  0  0  0  0  0  0  0  0
   56.5560   29.3660   44.8070 C   0  0  0  0  0  0  0  0  0  0  0  0
   57.5910   29.9000   45.5820 C   0  0  0  0  0  0  0  0  0  0  0  0
   58.2390   31.0740   45.1880 C   0  0  0  0  0  0  0  0  0  0  0  0
   57.8430   31.7470   44.0210 C   0  0  0  0  0  0  0  0  0  0  0  0
   58.5270   33.0290   43.6010 C   0  0  0  0  0  0  0  0  0  0  0  0
   58.1740   34.2030   44.4320 N   0  0  0  0  0  0  0  0  0  0  0  0
   56.9110   34.0970   45.2030 C   0  0  0  0  0  0  0  0  0  0  0  0
   57.0660   33.3970   46.5730 C   0  0  0  0  0  0  0  0  0  0  0  0
   58.3780   33.6460   47.1600 N   0  0  0  0  0  0  0  0  0  0  0  0
   58.7720   33.2260   48.3500 N   0  0  0  0  0  0  0  0  0  0  0  0
   60.0620   33.5850   48.5120 C   0  0  0  0  0  0  0  0  0  0  0  0
   60.8830   33.2550   49.7200 C   0  0  0  0  0  0  0  0  0  0  0  0
   60.1430   32.3840   50.6280 N   0  0  0  0  0  0  0  0  0  0  0  0
   59.3870   31.2260   50.2510 C   0  0  0  0  0  0  0  0  0  0  0  0
   58.1510   31.3520   50.0450 O   0  0  0  0  0  0  0  0  0  0  0  0
   60.0110   29.8630   50.1240 C   0  0  0  0  0  0  0  0  0  0  0  0
   60.2290   29.5040   48.6880 C   0  0  0  0  0  0  0  0  0  0  0  0
   60.7920   30.3280   47.7200 C   0  0  0  0  0  0  0  0  0  0  0  0
   60.8300   29.7390   46.4510 C   0  0  0  0  0  0  0  0  0  0  0  0
   60.2890   28.4610   46.4110 C   0  0  0  0  0  0  0  0  0  0  0  0
   59.7620   28.0620   47.9570 S   0  0  0  0  0  0  0  0  0  0  0  0
   60.5080   34.2400   47.3740 C   0  0  0  0  0  0  0  0  0  0  0  0
   59.4050   34.2450   46.5420 C   0  0  0  0  0  0  0  0  0  0  0  0
   59.2930   34.8220   45.1720 C   0  0  0  0  0  0  0  0  0  0  0  0
   56.8270   31.1940   43.2260 C   0  0  0  0  0  0  0  0  0  0  0  0
   56.1800   30.0180   43.6180 C   0  0  0  0  0  0  0  0  0  0  0  0
   56.6447   26.9954   46.7815 H   0  0  0  0  0  0  0  0  0  0  0  0
   56.1157   26.1294   45.2993 H   0  0  0  0  0  0  0  0  0  0  0  0
   57.6580   27.0503   45.2993 H   0  0  0  0  0  0  0  0  0  0  0  0
   57.8971   29.3921   46.5085 H   0  0  0  0  0  0  0  0  0  0  0  0
   59.0643   31.4732   45.7959 H   0  0  0  0  0  0  0  0  0  0  0  0
   59.6146   32.8765   43.6628 H   0  0  0  0  0  0  0  0  0  0  0  0
   58.1864   33.2501   42.5787 H   0  0  0  0  0  0  0  0  0  0  0  0
   56.5250   35.1125   45.3754 H   0  0  0  0  0  0  0  0  0  0  0  0
   56.2251   33.4782   44.6058 H   0  0  0  0  0  0  0  0  0  0  0  0
   56.2918   33.7757   47.2566 H   0  0  0  0  0  0  0  0  0  0  0  0
   56.9592   32.3131   46.4186 H   0  0  0  0  0  0  0  0  0  0  0  0
   58.1780   32.6940   49.0240 H   0  0  0  0  0  0  0  0  0  0  0  0
   61.8040   32.7448   49.4016 H   0  0  0  0  0  0  0  0  0  0  0  0
   61.1254   34.1894   50.2474 H   0  0  0  0  0  0  0  0  0  0  0  0
   60.9791   29.8607   50.6462 H   0  0  0  0  0  0  0  0  0  0  0  0
   59.3302   29.1233   50.5704 H   0  0  0  0  0  0  0  0  0  0  0  0
   61.1691   31.3397   47.9301 H   0  0  0  0  0  0  0  0  0  0  0  0
   61.2496   30.2420   45.5673 H   0  0  0  0  0  0  0  0  0  0  0  0
   60.2174   27.8194   45.5204 H   0  0  0  0  0  0  0  0  0  0  0  0
   61.5067   34.6580   47.1792 H   0  0  0  0  0  0  0  0  0  0  0  0
   59.1183   35.9052   45.2501 H   0  0  0  0  0  0  0  0  0  0  0  0
   60.2282   34.6232   44.6281 H   0  0  0  0  0  0  0  0  0  0  0  0
   56.5376   31.6895   42.2875 H   0  0  0  0  0  0  0  0  0  0  0  0
   55.3748   29.6013   42.9951 H   0  0  0  0  0  0  0  0  0  0  0  0
  1  2  1  0
  2  3  1  0
  3  4  2  0
  4  5  1  0
  5  6  2  0
  6  7  1  0
  7  8  1  0
  8  9  1  0
  9 10  1  0
 10 11  1  0
 11 12  1  0
 12 13  2  0
 13 14  1  0
 14 15  1  0
 15 16  1  0
 16 17  2  0
 16 18  1  0
 18 19  1  0
 19 20  2  0
 20 21  1  0
 21 22  2  0
 22 23  1  0
 13 24  1  0
 24 25  2  0
 25 26  1  0
  6 27  1  0
 27 28  2  0
 28  3  1  0
 26  8  1  0
 25 11  1  0
 23 19  1  0
  1 29  1  0
  1 30  1  0
  1 31  1  0
  4 32  1  0
  5 33  1  0
  7 34  1  0
  7 35  1  0
  9 36  1  0
  9 37  1  0
 10 38  1  0
 10 39  1  0
 12 40  1  0
 14 41  1  0
 14 42  1  0
 18 43  1  0
 18 44  1  0
 20 45  1  0
 21 46  1  0
 22 47  1  0
 24 48  1  0
 26 49  1  0
 26 50  1  0
 27 51  1  0
 28 52  1  0
M  CHG  2  12   1  15  -1
M  END
>  <UniqueID>  (11) 
10

>  <SMILES>  (11) 
COc1ccc(CN2CCn3[nH+]c(C[N-]C(=O)Cc4cccs4)cc3C2)cc1

>  <Energy>  (11) 
114.337275063221

>  <Genealogy>  (11) 
COc1ccc(CN2CCn3[nH+]c(C[N-]C(=O)Cc4cccs4)cc3C2)cc1 (protonated)
COc1ccc(CN2CCn3[nH+]c(C[N-]C(=O)Cc4cccs4)cc3C2)cc1 (3D coordinates assigned)
COc1ccc(CN2CCn3[nH+]c(C[N-]C(=O)Cc4cccs4)cc3C2)cc1 (nonaromatic ring conformer: 114.337275063221 kcal/mol)

>  <smiles>  (11) 
COc1ccc(CN2CCn3nc(CNC(=O)Cc4cccs4)cc3C2)cc1

>  <score_type>  (11) 
oracle

>  <origin>  (11) 
adg

>  <m_score__min__energy>  (11) 
-8.1099999999999994

>  <m_primary>  (11) 
energy

$$$$
11:0
     RDKit          3D

 27 28  0  0  0  0  0  0  0  0999 V2000
   59.2750   33.1140   49.5270 C   0  0  0  0  0  0  0  0  0  0  0  0
   58.9780   33.0160   48.0650 C   0  0  0  0  0  0  0  0  0  0  0  0
   59.2850   34.0950   47.2050 C   0  0  0  0  0  0  0  0  0  0  0  0
   58.9870   33.9820   45.8350 C   0  0  0  0  0  0  0  0  0  0  0  0
   59.2530   35.1070   44.8820 C   0  0  0  0  0  0  0  0  0  0  0  0
   58.3910   32.8340   45.4210 N   0  0  0  0  0  0  0  0  0  0  0  0
   57.9930   32.5110   44.2060 N   0  0  0  0  0  0  0  0  0  0  0  0
   57.4660   31.2690   44.3420 C   0  0  0  0  0  0  0  0  0  0  0  0
   56.8410   30.5160   43.2090 C   0  0  0  0  0  0  0  0  0  0  0  0
   55.4830   29.9310   43.6050 C   0  0  0  0  0  0  0  0  0  0  0  0
   55.5430   29.3290   44.9350 N   0  0  0  0  0  0  0  0  0  0  0  0
   57.5040   30.8000   45.6190 N   0  0  0  0  0  0  0  0  0  0  0  0
   58.1010   31.8270   46.2450 C   0  0  0  0  0  0  0  0  0  0  0  0
   58.3800   31.8900   47.5690 N   0  0  0  0  0  0  0  0  0  0  0  0
   58.3848   32.8203   50.1025 H   0  0  0  0  0  0  0  0  0  0  0  0
   60.1108   32.4440   49.7771 H   0  0  0  0  0  0  0  0  0  0  0  0
   59.5479   34.1498   49.7771 H   0  0  0  0  0  0  0  0  0  0  0  0
   59.7501   35.0096   47.6013 H   0  0  0  0  0  0  0  0  0  0  0  0
   59.4699   36.0243   45.4490 H   0  0  0  0  0  0  0  0  0  0  0  0
   60.1162   34.8547   44.2486 H   0  0  0  0  0  0  0  0  0  0  0  0
   58.3682   35.2680   44.2486 H   0  0  0  0  0  0  0  0  0  0  0  0
   56.7012   31.2003   42.3592 H   0  0  0  0  0  0  0  0  0  0  0  0
   57.5085   29.6850   42.9373 H   0  0  0  0  0  0  0  0  0  0  0  0
   54.7314   30.7342   43.6067 H   0  0  0  0  0  0  0  0  0  0  0  0
   55.2104   29.1516   42.8782 H   0  0  0  0  0  0  0  0  0  0  0  0
   56.5050   28.9420   45.0780 H   0  0  0  0  0  0  0  0  0  0  0  0
   55.4310   30.0970   45.6360 H   0  0  0  0  0  0  0  0  0  0  0  0
  1  2  1  0
  2  3  1  0
  3  4  2  0
  4  5  1  0
  4  6  1  0
  6  7  1  0
  7  8  2  0
  8  9  1  0
  9 10  1  0
 10 11  1  0
  8 12  1  0
 12 13  2  0
 13 14  1  0
 14  2  2  0
 13  6  1  0
  1 15  1  0
  1 16  1  0
  1 17  1  0
  3 18  1  0
  5 19  1  0
  5 20  1  0
  5 21  1  0
  9 22  1  0
  9 23  1  0
 10 24  1  0
 10 25  1  0
 11 26  1  0
 11 27  1  0
M  END
>  <UniqueID>  (12) 
11

>  <SMILES>  (12) 
Cc1cc(C)n2nc(CCN)nc2n1

>  <Energy>  (12) 
60.068109369299044

>  <Genealogy>  (12) 
Cc1cc(C)n2nc(CCN)nc2n1 (3D coordinates assigned)
Cc1cc(C)n2nc(CCN)nc2n1 (optimized conformer: 60.068109369299044 kcal/mol)

>  <smiles>  (12) 
Cc1cc(C)n2nc(CCN)nc2n1

>  <score_type>  (12) 
oracle

>  <origin>  (12) 
adg

>  <m_score__min__energy>  (12) 
-6.4199999999999999

>  <m_primary>  (12) 
energy

$$$$
12:0
     RDKit          3D

 36 38  0  0  0  0  0  0  0  0999 V2000
   60.3940   27.5470   48.6260 C   0  0  0  0  0  0  0  0  0  0  0  0
   59.4730   28.1840   47.6670 N   0  0  0  0  0  0  0  0  0  0  0  0
   58.5610   27.4110   46.9730 C   0  0  0  0  0  0  0  0  0  0  0  0
   58.3940   25.6400   47.2630 S   0  0  0  0  0  0  0  0  0  0  0  0
   57.5260   25.2750   45.6910 C   0  0  0  0  0  0  0  0  0  0  0  0
   56.0030   25.3040   45.8420 C   0  0  0  0  0  0  0  0  0  0  0  0
   55.5180   26.6730   45.9930 N   0  0  0  0  0  0  0  0  0  0  0  0
   57.7630   27.9720   46.0220 N   0  0  0  0  0  0  0  0  0  0  0  0
   57.8570   29.2920   45.7670 C   0  0  0  0  0  0  0  0  0  0  0  0
   56.9400   30.1620   44.6640 S   0  0  0  0  0  0  0  0  0  0  0  0
   57.6810   31.6350   45.0310 C   0  0  0  0  0  0  0  0  0  0  0  0
   58.6800   31.4470   45.9910 C   0  0  0  0  0  0  0  0  0  0  0  0
   58.7510   30.1080   46.4250 C   0  0  0  0  0  0  0  0  0  0  0  0
   59.5800   29.5330   47.3990 C   0  0  0  0  0  0  0  0  0  0  0  0
   60.4140   30.2480   48.0170 O   0  0  0  0  0  0  0  0  0  0  0  0
   59.4860   32.6020   46.5340 C   0  0  0  0  0  0  0  0  0  0  0  0
   59.3870   33.8460   45.6320 C   0  0  0  0  0  0  0  0  0  0  0  0
   57.9390   34.1110   45.1900 C   0  0  0  0  0  0  0  0  0  0  0  0
   57.3950   32.9410   44.3570 C   0  0  0  0  0  0  0  0  0  0  0  0
   60.0682   27.7723   49.6522 H   0  0  0  0  0  0  0  0  0  0  0  0
   60.3896   26.4580   48.4706 H   0  0  0  0  0  0  0  0  0  0  0  0
   61.4114   27.9354   48.4706 H   0  0  0  0  0  0  0  0  0  0  0  0
   57.8207   26.0256   44.9428 H   0  0  0  0  0  0  0  0  0  0  0  0
   57.8117   24.2595   45.3794 H   0  0  0  0  0  0  0  0  0  0  0  0
   55.5443   24.8564   44.9480 H   0  0  0  0  0  0  0  0  0  0  0  0
   55.7292   24.7340   46.7420 H   0  0  0  0  0  0  0  0  0  0  0  0
   55.9350   27.0760   46.8630 H   0  0  0  0  0  0  0  0  0  0  0  0
   55.8920   27.2340   45.1940 H   0  0  0  0  0  0  0  0  0  0  0  0
   59.1101   32.8582   47.5355 H   0  0  0  0  0  0  0  0  0  0  0  0
   60.5409   32.2927   46.5733 H   0  0  0  0  0  0  0  0  0  0  0  0
   59.7561   34.7204   46.1881 H   0  0  0  0  0  0  0  0  0  0  0  0
   59.9941   33.6676   44.7322 H   0  0  0  0  0  0  0  0  0  0  0  0
   57.3087   34.2412   46.0821 H   0  0  0  0  0  0  0  0  0  0  0  0
   57.9224   35.0198   44.5705 H   0  0  0  0  0  0  0  0  0  0  0  0
   56.3074   33.0563   44.2392 H   0  0  0  0  0  0  0  0  0  0  0  0
   57.8876   32.9473   43.3735 H   0  0  0  0  0  0  0  0  0  0  0  0
  1  2  1  0
  2  3  1  0
  3  4  1  0
  4  5  1  0
  5  6  1  0
  6  7  1  0
  3  8  2  0
  8  9  1  0
  9 10  1  0
 10 11  1  0
 11 12  2  0
 12 13  1  0
 13 14  1  0
 14 15  2  0
 12 16  1  0
 16 17  1  0
 17 18  1  0
 18 19  1  0
 14  2  1  0
 13  9  2  0
 19 11  1  0
  1 20  1  0
  1 21  1  0
  1 22  1  0
  5 23  1  0
  5 24  1  0
  6 25  1  0
  6 26  1  0
  7 27  1  0
  7 28  1  0
 16 29  1  0
 16 30  1  0
 17 31  1  0
 17 32  1  0
 18 33  1  0
 18 34  1  0
 19 35  1  0
 19 36  1  0
M  END
>  <UniqueID>  (13) 
12

>  <SMILES>  (13) 
Cn1c(SCCN)nc2sc3c(c2c1=O)CCCC3

>  <Energy>  (13) 
68.38540699334035

>  <Genealogy>  (13) 
Cn1c(SCCN)nc2sc3c(c2c1=O)CCCC3 (3D coordinates assigned)
Cn1c(SCCN)nc2sc3c(c2c1=O)CCCC3 (nonaromatic ring conformer: 68.38540699334035 kcal/mol)

>  <smiles>  (13) 
Cn1c(SCCN)nc2sc3c(c2c1=O)CCCC3

>  <score_type>  (13) 
oracle

>  <origin>  (13) 
adg

>  <m_score__min__energy>  (13) 
-7.1299999999999999

>  <m_primary>  (13) 
energy

$$$$
13:0
     RDKit          3D

 42 45  0  0  0  0  0  0  0  0999 V2000
   56.2580   23.4760   43.0940 C   0  0  0  0  0  0  0  0  0  0  0  0
   56.0360   23.2950   44.5900 C   0  0  0  0  0  0  0  0  0  0  0  0
   56.1430   24.5790   45.2740 N   0  0  0  0  0  0  0  0  0  0  0  0
   57.2720   25.2140   45.6290 C   0  0  0  0  0  0  0  0  0  0  0  0
   56.8750   26.3460   46.3060 C   0  0  0  0  0  0  0  0  0  0  0  0
   57.7520   27.3820   46.8700 C   0  0  0  0  0  0  0  0  0  0  0  0
   58.7240   27.1290   47.7810 N   0  0  0  0  0  0  0  0  0  0  0  0
   59.3000   28.3370   47.9730 C   0  0  0  0  0  0  0  0  0  0  0  0
   60.3600   28.6050   48.8340 C   0  0  0  0  0  0  0  0  0  0  0  0
   60.8270   29.9280   48.9020 C   0  0  0  0  0  0  0  0  0  0  0  0
   60.2320   30.9360   48.1170 C   0  0  0  0  0  0  0  0  0  0  0  0
   60.8710   32.7320   48.2100 Br  0  0  0  0  0  0  0  0  0  0  0  0
   59.1660   30.6080   47.2670 C   0  0  0  0  0  0  0  0  0  0  0  0
   58.7490   29.3160   47.2350 N   0  0  0  0  0  0  0  0  0  0  0  0
   57.7690   28.7270   46.5380 C   0  0  0  0  0  0  0  0  0  0  0  0
   56.8830   29.4060   45.6440 N   0  0  0  0  0  0  0  0  0  0  0  0
   57.3380   29.8060   44.3110 C   0  0  0  0  0  0  0  0  0  0  0  0
   56.1760   29.9320   43.3400 C   0  0  0  0  0  0  0  0  0  0  0  0
   56.6590   30.8960   42.2670 C   0  0  0  0  0  0  0  0  0  0  0  0
   57.7830   31.7210   42.8980 C   0  0  0  0  0  0  0  0  0  0  0  0
   57.9850   31.1830   44.3110 C   0  0  0  0  0  0  0  0  0  0  0  0
   55.5270   26.3650   46.3510 N   0  0  0  0  0  0  0  0  0  0  0  0
   55.1090   25.2750   45.7240 N   0  0  0  0  0  0  0  0  0  0  0  0
   57.1009   24.1632   42.9289 H   0  0  0  0  0  0  0  0  0  0  0  0
   56.4843   22.5016   42.6364 H   0  0  0  0  0  0  0  0  0  0  0  0
   55.3492   23.8938   42.6364 H   0  0  0  0  0  0  0  0  0  0  0  0
   55.0338   22.8749   44.7604 H   0  0  0  0  0  0  0  0  0  0  0  0
   56.8018   22.6121   44.9865 H   0  0  0  0  0  0  0  0  0  0  0  0
   58.3040   24.8949   45.4213 H   0  0  0  0  0  0  0  0  0  0  0  0
   60.8162   27.8085   49.4402 H   0  0  0  0  0  0  0  0  0  0  0  0
   61.6624   30.1789   49.5722 H   0  0  0  0  0  0  0  0  0  0  0  0
   58.6818   31.3748   46.6444 H   0  0  0  0  0  0  0  0  0  0  0  0
   55.9360   29.6750   45.9970 H   0  0  0  0  0  0  0  0  0  0  0  0
   58.0506   29.0226   44.0136 H   0  0  0  0  0  0  0  0  0  0  0  0
   55.9332   28.9538   42.8993 H   0  0  0  0  0  0  0  0  0  0  0  0
   55.2619   30.2911   43.8355 H   0  0  0  0  0  0  0  0  0  0  0  0
   57.0387   30.3383   41.3982 H   0  0  0  0  0  0  0  0  0  0  0  0
   55.8410   31.5418   41.9151 H   0  0  0  0  0  0  0  0  0  0  0  0
   58.7086   31.6089   42.3142 H   0  0  0  0  0  0  0  0  0  0  0  0
   57.5254   32.7903   42.9159 H   0  0  0  0  0  0  0  0  0  0  0  0
   59.0572   31.1052   44.5443 H   0  0  0  0  0  0  0  0  0  0  0  0
   57.5420   31.8449   45.0697 H   0  0  0  0  0  0  0  0  0  0  0  0
  1  2  1  0
  2  3  1  0
  3  4  1  0
  4  5  2  0
  5  6  1  0
  6  7  1  0
  7  8  2  0
  8  9  1  0
  9 10  2  0
 10 11  1  0
 11 12  1  0
 11 13  2  0
 13 14  1  0
 14 15  1  0
 15 16  1  0
 16 17  1  0
 17 18  1  0
 18 19  1  0
 19 20  1  0
 20 21  1  0
  5 22  1  0
 22 23  2  0
 23  3  1  0
 15  6  2  0
 21 17  1  0
 14  8  1  0
  1 24  1  0
  1 25  1  0
  1 26  1  0
  2 27  1  0
  2 28  1  0
  4 29  1  0
  9 30  1  0
 10 31  1  0
 13 32  1  0
 16 33  1  0
 17 34  1  0
 18 35  1  0
 18 36  1  0
 19 37  1  0
 19 38  1  0
 20 39  1  0
 20 40  1  0
 21 41  1  0
 21 42  1  0
M  END
>  <UniqueID>  (14) 
13

>  <SMILES>  (14) 
CCn1cc(-c2nc3ccc(Br)cn3c2NC2CCCC2)nn1

>  <Energy>  (14) 
116.59852939635424

>  <Genealogy>  (14) 
CCn1cc(-c2nc3ccc(Br)cn3c2NC2CCCC2)nn1 (3D coordinates assigned)
CCn1cc(-c2nc3ccc(Br)cn3c2NC2CCCC2)nn1 (nonaromatic ring conformer: 116.59852939635424 kcal/mol)

>  <smiles>  (14) 
CCn1cc(-c2nc3ccc(Br)cn3c2NC2CCCC2)nn1

>  <score_type>  (14) 
oracle

>  <origin>  (14) 
adg

>  <m_score__min__energy>  (14) 
-8.0999999999999996

>  <m_primary>  (14) 
energy

$$$$
14:0
     RDKit          3D

 57 59  0  0  0  0  0  0  0  0999 V2000
   60.6780   29.7070   47.2330 C   0  0  0  0  0  0  0  0  0  0  0  0
   59.7400   29.0860   46.3530 O   0  0  0  0  0  0  0  0  0  0  0  0
   58.6970   29.7590   45.6920 C   0  0  0  0  0  0  0  0  0  0  0  0
   58.4230   31.1170   45.9390 C   0  0  0  0  0  0  0  0  0  0  0  0
   57.4050   31.7890   45.2390 C   0  0  0  0  0  0  0  0  0  0  0  0
   57.1580   33.2690   45.4560 C   0  0  2  0  0  0  0  0  0  0  0  0
   57.9910   34.1170   44.5010 C   0  0  0  0  0  0  0  0  0  0  0  0
   59.1340   34.5710   45.3530 C   0  0  0  0  0  0  0  0  0  0  0  0
   58.5580   34.5310   46.7650 C   0  0  2  0  0  0  0  0  0  0  0  0
   59.6140   34.1640   47.7960 C   0  0  0  0  0  0  0  0  0  0  0  0
   60.9660   34.1380   47.4220 C   0  0  0  0  0  0  0  0  0  0  0  0
   61.9630   33.7650   48.3410 C   0  0  0  0  0  0  0  0  0  0  0  0
   63.3210   33.7140   47.9850 O   0  0  0  0  0  0  0  0  0  0  0  0
   63.8300   33.0760   46.8150 C   0  0  0  0  0  0  0  0  0  0  0  0
   61.6080   33.4400   49.6590 C   0  0  0  0  0  0  0  0  0  0  0  0
   62.6340   33.0820   50.5470 O   0  0  0  0  0  0  0  0  0  0  0  0
   63.6300   33.9910   51.0110 C   0  0  0  0  0  0  0  0  0  0  0  0
   60.2550   33.4620   50.0540 C   0  0  0  0  0  0  0  0  0  0  0  0
   59.9150   33.0620   51.3570 O   0  0  0  0  0  0  0  0  0  0  0  0
   59.1930   33.8610   52.2900 C   0  0  0  0  0  0  0  0  0  0  0  0
   59.2720   33.8500   49.1250 C   0  0  0  0  0  0  0  0  0  0  0  0
   57.4710   33.6250   46.7880 O   0  0  0  0  0  0  0  0  0  0  0  0
   56.6770   31.0910   44.2620 C   0  0  0  0  0  0  0  0  0  0  0  0
   56.9340   29.7390   44.0180 C   0  0  0  0  0  0  0  0  0  0  0  0
   57.9300   29.0610   44.7350 C   0  0  0  0  0  0  0  0  0  0  0  0
   58.1860   27.6720   44.4630 N   0  0  0  0  0  0  0  0  0  0  0  0
   58.1680   27.1710   43.0870 C   0  0  0  0  0  0  0  0  0  0  0  0
   58.3010   26.7280   45.5810 C   0  0  0  0  0  0  0  0  0  0  0  0
   60.3860   29.5137   48.2758 H   0  0  0  0  0  0  0  0  0  0  0  0
   61.6810   29.2939   47.0505 H   0  0  0  0  0  0  0  0  0  0  0  0
   60.6894   30.7917   47.0505 H   0  0  0  0  0  0  0  0  0  0  0  0
   59.0138   31.6610   46.6907 H   0  0  0  0  0  0  0  0  0  0  0  0
   56.0932   33.4615   45.2584 H   0  0  0  0  0  0  0  0  0  0  0  0
   58.3473   33.5177   43.6502 H   0  0  0  0  0  0  0  0  0  0  0  0
   57.4250   34.9506   44.0596 H   0  0  0  0  0  0  0  0  0  0  0  0
   59.9915   33.8886   45.2579 H   0  0  0  0  0  0  0  0  0  0  0  0
   59.5126   35.5645   45.0709 H   0  0  0  0  0  0  0  0  0  0  0  0
   58.2011   35.5354   47.0368 H   0  0  0  0  0  0  0  0  0  0  0  0
   61.2501   34.4132   46.3956 H   0  0  0  0  0  0  0  0  0  0  0  0
   64.4913   32.2471   47.1076 H   0  0  0  0  0  0  0  0  0  0  0  0
   62.9935   32.6843   46.2176 H   0  0  0  0  0  0  0  0  0  0  0  0
   64.3977   33.8046   46.2176 H   0  0  0  0  0  0  0  0  0  0  0  0
   63.6368   33.9972   52.1110 H   0  0  0  0  0  0  0  0  0  0  0  0
   64.6162   33.6751   50.6400 H   0  0  0  0  0  0  0  0  0  0  0  0
   63.4053   35.0019   50.6400 H   0  0  0  0  0  0  0  0  0  0  0  0
   59.4625   33.5628   53.3139 H   0  0  0  0  0  0  0  0  0  0  0  0
   59.4459   34.9207   52.1382 H   0  0  0  0  0  0  0  0  0  0  0  0
   58.1132   33.7164   52.1382 H   0  0  0  0  0  0  0  0  0  0  0  0
   58.2203   33.9089   49.4420 H   0  0  0  0  0  0  0  0  0  0  0  0
   55.8990   31.6119   43.6846 H   0  0  0  0  0  0  0  0  0  0  0  0
   56.3495   29.2020   43.2565 H   0  0  0  0  0  0  0  0  0  0  0  0
   58.1285   26.0718   43.0975 H   0  0  0  0  0  0  0  0  0  0  0  0
   57.2834   27.5647   42.5650 H   0  0  0  0  0  0  0  0  0  0  0  0
   59.0786   27.5002   42.5650 H   0  0  0  0  0  0  0  0  0  0  0  0
   58.2342   27.2763   46.5322 H   0  0  0  0  0  0  0  0  0  0  0  0
   57.4859   25.9915   45.5243 H   0  0  0  0  0  0  0  0  0  0  0  0
   59.2690   26.2087   45.5243 H   0  0  0  0  0  0  0  0  0  0  0  0
  1  2  1  0
  2  3  1  0
  3  4  2  0
  4  5  1  0
  5  6  1  0
  6  7  1  0
  7  8  1  0
  8  9  1  0
  9 10  1  0
 10 11  2  0
 11 12  1  0
 12 13  1  0
 13 14  1  0
 12 15  2  0
 15 16  1  0
 16 17  1  0
 15 18  1  0
 18 19  1  0
 19 20  1  0
 18 21  2  0
  9 22  1  0
  5 23  2  0
 23 24  1  0
 24 25  2  0
 25 26  1  0
 26 27  1  0
 26 28  1  0
 25  3  1  0
 22  6  1  0
 21 10  1  0
  1 29  1  0
  1 30  1  0
  1 31  1  0
  4 32  1  0
  6 33  1  6
  7 34  1  0
  7 35  1  0
  8 36  1  0
  8 37  1  0
  9 38  1  1
 11 39  1  0
 14 40  1  0
 14 41  1  0
 14 42  1  0
 17 43  1  0
 17 44  1  0
 17 45  1  0
 20 46  1  0
 20 47  1  0
 20 48  1  0
 21 49  1  0
 23 50  1  0
 24 51  1  0
 27 52  1  0
 27 53  1  0
 27 54  1  0
 28 55  1  0
 28 56  1  0
 28 57  1  0
M  END
>  <UniqueID>  (15) 
14

>  <SMILES>  (15) 
COc1cc([C@@H]2CC[C@H](c3cc(OC)c(OC)c(OC)c3)O2)ccc1N(C)C

>  <Energy>  (15) 
64.88951737310173

>  <Genealogy>  (15) 
COc1cc([C@@H]2CC[C@H](c3cc(OC)c(OC)c(OC)c3)O2)ccc1N(C)C (chirality)
COc1cc([C@@H]2CC[C@H](c3cc(OC)c(OC)c(OC)c3)O2)ccc1N(C)C (3D coordinates assigned)
COc1cc([C@@H]2CC[C@H](c3cc(OC)c(OC)c(OC)c3)O2)ccc1N(C)C (nonaromatic ring conformer: 64.88951737310173 kcal/mol)

>  <smiles>  (15) 
COc1cc(C2CCC(c3cc(OC)c(OC)c(OC)c3)O2)ccc1N(C)C

>  <score_type>  (15) 
oracle

>  <origin>  (15) 
adg

>  <m_score__min__energy>  (15) 
-7.0800000000000001

>  <m_primary>  (15) 
energy

$$$$
15:0
     RDKit          3D

 60 63  0  0  0  0  0  0  0  0999 V2000
   58.9110   34.9700   44.9690 C   0  0  0  0  0  0  0  0  0  0  0  0
   59.0430   33.6190   45.5230 N   0  0  0  0  0  0  0  0  0  0  0  0
   58.1380   32.5510   45.1560 C   0  0  0  0  0  0  0  0  0  0  0  0
   57.1200   32.3390   45.8740 O   0  0  0  0  0  0  0  0  0  0  0  0
   58.4180   31.6080   43.9960 C   0  0  2  0  0  0  0  0  0  0  0  0
   57.3800   31.7970   42.8480 C   0  0  0  0  0  0  0  0  0  0  0  0
   56.6420   30.4980   42.4850 C   0  0  0  0  0  0  0  0  0  0  0  0
   56.1150   29.7540   43.7330 C   0  0  0  0  0  0  0  0  0  0  0  0
   57.0510   29.7750   44.8900 N   0  0  0  0  0  0  0  0  0  0  0  0
   57.0180   28.5010   45.6400 C   0  0  0  0  0  0  0  0  0  0  0  0
   58.2550   28.3490   46.4940 C   0  0  0  0  0  0  0  0  0  0  0  0
   59.1420   27.2760   46.2720 C   0  0  0  0  0  0  0  0  0  0  0  0
   60.2690   27.1100   47.0850 C   0  0  0  0  0  0  0  0  0  0  0  0
   60.5190   28.0150   48.1240 C   0  0  0  0  0  0  0  0  0  0  0  0
   59.6430   29.0880   48.3520 C   0  0  0  0  0  0  0  0  0  0  0  0
   58.5120   29.2550   47.5410 C   0  0  0  0  0  0  0  0  0  0  0  0
   58.4260   30.1600   44.5150 C   0  0  0  0  0  0  0  0  0  0  0  0
   60.0770   33.3530   46.4880 C   0  0  0  0  0  0  0  0  0  0  0  0
   61.3720   33.8420   46.2870 C   0  0  0  0  0  0  0  0  0  0  0  0
   62.3960   33.5240   47.1850 C   0  0  0  0  0  0  0  0  0  0  0  0
   62.1520   32.6990   48.3090 C   0  0  0  0  0  0  0  0  0  0  0  0
   63.2290   32.3200   49.2220 N   0  0  0  0  0  0  0  0  0  0  0  0
   64.5410   32.9960   49.1110 C   0  0  0  0  0  0  0  0  0  0  0  0
   65.5380   32.5790   50.1970 C   0  0  0  0  0  0  0  0  0  0  0  0
   65.4310   31.2040   50.4840 O   0  0  0  0  0  0  0  0  0  0  0  0
   64.1950   30.9780   51.1180 C   0  0  0  0  0  0  0  0  0  0  0  0
   63.0360   31.1770   50.1370 C   0  0  0  0  0  0  0  0  0  0  0  0
   60.8260   32.2460   48.5130 C   0  0  0  0  0  0  0  0  0  0  0  0
   59.8090   32.5610   47.6090 C   0  0  0  0  0  0  0  0  0  0  0  0
   58.8399   35.6979   45.7907 H   0  0  0  0  0  0  0  0  0  0  0  0
   59.7909   35.2002   44.3503 H   0  0  0  0  0  0  0  0  0  0  0  0
   58.0032   35.0255   44.3503 H   0  0  0  0  0  0  0  0  0  0  0  0
   59.4052   31.8419   43.5708 H   0  0  0  0  0  0  0  0  0  0  0  0
   56.6382   32.5444   43.1658 H   0  0  0  0  0  0  0  0  0  0  0  0
   57.9334   32.1216   41.9544 H   0  0  0  0  0  0  0  0  0  0  0  0
   55.7900   30.7452   41.8346 H   0  0  0  0  0  0  0  0  0  0  0  0
   57.3575   29.8357   41.9757 H   0  0  0  0  0  0  0  0  0  0  0  0
   55.1706   30.2249   44.0434 H   0  0  0  0  0  0  0  0  0  0  0  0
   55.9880   28.6999   43.4453 H   0  0  0  0  0  0  0  0  0  0  0  0
   56.1288   28.4866   46.2874 H   0  0  0  0  0  0  0  0  0  0  0  0
   56.9816   27.6694   44.9209 H   0  0  0  0  0  0  0  0  0  0  0  0
   58.9472   26.5653   45.4553 H   0  0  0  0  0  0  0  0  0  0  0  0
   60.9571   26.2702   46.9082 H   0  0  0  0  0  0  0  0  0  0  0  0
   61.4045   27.8847   48.7634 H   0  0  0  0  0  0  0  0  0  0  0  0
   59.8443   29.7982   49.1676 H   0  0  0  0  0  0  0  0  0  0  0  0
   57.8247   30.0944   47.7225 H   0  0  0  0  0  0  0  0  0  0  0  0
   59.0820   30.0875   45.3950 H   0  0  0  0  0  0  0  0  0  0  0  0
   58.7989   29.4863   43.7295 H   0  0  0  0  0  0  0  0  0  0  0  0
   61.5863   34.4806   45.4173 H   0  0  0  0  0  0  0  0  0  0  0  0
   63.4075   33.9215   47.0150 H   0  0  0  0  0  0  0  0  0  0  0  0
   64.9747   32.7550   48.1293 H   0  0  0  0  0  0  0  0  0  0  0  0
   64.3606   34.0741   49.2346 H   0  0  0  0  0  0  0  0  0  0  0  0
   66.5590   32.7948   49.8491 H   0  0  0  0  0  0  0  0  0  0  0  0
   65.3133   33.1452   51.1129 H   0  0  0  0  0  0  0  0  0  0  0  0
   64.1697   29.9474   51.5018 H   0  0  0  0  0  0  0  0  0  0  0  0
   64.0856   31.6968   51.9434 H   0  0  0  0  0  0  0  0  0  0  0  0
   62.9288   30.2629   49.5346 H   0  0  0  0  0  0  0  0  0  0  0  0
   62.1380   31.3895   50.7357 H   0  0  0  0  0  0  0  0  0  0  0  0
   60.5930   31.6359   49.3981 H   0  0  0  0  0  0  0  0  0  0  0  0
   58.7901   32.1835   47.7800 H   0  0  0  0  0  0  0  0  0  0  0  0
  1  2  1  0
  2  3  1  0
  3  4  2  0
  3  5  1  0
  5  6  1  0
  6  7  1  0
  7  8  1  0
  8  9  1  0
  9 10  1  0
 10 11  1  0
 11 12  2  0
 12 13  1  0
 13 14  2  0
 14 15  1  0
 15 16  2  0
  9 17  1  0
  2 18  1  0
 18 19  2  0
 19 20  1  0
 20 21  2  0
 21 22  1  0
 22 23  1  0
 23 24  1  0
 24 25  1  0
 25 26  1  0
 26 27  1  0
 21 28  1  0
 28 29  2  0
 17  5  1  0
 29 18  1  0
 16 11  1  0
 27 22  1  0
  1 30  1  0
  1 31  1  0
  1 32  1  0
  5 33  1  6
  6 34  1  0
  6 35  1  0
  7 36  1  0
  7 37  1  0
  8 38  1  0
  8 39  1  0
 10 40  1  0
 10 41  1  0
 12 42  1  0
 13 43  1  0
 14 44  1  0
 15 45  1  0
 16 46  1  0
 17 47  1  0
 17 48  1  0
 19 49  1  0
 20 50  1  0
 23 51  1  0
 23 52  1  0
 24 53  1  0
 24 54  1  0
 26 55  1  0
 26 56  1  0
 27 57  1  0
 27 58  1  0
 28 59  1  0
 29 60  1  0
M  END
>  <UniqueID>  (16) 
15

>  <SMILES>  (16) 
CN(C(=O)[C@@H]1CCCN(Cc2ccccc2)C1)c1ccc(N2CCOCC2)cc1

>  <Energy>  (16) 
84.97336859343031

>  <Genealogy>  (16) 
CN(C(=O)[C@@H]1CCCN(Cc2ccccc2)C1)c1ccc(N2CCOCC2)cc1 (chirality)
CN(C(=O)[C@@H]1CCCN(Cc2ccccc2)C1)c1ccc(N2CCOCC2)cc1 (3D coordinates assigned)
CN(C(=O)[C@@H]1CCCN(Cc2ccccc2)C1)c1ccc(N2CCOCC2)cc1 (nonaromatic ring conformer: 84.97336859343031 kcal/mol)

>  <smiles>  (16) 
CN(C(=O)C1CCCN(Cc2ccccc2)C1)c1ccc(N2CCOCC2)cc1

>  <score_type>  (16) 
oracle

>  <origin>  (16) 
adg

>  <m_score__min__energy>  (16) 
-8.8599999999999994

>  <m_primary>  (16) 
energy

$$$$
16:0
     RDKit          3D

 46 48  0  0  0  0  0  0  0  0999 V2000
   57.0291   31.5396   42.5915 H   0  0  0  0  0  0  0  0  0  0  0  0
   57.5120   31.6470   43.5740 C   0  0  0  0  0  0  0  0  0  0  0  0
   58.1430   32.8050   43.8200 C   0  0  0  0  0  0  0  0  0  0  0  0
   58.4018   33.4292   42.9520 H   0  0  0  0  0  0  0  0  0  0  0  0
   58.5210   33.3160   45.1530 C   0  0  0  0  0  0  0  0  0  0  0  0
   57.7540   33.0220   46.2940 C   0  0  0  0  0  0  0  0  0  0  0  0
   56.8823   32.3561   46.2115 H   0  0  0  0  0  0  0  0  0  0  0  0
   58.0950   33.5730   47.5340 C   0  0  0  0  0  0  0  0  0  0  0  0
   57.5075   33.3188   48.4285 H   0  0  0  0  0  0  0  0  0  0  0  0
   59.1800   34.4450   47.6370 C   0  0  0  0  0  0  0  0  0  0  0  0
   59.4490   34.8745   48.6133 H   0  0  0  0  0  0  0  0  0  0  0  0
   59.9250   34.7730   46.5010 C   0  0  0  0  0  0  0  0  0  0  0  0
   60.7713   35.4711   46.5813 H   0  0  0  0  0  0  0  0  0  0  0  0
   59.5950   34.2140   45.2620 C   0  0  0  0  0  0  0  0  0  0  0  0
   60.1796   34.4791   44.3687 H   0  0  0  0  0  0  0  0  0  0  0  0
   57.4070   30.5050   44.5010 C   0  0  0  0  0  0  0  0  0  0  0  0
   58.2790   30.2410   45.5000 N   0  0  0  0  0  0  0  0  0  0  0  0
   57.8160   29.0930   46.0340 C   0  0  0  0  0  0  0  0  0  0  0  0
   58.3830   28.4010   47.2100 C   0  0  0  0  0  0  0  0  0  0  0  0
   57.7069   27.7529   47.7870 H   0  0  0  0  0  0  0  0  0  0  0  0
   59.6530   28.4960   47.6340 C   0  0  0  0  0  0  0  0  0  0  0  0
   60.2040   27.5563   47.7868 H   0  0  0  0  0  0  0  0  0  0  0  0
   60.3740   29.7550   47.9130 C   0  0  0  0  0  0  0  0  0  0  0  0
   61.1390   30.3440   46.8960 C   0  0  0  0  0  0  0  0  0  0  0  0
   61.2269   29.8463   45.9190 H   0  0  0  0  0  0  0  0  0  0  0  0
   61.7900   31.5600   47.1180 C   0  0  0  0  0  0  0  0  0  0  0  0
   62.3910   32.0106   46.3145 H   0  0  0  0  0  0  0  0  0  0  0  0
   61.6850   32.2100   48.3520 C   0  0  0  0  0  0  0  0  0  0  0  0
   62.3840   33.4110   48.5350 O   0  0  0  0  0  0  0  0  0  0  0  0
   63.2960   33.9620   47.5910 C   0  0  0  0  0  0  0  0  0  0  0  0
   64.1195   34.4596   48.1241 H   0  0  0  0  0  0  0  0  0  0  0  0
   63.7010   33.1574   46.9597 H   0  0  0  0  0  0  0  0  0  0  0  0
   62.7721   34.6948   46.9597 H   0  0  0  0  0  0  0  0  0  0  0  0
   60.8900   31.6380   49.3630 C   0  0  0  0  0  0  0  0  0  0  0  0
   60.7927   32.1431   50.3353 H   0  0  0  0  0  0  0  0  0  0  0  0
   60.2240   30.4310   49.1360 C   0  0  0  0  0  0  0  0  0  0  0  0
   59.5783   30.0072   49.9193 H   0  0  0  0  0  0  0  0  0  0  0  0
   56.6820   28.7220   45.3500 C   0  0  0  0  0  0  0  0  0  0  0  0
   55.8800   27.5670   45.6200 N   0  0  0  0  0  0  0  0  0  0  0  0
   56.3640   26.2480   45.8980 C   0  0  0  0  0  0  0  0  0  0  0  0
   55.6970   25.5070   46.6680 O   0  0  0  0  0  0  0  0  0  0  0  0
   57.6330   25.7220   45.3020 C   0  0  0  0  0  0  0  0  0  0  0  0
   58.3251   25.4351   46.1075 H   0  0  0  0  0  0  0  0  0  0  0  0
   57.4092   24.8425   44.6804 H   0  0  0  0  0  0  0  0  0  0  0  0
   58.0970   26.5019   44.6804 H   0  0  0  0  0  0  0  0  0  0  0  0
   56.4570   29.6000   44.4050 O   0  0  0  0  0  0  0  0  0  0  0  0
  1  2  1  0
  2  3  2  0
  3  4  1  0
  3  5  1  0
  5  6  2  0
  6  7  1  0
  6  8  1  0
  8  9  1  0
  8 10  2  0
 10 11  1  0
 10 12  1  0
 12 13  1  0
 12 14  2  0
 14 15  1  0
  2 16  1  0
 16 17  2  0
 17 18  1  0
 18 19  1  0
 19 20  1  0
 19 21  2  0
 21 22  1  0
 21 23  1  0
 23 24  2  0
 24 25  1  0
 24 26  1  0
 26 27  1  0
 26 28  2  0
 28 29  1  0
 29 30  1  0
 30 31  1  0
 30 32  1  0
 30 33  1  0
 28 34  1  0
 34 35  1  0
 34 36  2  0
 36 37  1  0
 18 38  2  0
 38 39  1  0
 39 40  1  0
 40 41  2  0
 40 42  1  0
 42 43  1  0
 42 44  1  0
 42 45  1  0
 38 46  1  0
 14  5  1  0
 46 16  1  0
 36 23  1  0
M  CHG  1  39  -1
M  END
>  <UniqueID>  (17) 
16

>  <SMILES>  (17) 
COc1ccc(/C=C\c2nc(/C=C\c3ccccc3)oc2[N-]C(C)=O)cc1

>  <Energy>  (17) 
86.49893194593993

>  <Genealogy>  (17) 
COc1ccc(C=Cc2nc(C=Cc3ccccc3)oc2[N-]C(C)=O)cc1 (protonated)
COc1ccc(/C=C\c2nc(/C=C\c3ccccc3)oc2[N-]C(C)=O)cc1 (cis-trans isomerization)
COc1ccc(/C=C\c2nc(/C=C\c3ccccc3)oc2[N-]C(C)=O)cc1 (3D coordinates assigned)
COc1ccc(/C=C\c2nc(/C=C\c3ccccc3)oc2[N-]C(C)=O)cc1 (optimized conformer: 86.49893194593993 kcal/mol)

>  <smiles>  (17) 
COc1ccc(C=Cc2nc(C=Cc3ccccc3)oc2NC(C)=O)cc1

>  <score_type>  (17) 
oracle

>  <origin>  (17) 
adg

>  <m_score__min__energy>  (17) 
-10.609999999999999

>  <m_primary>  (17) 
energy

$$$$
17:0
     RDKit          3D

 57 59  0  0  0  0  0  0  0  0999 V2000
   63.2500   33.8580   46.3700 C   0  0  0  0  0  0  0  0  0  0  0  0
   62.1850   33.8760   47.3140 O   0  0  0  0  0  0  0  0  0  0  0  0
   60.8220   33.8210   46.9840 C   0  0  0  0  0  0  0  0  0  0  0  0
   60.3790   34.0010   45.6580 C   0  0  0  0  0  0  0  0  0  0  0  0
   59.0170   33.9800   45.3550 C   0  0  0  0  0  0  0  0  0  0  0  0
   58.0790   33.7910   46.3670 C   0  0  0  0  0  0  0  0  0  0  0  0
   58.4990   33.6070   47.6840 C   0  0  0  0  0  0  0  0  0  0  0  0
   59.8690   33.5930   48.0070 C   0  0  0  0  0  0  0  0  0  0  0  0
   60.2940   33.3530   49.4510 C   0  0  0  0  0  0  0  0  0  0  0  0
   61.2970   32.2630   49.6240 N   0  0  1  0  0  0  0  0  0  0  0  0
   61.8350   32.2590   51.0150 C   0  0  0  0  0  0  0  0  0  0  0  0
   63.3700   32.1160   51.1290 C   0  0  0  0  0  0  0  0  0  0  0  0
   64.1770   32.7960   50.0120 C   0  0  0  0  0  0  0  0  0  0  0  0
   64.1690   31.9940   48.7910 N   0  0  0  0  0  0  0  0  0  0  0  0
   60.7200   30.9500   49.2240 C   0  0  0  0  0  0  0  0  0  0  0  0
   61.1710   30.4950   47.8550 C   0  0  0  0  0  0  0  0  0  0  0  0
   62.2270   30.9890   47.3710 O   0  0  0  0  0  0  0  0  0  0  0  0
   60.4000   29.5600   47.0710 N   0  0  0  0  0  0  0  0  0  0  0  0
   59.8830   29.9560   45.7560 C   0  0  0  0  0  0  0  0  0  0  0  0
   58.3920   29.6470   45.6840 C   0  0  0  0  0  0  0  0  0  0  0  0
   58.1220   28.2150   46.0620 C   0  0  0  0  0  0  0  0  0  0  0  0
   56.9620   27.5830   45.5900 C   0  0  0  0  0  0  0  0  0  0  0  0
   56.6700   26.2700   45.9650 C   0  0  0  0  0  0  0  0  0  0  0  0
   57.5280   25.5800   46.8230 C   0  0  0  0  0  0  0  0  0  0  0  0
   58.6780   26.2030   47.3120 C   0  0  0  0  0  0  0  0  0  0  0  0
   58.9820   27.5240   46.9470 C   0  0  0  0  0  0  0  0  0  0  0  0
   60.2340   28.1640   47.5060 C   0  0  0  0  0  0  0  0  0  0  0  0
   64.2121   33.8417   46.9029 H   0  0  0  0  0  0  0  0  0  0  0  0
   63.1653   32.9612   45.7387 H   0  0  0  0  0  0  0  0  0  0  0  0
   63.1957   34.7572   45.7387 H   0  0  0  0  0  0  0  0  0  0  0  0
   61.1136   34.1595   44.8547 H   0  0  0  0  0  0  0  0  0  0  0  0
   58.6837   34.1129   44.3152 H   0  0  0  0  0  0  0  0  0  0  0  0
   57.0055   33.7869   46.1271 H   0  0  0  0  0  0  0  0  0  0  0  0
   57.7513   33.4713   48.4793 H   0  0  0  0  0  0  0  0  0  0  0  0
   60.7280   34.2853   49.8416 H   0  0  0  0  0  0  0  0  0  0  0  0
   59.3916   33.0392   49.9962 H   0  0  0  0  0  0  0  0  0  0  0  0
   62.0680   32.5060   48.9620 H   0  0  0  0  0  0  0  0  0  0  0  0
   61.5453   33.2058   51.4942 H   0  0  0  0  0  0  0  0  0  0  0  0
   61.4095   31.3698   51.5032 H   0  0  0  0  0  0  0  0  0  0  0  0
   63.6819   32.5540   52.0886 H   0  0  0  0  0  0  0  0  0  0  0  0
   63.5825   31.0399   51.0463 H   0  0  0  0  0  0  0  0  0  0  0  0
   63.7345   33.7800   49.7978 H   0  0  0  0  0  0  0  0  0  0  0  0
   65.2179   32.9042   50.3508 H   0  0  0  0  0  0  0  0  0  0  0  0
   63.5900   32.4930   48.0760 H   0  0  0  0  0  0  0  0  0  0  0  0
   63.6640   31.1020   48.9970 H   0  0  0  0  0  0  0  0  0  0  0  0
   61.0258   30.1940   49.9622 H   0  0  0  0  0  0  0  0  0  0  0  0
   59.6273   31.0707   49.1854 H   0  0  0  0  0  0  0  0  0  0  0  0
   60.0418   31.0345   45.6088 H   0  0  0  0  0  0  0  0  0  0  0  0
   60.4123   29.3976   44.9698 H   0  0  0  0  0  0  0  0  0  0  0  0
   57.8528   30.3102   46.3764 H   0  0  0  0  0  0  0  0  0  0  0  0
   58.0486   29.8090   44.6516 H   0  0  0  0  0  0  0  0  0  0  0  0
   56.2782   28.1251   44.9203 H   0  0  0  0  0  0  0  0  0  0  0  0
   55.7626   25.7788   45.5838 H   0  0  0  0  0  0  0  0  0  0  0  0
   57.2980   24.5445   47.1142 H   0  0  0  0  0  0  0  0  0  0  0  0
   59.3506   25.6547   47.9881 H   0  0  0  0  0  0  0  0  0  0  0  0
   60.1805   28.1415   48.6045 H   0  0  0  0  0  0  0  0  0  0  0  0
   61.0958   27.5935   47.1293 H   0  0  0  0  0  0  0  0  0  0  0  0
  1  2  1  0
  2  3  1  0
  3  4  2  0
  4  5  1  0
  5  6  2  0
  6  7  1  0
  7  8  2  0
  8  9  1  0
  9 10  1  0
 10 11  1  0
 11 12  1  0
 12 13  1  0
 13 14  1  0
 10 15  1  0
 15 16  1  0
 16 17  2  0
 16 18  1  0
 18 19  1  0
 19 20  1  0
 20 21  1  0
 21 22  2  0
 22 23  1  0
 23 24  2  0
 24 25  1  0
 25 26  2  0
 26 27  1  0
  8  3  1  0
 27 18  1  0
 26 21  1  0
  1 28  1  0
  1 29  1  0
  1 30  1  0
  4 31  1  0
  5 32  1  0
  6 33  1  0
  7 34  1  0
  9 35  1  0
  9 36  1  0
 10 37  1  6
 11 38  1  0
 11 39  1  0
 12 40  1  0
 12 41  1  0
 13 42  1  0
 13 43  1  0
 14 44  1  0
 14 45  1  0
 15 46  1  0
 15 47  1  0
 19 48  1  0
 19 49  1  0
 20 50  1  0
 20 51  1  0
 22 52  1  0
 23 53  1  0
 24 54  1  0
 25 55  1  0
 27 56  1  0
 27 57  1  0
M  CHG  1  10   1
M  END
>  <UniqueID>  (18) 
17

>  <SMILES>  (18) 
COc1ccccc1C[N@@H+](CCCN)CC(=O)N1CCc2ccccc2C1

>  <Energy>  (18) 
65.77080400703142

>  <Genealogy>  (18) 
COc1ccccc1C[NH+](CCCN)CC(=O)N1CCc2ccccc2C1 (protonated)
COc1ccccc1C[N@@H+](CCCN)CC(=O)N1CCc2ccccc2C1 (chirality)
COc1ccccc1C[N@@H+](CCCN)CC(=O)N1CCc2ccccc2C1 (3D coordinates assigned)
COc1ccccc1C[N@@H+](CCCN)CC(=O)N1CCc2ccccc2C1 (nonaromatic ring conformer: 65.77080400703142 kcal/mol)

>  <smiles>  (18) 
COc1ccccc1CN(CCCN)CC(=O)N1CCc2ccccc2C1

>  <score_type>  (18) 
oracle

>  <origin>  (18) 
adg

>  <m_score__min__energy>  (18) 
-4.8499999999999996

>  <m_primary>  (18) 
energy

$$$$
18:0
     RDKit          3D

 21 22  0  0  0  0  0  0  0  0999 V2000
   55.1694   31.1692   44.0773 H   0  0  0  0  0  0  0  0  0  0  0  0
   56.1650   30.8610   44.4290 C   0  0  0  0  0  0  0  0  0  0  0  0
   56.3650   29.5930   44.8760 N   0  0  0  0  0  0  0  0  0  0  0  0
   57.5890   29.1630   45.2980 C   0  0  0  0  0  0  0  0  0  0  0  0
   57.7650   27.8420   45.8320 N   0  0  0  0  0  0  0  0  0  0  0  0
   56.8970   26.8690   45.8850 C   0  0  0  0  0  0  0  0  0  0  0  0
   57.3700   25.5520   45.8950 C   0  0  0  0  0  0  0  0  0  0  0  0
   58.4510   25.3519   45.8580 H   0  0  0  0  0  0  0  0  0  0  0  0
   56.4640   24.4970   45.9520 C   0  0  0  0  0  0  0  0  0  0  0  0
   56.8209   23.4568   45.9738 H   0  0  0  0  0  0  0  0  0  0  0  0
   55.1010   24.7750   45.9810 C   0  0  0  0  0  0  0  0  0  0  0  0
   54.2590   23.8410   46.0340 O   0  0  0  0  0  0  0  0  0  0  0  0
   54.6810   26.0660   45.9420 N   0  0  0  0  0  0  0  0  0  0  0  0
   55.5440   27.0850   45.8920 N   0  0  0  0  0  0  0  0  0  0  0  0
   55.1430   28.0420   45.8130 H   0  0  0  0  0  0  0  0  0  0  0  0
   58.6620   30.0590   45.3260 C   0  0  0  0  0  0  0  0  0  0  0  0
   59.6438   29.7362   45.7028 H   0  0  0  0  0  0  0  0  0  0  0  0
   58.4780   31.3670   44.8720 C   0  0  0  0  0  0  0  0  0  0  0  0
   59.3198   32.0751   44.8739 H   0  0  0  0  0  0  0  0  0  0  0  0
   57.2230   31.7730   44.4160 C   0  0  0  0  0  0  0  0  0  0  0  0
   57.0688   32.7990   44.0507 H   0  0  0  0  0  0  0  0  0  0  0  0
  1  2  1  0
  2  3  2  0
  3  4  1  0
  4  5  1  0
  5  6  2  0
  6  7  1  0
  7  8  1  0
  7  9  2  0
  9 10  1  0
  9 11  1  0
 11 12  2  0
 11 13  1  0
 13 14  1  0
 14 15  1  0
  4 16  2  0
 16 17  1  0
 16 18  1  0
 18 19  1  0
 18 20  2  0
 20 21  1  0
 20  2  1  0
 14  6  1  0
M  CHG  1  13  -1
M  END
>  <UniqueID>  (19) 
18

>  <SMILES>  (19) 
O=c1cc/c(=N/c2ccccn2)[nH][n-]1

>  <Energy>  (19) 
30.935294874956707

>  <Genealogy>  (19) 
O=c1ccc(=Nc2ccccn2)[nH][n-]1 (protonated)
O=c1cc/c(=N/c2ccccn2)[nH][n-]1 (cis-trans isomerization)
O=c1cc/c(=N/c2ccccn2)[nH][n-]1 (3D coordinates assigned)
O=c1cc/c(=N/c2ccccn2)[nH][n-]1 (optimized conformer: 30.935294874956707 kcal/mol)

>  <smiles>  (19) 
O=c1ccc(=Nc2ccccn2)[nH][nH]1

>  <score_type>  (19) 
oracle

>  <origin>  (19) 
adg

>  <m_score__min__energy>  (19) 
-8.4600000000000009

>  <m_primary>  (19) 
energy

$$$$
19:0
     RDKit          3D

 34 35  0  0  0  0  0  0  0  0999 V2000
   58.8150   27.3120   44.4410 C   0  0  0  0  0  0  0  0  0  0  0  0
   57.9440   28.5360   44.3510 C   0  0  0  0  0  0  0  0  0  0  0  0
   57.0320   28.6330   43.3390 N   0  0  0  0  0  0  0  0  0  0  0  0
   56.2410   29.7280   43.1970 C   0  0  0  0  0  0  0  0  0  0  0  0
   56.3610   30.7840   44.0960 C   0  0  0  0  0  0  0  0  0  0  0  0
   57.2740   30.7070   45.0960 N   0  0  0  0  0  0  0  0  0  0  0  0
   58.0830   29.6230   45.2500 C   0  0  0  0  0  0  0  0  0  0  0  0
   59.0740   29.6220   46.3850 C   0  0  0  0  0  0  0  0  0  0  0  0
   58.5460   30.3810   47.5310 N   0  0  0  0  0  0  0  0  0  0  0  0
   59.5800   31.1280   48.2700 C   0  0  0  0  0  0  0  0  0  0  0  0
   59.1860   32.5980   48.5100 C   0  0  0  0  0  0  0  0  0  0  0  0
   60.2730   33.2680   49.0450 F   0  0  0  0  0  0  0  0  0  0  0  0
   58.1610   32.6520   49.4410 F   0  0  0  0  0  0  0  0  0  0  0  0
   58.7680   33.2880   47.2350 C   0  0  0  0  0  0  0  0  0  0  0  0
   59.6890   34.0350   46.4850 C   0  0  0  0  0  0  0  0  0  0  0  0
   59.2760   34.6420   45.2960 C   0  0  0  0  0  0  0  0  0  0  0  0
   57.9540   34.5070   44.8710 C   0  0  0  0  0  0  0  0  0  0  0  0
   57.0600   33.7680   45.6460 C   0  0  0  0  0  0  0  0  0  0  0  0
   57.4820   33.1810   46.7980 N   0  0  0  0  0  0  0  0  0  0  0  0
   58.9912   27.0643   45.4982 H   0  0  0  0  0  0  0  0  0  0  0  0
   58.3134   26.4678   43.9453 H   0  0  0  0  0  0  0  0  0  0  0  0
   59.7770   27.5093   43.9453 H   0  0  0  0  0  0  0  0  0  0  0  0
   56.9310   27.8560   42.6470 H   0  0  0  0  0  0  0  0  0  0  0  0
   55.5101   29.7800   42.3766 H   0  0  0  0  0  0  0  0  0  0  0  0
   55.7210   31.6731   43.9962 H   0  0  0  0  0  0  0  0  0  0  0  0
   59.2673   28.5847   46.6959 H   0  0  0  0  0  0  0  0  0  0  0  0
   60.0064   30.0955   46.0437 H   0  0  0  0  0  0  0  0  0  0  0  0
   57.8620   31.0840   47.1630 H   0  0  0  0  0  0  0  0  0  0  0  0
   59.7387   30.6416   49.2438 H   0  0  0  0  0  0  0  0  0  0  0  0
   60.4964   31.1221   47.6615 H   0  0  0  0  0  0  0  0  0  0  0  0
   60.7279   34.1420   46.8302 H   0  0  0  0  0  0  0  0  0  0  0  0
   59.9912   35.2246   44.6968 H   0  0  0  0  0  0  0  0  0  0  0  0
   57.6202   34.9783   43.9348 H   0  0  0  0  0  0  0  0  0  0  0  0
   56.0134   33.6600   45.3253 H   0  0  0  0  0  0  0  0  0  0  0  0
  1  2  1  0
  2  3  2  0
  3  4  1  0
  4  5  2  0
  5  6  1  0
  6  7  2  0
  7  8  1  0
  8  9  1  0
  9 10  1  0
 10 11  1  0
 11 12  1  0
 11 13  1  0
 11 14  1  0
 14 15  2  0
 15 16  1  0
 16 17  2  0
 17 18  1  0
 18 19  2  0
  7  2  1  0
 19 14  1  0
  1 20  1  0
  1 21  1  0
  1 22  1  0
  3 23  1  0
  4 24  1  0
  5 25  1  0
  8 26  1  0
  8 27  1  0
  9 28  1  0
 10 29  1  0
 10 30  1  0
 15 31  1  0
 16 32  1  0
 17 33  1  0
 18 34  1  0
M  CHG  1   3   1
M  END
>  <UniqueID>  (20) 
19

>  <SMILES>  (20) 
Cc1[nH+]ccnc1CNCC(F)(F)c1ccccn1

>  <Energy>  (20) 
34.415205450357654

>  <Genealogy>  (20) 
Cc1[nH+]ccnc1CNCC(F)(F)c1ccccn1 (protonated)
Cc1[nH+]ccnc1CNCC(F)(F)c1ccccn1 (3D coordinates assigned)
Cc1[nH+]ccnc1CNCC(F)(F)c1ccccn1 (optimized conformer: 34.415205450357654 kcal/mol)

>  <smiles>  (20) 
Cc1nccnc1CNCC(F)(F)c1ccccn1

>  <score_type>  (20) 
oracle

>  <origin>  (20) 
adg

>  <m_score__min__energy>  (20) 
-4.2800000000000002

>  <m_primary>  (20) 
energy

$$$$
20:0
     RDKit          3D

 41 43  0  0  0  0  0  0  0  0999 V2000
   62.7550   33.8490   46.3840 C   0  0  0  0  0  0  0  0  0  0  0  0
   63.0190   33.4900   47.8240 C   0  0  0  0  0  0  0  0  0  0  0  0
   64.2890   33.1460   48.2000 N   0  0  0  0  0  0  0  0  0  0  0  0
   64.6050   32.9270   49.5060 C   0  0  0  0  0  0  0  0  0  0  0  0
   63.6560   33.0660   50.4690 N   0  0  0  0  0  0  0  0  0  0  0  0
   62.3780   33.4000   50.1510 C   0  0  0  0  0  0  0  0  0  0  0  0
   62.0060   33.5860   48.8120 C   0  0  0  0  0  0  0  0  0  0  0  0
   60.5900   33.9000   48.5000 C   0  0  0  0  0  0  0  0  0  0  0  0
   60.0800   34.9530   48.9710 O   0  0  0  0  0  0  0  0  0  0  0  0
   59.7810   33.0340   47.6770 N   0  0  0  0  0  0  0  0  0  0  0  0
   58.8270   33.7050   46.7830 C   0  0  0  0  0  0  0  0  0  0  0  0
   58.2980   32.7220   45.7560 C   0  0  0  0  0  0  0  0  0  0  0  0
   57.7550   31.6230   46.4440 O   0  0  0  0  0  0  0  0  0  0  0  0
   58.7950   30.8060   46.9540 C   0  0  0  0  0  0  0  0  0  0  0  0
   60.0110   31.5670   47.5920 C   0  0  2  0  0  0  0  0  0  0  0  0
   60.3850   30.9510   48.9750 C   0  0  0  0  0  0  0  0  0  0  0  0
   59.2480   31.0380   49.9690 C   0  0  0  0  0  0  0  0  0  0  0  0
   58.8400   32.2810   50.4840 C   0  0  0  0  0  0  0  0  0  0  0  0
   57.7650   32.3490   51.3720 C   0  0  0  0  0  0  0  0  0  0  0  0
   57.1080   31.1690   51.7430 C   0  0  0  0  0  0  0  0  0  0  0  0
   57.5190   29.9680   51.2450 N   0  0  0  0  0  0  0  0  0  0  0  0
   58.5630   29.8770   50.3790 C   0  0  0  0  0  0  0  0  0  0  0  0
   62.1038   34.7345   46.3403 H   0  0  0  0  0  0  0  0  0  0  0  0
   63.7078   34.0693   45.8804 H   0  0  0  0  0  0  0  0  0  0  0  0
   62.2607   33.0052   45.8804 H   0  0  0  0  0  0  0  0  0  0  0  0
   65.0500   33.0660   47.4870 H   0  0  0  0  0  0  0  0  0  0  0  0
   65.6296   32.6372   49.7822 H   0  0  0  0  0  0  0  0  0  0  0  0
   61.6309   33.5252   50.9486 H   0  0  0  0  0  0  0  0  0  0  0  0
   57.9883   34.0994   47.3754 H   0  0  0  0  0  0  0  0  0  0  0  0
   59.3376   34.5295   46.2638 H   0  0  0  0  0  0  0  0  0  0  0  0
   57.5186   33.2026   45.1465 H   0  0  0  0  0  0  0  0  0  0  0  0
   59.1092   32.3924   45.0902 H   0  0  0  0  0  0  0  0  0  0  0  0
   58.3630   30.1526   47.7263 H   0  0  0  0  0  0  0  0  0  0  0  0
   59.2025   30.2652   46.0871 H   0  0  0  0  0  0  0  0  0  0  0  0
   60.8720   31.4339   46.9205 H   0  0  0  0  0  0  0  0  0  0  0  0
   60.6488   29.8928   48.8311 H   0  0  0  0  0  0  0  0  0  0  0  0
   61.2313   31.5246   49.3809 H   0  0  0  0  0  0  0  0  0  0  0  0
   59.3676   33.1995   50.1873 H   0  0  0  0  0  0  0  0  0  0  0  0
   57.4376   33.3184   51.7758 H   0  0  0  0  0  0  0  0  0  0  0  0
   56.2571   31.2113   52.4388 H   0  0  0  0  0  0  0  0  0  0  0  0
   58.8741   28.8935   49.9970 H   0  0  0  0  0  0  0  0  0  0  0  0
  1  2  1  0
  2  3  2  0
  3  4  1  0
  4  5  2  0
  5  6  1  0
  6  7  2  0
  7  8  1  0
  8  9  2  0
  8 10  1  0
 10 11  1  0
 11 12  1  0
 12 13  1  0
 13 14  1  0
 14 15  1  0
 15 16  1  0
 16 17  1  0
 17 18  2  0
 18 19  1  0
 19 20  2  0
 20 21  1  0
 21 22  2  0
  7  2  1  0
 15 10  1  0
 22 17  1  0
  1 23  1  0
  1 24  1  0
  1 25  1  0
  3 26  1  0
  4 27  1  0
  6 28  1  0
 11 29  1  0
 11 30  1  0
 12 31  1  0
 12 32  1  0
 14 33  1  0
 14 34  1  0
 15 35  1  6
 16 36  1  0
 16 37  1  0
 18 38  1  0
 19 39  1  0
 20 40  1  0
 22 41  1  0
M  CHG  1   3   1
M  END
>  <UniqueID>  (21) 
20

>  <SMILES>  (21) 
Cc1[nH+]cncc1C(=O)N1CCOC[C@@H]1Cc1cccnc1

>  <Energy>  (21) 
61.55668558877964

>  <Genealogy>  (21) 
Cc1[nH+]cncc1C(=O)N1CCOCC1Cc1cccnc1 (protonated)
Cc1[nH+]cncc1C(=O)N1CCOC[C@@H]1Cc1cccnc1 (chirality)
Cc1[nH+]cncc1C(=O)N1CCOC[C@@H]1Cc1cccnc1 (3D coordinates assigned)
Cc1[nH+]cncc1C(=O)N1CCOC[C@@H]1Cc1cccnc1 (nonaromatic ring conformer: 61.55668558877964 kcal/mol)

>  <smiles>  (21) 
Cc1ncncc1C(=O)N1CCOCC1Cc1cccnc1

>  <score_type>  (21) 
oracle

>  <origin>  (21) 
adg

>  <m_score__min__energy>  (21) 
-6.0499999999999998

>  <m_primary>  (21) 
energy

$$$$
21:0
     RDKit          3D

 44 47  0  0  1  0  0  0  0  0999 V2000
   56.5430   23.5780   43.3660 C   0  0  0  0  0  0  0  0  0  0  0  0
   57.6700   24.1550   44.0280 O   0  0  0  0  0  0  0  0  0  0  0  0
   57.6430   25.5260   44.2550 C   0  0  0  0  0  0  0  0  0  0  0  0
   57.9960   26.4560   43.2940 C   0  0  0  0  0  0  0  0  0  0  0  0
   57.9540   27.8250   43.5670 C   0  0  0  0  0  0  0  0  0  0  0  0
   57.5440   28.2380   44.8390 C   0  0  0  0  0  0  0  0  0  0  0  0
   57.5040   29.6400   45.1100 N   0  0  0  0  0  0  0  0  0  0  0  0
   56.8120   30.5310   44.3420 C   0  0  0  0  0  0  0  0  0  0  0  0
   56.9860   31.7460   44.8730 N   0  0  0  0  0  0  0  0  0  0  0  0
   57.7710   31.6370   45.9580 C   0  0  0  0  0  0  0  0  0  0  0  0
   58.2570   32.5750   46.8650 C   0  0  0  0  0  0  0  0  0  0  0  0
   57.9050   33.7970   46.6530 N   0  0  0  0  0  0  0  0  0  0  0  0
   58.8970   34.8320   46.8300 C   0  0  0  0  0  0  0  0  0  0  0  0
   60.1540   34.5890   45.9990 C   0  0  0  0  0  0  0  0  0  0  0  0
   61.2350   34.1990   46.9120 C   0  0  0  0  0  0  0  0  0  0  0  0
   62.4740   33.8070   46.4150 C   0  0  0  0  0  0  0  0  0  0  0  0
   63.5170   33.4340   47.2370 C   0  0  0  0  0  0  0  0  0  0  0  0
   63.3330   33.4470   48.5920 C   0  0  0  0  0  0  0  0  0  0  0  0
   62.0910   33.8410   49.0580 C   0  0  0  0  0  0  0  0  0  0  0  0
   61.0840   34.2030   48.2400 N   0  0  0  0  0  0  0  0  0  0  0  0
   59.0420   32.1870   47.8840 N   0  0  0  0  0  0  0  0  0  0  0  0
   59.3320   30.8770   47.9860 C   0  0  0  0  0  0  0  0  0  0  0  0
   58.8710   29.9520   47.1170 N   0  0  0  0  0  0  0  0  0  0  0  0
   58.0950   30.3010   46.1020 C   0  0  0  0  0  0  0  0  0  0  0  0
   57.1930   27.3050   45.7950 C   0  0  0  0  0  0  0  0  0  0  0  0
   57.2330   25.9330   45.5280 C   0  0  0  0  0  0  0  0  0  0  0  0
   55.8260   23.2109   44.1152 H   0  0  0  0  0  0  0  0  0  0  0  0
   56.0583   24.3389   42.7366 H   0  0  0  0  0  0  0  0  0  0  0  0
   56.8769   22.7400   42.7366 H   0  0  0  0  0  0  0  0  0  0  0  0
   58.3148   26.1119   42.2990 H   0  0  0  0  0  0  0  0  0  0  0  0
   58.2366   28.5610   42.7999 H   0  0  0  0  0  0  0  0  0  0  0  0
   56.2181   30.2927   43.4473 H   0  0  0  0  0  0  0  0  0  0  0  0
   58.4581   35.7954   46.5313 H   0  0  0  0  0  0  0  0  0  0  0  0
   59.1930   34.8319   47.8894 H   0  0  0  0  0  0  0  0  0  0  0  0
   59.9708   33.7838   45.2723 H   0  0  0  0  0  0  0  0  0  0  0  0
   60.4297   35.5008   45.4489 H   0  0  0  0  0  0  0  0  0  0  0  0
   62.6275   33.7940   45.3258 H   0  0  0  0  0  0  0  0  0  0  0  0
   64.4835   33.1303   46.8085 H   0  0  0  0  0  0  0  0  0  0  0  0
   64.1384   33.1565   49.2825 H   0  0  0  0  0  0  0  0  0  0  0  0
   61.9185   33.8594   50.1442 H   0  0  0  0  0  0  0  0  0  0  0  0
   59.4030   32.8920   48.5590 H   0  0  0  0  0  0  0  0  0  0  0  0
   59.9739   30.5445   48.8151 H   0  0  0  0  0  0  0  0  0  0  0  0
   56.8745   27.6494   46.7900 H   0  0  0  0  0  0  0  0  0  0  0  0
   56.9508   25.1972   46.2954 H   0  0  0  0  0  0  0  0  0  0  0  0
  1  2  1  0
  2  3  1  0
  3  4  2  0
  4  5  1  0
  5  6  2  0
  6  7  1  0
  7  8  1  0
  8  9  2  0
  9 10  1  0
 10 11  1  0
 11 12  2  0
 12 13  1  0
 13 14  1  0
 14 15  1  0
 15 16  2  0
 16 17  1  0
 17 18  2  0
 18 19  1  0
 19 20  2  0
 11 21  1  0
 21 22  1  0
 22 23  2  0
 23 24  1  0
  6 25  1  0
 25 26  2  0
 26  3  1  0
 24  7  1  0
 24 10  2  0
 20 15  1  0
  1 27  1  0
  1 28  1  0
  1 29  1  0
  4 30  1  0
  5 31  1  0
  8 32  1  0
 13 33  1  0
 13 34  1  0
 14 35  1  0
 14 36  1  0
 16 37  1  0
 17 38  1  0
 18 39  1  0
 19 40  1  0
 21 41  1  0
 22 42  1  0
 25 43  1  0
 26 44  1  0
M  END
>  <smiles>  (22) 
COc1ccc(-n2cnc3c(=NCCc4ccccn4)[nH]cnc32)cc1

>  <score_type>  (22) 
oracle

>  <origin>  (22) 
adg

>  <m_score__min__energy>  (22) 
-7.3799999999999999

>  <m_primary>  (22) 
energy

$$$$
22:0
     RDKit          3D

 53 55  0  0  0  0  0  0  0  0999 V2000
   59.9226   30.5792   46.9752 H   0  0  0  0  0  0  0  0  0  0  0  0
   59.2730   31.1890   46.3300 C   0  0  0  0  0  0  0  0  0  0  0  0
   59.5740   32.4750   46.1220 C   0  0  0  0  0  0  0  0  0  0  0  0
   60.5154   32.8772   46.5244 H   0  0  0  0  0  0  0  0  0  0  0  0
   58.6510   33.3920   45.3460 C   0  0  0  0  0  0  0  0  0  0  0  0
   57.7850   34.1840   46.3340 C   0  0  0  0  0  0  0  0  0  0  0  0
   58.0709   33.9225   47.3635 H   0  0  0  0  0  0  0  0  0  0  0  0
   57.9377   35.2615   46.1735 H   0  0  0  0  0  0  0  0  0  0  0  0
   56.7254   33.9359   46.1735 H   0  0  0  0  0  0  0  0  0  0  0  0
   59.4850   34.3550   44.4920 C   0  0  0  0  0  0  0  0  0  0  0  0
   60.0624   35.0218   45.1493 H   0  0  0  0  0  0  0  0  0  0  0  0
   60.1743   33.7790   43.8571 H   0  0  0  0  0  0  0  0  0  0  0  0
   58.8164   34.9549   43.8571 H   0  0  0  0  0  0  0  0  0  0  0  0
   57.7940   32.6460   44.4740 O   0  0  0  0  0  0  0  0  0  0  0  0
   57.3870   31.3350   44.7460 C   0  0  0  0  0  0  0  0  0  0  0  0
   56.3090   30.7950   44.0440 C   0  0  0  0  0  0  0  0  0  0  0  0
   55.7904   31.3997   43.2855 H   0  0  0  0  0  0  0  0  0  0  0  0
   55.8870   29.4910   44.3010 C   0  0  0  0  0  0  0  0  0  0  0  0
   55.0384   29.0693   43.7424 H   0  0  0  0  0  0  0  0  0  0  0  0
   56.5380   28.7190   45.2650 C   0  0  0  0  0  0  0  0  0  0  0  0
   56.1050   27.4530   45.5070 N   0  0  0  0  0  0  0  0  0  0  0  0
   56.6840   26.6430   46.4300 C   0  0  0  0  0  0  0  0  0  0  0  0
   56.2080   25.4390   46.5810 N   0  0  0  0  0  0  0  0  0  0  0  0
   55.0640   24.8350   45.8930 C   0  0  0  0  0  0  0  0  0  0  0  0
   54.4047   25.6349   45.5250 H   0  0  0  0  0  0  0  0  0  0  0  0
   54.5326   24.1886   46.6070 H   0  0  0  0  0  0  0  0  0  0  0  0
   55.5160   23.9730   44.7040 C   0  0  0  0  0  0  0  0  0  0  0  0
   54.7817   24.0724   43.8910 H   0  0  0  0  0  0  0  0  0  0  0  0
   55.5870   22.9287   45.0423 H   0  0  0  0  0  0  0  0  0  0  0  0
   56.9040   24.4090   44.1830 C   0  0  0  0  0  0  0  0  0  0  0  0
   57.2517   25.2516   44.7988 H   0  0  0  0  0  0  0  0  0  0  0  0
   56.7688   24.6732   43.1238 H   0  0  0  0  0  0  0  0  0  0  0  0
   57.9460   23.3460   44.2210 N   0  0  0  0  0  0  0  0  0  0  0  0
   57.4260   21.9920   43.9180 C   0  0  0  0  0  0  0  0  0  0  0  0
   56.7578   21.6786   44.7336 H   0  0  0  0  0  0  0  0  0  0  0  0
   58.2867   21.3138   43.8220 H   0  0  0  0  0  0  0  0  0  0  0  0
   56.6480   21.9520   42.6010 C   0  0  0  0  0  0  0  0  0  0  0  0
   55.5701   21.8966   42.8134 H   0  0  0  0  0  0  0  0  0  0  0  0
   56.8612   22.8623   42.0214 H   0  0  0  0  0  0  0  0  0  0  0  0
   56.9534   21.0684   42.0214 H   0  0  0  0  0  0  0  0  0  0  0  0
   58.7450   23.3200   45.4690 C   0  0  0  0  0  0  0  0  0  0  0  0
   58.1019   22.9718   46.2907 H   0  0  0  0  0  0  0  0  0  0  0  0
   59.5968   22.6442   45.3025 H   0  0  0  0  0  0  0  0  0  0  0  0
   59.3120   24.6930   45.8400 C   0  0  0  0  0  0  0  0  0  0  0  0
   59.3519   24.7895   46.9350 H   0  0  0  0  0  0  0  0  0  0  0  0
   60.3259   24.7951   45.4258 H   0  0  0  0  0  0  0  0  0  0  0  0
   58.6656   25.4808   45.4258 H   0  0  0  0  0  0  0  0  0  0  0  0
   57.7670   27.1310   47.1830 C   0  0  0  0  0  0  0  0  0  0  0  0
   58.2404   26.4950   47.9455 H   0  0  0  0  0  0  0  0  0  0  0  0
   58.2390   28.4260   46.9590 C   0  0  0  0  0  0  0  0  0  0  0  0
   59.0860   28.8077   47.5480 H   0  0  0  0  0  0  0  0  0  0  0  0
   57.6390   29.2470   45.9850 C   0  0  0  0  0  0  0  0  0  0  0  0
   58.0770   30.5700   45.7050 C   0  0  0  0  0  0  0  0  0  0  0  0
  1  2  1  0
  2  3  2  0
  3  4  1  0
  3  5  1  0
  5  6  1  0
  6  7  1  0
  6  8  1  0
  6  9  1  0
  5 10  1  0
 10 11  1  0
 10 12  1  0
 10 13  1  0
  5 14  1  0
 14 15  1  0
 15 16  2  0
 16 17  1  0
 16 18  1  0
 18 19  1  0
 18 20  2  0
 20 21  1  0
 21 22  1  0
 22 23  2  0
 23 24  1  0
 24 25  1  0
 24 26  1  0
 24 27  1  0
 27 28  1  0
 27 29  1  0
 27 30  1  0
 30 31  1  0
 30 32  1  0
 30 33  1  0
 33 34  1  0
 34 35  1  0
 34 36  1  0
 34 37  1  0
 37 38  1  0
 37 39  1  0
 37 40  1  0
 33 41  1  0
 41 42  1  0
 41 43  1  0
 41 44  1  0
 44 45  1  0
 44 46  1  0
 44 47  1  0
 22 48  1  0
 48 49  1  0
 48 50  2  0
 50 51  1  0
 50 52  1  0
 52 53  2  0
 53  2  1  0
 53 15  1  0
 52 20  1  0
M  CHG  1  21  -1
M  END
>  <UniqueID>  (23) 
21

>  <SMILES>  (23) 
CCN(CC)CCC/N=c1\ccc2c3c(ccc2[n-]1)OC(C)(C)C=C3

>  <Energy>  (23) 
60.7292229123645

>  <Genealogy>  (23) 
CCN(CC)CCCN=c1ccc2c3c(ccc2[n-]1)OC(C)(C)C=C3 (protonated)
CCN(CC)CCC/N=c1\ccc2c3c(ccc2[n-]1)OC(C)(C)C=C3 (cis-trans isomerization)
CCN(CC)CCC/N=c1\ccc2c3c(ccc2[n-]1)OC(C)(C)C=C3 (3D coordinates assigned)
CCN(CC)CCC/N=c1\ccc2c3c(ccc2[n-]1)OC(C)(C)C=C3 (nonaromatic ring conformer: 60.7292229123645 kcal/mol)

>  <smiles>  (23) 
CCN(CC)CCCN=c1ccc2c3c(ccc2[nH]1)OC(C)(C)C=C3

>  <score_type>  (23) 
oracle

>  <origin>  (23) 
adg

>  <m_score__min__energy>  (23) 
-8.7400000000000002

>  <m_primary>  (23) 
energy

$$$$
23:0
     RDKit          3D

 49 51  0  0  0  0  0  0  0  0999 V2000
   63.6080   33.1150   47.0330 C   0  0  0  0  0  0  0  0  0  0  0  0
   62.0770   32.9910   47.1270 C   0  0  0  0  0  0  0  0  0  0  0  0
   61.5410   32.9040   48.5130 N   0  0  0  0  0  0  0  0  0  0  0  0
   62.5080   32.3560   49.5010 C   0  0  0  0  0  0  0  0  0  0  0  0
   62.2570   30.8770   49.8220 C   0  0  0  0  0  0  0  0  0  0  0  0
   60.9900   34.2120   48.9740 C   0  0  0  0  0  0  0  0  0  0  0  0
   59.6510   34.5590   48.2950 C   0  0  0  0  0  0  0  0  0  0  0  0
   58.8550   33.3560   48.0320 N   0  0  0  0  0  0  0  0  0  0  0  0
   58.5580   32.9010   46.6980 C   0  0  0  0  0  0  0  0  0  0  0  0
   58.0990   33.8560   45.7790 C   0  0  0  0  0  0  0  0  0  0  0  0
   57.7520   33.5020   44.4860 C   0  0  0  0  0  0  0  0  0  0  0  0
   57.8440   32.1750   44.0680 C   0  0  0  0  0  0  0  0  0  0  0  0
   57.4390   31.8220   42.6580 C   0  0  0  0  0  0  0  0  0  0  0  0
   58.3040   31.1950   44.9740 C   0  0  0  0  0  0  0  0  0  0  0  0
   58.3850   29.5770   44.4930 S   0  0  0  0  0  0  0  0  0  0  0  0
   58.9300   28.5570   45.7020 C   0  0  0  0  0  0  0  0  0  0  0  0
   59.0340   27.1820   45.4650 C   0  0  0  0  0  0  0  0  0  0  0  0
   59.4870   26.3340   46.4730 C   0  0  0  0  0  0  0  0  0  0  0  0
   59.8350   26.8590   47.7170 C   0  0  0  0  0  0  0  0  0  0  0  0
   59.7330   28.2330   47.9550 C   0  0  0  0  0  0  0  0  0  0  0  0
   59.2760   29.1200   46.9480 C   0  0  0  0  0  0  0  0  0  0  0  0
   59.1840   30.5230   47.2220 C   0  0  0  0  0  0  0  0  0  0  0  0
   59.5710   30.8910   48.3630 O   0  0  0  0  0  0  0  0  0  0  0  0
   58.6950   31.5270   46.3040 C   0  0  0  0  0  0  0  0  0  0  0  0
   64.0359   33.1497   48.0458 H   0  0  0  0  0  0  0  0  0  0  0  0
   64.0137   32.2468   46.4930 H   0  0  0  0  0  0  0  0  0  0  0  0
   63.8687   34.0372   46.4930 H   0  0  0  0  0  0  0  0  0  0  0  0
   61.6320   33.8728   46.6429 H   0  0  0  0  0  0  0  0  0  0  0  0
   61.8124   32.0444   46.6330 H   0  0  0  0  0  0  0  0  0  0  0  0
   60.7540   32.2170   48.4670 H   0  0  0  0  0  0  0  0  0  0  0  0
   63.5241   32.4594   49.0926 H   0  0  0  0  0  0  0  0  0  0  0  0
   62.3837   32.9231   50.4353 H   0  0  0  0  0  0  0  0  0  0  0  0
   62.2333   30.7375   50.9129 H   0  0  0  0  0  0  0  0  0  0  0  0
   61.2934   30.5668   49.3917 H   0  0  0  0  0  0  0  0  0  0  0  0
   63.0643   30.2663   49.3917 H   0  0  0  0  0  0  0  0  0  0  0  0
   60.8325   34.1651   50.0617 H   0  0  0  0  0  0  0  0  0  0  0  0
   61.7148   34.9943   48.7043 H   0  0  0  0  0  0  0  0  0  0  0  0
   59.0792   35.2292   48.9537 H   0  0  0  0  0  0  0  0  0  0  0  0
   59.8676   35.0469   47.3332 H   0  0  0  0  0  0  0  0  0  0  0  0
   58.5820   32.7580   48.8440 H   0  0  0  0  0  0  0  0  0  0  0  0
   58.0130   34.9071   46.0916 H   0  0  0  0  0  0  0  0  0  0  0  0
   57.4014   34.2729   43.7840 H   0  0  0  0  0  0  0  0  0  0  0  0
   56.6100   31.0995   42.6846 H   0  0  0  0  0  0  0  0  0  0  0  0
   57.1157   32.7317   42.1307 H   0  0  0  0  0  0  0  0  0  0  0  0
   58.2960   31.3775   42.1307 H   0  0  0  0  0  0  0  0  0  0  0  0
   58.7581   26.7707   44.4828 H   0  0  0  0  0  0  0  0  0  0  0  0
   59.5700   25.2528   46.2881 H   0  0  0  0  0  0  0  0  0  0  0  0
   60.1911   26.1897   48.5141 H   0  0  0  0  0  0  0  0  0  0  0  0
   60.0123   28.6328   48.9410 H   0  0  0  0  0  0  0  0  0  0  0  0
  1  2  1  0
  2  3  1  0
  3  4  1  0
  4  5  1  0
  3  6  1  0
  6  7  1  0
  7  8  1  0
  8  9  1  0
  9 10  2  0
 10 11  1  0
 11 12  2  0
 12 13  1  0
 12 14  1  0
 14 15  1  0
 15 16  1  0
 16 17  2  0
 17 18  1  0
 18 19  2  0
 19 20  1  0
 20 21  2  0
 21 22  1  0
 22 23  2  0
 22 24  1  0
 24  9  1  0
 24 14  2  0
 21 16  1  0
  1 25  1  0
  1 26  1  0
  1 27  1  0
  2 28  1  0
  2 29  1  0
  3 30  1  0
  4 31  1  0
  4 32  1  0
  5 33  1  0
  5 34  1  0
  5 35  1  0
  6 36  1  0
  6 37  1  0
  7 38  1  0
  7 39  1  0
  8 40  1  0
 10 41  1  0
 11 42  1  0
 13 43  1  0
 13 44  1  0
 13 45  1  0
 17 46  1  0
 18 47  1  0
 19 48  1  0
 20 49  1  0
M  CHG  1   3   1
M  END
>  <UniqueID>  (24) 
22

>  <SMILES>  (24) 
CC[NH+](CC)CCNc1ccc(C)c2sc3ccccc3c(=O)c12

>  <Energy>  (24) 
74.48688675306555

>  <Genealogy>  (24) 
CC[NH+](CC)CCNc1ccc(C)c2sc3ccccc3c(=O)c12 (protonated)
CC[NH+](CC)CCNc1ccc(C)c2sc3ccccc3c(=O)c12 (3D coordinates assigned)
CC[NH+](CC)CCNc1ccc(C)c2sc3ccccc3c(=O)c12 (optimized conformer: 74.48688675306555 kcal/mol)

>  <smiles>  (24) 
CCN(CC)CCNc1ccc(C)c2sc3ccccc3c(=O)c12

>  <score_type>  (24) 
oracle

>  <origin>  (24) 
adg

>  <m_score__min__energy>  (24) 
-5.5199999999999996

>  <m_primary>  (24) 
energy

$$$$
24:0
     RDKit          3D

 53 57  0  0  0  0  0  0  0  0999 V2000
   56.5070   30.5110   43.8690 C   0  0  0  0  0  0  0  0  0  0  0  0
   56.6430   31.4820   44.9010 O   0  0  0  0  0  0  0  0  0  0  0  0
   57.8700   31.9060   45.4310 C   0  0  0  0  0  0  0  0  0  0  0  0
   58.2020   33.2680   45.5750 C   0  0  0  0  0  0  0  0  0  0  0  0
   59.4360   33.6380   46.1180 C   0  0  0  0  0  0  0  0  0  0  0  0
   60.3440   32.6590   46.5440 C   0  0  0  0  0  0  0  0  0  0  0  0
   61.6060   33.0430   47.1030 N   0  0  0  0  0  0  0  0  0  0  0  0
   62.5530   33.7580   46.4450 C   0  0  0  0  0  0  0  0  0  0  0  0
   63.7270   33.8290   47.1890 C   0  0  0  0  0  0  0  0  0  0  0  0
   63.4520   33.1250   48.3370 C   0  0  0  0  0  0  0  0  0  0  0  0
   64.2670   32.8740   49.3870 N   0  0  0  0  0  0  0  0  0  0  0  0
   63.7740   32.1450   50.4300 C   0  0  0  0  0  0  0  0  0  0  0  0
   62.4780   31.6990   50.4180 N   0  0  0  0  0  0  0  0  0  0  0  0
   61.6420   31.9560   49.3640 C   0  0  0  0  0  0  0  0  0  0  0  0
   60.2590   31.5860   49.4490 N   0  0  0  0  0  0  0  0  0  0  0  0
   59.2850   32.5990   49.8850 C   0  0  0  0  0  0  0  0  0  0  0  0
   57.9230   31.9660   50.1740 C   0  0  0  0  0  0  0  0  0  0  0  0
   58.1070   30.7890   51.0350 N   0  0  0  0  0  0  0  0  0  0  0  0
   57.3630   30.6550   52.2600 C   0  0  0  0  0  0  0  0  0  0  0  0
   58.0170   30.7250   53.5020 C   0  0  0  0  0  0  0  0  0  0  0  0
   57.2900   30.6070   54.6900 C   0  0  0  0  0  0  0  0  0  0  0  0
   55.9050   30.4240   54.6500 C   0  0  0  0  0  0  0  0  0  0  0  0
   55.2010   30.3110   55.8030 F   0  0  0  0  0  0  0  0  0  0  0  0
   55.2450   30.3590   53.4190 C   0  0  0  0  0  0  0  0  0  0  0  0
   55.9690   30.4760   52.2280 C   0  0  0  0  0  0  0  0  0  0  0  0
   59.1250   29.7830   50.6910 C   0  0  0  0  0  0  0  0  0  0  0  0
   59.8870   30.1630   49.4170 C   0  0  0  0  0  0  0  0  0  0  0  0
   62.1680   32.6700   48.2760 C   0  0  0  0  0  0  0  0  0  0  0  0
   60.0280   31.3050   46.3710 C   0  0  0  0  0  0  0  0  0  0  0  0
   58.7950   30.9330   45.8280 C   0  0  0  0  0  0  0  0  0  0  0  0
   56.3677   29.5163   44.3175 H   0  0  0  0  0  0  0  0  0  0  0  0
   55.6347   30.7578   43.2460 H   0  0  0  0  0  0  0  0  0  0  0  0
   57.4136   30.5086   43.2460 H   0  0  0  0  0  0  0  0  0  0  0  0
   57.4878   34.0426   45.2591 H   0  0  0  0  0  0  0  0  0  0  0  0
   59.6956   34.7028   46.2114 H   0  0  0  0  0  0  0  0  0  0  0  0
   62.4118   34.2195   45.4565 H   0  0  0  0  0  0  0  0  0  0  0  0
   64.6654   34.3354   46.9187 H   0  0  0  0  0  0  0  0  0  0  0  0
   64.4224   31.9133   51.2879 H   0  0  0  0  0  0  0  0  0  0  0  0
   62.1170   31.1780   51.2470 H   0  0  0  0  0  0  0  0  0  0  0  0
   59.6567   33.0844   50.7994 H   0  0  0  0  0  0  0  0  0  0  0  0
   59.1630   33.3362   49.0777 H   0  0  0  0  0  0  0  0  0  0  0  0
   57.2788   32.6973   50.6841 H   0  0  0  0  0  0  0  0  0  0  0  0
   57.4506   31.6607   49.2287 H   0  0  0  0  0  0  0  0  0  0  0  0
   59.1063   30.8734   53.5394 H   0  0  0  0  0  0  0  0  0  0  0  0
   57.8091   30.6583   55.6585 H   0  0  0  0  0  0  0  0  0  0  0  0
   54.1548   30.2156   53.3872 H   0  0  0  0  0  0  0  0  0  0  0  0
   55.4452   30.4277   51.2619 H   0  0  0  0  0  0  0  0  0  0  0  0
   59.8398   29.6998   51.5229 H   0  0  0  0  0  0  0  0  0  0  0  0
   58.6149   28.8247   50.5134 H   0  0  0  0  0  0  0  0  0  0  0  0
   60.7983   29.5514   49.3433 H   0  0  0  0  0  0  0  0  0  0  0  0
   59.2399   29.9821   48.5460 H   0  0  0  0  0  0  0  0  0  0  0  0
   60.7533   30.5315   46.6637 H   0  0  0  0  0  0  0  0  0  0  0  0
   58.5494   29.8671   45.7116 H   0  0  0  0  0  0  0  0  0  0  0  0
  1  2  1  0
  2  3  1  0
  3  4  2  0
  4  5  1  0
  5  6  2  0
  6  7  1  0
  7  8  1  0
  8  9  2  0
  9 10  1  0
 10 11  2  0
 11 12  1  0
 12 13  2  0
 13 14  1  0
 14 15  1  0
 15 16  1  0
 16 17  1  0
 17 18  1  0
 18 19  1  0
 19 20  2  0
 20 21  1  0
 21 22  2  0
 22 23  1  0
 22 24  1  0
 24 25  2  0
 18 26  1  0
 26 27  1  0
 14 28  2  0
  6 29  1  0
 29 30  2  0
 30  3  1  0
 28  7  1  0
 28 10  1  0
 27 15  1  0
 25 19  1  0
  1 31  1  0
  1 32  1  0
  1 33  1  0
  4 34  1  0
  5 35  1  0
  8 36  1  0
  9 37  1  0
 12 38  1  0
 13 39  1  0
 16 40  1  0
 16 41  1  0
 17 42  1  0
 17 43  1  0
 20 44  1  0
 21 45  1  0
 24 46  1  0
 25 47  1  0
 26 48  1  0
 26 49  1  0
 27 50  1  0
 27 51  1  0
 29 52  1  0
 30 53  1  0
M  CHG  1  13   1
M  END
>  <UniqueID>  (25) 
23

>  <SMILES>  (25) 
COc1ccc(-n2ccc3nc[nH+]c(N4CCN(c5ccc(F)cc5)CC4)c32)cc1

>  <Energy>  (25) 
110.0294727847209

>  <Genealogy>  (25) 
COc1ccc(-n2ccc3nc[nH+]c(N4CCN(c5ccc(F)cc5)CC4)c32)cc1 (protonated)
COc1ccc(-n2ccc3nc[nH+]c(N4CCN(c5ccc(F)cc5)CC4)c32)cc1 (3D coordinates assigned)
COc1ccc(-n2ccc3nc[nH+]c(N4CCN(c5ccc(F)cc5)CC4)c32)cc1 (nonaromatic ring conformer: 110.0294727847209 kcal/mol)

>  <smiles>  (25) 
COc1ccc(-n2ccc3ncnc(N4CCN(c5ccc(F)cc5)CC4)c32)cc1

>  <score_type>  (25) 
oracle

>  <origin>  (25) 
adg

>  <m_score__min__energy>  (25) 
-5.9699999999999998

>  <m_primary>  (25) 
energy

$$$$
25:0
     RDKit          3D

 32 32  0  0  0  0  0  0  0  0999 V2000
   56.6230   22.6140   43.1160 C   0  0  0  0  0  0  0  0  0  0  0  0
   55.4810   23.4340   43.7160 C   0  0  0  0  0  0  0  0  0  0  0  0
   55.9380   24.3340   44.8730 C   0  0  0  0  0  0  0  0  0  0  0  0
   54.7660   24.9750   45.6210 C   0  0  0  0  0  0  0  0  0  0  0  0
   55.1240   26.3310   46.0160 N   0  0  0  0  0  0  0  0  0  0  0  0
   56.4800   26.7760   46.1110 C   0  0  0  0  0  0  0  0  0  0  0  0
   57.3250   26.1140   46.7730 O   0  0  0  0  0  0  0  0  0  0  0  0
   56.9080   28.0000   45.3750 C   0  0  0  0  0  0  0  0  0  0  0  0
   55.7970   28.8800   45.2450 O   0  0  0  0  0  0  0  0  0  0  0  0
   55.6850   29.8060   44.2040 C   0  0  0  0  0  0  0  0  0  0  0  0
   54.7920   29.6790   43.3230 O   0  0  0  0  0  0  0  0  0  0  0  0
   56.6180   30.9360   44.1330 C   0  0  0  0  0  0  0  0  0  0  0  0
   57.4520   31.2310   43.0700 C   0  0  0  0  0  0  0  0  0  0  0  0
   58.1450   32.3650   43.4370 C   0  0  0  0  0  0  0  0  0  0  0  0
   57.6820   32.6830   44.7010 C   0  0  0  0  0  0  0  0  0  0  0  0
   58.1150   33.7920   45.4930 N   0  0  0  0  0  0  0  0  0  0  0  0
   57.8100   33.8650   46.7020 O   0  0  0  0  0  0  0  0  0  0  0  0
   58.8750   34.7850   44.9230 O   0  0  0  0  0  0  0  0  0  0  0  0
   56.7760   31.8180   45.0930 O   0  0  0  0  0  0  0  0  0  0  0  0
   57.2276   22.1799   43.9259 H   0  0  0  0  0  0  0  0  0  0  0  0
   56.2078   21.8065   42.4951 H   0  0  0  0  0  0  0  0  0  0  0  0
   57.2555   23.2656   42.4951 H   0  0  0  0  0  0  0  0  0  0  0  0
   55.0510   24.0679   42.9265 H   0  0  0  0  0  0  0  0  0  0  0  0
   54.7417   22.7263   44.1193 H   0  0  0  0  0  0  0  0  0  0  0  0
   56.5188   23.7269   45.5829 H   0  0  0  0  0  0  0  0  0  0  0  0
   56.5424   25.1465   44.4434 H   0  0  0  0  0  0  0  0  0  0  0  0
   53.8844   25.0054   44.9638 H   0  0  0  0  0  0  0  0  0  0  0  0
   54.5351   24.3812   46.5177 H   0  0  0  0  0  0  0  0  0  0  0  0
   57.7121   28.5024   45.9327 H   0  0  0  0  0  0  0  0  0  0  0  0
   57.2775   27.7211   44.3771 H   0  0  0  0  0  0  0  0  0  0  0  0
   57.5437   30.6749   42.1254 H   0  0  0  0  0  0  0  0  0  0  0  0
   58.9043   32.9023   42.8498 H   0  0  0  0  0  0  0  0  0  0  0  0
  1  2  1  0
  2  3  1  0
  3  4  1  0
  4  5  1  0
  5  6  1  0
  6  7  2  0
  6  8  1  0
  8  9  1  0
  9 10  1  0
 10 11  2  0
 10 12  1  0
 12 13  2  0
 13 14  1  0
 14 15  2  0
 15 16  1  0
 16 17  2  0
 16 18  1  0
 15 19  1  0
 19 12  1  0
  1 20  1  0
  1 21  1  0
  1 22  1  0
  2 23  1  0
  2 24  1  0
  3 25  1  0
  3 26  1  0
  4 27  1  0
  4 28  1  0
  8 29  1  0
  8 30  1  0
 13 31  1  0
 14 32  1  0
M  CHG  3   5  -1  16   1  18  -1
M  END
>  <UniqueID>  (26) 
24

>  <SMILES>  (26) 
CCCC[N-]C(=O)COC(=O)c1ccc([N+](=O)[O-])o1

>  <Energy>  (26) 
42.59388372616914

>  <Genealogy>  (26) 
CCCC[N-]C(=O)COC(=O)c1ccc([N+](=O)[O-])o1 (protonated)
CCCC[N-]C(=O)COC(=O)c1ccc([N+](=O)[O-])o1 (3D coordinates assigned)
CCCC[N-]C(=O)COC(=O)c1ccc([N+](=O)[O-])o1 (optimized conformer: 42.59388372616914 kcal/mol)

>  <smiles>  (26) 
CCCCNC(=O)COC(=O)c1ccc([N+](=O)[O-])o1

>  <score_type>  (26) 
oracle

>  <origin>  (26) 
adg

>  <m_score__min__energy>  (26) 
-8.5399999999999991

>  <m_primary>  (26) 
energy

$$$$
26:0
     RDKit          3D

 53 55  0  0  0  0  0  0  0  0999 V2000
   57.3360   25.4730   46.3400 C   0  0  0  0  0  0  0  0  0  0  0  0
   58.7800   25.7690   45.9510 C   0  0  0  0  0  0  0  0  0  0  0  0
   59.0860   27.2340   46.1080 C   0  0  0  0  0  0  0  0  0  0  0  0
   59.2210   28.0540   44.9770 C   0  0  0  0  0  0  0  0  0  0  0  0
   59.5290   29.4110   45.1200 C   0  0  0  0  0  0  0  0  0  0  0  0
   59.6980   29.9730   46.4000 C   0  0  0  0  0  0  0  0  0  0  0  0
   60.0390   31.3610   46.5750 N   0  0  0  0  0  0  0  0  0  0  0  0
   59.2610   32.2760   47.3700 C   0  0  0  0  0  0  0  0  0  0  0  0
   58.5480   31.8210   48.3090 O   0  0  0  0  0  0  0  0  0  0  0  0
   59.3050   33.7060   47.1340 N   0  0  0  0  0  0  0  0  0  0  0  0
   60.1070   34.5790   48.0110 C   0  0  0  0  0  0  0  0  0  0  0  0
   61.5260   34.0840   48.1020 C   0  0  0  0  0  0  0  0  0  0  0  0
   62.1160   33.8520   49.3550 C   0  0  0  0  0  0  0  0  0  0  0  0
   63.4170   33.3450   49.4400 C   0  0  0  0  0  0  0  0  0  0  0  0
   64.1370   33.0660   48.2760 C   0  0  0  0  0  0  0  0  0  0  0  0
   63.5560   33.2900   47.0240 C   0  0  0  0  0  0  0  0  0  0  0  0
   62.2570   33.7980   46.9340 C   0  0  0  0  0  0  0  0  0  0  0  0
   58.5550   34.3310   46.0290 C   0  0  0  0  0  0  0  0  0  0  0  0
   58.0240   33.2950   45.0650 C   0  0  0  0  0  0  0  0  0  0  0  0
   58.5220   33.2310   43.7520 C   0  0  0  0  0  0  0  0  0  0  0  0
   58.0550   32.2550   42.8710 C   0  0  0  0  0  0  0  0  0  0  0  0
   57.0820   31.3480   43.3010 C   0  0  0  0  0  0  0  0  0  0  0  0
   56.6230   30.3630   42.4220 O   0  0  0  0  0  0  0  0  0  0  0  0
   56.6900   28.9720   42.7200 C   0  0  0  0  0  0  0  0  0  0  0  0
   56.5930   31.4350   44.5680 N   0  0  0  0  0  0  0  0  0  0  0  0
   57.0290   32.3780   45.4440 C   0  0  0  0  0  0  0  0  0  0  0  0
   59.5890   29.1440   47.5270 C   0  0  0  0  0  0  0  0  0  0  0  0
   59.2870   27.7860   47.3830 C   0  0  0  0  0  0  0  0  0  0  0  0
   57.2479   25.4549   47.4363 H   0  0  0  0  0  0  0  0  0  0  0  0
   56.6787   26.2551   45.9322 H   0  0  0  0  0  0  0  0  0  0  0  0
   57.0394   24.4954   45.9322 H   0  0  0  0  0  0  0  0  0  0  0  0
   59.4541   25.1884   46.5980 H   0  0  0  0  0  0  0  0  0  0  0  0
   58.9258   25.4893   44.8972 H   0  0  0  0  0  0  0  0  0  0  0  0
   59.0838   27.6272   43.9725 H   0  0  0  0  0  0  0  0  0  0  0  0
   59.6399   30.0432   44.2267 H   0  0  0  0  0  0  0  0  0  0  0  0
   60.9560   31.6800   46.1940 H   0  0  0  0  0  0  0  0  0  0  0  0
   60.1064   35.6001   47.6020 H   0  0  0  0  0  0  0  0  0  0  0  0
   59.6646   34.5707   49.0181 H   0  0  0  0  0  0  0  0  0  0  0  0
   61.5524   34.0700   50.2741 H   0  0  0  0  0  0  0  0  0  0  0  0
   63.8736   33.1658   50.4246 H   0  0  0  0  0  0  0  0  0  0  0  0
   65.1610   32.6701   48.3443 H   0  0  0  0  0  0  0  0  0  0  0  0
   64.1224   33.0660   46.1080 H   0  0  0  0  0  0  0  0  0  0  0  0
   61.8046   33.9748   45.9470 H   0  0  0  0  0  0  0  0  0  0  0  0
   57.7096   34.8977   46.4463 H   0  0  0  0  0  0  0  0  0  0  0  0
   59.2385   34.9954   45.4800 H   0  0  0  0  0  0  0  0  0  0  0  0
   59.2822   33.9526   43.4181 H   0  0  0  0  0  0  0  0  0  0  0  0
   58.4495   32.1997   41.8457 H   0  0  0  0  0  0  0  0  0  0  0  0
   56.6968   28.8306   43.8109 H   0  0  0  0  0  0  0  0  0  0  0  0
   55.8154   28.4623   42.2897 H   0  0  0  0  0  0  0  0  0  0  0  0
   57.6096   28.5487   42.2897 H   0  0  0  0  0  0  0  0  0  0  0  0
   56.6004   32.4238   46.4560 H   0  0  0  0  0  0  0  0  0  0  0  0
   59.7423   29.5655   48.5314 H   0  0  0  0  0  0  0  0  0  0  0  0
   59.2065   27.1465   48.2744 H   0  0  0  0  0  0  0  0  0  0  0  0
  1  2  1  0
  2  3  1  0
  3  4  2  0
  4  5  1  0
  5  6  2  0
  6  7  1  0
  7  8  1  0
  8  9  2  0
  8 10  1  0
 10 11  1  0
 11 12  1  0
 12 13  2  0
 13 14  1  0
 14 15  2  0
 15 16  1  0
 16 17  2  0
 10 18  1  0
 18 19  1  0
 19 20  2  0
 20 21  1  0
 21 22  2  0
 22 23  1  0
 23 24  1  0
 22 25  1  0
 25 26  2  0
  6 27  1  0
 27 28  2  0
 28  3  1  0
 17 12  1  0
 26 19  1  0
  1 29  1  0
  1 30  1  0
  1 31  1  0
  2 32  1  0
  2 33  1  0
  4 34  1  0
  5 35  1  0
  7 36  1  0
 11 37  1  0
 11 38  1  0
 13 39  1  0
 14 40  1  0
 15 41  1  0
 16 42  1  0
 17 43  1  0
 18 44  1  0
 18 45  1  0
 20 46  1  0
 21 47  1  0
 24 48  1  0
 24 49  1  0
 24 50  1  0
 26 51  1  0
 27 52  1  0
 28 53  1  0
M  END
>  <UniqueID>  (27) 
25

>  <SMILES>  (27) 
CCc1ccc(NC(=O)N(Cc2ccccc2)Cc2ccc(OC)nc2)cc1

>  <Energy>  (27) 
52.02564073670998

>  <Genealogy>  (27) 
CCc1ccc(NC(=O)N(Cc2ccccc2)Cc2ccc(OC)nc2)cc1 (3D coordinates assigned)
CCc1ccc(NC(=O)N(Cc2ccccc2)Cc2ccc(OC)nc2)cc1 (optimized conformer: 52.02564073670998 kcal/mol)

>  <smiles>  (27) 
CCc1ccc(NC(=O)N(Cc2ccccc2)Cc2ccc(OC)nc2)cc1

>  <score_type>  (27) 
oracle

>  <origin>  (27) 
adg

>  <m_score__min__energy>  (27) 
-7.7800000000000002

>  <m_primary>  (27) 
energy

$$$$
27:0
     RDKit          3D

 55 56  0  0  0  0  0  0  0  0999 V2000
   58.8560   31.2280   50.2900 H   0  0  0  0  0  0  0  0  0  0  0  0
   58.3520   32.0760   50.0670 O   0  0  0  0  0  0  0  0  0  0  0  0
   58.1130   32.4160   48.7570 N   0  0  0  0  0  0  0  0  0  0  0  0
   58.9570   33.1180   48.0590 C   0  0  0  0  0  0  0  0  0  0  0  0
   60.3970   32.9240   48.2730 C   0  0  0  0  0  0  0  0  0  0  0  0
   61.2490   34.0330   48.2920 C   0  0  0  0  0  0  0  0  0  0  0  0
   60.8476   35.0375   48.0922 H   0  0  0  0  0  0  0  0  0  0  0  0
   62.6070   33.8670   48.5640 C   0  0  0  0  0  0  0  0  0  0  0  0
   63.2752   34.7399   48.6047 H   0  0  0  0  0  0  0  0  0  0  0  0
   63.1130   32.5790   48.7850 C   0  0  0  0  0  0  0  0  0  0  0  0
   64.5710   32.3700   49.0570 C   0  0  0  0  0  0  0  0  0  0  0  0
   64.7415   32.3456   50.1434 H   0  0  0  0  0  0  0  0  0  0  0  0
   64.8937   31.4164   48.6137 H   0  0  0  0  0  0  0  0  0  0  0  0
   65.1486   33.1945   48.6137 H   0  0  0  0  0  0  0  0  0  0  0  0
   62.2580   31.5150   48.8080 N   0  0  0  0  0  0  0  0  0  0  0  0
   62.6290   30.5620   49.0390 H   0  0  0  0  0  0  0  0  0  0  0  0
   60.9250   31.6600   48.5720 C   0  0  0  0  0  0  0  0  0  0  0  0
   60.0790   30.5440   48.6390 O   0  0  0  0  0  0  0  0  0  0  0  0
   59.7520   29.7490   47.5230 C   0  0  0  0  0  0  0  0  0  0  0  0
   60.3970   30.0000   46.3070 C   0  0  0  0  0  0  0  0  0  0  0  0
   61.1957   30.7547   46.2571 H   0  0  0  0  0  0  0  0  0  0  0  0
   60.0310   29.2950   45.1520 C   0  0  0  0  0  0  0  0  0  0  0  0
   60.5469   29.4939   44.2011 H   0  0  0  0  0  0  0  0  0  0  0  0
   59.0120   28.3400   45.2060 C   0  0  0  0  0  0  0  0  0  0  0  0
   58.5300   27.4820   43.7500 Cl  0  0  0  0  0  0  0  0  0  0  0  0
   58.3780   28.0670   46.4230 C   0  0  0  0  0  0  0  0  0  0  0  0
   57.5832   27.3079   46.4684 H   0  0  0  0  0  0  0  0  0  0  0  0
   58.7510   28.7560   47.5830 C   0  0  0  0  0  0  0  0  0  0  0  0
   58.2638   28.5234   48.5414 H   0  0  0  0  0  0  0  0  0  0  0  0
   58.5180   34.0920   47.1010 N   0  0  0  0  0  0  0  0  0  0  0  0
   59.0740   34.9690   46.9810 H   0  0  0  0  0  0  0  0  0  0  0  0
   57.4810   33.8030   46.1100 C   0  0  0  0  0  0  0  0  0  0  0  0
   56.8795   34.7086   45.9421 H   0  0  0  0  0  0  0  0  0  0  0  0
   56.8465   32.9884   46.4892 H   0  0  0  0  0  0  0  0  0  0  0  0
   58.1070   33.3630   44.7850 C   0  0  0  0  0  0  0  0  0  0  0  0
   59.1925   33.5345   44.8326 H   0  0  0  0  0  0  0  0  0  0  0  0
   57.6415   33.9524   43.9813 H   0  0  0  0  0  0  0  0  0  0  0  0
   57.8540   31.8750   44.4840 C   0  0  0  0  0  0  0  0  0  0  0  0
   57.1833   31.4601   45.2508 H   0  0  0  0  0  0  0  0  0  0  0  0
   58.8168   31.3431   44.4921 H   0  0  0  0  0  0  0  0  0  0  0  0
   57.2290   31.7110   43.1500 N   0  0  0  0  0  0  0  0  0  0  0  0
   58.1430   32.1880   42.0840 C   0  0  0  0  0  0  0  0  0  0  0  0
   58.9564   31.4588   41.9552 H   0  0  0  0  0  0  0  0  0  0  0  0
   58.5457   33.1675   42.3812 H   0  0  0  0  0  0  0  0  0  0  0  0
   57.4010   32.3500   40.7540 C   0  0  0  0  0  0  0  0  0  0  0  0
   56.3435   32.5809   40.9499 H   0  0  0  0  0  0  0  0  0  0  0  0
   57.8549   33.1702   40.1785 H   0  0  0  0  0  0  0  0  0  0  0  0
   57.4717   31.4153   40.1785 H   0  0  0  0  0  0  0  0  0  0  0  0
   56.7990   30.3060   42.9180 C   0  0  0  0  0  0  0  0  0  0  0  0
   56.2372   30.2451   41.9743 H   0  0  0  0  0  0  0  0  0  0  0  0
   57.6841   29.6556   42.8590 H   0  0  0  0  0  0  0  0  0  0  0  0
   55.9100   29.8530   44.0690 C   0  0  0  0  0  0  0  0  0  0  0  0
   56.3942   30.0997   45.0254 H   0  0  0  0  0  0  0  0  0  0  0  0
   54.9391   30.3663   44.0064 H   0  0  0  0  0  0  0  0  0  0  0  0
   55.7547   28.7658   44.0064 H   0  0  0  0  0  0  0  0  0  0  0  0
  1  2  1  0
  2  3  1  0
  3  4  2  0
  4  5  1  0
  5  6  2  0
  6  7  1  0
  6  8  1  0
  8  9  1  0
  8 10  2  0
 10 11  1  0
 11 12  1  0
 11 13  1  0
 11 14  1  0
 10 15  1  0
 15 16  1  0
 15 17  2  0
 17 18  1  0
 18 19  1  0
 19 20  2  0
 20 21  1  0
 20 22  1  0
 22 23  1  0
 22 24  2  0
 24 25  1  0
 24 26  1  0
 26 27  1  0
 26 28  2  0
 28 29  1  0
  4 30  1  0
 30 31  1  0
 30 32  1  0
 32 33  1  0
 32 34  1  0
 32 35  1  0
 35 36  1  0
 35 37  1  0
 35 38  1  0
 38 39  1  0
 38 40  1  0
 38 41  1  0
 41 42  1  0
 42 43  1  0
 42 44  1  0
 42 45  1  0
 45 46  1  0
 45 47  1  0
 45 48  1  0
 41 49  1  0
 49 50  1  0
 49 51  1  0
 49 52  1  0
 52 53  1  0
 52 54  1  0
 52 55  1  0
 17  5  1  0
 28 19  1  0
M  CHG  1  15   1
M  END
>  <UniqueID>  (28) 
26

>  <SMILES>  (28) 
CCN(CC)CCCN/C(=N\O)c1ccc(C)[nH+]c1Oc1ccc(Cl)cc1

>  <Energy>  (28) 
65.97844739394718

>  <Genealogy>  (28) 
CCN(CC)CCCNC(=NO)c1ccc(C)[nH+]c1Oc1ccc(Cl)cc1 (protonated)
CCN(CC)CCCN/C(=N\O)c1ccc(C)[nH+]c1Oc1ccc(Cl)cc1 (cis-trans isomerization)
CCN(CC)CCCN/C(=N\O)c1ccc(C)[nH+]c1Oc1ccc(Cl)cc1 (3D coordinates assigned)
CCN(CC)CCCN/C(=N\O)c1ccc(C)[nH+]c1Oc1ccc(Cl)cc1 (optimized conformer: 65.97844739394718 kcal/mol)

>  <smiles>  (28) 
CCN(CC)CCCNC(=NO)c1ccc(C)nc1Oc1ccc(Cl)cc1

>  <score_type>  (28) 
oracle

>  <origin>  (28) 
adg

>  <m_score__min__energy>  (28) 
-6.4699999999999998

>  <m_primary>  (28) 
energy

$$$$
28:0
     RDKit          3D

 38 40  0  0  0  0  0  0  0  0999 V2000
   57.8050   27.4720   43.4840 C   0  0  0  0  0  0  0  0  0  0  0  0
   57.7160   28.8580   44.0480 C   0  0  0  0  0  0  0  0  0  0  0  0
   56.5080   29.5970   43.9480 C   0  0  0  0  0  0  0  0  0  0  0  0
   56.4080   30.8460   44.4930 N   0  0  0  0  0  0  0  0  0  0  0  0
   57.4770   31.3680   45.1430 C   0  0  0  0  0  0  0  0  0  0  0  0
   57.5450   32.5420   45.7150 O   0  0  0  0  0  0  0  0  0  0  0  0
   58.7510   32.6550   46.2390 C   0  0  0  0  0  0  0  0  0  0  0  0
   59.2680   33.8430   46.9530 C   0  0  0  0  0  0  0  0  0  0  0  0
   58.4880   34.8320   47.0610 O   0  0  0  0  0  0  0  0  0  0  0  0
   60.6050   33.9460   47.5240 N   0  0  0  0  0  0  0  0  0  0  0  0
   60.7470   33.3790   48.8850 C   0  0  0  0  0  0  0  0  0  0  0  0
   61.7770   34.0710   49.7940 C   0  0  0  0  0  0  0  0  0  0  0  0
   63.2610   33.7070   49.5690 C   0  0  0  0  0  0  0  0  0  0  0  0
   63.7900   33.8610   48.1400 C   0  0  0  0  0  0  0  0  0  0  0  0
   62.9950   33.0350   47.1250 C   0  0  0  0  0  0  0  0  0  0  0  0
   61.7360   33.7340   46.5830 C   0  0  0  0  0  0  0  0  0  0  0  0
   59.5020   31.5040   45.9820 C   0  0  0  0  0  0  0  0  0  0  0  0
   58.6490   30.6880   45.2750 C   0  0  0  0  0  0  0  0  0  0  0  0
   58.8110   29.4150   44.7430 C   0  0  0  0  0  0  0  0  0  0  0  0
   57.8518   26.7436   44.3069 H   0  0  0  0  0  0  0  0  0  0  0  0
   56.9180   27.2701   42.8656 H   0  0  0  0  0  0  0  0  0  0  0  0
   58.7106   27.3852   42.8656 H   0  0  0  0  0  0  0  0  0  0  0  0
   55.6438   29.1597   43.4265 H   0  0  0  0  0  0  0  0  0  0  0  0
   60.6950   34.9750   47.7130 H   0  0  0  0  0  0  0  0  0  0  0  0
   59.7663   33.4387   49.3796 H   0  0  0  0  0  0  0  0  0  0  0  0
   61.1150   32.3520   48.7441 H   0  0  0  0  0  0  0  0  0  0  0  0
   61.6747   35.1563   49.6467 H   0  0  0  0  0  0  0  0  0  0  0  0
   61.5456   33.7195   50.8103 H   0  0  0  0  0  0  0  0  0  0  0  0
   63.8668   34.3527   50.2217 H   0  0  0  0  0  0  0  0  0  0  0  0
   63.3363   32.6330   49.7947 H   0  0  0  0  0  0  0  0  0  0  0  0
   63.7304   34.9217   47.8548 H   0  0  0  0  0  0  0  0  0  0  0  0
   64.8272   33.4949   48.1277 H   0  0  0  0  0  0  0  0  0  0  0  0
   63.6548   32.8070   46.2749 H   0  0  0  0  0  0  0  0  0  0  0  0
   62.6506   32.1343   47.6543 H   0  0  0  0  0  0  0  0  0  0  0  0
   62.0434   34.7224   46.2106 H   0  0  0  0  0  0  0  0  0  0  0  0
   61.3402   33.0444   45.8229 H   0  0  0  0  0  0  0  0  0  0  0  0
   60.5410   31.2973   46.2783 H   0  0  0  0  0  0  0  0  0  0  0  0
   59.7553   28.8629   44.8588 H   0  0  0  0  0  0  0  0  0  0  0  0
  1  2  1  0
  2  3  2  0
  3  4  1  0
  4  5  2  0
  5  6  1  0
  6  7  1  0
  7  8  1  0
  8  9  2  0
  8 10  1  0
 10 11  1  0
 11 12  1  0
 12 13  1  0
 13 14  1  0
 14 15  1  0
 15 16  1  0
  7 17  2  0
 17 18  1  0
 18 19  2  0
 19  2  1  0
 18  5  1  0
 16 10  1  0
  1 20  1  0
  1 21  1  0
  1 22  1  0
  3 23  1  0
 10 24  1  0
 11 25  1  0
 11 26  1  0
 12 27  1  0
 12 28  1  0
 13 29  1  0
 13 30  1  0
 14 31  1  0
 14 32  1  0
 15 33  1  0
 15 34  1  0
 16 35  1  0
 16 36  1  0
 17 37  1  0
 19 38  1  0
M  CHG  1  10   1
M  END
>  <UniqueID>  (29) 
27

>  <SMILES>  (29) 
Cc1cnc2oc(C(=O)[NH+]3CCCCCC3)cc2c1

>  <Energy>  (29) 
97.18515689884862

>  <Genealogy>  (29) 
Cc1cnc2oc(C(=O)[NH+]3CCCCCC3)cc2c1 (protonated)
Cc1cnc2oc(C(=O)[NH+]3CCCCCC3)cc2c1 (3D coordinates assigned)
Cc1cnc2oc(C(=O)[NH+]3CCCCCC3)cc2c1 (nonaromatic ring conformer: 97.18515689884862 kcal/mol)

>  <smiles>  (29) 
Cc1cnc2oc(C(=O)N3CCCCCC3)cc2c1

>  <score_type>  (29) 
oracle

>  <origin>  (29) 
adg

>  <m_score__min__energy>  (29) 
-3.9100000000000001

>  <m_primary>  (29) 
energy

$$$$
29:0
     RDKit          3D

 36 38  0  0  0  0  0  0  0  0999 V2000
   63.0300   32.6880   47.1300 C   0  0  0  0  0  0  0  0  0  0  0  0
   61.5850   32.7730   47.4110 N   0  0  2  0  0  0  0  0  0  0  0  0
   61.2720   33.8610   48.3790 C   0  0  0  0  0  0  0  0  0  0  0  0
   59.7690   34.1910   48.5550 C   0  0  0  0  0  0  0  0  0  0  0  0
   59.0290   34.2710   47.2490 C   0  0  0  0  0  0  0  0  0  0  0  0
   57.7870   33.7090   46.9730 C   0  0  0  0  0  0  0  0  0  0  0  0
   57.3770   33.8990   45.6480 C   0  0  0  0  0  0  0  0  0  0  0  0
   58.3000   34.5880   44.8720 C   0  0  0  0  0  0  0  0  0  0  0  0
   59.6260   34.9600   45.8360 S   0  0  0  0  0  0  0  0  0  0  0  0
   61.0570   31.4410   47.7920 C   0  0  0  0  0  0  0  0  0  0  0  0
   59.9960   30.9500   46.8480 C   0  0  0  0  0  0  0  0  0  0  0  0
   59.3360   29.7760   47.0300 N   0  0  0  0  0  0  0  0  0  0  0  0
   58.5080   29.7550   45.9730 C   0  0  0  0  0  0  0  0  0  0  0  0
   57.5630   28.7870   45.6440 C   0  0  0  0  0  0  0  0  0  0  0  0
   56.7980   28.9910   44.4800 C   0  0  0  0  0  0  0  0  0  0  0  0
   56.9970   30.1440   43.6840 C   0  0  0  0  0  0  0  0  0  0  0  0
   56.2530   30.3290   42.5660 F   0  0  0  0  0  0  0  0  0  0  0  0
   57.9620   31.1030   44.0500 C   0  0  0  0  0  0  0  0  0  0  0  0
   58.6950   30.8670   45.2090 C   0  0  0  0  0  0  0  0  0  0  0  0
   59.6260   31.5990   45.7550 O   0  0  0  0  0  0  0  0  0  0  0  0
   63.5866   32.6553   48.0782 H   0  0  0  0  0  0  0  0  0  0  0  0
   63.2379   31.7761   46.5511 H   0  0  0  0  0  0  0  0  0  0  0  0
   63.3434   33.5693   46.5511 H   0  0  0  0  0  0  0  0  0  0  0  0
   61.1320   33.0410   46.5040 H   0  0  0  0  0  0  0  0  0  0  0  0
   61.6703   33.5650   49.3607 H   0  0  0  0  0  0  0  0  0  0  0  0
   61.7327   34.7709   47.9669 H   0  0  0  0  0  0  0  0  0  0  0  0
   59.3075   33.4059   49.1720 H   0  0  0  0  0  0  0  0  0  0  0  0
   59.7027   35.1799   49.0322 H   0  0  0  0  0  0  0  0  0  0  0  0
   57.1872   33.1694   47.7207 H   0  0  0  0  0  0  0  0  0  0  0  0
   56.4143   33.5367   45.2582 H   0  0  0  0  0  0  0  0  0  0  0  0
   58.1834   34.8460   43.8091 H   0  0  0  0  0  0  0  0  0  0  0  0
   61.8877   30.7200   47.7946 H   0  0  0  0  0  0  0  0  0  0  0  0
   60.5998   31.5356   48.7880 H   0  0  0  0  0  0  0  0  0  0  0  0
   57.4193   27.8948   46.2711 H   0  0  0  0  0  0  0  0  0  0  0  0
   56.0404   28.2491   44.1872 H   0  0  0  0  0  0  0  0  0  0  0  0
   58.1297   32.0045   43.4424 H   0  0  0  0  0  0  0  0  0  0  0  0
  1  2  1  0
  2  3  1  0
  3  4  1  0
  4  5  1  0
  5  6  2  0
  6  7  1  0
  7  8  2  0
  8  9  1  0
  2 10  1  0
 10 11  1  0
 11 12  2  0
 12 13  1  0
 13 14  2  0
 14 15  1  0
 15 16  2  0
 16 17  1  0
 16 18  1  0
 18 19  2  0
 19 20  1  0
  9  5  1  0
 20 11  1  0
 19 13  1  0
  1 21  1  0
  1 22  1  0
  1 23  1  0
  2 24  1  6
  3 25  1  0
  3 26  1  0
  4 27  1  0
  4 28  1  0
  6 29  1  0
  7 30  1  0
  8 31  1  0
 10 32  1  0
 10 33  1  0
 14 34  1  0
 15 35  1  0
 18 36  1  0
M  CHG  1   2   1
M  END
>  <UniqueID>  (30) 
28

>  <SMILES>  (30) 
C[N@H+](CCc1cccs1)Cc1nc2ccc(F)cc2o1

>  <Energy>  (30) 
102.54828641693794

>  <Genealogy>  (30) 
C[NH+](CCc1cccs1)Cc1nc2ccc(F)cc2o1 (protonated)
C[N@H+](CCc1cccs1)Cc1nc2ccc(F)cc2o1 (chirality)
C[N@H+](CCc1cccs1)Cc1nc2ccc(F)cc2o1 (3D coordinates assigned)
C[N@H+](CCc1cccs1)Cc1nc2ccc(F)cc2o1 (optimized conformer: 102.54828641693794 kcal/mol)

>  <smiles>  (30) 
CN(CCc1cccs1)Cc1nc2ccc(F)cc2o1

>  <score_type>  (30) 
oracle

>  <origin>  (30) 
adg

>  <m_score__min__energy>  (30) 
-4.4199999999999999

>  <m_primary>  (30) 
energy

$$$$
30:0
     RDKit          3D

 49 53  0  0  0  0  0  0  0  0999 V2000
   56.2710   29.4140   42.5590 C   0  0  0  0  0  0  0  0  0  0  0  0
   56.9500   29.9970   43.7620 C   0  0  0  0  0  0  0  0  0  0  0  0
   57.4430   29.1450   44.7810 C   0  0  0  0  0  0  0  0  0  0  0  0
   58.0520   29.6800   45.9310 C   0  0  0  0  0  0  0  0  0  0  0  0
   58.1450   31.0700   46.0390 C   0  0  0  0  0  0  0  0  0  0  0  0
   57.6450   31.8950   45.0630 C   0  0  0  0  0  0  0  0  0  0  0  0
   57.0420   31.3980   43.9120 C   0  0  0  0  0  0  0  0  0  0  0  0
   57.8820   33.1950   45.4520 C   0  0  0  0  0  0  0  0  0  0  0  0
   58.5280   33.0970   46.6830 C   0  0  0  0  0  0  0  0  0  0  0  0
   59.1330   34.2720   47.4050 C   0  0  0  0  0  0  0  0  0  0  0  0
   60.3920   34.7850   46.6950 C   0  0  0  0  0  0  0  0  0  0  0  0
   61.5850   34.0680   47.1500 N   0  0  0  0  0  0  0  0  0  0  0  0
   62.6010   33.6120   46.3740 C   0  0  0  0  0  0  0  0  0  0  0  0
   63.6120   33.0840   47.1060 N   0  0  0  0  0  0  0  0  0  0  0  0
   63.2120   33.2280   48.3810 C   0  0  0  0  0  0  0  0  0  0  0  0
   63.8940   32.8770   49.5430 C   0  0  0  0  0  0  0  0  0  0  0  0
   63.2700   33.1580   50.7740 C   0  0  0  0  0  0  0  0  0  0  0  0
   62.0010   33.7800   50.8090 C   0  0  0  0  0  0  0  0  0  0  0  0
   61.3410   34.1250   49.6150 C   0  0  0  0  0  0  0  0  0  0  0  0
   61.9850   33.8260   48.4120 C   0  0  0  0  0  0  0  0  0  0  0  0
   58.6890   31.7940   47.0370 N   0  0  0  0  0  0  0  0  0  0  0  0
   59.3730   31.2880   48.1940 C   0  0  0  0  0  0  0  0  0  0  0  0
   58.8100   31.4450   49.4710 C   0  0  0  0  0  0  0  0  0  0  0  0
   59.4700   30.9430   50.5970 C   0  0  0  0  0  0  0  0  0  0  0  0
   60.6930   30.2840   50.4550 C   0  0  0  0  0  0  0  0  0  0  0  0
   61.2620   30.1290   49.1870 C   0  0  0  0  0  0  0  0  0  0  0  0
   60.6050   30.6300   48.0590 C   0  0  0  0  0  0  0  0  0  0  0  0
   55.4736   28.7294   42.8838 H   0  0  0  0  0  0  0  0  0  0  0  0
   55.8355   30.2239   41.9553 H   0  0  0  0  0  0  0  0  0  0  0  0
   57.0057   28.8610   41.9553 H   0  0  0  0  0  0  0  0  0  0  0  0
   57.3487   28.0545   44.6720 H   0  0  0  0  0  0  0  0  0  0  0  0
   58.4434   29.0233   46.7219 H   0  0  0  0  0  0  0  0  0  0  0  0
   56.6483   32.0768   43.1411 H   0  0  0  0  0  0  0  0  0  0  0  0
   57.6179   34.1137   44.9076 H   0  0  0  0  0  0  0  0  0  0  0  0
   58.3921   35.0839   47.4486 H   0  0  0  0  0  0  0  0  0  0  0  0
   59.4178   33.9446   48.4158 H   0  0  0  0  0  0  0  0  0  0  0  0
   60.2773   34.6391   45.6108 H   0  0  0  0  0  0  0  0  0  0  0  0
   60.5152   35.8522   46.9315 H   0  0  0  0  0  0  0  0  0  0  0  0
   62.6035   33.6650   45.2753 H   0  0  0  0  0  0  0  0  0  0  0  0
   64.5090   32.6810   46.7560 H   0  0  0  0  0  0  0  0  0  0  0  0
   64.8834   32.3980   49.5012 H   0  0  0  0  0  0  0  0  0  0  0  0
   63.7737   32.8916   51.7149 H   0  0  0  0  0  0  0  0  0  0  0  0
   61.5257   33.9960   51.7772 H   0  0  0  0  0  0  0  0  0  0  0  0
   60.3548   34.6120   49.6285 H   0  0  0  0  0  0  0  0  0  0  0  0
   57.8471   31.9643   49.5858 H   0  0  0  0  0  0  0  0  0  0  0  0
   59.0254   31.0673   51.5955 H   0  0  0  0  0  0  0  0  0  0  0  0
   61.2092   29.8865   51.3413 H   0  0  0  0  0  0  0  0  0  0  0  0
   62.2270   29.6126   49.0769 H   0  0  0  0  0  0  0  0  0  0  0  0
   61.0552   30.5080   47.0628 H   0  0  0  0  0  0  0  0  0  0  0  0
  1  2  1  0
  2  3  2  0
  3  4  1  0
  4  5  2  0
  5  6  1  0
  6  7  2  0
  6  8  1  0
  8  9  2  0
  9 10  1  0
 10 11  1  0
 11 12  1  0
 12 13  1  0
 13 14  2  0
 14 15  1  0
 15 16  2  0
 16 17  1  0
 17 18  2  0
 18 19  1  0
 19 20  2  0
  9 21  1  0
 21 22  1  0
 22 23  2  0
 23 24  1  0
 24 25  2  0
 25 26  1  0
 26 27  2  0
  7  2  1  0
 20 12  1  0
 27 22  1  0
 21  5  1  0
 20 15  1  0
  1 28  1  0
  1 29  1  0
  1 30  1  0
  3 31  1  0
  4 32  1  0
  7 33  1  0
  8 34  1  0
 10 35  1  0
 10 36  1  0
 11 37  1  0
 11 38  1  0
 13 39  1  0
 14 40  1  0
 16 41  1  0
 17 42  1  0
 18 43  1  0
 19 44  1  0
 23 45  1  0
 24 46  1  0
 25 47  1  0
 26 48  1  0
 27 49  1  0
M  CHG  1  14   1
M  END
>  <UniqueID>  (31) 
29

>  <SMILES>  (31) 
Cc1ccc2c(c1)cc(CCn1c[nH+]c3ccccc31)n2-c1ccccc1

>  <Energy>  (31) 
127.05796800535022

>  <Genealogy>  (31) 
Cc1ccc2c(c1)cc(CCn1c[nH+]c3ccccc31)n2-c1ccccc1 (protonated)
Cc1ccc2c(c1)cc(CCn1c[nH+]c3ccccc31)n2-c1ccccc1 (3D coordinates assigned)
Cc1ccc2c(c1)cc(CCn1c[nH+]c3ccccc31)n2-c1ccccc1 (optimized conformer: 127.05796800535022 kcal/mol)

>  <smiles>  (31) 
Cc1ccc2c(c1)cc(CCn1cnc3ccccc31)n2-c1ccccc1

>  <score_type>  (31) 
oracle

>  <origin>  (31) 
adg

>  <m_score__min__energy>  (31) 
-7.4699999999999998

>  <m_primary>  (31) 
energy

$$$$
31:0
     RDKit          3D

 41 44  0  0  0  0  0  0  0  0999 V2000
   63.3910   33.4760   46.6510 C   0  0  0  0  0  0  0  0  0  0  0  0
   62.7260   33.0080   47.8640 N   0  0  0  0  0  0  0  0  0  0  0  0
   63.3370   32.6160   49.0000 C   0  0  0  0  0  0  0  0  0  0  0  0
   62.4520   32.2560   49.9480 N   0  0  0  0  0  0  0  0  0  0  0  0
   61.2330   32.4090   49.3930 C   0  0  0  0  0  0  0  0  0  0  0  0
   59.9680   32.0760   50.0860 C   0  0  0  0  0  0  0  0  0  0  0  0
   59.3850   30.8030   49.9560 C   0  0  0  0  0  0  0  0  0  0  0  0
   58.1930   30.5010   50.6220 C   0  0  0  0  0  0  0  0  0  0  0  0
   57.5790   31.4610   51.4290 C   0  0  0  0  0  0  0  0  0  0  0  0
   56.4230   31.1660   52.0740 F   0  0  0  0  0  0  0  0  0  0  0  0
   58.1580   32.7240   51.5750 C   0  0  0  0  0  0  0  0  0  0  0  0
   59.3500   33.0300   50.9120 C   0  0  0  0  0  0  0  0  0  0  0  0
   61.3980   32.8750   48.0920 C   0  0  0  0  0  0  0  0  0  0  0  0
   60.3350   33.2690   47.1440 C   0  0  0  0  0  0  0  0  0  0  0  0
   59.9760   34.6150   47.0040 C   0  0  0  0  0  0  0  0  0  0  0  0
   58.9570   34.9670   46.1190 C   0  0  0  0  0  0  0  0  0  0  0  0
   58.3270   34.0070   45.3910 N   0  0  0  0  0  0  0  0  0  0  0  0
   58.6530   32.6880   45.4880 C   0  0  0  0  0  0  0  0  0  0  0  0
   57.9060   31.7090   44.6640 C   0  0  0  0  0  0  0  0  0  0  0  0
   57.7540   31.8550   43.2720 C   0  0  0  0  0  0  0  0  0  0  0  0
   57.0270   30.9010   42.5570 C   0  0  0  0  0  0  0  0  0  0  0  0
   56.4510   29.8200   43.2230 C   0  0  0  0  0  0  0  0  0  0  0  0
   56.6050   29.7110   44.6050 C   0  0  0  0  0  0  0  0  0  0  0  0
   57.3170   30.6470   45.2860 N   0  0  0  0  0  0  0  0  0  0  0  0
   59.6640   32.2980   46.3860 C   0  0  0  0  0  0  0  0  0  0  0  0
   64.2624   34.0893   46.9239 H   0  0  0  0  0  0  0  0  0  0  0  0
   63.7226   32.6111   46.0577 H   0  0  0  0  0  0  0  0  0  0  0  0
   62.6888   34.0801   46.0577 H   0  0  0  0  0  0  0  0  0  0  0  0
   64.4283   32.5931   49.1359 H   0  0  0  0  0  0  0  0  0  0  0  0
   62.6760   31.9050   50.9060 H   0  0  0  0  0  0  0  0  0  0  0  0
   59.8689   30.0410   49.3274 H   0  0  0  0  0  0  0  0  0  0  0  0
   57.7384   29.5056   50.5100 H   0  0  0  0  0  0  0  0  0  0  0  0
   57.6751   33.4790   52.2128 H   0  0  0  0  0  0  0  0  0  0  0  0
   59.8066   34.0229   51.0376 H   0  0  0  0  0  0  0  0  0  0  0  0
   60.4942   35.3898   47.5881 H   0  0  0  0  0  0  0  0  0  0  0  0
   58.6631   36.0214   46.0100 H   0  0  0  0  0  0  0  0  0  0  0  0
   58.2042   32.7134   42.7520 H   0  0  0  0  0  0  0  0  0  0  0  0
   56.9087   31.0024   41.4681 H   0  0  0  0  0  0  0  0  0  0  0  0
   55.8817   29.0619   42.6651 H   0  0  0  0  0  0  0  0  0  0  0  0
   56.1499   28.8670   45.1440 H   0  0  0  0  0  0  0  0  0  0  0  0
   59.9271   31.2353   46.4931 H   0  0  0  0  0  0  0  0  0  0  0  0
  1  2  1  0
  2  3  1  0
  3  4  2  0
  4  5  1  0
  5  6  1  0
  6  7  2  0
  7  8  1  0
  8  9  2  0
  9 10  1  0
  9 11  1  0
 11 12  2  0
  5 13  2  0
 13 14  1  0
 14 15  2  0
 15 16  1  0
 16 17  2  0
 17 18  1  0
 18 19  1  0
 19 20  2  0
 20 21  1  0
 21 22  2  0
 22 23  1  0
 23 24  2  0
 18 25  2  0
 13  2  1  0
 25 14  1  0
 12  6  1  0
 24 19  1  0
  1 26  1  0
  1 27  1  0
  1 28  1  0
  3 29  1  0
  4 30  1  0
  7 31  1  0
  8 32  1  0
 11 33  1  0
 12 34  1  0
 15 35  1  0
 16 36  1  0
 20 37  1  0
 21 38  1  0
 22 39  1  0
 23 40  1  0
 25 41  1  0
M  CHG  1   4   1
M  END
>  <UniqueID>  (32) 
30

>  <SMILES>  (32) 
Cn1c[nH+]c(-c2ccc(F)cc2)c1-c1ccnc(-c2ccccn2)c1

>  <Energy>  (32) 
89.01117670168452

>  <Genealogy>  (32) 
Cn1c[nH+]c(-c2ccc(F)cc2)c1-c1ccnc(-c2ccccn2)c1 (protonated)
Cn1c[nH+]c(-c2ccc(F)cc2)c1-c1ccnc(-c2ccccn2)c1 (3D coordinates assigned)
Cn1c[nH+]c(-c2ccc(F)cc2)c1-c1ccnc(-c2ccccn2)c1 (optimized conformer: 89.01117670168452 kcal/mol)

>  <smiles>  (32) 
Cn1cnc(-c2ccc(F)cc2)c1-c1ccnc(-c2ccccn2)c1

>  <score_type>  (32) 
oracle

>  <origin>  (32) 
adg

>  <m_score__min__energy>  (32) 
-6.7599999999999998

>  <m_primary>  (32) 
energy

$$$$
32:0
     RDKit          3D

 38 39  0  0  0  0  0  0  0  0999 V2000
   56.6370   30.0490   43.2700 C   0  0  0  0  0  0  0  0  0  0  0  0
   56.4340   30.7560   44.4890 O   0  0  0  0  0  0  0  0  0  0  0  0
   57.3330   31.6910   45.0220 C   0  0  0  0  0  0  0  0  0  0  0  0
   57.0220   33.0590   45.1360 C   0  0  0  0  0  0  0  0  0  0  0  0
   57.9540   33.9510   45.6710 C   0  0  0  0  0  0  0  0  0  0  0  0
   59.2150   33.5010   46.0980 C   0  0  0  0  0  0  0  0  0  0  0  0
   60.2090   34.5030   46.6560 C   0  0  1  0  0  0  0  0  0  0  0  0
   59.6300   35.3430   47.6220 O   0  0  0  0  0  0  0  0  0  0  0  0
   61.4120   33.7980   47.2580 C   0  0  0  0  0  0  0  0  0  0  0  0
   62.6420   33.8440   46.5750 C   0  0  0  0  0  0  0  0  0  0  0  0
   63.7700   33.2010   47.0910 C   0  0  0  0  0  0  0  0  0  0  0  0
   63.6880   32.5040   48.2950 C   0  0  0  0  0  0  0  0  0  0  0  0
   62.4790   32.4450   48.9870 C   0  0  0  0  0  0  0  0  0  0  0  0
   61.3360   33.0850   48.4810 C   0  0  0  0  0  0  0  0  0  0  0  0
   60.1060   32.9950   49.2160 N   0  0  0  0  0  0  0  0  0  0  0  0
   59.3420   31.7500   49.1410 C   0  0  0  0  0  0  0  0  0  0  0  0
   59.9290   33.8460   50.3900 C   0  0  0  0  0  0  0  0  0  0  0  0
   59.5180   32.1300   45.9880 C   0  0  0  0  0  0  0  0  0  0  0  0
   58.5840   31.2380   45.4540 C   0  0  0  0  0  0  0  0  0  0  0  0
   56.9343   29.0135   43.4919 H   0  0  0  0  0  0  0  0  0  0  0  0
   55.7035   30.0458   42.6882 H   0  0  0  0  0  0  0  0  0  0  0  0
   57.4300   30.5415   42.6882 H   0  0  0  0  0  0  0  0  0  0  0  0
   56.0406   33.4271   44.8023 H   0  0  0  0  0  0  0  0  0  0  0  0
   57.6983   35.0172   45.7591 H   0  0  0  0  0  0  0  0  0  0  0  0
   60.5340   35.1254   45.8093 H   0  0  0  0  0  0  0  0  0  0  0  0
   59.3630   36.1780   47.1570 H   0  0  0  0  0  0  0  0  0  0  0  0
   62.7159   34.3924   45.6243 H   0  0  0  0  0  0  0  0  0  0  0  0
   64.7245   33.2450   46.5460 H   0  0  0  0  0  0  0  0  0  0  0  0
   64.5780   31.9999   48.6998 H   0  0  0  0  0  0  0  0  0  0  0  0
   62.4200   31.8929   49.9366 H   0  0  0  0  0  0  0  0  0  0  0  0
   59.1227   31.3926   50.1579 H   0  0  0  0  0  0  0  0  0  0  0  0
   58.3989   31.9303   48.6043 H   0  0  0  0  0  0  0  0  0  0  0  0
   59.9299   30.9908   48.6043 H   0  0  0  0  0  0  0  0  0  0  0  0
   60.0543   33.2436   51.3018 H   0  0  0  0  0  0  0  0  0  0  0  0
   60.6790   34.6505   50.3761 H   0  0  0  0  0  0  0  0  0  0  0  0
   58.9204   34.2847   50.3761 H   0  0  0  0  0  0  0  0  0  0  0  0
   60.4970   31.7585   46.3249 H   0  0  0  0  0  0  0  0  0  0  0  0
   58.8348   30.1701   45.3727 H   0  0  0  0  0  0  0  0  0  0  0  0
  1  2  1  0
  2  3  1  0
  3  4  2  0
  4  5  1  0
  5  6  2  0
  6  7  1  0
  7  8  1  0
  7  9  1  0
  9 10  2  0
 10 11  1  0
 11 12  2  0
 12 13  1  0
 13 14  2  0
 14 15  1  0
 15 16  1  0
 15 17  1  0
  6 18  1  0
 18 19  2  0
 19  3  1  0
 14  9  1  0
  1 20  1  0
  1 21  1  0
  1 22  1  0
  4 23  1  0
  5 24  1  0
  7 25  1  6
  8 26  1  0
 10 27  1  0
 11 28  1  0
 12 29  1  0
 13 30  1  0
 16 31  1  0
 16 32  1  0
 16 33  1  0
 17 34  1  0
 17 35  1  0
 17 36  1  0
 18 37  1  0
 19 38  1  0
M  END
>  <UniqueID>  (33) 
31

>  <SMILES>  (33) 
COc1ccc([C@@H](O)c2ccccc2N(C)C)cc1

>  <Energy>  (33) 
43.0451474796187

>  <Genealogy>  (33) 
COc1ccc([C@@H](O)c2ccccc2N(C)C)cc1 (chirality)
COc1ccc([C@@H](O)c2ccccc2N(C)C)cc1 (3D coordinates assigned)
COc1ccc([C@@H](O)c2ccccc2N(C)C)cc1 (optimized conformer: 43.0451474796187 kcal/mol)

>  <smiles>  (33) 
COc1ccc(C(O)c2ccccc2N(C)C)cc1

>  <score_type>  (33) 
oracle

>  <origin>  (33) 
adg

>  <m_score__min__energy>  (33) 
-6.4100000000000001

>  <m_primary>  (33) 
energy

$$$$
33:0
     RDKit          3D

 34 36  0  0  0  0  0  0  0  0999 V2000
   59.8163   30.9747   48.6512 H   0  0  0  0  0  0  0  0  0  0  0  0
   60.1040   31.7250   47.9000 C   0  0  0  0  0  0  0  0  0  0  0  0
   59.2010   32.0470   46.9600 C   0  0  0  0  0  0  0  0  0  0  0  0
   58.6640   33.3910   46.7340 C   0  0  0  0  0  0  0  0  0  0  0  0
   58.9750   34.4190   47.3930 O   0  0  0  0  0  0  0  0  0  0  0  0
   57.7660   33.4040   45.6270 N   0  0  0  0  0  0  0  0  0  0  0  0
   57.3430   34.5890   44.8880 C   0  0  0  0  0  0  0  0  0  0  0  0
   57.0601   35.3814   45.5966 H   0  0  0  0  0  0  0  0  0  0  0  0
   58.1709   34.9414   44.2552 H   0  0  0  0  0  0  0  0  0  0  0  0
   56.4791   34.3375   44.2552 H   0  0  0  0  0  0  0  0  0  0  0  0
   57.7590   32.0590   45.1480 C   0  0  0  0  0  0  0  0  0  0  0  0
   57.0090   31.5640   44.0780 C   0  0  0  0  0  0  0  0  0  0  0  0
   56.4030   32.2407   43.4576 H   0  0  0  0  0  0  0  0  0  0  0  0
   57.0440   30.1810   43.8090 C   0  0  0  0  0  0  0  0  0  0  0  0
   56.2820   29.6210   42.6450 C   0  0  0  0  0  0  0  0  0  0  0  0
   55.4471   29.0074   43.0144 H   0  0  0  0  0  0  0  0  0  0  0  0
   55.8881   30.4461   42.0334 H   0  0  0  0  0  0  0  0  0  0  0  0
   56.9519   28.9987   42.0334 H   0  0  0  0  0  0  0  0  0  0  0  0
   57.8320   29.3300   44.6160 C   0  0  0  0  0  0  0  0  0  0  0  0
   57.8624   28.2516   44.4013 H   0  0  0  0  0  0  0  0  0  0  0  0
   58.5760   29.8450   45.6880 C   0  0  0  0  0  0  0  0  0  0  0  0
   59.1627   29.1770   46.3358 H   0  0  0  0  0  0  0  0  0  0  0  0
   58.5570   31.2260   45.9170 C   0  0  0  0  0  0  0  0  0  0  0  0
   61.4520   32.3070   47.9940 C   0  0  0  0  0  0  0  0  0  0  0  0
   61.6630   33.4630   48.7540 C   0  0  0  0  0  0  0  0  0  0  0  0
   60.8306   33.9125   49.3153 H   0  0  0  0  0  0  0  0  0  0  0  0
   62.9310   34.0450   48.7990 C   0  0  0  0  0  0  0  0  0  0  0  0
   63.1085   34.9436   49.4081 H   0  0  0  0  0  0  0  0  0  0  0  0
   63.9720   33.4750   48.0630 C   0  0  0  0  0  0  0  0  0  0  0  0
   64.9767   33.9214   48.0978 H   0  0  0  0  0  0  0  0  0  0  0  0
   63.7470   32.3690   47.3030 N   0  0  0  0  0  0  0  0  0  0  0  0
   64.5320   31.9600   46.7490 H   0  0  0  0  0  0  0  0  0  0  0  0
   62.5180   31.7860   47.2450 C   0  0  0  0  0  0  0  0  0  0  0  0
   62.3601   30.9030   46.6084 H   0  0  0  0  0  0  0  0  0  0  0  0
  1  2  1  0
  2  3  2  0
  3  4  1  0
  4  5  2  0
  4  6  1  0
  6  7  1  0
  7  8  1  0
  7  9  1  0
  7 10  1  0
  6 11  1  0
 11 12  2  0
 12 13  1  0
 12 14  1  0
 14 15  1  0
 15 16  1  0
 15 17  1  0
 15 18  1  0
 14 19  2  0
 19 20  1  0
 19 21  1  0
 21 22  1  0
 21 23  2  0
  2 24  1  0
 24 25  2  0
 25 26  1  0
 25 27  1  0
 27 28  1  0
 27 29  2  0
 29 30  1  0
 29 31  1  0
 31 32  1  0
 31 33  2  0
 33 34  1  0
 23  3  1  0
 33 24  1  0
 23 11  1  0
M  CHG  1  31   1
M  END
>  <UniqueID>  (34) 
32

>  <SMILES>  (34) 
Cc1ccc2c(c1)N(C)C(=O)/C2=C/c1ccc[nH+]c1

>  <Energy>  (34) 
73.56026347301025

>  <Genealogy>  (34) 
Cc1ccc2c(c1)N(C)C(=O)C2=Cc1ccc[nH+]c1 (protonated)
Cc1ccc2c(c1)N(C)C(=O)/C2=C/c1ccc[nH+]c1 (cis-trans isomerization)
Cc1ccc2c(c1)N(C)C(=O)/C2=C/c1ccc[nH+]c1 (3D coordinates assigned)
Cc1ccc2c(c1)N(C)C(=O)/C2=C/c1ccc[nH+]c1 (nonaromatic ring conformer: 73.56026347301025 kcal/mol)

>  <smiles>  (34) 
Cc1ccc2c(c1)N(C)C(=O)C2=Cc1cccnc1

>  <score_type>  (34) 
oracle

>  <origin>  (34) 
adg

>  <m_score__min__energy>  (34) 
-6.0999999999999996

>  <m_primary>  (34) 
energy

$$$$
34:0
     RDKit          3D

 42 44  0  0  0  0  0  0  0  0999 V2000
   57.0190   31.4060   42.3410 C   0  0  0  0  0  0  0  0  0  0  0  0
   57.6980   31.8640   43.6070 C   0  0  0  0  0  0  0  0  0  0  0  0
   58.1910   33.1700   43.6720 C   0  0  0  0  0  0  0  0  0  0  0  0
   58.8440   33.6270   44.8220 C   0  0  0  0  0  0  0  0  0  0  0  0
   59.3690   35.0420   44.8480 C   0  0  0  0  0  0  0  0  0  0  0  0
   59.0120   32.7830   45.8930 N   0  0  0  0  0  0  0  0  0  0  0  0
   59.7040   33.2360   47.0720 C   0  0  0  0  0  0  0  0  0  0  0  0
   61.1070   33.2710   47.0970 C   0  0  0  0  0  0  0  0  0  0  0  0
   61.7780   33.7100   48.2420 C   0  0  0  0  0  0  0  0  0  0  0  0
   61.0520   34.1110   49.3680 C   0  0  0  0  0  0  0  0  0  0  0  0
   59.6550   34.0740   49.3500 C   0  0  0  0  0  0  0  0  0  0  0  0
   58.9810   33.6360   48.2060 C   0  0  0  0  0  0  0  0  0  0  0  0
   58.5160   31.5040   45.8670 C   0  0  0  0  0  0  0  0  0  0  0  0
   58.6490   30.7580   46.8770 O   0  0  0  0  0  0  0  0  0  0  0  0
   57.8450   31.0140   44.7250 C   0  0  0  0  0  0  0  0  0  0  0  0
   57.3070   29.6300   44.7210 C   0  0  0  0  0  0  0  0  0  0  0  0
   56.1910   29.3920   45.2560 O   0  0  0  0  0  0  0  0  0  0  0  0
   58.0420   28.5740   44.0810 N   0  0  0  0  0  0  0  0  0  0  0  0
   57.7700   27.1740   44.2730 C   0  0  0  0  0  0  0  0  0  0  0  0
   57.7800   26.2700   43.1950 C   0  0  0  0  0  0  0  0  0  0  0  0
   57.4880   24.9190   43.4060 C   0  0  0  0  0  0  0  0  0  0  0  0
   57.1710   24.4610   44.6870 C   0  0  0  0  0  0  0  0  0  0  0  0
   57.1370   25.3560   45.7600 C   0  0  0  0  0  0  0  0  0  0  0  0
   56.8190   24.9130   47.0010 F   0  0  0  0  0  0  0  0  0  0  0  0
   57.4290   26.7090   45.5530 C   0  0  0  0  0  0  0  0  0  0  0  0
   56.1320   30.8077   42.5965 H   0  0  0  0  0  0  0  0  0  0  0  0
   56.7126   32.2827   41.7515 H   0  0  0  0  0  0  0  0  0  0  0  0
   57.7171   30.7935   41.7515 H   0  0  0  0  0  0  0  0  0  0  0  0
   58.0647   33.8442   42.8121 H   0  0  0  0  0  0  0  0  0  0  0  0
   59.4903   35.3690   45.8913 H   0  0  0  0  0  0  0  0  0  0  0  0
   60.3417   35.0817   44.3358 H   0  0  0  0  0  0  0  0  0  0  0  0
   58.6576   35.7065   44.3358 H   0  0  0  0  0  0  0  0  0  0  0  0
   61.6797   32.9523   46.2136 H   0  0  0  0  0  0  0  0  0  0  0  0
   62.8775   33.7401   48.2574 H   0  0  0  0  0  0  0  0  0  0  0  0
   61.5810   34.4559   50.2687 H   0  0  0  0  0  0  0  0  0  0  0  0
   59.0854   34.3897   50.2365 H   0  0  0  0  0  0  0  0  0  0  0  0
   57.8815   33.6049   48.1950 H   0  0  0  0  0  0  0  0  0  0  0  0
   58.7530   28.8420   43.3650 H   0  0  0  0  0  0  0  0  0  0  0  0
   58.0184   26.6274   42.1824 H   0  0  0  0  0  0  0  0  0  0  0  0
   57.5080   24.2150   42.5610 H   0  0  0  0  0  0  0  0  0  0  0  0
   56.9482   23.3964   44.8512 H   0  0  0  0  0  0  0  0  0  0  0  0
   57.3911   27.4121   46.3981 H   0  0  0  0  0  0  0  0  0  0  0  0
  1  2  1  0
  2  3  1  0
  3  4  2  0
  4  5  1  0
  4  6  1  0
  6  7  1  0
  7  8  2  0
  8  9  1  0
  9 10  2  0
 10 11  1  0
 11 12  2  0
  6 13  1  0
 13 14  2  0
 13 15  1  0
 15 16  1  0
 16 17  2  0
 16 18  1  0
 18 19  1  0
 19 20  2  0
 20 21  1  0
 21 22  2  0
 22 23  1  0
 23 24  1  0
 23 25  2  0
 15  2  2  0
 25 19  1  0
 12  7  1  0
  1 26  1  0
  1 27  1  0
  1 28  1  0
  3 29  1  0
  5 30  1  0
  5 31  1  0
  5 32  1  0
  8 33  1  0
  9 34  1  0
 10 35  1  0
 11 36  1  0
 12 37  1  0
 18 38  1  0
 20 39  1  0
 21 40  1  0
 22 41  1  0
 25 42  1  0
M  END
>  <UniqueID>  (35) 
33

>  <SMILES>  (35) 
Cc1cc(C)n(-c2ccccc2)c(=O)c1C(=O)Nc1cccc(F)c1

>  <Energy>  (35) 
65.3401314841376

>  <Genealogy>  (35) 
Cc1cc(C)n(-c2ccccc2)c(=O)c1C(=O)Nc1cccc(F)c1 (3D coordinates assigned)
Cc1cc(C)n(-c2ccccc2)c(=O)c1C(=O)Nc1cccc(F)c1 (optimized conformer: 65.3401314841376 kcal/mol)

>  <smiles>  (35) 
Cc1cc(C)n(-c2ccccc2)c(=O)c1C(=O)Nc1cccc(F)c1

>  <score_type>  (35) 
oracle

>  <origin>  (35) 
adg

>  <m_score__min__energy>  (35) 
-8.3900000000000006

>  <m_primary>  (35) 
energy

$$$$
35:0
     RDKit          3D

 46 50  0  0  0  0  0  0  0  0999 V2000
   68.9210   32.2640   52.7000 C   0  0  0  0  0  0  0  0  0  0  0  0
   67.9330   31.3290   52.2820 O   0  0  0  0  0  0  0  0  0  0  0  0
   66.8410   31.6460   51.4610 C   0  0  0  0  0  0  0  0  0  0  0  0
   65.6370   30.9170   51.4900 C   0  0  0  0  0  0  0  0  0  0  0  0
   64.5770   31.2720   50.6500 C   0  0  0  0  0  0  0  0  0  0  0  0
   64.6970   32.3590   49.7670 C   0  0  0  0  0  0  0  0  0  0  0  0
   63.5710   32.7350   48.8750 C   0  0  0  0  0  0  0  0  0  0  0  0
   63.8110   33.1050   47.5230 C   0  0  0  0  0  0  0  0  0  0  0  0
   62.7780   33.4440   46.6940 N   0  0  0  0  0  0  0  0  0  0  0  0
   61.5130   33.4320   47.1820 C   0  0  0  0  0  0  0  0  0  0  0  0
   60.3200   33.7070   46.5580 C   0  0  0  0  0  0  0  0  0  0  0  0
   60.0220   34.1060   45.2570 C   0  0  0  0  0  0  0  0  0  0  0  0
   58.6710   34.3300   44.9380 C   0  0  0  0  0  0  0  0  0  0  0  0
   57.6660   34.1600   45.9140 C   0  0  0  0  0  0  0  0  0  0  0  0
   57.9950   33.7560   47.2210 C   0  0  0  0  0  0  0  0  0  0  0  0
   59.3430   33.5220   47.5190 C   0  0  0  0  0  0  0  0  0  0  0  0
   59.8860   33.1460   48.7060 N   0  0  0  0  0  0  0  0  0  0  0  0
   59.1960   32.8630   49.9350 C   0  0  0  0  0  0  0  0  0  0  0  0
   58.4090   31.7080   50.0560 C   0  0  0  0  0  0  0  0  0  0  0  0
   57.7410   31.4320   51.2530 C   0  0  0  0  0  0  0  0  0  0  0  0
   57.8570   32.3070   52.3370 C   0  0  0  0  0  0  0  0  0  0  0  0
   58.6410   33.4600   52.2230 C   0  0  0  0  0  0  0  0  0  0  0  0
   59.3090   33.7380   51.0270 C   0  0  0  0  0  0  0  0  0  0  0  0
   61.2240   33.0960   48.4810 C   0  0  0  0  0  0  0  0  0  0  0  0
   62.2420   32.7270   49.3580 C   0  0  0  0  0  0  0  0  0  0  0  0
   65.9020   33.0840   49.7420 C   0  0  0  0  0  0  0  0  0  0  0  0
   66.9620   32.7280   50.5820 C   0  0  0  0  0  0  0  0  0  0  0  0
   68.9543   32.2955   53.7990 H   0  0  0  0  0  0  0  0  0  0  0  0
   69.9035   31.9573   52.3120 H   0  0  0  0  0  0  0  0  0  0  0  0
   68.6689   33.2619   52.3120 H   0  0  0  0  0  0  0  0  0  0  0  0
   65.5296   30.0643   52.1766 H   0  0  0  0  0  0  0  0  0  0  0  0
   63.6408   30.6954   50.6805 H   0  0  0  0  0  0  0  0  0  0  0  0
   64.8417   33.1186   47.1390 H   0  0  0  0  0  0  0  0  0  0  0  0
   62.9660   33.7100   45.7010 H   0  0  0  0  0  0  0  0  0  0  0  0
   60.8148   34.2409   44.5065 H   0  0  0  0  0  0  0  0  0  0  0  0
   58.3952   34.6403   43.9193 H   0  0  0  0  0  0  0  0  0  0  0  0
   56.6143   34.3453   45.6502 H   0  0  0  0  0  0  0  0  0  0  0  0
   57.2157   33.6277   47.9866 H   0  0  0  0  0  0  0  0  0  0  0  0
   58.3170   31.0165   49.2055 H   0  0  0  0  0  0  0  0  0  0  0  0
   57.1238   30.5258   51.3417 H   0  0  0  0  0  0  0  0  0  0  0  0
   57.3322   32.0891   53.2789 H   0  0  0  0  0  0  0  0  0  0  0  0
   58.7319   34.1488   53.0758 H   0  0  0  0  0  0  0  0  0  0  0  0
   59.9251   34.6452   50.9412 H   0  0  0  0  0  0  0  0  0  0  0  0
   62.0184   32.4380   50.3955 H   0  0  0  0  0  0  0  0  0  0  0  0
   66.0115   33.9374   49.0566 H   0  0  0  0  0  0  0  0  0  0  0  0
   67.8989   33.3035   50.5514 H   0  0  0  0  0  0  0  0  0  0  0  0
  1  2  1  0
  2  3  1  0
  3  4  2  0
  4  5  1  0
  5  6  2  0
  6  7  1  0
  7  8  2  0
  8  9  1  0
  9 10  2  0
 10 11  1  0
 11 12  2  0
 12 13  1  0
 13 14  2  0
 14 15  1  0
 15 16  2  0
 16 17  1  0
 17 18  1  0
 18 19  2  0
 19 20  1  0
 20 21  2  0
 21 22  1  0
 22 23  2  0
 17 24  1  0
 24 25  2  0
  6 26  1  0
 26 27  2  0
 27  3  1  0
 25  7  1  0
 24 10  1  0
 16 11  1  0
 23 18  1  0
  1 28  1  0
  1 29  1  0
  1 30  1  0
  4 31  1  0
  5 32  1  0
  8 33  1  0
  9 34  1  0
 12 35  1  0
 13 36  1  0
 14 37  1  0
 15 38  1  0
 19 39  1  0
 20 40  1  0
 21 41  1  0
 22 42  1  0
 23 43  1  0
 25 44  1  0
 26 45  1  0
 27 46  1  0
M  CHG  1   9   1
M  END
>  <UniqueID>  (36) 
34

>  <SMILES>  (36) 
COc1ccc(-c2c[nH+]c3c4ccccc4n(-c4ccccc4)c3c2)cc1

>  <Energy>  (36) 
106.69962192481444

>  <Genealogy>  (36) 
COc1ccc(-c2c[nH+]c3c4ccccc4n(-c4ccccc4)c3c2)cc1 (protonated)
COc1ccc(-c2c[nH+]c3c4ccccc4n(-c4ccccc4)c3c2)cc1 (3D coordinates assigned)
COc1ccc(-c2c[nH+]c3c4ccccc4n(-c4ccccc4)c3c2)cc1 (optimized conformer: 106.69962192481444 kcal/mol)

>  <smiles>  (36) 
COc1ccc(-c2cnc3c4ccccc4n(-c4ccccc4)c3c2)cc1

>  <score_type>  (36) 
oracle

>  <origin>  (36) 
adg

>  <m_score__min__energy>  (36) 
-6.4800000000000004

>  <m_primary>  (36) 
energy

$$$$
36:0
     RDKit          3D

 43 45  0  0  0  0  0  0  0  0999 V2000
   61.5210   30.8650   48.8660 C   0  0  0  0  0  0  0  0  0  0  0  0
   60.1710   30.3340   48.6510 N   0  0  0  0  0  0  0  0  0  0  0  0
   59.9800   29.0730   47.9210 C   0  0  0  0  0  0  0  0  0  0  0  0
   59.0990   29.2960   46.7210 C   0  0  0  0  0  0  0  0  0  0  0  0
   59.3590   30.3640   45.8470 C   0  0  0  0  0  0  0  0  0  0  0  0
   58.5260   30.5940   44.7470 C   0  0  0  0  0  0  0  0  0  0  0  0
   57.4250   29.7630   44.5160 C   0  0  0  0  0  0  0  0  0  0  0  0
   56.2870   30.0800   43.0140 Br  0  0  0  0  0  0  0  0  0  0  0  0
   57.1570   28.7010   45.3860 C   0  0  0  0  0  0  0  0  0  0  0  0
   57.9880   28.4690   46.4860 C   0  0  0  0  0  0  0  0  0  0  0  0
   59.0360   31.0800   49.1280 C   0  0  0  0  0  0  0  0  0  0  0  0
   58.1480   30.5070   49.8170 O   0  0  0  0  0  0  0  0  0  0  0  0
   58.9460   32.4880   48.8650 N   0  0  0  0  0  0  0  0  0  0  0  0
   58.7260   33.1220   47.5950 C   0  0  0  0  0  0  0  0  0  0  0  0
   57.4620   33.1180   46.9820 C   0  0  0  0  0  0  0  0  0  0  0  0
   57.2740   33.7620   45.7620 C   0  0  0  0  0  0  0  0  0  0  0  0
   58.3520   34.3990   45.1510 C   0  0  0  0  0  0  0  0  0  0  0  0
   59.5800   34.3780   45.7350 N   0  0  0  0  0  0  0  0  0  0  0  0
   59.8020   33.7440   46.9250 C   0  0  0  0  0  0  0  0  0  0  0  0
   61.1690   33.7480   47.5040 C   0  0  0  0  0  0  0  0  0  0  0  0
   61.3750   34.2040   48.8160 C   0  0  0  0  0  0  0  0  0  0  0  0
   62.6610   34.2160   49.3670 C   0  0  0  0  0  0  0  0  0  0  0  0
   63.7500   33.7790   48.6090 C   0  0  0  0  0  0  0  0  0  0  0  0
   63.5580   33.3350   47.2990 C   0  0  0  0  0  0  0  0  0  0  0  0
   62.2740   33.3230   46.7450 C   0  0  0  0  0  0  0  0  0  0  0  0
   61.7170   30.9421   49.9456 H   0  0  0  0  0  0  0  0  0  0  0  0
   62.2580   30.1898   48.4068 H   0  0  0  0  0  0  0  0  0  0  0  0
   61.6005   31.8614   48.4068 H   0  0  0  0  0  0  0  0  0  0  0  0
   60.9576   28.6937   47.5887 H   0  0  0  0  0  0  0  0  0  0  0  0
   59.5004   28.3412   48.5876 H   0  0  0  0  0  0  0  0  0  0  0  0
   60.2213   31.0225   46.0282 H   0  0  0  0  0  0  0  0  0  0  0  0
   58.7371   31.4292   44.0630 H   0  0  0  0  0  0  0  0  0  0  0  0
   56.2911   28.0474   45.2044 H   0  0  0  0  0  0  0  0  0  0  0  0
   57.7710   27.6355   47.1703 H   0  0  0  0  0  0  0  0  0  0  0  0
   56.6186   32.6048   47.4671 H   0  0  0  0  0  0  0  0  0  0  0  0
   56.2830   33.7678   45.2847 H   0  0  0  0  0  0  0  0  0  0  0  0
   58.2094   34.9206   44.1931 H   0  0  0  0  0  0  0  0  0  0  0  0
   60.3700   34.8470   45.2370 H   0  0  0  0  0  0  0  0  0  0  0  0
   60.5205   34.5537   49.4139 H   0  0  0  0  0  0  0  0  0  0  0  0
   62.8146   34.5696   50.3972 H   0  0  0  0  0  0  0  0  0  0  0  0
   64.7601   33.7846   49.0446 H   0  0  0  0  0  0  0  0  0  0  0  0
   64.4172   32.9945   46.7025 H   0  0  0  0  0  0  0  0  0  0  0  0
   62.1276   32.9794   45.7103 H   0  0  0  0  0  0  0  0  0  0  0  0
  1  2  1  0
  2  3  1  0
  3  4  1  0
  4  5  2  0
  5  6  1  0
  6  7  2  0
  7  8  1  0
  7  9  1  0
  9 10  2  0
  2 11  1  0
 11 12  2  0
 11 13  1  0
 13 14  1  0
 14 15  2  0
 15 16  1  0
 16 17  2  0
 17 18  1  0
 18 19  2  0
 19 20  1  0
 20 21  2  0
 21 22  1  0
 22 23  2  0
 23 24  1  0
 24 25  2  0
 10  4  1  0
 19 14  1  0
 25 20  1  0
  1 26  1  0
  1 27  1  0
  1 28  1  0
  3 29  1  0
  3 30  1  0
  5 31  1  0
  6 32  1  0
  9 33  1  0
 10 34  1  0
 15 35  1  0
 16 36  1  0
 17 37  1  0
 18 38  1  0
 21 39  1  0
 22 40  1  0
 23 41  1  0
 24 42  1  0
 25 43  1  0
M  CHG  2  13  -1  18   1
M  END
>  <UniqueID>  (37) 
35

>  <SMILES>  (37) 
CN(Cc1ccc(Br)cc1)C(=O)[N-]c1ccc[nH+]c1-c1ccccc1

>  <Energy>  (37) 
51.619682608843505

>  <Genealogy>  (37) 
CN(Cc1ccc(Br)cc1)C(=O)[N-]c1ccc[nH+]c1-c1ccccc1 (protonated)
CN(Cc1ccc(Br)cc1)C(=O)[N-]c1ccc[nH+]c1-c1ccccc1 (3D coordinates assigned)
CN(Cc1ccc(Br)cc1)C(=O)[N-]c1ccc[nH+]c1-c1ccccc1 (optimized conformer: 51.619682608843505 kcal/mol)

>  <smiles>  (37) 
CN(Cc1ccc(Br)cc1)C(=O)Nc1cccnc1-c1ccccc1

>  <score_type>  (37) 
oracle

>  <origin>  (37) 
adg

>  <m_score__min__energy>  (37) 
-7.9800000000000004

>  <m_primary>  (37) 
energy

$$$$
37:0
     RDKit          3D

 61 65  0  0  0  0  0  0  0  0999 V2000
   56.6613   33.9259   43.8089 H   0  0  0  0  0  0  0  0  0  0  0  0
   57.4190   33.4860   44.4740 C   0  0  0  0  0  0  0  0  0  0  0  0
   58.1340   34.2850   45.3100 N   0  0  0  0  0  0  0  0  0  0  0  0
   59.0950   33.7710   46.1230 C   0  0  0  0  0  0  0  0  0  0  0  0
   59.7670   34.5640   46.9060 N   0  0  0  0  0  0  0  0  0  0  0  0
   60.3650   34.1510   48.1450 C   0  0  0  0  0  0  0  0  0  0  0  0
   59.6390   34.2310   49.3430 C   0  0  0  0  0  0  0  0  0  0  0  0
   58.6004   34.5930   49.3280 H   0  0  0  0  0  0  0  0  0  0  0  0
   60.2220   33.8560   50.5510 C   0  0  0  0  0  0  0  0  0  0  0  0
   59.6452   33.9367   51.4841 H   0  0  0  0  0  0  0  0  0  0  0  0
   61.5400   33.3760   50.5860 C   0  0  0  0  0  0  0  0  0  0  0  0
   62.1720   33.0030   51.9150 C   0  0  0  0  0  0  0  0  0  0  0  0
   61.4382   33.2124   52.7073 H   0  0  0  0  0  0  0  0  0  0  0  0
   62.5000   31.5060   51.9780 C   0  0  0  0  0  0  0  0  0  0  0  0
   62.5693   31.1897   53.0293 H   0  0  0  0  0  0  0  0  0  0  0  0
   61.7056   30.9351   51.4750 H   0  0  0  0  0  0  0  0  0  0  0  0
   63.4603   31.3196   51.4750 H   0  0  0  0  0  0  0  0  0  0  0  0
   63.4170   33.8560   52.1850 C   0  0  0  0  0  0  0  0  0  0  0  0
   63.5641   33.9568   53.2705 H   0  0  0  0  0  0  0  0  0  0  0  0
   64.2977   33.3707   51.7391 H   0  0  0  0  0  0  0  0  0  0  0  0
   63.2825   34.8525   51.7391 H   0  0  0  0  0  0  0  0  0  0  0  0
   62.2600   33.2690   49.3800 C   0  0  0  0  0  0  0  0  0  0  0  0
   63.2916   32.8875   49.3947 H   0  0  0  0  0  0  0  0  0  0  0  0
   61.6740   33.6450   48.1550 C   0  0  0  0  0  0  0  0  0  0  0  0
   62.3640   33.5500   46.9350 O   0  0  0  0  0  0  0  0  0  0  0  0
   63.7430   33.2120   46.8120 C   0  0  0  0  0  0  0  0  0  0  0  0
   64.1847   33.1037   47.8136 H   0  0  0  0  0  0  0  0  0  0  0  0
   63.8405   32.2634   46.2637 H   0  0  0  0  0  0  0  0  0  0  0  0
   64.2681   34.0080   46.2637 H   0  0  0  0  0  0  0  0  0  0  0  0
   59.3260   32.4300   46.1270 N   0  0  0  0  0  0  0  0  0  0  0  0
   58.6250   31.5920   45.3260 C   0  0  0  0  0  0  0  0  0  0  0  0
   57.6450   32.1050   44.4580 C   0  0  0  0  0  0  0  0  0  0  0  0
   56.9640   31.2080   43.4340 C   0  0  0  0  0  0  0  0  0  0  0  0
   57.5519   31.2335   42.5046 H   0  0  0  0  0  0  0  0  0  0  0  0
   55.9436   31.5949   43.2963 H   0  0  0  0  0  0  0  0  0  0  0  0
   56.8310   29.7330   43.8880 C   0  0  0  0  0  0  0  0  0  0  0  0
   56.6970   29.0957   43.0015 H   0  0  0  0  0  0  0  0  0  0  0  0
   55.9632   29.6527   44.5591 H   0  0  0  0  0  0  0  0  0  0  0  0
   58.0500   29.2820   44.6340 C   0  0  0  0  0  0  0  0  0  0  0  0
   58.3960   28.0060   44.8930 N   0  0  0  0  0  0  0  0  0  0  0  0
   59.4180   28.0440   45.7380 N   0  0  0  0  0  0  0  0  0  0  0  0
   60.0470   26.8460   46.2830 C   0  0  0  0  0  0  0  0  0  0  0  0
   60.0250   26.8879   47.3820 H   0  0  0  0  0  0  0  0  0  0  0  0
   59.5000   25.9558   45.9390 H   0  0  0  0  0  0  0  0  0  0  0  0
   61.0904   26.7909   45.9390 H   0  0  0  0  0  0  0  0  0  0  0  0
   59.7010   29.3260   46.0720 C   0  0  0  0  0  0  0  0  0  0  0  0
   60.7460   29.7480   47.0730 C   0  0  0  0  0  0  0  0  0  0  0  0
   61.5244   28.9723   47.1226 H   0  0  0  0  0  0  0  0  0  0  0  0
   61.1646   30.7102   46.7429 H   0  0  0  0  0  0  0  0  0  0  0  0
   60.1620   29.9410   48.4500 C   0  0  0  0  0  0  0  0  0  0  0  0
   59.0920   30.8310   48.6600 C   0  0  0  0  0  0  0  0  0  0  0  0
   58.7081   31.4326   47.8229 H   0  0  0  0  0  0  0  0  0  0  0  0
   58.5150   30.9540   49.9270 C   0  0  0  0  0  0  0  0  0  0  0  0
   57.6838   31.6568   50.0855 H   0  0  0  0  0  0  0  0  0  0  0  0
   58.9910   30.1870   50.9920 C   0  0  0  0  0  0  0  0  0  0  0  0
   58.5353   30.2861   51.9882 H   0  0  0  0  0  0  0  0  0  0  0  0
   60.0470   29.2930   50.7920 C   0  0  0  0  0  0  0  0  0  0  0  0
   60.4215   28.6886   51.6314 H   0  0  0  0  0  0  0  0  0  0  0  0
   60.6280   29.1660   49.5260 C   0  0  0  0  0  0  0  0  0  0  0  0
   61.4538   28.4560   49.3717 H   0  0  0  0  0  0  0  0  0  0  0  0
   58.8380   30.1410   45.3550 C   0  0  0  0  0  0  0  0  0  0  0  0
  1  2  1  0
  2  3  2  0
  3  4  1  0
  4  5  2  0
  5  6  1  0
  6  7  2  0
  7  8  1  0
  7  9  1  0
  9 10  1  0
  9 11  2  0
 11 12  1  0
 12 13  1  0
 12 14  1  0
 14 15  1  0
 14 16  1  0
 14 17  1  0
 12 18  1  0
 18 19  1  0
 18 20  1  0
 18 21  1  0
 11 22  1  0
 22 23  1  0
 22 24  2  0
 24 25  1  0
 25 26  1  0
 26 27  1  0
 26 28  1  0
 26 29  1  0
  4 30  1  0
 30 31  1  0
 31 32  2  0
 32 33  1  0
 33 34  1  0
 33 35  1  0
 33 36  1  0
 36 37  1  0
 36 38  1  0
 36 39  1  0
 39 40  2  0
 40 41  1  0
 41 42  1  0
 42 43  1  0
 42 44  1  0
 42 45  1  0
 41 46  1  0
 46 47  1  0
 47 48  1  0
 47 49  1  0
 47 50  1  0
 50 51  2  0
 51 52  1  0
 51 53  1  0
 53 54  1  0
 53 55  2  0
 55 56  1  0
 55 57  1  0
 57 58  1  0
 57 59  2  0
 59 60  1  0
 46 61  2  0
 32  2  1  0
 61 39  1  0
 24  6  1  0
 61 31  1  0
 59 50  1  0
M  CHG  1  30  -1
M  END
>  <UniqueID>  (38) 
36

>  <SMILES>  (38) 
COc1cc(C(C)C)ccc1/N=c1/ncc2c([n-]1)-c1c(nn(C)c1Cc1ccccc1)CC2

>  <Energy>  (38) 
101.26049673062478

>  <Genealogy>  (38) 
COc1cc(C(C)C)ccc1N=c1ncc2c([n-]1)-c1c(nn(C)c1Cc1ccccc1)CC2 (protonated)
COc1cc(C(C)C)ccc1/N=c1/ncc2c([n-]1)-c1c(nn(C)c1Cc1ccccc1)CC2 (cis-trans isomerization)
COc1cc(C(C)C)ccc1/N=c1/ncc2c([n-]1)-c1c(nn(C)c1Cc1ccccc1)CC2 (3D coordinates assigned)
COc1cc(C(C)C)ccc1/N=c1/ncc2c([n-]1)-c1c(nn(C)c1Cc1ccccc1)CC2 (nonaromatic ring conformer: 101.26049673062478 kcal/mol)

>  <smiles>  (38) 
COc1cc(C(C)C)ccc1N=c1ncc2c([nH]1)-c1c(nn(C)c1Cc1ccccc1)CC2

>  <score_type>  (38) 
oracle

>  <origin>  (38) 
adg

>  <m_score__min__energy>  (38) 
-10.460000000000001

>  <m_primary>  (38) 
energy

$$$$
38:0
     RDKit          3D

 43 45  0  0  0  0  0  0  0  0999 V2000
   58.1220   34.5450   43.7710 H   0  0  0  0  0  0  0  0  0  0  0  0
   58.5640   34.4210   44.7110 N   0  0  0  0  0  0  0  0  0  0  0  0
   58.5910   33.2720   45.3080 C   0  0  0  0  0  0  0  0  0  0  0  0
   59.1530   33.2110   46.5400 N   0  0  0  0  0  0  0  0  0  0  0  0
   59.3470   32.2090   47.4310 C   0  0  0  0  0  0  0  0  0  0  0  0
   60.1570   32.6530   48.9710 S   0  0  0  0  0  0  0  0  0  0  0  0
   61.3970   33.7620   48.2020 C   0  0  0  0  0  0  0  0  0  0  0  0
   60.9027   34.3498   47.4145 H   0  0  0  0  0  0  0  0  0  0  0  0
   61.8042   34.4055   48.9958 H   0  0  0  0  0  0  0  0  0  0  0  0
   62.5710   32.9970   47.5790 C   0  0  0  0  0  0  0  0  0  0  0  0
   63.2471   32.6719   48.3835 H   0  0  0  0  0  0  0  0  0  0  0  0
   62.1572   32.1395   47.0281 H   0  0  0  0  0  0  0  0  0  0  0  0
   63.3620   33.8480   46.5880 C   0  0  0  0  0  0  0  0  0  0  0  0
   64.0101   34.5453   47.1391 H   0  0  0  0  0  0  0  0  0  0  0  0
   63.9807   33.1944   45.9555 H   0  0  0  0  0  0  0  0  0  0  0  0
   62.6650   34.4173   45.9555 H   0  0  0  0  0  0  0  0  0  0  0  0
   58.9460   30.8770   47.2910 C   0  0  0  0  0  0  0  0  0  0  0  0
   59.1492   30.2121   48.1434 H   0  0  0  0  0  0  0  0  0  0  0  0
   58.3360   30.3170   46.2230 N   0  0  0  0  0  0  0  0  0  0  0  0
   57.9450   30.8660   45.0540 C   0  0  0  0  0  0  0  0  0  0  0  0
   58.0460   32.1770   44.6420 C   0  0  0  0  0  0  0  0  0  0  0  0
   57.4910   32.2830   43.4120 N   0  0  0  0  0  0  0  0  0  0  0  0
   57.0710   31.0390   43.1070 C   0  0  0  0  0  0  0  0  0  0  0  0
   56.5625   30.7772   42.1674 H   0  0  0  0  0  0  0  0  0  0  0  0
   57.3450   30.1530   44.0840 N   0  0  0  0  0  0  0  0  0  0  0  0
   56.9540   28.7400   44.1230 C   0  0  2  0  0  0  0  0  0  0  0  0
   56.0910   28.6048   43.4545 H   0  0  0  0  0  0  0  0  0  0  0  0
   56.5920   28.3700   45.4390 O   0  0  0  0  0  0  0  0  0  0  0  0
   57.4270   27.3020   45.8300 C   0  0  1  0  0  0  0  0  0  0  0  0
   58.2734   27.6523   46.4390 H   0  0  0  0  0  0  0  0  0  0  0  0
   56.6550   26.3290   46.7330 C   0  0  0  0  0  0  0  0  0  0  0  0
   57.2526   25.4161   46.8729 H   0  0  0  0  0  0  0  0  0  0  0  0
   56.4699   26.8187   47.7004 H   0  0  0  0  0  0  0  0  0  0  0  0
   55.4210   25.9870   46.1600 O   0  0  0  0  0  0  0  0  0  0  0  0
   55.4540   26.2910   45.2160 H   0  0  0  0  0  0  0  0  0  0  0  0
   58.0100   26.6610   44.5680 C   0  0  1  0  0  0  0  0  0  0  0  0
   58.9695   26.1504   44.7374 H   0  0  0  0  0  0  0  0  0  0  0  0
   57.1860   25.6410   44.0480 O   0  0  0  0  0  0  0  0  0  0  0  0
   56.6460   26.0230   43.3060 H   0  0  0  0  0  0  0  0  0  0  0  0
   58.1010   27.8470   43.6390 C   0  0  1  0  0  0  0  0  0  0  0  0
   59.0800   28.3480   43.6653 H   0  0  0  0  0  0  0  0  0  0  0  0
   57.9410   27.4690   42.2970 O   0  0  0  0  0  0  0  0  0  0  0  0
   57.1090   26.9290   42.2560 H   0  0  0  0  0  0  0  0  0  0  0  0
  1  2  1  0
  2  3  2  0
  3  4  1  0
  4  5  2  0
  5  6  1  0
  6  7  1  0
  7  8  1  0
  7  9  1  0
  7 10  1  0
 10 11  1  0
 10 12  1  0
 10 13  1  0
 13 14  1  0
 13 15  1  0
 13 16  1  0
  5 17  1  0
 17 18  1  0
 17 19  2  0
 19 20  1  0
 20 21  2  0
 21 22  1  0
 22 23  2  0
 23 24  1  0
 23 25  1  0
 25 26  1  0
 26 27  1  6
 26 28  1  0
 28 29  1  0
 29 30  1  1
 29 31  1  0
 31 32  1  0
 31 33  1  0
 31 34  1  0
 34 35  1  0
 29 36  1  0
 36 37  1  1
 36 38  1  0
 38 39  1  0
 36 40  1  0
 40 41  1  6
 40 42  1  0
 42 43  1  0
 21  3  1  0
 40 26  1  0
 25 20  1  0
M  END
>  <UniqueID>  (39) 
37

>  <SMILES>  (39) 
[H]/N=c1\nc(SCCC)cnc2c1ncn2[C@@H]1O[C@@H](CO)C(O)C1O

>  <Energy>  (39) 
86.35918536595457

>  <Genealogy>  (39) 
CCCSc1cnc2c(ncn2[C@@H]2O[C@@H](CO)C(O)C2O)c(=N)n1 (chirality)
[H]/N=c1\nc(SCCC)cnc2c1ncn2[C@@H]1O[C@@H](CO)C(O)C1O (cis-trans isomerization)
[H]/N=c1\nc(SCCC)cnc2c1ncn2[C@@H]1O[C@@H](CO)C(O)C1O (3D coordinates assigned)
[H]/N=c1\nc(SCCC)cnc2c1ncn2[C@@H]1O[C@@H](CO)C(O)C1O (nonaromatic ring conformer: 86.35918536595457 kcal/mol)

>  <smiles>  (39) 
CCCSc1cnc2c(ncn2C2OC(CO)C(O)C2O)c(=N)n1

>  <score_type>  (39) 
oracle

>  <origin>  (39) 
adg

>  <m_score__min__energy>  (39) 
-7.46

>  <m_primary>  (39) 
energy

$$$$
39:0
     RDKit          3D

 46 48  0  0  0  0  0  0  0  0999 V2000
   57.5910   32.3370   40.9970 C   0  0  0  0  0  0  0  0  0  0  0  0
   57.0210   31.5870   42.1940 C   0  0  0  0  0  0  0  0  0  0  0  0
   57.6890   32.0120   43.4210 N   0  0  0  0  0  0  0  0  0  0  0  0
   58.3980   33.1240   43.5390 N   0  0  0  0  0  0  0  0  0  0  0  0
   58.7840   33.1870   44.8330 C   0  0  0  0  0  0  0  0  0  0  0  0
   59.6280   34.2970   45.3760 C   0  0  0  0  0  0  0  0  0  0  0  0
   58.3090   32.1390   45.5510 N   0  0  0  0  0  0  0  0  0  0  0  0
   58.4720   31.8430   46.9490 C   0  0  0  0  0  0  0  0  0  0  0  0
   58.7400   30.5300   47.3660 C   0  0  0  0  0  0  0  0  0  0  0  0
   58.8920   30.2370   48.7240 C   0  0  0  0  0  0  0  0  0  0  0  0
   58.7790   31.2520   49.6860 C   0  0  0  0  0  0  0  0  0  0  0  0
   58.9040   30.9320   51.1500 C   0  0  0  0  0  0  0  0  0  0  0  0
   57.6400   30.3010   51.6480 C   0  0  0  0  0  0  0  0  0  0  0  0
   57.6490   29.0870   51.9890 O   0  0  0  0  0  0  0  0  0  0  0  0
   56.4590   31.1010   51.8190 N   0  0  0  0  0  0  0  0  0  0  0  0
   55.1660   30.5670   52.1560 C   0  0  0  0  0  0  0  0  0  0  0  0
   55.0200   29.2640   52.6640 C   0  0  0  0  0  0  0  0  0  0  0  0
   53.7500   28.7600   52.9630 C   0  0  0  0  0  0  0  0  0  0  0  0
   53.5790   27.1350   53.6010 Cl  0  0  0  0  0  0  0  0  0  0  0  0
   52.6150   29.5480   52.7430 C   0  0  0  0  0  0  0  0  0  0  0  0
   52.7480   30.8370   52.2160 C   0  0  0  0  0  0  0  0  0  0  0  0
   51.5800   31.6430   51.9800 C   0  0  0  0  0  0  0  0  0  0  0  0
   50.6390   32.2920   51.7880 N   0  0  0  0  0  0  0  0  0  0  0  0
   54.0210   31.3410   51.9160 C   0  0  0  0  0  0  0  0  0  0  0  0
   58.4910   32.5620   49.2720 C   0  0  0  0  0  0  0  0  0  0  0  0
   58.3400   32.8550   47.9130 C   0  0  0  0  0  0  0  0  0  0  0  0
   57.6300   31.4280   44.6300 C   0  0  0  0  0  0  0  0  0  0  0  0
   56.9940   30.3670   44.8760 O   0  0  0  0  0  0  0  0  0  0  0  0
   58.2213   33.1664   41.3502 H   0  0  0  0  0  0  0  0  0  0  0  0
   58.1967   31.6497   40.3882 H   0  0  0  0  0  0  0  0  0  0  0  0
   56.7666   32.7366   40.3882 H   0  0  0  0  0  0  0  0  0  0  0  0
   55.9443   31.7971   42.2751 H   0  0  0  0  0  0  0  0  0  0  0  0
   57.1839   30.5084   42.0521 H   0  0  0  0  0  0  0  0  0  0  0  0
   59.6070   34.2694   46.4755 H   0  0  0  0  0  0  0  0  0  0  0  0
   60.6636   34.1752   45.0258 H   0  0  0  0  0  0  0  0  0  0  0  0
   59.2337   35.2624   45.0258 H   0  0  0  0  0  0  0  0  0  0  0  0
   58.8309   29.7270   46.6197 H   0  0  0  0  0  0  0  0  0  0  0  0
   59.1015   29.2045   49.0405 H   0  0  0  0  0  0  0  0  0  0  0  0
   59.7421   30.2355   51.3001 H   0  0  0  0  0  0  0  0  0  0  0  0
   59.0864   31.8623   51.7079 H   0  0  0  0  0  0  0  0  0  0  0  0
   56.5660   32.1390   51.7870 H   0  0  0  0  0  0  0  0  0  0  0  0
   55.9094   28.6376   52.8271 H   0  0  0  0  0  0  0  0  0  0  0  0
   51.6170   29.1535   52.9847 H   0  0  0  0  0  0  0  0  0  0  0  0
   54.1228   32.3499   51.4897 H   0  0  0  0  0  0  0  0  0  0  0  0
   58.3836   33.3615   50.0198 H   0  0  0  0  0  0  0  0  0  0  0  0
   58.1164   33.8848   47.5974 H   0  0  0  0  0  0  0  0  0  0  0  0
  1  2  1  0
  2  3  1  0
  3  4  1  0
  4  5  2  0
  5  6  1  0
  5  7  1  0
  7  8  1  0
  8  9  2  0
  9 10  1  0
 10 11  2  0
 11 12  1  0
 12 13  1  0
 13 14  2  0
 13 15  1  0
 15 16  1  0
 16 17  2  0
 17 18  1  0
 18 19  1  0
 18 20  2  0
 20 21  1  0
 21 22  1  0
 22 23  3  0
 21 24  2  0
 11 25  1  0
 25 26  2  0
  7 27  1  0
 27 28  2  0
 27  3  1  0
 26  8  1  0
 24 16  1  0
  1 29  1  0
  1 30  1  0
  1 31  1  0
  2 32  1  0
  2 33  1  0
  6 34  1  0
  6 35  1  0
  6 36  1  0
  9 37  1  0
 10 38  1  0
 12 39  1  0
 12 40  1  0
 15 41  1  0
 17 42  1  0
 20 43  1  0
 24 44  1  0
 25 45  1  0
 26 46  1  0
M  END
>  <UniqueID>  (40) 
38

>  <SMILES>  (40) 
CCn1nc(C)n(-c2ccc(CC(=O)Nc3cc(Cl)cc(C#N)c3)cc2)c1=O

>  <Energy>  (40) 
86.79310311112498

>  <Genealogy>  (40) 
CCn1nc(C)n(-c2ccc(CC(=O)Nc3cc(Cl)cc(C#N)c3)cc2)c1=O (3D coordinates assigned)
CCn1nc(C)n(-c2ccc(CC(=O)Nc3cc(Cl)cc(C#N)c3)cc2)c1=O (optimized conformer: 86.79310311112498 kcal/mol)

>  <smiles>  (40) 
CCn1nc(C)n(-c2ccc(CC(=O)Nc3cc(Cl)cc(C#N)c3)cc2)c1=O

>  <score_type>  (40) 
oracle

>  <origin>  (40) 
adg

>  <m_score__min__energy>  (40) 
-8.3300000000000001

>  <m_primary>  (40) 
energy

$$$$
40:0
     RDKit          3D

 40 43  0  0  0  0  0  0  0  0999 V2000
   57.2730   34.1490   44.9100 C   0  0  0  0  0  0  0  0  0  0  0  0
   58.7200   34.5980   45.0770 C   0  0  0  0  0  0  0  0  0  0  0  0
   59.2590   34.1010   46.3380 N   0  0  0  0  0  0  0  0  0  0  0  0
   58.5380   33.6420   47.3790 C   0  0  0  0  0  0  0  0  0  0  0  0
   59.4070   33.3500   48.4110 C   0  0  0  0  0  0  0  0  0  0  0  0
   59.0180   32.9270   49.7740 C   0  0  0  0  0  0  0  0  0  0  0  0
   59.3260   33.7440   50.8760 C   0  0  0  0  0  0  0  0  0  0  0  0
   58.9710   33.3540   52.1710 C   0  0  0  0  0  0  0  0  0  0  0  0
   58.3130   32.1340   52.3810 C   0  0  0  0  0  0  0  0  0  0  0  0
   57.9560   31.7330   53.6340 N   0  0  0  0  0  0  0  0  0  0  0  0
   57.3220   30.5460   53.8330 C   0  0  0  0  0  0  0  0  0  0  0  0
   57.0330   29.7230   52.7410 C   0  0  0  0  0  0  0  0  0  0  0  0
   57.3860   30.1180   51.4910 N   0  0  0  0  0  0  0  0  0  0  0  0
   58.0180   31.3030   51.2800 C   0  0  0  0  0  0  0  0  0  0  0  0
   58.3760   31.6950   49.9860 C   0  0  0  0  0  0  0  0  0  0  0  0
   60.6700   33.6600   47.9090 C   0  0  0  0  0  0  0  0  0  0  0  0
   61.9820   33.4790   48.5670 C   0  0  0  0  0  0  0  0  0  0  0  0
   62.9020   32.5540   48.0450 C   0  0  0  0  0  0  0  0  0  0  0  0
   64.1410   32.3640   48.6660 C   0  0  0  0  0  0  0  0  0  0  0  0
   64.4660   33.0840   49.8190 C   0  0  0  0  0  0  0  0  0  0  0  0
   65.6660   32.8990   50.4190 F   0  0  0  0  0  0  0  0  0  0  0  0
   63.5470   33.9910   50.3570 C   0  0  0  0  0  0  0  0  0  0  0  0
   62.3080   34.1830   49.7400 C   0  0  0  0  0  0  0  0  0  0  0  0
   60.5440   34.1270   46.6500 N   0  0  0  0  0  0  0  0  0  0  0  0
   56.8164   34.0073   45.9007 H   0  0  0  0  0  0  0  0  0  0  0  0
   56.7130   34.9156   44.3544 H   0  0  0  0  0  0  0  0  0  0  0  0
   57.2453   33.2000   44.3544 H   0  0  0  0  0  0  0  0  0  0  0  0
   59.3212   34.2039   44.2444 H   0  0  0  0  0  0  0  0  0  0  0  0
   58.7568   35.6974   45.0792 H   0  0  0  0  0  0  0  0  0  0  0  0
   57.4450   33.5207   47.4027 H   0  0  0  0  0  0  0  0  0  0  0  0
   59.8506   34.6979   50.7181 H   0  0  0  0  0  0  0  0  0  0  0  0
   59.2082   34.0048   53.0255 H   0  0  0  0  0  0  0  0  0  0  0  0
   58.1660   32.3350   54.4620 H   0  0  0  0  0  0  0  0  0  0  0  0
   57.0380   30.2352   54.8492 H   0  0  0  0  0  0  0  0  0  0  0  0
   56.5224   28.7607   52.8935 H   0  0  0  0  0  0  0  0  0  0  0  0
   58.1545   31.0375   49.1324 H   0  0  0  0  0  0  0  0  0  0  0  0
   62.6468   31.9768   47.1441 H   0  0  0  0  0  0  0  0  0  0  0  0
   64.8611   31.6463   48.2459 H   0  0  0  0  0  0  0  0  0  0  0  0
   63.8001   34.5541   51.2674 H   0  0  0  0  0  0  0  0  0  0  0  0
   61.5840   34.8883   50.1740 H   0  0  0  0  0  0  0  0  0  0  0  0
  1  2  1  0
  2  3  1  0
  3  4  1  0
  4  5  2  0
  5  6  1  0
  6  7  2  0
  7  8  1  0
  8  9  2  0
  9 10  1  0
 10 11  2  0
 11 12  1  0
 12 13  2  0
 13 14  1  0
 14 15  2  0
  5 16  1  0
 16 17  1  0
 17 18  2  0
 18 19  1  0
 19 20  2  0
 20 21  1  0
 20 22  1  0
 22 23  2  0
 16 24  2  0
 24  3  1  0
 15  6  1  0
 23 17  1  0
 14  9  1  0
  1 25  1  0
  1 26  1  0
  1 27  1  0
  2 28  1  0
  2 29  1  0
  4 30  1  0
  7 31  1  0
  8 32  1  0
 10 33  1  0
 11 34  1  0
 12 35  1  0
 15 36  1  0
 18 37  1  0
 19 38  1  0
 22 39  1  0
 23 40  1  0
M  CHG  1  10   1
M  END
>  <UniqueID>  (41) 
39

>  <SMILES>  (41) 
CCn1cc(-c2ccc3[nH+]ccnc3c2)c(-c2ccc(F)cc2)n1

>  <Energy>  (41) 
82.02951711483513

>  <Genealogy>  (41) 
CCn1cc(-c2ccc3[nH+]ccnc3c2)c(-c2ccc(F)cc2)n1 (protonated)
CCn1cc(-c2ccc3[nH+]ccnc3c2)c(-c2ccc(F)cc2)n1 (3D coordinates assigned)
CCn1cc(-c2ccc3[nH+]ccnc3c2)c(-c2ccc(F)cc2)n1 (optimized conformer: 82.02951711483513 kcal/mol)

>  <smiles>  (41) 
CCn1cc(-c2ccc3nccnc3c2)c(-c2ccc(F)cc2)n1

>  <score_type>  (41) 
oracle

>  <origin>  (41) 
adg

>  <m_score__min__energy>  (41) 
-6.04

>  <m_primary>  (41) 
energy

$$$$
41:0
     RDKit          3D

 46 48  0  0  0  0  0  0  0  0999 V2000
   57.3157   25.3858   42.5822 H   0  0  0  0  0  0  0  0  0  0  0  0
   57.7650   25.8040   43.4950 C   0  0  0  0  0  0  0  0  0  0  0  0
   58.2520   27.1150   43.4920 C   0  0  0  0  0  0  0  0  0  0  0  0
   58.1901   27.7207   42.5759 H   0  0  0  0  0  0  0  0  0  0  0  0
   58.8190   27.6600   44.6530 C   0  0  0  0  0  0  0  0  0  0  0  0
   59.3530   28.9930   44.6550 N   0  0  0  0  0  0  0  0  0  0  0  0
   60.3800   29.0460   44.4960 H   0  0  0  0  0  0  0  0  0  0  0  0
   58.6440   30.0750   44.8870 C   0  0  0  0  0  0  0  0  0  0  0  0
   58.9120   30.9080   46.0520 N   0  0  0  0  0  0  0  0  0  0  0  0
   59.8030   30.4780   47.1420 C   0  0  0  0  0  0  0  0  0  0  0  0
   60.1056   31.3583   47.7281 H   0  0  0  0  0  0  0  0  0  0  0  0
   60.6839   29.9872   46.7025 H   0  0  0  0  0  0  0  0  0  0  0  0
   59.0990   29.4830   48.0620 C   0  0  0  0  0  0  0  0  0  0  0  0
   59.2908   29.7541   49.1107 H   0  0  0  0  0  0  0  0  0  0  0  0
   58.0163   29.5078   47.8690 H   0  0  0  0  0  0  0  0  0  0  0  0
   59.4827   28.4703   47.8690 H   0  0  0  0  0  0  0  0  0  0  0  0
   58.1860   32.1720   46.2670 C   0  0  0  0  0  0  0  0  0  0  0  0
   57.4886   32.0389   47.1071 H   0  0  0  0  0  0  0  0  0  0  0  0
   58.9321   32.9523   46.4779 H   0  0  0  0  0  0  0  0  0  0  0  0
   57.3920   32.6120   45.0370 C   0  0  0  0  0  0  0  0  0  0  0  0
   56.6900   33.4085   45.3249 H   0  0  0  0  0  0  0  0  0  0  0  0
   58.0928   32.9824   44.2743 H   0  0  0  0  0  0  0  0  0  0  0  0
   56.6410   31.4850   44.4830 N   0  0  0  0  0  0  0  0  0  0  0  0
   56.0840   31.0290   45.2450 H   0  0  0  0  0  0  0  0  0  0  0  0
   57.5610   30.5020   43.9070 C   0  0  0  0  0  0  0  0  0  0  0  0
   56.9859   29.6135   43.6073 H   0  0  0  0  0  0  0  0  0  0  0  0
   58.0563   30.9722   43.0447 H   0  0  0  0  0  0  0  0  0  0  0  0
   58.9320   26.8680   45.8020 C   0  0  0  0  0  0  0  0  0  0  0  0
   59.4068   27.2783   46.7054 H   0  0  0  0  0  0  0  0  0  0  0  0
   58.4440   25.5580   45.8060 C   0  0  0  0  0  0  0  0  0  0  0  0
   58.5290   24.9461   46.7161 H   0  0  0  0  0  0  0  0  0  0  0  0
   57.8460   25.0180   44.6560 C   0  0  0  0  0  0  0  0  0  0  0  0
   57.3520   23.6640   44.6620 N   0  0  0  0  0  0  0  0  0  0  0  0
   56.0320   23.3690   45.2330 C   0  0  0  0  0  0  0  0  0  0  0  0
   56.0814   23.4618   46.3280 H   0  0  0  0  0  0  0  0  0  0  0  0
   55.2992   24.0818   44.8269 H   0  0  0  0  0  0  0  0  0  0  0  0
   55.6000   21.9480   44.8660 C   0  0  0  0  0  0  0  0  0  0  0  0
   56.0708   21.2317   45.5553 H   0  0  0  0  0  0  0  0  0  0  0  0
   54.5059   21.8649   44.9435 H   0  0  0  0  0  0  0  0  0  0  0  0
   56.0020   21.6630   43.5440 O   0  0  0  0  0  0  0  0  0  0  0  0
   57.4050   21.4670   43.4920 C   0  0  0  0  0  0  0  0  0  0  0  0
   57.6362   20.4934   43.9488 H   0  0  0  0  0  0  0  0  0  0  0  0
   57.6958   21.5149   42.4322 H   0  0  0  0  0  0  0  0  0  0  0  0
   58.2160   22.5570   44.2310 C   0  0  0  0  0  0  0  0  0  0  0  0
   58.6942   22.1103   45.1152 H   0  0  0  0  0  0  0  0  0  0  0  0
   58.9728   22.9558   43.5395 H   0  0  0  0  0  0  0  0  0  0  0  0
  1  2  1  0
  2  3  2  0
  3  4  1  0
  3  5  1  0
  5  6  1  0
  6  7  1  0
  6  8  2  0
  8  9  1  0
  9 10  1  0
 10 11  1  0
 10 12  1  0
 10 13  1  0
 13 14  1  0
 13 15  1  0
 13 16  1  0
  9 17  1  0
 17 18  1  0
 17 19  1  0
 17 20  1  0
 20 21  1  0
 20 22  1  0
 20 23  1  0
 23 24  1  0
 23 25  1  0
 25 26  1  0
 25 27  1  0
  5 28  2  0
 28 29  1  0
 28 30  1  0
 30 31  1  0
 30 32  2  0
 32 33  1  0
 33 34  1  0
 34 35  1  0
 34 36  1  0
 34 37  1  0
 37 38  1  0
 37 39  1  0
 37 40  1  0
 40 41  1  0
 41 42  1  0
 41 43  1  0
 41 44  1  0
 44 45  1  0
 44 46  1  0
 32  2  1  0
 44 33  1  0
 25  8  1  0
M  CHG  1   6   1
M  END
>  <UniqueID>  (42) 
40

>  <SMILES>  (42) 
CCN1CCNC/C1=[NH+]\c1ccc(N2CCOCC2)cc1

>  <Energy>  (42) 
65.17054385995688

>  <Genealogy>  (42) 
CCN1CCNCC1=[NH+]c1ccc(N2CCOCC2)cc1 (protonated)
CCN1CCNC/C1=[NH+]\c1ccc(N2CCOCC2)cc1 (cis-trans isomerization)
CCN1CCNC/C1=[NH+]\c1ccc(N2CCOCC2)cc1 (3D coordinates assigned)
CCN1CCNC/C1=[NH+]\c1ccc(N2CCOCC2)cc1 (nonaromatic ring conformer: 65.17054385995688 kcal/mol)

>  <smiles>  (42) 
CCN1CCNCC1=Nc1ccc(N2CCOCC2)cc1

>  <score_type>  (42) 
oracle

>  <origin>  (42) 
adg

>  <m_score__min__energy>  (42) 
-5.29

>  <m_primary>  (42) 
energy

$$$$
42:0
     RDKit          3D

 74 79  0  0  0  0  0  0  0  0999 V2000
   60.0450   27.5320   45.9260 C   0  0  0  0  0  0  0  0  0  0  0  0
   60.4030   28.9250   46.4440 C   0  0  0  0  0  0  0  0  0  0  0  0
   59.3680   29.9060   46.0550 N   0  0  0  0  0  0  0  0  0  0  0  0
   58.2710   29.4210   45.3950 C   0  0  0  0  0  0  0  0  0  0  0  0
   57.2320   30.2610   44.9690 C   0  0  0  0  0  0  0  0  0  0  0  0
   56.0730   29.6730   44.2460 C   0  0  0  0  0  0  0  0  0  0  0  0
   55.1520   29.0830   44.8700 O   0  0  0  0  0  0  0  0  0  0  0  0
   55.9880   29.7650   42.8590 O   0  0  0  0  0  0  0  0  0  0  0  0
   57.3270   31.6360   45.2380 C   0  0  0  0  0  0  0  0  0  0  0  0
   56.4170   32.4220   44.8540 O   0  0  0  0  0  0  0  0  0  0  0  0
   58.4430   32.1420   45.9260 C   0  0  0  0  0  0  0  0  0  0  0  0
   58.5650   33.5210   46.1790 C   0  0  0  0  0  0  0  0  0  0  0  0
   59.6740   34.0310   46.8470 C   0  0  0  0  0  0  0  0  0  0  0  0
   59.7810   35.3750   47.0040 F   0  0  0  0  0  0  0  0  0  0  0  0
   60.6830   33.1700   47.3030 C   0  0  0  0  0  0  0  0  0  0  0  0
   61.8590   33.6880   47.9530 N   0  0  0  0  0  0  0  0  0  0  0  0
   61.7640   34.2180   49.3210 C   0  0  0  0  0  0  0  0  0  0  0  0
   63.1110   34.1270   50.0600 C   0  0  0  0  0  0  0  0  0  0  0  0
   63.8910   32.9890   49.5650 N   0  0  0  0  0  0  0  0  0  0  0  0
   64.5390   32.0880   50.4720 C   0  0  0  0  0  0  0  0  0  0  0  0
   65.7970   32.0910   50.5530 O   0  0  0  0  0  0  0  0  0  0  0  0
   63.7680   31.0690   51.2040 C   0  0  0  0  0  0  0  0  0  0  0  0
   62.4040   31.0670   51.4310 C   0  0  0  0  0  0  0  0  0  0  0  0
   62.1520   29.8610   52.0690 C   0  0  0  0  0  0  0  0  0  0  0  0
   60.8290   29.4410   52.5950 C   0  0  0  0  0  0  0  0  0  0  0  0
   59.6520   29.6760   51.8600 C   0  0  0  0  0  0  0  0  0  0  0  0
   58.4130   29.2530   52.3550 C   0  0  0  0  0  0  0  0  0  0  0  0
   58.3400   28.5770   53.5780 C   0  0  0  0  0  0  0  0  0  0  0  0
   59.5050   28.3230   54.3070 C   0  0  0  0  0  0  0  0  0  0  0  0
   60.7450   28.7480   53.8180 C   0  0  0  0  0  0  0  0  0  0  0  0
   63.3230   29.1810   52.1870 N   0  0  0  0  0  0  0  0  0  0  0  0
   63.5120   27.8040   52.5600 C   0  0  0  0  0  0  0  0  0  0  0  0
   64.4090   27.4560   53.5820 C   0  0  0  0  0  0  0  0  0  0  0  0
   64.5150   26.1300   54.0080 C   0  0  0  0  0  0  0  0  0  0  0  0
   63.7110   25.1300   53.4270 C   0  0  0  0  0  0  0  0  0  0  0  0
   63.7600   23.7920   53.8370 O   0  0  0  0  0  0  0  0  0  0  0  0
   64.2150   23.3630   55.1170 C   0  0  0  0  0  0  0  0  0  0  0  0
   62.8220   25.4770   52.4030 C   0  0  0  0  0  0  0  0  0  0  0  0
   62.7160   26.8050   51.9750 C   0  0  0  0  0  0  0  0  0  0  0  0
   64.2940   29.9240   51.6790 N   0  0  0  0  0  0  0  0  0  0  0  0
   64.1480   32.8300   48.1270 C   0  0  0  0  0  0  0  0  0  0  0  0
   63.1710   33.6650   47.2950 C   0  0  0  0  0  0  0  0  0  0  0  0
   60.5700   31.7910   47.0600 C   0  0  0  0  0  0  0  0  0  0  0  0
   59.4660   31.2540   46.3510 C   0  0  0  0  0  0  0  0  0  0  0  0
   59.8717   26.8575   46.7775 H   0  0  0  0  0  0  0  0  0  0  0  0
   59.1330   27.5916   45.3139 H   0  0  0  0  0  0  0  0  0  0  0  0
   60.8727   27.1445   45.3139 H   0  0  0  0  0  0  0  0  0  0  0  0
   60.4783   28.8946   47.5410 H   0  0  0  0  0  0  0  0  0  0  0  0
   61.3643   29.2305   46.0052 H   0  0  0  0  0  0  0  0  0  0  0  0
   58.2026   28.3418   45.1931 H   0  0  0  0  0  0  0  0  0  0  0  0
   57.7720   34.2057   45.8438 H   0  0  0  0  0  0  0  0  0  0  0  0
   61.4532   35.2721   49.2744 H   0  0  0  0  0  0  0  0  0  0  0  0
   61.0280   33.6148   49.8728 H   0  0  0  0  0  0  0  0  0  0  0  0
   63.6785   35.0546   49.8942 H   0  0  0  0  0  0  0  0  0  0  0  0
   62.9193   33.9872   51.1341 H   0  0  0  0  0  0  0  0  0  0  0  0
   61.6783   31.8495   51.1644 H   0  0  0  0  0  0  0  0  0  0  0  0
   59.7061   30.1948   50.8915 H   0  0  0  0  0  0  0  0  0  0  0  0
   57.4955   29.4522   51.7819 H   0  0  0  0  0  0  0  0  0  0  0  0
   57.3655   28.2454   53.9657 H   0  0  0  0  0  0  0  0  0  0  0  0
   59.4469   27.7882   55.2665 H   0  0  0  0  0  0  0  0  0  0  0  0
   61.6598   28.5396   54.3923 H   0  0  0  0  0  0  0  0  0  0  0  0
   65.0322   28.2322   54.0502 H   0  0  0  0  0  0  0  0  0  0  0  0
   65.2298   25.8654   54.8011 H   0  0  0  0  0  0  0  0  0  0  0  0
   63.6541   23.8918   55.9017 H   0  0  0  0  0  0  0  0  0  0  0  0
   64.0550   22.2795   55.2188 H   0  0  0  0  0  0  0  0  0  0  0  0
   65.2872   23.5864   55.2188 H   0  0  0  0  0  0  0  0  0  0  0  0
   62.2023   24.7002   51.9314 H   0  0  0  0  0  0  0  0  0  0  0  0
   62.0062   27.0680   51.1769 H   0  0  0  0  0  0  0  0  0  0  0  0
   65.2900   29.6210   51.5820 H   0  0  0  0  0  0  0  0  0  0  0  0
   65.1755   33.1558   47.9079 H   0  0  0  0  0  0  0  0  0  0  0  0
   64.0129   31.7705   47.8638 H   0  0  0  0  0  0  0  0  0  0  0  0
   63.5530   34.6925   47.2039 H   0  0  0  0  0  0  0  0  0  0  0  0
   63.0701   33.2197   46.2942 H   0  0  0  0  0  0  0  0  0  0  0  0
   61.3548   31.1135   47.4276 H   0  0  0  0  0  0  0  0  0  0  0  0
  1  2  1  0
  2  3  1  0
  3  4  1  0
  4  5  2  0
  5  6  1  0
  6  7  2  0
  6  8  1  0
  5  9  1  0
  9 10  2  0
  9 11  1  0
 11 12  2  0
 12 13  1  0
 13 14  1  0
 13 15  2  0
 15 16  1  0
 16 17  1  0
 17 18  1  0
 18 19  1  0
 19 20  1  0
 20 21  2  0
 20 22  1  0
 22 23  1  0
 23 24  2  0
 24 25  1  0
 25 26  2  0
 26 27  1  0
 27 28  2  0
 28 29  1  0
 29 30  2  0
 24 31  1  0
 31 32  1  0
 32 33  2  0
 33 34  1  0
 34 35  2  0
 35 36  1  0
 36 37  1  0
 35 38  1  0
 38 39  2  0
 31 40  1  0
 19 41  1  0
 41 42  1  0
 15 43  1  0
 43 44  2  0
 44  3  1  0
 44 11  1  0
 42 16  1  0
 40 22  2  0
 30 25  1  0
 39 32  1  0
  1 45  1  0
  1 46  1  0
  1 47  1  0
  2 48  1  0
  2 49  1  0
  4 50  1  0
 12 51  1  0
 17 52  1  0
 17 53  1  0
 18 54  1  0
 18 55  1  0
 23 56  1  0
 26 57  1  0
 27 58  1  0
 28 59  1  0
 29 60  1  0
 30 61  1  0
 33 62  1  0
 34 63  1  0
 37 64  1  0
 37 65  1  0
 37 66  1  0
 38 67  1  0
 39 68  1  0
 40 69  1  0
 41 70  1  0
 41 71  1  0
 42 72  1  0
 42 73  1  0
 43 74  1  0
M  CHG  2   8  -1  40   1
M  END
>  <UniqueID>  (43) 
41

>  <SMILES>  (43) 
CCn1cc(C(=O)[O-])c(=O)c2cc(F)c(N3CCN(C(=O)c4cc(-c5ccccc5)n(-c5ccc(OC)cc5)[nH+]4)CC3)cc21

>  <Energy>  (43) 
142.88069878758597

>  <Genealogy>  (43) 
CCn1cc(C(=O)[O-])c(=O)c2cc(F)c(N3CCN(C(=O)c4cc(-c5ccccc5)n(-c5ccc(OC)cc5)[nH+]4)CC3)cc21 (protonated)
CCn1cc(C(=O)[O-])c(=O)c2cc(F)c(N3CCN(C(=O)c4cc(-c5ccccc5)n(-c5ccc(OC)cc5)[nH+]4)CC3)cc21 (3D coordinates assigned)
CCn1cc(C(=O)[O-])c(=O)c2cc(F)c(N3CCN(C(=O)c4cc(-c5ccccc5)n(-c5ccc(OC)cc5)[nH+]4)CC3)cc21 (nonaromatic ring conformer: 142.88069878758597 kcal/mol)

>  <smiles>  (43) 
CCn1cc(C(=O)O)c(=O)c2cc(F)c(N3CCN(C(=O)c4cc(-c5ccccc5)n(-c5ccc(OC)cc5)n4)CC3)cc21

>  <score_type>  (43) 
oracle

>  <origin>  (43) 
adg

>  <m_score__min__energy>  (43) 
-10.449999999999999

>  <m_primary>  (43) 
energy

$$$$
43:0
     RDKit          3D

 49 52  0  0  0  0  0  0  0  0999 V2000
   63.4980   33.6860   50.9480 C   0  0  0  0  0  0  0  0  0  0  0  0
   63.1420   33.6070   49.4940 C   0  0  0  0  0  0  0  0  0  0  0  0
   64.0300   33.0250   48.5760 C   0  0  0  0  0  0  0  0  0  0  0  0
   63.7070   32.9790   47.2180 C   0  0  0  0  0  0  0  0  0  0  0  0
   62.4980   33.5120   46.7660 C   0  0  0  0  0  0  0  0  0  0  0  0
   61.5960   34.0910   47.6770 C   0  0  0  0  0  0  0  0  0  0  0  0
   60.3550   34.5960   47.2650 O   0  0  0  0  0  0  0  0  0  0  0  0
   59.3640   33.8450   46.6130 C   0  0  0  0  0  0  0  0  0  0  0  0
   58.9190   34.2850   45.3630 C   0  0  0  0  0  0  0  0  0  0  0  0
   57.9580   33.5620   44.6540 C   0  0  0  0  0  0  0  0  0  0  0  0
   57.4120   32.3880   45.1970 C   0  0  0  0  0  0  0  0  0  0  0  0
   56.4240   31.6110   44.5070 N   0  0  0  0  0  0  0  0  0  0  0  0
   56.4150   29.8830   44.3550 S   0  0  0  0  0  0  0  0  0  0  0  0
   56.5980   29.4170   42.6460 C   0  0  0  0  0  0  0  0  0  0  0  0
   55.1390   29.3230   44.9180 O   0  0  0  0  0  0  0  0  0  0  0  0
   57.5730   29.3240   45.1320 O   0  0  0  0  0  0  0  0  0  0  0  0
   57.8300   31.9610   46.4620 C   0  0  0  0  0  0  0  0  0  0  0  0
   58.7970   32.6800   47.1840 C   0  0  0  0  0  0  0  0  0  0  0  0
   59.1510   32.2480   48.5520 C   0  0  0  0  0  0  0  0  0  0  0  0
   58.9760   33.0990   49.6070 N   0  0  0  0  0  0  0  0  0  0  0  0
   59.3530   32.7900   50.8580 N   0  0  0  0  0  0  0  0  0  0  0  0
   59.1580   33.7840   51.9140 C   0  0  0  0  0  0  0  0  0  0  0  0
   59.9530   31.5850   51.1340 C   0  0  0  0  0  0  0  0  0  0  0  0
   60.3340   31.2930   52.3000 O   0  0  0  0  0  0  0  0  0  0  0  0
   60.1410   30.6950   50.0830 C   0  0  0  0  0  0  0  0  0  0  0  0
   60.7440   29.4950   50.1120 N   0  0  0  0  0  0  0  0  0  0  0  0
   60.7410   29.0520   48.8350 C   0  0  0  0  0  0  0  0  0  0  0  0
   60.1320   29.9770   47.9940 C   0  0  0  0  0  0  0  0  0  0  0  0
   59.7490   31.0160   48.8180 C   0  0  0  0  0  0  0  0  0  0  0  0
   61.9390   34.1630   49.0320 C   0  0  0  0  0  0  0  0  0  0  0  0
   62.6030   33.4874   51.5559 H   0  0  0  0  0  0  0  0  0  0  0  0
   64.2707   32.9375   51.1775 H   0  0  0  0  0  0  0  0  0  0  0  0
   63.8815   34.6911   51.1775 H   0  0  0  0  0  0  0  0  0  0  0  0
   64.9835   32.6037   48.9273 H   0  0  0  0  0  0  0  0  0  0  0  0
   64.4066   32.5218   46.5028 H   0  0  0  0  0  0  0  0  0  0  0  0
   62.2504   33.4790   45.6947 H   0  0  0  0  0  0  0  0  0  0  0  0
   59.3303   35.2105   44.9336 H   0  0  0  0  0  0  0  0  0  0  0  0
   57.6271   33.9136   43.6656 H   0  0  0  0  0  0  0  0  0  0  0  0
   56.9995   28.3947   42.5857 H   0  0  0  0  0  0  0  0  0  0  0  0
   55.6178   29.4560   42.1483 H   0  0  0  0  0  0  0  0  0  0  0  0
   57.2898   30.1125   42.1483 H   0  0  0  0  0  0  0  0  0  0  0  0
   57.3952   31.0492   46.8975 H   0  0  0  0  0  0  0  0  0  0  0  0
   59.2532   33.2986   52.8965 H   0  0  0  0  0  0  0  0  0  0  0  0
   59.9184   34.5732   51.8197 H   0  0  0  0  0  0  0  0  0  0  0  0
   58.1558   34.2274   51.8197 H   0  0  0  0  0  0  0  0  0  0  0  0
   61.1560   29.0110   50.9410 H   0  0  0  0  0  0  0  0  0  0  0  0
   61.1628   28.0909   48.5059 H   0  0  0  0  0  0  0  0  0  0  0  0
   59.9868   29.8978   46.9065 H   0  0  0  0  0  0  0  0  0  0  0  0
   61.2600   34.6595   49.7408 H   0  0  0  0  0  0  0  0  0  0  0  0
  1  2  1  0
  2  3  2  0
  3  4  1  0
  4  5  2  0
  5  6  1  0
  6  7  1  0
  7  8  1  0
  8  9  2  0
  9 10  1  0
 10 11  2  0
 11 12  1  0
 12 13  1  0
 13 14  1  0
 13 15  2  0
 13 16  2  0
 11 17  1  0
 17 18  2  0
 18 19  1  0
 19 20  2  0
 20 21  1  0
 21 22  1  0
 21 23  1  0
 23 24  2  0
 23 25  1  0
 25 26  1  0
 26 27  1  0
 27 28  2  0
 28 29  1  0
  6 30  2  0
 30  2  1  0
 18  8  1  0
 29 19  1  0
 29 25  2  0
  1 31  1  0
  1 32  1  0
  1 33  1  0
  3 34  1  0
  4 35  1  0
  5 36  1  0
  9 37  1  0
 10 38  1  0
 14 39  1  0
 14 40  1  0
 14 41  1  0
 17 42  1  0
 22 43  1  0
 22 44  1  0
 22 45  1  0
 26 46  1  0
 27 47  1  0
 28 48  1  0
 30 49  1  0
M  CHG  1  12  -1
M  END
>  <UniqueID>  (44) 
42

>  <SMILES>  (44) 
Cc1cccc(Oc2ccc([N-]S(C)(=O)=O)cc2-c2nn(C)c(=O)c3[nH]ccc23)c1

>  <Energy>  (44) 
96.7466938990499

>  <Genealogy>  (44) 
Cc1cccc(Oc2ccc([N-]S(C)(=O)=O)cc2-c2nn(C)c(=O)c3[nH]ccc23)c1 (protonated)
Cc1cccc(Oc2ccc([N-]S(C)(=O)=O)cc2-c2nn(C)c(=O)c3[nH]ccc23)c1 (3D coordinates assigned)
Cc1cccc(Oc2ccc([N-]S(C)(=O)=O)cc2-c2nn(C)c(=O)c3[nH]ccc23)c1 (optimized conformer: 96.7466938990499 kcal/mol)

>  <smiles>  (44) 
Cc1cccc(Oc2ccc(NS(C)(=O)=O)cc2-c2nn(C)c(=O)c3[nH]ccc23)c1

>  <score_type>  (44) 
oracle

>  <origin>  (44) 
adg

>  <m_score__min__energy>  (44) 
-10.35

>  <m_primary>  (44) 
energy

$$$$
44:0
     RDKit          3D

 64 67  0  0  0  0  0  0  0  0999 V2000
   60.2510   33.3850   51.8660 C   0  0  0  0  0  0  0  0  0  0  0  0
   61.0300   34.2130   51.0090 O   0  0  0  0  0  0  0  0  0  0  0  0
   62.2140   33.8100   50.3700 C   0  0  0  0  0  0  0  0  0  0  0  0
   63.4700   33.9000   51.0030 C   0  0  0  0  0  0  0  0  0  0  0  0
   64.6310   33.5180   50.3260 C   0  0  0  0  0  0  0  0  0  0  0  0
   64.5530   33.0430   49.0170 C   0  0  0  0  0  0  0  0  0  0  0  0
   63.3140   32.9430   48.3820 C   0  0  0  0  0  0  0  0  0  0  0  0
   62.1380   33.3170   49.0540 C   0  0  0  0  0  0  0  0  0  0  0  0
   60.8660   33.2150   48.3910 N   0  0  0  0  0  0  0  0  0  0  0  0
   59.9590   32.1170   48.7320 C   0  0  0  0  0  0  0  0  0  0  0  0
   58.5090   32.5970   48.6180 C   0  0  0  0  0  0  0  0  0  0  0  0
   58.2310   33.2040   47.3010 N   0  0  0  0  0  0  0  0  0  0  0  0
   58.1580   32.2070   46.2080 C   0  0  0  0  0  0  0  0  0  0  0  0
   59.5110   31.5060   46.0160 C   0  0  0  0  0  0  0  0  0  0  0  0
   59.3690   30.0440   46.0920 N   0  0  0  0  0  0  0  0  0  0  0  0
   59.0900   29.4400   44.7800 C   0  0  2  0  0  0  0  0  0  0  0  0
   58.5410   30.4060   43.9160 O   0  0  0  0  0  0  0  0  0  0  0  0
   58.1400   28.2890   44.9690 C   0  0  0  0  0  0  0  0  0  0  0  0
   56.8930   28.3690   45.5640 C   0  0  0  0  0  0  0  0  0  0  0  0
   56.3820   27.0910   45.5250 C   0  0  0  0  0  0  0  0  0  0  0  0
   55.1430   26.7190   46.0300 O   0  0  0  0  0  0  0  0  0  0  0  0
   57.2530   26.2370   44.9490 N   0  0  0  0  0  0  0  0  0  0  0  0
   57.0660   24.8300   44.7260 C   0  0  0  0  0  0  0  0  0  0  0  0
   56.6940   24.3690   43.4530 C   0  0  0  0  0  0  0  0  0  0  0  0
   56.5260   23.0040   43.2150 C   0  0  0  0  0  0  0  0  0  0  0  0
   56.7260   22.0850   44.2440 C   0  0  0  0  0  0  0  0  0  0  0  0
   57.0920   22.5270   45.5180 C   0  0  0  0  0  0  0  0  0  0  0  0
   57.2620   23.9030   45.7740 C   0  0  0  0  0  0  0  0  0  0  0  0
   57.6000   24.3810   47.0500 O   0  0  0  0  0  0  0  0  0  0  0  0
   56.9690   23.9770   48.2600 C   0  0  0  0  0  0  0  0  0  0  0  0
   58.3340   26.9660   44.6030 C   0  0  0  0  0  0  0  0  0  0  0  0
   59.1500   34.3280   47.0150 C   0  0  0  0  0  0  0  0  0  0  0  0
   60.6330   33.9380   47.1390 C   0  0  0  0  0  0  0  0  0  0  0  0
   60.4782   33.6264   52.9149 H   0  0  0  0  0  0  0  0  0  0  0  0
   59.1823   33.5598   51.6726 H   0  0  0  0  0  0  0  0  0  0  0  0
   60.4906   32.3290   51.6726 H   0  0  0  0  0  0  0  0  0  0  0  0
   63.5366   34.2730   52.0357 H   0  0  0  0  0  0  0  0  0  0  0  0
   65.6079   33.5920   50.8261 H   0  0  0  0  0  0  0  0  0  0  0  0
   65.4688   32.7469   48.4845 H   0  0  0  0  0  0  0  0  0  0  0  0
   63.2579   32.5691   47.3490 H   0  0  0  0  0  0  0  0  0  0  0  0
   60.1228   31.2780   48.0398 H   0  0  0  0  0  0  0  0  0  0  0  0
   60.1554   31.7864   49.7626 H   0  0  0  0  0  0  0  0  0  0  0  0
   57.8377   31.7376   48.7621 H   0  0  0  0  0  0  0  0  0  0  0  0
   58.3427   33.3642   49.3885 H   0  0  0  0  0  0  0  0  0  0  0  0
   57.3946   31.4550   46.4565 H   0  0  0  0  0  0  0  0  0  0  0  0
   57.8952   32.7265   45.2747 H   0  0  0  0  0  0  0  0  0  0  0  0
   59.9182   31.7760   45.0305 H   0  0  0  0  0  0  0  0  0  0  0  0
   60.1888   31.8320   46.8187 H   0  0  0  0  0  0  0  0  0  0  0  0
   58.5710   29.8260   46.7350 H   0  0  0  0  0  0  0  0  0  0  0  0
   60.0215   29.0685   44.3280 H   0  0  0  0  0  0  0  0  0  0  0  0
   58.5150   29.9990   43.0100 H   0  0  0  0  0  0  0  0  0  0  0  0
   56.4111   29.2657   45.9808 H   0  0  0  0  0  0  0  0  0  0  0  0
   56.5337   25.0891   42.6370 H   0  0  0  0  0  0  0  0  0  0  0  0
   56.2353   22.6528   42.2139 H   0  0  0  0  0  0  0  0  0  0  0  0
   56.5954   21.0097   44.0526 H   0  0  0  0  0  0  0  0  0  0  0  0
   57.2484   21.7971   46.3260 H   0  0  0  0  0  0  0  0  0  0  0  0
   57.5490   24.3484   49.1177 H   0  0  0  0  0  0  0  0  0  0  0  0
   55.9509   24.3916   48.2987 H   0  0  0  0  0  0  0  0  0  0  0  0
   56.9194   22.8788   48.2987 H   0  0  0  0  0  0  0  0  0  0  0  0
   59.2324   26.5710   44.1062 H   0  0  0  0  0  0  0  0  0  0  0  0
   58.9647   34.6802   45.9895 H   0  0  0  0  0  0  0  0  0  0  0  0
   58.9525   35.1125   47.7604 H   0  0  0  0  0  0  0  0  0  0  0  0
   60.9110   33.2944   46.2913 H   0  0  0  0  0  0  0  0  0  0  0  0
   61.2447   34.8522   47.1349 H   0  0  0  0  0  0  0  0  0  0  0  0
  1  2  1  0
  2  3  1  0
  3  4  2  0
  4  5  1  0
  5  6  2  0
  6  7  1  0
  7  8  2  0
  8  9  1  0
  9 10  1  0
 10 11  1  0
 11 12  1  0
 12 13  1  0
 13 14  1  0
 14 15  1  0
 15 16  1  0
 16 17  1  0
 16 18  1  0
 18 19  1  0
 19 20  2  0
 20 21  1  0
 20 22  1  0
 22 23  1  0
 23 24  2  0
 24 25  1  0
 25 26  2  0
 26 27  1  0
 27 28  2  0
 28 29  1  0
 29 30  1  0
 22 31  1  0
 12 32  1  0
 32 33  1  0
  8  3  1  0
 33  9  1  0
 31 18  2  0
 28 23  1  0
  1 34  1  0
  1 35  1  0
  1 36  1  0
  4 37  1  0
  5 38  1  0
  6 39  1  0
  7 40  1  0
 10 41  1  0
 10 42  1  0
 11 43  1  0
 11 44  1  0
 13 45  1  0
 13 46  1  0
 14 47  1  0
 14 48  1  0
 15 49  1  0
 16 50  1  6
 17 51  1  0
 19 52  1  0
 24 53  1  0
 25 54  1  0
 26 55  1  0
 27 56  1  0
 30 57  1  0
 30 58  1  0
 30 59  1  0
 31 60  1  0
 32 61  1  0
 32 62  1  0
 33 63  1  0
 33 64  1  0
M  CHG  1  21  -1
M  END
>  <UniqueID>  (45) 
43

>  <SMILES>  (45) 
COc1ccccc1N1CCN(CCN[C@H](O)c2cc([O-])n(-c3ccccc3OC)c2)CC1

>  <Energy>  (45) 
105.56750472078127

>  <Genealogy>  (45) 
COc1ccccc1N1CCN(CCNC(O)c2cc([O-])n(-c3ccccc3OC)c2)CC1 (protonated)
COc1ccccc1N1CCN(CCN[C@H](O)c2cc([O-])n(-c3ccccc3OC)c2)CC1 (chirality)
COc1ccccc1N1CCN(CCN[C@H](O)c2cc([O-])n(-c3ccccc3OC)c2)CC1 (3D coordinates assigned)
COc1ccccc1N1CCN(CCN[C@H](O)c2cc([O-])n(-c3ccccc3OC)c2)CC1 (nonaromatic ring conformer: 105.56750472078127 kcal/mol)

>  <smiles>  (45) 
COc1ccccc1N1CCN(CCNC(O)c2cc(O)n(-c3ccccc3OC)c2)CC1

>  <score_type>  (45) 
oracle

>  <origin>  (45) 
adg

>  <m_score__min__energy>  (45) 
-11.48

>  <m_primary>  (45) 
energy

$$$$
45:0
     RDKit          3D

 34 35  0  0  0  0  0  0  0  0999 V2000
   58.0340   32.3460   42.2850 C   0  0  0  0  0  0  0  0  0  0  0  0
   57.6150   32.2740   43.6900 N   0  0  0  0  0  0  0  0  0  0  0  0
   57.3950   33.5170   44.4470 C   0  0  0  0  0  0  0  0  0  0  0  0
   58.2960   33.5840   45.6570 C   0  0  0  0  0  0  0  0  0  0  0  0
   57.9180   32.9670   46.8630 C   0  0  0  0  0  0  0  0  0  0  0  0
   58.7660   33.0120   47.9740 C   0  0  0  0  0  0  0  0  0  0  0  0
   60.0020   33.6570   47.8870 C   0  0  0  0  0  0  0  0  0  0  0  0
   60.3950   34.2540   46.6860 C   0  0  0  0  0  0  0  0  0  0  0  0
   59.5500   34.2130   45.5730 C   0  0  0  0  0  0  0  0  0  0  0  0
   57.3670   30.9760   44.2750 C   0  0  0  0  0  0  0  0  0  0  0  0
   56.2730   30.7610   44.8660 O   0  0  0  0  0  0  0  0  0  0  0  0
   58.3340   29.9160   44.1720 N   0  0  0  0  0  0  0  0  0  0  0  0
   58.3400   28.7570   45.0240 C   0  0  0  0  0  0  0  0  0  0  0  0
   57.7950   27.5510   44.5530 C   0  0  0  0  0  0  0  0  0  0  0  0
   57.8100   26.4060   45.3560 C   0  0  0  0  0  0  0  0  0  0  0  0
   58.3830   26.4510   46.6290 C   0  0  0  0  0  0  0  0  0  0  0  0
   58.9490   27.6390   47.0990 C   0  0  0  0  0  0  0  0  0  0  0  0
   59.5220   27.6760   48.3270 F   0  0  0  0  0  0  0  0  0  0  0  0
   58.9350   28.7870   46.2990 C   0  0  0  0  0  0  0  0  0  0  0  0
   59.1170   32.5321   42.2344 H   0  0  0  0  0  0  0  0  0  0  0  0
   57.8016   31.3948   41.7839 H   0  0  0  0  0  0  0  0  0  0  0  0
   57.4974   33.1651   41.7839 H   0  0  0  0  0  0  0  0  0  0  0  0
   57.6056   34.3770   43.7943 H   0  0  0  0  0  0  0  0  0  0  0  0
   56.3496   33.5374   44.7886 H   0  0  0  0  0  0  0  0  0  0  0  0
   56.9513   32.4469   46.9326 H   0  0  0  0  0  0  0  0  0  0  0  0
   58.4592   32.5386   48.9183 H   0  0  0  0  0  0  0  0  0  0  0  0
   60.6657   33.6950   48.7634 H   0  0  0  0  0  0  0  0  0  0  0  0
   61.3708   34.7570   46.6164 H   0  0  0  0  0  0  0  0  0  0  0  0
   59.8682   34.6753   44.6269 H   0  0  0  0  0  0  0  0  0  0  0  0
   59.0050   29.9240   43.3740 H   0  0  0  0  0  0  0  0  0  0  0  0
   57.3537   27.5069   43.5464 H   0  0  0  0  0  0  0  0  0  0  0  0
   57.3700   25.4688   44.9845 H   0  0  0  0  0  0  0  0  0  0  0  0
   58.3887   25.5511   47.2616 H   0  0  0  0  0  0  0  0  0  0  0  0
   59.3912   29.7173   46.6684 H   0  0  0  0  0  0  0  0  0  0  0  0
  1  2  1  0
  2  3  1  0
  3  4  1  0
  4  5  2  0
  5  6  1  0
  6  7  2  0
  7  8  1  0
  8  9  2  0
  2 10  1  0
 10 11  2  0
 10 12  1  0
 12 13  1  0
 13 14  2  0
 14 15  1  0
 15 16  2  0
 16 17  1  0
 17 18  1  0
 17 19  2  0
  9  4  1  0
 19 13  1  0
  1 20  1  0
  1 21  1  0
  1 22  1  0
  3 23  1  0
  3 24  1  0
  5 25  1  0
  6 26  1  0
  7 27  1  0
  8 28  1  0
  9 29  1  0
 12 30  1  0
 14 31  1  0
 15 32  1  0
 16 33  1  0
 19 34  1  0
M  END
>  <UniqueID>  (46) 
44

>  <SMILES>  (46) 
CN(Cc1ccccc1)C(=O)Nc1cccc(F)c1

>  <Energy>  (46) 
36.253100683510326

>  <Genealogy>  (46) 
CN(Cc1ccccc1)C(=O)Nc1cccc(F)c1 (3D coordinates assigned)
CN(Cc1ccccc1)C(=O)Nc1cccc(F)c1 (optimized conformer: 36.253100683510326 kcal/mol)

>  <smiles>  (46) 
CN(Cc1ccccc1)C(=O)Nc1cccc(F)c1

>  <score_type>  (46) 
oracle

>  <origin>  (46) 
adg

>  <m_score__min__energy>  (46) 
-7.3200000000000003

>  <m_primary>  (46) 
energy

$$$$
46:0
     RDKit          3D

 53 56  0  0  0  0  0  0  0  0999 V2000
   60.5560   29.3120   45.8080 C   0  0  0  0  0  0  0  0  0  0  0  0
   60.0290   28.2530   44.8320 C   0  0  0  0  0  0  0  0  0  0  0  0
   58.5860   27.9610   45.0430 N   0  0  0  0  0  0  0  0  0  0  0  0
   58.2870   26.7880   45.9170 C   0  0  0  0  0  0  0  0  0  0  0  0
   56.7980   26.4470   46.0990 C   0  0  0  0  0  0  0  0  0  0  0  0
   57.7990   27.9820   43.7800 C   0  0  0  0  0  0  0  0  0  0  0  0
   57.1650   29.3340   43.3990 C   0  0  0  0  0  0  0  0  0  0  0  0
   56.7500   30.0800   44.5430 O   0  0  0  0  0  0  0  0  0  0  0  0
   57.3990   31.2110   45.0640 C   0  0  0  0  0  0  0  0  0  0  0  0
   57.5150   32.4200   44.3500 C   0  0  0  0  0  0  0  0  0  0  0  0
   58.1590   33.5220   44.9210 C   0  0  0  0  0  0  0  0  0  0  0  0
   58.6910   33.4320   46.2100 C   0  0  0  0  0  0  0  0  0  0  0  0
   58.6040   32.2110   46.9270 C   0  0  0  0  0  0  0  0  0  0  0  0
   57.9500   31.1160   46.3480 C   0  0  0  0  0  0  0  0  0  0  0  0
   59.1740   32.1130   48.3390 C   0  0  0  0  0  0  0  0  0  0  0  0
   59.9990   33.2980   48.6300 N   0  0  0  0  0  0  0  0  0  0  0  0
   59.3410   34.5440   48.2580 C   0  0  0  0  0  0  0  0  0  0  0  0
   59.3940   34.5470   46.7990 N   0  0  0  0  0  0  0  0  0  0  0  0
   60.7490   34.8080   46.2850 C   0  0  0  0  0  0  0  0  0  0  0  0
   61.7630   33.9400   47.0220 C   0  0  0  0  0  0  0  0  0  0  0  0
   63.0890   33.8610   46.5780 C   0  0  0  0  0  0  0  0  0  0  0  0
   64.0170   33.0770   47.2740 C   0  0  0  0  0  0  0  0  0  0  0  0
   63.6270   32.3730   48.4180 C   0  0  0  0  0  0  0  0  0  0  0  0
   62.3090   32.4490   48.8780 C   0  0  0  0  0  0  0  0  0  0  0  0
   61.3750   33.2390   48.1960 C   0  0  0  0  0  0  0  0  0  0  0  0
   60.3879   28.9743   46.8413 H   0  0  0  0  0  0  0  0  0  0  0  0
   61.6331   29.4605   45.6414 H   0  0  0  0  0  0  0  0  0  0  0  0
   60.0250   30.2608   45.6414 H   0  0  0  0  0  0  0  0  0  0  0  0
   60.1697   28.6180   43.8039 H   0  0  0  0  0  0  0  0  0  0  0  0
   60.5902   27.3235   45.0080 H   0  0  0  0  0  0  0  0  0  0  0  0
   58.2090   28.7890   45.5670 H   0  0  0  0  0  0  0  0  0  0  0  0
   58.7833   25.9082   45.4815 H   0  0  0  0  0  0  0  0  0  0  0  0
   58.6539   27.0614   46.9173 H   0  0  0  0  0  0  0  0  0  0  0  0
   56.5627   26.3931   47.1722 H   0  0  0  0  0  0  0  0  0  0  0  0
   56.1828   27.2275   45.6275 H   0  0  0  0  0  0  0  0  0  0  0  0
   56.5838   25.4765   45.6275 H   0  0  0  0  0  0  0  0  0  0  0  0
   58.4696   27.6825   42.9611 H   0  0  0  0  0  0  0  0  0  0  0  0
   56.9552   27.2961   43.9461 H   0  0  0  0  0  0  0  0  0  0  0  0
   57.9043   29.9262   42.8398 H   0  0  0  0  0  0  0  0  0  0  0  0
   56.2723   29.1271   42.7905 H   0  0  0  0  0  0  0  0  0  0  0  0
   57.0959   32.4976   43.3359 H   0  0  0  0  0  0  0  0  0  0  0  0
   58.2469   34.4610   44.3548 H   0  0  0  0  0  0  0  0  0  0  0  0
   57.8684   30.1723   46.9073 H   0  0  0  0  0  0  0  0  0  0  0  0
   58.3476   32.0572   49.0629 H   0  0  0  0  0  0  0  0  0  0  0  0
   59.7974   31.2100   48.4160 H   0  0  0  0  0  0  0  0  0  0  0  0
   58.2995   34.5574   48.6118 H   0  0  0  0  0  0  0  0  0  0  0  0
   59.8233   35.4274   48.7019 H   0  0  0  0  0  0  0  0  0  0  0  0
   60.7822   34.5743   45.2106 H   0  0  0  0  0  0  0  0  0  0  0  0
   60.9975   35.8676   46.4444 H   0  0  0  0  0  0  0  0  0  0  0  0
   63.4018   34.4158   45.6811 H   0  0  0  0  0  0  0  0  0  0  0  0
   65.0566   33.0145   46.9199 H   0  0  0  0  0  0  0  0  0  0  0  0
   64.3607   31.7567   48.9582 H   0  0  0  0  0  0  0  0  0  0  0  0
   62.0058   31.8888   49.7748 H   0  0  0  0  0  0  0  0  0  0  0  0
  1  2  1  0
  2  3  1  0
  3  4  1  0
  4  5  1  0
  3  6  1  0
  6  7  1  0
  7  8  1  0
  8  9  1  0
  9 10  2  0
 10 11  1  0
 11 12  2  0
 12 13  1  0
 13 14  2  0
 13 15  1  0
 15 16  1  0
 16 17  1  0
 17 18  1  0
 18 19  1  0
 19 20  1  0
 20 21  2  0
 21 22  1  0
 22 23  2  0
 23 24  1  0
 24 25  2  0
 14  9  1  0
 25 16  1  0
 18 12  1  0
 25 20  1  0
  1 26  1  0
  1 27  1  0
  1 28  1  0
  2 29  1  0
  2 30  1  0
  3 31  1  0
  4 32  1  0
  4 33  1  0
  5 34  1  0
  5 35  1  0
  5 36  1  0
  6 37  1  0
  6 38  1  0
  7 39  1  0
  7 40  1  0
 10 41  1  0
 11 42  1  0
 14 43  1  0
 15 44  1  0
 15 45  1  0
 17 46  1  0
 17 47  1  0
 19 48  1  0
 19 49  1  0
 21 50  1  0
 22 51  1  0
 23 52  1  0
 24 53  1  0
M  CHG  1   3   1
M  END
>  <UniqueID>  (47) 
45

>  <SMILES>  (47) 
CC[NH+](CC)CCOc1ccc2c(c1)CN1CN2Cc2ccccc21

>  <Energy>  (47) 
95.32513035306957

>  <Genealogy>  (47) 
CC[NH+](CC)CCOc1ccc2c(c1)CN1CN2Cc2ccccc21 (protonated)
CC[NH+](CC)CCOc1ccc2c(c1)CN1CN2Cc2ccccc21 (3D coordinates assigned)
CC[NH+](CC)CCOc1ccc2c(c1)CN1CN2Cc2ccccc21 (nonaromatic ring conformer: 95.32513035306957 kcal/mol)

>  <smiles>  (47) 
CCN(CC)CCOc1ccc2c(c1)CN1CN2Cc2ccccc21

>  <score_type>  (47) 
oracle

>  <origin>  (47) 
adg

>  <m_score__min__energy>  (47) 
-5.7199999999999998

>  <m_primary>  (47) 
energy

$$$$
