0:0
     RDKit          3D

 55 56  0  0  0  0  0  0  0  0999 V2000
   58.1380   27.2620   43.3650 C   0  0  0  0  0  0  0  0  0  0  0  0
   58.7150   27.7060   44.6960 C   0  0  0  0  0  0  0  0  0  0  0  0
   59.6040   28.9270   44.4980 C   0  0  0  0  0  0  0  0  0  0  0  0
   60.2910   29.1810   45.7980 C   0  0  0  0  0  0  0  0  0  0  0  0
   59.3760   29.6560   46.8880 C   0  0  0  0  0  0  0  0  0  0  0  0
   58.2020   30.2550   46.4250 O   0  0  0  0  0  0  0  0  0  0  0  0
   58.2600   31.6000   46.0710 C   0  0  0  0  0  0  0  0  0  0  0  0
   59.2500   32.4370   46.5380 C   0  0  0  0  0  0  0  0  0  0  0  0
   59.2940   33.7860   46.1710 C   0  0  0  0  0  0  0  0  0  0  0  0
   60.4120   34.5790   46.7430 C   0  0  0  0  0  0  0  0  0  0  0  0
   61.3020   33.8090   47.5470 N   0  0  0  0  0  0  0  0  0  0  0  0
   61.3930   34.2190   48.9120 C   0  0  0  0  0  0  0  0  0  0  0  0
   62.7430   33.9630   49.5300 C   0  0  0  0  0  0  0  0  0  0  0  0
   63.4640   32.8590   48.9900 N   0  0  0  0  0  0  0  0  0  0  0  0
   64.8780   33.0850   49.3250 C   0  0  0  0  0  0  0  0  0  0  0  0
   63.3740   32.6640   47.5810 C   0  0  0  0  0  0  0  0  0  0  0  0
   62.6320   33.8350   46.9770 C   0  0  0  0  0  0  0  0  0  0  0  0
   58.3410   34.3160   45.3280 C   0  0  0  0  0  0  0  0  0  0  0  0
   57.3490   33.4730   44.8600 C   0  0  0  0  0  0  0  0  0  0  0  0
   57.3020   32.1380   45.2200 C   0  0  0  0  0  0  0  0  0  0  0  0
   56.3190   31.2690   44.7670 O   0  0  0  0  0  0  0  0  0  0  0  0
   56.4720   30.4420   43.6400 C   0  0  0  0  0  0  0  0  0  0  0  0
   57.0250   31.2160   42.4570 C   0  0  0  0  0  0  0  0  0  0  0  0
   57.2775   26.5998   43.5410 H   0  0  0  0  0  0  0  0  0  0  0  0
   57.8114   28.1439   42.7945 H   0  0  0  0  0  0  0  0  0  0  0  0
   58.9068   26.7203   42.7945 H   0  0  0  0  0  0  0  0  0  0  0  0
   57.8938   27.9609   45.3820 H   0  0  0  0  0  0  0  0  0  0  0  0
   59.3154   26.8876   45.1200 H   0  0  0  0  0  0  0  0  0  0  0  0
   60.3463   28.7303   43.7104 H   0  0  0  0  0  0  0  0  0  0  0  0
   59.0096   29.8000   44.1906 H   0  0  0  0  0  0  0  0  0  0  0  0
   60.7651   28.2447   46.1276 H   0  0  0  0  0  0  0  0  0  0  0  0
   61.0204   29.9852   45.6212 H   0  0  0  0  0  0  0  0  0  0  0  0
   59.1009   28.7912   47.5097 H   0  0  0  0  0  0  0  0  0  0  0  0
   59.9248   30.4256   47.4507 H   0  0  0  0  0  0  0  0  0  0  0  0
   60.0209   32.0364   47.2127 H   0  0  0  0  0  0  0  0  0  0  0  0
   60.9851   35.0208   45.9145 H   0  0  0  0  0  0  0  0  0  0  0  0
   59.9656   35.3436   47.3958 H   0  0  0  0  0  0  0  0  0  0  0  0
   61.1849   35.2978   48.9657 H   0  0  0  0  0  0  0  0  0  0  0  0
   60.6613   33.6231   49.4772 H   0  0  0  0  0  0  0  0  0  0  0  0
   63.3551   34.8669   49.3942 H   0  0  0  0  0  0  0  0  0  0  0  0
   62.5509   33.7127   50.5838 H   0  0  0  0  0  0  0  0  0  0  0  0
   64.9973   33.1041   50.4184 H   0  0  0  0  0  0  0  0  0  0  0  0
   65.4889   32.2731   48.9036 H   0  0  0  0  0  0  0  0  0  0  0  0
   65.2054   34.0469   48.9036 H   0  0  0  0  0  0  0  0  0  0  0  0
   64.3843   32.6037   47.1502 H   0  0  0  0  0  0  0  0  0  0  0  0
   62.8376   31.7282   47.3652 H   0  0  0  0  0  0  0  0  0  0  0  0
   63.1372   34.7784   47.2312 H   0  0  0  0  0  0  0  0  0  0  0  0
   62.5988   33.7650   45.8797 H   0  0  0  0  0  0  0  0  0  0  0  0
   58.3684   35.3763   45.0364 H   0  0  0  0  0  0  0  0  0  0  0  0
   56.5786   33.8740   44.1850 H   0  0  0  0  0  0  0  0  0  0  0  0
   57.1642   29.6238   43.8877 H   0  0  0  0  0  0  0  0  0  0  0  0
   55.4835   30.0464   43.3637 H   0  0  0  0  0  0  0  0  0  0  0  0
   57.6284   32.0606   42.8211 H   0  0  0  0  0  0  0  0  0  0  0  0
   57.6544   30.5520   41.8463 H   0  0  0  0  0  0  0  0  0  0  0  0
   56.1929   31.5963   41.8463 H   0  0  0  0  0  0  0  0  0  0  0  0
  1  2  1  0
  2  3  1  0
  3  4  1  0
  4  5  1  0
  5  6  1  0
  6  7  1  0
  7  8  2  0
  8  9  1  0
  9 10  1  0
 10 11  1  0
 11 12  1  0
 12 13  1  0
 13 14  1  0
 14 15  1  0
 14 16  1  0
 16 17  1  0
  9 18  2  0
 18 19  1  0
 19 20  2  0
 20 21  1  0
 21 22  1  0
 22 23  1  0
 20  7  1  0
 17 11  1  0
  1 24  1  0
  1 25  1  0
  1 26  1  0
  2 27  1  0
  2 28  1  0
  3 29  1  0
  3 30  1  0
  4 31  1  0
  4 32  1  0
  5 33  1  0
  5 34  1  0
  8 35  1  0
 10 36  1  0
 10 37  1  0
 12 38  1  0
 12 39  1  0
 13 40  1  0
 13 41  1  0
 15 42  1  0
 15 43  1  0
 15 44  1  0
 16 45  1  0
 16 46  1  0
 17 47  1  0
 17 48  1  0
 18 49  1  0
 19 50  1  0
 22 51  1  0
 22 52  1  0
 23 53  1  0
 23 54  1  0
 23 55  1  0
M  END
>  <smiles>  (1) 
CCCCCOc1cc(CN2CCN(C)CC2)ccc1OCC

>  <score_type>  (1) 
oracle

>  <origin>  (1) 
adg

>  <m_score__min__energy>  (1) 
-7.1799999999999997

>  <m_primary>  (1) 
energy

$$$$
1:0
     RDKit          3D

 47 48  0  0  0  0  0  0  0  0999 V2000
   63.3040   33.4330   46.9740 C   0  0  0  0  0  0  0  0  0  0  0  0
   63.3490   31.9400   47.1160 C   0  0  0  0  0  0  0  0  0  0  0  0
   62.2370   31.4670   48.0280 C   0  0  0  0  0  0  0  0  0  0  0  0
   61.2740   30.6380   47.1680 C   0  0  0  0  0  0  0  0  0  0  0  0
   59.9250   30.5130   47.8830 C   0  0  0  0  0  0  0  0  0  0  0  0
   58.8580   30.3130   46.8630 C   0  0  0  0  0  0  0  0  0  0  0  0
   58.6950   31.4200   45.9000 C   0  0  0  0  0  0  0  0  0  0  0  0
   58.1660   31.3100   44.6910 C   0  0  0  0  0  0  0  0  0  0  0  0
   57.6190   30.0900   44.0140 C   0  0  0  0  0  0  0  0  0  0  0  0
   56.3140   29.6820   44.6050 C   0  0  0  0  0  0  0  0  0  0  0  0
   55.3670   30.5080   44.5190 O   0  0  0  0  0  0  0  0  0  0  0  0
   56.0810   28.4890   45.2270 O   0  0  0  0  0  0  0  0  0  0  0  0
   57.0180   27.6120   45.7750 C   0  0  0  0  0  0  0  0  0  0  0  0
   57.7520   26.9440   44.6170 C   0  0  0  0  0  0  0  0  0  0  0  0
   58.1640   32.6370   44.0000 C   0  0  0  0  0  0  0  0  0  0  0  0
   58.7880   33.5060   45.0260 C   0  0  0  0  0  0  0  0  0  0  0  0
   59.0560   34.8650   44.9410 C   0  0  0  0  0  0  0  0  0  0  0  0
   59.6460   35.5430   45.9830 C   0  0  0  0  0  0  0  0  0  0  0  0
   59.9670   34.8350   47.1250 C   0  0  0  0  0  0  0  0  0  0  0  0
   59.6930   33.4860   47.1910 C   0  0  0  0  0  0  0  0  0  0  0  0
   59.1040   32.7860   46.1590 C   0  0  0  0  0  0  0  0  0  0  0  0
   63.2900   33.8960   47.9717 H   0  0  0  0  0  0  0  0  0  0  0  0
   64.1922   33.7759   46.4231 H   0  0  0  0  0  0  0  0  0  0  0  0
   62.3967   33.7217   46.4231 H   0  0  0  0  0  0  0  0  0  0  0  0
   63.2280   31.4771   46.1255 H   0  0  0  0  0  0  0  0  0  0  0  0
   64.3170   31.6502   47.5507 H   0  0  0  0  0  0  0  0  0  0  0  0
   62.6501   30.8469   48.8373 H   0  0  0  0  0  0  0  0  0  0  0  0
   61.7171   32.3201   48.4884 H   0  0  0  0  0  0  0  0  0  0  0  0
   61.1293   31.1352   46.1975 H   0  0  0  0  0  0  0  0  0  0  0  0
   61.6973   29.6353   47.0084 H   0  0  0  0  0  0  0  0  0  0  0  0
   59.9478   29.6525   48.5678 H   0  0  0  0  0  0  0  0  0  0  0  0
   59.7225   31.4264   48.4616 H   0  0  0  0  0  0  0  0  0  0  0  0
   59.0956   29.4007   46.2961 H   0  0  0  0  0  0  0  0  0  0  0  0
   57.9112   30.2499   47.4194 H   0  0  0  0  0  0  0  0  0  0  0  0
   57.4760   30.3071   42.9452 H   0  0  0  0  0  0  0  0  0  0  0  0
   58.3350   29.2663   44.1515 H   0  0  0  0  0  0  0  0  0  0  0  0
   57.7314   28.1678   46.4013 H   0  0  0  0  0  0  0  0  0  0  0  0
   56.5221   26.8592   46.4054 H   0  0  0  0  0  0  0  0  0  0  0  0
   58.5108   26.2534   45.0135 H   0  0  0  0  0  0  0  0  0  0  0  0
   57.0328   26.3842   44.0011 H   0  0  0  0  0  0  0  0  0  0  0  0
   58.2418   27.7127   44.0011 H   0  0  0  0  0  0  0  0  0  0  0  0
   58.7629   32.6106   43.0777 H   0  0  0  0  0  0  0  0  0  0  0  0
   57.1679   32.9716   43.6748 H   0  0  0  0  0  0  0  0  0  0  0  0
   58.7917   35.4106   44.0231 H   0  0  0  0  0  0  0  0  0  0  0  0
   59.8564   36.6201   45.9086 H   0  0  0  0  0  0  0  0  0  0  0  0
   60.4390   35.3455   47.9774 H   0  0  0  0  0  0  0  0  0  0  0  0
   59.9565   32.9420   48.1100 H   0  0  0  0  0  0  0  0  0  0  0  0
  1  2  1  0
  2  3  1  0
  3  4  1  0
  4  5  1  0
  5  6  1  0
  6  7  1  0
  7  8  2  0
  8  9  1  0
  9 10  1  0
 10 11  2  0
 10 12  1  0
 12 13  1  0
 13 14  1  0
  8 15  1  0
 15 16  1  0
 16 17  2  0
 17 18  1  0
 18 19  2  0
 19 20  1  0
 20 21  2  0
 21  7  1  0
 21 16  1  0
  1 22  1  0
  1 23  1  0
  1 24  1  0
  2 25  1  0
  2 26  1  0
  3 27  1  0
  3 28  1  0
  4 29  1  0
  4 30  1  0
  5 31  1  0
  5 32  1  0
  6 33  1  0
  6 34  1  0
  9 35  1  0
  9 36  1  0
 13 37  1  0
 13 38  1  0
 14 39  1  0
 14 40  1  0
 14 41  1  0
 15 42  1  0
 15 43  1  0
 17 44  1  0
 18 45  1  0
 19 46  1  0
 20 47  1  0
M  END
>  <smiles>  (2) 
CCCCCCC1=C(CC(=O)OCC)Cc2ccccc21

>  <score_type>  (2) 
oracle

>  <origin>  (2) 
adg

>  <m_score__min__energy>  (2) 
-7.5199999999999996

>  <m_primary>  (2) 
energy

$$$$
3:0
     RDKit          3D

 47 50  0  0  1  0  0  0  0  0999 V2000
   61.3150   31.3300   51.8770 F   0  0  0  0  0  0  0  0  0  0  0  0
   60.8940   30.8960   50.6740 C   0  0  0  0  0  0  0  0  0  0  0  0
   61.8230   30.5230   49.7030 C   0  0  0  0  0  0  0  0  0  0  0  0
   61.3760   30.0910   48.5020 N   0  0  0  0  0  0  0  0  0  0  0  0
   60.0470   30.0210   48.2390 C   0  0  0  0  0  0  0  0  0  0  0  0
   59.5350   29.5740   46.9890 N   0  0  0  0  0  0  0  0  0  0  0  0
   60.2250   29.2890   45.7510 C   0  0  0  0  0  0  0  0  0  0  0  0
   59.2300   29.7360   44.7120 C   0  0  0  0  0  0  0  0  0  0  0  0
   57.9140   29.2840   45.2800 C   0  0  2  0  0  0  0  0  0  0  0  0
   56.8240   30.1660   44.8710 N   0  0  0  0  0  0  0  0  0  0  0  0
   57.2840   31.4120   44.3650 C   0  0  0  0  0  0  0  0  0  0  0  0
   56.9930   32.5880   45.2580 C   0  0  0  0  0  0  0  0  0  0  0  0
   58.1820   33.3660   45.5450 N   0  0  0  0  0  0  0  0  0  0  0  0
   58.5290   34.5980   45.1540 C   0  0  0  0  0  0  0  0  0  0  0  0
   59.7380   34.9390   45.6780 N   0  0  0  0  0  0  0  0  0  0  0  0
   60.1590   33.9170   46.4050 C   0  0  0  0  0  0  0  0  0  0  0  0
   61.3910   33.7520   47.1970 C   0  0  0  0  0  0  0  0  0  0  0  0
   62.6100   33.4850   46.6200 C   0  0  0  0  0  0  0  0  0  0  0  0
   63.7700   33.3200   47.3350 C   0  0  0  0  0  0  0  0  0  0  0  0
   63.6800   33.4340   48.7110 C   0  0  0  0  0  0  0  0  0  0  0  0
   62.4780   33.7020   49.3240 C   0  0  0  0  0  0  0  0  0  0  0  0
   61.3060   33.8670   48.5880 C   0  0  0  0  0  0  0  0  0  0  0  0
   59.7710   34.2100   49.3650 Cl  0  0  0  0  0  0  0  0  0  0  0  0
   59.1970   32.9390   46.3260 C   0  0  0  0  0  0  0  0  0  0  0  0
   58.1310   29.3190   46.7580 C   0  0  0  0  0  0  0  0  0  0  0  0
   59.1500   30.3800   49.1730 N   0  0  0  0  0  0  0  0  0  0  0  0
   59.5230   30.8170   50.3890 C   0  0  0  0  0  0  0  0  0  0  0  0
   62.9018   30.5793   49.9106 H   0  0  0  0  0  0  0  0  0  0  0  0
   61.1613   29.8616   45.6769 H   0  0  0  0  0  0  0  0  0  0  0  0
   60.5228   28.2351   45.6478 H   0  0  0  0  0  0  0  0  0  0  0  0
   59.2521   30.8289   44.5891 H   0  0  0  0  0  0  0  0  0  0  0  0
   59.4338   29.3222   43.7134 H   0  0  0  0  0  0  0  0  0  0  0  0
   57.6187   28.2860   44.9239 H   0  0  0  0  0  0  0  0  0  0  0  0
   56.2030   29.6540   44.2120 H   0  0  0  0  0  0  0  0  0  0  0  0
   58.3732   31.3464   44.2256 H   0  0  0  0  0  0  0  0  0  0  0  0
   56.7427   31.5892   43.4239 H   0  0  0  0  0  0  0  0  0  0  0  0
   56.2569   33.2367   44.7607 H   0  0  0  0  0  0  0  0  0  0  0  0
   56.6055   32.1998   46.2115 H   0  0  0  0  0  0  0  0  0  0  0  0
   57.9229   35.2436   44.5015 H   0  0  0  0  0  0  0  0  0  0  0  0
   62.6584   33.3988   45.5244 H   0  0  0  0  0  0  0  0  0  0  0  0
   64.7273   33.1069   46.8369 H   0  0  0  0  0  0  0  0  0  0  0  0
   64.5842   33.3083   49.3247 H   0  0  0  0  0  0  0  0  0  0  0  0
   62.4410   33.7880   50.4200 H   0  0  0  0  0  0  0  0  0  0  0  0
   59.2463   31.9588   46.8228 H   0  0  0  0  0  0  0  0  0  0  0  0
   57.5257   30.1203   47.2069 H   0  0  0  0  0  0  0  0  0  0  0  0
   57.8322   28.3638   47.2145 H   0  0  0  0  0  0  0  0  0  0  0  0
   58.7727   31.1048   51.1401 H   0  0  0  0  0  0  0  0  0  0  0  0
  1  2  1  0
  2  3  2  0
  3  4  1  0
  4  5  2  0
  5  6  1  0
  6  7  1  0
  7  8  1  0
  8  9  1  0
  9 10  1  0
 10 11  1  0
 11 12  1  0
 12 13  1  0
 13 14  1  0
 14 15  2  0
 15 16  1  0
 16 17  1  0
 17 18  2  0
 18 19  1  0
 19 20  2  0
 20 21  1  0
 21 22  2  0
 22 23  1  0
 16 24  2  0
  9 25  1  0
  5 26  1  0
 26 27  2  0
 27  2  1  0
 25  6  1  0
 24 13  1  0
 22 17  1  0
  3 28  1  0
  7 29  1  0
  7 30  1  0
  8 31  1  0
  8 32  1  0
  9 33  1  6
 10 34  1  0
 11 35  1  0
 11 36  1  0
 12 37  1  0
 12 38  1  0
 14 39  1  0
 18 40  1  0
 19 41  1  0
 20 42  1  0
 21 43  1  0
 24 44  1  0
 25 45  1  0
 25 46  1  0
 27 47  1  0
M  END
>  <smiles>  (3) 
Fc1cnc(N2CCC(NCCn3cnc(-c4ccccc4Cl)c3)C2)nc1

>  <score_type>  (3) 
oracle

>  <origin>  (3) 
adg

>  <m_score__min__energy>  (3) 
-8.2899999999999991

>  <m_primary>  (3) 
energy

$$$$
4:0
     RDKit          3D

 45 48  0  0  1  0  0  0  0  0999 V2000
   54.2410   25.9490   45.6480 O   0  0  0  0  0  0  0  0  0  0  0  0
   55.3830   25.1740   45.6950 C   0  0  0  0  0  0  0  0  0  0  0  0
   56.5840   26.0770   45.6310 C   0  0  2  0  0  0  0  0  0  0  0  0
   57.5430   25.8150   46.7560 C   0  0  0  0  0  0  0  0  0  0  0  0
   58.6630   26.8040   46.7500 C   0  0  0  0  0  0  0  0  0  0  0  0
   58.5960   27.8400   45.6980 C   0  0  2  0  0  0  0  0  0  0  0  0
   59.2210   29.0950   46.0490 N   0  0  0  0  0  0  0  0  0  0  0  0
   59.6370   30.0810   45.2740 C   0  0  0  0  0  0  0  0  0  0  0  0
   60.1620   31.0700   46.0320 N   0  0  0  0  0  0  0  0  0  0  0  0
   60.0790   30.7070   47.3270 C   0  0  0  0  0  0  0  0  0  0  0  0
   60.4660   31.3440   48.5070 C   0  0  0  0  0  0  0  0  0  0  0  0
   61.2310   32.9560   48.4340 S   0  0  0  0  0  0  0  0  0  0  0  0
   59.9160   34.2130   48.5050 C   0  0  0  0  0  0  0  0  0  0  0  0
   59.1620   34.1140   47.2230 C   0  0  0  0  0  0  0  0  0  0  0  0
   59.6620   34.7380   46.0940 C   0  0  0  0  0  0  0  0  0  0  0  0
   58.9900   34.6690   44.8840 C   0  0  0  0  0  0  0  0  0  0  0  0
   57.8020   33.9600   44.8230 C   0  0  0  0  0  0  0  0  0  0  0  0
   57.2850   33.3250   45.9550 C   0  0  0  0  0  0  0  0  0  0  0  0
   57.9640   33.3950   47.1770 C   0  0  0  0  0  0  0  0  0  0  0  0
   60.2390   30.6980   49.6720 N   0  0  0  0  0  0  0  0  0  0  0  0
   59.6520   29.4680   49.6780 C   0  0  0  0  0  0  0  0  0  0  0  0
   59.2840   28.8650   48.5280 N   0  0  0  0  0  0  0  0  0  0  0  0
   59.4860   29.4620   47.3360 C   0  0  0  0  0  0  0  0  0  0  0  0
   57.2350   28.1560   45.1700 C   0  0  0  0  0  0  0  0  0  0  0  0
   56.2180   27.4300   45.7710 O   0  0  0  0  0  0  0  0  0  0  0  0
   54.3860   26.7170   45.0460 H   0  0  0  0  0  0  0  0  0  0  0  0
   55.4018   24.5996   46.6330 H   0  0  0  0  0  0  0  0  0  0  0  0
   55.3954   24.4745   44.8461 H   0  0  0  0  0  0  0  0  0  0  0  0
   57.0444   25.8733   44.6530 H   0  0  0  0  0  0  0  0  0  0  0  0
   57.0039   25.8886   47.7120 H   0  0  0  0  0  0  0  0  0  0  0  0
   57.9659   24.8078   46.6269 H   0  0  0  0  0  0  0  0  0  0  0  0
   58.6704   27.3125   47.7254 H   0  0  0  0  0  0  0  0  0  0  0  0
   59.5746   26.2242   46.5430 H   0  0  0  0  0  0  0  0  0  0  0  0
   59.1688   27.3392   44.9036 H   0  0  0  0  0  0  0  0  0  0  0  0
   59.5667   30.0952   44.1763 H   0  0  0  0  0  0  0  0  0  0  0  0
   59.2468   34.0145   49.3551 H   0  0  0  0  0  0  0  0  0  0  0  0
   60.3371   35.2201   48.6406 H   0  0  0  0  0  0  0  0  0  0  0  0
   60.6071   35.2973   46.1577 H   0  0  0  0  0  0  0  0  0  0  0  0
   59.3923   35.1675   43.9898 H   0  0  0  0  0  0  0  0  0  0  0  0
   57.2575   33.8958   43.8694 H   0  0  0  0  0  0  0  0  0  0  0  0
   56.3395   32.7672   45.8856 H   0  0  0  0  0  0  0  0  0  0  0  0
   57.5666   32.8988   48.0747 H   0  0  0  0  0  0  0  0  0  0  0  0
   59.4751   28.9580   50.6365 H   0  0  0  0  0  0  0  0  0  0  0  0
   57.0399   29.2262   45.3330 H   0  0  0  0  0  0  0  0  0  0  0  0
   57.2346   27.8849   44.1039 H   0  0  0  0  0  0  0  0  0  0  0  0
  1  2  1  0
  2  3  1  0
  3  4  1  0
  4  5  1  0
  5  6  1  0
  6  7  1  0
  7  8  1  0
  8  9  2  0
  9 10  1  0
 10 11  2  0
 11 12  1  0
 12 13  1  0
 13 14  1  0
 14 15  2  0
 15 16  1  0
 16 17  2  0
 17 18  1  0
 18 19  2  0
 11 20  1  0
 20 21  2  0
 21 22  1  0
 22 23  2  0
  6 24  1  0
 24 25  1  0
 25  3  1  0
 23  7  1  0
 23 10  1  0
 19 14  1  0
  1 26  1  0
  2 27  1  0
  2 28  1  0
  3 29  1  6
  4 30  1  0
  4 31  1  0
  5 32  1  0
  5 33  1  0
  6 34  1  6
  8 35  1  0
 13 36  1  0
 13 37  1  0
 15 38  1  0
 16 39  1  0
 17 40  1  0
 18 41  1  0
 19 42  1  0
 21 43  1  0
 24 44  1  0
 24 45  1  0
M  END
>  <smiles>  (4) 
OCC1CCC(n2cnc3c(SCc4ccccc4)ncnc32)CO1

>  <score_type>  (4) 
oracle

>  <origin>  (4) 
adg

>  <m_score__min__energy>  (4) 
-9.3399999999999999

>  <m_primary>  (4) 
energy

$$$$
5:0
     RDKit          3D

 51 54  0  0  0  0  0  0  0  0999 V2000
   60.3680   34.5590   47.6350 C   0  0  0  0  0  0  0  0  0  0  0  0
   59.4610   34.9090   46.4750 C   0  0  0  0  0  0  0  0  0  0  0  0
   58.1400   34.3610   46.6020 N   0  0  0  0  0  0  0  0  0  0  0  0
   58.1100   33.0550   47.2250 C   0  0  0  0  0  0  0  0  0  0  0  0
   58.6390   31.9890   46.2930 C   0  0  0  0  0  0  0  0  0  0  0  0
   58.0180   32.0570   44.9630 N   0  0  0  0  0  0  0  0  0  0  0  0
   57.7920   30.8970   44.1740 C   0  0  0  0  0  0  0  0  0  0  0  0
   57.2510   31.0150   43.0200 O   0  0  0  0  0  0  0  0  0  0  0  0
   58.1270   29.5440   44.5690 C   0  0  0  0  0  0  0  0  0  0  0  0
   59.3880   29.0060   44.5630 C   0  0  0  0  0  0  0  0  0  0  0  0
   59.6110   27.6790   44.9570 C   0  0  0  0  0  0  0  0  0  0  0  0
   58.5620   26.8810   45.3620 C   0  0  0  0  0  0  0  0  0  0  0  0
   57.2910   27.4160   45.3690 C   0  0  0  0  0  0  0  0  0  0  0  0
   57.0550   28.7400   44.9780 C   0  0  0  0  0  0  0  0  0  0  0  0
   56.3740   26.3520   45.8340 C   0  0  0  0  0  0  0  0  0  0  0  0
   55.1410   26.4080   45.9880 O   0  0  0  0  0  0  0  0  0  0  0  0
   57.1520   25.1860   46.0950 N   0  0  0  0  0  0  0  0  0  0  0  0
   56.6190   23.9050   46.5620 C   0  0  0  0  0  0  0  0  0  0  0  0
   56.6300   22.9250   45.4700 C   0  0  0  0  0  0  0  0  0  0  0  0
   56.7230   21.5620   45.7740 C   0  0  0  0  0  0  0  0  0  0  0  0
   56.7430   20.6050   44.7680 C   0  0  0  0  0  0  0  0  0  0  0  0
   56.6710   20.9860   43.4420 C   0  0  0  0  0  0  0  0  0  0  0  0
   56.5780   22.3360   43.1450 C   0  0  0  0  0  0  0  0  0  0  0  0
   56.5570   23.3100   44.1380 C   0  0  0  0  0  0  0  0  0  0  0  0
   58.5250   25.4850   45.8100 C   0  0  0  0  0  0  0  0  0  0  0  0
   59.4650   24.6700   45.9380 O   0  0  0  0  0  0  0  0  0  0  0  0
   57.6220   33.3240   44.4270 C   0  0  0  0  0  0  0  0  0  0  0  0
   57.3740   34.4170   45.3940 C   0  0  0  0  0  0  0  0  0  0  0  0
   59.8462   34.7604   48.5822 H   0  0  0  0  0  0  0  0  0  0  0  0
   60.6352   33.4932   47.5829 H   0  0  0  0  0  0  0  0  0  0  0  0
   61.2819   35.1690   47.5829 H   0  0  0  0  0  0  0  0  0  0  0  0
   59.3802   36.0043   46.4130 H   0  0  0  0  0  0  0  0  0  0  0  0
   59.9084   34.4746   45.5688 H   0  0  0  0  0  0  0  0  0  0  0  0
   58.7305   33.0769   48.1330 H   0  0  0  0  0  0  0  0  0  0  0  0
   57.0660   32.8125   47.4724 H   0  0  0  0  0  0  0  0  0  0  0  0
   59.7256   32.1212   46.1839 H   0  0  0  0  0  0  0  0  0  0  0  0
   58.3970   31.0086   46.7291 H   0  0  0  0  0  0  0  0  0  0  0  0
   60.2389   29.6257   44.2438 H   0  0  0  0  0  0  0  0  0  0  0  0
   60.6323   27.2707   44.9429 H   0  0  0  0  0  0  0  0  0  0  0  0
   56.0330   29.1466   44.9920 H   0  0  0  0  0  0  0  0  0  0  0  0
   57.2397   23.5332   47.3905 H   0  0  0  0  0  0  0  0  0  0  0  0
   55.5839   24.0497   46.9049 H   0  0  0  0  0  0  0  0  0  0  0  0
   56.7811   21.2441   46.8255 H   0  0  0  0  0  0  0  0  0  0  0  0
   56.8165   19.5387   45.0281 H   0  0  0  0  0  0  0  0  0  0  0  0
   56.6872   20.2338   42.6395 H   0  0  0  0  0  0  0  0  0  0  0  0
   56.5189   22.6473   42.0916 H   0  0  0  0  0  0  0  0  0  0  0  0
   56.4833   24.3745   43.8706 H   0  0  0  0  0  0  0  0  0  0  0  0
   58.4177   33.6588   43.7453 H   0  0  0  0  0  0  0  0  0  0  0  0
   56.6482   33.1395   43.9498 H   0  0  0  0  0  0  0  0  0  0  0  0
   57.6013   35.3697   44.8932 H   0  0  0  0  0  0  0  0  0  0  0  0
   56.3224   34.3146   45.7000 H   0  0  0  0  0  0  0  0  0  0  0  0
  1  2  1  0
  2  3  1  0
  3  4  1  0
  4  5  1  0
  5  6  1  0
  6  7  1  0
  7  8  2  0
  7  9  1  0
  9 10  2  0
 10 11  1  0
 11 12  2  0
 12 13  1  0
 13 14  2  0
 13 15  1  0
 15 16  2  0
 15 17  1  0
 17 18  1  0
 18 19  1  0
 19 20  2  0
 20 21  1  0
 21 22  2  0
 22 23  1  0
 23 24  2  0
 17 25  1  0
 25 26  2  0
  6 27  1  0
 27 28  1  0
 28  3  1  0
 14  9  1  0
 24 19  1  0
 25 12  1  0
  1 29  1  0
  1 30  1  0
  1 31  1  0
  2 32  1  0
  2 33  1  0
  4 34  1  0
  4 35  1  0
  5 36  1  0
  5 37  1  0
 10 38  1  0
 11 39  1  0
 14 40  1  0
 18 41  1  0
 18 42  1  0
 20 43  1  0
 21 44  1  0
 22 45  1  0
 23 46  1  0
 24 47  1  0
 27 48  1  0
 27 49  1  0
 28 50  1  0
 28 51  1  0
M  END
>  <smiles>  (5) 
CCN1CCN(C(=O)c2ccc3c(c2)C(=O)N(Cc2ccccc2)C3=O)CC1

>  <score_type>  (5) 
oracle

>  <origin>  (5) 
adg

>  <m_score__min__energy>  (5) 
-9.5899999999999999

>  <m_primary>  (5) 
energy

$$$$
6:0
     RDKit          3D

 42 44  0  0  1  0  0  0  0  0999 V2000
   58.1720   27.4640   43.9730 C   0  0  0  0  0  0  0  0  0  0  0  0
   57.8360   28.8600   44.3460 C   0  0  0  0  0  0  0  0  0  0  0  0
   56.5500   29.3710   44.5760 C   0  0  0  0  0  0  0  0  0  0  0  0
   56.6900   30.6630   44.8950 N   0  0  0  0  0  0  0  0  0  0  0  0
   57.9570   31.0110   44.8850 N   0  0  0  0  0  0  0  0  0  0  0  0
   58.5860   32.2810   45.1680 C   0  0  1  0  0  0  0  0  0  0  0  0
   57.5660   33.4140   45.1710 C   0  0  0  0  0  0  0  0  0  0  0  0
   58.3640   34.6710   44.8730 C   0  0  0  0  0  0  0  0  0  0  0  0
   59.6910   34.6030   45.5950 C   0  0  0  0  0  0  0  0  0  0  0  0
   59.6730   33.7340   46.7540 N   0  0  0  0  0  0  0  0  0  0  0  0
   60.0500   34.1810   48.0580 C   0  0  0  0  0  0  0  0  0  0  0  0
   59.2670   34.8400   48.7800 O   0  0  0  0  0  0  0  0  0  0  0  0
   61.4090   33.8050   48.4770 C   0  0  0  0  0  0  0  0  0  0  0  0
   62.3930   33.4230   47.5960 C   0  0  0  0  0  0  0  0  0  0  0  0
   63.6430   33.0480   48.1010 C   0  0  0  0  0  0  0  0  0  0  0  0
   63.8410   33.0750   49.4680 C   0  0  0  0  0  0  0  0  0  0  0  0
   65.1420   32.6650   50.0730 C   0  0  0  0  0  0  0  0  0  0  0  0
   65.2640   33.2070   51.3580 F   0  0  0  0  0  0  0  0  0  0  0  0
   65.2070   31.2900   50.1620 F   0  0  0  0  0  0  0  0  0  0  0  0
   66.2290   33.0940   49.3590 F   0  0  0  0  0  0  0  0  0  0  0  0
   62.8500   33.4610   50.3590 C   0  0  0  0  0  0  0  0  0  0  0  0
   61.6210   33.8300   49.8530 C   0  0  0  0  0  0  0  0  0  0  0  0
   59.2700   32.3320   46.5090 C   0  0  0  0  0  0  0  0  0  0  0  0
   58.7030   29.9150   44.5470 C   0  0  0  0  0  0  0  0  0  0  0  0
   58.3161   26.8655   44.8846 H   0  0  0  0  0  0  0  0  0  0  0  0
   57.3513   27.0356   43.3789 H   0  0  0  0  0  0  0  0  0  0  0  0
   59.0977   27.4559   43.3789 H   0  0  0  0  0  0  0  0  0  0  0  0
   55.6039   28.8141   44.5071 H   0  0  0  0  0  0  0  0  0  0  0  0
   59.3324   32.3978   44.3685 H   0  0  0  0  0  0  0  0  0  0  0  0
   56.8037   33.2484   44.3954 H   0  0  0  0  0  0  0  0  0  0  0  0
   57.0331   33.4840   46.1307 H   0  0  0  0  0  0  0  0  0  0  0  0
   58.5385   34.7473   43.7896 H   0  0  0  0  0  0  0  0  0  0  0  0
   57.8031   35.5534   45.2148 H   0  0  0  0  0  0  0  0  0  0  0  0
   60.4513   34.2310   44.8924 H   0  0  0  0  0  0  0  0  0  0  0  0
   59.9169   35.6178   45.9543 H   0  0  0  0  0  0  0  0  0  0  0  0
   62.2010   33.4123   46.5129 H   0  0  0  0  0  0  0  0  0  0  0  0
   64.4518   32.7379   47.4231 H   0  0  0  0  0  0  0  0  0  0  0  0
   63.0398   33.4725   51.4425 H   0  0  0  0  0  0  0  0  0  0  0  0
   60.8137   34.1420   50.5320 H   0  0  0  0  0  0  0  0  0  0  0  0
   60.1578   31.6826   46.5019 H   0  0  0  0  0  0  0  0  0  0  0  0
   58.5923   31.9814   47.3013 H   0  0  0  0  0  0  0  0  0  0  0  0
   59.7984   29.8807   44.4523 H   0  0  0  0  0  0  0  0  0  0  0  0
  1  2  1  0
  2  3  1  0
  3  4  2  0
  4  5  1  0
  5  6  1  0
  6  7  1  0
  7  8  1  0
  8  9  1  0
  9 10  1  0
 10 11  1  0
 11 12  2  0
 11 13  1  0
 13 14  2  0
 14 15  1  0
 15 16  2  0
 16 17  1  0
 17 18  1  0
 17 19  1  0
 17 20  1  0
 16 21  1  0
 21 22  2  0
 10 23  1  0
  5 24  1  0
 24  2  2  0
 23  6  1  0
 22 13  1  0
  1 25  1  0
  1 26  1  0
  1 27  1  0
  3 28  1  0
  6 29  1  6
  7 30  1  0
  7 31  1  0
  8 32  1  0
  8 33  1  0
  9 34  1  0
  9 35  1  0
 14 36  1  0
 15 37  1  0
 21 38  1  0
 22 39  1  0
 23 40  1  0
 23 41  1  0
 24 42  1  0
M  END
>  <smiles>  (6) 
Cc1cnn(C2CCCN(C(=O)c3ccc(C(F)(F)F)cc3)C2)c1

>  <score_type>  (6) 
oracle

>  <origin>  (6) 
adg

>  <m_score__min__energy>  (6) 
-7.7400000000000002

>  <m_primary>  (6) 
energy

$$$$
7:0
     RDKit          3D

 42 44  0  0  0  0  0  0  0  0999 V2000
   56.5640   30.1040   42.8270 C   0  0  0  0  0  0  0  0  0  0  0  0
   56.8940   30.8300   44.1380 C   0  0  0  0  0  0  0  0  0  0  0  0
   57.4590   32.2040   43.8500 C   0  0  0  0  0  0  0  0  0  0  0  0
   58.1230   32.8280   44.9280 N   0  0  0  0  0  0  0  0  0  0  0  0
   58.3120   34.2400   44.8600 C   0  0  0  0  0  0  0  0  0  0  0  0
   59.6210   34.5080   45.5700 C   0  0  0  0  0  0  0  0  0  0  0  0
   59.6260   33.9420   46.9970 C   0  0  0  0  0  0  0  0  0  0  0  0
   61.0600   33.8610   47.3560 C   0  0  0  0  0  0  0  0  0  0  0  0
   62.0280   33.8390   46.3700 C   0  0  0  0  0  0  0  0  0  0  0  0
   63.3930   33.7730   46.6810 C   0  0  0  0  0  0  0  0  0  0  0  0
   63.8320   33.7290   47.9820 C   0  0  0  0  0  0  0  0  0  0  0  0
   62.8690   33.7510   48.9700 C   0  0  0  0  0  0  0  0  0  0  0  0
   63.3350   33.7070   50.2740 C   0  0  0  0  0  0  0  0  0  0  0  0
   62.4500   33.7270   51.3330 C   0  0  0  0  0  0  0  0  0  0  0  0
   61.1100   33.7920   51.0190 C   0  0  0  0  0  0  0  0  0  0  0  0
   60.6450   33.8350   49.7200 C   0  0  0  0  0  0  0  0  0  0  0  0
   61.5200   33.8150   48.6580 C   0  0  0  0  0  0  0  0  0  0  0  0
   59.0040   32.5950   47.1090 C   0  0  0  0  0  0  0  0  0  0  0  0
   57.7530   32.4520   46.2470 C   0  0  0  0  0  0  0  0  0  0  0  0
   56.1185   29.1239   43.0527 H   0  0  0  0  0  0  0  0  0  0  0  0
   55.8508   30.7055   42.2442 H   0  0  0  0  0  0  0  0  0  0  0  0
   57.4861   29.9622   42.2442 H   0  0  0  0  0  0  0  0  0  0  0  0
   55.9768   30.9330   44.7365 H   0  0  0  0  0  0  0  0  0  0  0  0
   57.6422   30.2446   44.6925 H   0  0  0  0  0  0  0  0  0  0  0  0
   58.1754   32.1085   43.0208 H   0  0  0  0  0  0  0  0  0  0  0  0
   56.5940   32.8429   43.6186 H   0  0  0  0  0  0  0  0  0  0  0  0
   58.3685   34.5702   43.8122 H   0  0  0  0  0  0  0  0  0  0  0  0
   57.4773   34.7860   45.3238 H   0  0  0  0  0  0  0  0  0  0  0  0
   60.4370   34.0405   44.9994 H   0  0  0  0  0  0  0  0  0  0  0  0
   59.7557   35.5977   45.6356 H   0  0  0  0  0  0  0  0  0  0  0  0
   59.0309   34.5850   47.6622 H   0  0  0  0  0  0  0  0  0  0  0  0
   61.7195   33.8742   45.3147 H   0  0  0  0  0  0  0  0  0  0  0  0
   64.1299   33.7560   45.8645 H   0  0  0  0  0  0  0  0  0  0  0  0
   64.9036   33.6785   48.2253 H   0  0  0  0  0  0  0  0  0  0  0  0
   64.4168   33.6558   50.4665 H   0  0  0  0  0  0  0  0  0  0  0  0
   62.7973   33.6927   52.3762 H   0  0  0  0  0  0  0  0  0  0  0  0
   60.3782   33.8104   51.8400 H   0  0  0  0  0  0  0  0  0  0  0  0
   59.5625   33.8858   49.5315 H   0  0  0  0  0  0  0  0  0  0  0  0
   59.7386   31.8404   46.7914 H   0  0  0  0  0  0  0  0  0  0  0  0
   58.7036   32.4532   48.1577 H   0  0  0  0  0  0  0  0  0  0  0  0
   57.4005   31.4101   46.2597 H   0  0  0  0  0  0  0  0  0  0  0  0
   56.9365   33.0847   46.6253 H   0  0  0  0  0  0  0  0  0  0  0  0
  1  2  1  0
  2  3  1  0
  3  4  1  0
  4  5  1  0
  5  6  1  0
  6  7  1  0
  7  8  1  0
  8  9  2  0
  9 10  1  0
 10 11  2  0
 11 12  1  0
 12 13  2  0
 13 14  1  0
 14 15  2  0
 15 16  1  0
 16 17  2  0
  7 18  1  0
 18 19  1  0
 19  4  1  0
 17  8  1  0
 17 12  1  0
  1 20  1  0
  1 21  1  0
  1 22  1  0
  2 23  1  0
  2 24  1  0
  3 25  1  0
  3 26  1  0
  5 27  1  0
  5 28  1  0
  6 29  1  0
  6 30  1  0
  7 31  1  0
  9 32  1  0
 10 33  1  0
 11 34  1  0
 13 35  1  0
 14 36  1  0
 15 37  1  0
 16 38  1  0
 18 39  1  0
 18 40  1  0
 19 41  1  0
 19 42  1  0
M  END
>  <smiles>  (7) 
CCCN1CCC(c2cccc3ccccc23)CC1

>  <score_type>  (7) 
oracle

>  <origin>  (7) 
adg

>  <m_score__min__energy>  (7) 
-7.4400000000000004

>  <m_primary>  (7) 
energy

$$$$
8:0
     RDKit          3D

 44 46  0  0  0  0  0  0  0  0999 V2000
   63.3950   32.5570   47.5990 C   0  0  0  0  0  0  0  0  0  0  0  0
   63.4480   33.8190   48.4370 C   0  0  0  0  0  0  0  0  0  0  0  0
   62.5480   33.6870   49.5920 N   0  0  0  0  0  0  0  0  0  0  0  0
   63.1400   33.9230   50.8830 C   0  0  0  0  0  0  0  0  0  0  0  0
   64.6050   33.4870   50.9110 C   0  0  0  0  0  0  0  0  0  0  0  0
   61.1910   33.3490   49.3800 C   0  0  0  0  0  0  0  0  0  0  0  0
   60.4130   32.6490   50.2670 C   0  0  0  0  0  0  0  0  0  0  0  0
   59.0940   32.3380   50.0240 C   0  0  0  0  0  0  0  0  0  0  0  0
   58.2550   31.5950   50.9580 C   0  0  0  0  0  0  0  0  0  0  0  0
   58.1520   30.2420   51.0030 C   0  0  0  0  0  0  0  0  0  0  0  0
   57.3200   29.7040   51.9430 N   0  0  0  0  0  0  0  0  0  0  0  0
   56.6130   30.4160   52.8090 C   0  0  0  0  0  0  0  0  0  0  0  0
   56.7030   31.7730   52.7800 N   0  0  0  0  0  0  0  0  0  0  0  0
   57.5050   32.3240   51.8760 C   0  0  0  0  0  0  0  0  0  0  0  0
   58.5960   32.7720   48.8320 N   0  0  0  0  0  0  0  0  0  0  0  0
   59.3070   33.4540   47.9380 C   0  0  0  0  0  0  0  0  0  0  0  0
   58.7010   33.8680   46.7130 N   0  0  0  0  0  0  0  0  0  0  0  0
   57.3400   33.4680   46.3660 C   0  0  0  0  0  0  0  0  0  0  0  0
   57.4280   33.3270   44.8610 C   0  0  0  0  0  0  0  0  0  0  0  0
   58.3360   34.4810   44.4950 C   0  0  0  0  0  0  0  0  0  0  0  0
   59.2690   34.6920   45.6670 C   0  0  0  0  0  0  0  0  0  0  0  0
   60.5900   33.7310   48.2260 N   0  0  0  0  0  0  0  0  0  0  0  0
   63.3581   31.6789   48.2605 H   0  0  0  0  0  0  0  0  0  0  0  0
   62.4969   32.5758   46.9642 H   0  0  0  0  0  0  0  0  0  0  0  0
   64.2916   32.5005   46.9642 H   0  0  0  0  0  0  0  0  0  0  0  0
   64.4768   33.9789   48.7919 H   0  0  0  0  0  0  0  0  0  0  0  0
   63.1303   34.6757   47.8246 H   0  0  0  0  0  0  0  0  0  0  0  0
   63.0815   34.9971   51.1130 H   0  0  0  0  0  0  0  0  0  0  0  0
   62.5884   33.3340   51.6305 H   0  0  0  0  0  0  0  0  0  0  0  0
   64.9382   33.3878   51.9546 H   0  0  0  0  0  0  0  0  0  0  0  0
   64.7093   32.5189   50.3993 H   0  0  0  0  0  0  0  0  0  0  0  0
   65.2217   34.2405   50.3993 H   0  0  0  0  0  0  0  0  0  0  0  0
   60.8635   32.3213   51.2155 H   0  0  0  0  0  0  0  0  0  0  0  0
   58.7173   29.6032   50.3085 H   0  0  0  0  0  0  0  0  0  0  0  0
   55.9621   29.9162   53.5415 H   0  0  0  0  0  0  0  0  0  0  0  0
   57.5809   33.4211   51.8515 H   0  0  0  0  0  0  0  0  0  0  0  0
   57.0702   32.5136   46.8418 H   0  0  0  0  0  0  0  0  0  0  0  0
   56.5697   34.1783   46.7008 H   0  0  0  0  0  0  0  0  0  0  0  0
   57.8713   32.3620   44.5743 H   0  0  0  0  0  0  0  0  0  0  0  0
   56.4523   33.3493   44.3535 H   0  0  0  0  0  0  0  0  0  0  0  0
   58.9130   34.2368   43.5909 H   0  0  0  0  0  0  0  0  0  0  0  0
   57.7536   35.3903   44.2856 H   0  0  0  0  0  0  0  0  0  0  0  0
   60.2893   34.3634   45.4198 H   0  0  0  0  0  0  0  0  0  0  0  0
   59.3546   35.7494   45.9577 H   0  0  0  0  0  0  0  0  0  0  0  0
  1  2  1  0
  2  3  1  0
  3  4  1  0
  4  5  1  0
  3  6  1  0
  6  7  2  0
  7  8  1  0
  8  9  1  0
  9 10  2  0
 10 11  1  0
 11 12  2  0
 12 13  1  0
 13 14  2  0
  8 15  2  0
 15 16  1  0
 16 17  1  0
 17 18  1  0
 18 19  1  0
 19 20  1  0
 20 21  1  0
 16 22  2  0
 22  6  1  0
 14  9  1  0
 21 17  1  0
  1 23  1  0
  1 24  1  0
  1 25  1  0
  2 26  1  0
  2 27  1  0
  4 28  1  0
  4 29  1  0
  5 30  1  0
  5 31  1  0
  5 32  1  0
  7 33  1  0
 10 34  1  0
 12 35  1  0
 14 36  1  0
 18 37  1  0
 18 38  1  0
 19 39  1  0
 19 40  1  0
 20 41  1  0
 20 42  1  0
 21 43  1  0
 21 44  1  0
M  END
>  <smiles>  (8) 
CCN(CC)c1cc(-c2cncnc2)nc(N2CCCC2)n1

>  <score_type>  (8) 
oracle

>  <origin>  (8) 
adg

>  <m_score__min__energy>  (8) 
-6.0899999999999999

>  <m_primary>  (8) 
energy

$$$$
9:0
     RDKit          3D

 40 42  0  0  1  0  0  0  0  0999 V2000
   61.1180   34.1130   49.1120 C   0  0  0  0  0  0  0  0  0  0  0  0
   59.7740   33.8870   49.2080 O   0  0  0  0  0  0  0  0  0  0  0  0
   59.0590   34.0700   48.0390 C   0  0  0  0  0  0  0  0  0  0  0  0
   59.9890   34.3200   46.9050 C   0  0  0  0  0  0  0  0  0  0  0  0
   59.5730   33.7700   45.6400 N   0  0  0  0  0  0  0  0  0  0  0  0
   58.7220   34.5780   44.8550 C   0  0  0  0  0  0  0  0  0  0  0  0
   57.2790   34.2190   44.8990 C   0  0  0  0  0  0  0  0  0  0  0  0
   56.9930   32.7760   45.2440 C   0  0  0  0  0  0  0  0  0  0  0  0
   58.1660   31.9040   44.8520 C   0  0  2  0  0  0  0  0  0  0  0  0
   59.3600   32.3700   45.6510 C   0  0  0  0  0  0  0  0  0  0  0  0
   58.4240   31.9680   43.4470 N   0  0  0  0  0  0  0  0  0  0  0  0
   57.2890   31.6220   42.6540 C   0  0  0  0  0  0  0  0  0  0  0  0
   56.5590   30.3860   43.0550 C   0  0  0  0  0  0  0  0  0  0  0  0
   57.0460   29.7940   44.3420 C   0  0  0  0  0  0  0  0  0  0  0  0
   56.8320   28.5580   44.8280 N   0  0  0  0  0  0  0  0  0  0  0  0
   57.4660   28.4890   46.0060 C   0  0  0  0  0  0  0  0  0  0  0  0
   58.0690   29.6730   46.2460 N   0  0  0  0  0  0  0  0  0  0  0  0
   57.8260   30.5140   45.2230 C   0  0  0  0  0  0  0  0  0  0  0  0
   61.5506   34.1857   50.1208 H   0  0  0  0  0  0  0  0  0  0  0  0
   61.5917   33.2819   48.5690 H   0  0  0  0  0  0  0  0  0  0  0  0
   61.2938   35.0533   48.5690 H   0  0  0  0  0  0  0  0  0  0  0  0
   58.4653   33.1677   47.8306 H   0  0  0  0  0  0  0  0  0  0  0  0
   58.3928   34.9374   48.1564 H   0  0  0  0  0  0  0  0  0  0  0  0
   60.0950   35.4083   46.7849 H   0  0  0  0  0  0  0  0  0  0  0  0
   60.9306   33.8137   47.1641 H   0  0  0  0  0  0  0  0  0  0  0  0
   58.8238   35.6163   45.2036 H   0  0  0  0  0  0  0  0  0  0  0  0
   59.0393   34.4275   43.8126 H   0  0  0  0  0  0  0  0  0  0  0  0
   56.7917   34.8539   45.6537 H   0  0  0  0  0  0  0  0  0  0  0  0
   56.8907   34.3760   43.8818 H   0  0  0  0  0  0  0  0  0  0  0  0
   56.8206   32.6883   46.3269 H   0  0  0  0  0  0  0  0  0  0  0  0
   56.0995   32.4452   44.6942 H   0  0  0  0  0  0  0  0  0  0  0  0
   59.2175   32.0539   46.6949 H   0  0  0  0  0  0  0  0  0  0  0  0
   60.2444   31.9188   45.1773 H   0  0  0  0  0  0  0  0  0  0  0  0
   59.2670   31.4480   43.1840 H   0  0  0  0  0  0  0  0  0  0  0  0
   56.5791   32.4610   42.6998 H   0  0  0  0  0  0  0  0  0  0  0  0
   57.6838   31.4177   41.6478 H   0  0  0  0  0  0  0  0  0  0  0  0
   55.4928   30.6324   43.1668 H   0  0  0  0  0  0  0  0  0  0  0  0
   56.7346   29.6375   42.2683 H   0  0  0  0  0  0  0  0  0  0  0  0
   56.2820   27.8120   44.3670 H   0  0  0  0  0  0  0  0  0  0  0  0
   57.4912   27.6117   46.6691 H   0  0  0  0  0  0  0  0  0  0  0  0
  1  2  1  0
  2  3  1  0
  3  4  1  0
  4  5  1  0
  5  6  1  0
  6  7  1  0
  7  8  1  0
  8  9  1  0
  9 10  1  0
  9 11  1  6
 11 12  1  0
 12 13  1  0
 13 14  1  0
 14 15  1  0
 15 16  1  0
 16 17  2  0
 17 18  1  0
 10  5  1  0
 18 14  2  0
 18  9  1  0
  1 19  1  0
  1 20  1  0
  1 21  1  0
  3 22  1  0
  3 23  1  0
  4 24  1  0
  4 25  1  0
  6 26  1  0
  6 27  1  0
  7 28  1  0
  7 29  1  0
  8 30  1  0
  8 31  1  0
 10 32  1  0
 10 33  1  0
 11 34  1  0
 12 35  1  0
 12 36  1  0
 13 37  1  0
 13 38  1  0
 15 39  1  0
 16 40  1  0
M  END
>  <smiles>  (9) 
COCCN1CCCC2(C1)NCCc1[nH]cnc12

>  <score_type>  (9) 
oracle

>  <origin>  (9) 
adg

>  <m_score__min__energy>  (9) 
-6.6500000000000004

>  <m_primary>  (9) 
energy

$$$$
10:0
     RDKit          3D

 49 52  0  0  0  0  0  0  0  0999 V2000
   57.3350   32.3650   40.8180 C   0  0  0  0  0  0  0  0  0  0  0  0
   58.2550   32.7200   41.8280 O   0  0  0  0  0  0  0  0  0  0  0  0
   58.0450   32.3180   43.1400 C   0  0  0  0  0  0  0  0  0  0  0  0
   58.5820   33.1530   44.1210 C   0  0  0  0  0  0  0  0  0  0  0  0
   58.4420   32.8630   45.4650 C   0  0  0  0  0  0  0  0  0  0  0  0
   58.9810   33.6980   46.4790 N   0  0  0  0  0  0  0  0  0  0  0  0
   60.2080   34.4680   46.2980 C   0  0  0  0  0  0  0  0  0  0  0  0
   61.3650   33.7970   46.8950 C   0  0  0  0  0  0  0  0  0  0  0  0
   62.6620   33.8300   46.3710 C   0  0  0  0  0  0  0  0  0  0  0  0
   63.4820   33.1030   47.1780 C   0  0  0  0  0  0  0  0  0  0  0  0
   62.7060   32.6180   48.1980 C   0  0  0  0  0  0  0  0  0  0  0  0
   61.4400   33.0480   48.0070 N   0  0  0  0  0  0  0  0  0  0  0  0
   60.3790   32.7340   48.8740 C   0  0  0  0  0  0  0  0  0  0  0  0
   59.3530   33.4670   49.3440 N   0  0  0  0  0  0  0  0  0  0  0  0
   58.5330   32.8880   50.1330 N   0  0  0  0  0  0  0  0  0  0  0  0
   58.5710   31.7320   50.5200 C   0  0  0  0  0  0  0  0  0  0  0  0
   57.7930   30.9100   51.3670 N   0  0  0  0  0  0  0  0  0  0  0  0
   56.4350   31.2140   51.7520 C   0  0  0  0  0  0  0  0  0  0  0  0
   56.3320   30.5160   53.0900 C   0  0  0  0  0  0  0  0  0  0  0  0
   57.1240   29.2440   52.8610 C   0  0  0  0  0  0  0  0  0  0  0  0
   58.2300   29.6870   51.9510 C   0  0  0  0  0  0  0  0  0  0  0  0
   59.3230   29.1070   51.7380 O   0  0  0  0  0  0  0  0  0  0  0  0
   60.0860   31.1240   49.6570 S   0  0  0  0  0  0  0  0  0  0  0  0
   57.7450   31.7050   45.8170 C   0  0  0  0  0  0  0  0  0  0  0  0
   57.2160   30.8850   44.8180 C   0  0  0  0  0  0  0  0  0  0  0  0
   56.5360   29.7520   45.2480 O   0  0  0  0  0  0  0  0  0  0  0  0
   57.1580   28.5000   45.1040 C   0  0  0  0  0  0  0  0  0  0  0  0
   57.3590   31.1800   43.4780 C   0  0  0  0  0  0  0  0  0  0  0  0
   56.4037   32.0057   41.2802 H   0  0  0  0  0  0  0  0  0  0  0  0
   57.1188   33.2443   40.1934 H   0  0  0  0  0  0  0  0  0  0  0  0
   57.7655   31.5684   40.1934 H   0  0  0  0  0  0  0  0  0  0  0  0
   59.1271   34.0593   43.8186 H   0  0  0  0  0  0  0  0  0  0  0  0
   58.4650   33.7530   47.3870 H   0  0  0  0  0  0  0  0  0  0  0  0
   60.3897   34.6002   45.2212 H   0  0  0  0  0  0  0  0  0  0  0  0
   60.0795   35.4385   46.7997 H   0  0  0  0  0  0  0  0  0  0  0  0
   62.9689   34.3576   45.4559 H   0  0  0  0  0  0  0  0  0  0  0  0
   64.5603   32.9367   47.0383 H   0  0  0  0  0  0  0  0  0  0  0  0
   63.0542   31.9872   49.0291 H   0  0  0  0  0  0  0  0  0  0  0  0
   56.2799   32.2984   51.8524 H   0  0  0  0  0  0  0  0  0  0  0  0
   55.6803   30.8902   51.0202 H   0  0  0  0  0  0  0  0  0  0  0  0
   56.7793   31.1237   53.8904 H   0  0  0  0  0  0  0  0  0  0  0  0
   55.2954   30.3344   53.4101 H   0  0  0  0  0  0  0  0  0  0  0  0
   57.5251   28.8534   53.8079 H   0  0  0  0  0  0  0  0  0  0  0  0
   56.5180   28.4293   52.4379 H   0  0  0  0  0  0  0  0  0  0  0  0
   57.6133   31.4400   46.8765 H   0  0  0  0  0  0  0  0  0  0  0  0
   57.3676   28.0782   46.0981 H   0  0  0  0  0  0  0  0  0  0  0  0
   56.4923   27.8213   44.5506 H   0  0  0  0  0  0  0  0  0  0  0  0
   58.1010   28.6205   44.5506 H   0  0  0  0  0  0  0  0  0  0  0  0
   56.9357   30.5224   42.7044 H   0  0  0  0  0  0  0  0  0  0  0  0
  1  2  1  0
  2  3  1  0
  3  4  2  0
  4  5  1  0
  5  6  1  0
  6  7  1  0
  7  8  1  0
  8  9  2  0
  9 10  1  0
 10 11  2  0
 11 12  1  0
 12 13  1  0
 13 14  2  0
 14 15  1  0
 15 16  2  0
 16 17  1  0
 17 18  1  0
 18 19  1  0
 19 20  1  0
 20 21  1  0
 21 22  2  0
 16 23  1  0
  5 24  2  0
 24 25  1  0
 25 26  1  0
 26 27  1  0
 25 28  2  0
 28  3  1  0
 12  8  1  0
 23 13  1  0
 21 17  1  0
  1 29  1  0
  1 30  1  0
  1 31  1  0
  4 32  1  0
  6 33  1  0
  7 34  1  0
  7 35  1  0
  9 36  1  0
 10 37  1  0
 11 38  1  0
 18 39  1  0
 18 40  1  0
 19 41  1  0
 19 42  1  0
 20 43  1  0
 20 44  1  0
 24 45  1  0
 27 46  1  0
 27 47  1  0
 27 48  1  0
 28 49  1  0
M  END
>  <smiles>  (10) 
COc1cc(NCc2cccn2-c2nnc(N3CCCC3=O)s2)cc(OC)c1

>  <score_type>  (10) 
oracle

>  <origin>  (10) 
adg

>  <m_score__min__energy>  (10) 
-8.75

>  <m_primary>  (10) 
energy

$$$$
11:0
     RDKit          3D

 50 52  0  0  0  0  0  0  0  0999 V2000
   63.2000   33.8420   46.3460 C   0  0  0  0  0  0  0  0  0  0  0  0
   63.1090   33.5050   47.7670 C   0  0  0  0  0  0  0  0  0  0  0  0
   64.2290   33.2920   48.5400 C   0  0  0  0  0  0  0  0  0  0  0  0
   64.1900   32.9730   49.8790 C   0  0  0  0  0  0  0  0  0  0  0  0
   62.9530   32.8580   50.4860 C   0  0  0  0  0  0  0  0  0  0  0  0
   61.8190   33.0660   49.7320 C   0  0  0  0  0  0  0  0  0  0  0  0
   61.8690   33.3900   48.3750 C   0  0  0  0  0  0  0  0  0  0  0  0
   60.6430   33.5820   47.7250 N   0  0  0  0  0  0  0  0  0  0  0  0
   59.6540   34.5930   48.1220 C   0  0  0  0  0  0  0  0  0  0  0  0
   58.5130   34.5870   47.1170 C   0  0  0  0  0  0  0  0  0  0  0  0
   58.9060   34.6590   45.7590 N   0  0  0  0  0  0  0  0  0  0  0  0
   57.7740   34.2260   44.9310 C   0  0  0  0  0  0  0  0  0  0  0  0
   57.0350   33.0770   45.5240 C   0  0  0  0  0  0  0  0  0  0  0  0
   57.2420   31.8300   44.8860 N   0  0  0  0  0  0  0  0  0  0  0  0
   57.6580   31.8820   43.5220 C   0  0  0  0  0  0  0  0  0  0  0  0
   56.8000   30.8770   42.7750 C   0  0  0  0  0  0  0  0  0  0  0  0
   56.4990   29.7380   43.7170 C   0  0  0  0  0  0  0  0  0  0  0  0
   57.6110   29.5170   44.7450 C   0  0  0  0  0  0  0  0  0  0  0  0
   57.7670   30.7580   45.6380 C   0  0  0  0  0  0  0  0  0  0  0  0
   60.0310   33.8400   45.4630 C   0  0  0  0  0  0  0  0  0  0  0  0
   60.2260   32.7850   46.5520 C   0  0  0  0  0  0  0  0  0  0  0  0
   63.4854   34.8988   46.2373 H   0  0  0  0  0  0  0  0  0  0  0  0
   63.9586   33.2061   45.8662 H   0  0  0  0  0  0  0  0  0  0  0  0
   62.2244   33.6744   45.8662 H   0  0  0  0  0  0  0  0  0  0  0  0
   65.2140   33.3822   48.0587 H   0  0  0  0  0  0  0  0  0  0  0  0
   65.1169   32.8141   50.4497 H   0  0  0  0  0  0  0  0  0  0  0  0
   62.8757   32.6045   51.5536 H   0  0  0  0  0  0  0  0  0  0  0  0
   60.8364   32.9732   50.2178 H   0  0  0  0  0  0  0  0  0  0  0  0
   59.2653   34.3561   49.1234 H   0  0  0  0  0  0  0  0  0  0  0  0
   60.1253   35.5866   48.1449 H   0  0  0  0  0  0  0  0  0  0  0  0
   57.9410   33.6579   47.2570 H   0  0  0  0  0  0  0  0  0  0  0  0
   57.9276   35.4972   47.3142 H   0  0  0  0  0  0  0  0  0  0  0  0
   57.0784   35.0704   44.8164 H   0  0  0  0  0  0  0  0  0  0  0  0
   58.1775   33.8972   43.9620 H   0  0  0  0  0  0  0  0  0  0  0  0
   57.3475   32.9775   46.5740 H   0  0  0  0  0  0  0  0  0  0  0  0
   55.9663   33.3073   45.4020 H   0  0  0  0  0  0  0  0  0  0  0  0
   57.5028   32.8920   43.1149 H   0  0  0  0  0  0  0  0  0  0  0  0
   58.7278   31.6465   43.4216 H   0  0  0  0  0  0  0  0  0  0  0  0
   55.8625   31.3527   42.4513 H   0  0  0  0  0  0  0  0  0  0  0  0
   57.3279   30.5088   41.8829 H   0  0  0  0  0  0  0  0  0  0  0  0
   55.5637   29.9604   44.2516 H   0  0  0  0  0  0  0  0  0  0  0  0
   56.4134   28.8210   43.1155 H   0  0  0  0  0  0  0  0  0  0  0  0
   57.3586   28.6487   45.3714 H   0  0  0  0  0  0  0  0  0  0  0  0
   58.5577   29.3369   44.2146 H   0  0  0  0  0  0  0  0  0  0  0  0
   57.2028   30.6319   46.5739 H   0  0  0  0  0  0  0  0  0  0  0  0
   58.8166   30.9306   45.9182 H   0  0  0  0  0  0  0  0  0  0  0  0
   59.8695   33.3382   44.4975 H   0  0  0  0  0  0  0  0  0  0  0  0
   60.9294   34.4729   45.4156 H   0  0  0  0  0  0  0  0  0  0  0  0
   59.2872   32.2482   46.7536 H   0  0  0  0  0  0  0  0  0  0  0  0
   60.9564   32.0103   46.2757 H   0  0  0  0  0  0  0  0  0  0  0  0
  1  2  1  0
  2  3  2  0
  3  4  1  0
  4  5  2  0
  5  6  1  0
  6  7  2  0
  7  8  1  0
  8  9  1  0
  9 10  1  0
 10 11  1  0
 11 12  1  0
 12 13  1  0
 13 14  1  0
 14 15  1  0
 15 16  1  0
 16 17  1  0
 17 18  1  0
 18 19  1  0
 11 20  1  0
 20 21  1  0
  7  2  1  0
 21  8  1  0
 19 14  1  0
  1 22  1  0
  1 23  1  0
  1 24  1  0
  3 25  1  0
  4 26  1  0
  5 27  1  0
  6 28  1  0
  9 29  1  0
  9 30  1  0
 10 31  1  0
 10 32  1  0
 12 33  1  0
 12 34  1  0
 13 35  1  0
 13 36  1  0
 15 37  1  0
 15 38  1  0
 16 39  1  0
 16 40  1  0
 17 41  1  0
 17 42  1  0
 18 43  1  0
 18 44  1  0
 19 45  1  0
 19 46  1  0
 20 47  1  0
 20 48  1  0
 21 49  1  0
 21 50  1  0
M  END
>  <smiles>  (11) 
Cc1ccccc1N1CCN(CCN2CCCCC2)CC1

>  <score_type>  (11) 
oracle

>  <origin>  (11) 
adg

>  <m_score__min__energy>  (11) 
-7.8499999999999996

>  <m_primary>  (11) 
energy

$$$$
12:0
     RDKit          3D

 50 53  0  0  1  0  0  0  0  0999 V2000
   58.8030   22.9920   45.2060 C   0  0  0  0  0  0  0  0  0  0  0  0
   58.8370   24.0010   46.1950 O   0  0  0  0  0  0  0  0  0  0  0  0
   58.5030   25.3160   45.9030 C   0  0  0  0  0  0  0  0  0  0  0  0
   58.4990   26.3080   46.8620 C   0  0  0  0  0  0  0  0  0  0  0  0
   58.1530   27.6110   46.5020 C   0  0  0  0  0  0  0  0  0  0  0  0
   57.8220   27.8760   45.1910 C   0  0  0  0  0  0  0  0  0  0  0  0
   57.4670   29.2520   44.8600 C   0  0  0  0  0  0  0  0  0  0  0  0
   56.2440   29.7080   44.8830 N   0  0  0  0  0  0  0  0  0  0  0  0
   56.2550   31.0530   44.5160 O   0  0  0  0  0  0  0  0  0  0  0  0
   57.5030   31.5270   44.9050 C   0  0  2  0  0  0  0  0  0  0  0  0
   57.9020   32.8310   44.3070 C   0  0  0  0  0  0  0  0  0  0  0  0
   58.7330   33.6370   45.1510 N   0  0  0  0  0  0  0  0  0  0  0  0
   59.0730   34.9190   44.8950 C   0  0  0  0  0  0  0  0  0  0  0  0
   59.8810   35.3160   45.9590 C   0  0  0  0  0  0  0  0  0  0  0  0
   59.9910   34.2500   46.8130 C   0  0  0  0  0  0  0  0  0  0  0  0
   60.7400   34.1650   48.0840 C   0  0  0  0  0  0  0  0  0  0  0  0
   60.2590   34.5930   49.1670 O   0  0  0  0  0  0  0  0  0  0  0  0
   62.0390   33.5910   48.1220 N   0  0  0  0  0  0  0  0  0  0  0  0
   62.8010   33.4820   49.3000 C   0  0  0  0  0  0  0  0  0  0  0  0
   62.2830   33.7740   50.5330 C   0  0  0  0  0  0  0  0  0  0  0  0
   63.0930   33.6440   51.6510 C   0  0  0  0  0  0  0  0  0  0  0  0
   64.4120   33.2290   51.5610 C   0  0  0  0  0  0  0  0  0  0  0  0
   64.9390   32.9320   50.3110 C   0  0  0  0  0  0  0  0  0  0  0  0
   66.2870   32.5010   50.1550 N   0  0  0  0  0  0  0  0  0  0  0  0
   66.5270   31.2780   50.1280 O   0  0  0  0  0  0  0  0  0  0  0  0
   67.2550   33.4680   50.0410 O   0  0  0  0  0  0  0  0  0  0  0  0
   64.1070   33.0710   49.2200 C   0  0  0  0  0  0  0  0  0  0  0  0
   59.2910   33.2530   46.3020 N   0  0  0  0  0  0  0  0  0  0  0  0
   58.3700   30.3730   44.4450 C   0  0  0  0  0  0  0  0  0  0  0  0
   57.8170   26.9060   44.2100 C   0  0  0  0  0  0  0  0  0  0  0  0
   58.1650   25.5990   44.5770 C   0  0  0  0  0  0  0  0  0  0  0  0
   58.7697   22.0049   45.6903 H   0  0  0  0  0  0  0  0  0  0  0  0
   57.9088   23.1231   44.5790 H   0  0  0  0  0  0  0  0  0  0  0  0
   59.7040   23.0626   44.5790 H   0  0  0  0  0  0  0  0  0  0  0  0
   58.7666   26.0734   47.9028 H   0  0  0  0  0  0  0  0  0  0  0  0
   58.1446   28.4144   47.2534 H   0  0  0  0  0  0  0  0  0  0  0  0
   57.5652   31.7735   45.9752 H   0  0  0  0  0  0  0  0  0  0  0  0
   58.4504   32.6292   43.3750 H   0  0  0  0  0  0  0  0  0  0  0  0
   56.9745   33.3992   44.1428 H   0  0  0  0  0  0  0  0  0  0  0  0
   58.7741   35.5243   44.0266 H   0  0  0  0  0  0  0  0  0  0  0  0
   60.3456   36.3045   46.0894 H   0  0  0  0  0  0  0  0  0  0  0  0
   62.4640   33.2260   47.2370 H   0  0  0  0  0  0  0  0  0  0  0  0
   61.2396   34.1069   50.6354 H   0  0  0  0  0  0  0  0  0  0  0  0
   62.6750   33.8779   52.6412 H   0  0  0  0  0  0  0  0  0  0  0  0
   65.0316   33.1363   52.4651 H   0  0  0  0  0  0  0  0  0  0  0  0
   64.5155   32.8382   48.2256 H   0  0  0  0  0  0  0  0  0  0  0  0
   58.5418   30.3887   43.3586 H   0  0  0  0  0  0  0  0  0  0  0  0
   59.3912   30.3452   44.8529 H   0  0  0  0  0  0  0  0  0  0  0  0
   57.5482   27.1509   43.1718 H   0  0  0  0  0  0  0  0  0  0  0  0
   58.1721   24.7980   43.8232 H   0  0  0  0  0  0  0  0  0  0  0  0
  1  2  1  0
  2  3  1  0
  3  4  2  0
  4  5  1  0
  5  6  2  0
  6  7  1  0
  7  8  2  0
  8  9  1  0
  9 10  1  0
 10 11  1  0
 11 12  1  0
 12 13  1  0
 13 14  2  0
 14 15  1  0
 15 16  1  0
 16 17  2  0
 16 18  1  0
 18 19  1  0
 19 20  2  0
 20 21  1  0
 21 22  2  0
 22 23  1  0
 23 24  1  0
 24 25  2  0
 24 26  1  0
 23 27  2  0
 15 28  2  0
 10 29  1  0
  6 30  1  0
 30 31  2  0
 31  3  1  0
 29  7  1  0
 28 12  1  0
 27 19  1  0
  1 32  1  0
  1 33  1  0
  1 34  1  0
  4 35  1  0
  5 36  1  0
 10 37  1  1
 11 38  1  0
 11 39  1  0
 13 40  1  0
 14 41  1  0
 18 42  1  0
 20 43  1  0
 21 44  1  0
 22 45  1  0
 27 46  1  0
 29 47  1  0
 29 48  1  0
 30 49  1  0
 31 50  1  0
M  CHG  2  24   1  26  -1
M  END
>  <smiles>  (12) 
COc1ccc(C2=NOC(Cn3ccc(C(=O)Nc4cccc([N+](=O)[O-])c4)n3)C2)cc1

>  <score_type>  (12) 
oracle

>  <origin>  (12) 
adg

>  <m_score__min__energy>  (12) 
-10.16

>  <m_primary>  (12) 
energy

$$$$
13:0
     RDKit          3D

 37 39  0  0  0  0  0  0  0  0999 V2000
   57.5390   32.2680   42.0870 C   0  0  0  0  0  0  0  0  0  0  0  0
   58.0460   32.2390   43.5050 C   0  0  0  0  0  0  0  0  0  0  0  0
   58.0010   33.3930   44.2480 C   0  0  0  0  0  0  0  0  0  0  0  0
   58.4700   33.3400   45.5390 C   0  0  0  0  0  0  0  0  0  0  0  0
   58.4530   34.5310   46.3900 C   0  0  0  0  0  0  0  0  0  0  0  0
   58.9640   32.1250   46.0290 C   0  0  0  0  0  0  0  0  0  0  0  0
   59.4830   31.7290   47.2010 N   0  0  0  0  0  0  0  0  0  0  0  0
   59.8130   30.4220   47.1520 C   0  0  0  0  0  0  0  0  0  0  0  0
   60.4130   29.6030   48.2390 C   0  0  0  0  0  0  0  0  0  0  0  0
   59.5030   29.9700   45.9280 N   0  0  0  0  0  0  0  0  0  0  0  0
   59.6580   28.6390   45.3640 C   0  0  0  0  0  0  0  0  0  0  0  0
   58.4480   27.8220   45.5450 C   0  0  0  0  0  0  0  0  0  0  0  0
   57.2080   28.4400   45.4060 C   0  0  0  0  0  0  0  0  0  0  0  0
   56.0700   27.7260   45.5640 N   0  0  0  0  0  0  0  0  0  0  0  0
   56.0820   26.4220   45.8550 C   0  0  0  0  0  0  0  0  0  0  0  0
   54.9690   25.7690   46.0000 N   0  0  0  0  0  0  0  0  0  0  0  0
   57.3070   25.8060   45.9940 C   0  0  0  0  0  0  0  0  0  0  0  0
   57.2920   24.0900   46.3770 Cl  0  0  0  0  0  0  0  0  0  0  0  0
   58.5090   26.4760   45.8460 C   0  0  0  0  0  0  0  0  0  0  0  0
   58.9750   31.0000   45.2080 C   0  0  0  0  0  0  0  0  0  0  0  0
   58.5110   31.0770   43.9480 N   0  0  0  0  0  0  0  0  0  0  0  0
   56.4408   32.3308   42.0915 H   0  0  0  0  0  0  0  0  0  0  0  0
   57.9543   33.1439   41.5670 H   0  0  0  0  0  0  0  0  0  0  0  0
   57.8517   31.3505   41.5670 H   0  0  0  0  0  0  0  0  0  0  0  0
   57.6035   34.3273   43.8248 H   0  0  0  0  0  0  0  0  0  0  0  0
   58.4573   34.2265   47.4470 H   0  0  0  0  0  0  0  0  0  0  0  0
   59.3425   35.1435   46.1812 H   0  0  0  0  0  0  0  0  0  0  0  0
   57.5464   35.1179   46.1812 H   0  0  0  0  0  0  0  0  0  0  0  0
   60.1130   30.0125   49.2149 H   0  0  0  0  0  0  0  0  0  0  0  0
   60.0603   28.5646   48.1530 H   0  0  0  0  0  0  0  0  0  0  0  0
   61.5094   29.6262   48.1530 H   0  0  0  0  0  0  0  0  0  0  0  0
   59.8673   28.7309   44.2880 H   0  0  0  0  0  0  0  0  0  0  0  0
   60.4870   28.1411   45.8883 H   0  0  0  0  0  0  0  0  0  0  0  0
   57.1536   29.5123   45.1669 H   0  0  0  0  0  0  0  0  0  0  0  0
   55.1770   28.2280   45.4500 H   0  0  0  0  0  0  0  0  0  0  0  0
   54.1800   26.3190   46.4430 H   0  0  0  0  0  0  0  0  0  0  0  0
   59.4722   25.9579   45.9633 H   0  0  0  0  0  0  0  0  0  0  0  0
  1  2  1  0
  2  3  2  0
  3  4  1  0
  4  5  1  0
  4  6  2  0
  6  7  1  0
  7  8  2  0
  8  9  1  0
  8 10  1  0
 10 11  1  0
 11 12  1  0
 12 13  2  0
 13 14  1  0
 14 15  1  0
 15 16  2  3
 15 17  1  0
 17 18  1  0
 17 19  2  0
 10 20  1  0
 20 21  2  0
 21  2  1  0
 20  6  1  0
 19 12  1  0
  1 22  1  0
  1 23  1  0
  1 24  1  0
  3 25  1  0
  5 26  1  0
  5 27  1  0
  5 28  1  0
  9 29  1  0
  9 30  1  0
  9 31  1  0
 11 32  1  0
 11 33  1  0
 13 34  1  0
 14 35  1  0
 16 36  1  0
 19 37  1  0
M  END
>  <smiles>  (13) 
Cc1cc(C)c2nc(C)n(Cc3c[nH]c(=N)c(Cl)c3)c2n1

>  <score_type>  (13) 
oracle

>  <origin>  (13) 
adg

>  <m_score__min__energy>  (13) 
-8.0899999999999999

>  <m_primary>  (13) 
energy

$$$$
14:0
     RDKit          3D

 22 22  0  0  1  0  0  0  0  0999 V2000
   56.2300   23.2430   47.0920 C   0  0  0  0  0  0  0  0  0  0  0  0
   55.8520   24.5950   47.2260 O   0  0  0  0  0  0  0  0  0  0  0  0
   55.9050   25.5610   46.2550 C   0  0  0  0  0  0  0  0  0  0  0  0
   54.9280   26.3290   45.9970 O   0  0  0  0  0  0  0  0  0  0  0  0
   57.1170   25.7450   45.4630 C   0  0  0  0  0  0  0  0  0  0  0  0
   57.2400   26.6330   44.5560 N   0  0  0  0  0  0  0  0  0  0  0  0
   56.8820   29.1040   44.9670 C   0  0  0  0  0  0  0  0  0  0  0  0
   57.7660   27.9510   44.8230 C   0  0  0  0  0  0  0  0  0  0  0  0
   59.6470   29.3850   45.1980 C   0  0  0  0  0  0  0  0  0  0  0  0
   60.9010   29.4590   45.2930 O   0  0  0  0  0  0  0  0  0  0  0  0
   59.0800   28.0550   44.9270 C   0  0  0  0  0  0  0  0  0  0  0  0
   57.4790   30.3970   45.2340 C   0  0  0  0  0  0  0  0  0  0  0  0
   58.7880   30.5560   45.3470 C   0  0  0  0  0  0  0  0  0  0  0  0
   55.5980   28.9680   44.8590 N   0  0  0  0  0  0  0  0  0  0  0  0
   56.3548   22.7966   48.0896 H   0  0  0  0  0  0  0  0  0  0  0  0
   55.4500   22.6971   46.5410 H   0  0  0  0  0  0  0  0  0  0  0  0
   57.1800   23.1808   46.5410 H   0  0  0  0  0  0  0  0  0  0  0  0
   57.9717   25.0810   45.6593 H   0  0  0  0  0  0  0  0  0  0  0  0
   56.8240   31.2735   45.3462 H   0  0  0  0  0  0  0  0  0  0  0  0
   59.2189   31.5478   45.5486 H   0  0  0  0  0  0  0  0  0  0  0  0
   59.7291   27.1741   44.8143 H   0  0  0  0  0  0  0  0  0  0  0  0
   55.1460   28.0270   44.9000 H   0  0  0  0  0  0  0  0  0  0  0  0
  1  2  1  0
  2  3  1  0
  3  4  2  0
  3  5  1  0
  5  6  2  0
  6  7  1  0
  7  8  2  0
  8  9  1  0
  9 10  2  0
  9 11  1  0
 11 12  2  0
 12 13  1  0
 13 14  2  3
 13  7  1  0
  1 15  1  0
  1 16  1  0
  1 17  1  0
  5 18  1  0
  8 19  1  0
 11 20  1  0
 12 21  1  0
 14 22  1  0
M  END
>  <smiles>  (14) 
COC(=O)C=NC1=CC(=O)C=CC1=N

>  <score_type>  (14) 
oracle

>  <origin>  (14) 
adg

>  <m_score__min__energy>  (14) 
-5.6299999999999999

>  <m_primary>  (14) 
energy

$$$$
15:0
     RDKit          3D

 40 42  0  0  1  0  0  0  0  0999 V2000
   63.3760   32.8750   47.2520 C   0  0  0  0  0  0  0  0  0  0  0  0
   62.0560   32.8620   46.7530 O   0  0  0  0  0  0  0  0  0  0  0  0
   61.0500   32.2360   47.5140 C   0  0  0  0  0  0  0  0  0  0  0  0
   60.2940   33.0070   48.3750 C   0  0  0  0  0  0  0  0  0  0  0  0
   59.3010   32.4120   49.1320 C   0  0  0  0  0  0  0  0  0  0  0  0
   59.0850   31.0550   49.0100 C   0  0  0  0  0  0  0  0  0  0  0  0
   59.8670   30.2980   48.1310 C   0  0  0  0  0  0  0  0  0  0  0  0
   59.5520   28.8980   48.0880 N   0  0  0  0  0  0  0  0  0  0  0  0
   58.6720   28.4330   47.2680 C   0  0  0  0  0  0  0  0  0  0  0  0
   58.4270   27.0750   47.2190 C   0  0  0  0  0  0  0  0  0  0  0  0
   57.4820   26.5420   46.3450 C   0  0  0  0  0  0  0  0  0  0  0  0
   56.8050   27.3730   45.5430 N   0  0  0  0  0  0  0  0  0  0  0  0
   57.0410   28.6820   45.5910 C   0  0  0  0  0  0  0  0  0  0  0  0
   56.4050   29.5020   44.8320 N   0  0  0  0  0  0  0  0  0  0  0  0
   56.9720   30.7190   44.3620 C   0  0  0  0  0  0  0  0  0  0  0  0
   57.2280   30.9110   43.0020 C   0  0  0  0  0  0  0  0  0  0  0  0
   57.7710   32.0650   42.5180 C   0  0  0  0  0  0  0  0  0  0  0  0
   58.0690   33.0650   43.4190 C   0  0  0  0  0  0  0  0  0  0  0  0
   57.8060   32.8480   44.7440 C   0  0  0  0  0  0  0  0  0  0  0  0
   58.1280   33.9260   45.7170 C   0  0  0  0  0  0  0  0  0  0  0  0
   57.2720   31.7150   45.2360 N   0  0  0  0  0  0  0  0  0  0  0  0
   57.9540   29.2070   46.4340 N   0  0  0  0  0  0  0  0  0  0  0  0
   60.8490   30.8730   47.3780 C   0  0  0  0  0  0  0  0  0  0  0  0
   63.3523   32.8748   48.3517 H   0  0  0  0  0  0  0  0  0  0  0  0
   63.9112   31.9821   46.8966 H   0  0  0  0  0  0  0  0  0  0  0  0
   63.8935   33.7783   46.8966 H   0  0  0  0  0  0  0  0  0  0  0  0
   60.4805   34.0879   48.4583 H   0  0  0  0  0  0  0  0  0  0  0  0
   58.6913   33.0132   49.8225 H   0  0  0  0  0  0  0  0  0  0  0  0
   58.2976   30.5680   49.6040 H   0  0  0  0  0  0  0  0  0  0  0  0
   58.9886   26.4011   47.8827 H   0  0  0  0  0  0  0  0  0  0  0  0
   57.2956   25.4583   46.3145 H   0  0  0  0  0  0  0  0  0  0  0  0
   56.0900   27.0120   44.8750 H   0  0  0  0  0  0  0  0  0  0  0  0
   56.9831   30.1032   42.2967 H   0  0  0  0  0  0  0  0  0  0  0  0
   57.9649   32.1936   41.4429 H   0  0  0  0  0  0  0  0  0  0  0  0
   58.5080   34.0151   43.0805 H   0  0  0  0  0  0  0  0  0  0  0  0
   58.0132   33.5417   46.7413 H   0  0  0  0  0  0  0  0  0  0  0  0
   59.1650   34.2597   45.5646 H   0  0  0  0  0  0  0  0  0  0  0  0
   57.4439   34.7738   45.5646 H   0  0  0  0  0  0  0  0  0  0  0  0
   58.1220   30.2390   46.4530 H   0  0  0  0  0  0  0  0  0  0  0  0
   61.4600   30.2741   46.6866 H   0  0  0  0  0  0  0  0  0  0  0  0
  1  2  1  0
  2  3  1  0
  3  4  2  0
  4  5  1  0
  5  6  2  0
  6  7  1  0
  7  8  1  0
  8  9  2  0
  9 10  1  0
 10 11  2  0
 11 12  1  0
 12 13  1  0
 13 14  2  0
 14 15  1  0
 15 16  2  0
 16 17  1  0
 17 18  2  0
 18 19  1  0
 19 20  1  0
 19 21  2  0
 13 22  1  0
  7 23  2  0
 23  3  1  0
 22  9  1  0
 21 15  1  0
  1 24  1  0
  1 25  1  0
  1 26  1  0
  4 27  1  0
  5 28  1  0
  6 29  1  0
 10 30  1  0
 11 31  1  0
 12 32  1  0
 16 33  1  0
 17 34  1  0
 18 35  1  0
 20 36  1  0
 20 37  1  0
 20 38  1  0
 22 39  1  0
 23 40  1  0
M  END
>  <smiles>  (15) 
COc1cccc(N=c2cc[nH]c(=Nc3cccc(C)n3)[nH]2)c1

>  <score_type>  (15) 
oracle

>  <origin>  (15) 
adg

>  <m_score__min__energy>  (15) 
-8.5

>  <m_primary>  (15) 
energy

$$$$
16:0
     RDKit          3D

 29 31  0  0  1  0  0  0  0  0999 V2000
   59.2750   35.7190   47.0370 F   0  0  0  0  0  0  0  0  0  0  0  0
   58.8770   34.5400   46.4720 C   0  0  0  0  0  0  0  0  0  0  0  0
   58.5050   33.4640   47.2740 C   0  0  0  0  0  0  0  0  0  0  0  0
   58.1140   32.3050   46.6700 C   0  0  0  0  0  0  0  0  0  0  0  0
   58.0800   32.1740   45.2760 C   0  0  0  0  0  0  0  0  0  0  0  0
   57.6450   30.8870   44.7530 C   0  0  0  0  0  0  0  0  0  0  0  0
   56.3420   30.5920   44.4930 N   0  0  0  0  0  0  0  0  0  0  0  0
   56.2630   29.3480   44.0270 N   0  0  0  0  0  0  0  0  0  0  0  0
   57.5300   28.8780   44.0010 C   0  0  0  0  0  0  0  0  0  0  0  0
   57.8910   27.3620   43.4860 S   0  0  0  0  0  0  0  0  0  0  0  0
   58.3860   29.8070   44.4430 N   0  0  0  0  0  0  0  0  0  0  0  0
   59.7740   29.7020   44.5650 N   0  0  0  0  0  0  0  0  0  0  0  0
   60.2870   29.2250   45.6490 C   0  0  0  0  0  0  0  0  0  0  0  0
   60.5730   30.0230   46.7990 C   0  0  0  0  0  0  0  0  0  0  0  0
   61.4200   31.0350   47.1130 C   0  0  0  0  0  0  0  0  0  0  0  0
   61.4590   31.6000   48.3100 C   0  0  0  0  0  0  0  0  0  0  0  0
   60.5570   31.0990   49.2920 C   0  0  0  0  0  0  0  0  0  0  0  0
   59.6350   29.7710   48.4340 S   0  0  0  0  0  0  0  0  0  0  0  0
   58.4470   33.2340   44.4700 C   0  0  0  0  0  0  0  0  0  0  0  0
   58.8470   34.4190   45.0950 C   0  0  0  0  0  0  0  0  0  0  0  0
   58.5260   33.5468   48.3707 H   0  0  0  0  0  0  0  0  0  0  0  0
   57.8173   31.4498   47.2950 H   0  0  0  0  0  0  0  0  0  0  0  0
   55.3860   28.8430   43.7400 H   0  0  0  0  0  0  0  0  0  0  0  0
   60.5156   28.1498   45.6895 H   0  0  0  0  0  0  0  0  0  0  0  0
   62.1067   31.4036   46.3368 H   0  0  0  0  0  0  0  0  0  0  0  0
   62.1569   32.4197   48.5359 H   0  0  0  0  0  0  0  0  0  0  0  0
   60.4406   31.4350   50.3329 H   0  0  0  0  0  0  0  0  0  0  0  0
   58.4253   33.1487   43.3735 H   0  0  0  0  0  0  0  0  0  0  0  0
   59.1456   35.2773   44.4751 H   0  0  0  0  0  0  0  0  0  0  0  0
  1  2  1  0
  2  3  2  0
  3  4  1  0
  4  5  2  0
  5  6  1  0
  6  7  2  0
  7  8  1  0
  8  9  1  0
  9 10  2  0
  9 11  1  0
 11 12  1  0
 12 13  2  0
 13 14  1  0
 14 15  2  0
 15 16  1  0
 16 17  2  0
 17 18  1  0
  5 19  1  0
 19 20  2  0
 20  2  1  0
 11  6  1  0
 18 14  1  0
  3 21  1  0
  4 22  1  0
  8 23  1  0
 13 24  1  0
 15 25  1  0
 16 26  1  0
 17 27  1  0
 19 28  1  0
 20 29  1  0
M  END
>  <smiles>  (16) 
Fc1ccc(-c2n[nH]c(=S)n2N=Cc2cccs2)cc1

>  <score_type>  (16) 
oracle

>  <origin>  (16) 
adg

>  <m_score__min__energy>  (16) 
-6.9900000000000002

>  <m_primary>  (16) 
energy

$$$$
17:0
     RDKit          3D

 57 60  0  0  1  0  0  0  0  0999 V2000
   58.4770   30.1380   50.2120 C   0  0  0  0  0  0  0  0  0  0  0  0
   59.0450   31.5080   50.2520 C   0  0  0  0  0  0  0  0  0  0  0  0
   58.9060   32.4280   51.2830 C   0  0  0  0  0  0  0  0  0  0  0  0
   59.6210   33.5420   50.8290 C   0  0  0  0  0  0  0  0  0  0  0  0
   60.1470   33.2530   49.5790 C   0  0  0  0  0  0  0  0  0  0  0  0
   60.9660   34.1380   48.7390 C   0  0  0  0  0  0  0  0  0  0  0  0
   60.9110   33.7670   47.2940 C   0  0  0  0  0  0  0  0  0  0  0  0
   59.7000   33.8990   46.6220 N   0  0  0  0  0  0  0  0  0  0  0  0
   59.6460   34.0160   45.2190 C   0  0  0  0  0  0  0  0  0  0  0  0
   58.3110   34.6410   44.8670 C   0  0  0  0  0  0  0  0  0  0  0  0
   57.1790   33.6070   45.2370 C   0  0  0  0  0  0  0  0  0  0  0  0
   57.6370   32.4900   44.4920 N   0  0  0  0  0  0  0  0  0  0  0  0
   57.7900   31.3420   45.0350 C   0  0  0  0  0  0  0  0  0  0  0  0
   58.8310   31.0950   45.8740 N   0  0  0  0  0  0  0  0  0  0  0  0
   58.7800   29.8260   46.3110 C   0  0  0  0  0  0  0  0  0  0  0  0
   57.6640   29.2820   45.7120 C   0  0  0  0  0  0  0  0  0  0  0  0
   57.3850   27.9650   46.0000 C   0  0  0  0  0  0  0  0  0  0  0  0
   56.4140   27.3710   45.5240 O   0  0  0  0  0  0  0  0  0  0  0  0
   58.1920   27.2630   46.8390 N   0  0  0  0  0  0  0  0  0  0  0  0
   57.9040   25.8820   47.1440 C   0  0  0  0  0  0  0  0  0  0  0  0
   59.2850   27.8340   47.4100 C   0  0  0  0  0  0  0  0  0  0  0  0
   59.9980   27.1440   48.1780 O   0  0  0  0  0  0  0  0  0  0  0  0
   59.5650   29.1140   47.1360 N   0  0  0  0  0  0  0  0  0  0  0  0
   60.7360   29.6940   47.7590 C   0  0  0  0  0  0  0  0  0  0  0  0
   57.0560   30.2220   44.9270 N   0  0  0  0  0  0  0  0  0  0  0  0
   55.8610   30.0590   44.1380 C   0  0  0  0  0  0  0  0  0  0  0  0
   57.3770   33.4770   46.7290 C   0  0  0  0  0  0  0  0  0  0  0  0
   58.5180   34.2550   47.2990 C   0  0  0  0  0  0  0  0  0  0  0  0
   59.7640   32.0270   49.3010 O   0  0  0  0  0  0  0  0  0  0  0  0
   58.3259   29.7736   51.2388 H   0  0  0  0  0  0  0  0  0  0  0  0
   57.5123   30.1563   49.6838 H   0  0  0  0  0  0  0  0  0  0  0  0
   59.1716   29.4683   49.6838 H   0  0  0  0  0  0  0  0  0  0  0  0
   58.3625   32.3092   52.2319 H   0  0  0  0  0  0  0  0  0  0  0  0
   59.7452   34.4897   51.3734 H   0  0  0  0  0  0  0  0  0  0  0  0
   60.6008   35.1694   48.8525 H   0  0  0  0  0  0  0  0  0  0  0  0
   62.0106   34.0400   49.0696 H   0  0  0  0  0  0  0  0  0  0  0  0
   61.6445   34.3962   46.7687 H   0  0  0  0  0  0  0  0  0  0  0  0
   61.1081   32.6848   47.2853 H   0  0  0  0  0  0  0  0  0  0  0  0
   60.4664   34.6566   44.8634 H   0  0  0  0  0  0  0  0  0  0  0  0
   59.7506   33.0299   44.7429 H   0  0  0  0  0  0  0  0  0  0  0  0
   58.1706   35.5697   45.4395 H   0  0  0  0  0  0  0  0  0  0  0  0
   58.2725   34.8840   43.7949 H   0  0  0  0  0  0  0  0  0  0  0  0
   56.1168   33.8045   45.0304 H   0  0  0  0  0  0  0  0  0  0  0  0
   59.5850   31.7670   46.1630 H   0  0  0  0  0  0  0  0  0  0  0  0
   57.8756   25.7457   48.2352 H   0  0  0  0  0  0  0  0  0  0  0  0
   56.9292   25.6072   46.7147 H   0  0  0  0  0  0  0  0  0  0  0  0
   58.6877   25.2405   46.7147 H   0  0  0  0  0  0  0  0  0  0  0  0
   60.6327   29.6428   48.8529 H   0  0  0  0  0  0  0  0  0  0  0  0
   61.6312   29.1351   47.4487 H   0  0  0  0  0  0  0  0  0  0  0  0
   60.8339   30.7448   47.4487 H   0  0  0  0  0  0  0  0  0  0  0  0
   54.9944   29.9408   44.8051 H   0  0  0  0  0  0  0  0  0  0  0  0
   55.7169   30.9458   43.5033 H   0  0  0  0  0  0  0  0  0  0  0  0
   55.9596   29.1660   43.5033 H   0  0  0  0  0  0  0  0  0  0  0  0
   56.4551   33.8168   47.2236 H   0  0  0  0  0  0  0  0  0  0  0  0
   57.6145   32.4183   46.9099 H   0  0  0  0  0  0  0  0  0  0  0  0
   58.3303   35.3314   47.1719 H   0  0  0  0  0  0  0  0  0  0  0  0
   58.6219   34.0304   48.3708 H   0  0  0  0  0  0  0  0  0  0  0  0
  1  2  1  0
  2  3  2  0
  3  4  1  0
  4  5  2  0
  5  6  1  0
  6  7  1  0
  7  8  1  0
  8  9  1  0
  9 10  1  0
 10 11  1  0
 11 12  1  0
 12 13  2  0
 13 14  1  0
 14 15  1  0
 15 16  2  0
 16 17  1  0
 17 18  2  0
 17 19  1  0
 19 20  1  0
 19 21  1  0
 21 22  2  0
 21 23  1  0
 23 24  1  0
 16 25  1  0
 25 26  1  0
 11 27  1  0
 27 28  1  0
  5 29  1  0
 29  2  1  0
 28  8  1  0
 25 13  1  0
 23 15  1  0
  1 30  1  0
  1 31  1  0
  1 32  1  0
  3 33  1  0
  4 34  1  0
  6 35  1  0
  6 36  1  0
  7 37  1  0
  7 38  1  0
  9 39  1  0
  9 40  1  0
 10 41  1  0
 10 42  1  0
 11 43  1  0
 14 44  1  0
 20 45  1  0
 20 46  1  0
 20 47  1  0
 24 48  1  0
 24 49  1  0
 24 50  1  0
 26 51  1  0
 26 52  1  0
 26 53  1  0
 27 54  1  0
 27 55  1  0
 28 56  1  0
 28 57  1  0
M  END
>  <smiles>  (17) 
Cc1ccc(CCN2CCC(N=c3[nH]c4c(c(=O)n(C)c(=O)n4C)n3C)CC2)o1

>  <score_type>  (17) 
oracle

>  <origin>  (17) 
adg

>  <m_score__min__energy>  (17) 
-8.3100000000000005

>  <m_primary>  (17) 
energy

$$$$
18:0
     RDKit          3D

 34 34  0  0  0  0  0  0  0  0999 V2000
   58.5610   34.1040   44.8870 C   0  0  0  0  0  0  0  0  0  0  0  0
   57.3340   33.2310   44.7620 C   0  0  0  0  0  0  0  0  0  0  0  0
   57.6690   32.1210   43.8880 N   0  0  0  0  0  0  0  0  0  0  0  0
   58.1610   32.3920   42.5700 C   0  0  0  0  0  0  0  0  0  0  0  0
   57.0920   31.9330   41.5820 C   0  0  0  0  0  0  0  0  0  0  0  0
   57.4750   30.7990   44.4180 C   0  0  0  0  0  0  0  0  0  0  0  0
   57.0280   30.7530   45.5910 O   0  0  0  0  0  0  0  0  0  0  0  0
   57.7590   29.6260   43.6920 N   0  0  0  0  0  0  0  0  0  0  0  0
   57.6040   28.3010   44.1190 C   0  0  0  0  0  0  0  0  0  0  0  0
   57.8960   27.2830   43.2200 C   0  0  0  0  0  0  0  0  0  0  0  0
   57.7690   25.9540   43.5610 C   0  0  0  0  0  0  0  0  0  0  0  0
   57.3460   25.5590   44.8120 C   0  0  0  0  0  0  0  0  0  0  0  0
   57.2090   24.2300   45.1880 O   0  0  0  0  0  0  0  0  0  0  0  0
   57.3130   23.2000   44.2230 C   0  0  0  0  0  0  0  0  0  0  0  0
   57.0540   26.5600   45.7120 C   0  0  0  0  0  0  0  0  0  0  0  0
   57.1830   27.8950   45.3650 C   0  0  0  0  0  0  0  0  0  0  0  0
   58.7888   34.2661   45.9509 H   0  0  0  0  0  0  0  0  0  0  0  0
   59.4144   33.6089   44.4006 H   0  0  0  0  0  0  0  0  0  0  0  0
   58.3730   35.0725   44.4006 H   0  0  0  0  0  0  0  0  0  0  0  0
   57.0409   32.8527   45.7525 H   0  0  0  0  0  0  0  0  0  0  0  0
   56.4924   33.8063   44.3487 H   0  0  0  0  0  0  0  0  0  0  0  0
   58.3450   33.4700   42.4514 H   0  0  0  0  0  0  0  0  0  0  0  0
   59.1084   31.8622   42.3919 H   0  0  0  0  0  0  0  0  0  0  0  0
   56.2183   31.5579   42.1351 H   0  0  0  0  0  0  0  0  0  0  0  0
   56.7893   32.7805   40.9494 H   0  0  0  0  0  0  0  0  0  0  0  0
   57.4980   31.1299   40.9494 H   0  0  0  0  0  0  0  0  0  0  0  0
   58.1350   29.7830   42.7090 H   0  0  0  0  0  0  0  0  0  0  0  0
   58.2381   27.5451   42.2079 H   0  0  0  0  0  0  0  0  0  0  0  0
   58.0124   25.1854   42.8126 H   0  0  0  0  0  0  0  0  0  0  0  0
   57.4110   22.2296   44.7316 H   0  0  0  0  0  0  0  0  0  0  0  0
   56.4108   23.1947   43.5937 H   0  0  0  0  0  0  0  0  0  0  0  0
   58.1980   23.3752   43.5937 H   0  0  0  0  0  0  0  0  0  0  0  0
   56.7126   26.2949   46.7235 H   0  0  0  0  0  0  0  0  0  0  0  0
   56.9392   28.6614   46.1155 H   0  0  0  0  0  0  0  0  0  0  0  0
  1  2  1  0
  2  3  1  0
  3  4  1  0
  4  5  1  0
  3  6  1  0
  6  7  2  0
  6  8  1  0
  8  9  1  0
  9 10  2  0
 10 11  1  0
 11 12  2  0
 12 13  1  0
 13 14  1  0
 12 15  1  0
 15 16  2  0
 16  9  1  0
  1 17  1  0
  1 18  1  0
  1 19  1  0
  2 20  1  0
  2 21  1  0
  4 22  1  0
  4 23  1  0
  5 24  1  0
  5 25  1  0
  5 26  1  0
  8 27  1  0
 10 28  1  0
 11 29  1  0
 14 30  1  0
 14 31  1  0
 14 32  1  0
 15 33  1  0
 16 34  1  0
M  END
>  <smiles>  (18) 
CCN(CC)C(=O)Nc1ccc(OC)cc1

>  <score_type>  (18) 
oracle

>  <origin>  (18) 
adg

>  <m_score__min__energy>  (18) 
-5.2699999999999996

>  <m_primary>  (18) 
energy

$$$$
19:0
     RDKit          3D

 48 49  0  0  0  0  0  0  0  0999 V2000
   59.2650   35.3760   44.9120 C   0  0  0  0  0  0  0  0  0  0  0  0
   59.6860   34.2960   45.8430 C   0  0  0  0  0  0  0  0  0  0  0  0
   60.7660   34.5060   46.5730 C   0  0  0  0  0  0  0  0  0  0  0  0
   61.3110   33.5280   47.5470 C   0  0  0  0  0  0  0  0  0  0  0  0
   61.2840   34.2300   48.8930 C   0  0  0  0  0  0  0  0  0  0  0  0
   62.7490   33.2510   47.1190 C   0  0  0  0  0  0  0  0  0  0  0  0
   60.5490   32.3150   47.6000 N   0  0  0  0  0  0  0  0  0  0  0  0
   59.3800   32.0880   46.8100 C   0  0  0  0  0  0  0  0  0  0  0  0
   58.6380   30.6490   46.9920 S   0  0  0  0  0  0  0  0  0  0  0  0
   58.9250   33.0880   45.9090 N   0  0  0  0  0  0  0  0  0  0  0  0
   57.7250   32.9000   45.0990 C   0  0  0  0  0  0  0  0  0  0  0  0
   58.0490   31.9890   43.9610 C   0  0  0  0  0  0  0  0  0  0  0  0
   56.9010   31.2270   43.3930 C   0  0  0  0  0  0  0  0  0  0  0  0
   56.6880   29.9620   44.0940 C   0  0  0  0  0  0  0  0  0  0  0  0
   55.6860   29.6850   44.8110 O   0  0  0  0  0  0  0  0  0  0  0  0
   57.6750   28.9480   43.9750 N   0  0  0  0  0  0  0  0  0  0  0  0
   57.5600   27.6500   44.6360 C   0  0  0  0  0  0  0  0  0  0  0  0
   57.3740   27.8170   46.1240 C   0  0  0  0  0  0  0  0  0  0  0  0
   58.5410   27.0860   46.7890 C   0  0  0  0  0  0  0  0  0  0  0  0
   58.9790   26.0960   45.6980 C   0  0  0  0  0  0  0  0  0  0  0  0
   58.9110   26.9910   44.4900 C   0  0  0  0  0  0  0  0  0  0  0  0
   58.9253   36.2474   45.4910 H   0  0  0  0  0  0  0  0  0  0  0  0
   60.1159   35.6660   44.2781 H   0  0  0  0  0  0  0  0  0  0  0  0
   58.4423   35.0136   44.2781 H   0  0  0  0  0  0  0  0  0  0  0  0
   61.2936   35.4636   46.4519 H   0  0  0  0  0  0  0  0  0  0  0  0
   61.3128   33.4808   49.6979 H   0  0  0  0  0  0  0  0  0  0  0  0
   62.1573   34.8934   48.9781 H   0  0  0  0  0  0  0  0  0  0  0  0
   60.3623   34.8244   48.9781 H   0  0  0  0  0  0  0  0  0  0  0  0
   63.3803   33.1294   48.0116 H   0  0  0  0  0  0  0  0  0  0  0  0
   62.7819   32.3300   46.5184 H   0  0  0  0  0  0  0  0  0  0  0  0
   63.1216   34.0939   46.5184 H   0  0  0  0  0  0  0  0  0  0  0  0
   60.8870   31.5690   48.2610 H   0  0  0  0  0  0  0  0  0  0  0  0
   56.9299   32.4540   45.7145 H   0  0  0  0  0  0  0  0  0  0  0  0
   57.3791   33.8704   44.7135 H   0  0  0  0  0  0  0  0  0  0  0  0
   58.4822   32.5981   43.1539 H   0  0  0  0  0  0  0  0  0  0  0  0
   58.7362   31.2334   44.3695 H   0  0  0  0  0  0  0  0  0  0  0  0
   55.9908   31.8387   43.4782 H   0  0  0  0  0  0  0  0  0  0  0  0
   57.1286   31.0004   42.3409 H   0  0  0  0  0  0  0  0  0  0  0  0
   58.5370   29.0990   43.3970 H   0  0  0  0  0  0  0  0  0  0  0  0
   56.7170   27.0920   44.2025 H   0  0  0  0  0  0  0  0  0  0  0  0
   57.3906   28.8837   46.3923 H   0  0  0  0  0  0  0  0  0  0  0  0
   56.4073   27.4085   46.4537 H   0  0  0  0  0  0  0  0  0  0  0  0
   59.3535   27.7827   47.0429 H   0  0  0  0  0  0  0  0  0  0  0  0
   58.2704   26.6006   47.7383 H   0  0  0  0  0  0  0  0  0  0  0  0
   59.9987   25.7218   45.8719 H   0  0  0  0  0  0  0  0  0  0  0  0
   58.3716   25.1813   45.6316 H   0  0  0  0  0  0  0  0  0  0  0  0
   59.7192   27.7371   44.5039 H   0  0  0  0  0  0  0  0  0  0  0  0
   59.0305   26.4494   43.5400 H   0  0  0  0  0  0  0  0  0  0  0  0
  1  2  1  0
  2  3  2  0
  3  4  1  0
  4  5  1  0
  4  6  1  0
  4  7  1  0
  7  8  1  0
  8  9  2  0
  8 10  1  0
 10 11  1  0
 11 12  1  0
 12 13  1  0
 13 14  1  0
 14 15  2  0
 14 16  1  0
 16 17  1  0
 17 18  1  0
 18 19  1  0
 19 20  1  0
 20 21  1  0
 10  2  1  0
 21 17  1  0
  1 22  1  0
  1 23  1  0
  1 24  1  0
  3 25  1  0
  5 26  1  0
  5 27  1  0
  5 28  1  0
  6 29  1  0
  6 30  1  0
  6 31  1  0
  7 32  1  0
 11 33  1  0
 11 34  1  0
 12 35  1  0
 12 36  1  0
 13 37  1  0
 13 38  1  0
 16 39  1  0
 17 40  1  0
 18 41  1  0
 18 42  1  0
 19 43  1  0
 19 44  1  0
 20 45  1  0
 20 46  1  0
 21 47  1  0
 21 48  1  0
M  END
>  <smiles>  (19) 
CC1=CC(C)(C)NC(=S)N1CCCC(=O)NC1CCCC1

>  <score_type>  (19) 
oracle

>  <origin>  (19) 
adg

>  <m_score__min__energy>  (19) 
-8.1199999999999992

>  <m_primary>  (19) 
energy

$$$$
20:0
     RDKit          3D

 49 52  0  0  1  0  0  0  0  0999 V2000
   60.7180   27.0370   49.8330 C   0  0  0  0  0  0  0  0  0  0  0  0
   60.8610   26.8210   48.4330 O   0  0  0  0  0  0  0  0  0  0  0  0
   60.2130   27.6280   47.5080 C   0  0  0  0  0  0  0  0  0  0  0  0
   59.4470   27.0330   46.5250 C   0  0  0  0  0  0  0  0  0  0  0  0
   58.8170   27.8620   45.6240 C   0  0  0  0  0  0  0  0  0  0  0  0
   58.0330   27.3090   44.6130 C   0  0  0  0  0  0  0  0  0  0  0  0
   57.8820   25.8260   44.5150 C   0  0  0  0  0  0  0  0  0  0  0  0
   57.4230   28.1170   43.7400 N   0  0  0  0  0  0  0  0  0  0  0  0
   57.5370   29.4620   43.7980 C   0  0  0  0  0  0  0  0  0  0  0  0
   56.9330   30.1580   42.9410 O   0  0  0  0  0  0  0  0  0  0  0  0
   58.3180   30.0420   44.8030 C   0  0  0  0  0  0  0  0  0  0  0  0
   58.4200   31.4750   44.8380 N   0  0  0  0  0  0  0  0  0  0  0  0
   57.7830   32.0960   45.7130 N   0  0  0  0  0  0  0  0  0  0  0  0
   57.6190   33.5080   45.7820 C   0  0  0  0  0  0  0  0  0  0  0  0
   57.0690   34.0890   44.8110 O   0  0  0  0  0  0  0  0  0  0  0  0
   58.1040   34.2160   46.9940 C   0  0  0  0  0  0  0  0  0  0  0  0
   59.4940   33.8630   47.3160 C   0  0  0  0  0  0  0  0  0  0  0  0
   60.2720   34.4910   48.2320 N   0  0  0  0  0  0  0  0  0  0  0  0
   61.4690   33.8880   48.2420 C   0  0  0  0  0  0  0  0  0  0  0  0
   62.6400   34.1080   48.9730 C   0  0  0  0  0  0  0  0  0  0  0  0
   63.7620   33.3110   48.7760 C   0  0  0  0  0  0  0  0  0  0  0  0
   63.7540   32.2810   47.8530 C   0  0  0  0  0  0  0  0  0  0  0  0
   62.5880   32.0630   47.1240 C   0  0  0  0  0  0  0  0  0  0  0  0
   61.4590   32.8620   47.3210 C   0  0  0  0  0  0  0  0  0  0  0  0
   60.2390   32.8680   46.7680 N   0  0  0  0  0  0  0  0  0  0  0  0
   58.9610   29.2370   45.7200 C   0  0  0  0  0  0  0  0  0  0  0  0
   59.7300   29.8240   46.7080 C   0  0  0  0  0  0  0  0  0  0  0  0
   60.3690   28.9940   47.6220 C   0  0  0  0  0  0  0  0  0  0  0  0
   61.1600   29.5030   48.6440 O   0  0  0  0  0  0  0  0  0  0  0  0
   60.5600   30.4240   49.5400 C   0  0  0  0  0  0  0  0  0  0  0  0
   61.2441   26.2423   50.3822 H   0  0  0  0  0  0  0  0  0  0  0  0
   61.1486   28.0136   50.0992 H   0  0  0  0  0  0  0  0  0  0  0  0
   59.6508   27.0220   50.0992 H   0  0  0  0  0  0  0  0  0  0  0  0
   59.3442   25.9395   46.4642 H   0  0  0  0  0  0  0  0  0  0  0  0
   57.8380   25.3943   45.5258 H   0  0  0  0  0  0  0  0  0  0  0  0
   56.9549   25.5868   43.9735 H   0  0  0  0  0  0  0  0  0  0  0  0
   58.7419   25.4049   43.9735 H   0  0  0  0  0  0  0  0  0  0  0  0
   56.8450   27.6660   42.9980 H   0  0  0  0  0  0  0  0  0  0  0  0
   58.0437   35.3005   46.8203 H   0  0  0  0  0  0  0  0  0  0  0  0
   57.4708   33.9141   47.8413 H   0  0  0  0  0  0  0  0  0  0  0  0
   62.6742   34.9213   49.7128 H   0  0  0  0  0  0  0  0  0  0  0  0
   64.6715   33.5029   49.3642 H   0  0  0  0  0  0  0  0  0  0  0  0
   64.6433   31.6521   47.6993 H   0  0  0  0  0  0  0  0  0  0  0  0
   62.5553   31.2507   46.3830 H   0  0  0  0  0  0  0  0  0  0  0  0
   59.9390   32.1840   46.0210 H   0  0  0  0  0  0  0  0  0  0  0  0
   59.8333   30.9174   46.7691 H   0  0  0  0  0  0  0  0  0  0  0  0
   60.7625   30.1131   50.5755 H   0  0  0  0  0  0  0  0  0  0  0  0
   60.9786   31.4269   49.3697 H   0  0  0  0  0  0  0  0  0  0  0  0
   59.4735   30.4464   49.3697 H   0  0  0  0  0  0  0  0  0  0  0  0
  1  2  1  0
  2  3  1  0
  3  4  2  0
  4  5  1  0
  5  6  2  0
  6  7  1  0
  6  8  1  0
  8  9  1  0
  9 10  2  0
  9 11  1  0
 11 12  1  0
 12 13  2  0
 13 14  1  0
 14 15  2  0
 14 16  1  0
 16 17  1  0
 17 18  2  0
 18 19  1  0
 19 20  2  0
 20 21  1  0
 21 22  2  0
 22 23  1  0
 23 24  2  0
 24 25  1  0
 11 26  2  0
 26 27  1  0
 27 28  2  0
 28 29  1  0
 29 30  1  0
 28  3  1  0
 26  5  1  0
 25 17  1  0
 24 19  1  0
  1 31  1  0
  1 32  1  0
  1 33  1  0
  4 34  1  0
  7 35  1  0
  7 36  1  0
  7 37  1  0
  8 38  1  0
 16 39  1  0
 16 40  1  0
 20 41  1  0
 21 42  1  0
 22 43  1  0
 23 44  1  0
 25 45  1  0
 27 46  1  0
 30 47  1  0
 30 48  1  0
 30 49  1  0
M  END
>  <smiles>  (20) 
COc1cc2c(C)[nH]c(=O)c(N=NC(=O)Cc3nc4ccccc4[nH]3)c2cc1OC

>  <score_type>  (20) 
oracle

>  <origin>  (20) 
adg

>  <m_score__min__energy>  (20) 
-8.1899999999999995

>  <m_primary>  (20) 
energy

$$$$
21:0
     RDKit          3D

 35 36  0  0  0  0  0  0  0  0999 V2000
   61.1770   28.9400   44.4780 C   0  0  0  0  0  0  0  0  0  0  0  0
   59.7930   28.6800   44.5740 O   0  0  0  0  0  0  0  0  0  0  0  0
   59.3300   27.8990   45.6160 C   0  0  0  0  0  0  0  0  0  0  0  0
   60.0920   27.6950   46.7550 C   0  0  0  0  0  0  0  0  0  0  0  0
   59.6460   26.9190   47.8040 C   0  0  0  0  0  0  0  0  0  0  0  0
   60.6080   26.6600   49.2420 Cl  0  0  0  0  0  0  0  0  0  0  0  0
   58.3980   26.3460   47.6770 C   0  0  0  0  0  0  0  0  0  0  0  0
   57.5900   26.5060   46.5780 C   0  0  0  0  0  0  0  0  0  0  0  0
   56.2790   25.9010   46.5290 C   0  0  0  0  0  0  0  0  0  0  0  0
   55.1540   26.7180   46.1980 N   0  0  0  0  0  0  0  0  0  0  0  0
   56.0350   24.6920   46.7570 O   0  0  0  0  0  0  0  0  0  0  0  0
   58.0710   27.2890   45.5500 C   0  0  0  0  0  0  0  0  0  0  0  0
   57.3350   27.5320   44.3590 N   0  0  0  0  0  0  0  0  0  0  0  0
   56.5790   29.0610   44.0470 S   0  0  0  0  0  0  0  0  0  0  0  0
   55.1750   29.0820   44.5510 O   0  0  0  0  0  0  0  0  0  0  0  0
   56.5820   29.3480   42.5750 O   0  0  0  0  0  0  0  0  0  0  0  0
   57.4590   30.3630   44.8100 C   0  0  0  0  0  0  0  0  0  0  0  0
   57.7540   30.2570   46.1380 C   0  0  0  0  0  0  0  0  0  0  0  0
   58.4460   31.2360   46.8260 C   0  0  0  0  0  0  0  0  0  0  0  0
   58.8580   32.3760   46.1300 C   0  0  0  0  0  0  0  0  0  0  0  0
   59.7390   33.6280   46.9920 Cl  0  0  0  0  0  0  0  0  0  0  0  0
   58.5610   32.4860   44.7810 C   0  0  0  0  0  0  0  0  0  0  0  0
   57.8640   31.4880   44.1120 C   0  0  0  0  0  0  0  0  0  0  0  0
   61.6058   29.0206   45.4878 H   0  0  0  0  0  0  0  0  0  0  0  0
   61.6677   28.1183   43.9357 H   0  0  0  0  0  0  0  0  0  0  0  0
   61.3360   29.8837   43.9357 H   0  0  0  0  0  0  0  0  0  0  0  0
   61.0833   28.1666   46.8247 H   0  0  0  0  0  0  0  0  0  0  0  0
   58.0277   25.7238   48.5051 H   0  0  0  0  0  0  0  0  0  0  0  0
   55.1790   27.4690   45.4820 H   0  0  0  0  0  0  0  0  0  0  0  0
   54.2310   26.5680   46.6960 H   0  0  0  0  0  0  0  0  0  0  0  0
   57.2580   26.7720   43.6770 H   0  0  0  0  0  0  0  0  0  0  0  0
   57.4286   29.3580   46.6819 H   0  0  0  0  0  0  0  0  0  0  0  0
   58.6675   31.1205   47.8973 H   0  0  0  0  0  0  0  0  0  0  0  0
   58.8835   33.3812   44.2291 H   0  0  0  0  0  0  0  0  0  0  0  0
   57.6366   31.5902   43.0406 H   0  0  0  0  0  0  0  0  0  0  0  0
  1  2  1  0
  2  3  1  0
  3  4  2  0
  4  5  1  0
  5  6  1  0
  5  7  2  0
  7  8  1  0
  8  9  1  0
  9 10  1  0
  9 11  2  0
  8 12  2  0
 12 13  1  0
 13 14  1  0
 14 15  2  0
 14 16  2  0
 14 17  1  0
 17 18  2  0
 18 19  1  0
 19 20  2  0
 20 21  1  0
 20 22  1  0
 22 23  2  0
 12  3  1  0
 23 17  1  0
  1 24  1  0
  1 25  1  0
  1 26  1  0
  4 27  1  0
  7 28  1  0
 10 29  1  0
 10 30  1  0
 13 31  1  0
 18 32  1  0
 19 33  1  0
 22 34  1  0
 23 35  1  0
M  END
>  <smiles>  (21) 
COc1cc(Cl)cc(C(N)=O)c1NS(=O)(=O)c1ccc(Cl)cc1

>  <score_type>  (21) 
oracle

>  <origin>  (21) 
adg

>  <m_score__min__energy>  (21) 
-8.2300000000000004

>  <m_primary>  (21) 
energy

$$$$
22:0
     RDKit          3D

 34 36  0  0  1  0  0  0  0  0999 V2000
   56.8520   23.9180   47.5950 C   0  0  0  0  0  0  0  0  0  0  0  0
   56.6910   25.2420   46.9330 C   0  0  0  0  0  0  0  0  0  0  0  0
   57.6670   26.2020   46.8440 C   0  0  0  0  0  0  0  0  0  0  0  0
   57.0840   27.2660   46.1500 C   0  0  0  0  0  0  0  0  0  0  0  0
   57.6280   28.3910   45.8320 N   0  0  0  0  0  0  0  0  0  0  0  0
   57.1140   29.2680   44.8420 C   0  0  0  0  0  0  0  0  0  0  0  0
   55.8700   29.5430   44.9400 O   0  0  0  0  0  0  0  0  0  0  0  0
   57.9260   29.8550   43.7500 C   0  0  0  0  0  0  0  0  0  0  0  0
   57.3450   31.5530   43.5010 S   0  0  0  0  0  0  0  0  0  0  0  0
   57.6330   32.5860   44.9270 C   0  0  0  0  0  0  0  0  0  0  0  0
   57.1240   33.7910   45.2340 N   0  0  0  0  0  0  0  0  0  0  0  0
   57.6220   34.2020   46.4110 N   0  0  0  0  0  0  0  0  0  0  0  0
   58.4690   33.2420   46.8720 C   0  0  0  0  0  0  0  0  0  0  0  0
   59.2550   33.2600   48.1470 C   0  0  0  0  0  0  0  0  0  0  0  0
   59.8460   34.5350   48.6320 C   0  0  0  0  0  0  0  0  0  0  0  0
   60.7450   33.5980   47.9310 C   0  0  0  0  0  0  0  0  0  0  0  0
   58.4640   32.2660   45.9550 N   0  0  0  0  0  0  0  0  0  0  0  0
   59.2000   31.0800   46.0210 N   0  0  0  0  0  0  0  0  0  0  0  0
   55.8140   26.9030   45.8630 N   0  0  0  0  0  0  0  0  0  0  0  0
   55.6290   25.7230   46.3350 O   0  0  0  0  0  0  0  0  0  0  0  0
   56.8360   24.0497   48.6870 H   0  0  0  0  0  0  0  0  0  0  0  0
   56.0279   23.2547   47.2935 H   0  0  0  0  0  0  0  0  0  0  0  0
   57.8111   23.4715   47.2935 H   0  0  0  0  0  0  0  0  0  0  0  0
   58.6931   26.1461   47.2365 H   0  0  0  0  0  0  0  0  0  0  0  0
   58.9894   29.8583   44.0314 H   0  0  0  0  0  0  0  0  0  0  0  0
   57.8200   29.2673   42.8262 H   0  0  0  0  0  0  0  0  0  0  0  0
   58.6440   32.4842   48.6315 H   0  0  0  0  0  0  0  0  0  0  0  0
   59.5650   35.4817   48.1474 H   0  0  0  0  0  0  0  0  0  0  0  0
   59.8805   35.0337   49.6119 H   0  0  0  0  0  0  0  0  0  0  0  0
   61.1172   33.8377   46.9240 H   0  0  0  0  0  0  0  0  0  0  0  0
   61.7018   33.1075   48.1634 H   0  0  0  0  0  0  0  0  0  0  0  0
   60.2150   31.0180   45.7590 H   0  0  0  0  0  0  0  0  0  0  0  0
   58.7820   30.1620   46.3400 H   0  0  0  0  0  0  0  0  0  0  0  0
   55.1490   27.5320   45.3380 H   0  0  0  0  0  0  0  0  0  0  0  0
  1  2  1  0
  2  3  2  0
  3  4  1  0
  4  5  2  0
  5  6  1  0
  6  7  2  0
  6  8  1  0
  8  9  1  0
  9 10  1  0
 10 11  2  0
 11 12  1  0
 12 13  2  0
 13 14  1  0
 14 15  1  0
 15 16  1  0
 13 17  1  0
 17 18  1  0
  4 19  1  0
 19 20  1  0
 20  2  1  0
 17 10  1  0
 16 14  1  0
  1 21  1  0
  1 22  1  0
  1 23  1  0
  3 24  1  0
  8 25  1  0
  8 26  1  0
 14 27  1  0
 15 28  1  0
 15 29  1  0
 16 30  1  0
 16 31  1  0
 18 32  1  0
 18 33  1  0
 19 34  1  0
M  END
>  <smiles>  (22) 
Cc1cc(=NC(=O)CSc2nnc(C3CC3)n2N)[nH]o1

>  <score_type>  (22) 
oracle

>  <origin>  (22) 
adg

>  <m_score__min__energy>  (22) 
-7.3099999999999996

>  <m_primary>  (22) 
energy

$$$$
23:0
     RDKit          3D

 41 44  0  0  0  0  0  0  0  0999 V2000
   56.6450   23.5430   43.2340 C   0  0  0  0  0  0  0  0  0  0  0  0
   56.5600   24.1730   44.4960 O   0  0  0  0  0  0  0  0  0  0  0  0
   57.0490   25.4450   44.7640 C   0  0  0  0  0  0  0  0  0  0  0  0
   57.7920   26.1730   43.8880 C   0  0  0  0  0  0  0  0  0  0  0  0
   58.2410   27.4330   44.2320 C   0  0  0  0  0  0  0  0  0  0  0  0
   57.9360   27.9590   45.4720 C   0  0  0  0  0  0  0  0  0  0  0  0
   58.4120   29.2600   45.7990 N   0  0  0  0  0  0  0  0  0  0  0  0
   59.5680   29.4910   46.4330 C   0  0  0  0  0  0  0  0  0  0  0  0
   60.3830   28.2970   46.8040 C   0  0  0  0  0  0  0  0  0  0  0  0
   60.0440   30.6940   46.7550 N   0  0  0  0  0  0  0  0  0  0  0  0
   59.3450   31.8450   46.4420 C   0  0  0  0  0  0  0  0  0  0  0  0
   59.6800   33.0970   46.6900 C   0  0  0  0  0  0  0  0  0  0  0  0
   60.9470   33.4920   47.3930 C   0  0  0  0  0  0  0  0  0  0  0  0
   60.8420   33.8620   48.7170 C   0  0  0  0  0  0  0  0  0  0  0  0
   62.0110   34.2250   49.3690 C   0  0  0  0  0  0  0  0  0  0  0  0
   63.2210   34.2120   48.7040 C   0  0  0  0  0  0  0  0  0  0  0  0
   63.3070   33.8330   47.3630 C   0  0  0  0  0  0  0  0  0  0  0  0
   62.1390   33.4680   46.7040 C   0  0  0  0  0  0  0  0  0  0  0  0
   58.8340   34.1250   46.2910 C   0  0  0  0  0  0  0  0  0  0  0  0
   57.4020   33.2260   45.4720 S   0  0  0  0  0  0  0  0  0  0  0  0
   58.1490   31.5820   45.7850 C   0  0  0  0  0  0  0  0  0  0  0  0
   57.6830   30.3410   45.4660 C   0  0  0  0  0  0  0  0  0  0  0  0
   56.5780   30.2440   44.8670 O   0  0  0  0  0  0  0  0  0  0  0  0
   57.1740   27.2350   46.3930 C   0  0  0  0  0  0  0  0  0  0  0  0
   56.7470   25.9760   46.0030 C   0  0  0  0  0  0  0  0  0  0  0  0
   56.7909   22.4616   43.3731 H   0  0  0  0  0  0  0  0  0  0  0  0
   55.7151   23.7184   42.6733 H   0  0  0  0  0  0  0  0  0  0  0  0
   57.4952   23.9586   42.6733 H   0  0  0  0  0  0  0  0  0  0  0  0
   58.0367   25.7560   42.9000 H   0  0  0  0  0  0  0  0  0  0  0  0
   58.8411   28.0172   43.5188 H   0  0  0  0  0  0  0  0  0  0  0  0
   60.4379   28.2166   47.8997 H   0  0  0  0  0  0  0  0  0  0  0  0
   59.9141   27.3909   46.3929 H   0  0  0  0  0  0  0  0  0  0  0  0
   61.3977   28.4035   46.3929 H   0  0  0  0  0  0  0  0  0  0  0  0
   59.8714   33.8690   49.2347 H   0  0  0  0  0  0  0  0  0  0  0  0
   61.9739   34.5262   50.4263 H   0  0  0  0  0  0  0  0  0  0  0  0
   64.1348   34.5059   49.2411 H   0  0  0  0  0  0  0  0  0  0  0  0
   64.2752   33.8235   46.8410 H   0  0  0  0  0  0  0  0  0  0  0  0
   62.1664   33.1643   45.6471 H   0  0  0  0  0  0  0  0  0  0  0  0
   58.9705   35.2084   46.4234 H   0  0  0  0  0  0  0  0  0  0  0  0
   56.9246   27.6460   47.3824 H   0  0  0  0  0  0  0  0  0  0  0  0
   56.1465   25.3783   46.7045 H   0  0  0  0  0  0  0  0  0  0  0  0
  1  2  1  0
  2  3  1  0
  3  4  2  0
  4  5  1  0
  5  6  2  0
  6  7  1  0
  7  8  1  0
  8  9  1  0
  8 10  2  0
 10 11  1  0
 11 12  1  0
 12 13  1  0
 13 14  2  0
 14 15  1  0
 15 16  2  0
 16 17  1  0
 17 18  2  0
 12 19  2  0
 19 20  1  0
 20 21  1  0
 21 22  1  0
 22 23  2  0
  6 24  1  0
 24 25  2  0
 25  3  1  0
 22  7  1  0
 21 11  2  0
 18 13  1  0
  1 26  1  0
  1 27  1  0
  1 28  1  0
  4 29  1  0
  5 30  1  0
  9 31  1  0
  9 32  1  0
  9 33  1  0
 14 34  1  0
 15 35  1  0
 16 36  1  0
 17 37  1  0
 18 38  1  0
 19 39  1  0
 24 40  1  0
 25 41  1  0
M  END
>  <smiles>  (23) 
COc1ccc(-n2c(C)nc3c(-c4ccccc4)csc3c2=O)cc1

>  <score_type>  (23) 
oracle

>  <origin>  (23) 
adg

>  <m_score__min__energy>  (23) 
-8.1099999999999994

>  <m_primary>  (23) 
energy

$$$$
24:0
     RDKit          3D

 50 51  0  0  1  0  0  0  0  0999 V2000
   63.6690   33.0960   46.7580 C   0  0  0  0  0  0  0  0  0  0  0  0
   63.5890   33.6370   48.1660 C   0  0  0  0  0  0  0  0  0  0  0  0
   62.3880   33.1030   48.9010 C   0  0  0  0  0  0  0  0  0  0  0  0
   61.3560   34.1480   49.2150 C   0  0  0  0  0  0  0  0  0  0  0  0
   60.2770   33.9850   48.1730 C   0  0  0  0  0  0  0  0  0  0  0  0
   59.1660   33.2100   48.4610 C   0  0  0  0  0  0  0  0  0  0  0  0
   58.1840   33.0410   47.4930 C   0  0  0  0  0  0  0  0  0  0  0  0
   58.2990   33.6310   46.2590 C   0  0  0  0  0  0  0  0  0  0  0  0
   57.3210   33.4220   45.2540 C   0  0  0  0  0  0  0  0  0  0  0  0
   57.0190   34.4060   44.4960 O   0  0  0  0  0  0  0  0  0  0  0  0
   56.6100   32.2140   44.9710 N   0  0  0  0  0  0  0  0  0  0  0  0
   57.2860   31.1300   44.7390 C   0  0  0  0  0  0  0  0  0  0  0  0
   58.5540   30.8090   44.7810 N   0  0  0  0  0  0  0  0  0  0  0  0
   58.8330   29.5900   44.4450 N   0  0  0  0  0  0  0  0  0  0  0  0
   58.1810   28.7190   44.1110 C   0  0  0  0  0  0  0  0  0  0  0  0
   58.1980   27.2510   43.6550 C   0  0  0  0  0  0  0  0  0  0  0  0
   58.1730   26.4660   44.9070 C   0  0  0  0  0  0  0  0  0  0  0  0
   59.0940   26.9250   46.3250 S   0  0  0  0  0  0  0  0  0  0  0  0
   58.3930   28.0520   47.4580 C   0  0  0  0  0  0  0  0  0  0  0  0
   59.1030   29.3250   47.6800 C   0  0  0  0  0  0  0  0  0  0  0  0
   60.4800   29.3820   47.4070 N   0  0  0  0  0  0  0  0  0  0  0  0
   61.2020   30.4380   46.8030 C   0  0  0  0  0  0  0  0  0  0  0  0
   60.6370   31.4900   46.4250 O   0  0  0  0  0  0  0  0  0  0  0  0
   56.4480   29.5530   44.1720 S   0  0  0  0  0  0  0  0  0  0  0  0
   59.4060   34.4150   45.9510 C   0  0  0  0  0  0  0  0  0  0  0  0
   60.3900   34.5810   46.9250 C   0  0  0  0  0  0  0  0  0  0  0  0
   63.8298   32.0083   46.7917 H   0  0  0  0  0  0  0  0  0  0  0  0
   62.7292   33.3115   46.2285 H   0  0  0  0  0  0  0  0  0  0  0  0
   64.5062   33.5742   46.2285 H   0  0  0  0  0  0  0  0  0  0  0  0
   64.4989   33.3466   48.7116 H   0  0  0  0  0  0  0  0  0  0  0  0
   63.4964   34.7316   48.1078 H   0  0  0  0  0  0  0  0  0  0  0  0
   61.9177   32.3268   48.2794 H   0  0  0  0  0  0  0  0  0  0  0  0
   62.7494   32.7101   49.8628 H   0  0  0  0  0  0  0  0  0  0  0  0
   60.9433   33.9886   50.2221 H   0  0  0  0  0  0  0  0  0  0  0  0
   61.7861   35.1603   49.1980 H   0  0  0  0  0  0  0  0  0  0  0  0
   59.0621   32.7329   49.4467 H   0  0  0  0  0  0  0  0  0  0  0  0
   57.3010   32.4251   47.7188 H   0  0  0  0  0  0  0  0  0  0  0  0
   59.3050   31.5130   45.0760 H   0  0  0  0  0  0  0  0  0  0  0  0
   57.3147   27.0264   43.0392 H   0  0  0  0  0  0  0  0  0  0  0  0
   59.0777   27.0186   43.0369 H   0  0  0  0  0  0  0  0  0  0  0  0
   57.1204   26.4311   45.2246 H   0  0  0  0  0  0  0  0  0  0  0  0
   58.6780   25.5379   44.6011 H   0  0  0  0  0  0  0  0  0  0  0  0
   57.3831   28.2967   47.0972 H   0  0  0  0  0  0  0  0  0  0  0  0
   58.4339   27.5356   48.4284 H   0  0  0  0  0  0  0  0  0  0  0  0
   58.6154   30.0828   47.0492 H   0  0  0  0  0  0  0  0  0  0  0  0
   59.0376   29.4834   48.7666 H   0  0  0  0  0  0  0  0  0  0  0  0
   61.0700   28.5330   47.6790 H   0  0  0  0  0  0  0  0  0  0  0  0
   62.2878   30.3325   46.6617 H   0  0  0  0  0  0  0  0  0  0  0  0
   59.5027   34.8918   44.9644 H   0  0  0  0  0  0  0  0  0  0  0  0
   61.2733   35.1966   46.6995 H   0  0  0  0  0  0  0  0  0  0  0  0
  1  2  1  0
  2  3  1  0
  3  4  1  0
  4  5  1  0
  5  6  2  0
  6  7  1  0
  7  8  2  0
  8  9  1  0
  9 10  2  0
  9 11  1  0
 11 12  2  0
 12 13  1  0
 13 14  1  0
 14 15  2  0
 15 16  1  0
 16 17  1  0
 17 18  1  0
 18 19  1  0
 19 20  1  0
 20 21  1  0
 21 22  1  0
 22 23  2  0
 15 24  1  0
  8 25  1  0
 25 26  2  0
 26  5  1  0
 24 12  1  0
  1 27  1  0
  1 28  1  0
  1 29  1  0
  2 30  1  0
  2 31  1  0
  3 32  1  0
  3 33  1  0
  4 34  1  0
  4 35  1  0
  6 36  1  0
  7 37  1  0
 13 38  1  0
 16 39  1  0
 16 40  1  0
 17 41  1  0
 17 42  1  0
 19 43  1  0
 19 44  1  0
 20 45  1  0
 20 46  1  0
 21 47  1  0
 22 48  1  0
 25 49  1  0
 26 50  1  0
M  END
>  <smiles>  (24) 
CCCCc1ccc(C(=O)N=c2[nH]nc(CCSCCNC=O)s2)cc1

>  <score_type>  (24) 
oracle

>  <origin>  (24) 
adg

>  <m_score__min__energy>  (24) 
-8.5800000000000001

>  <m_primary>  (24) 
energy

$$$$
25:0
     RDKit          3D

 37 40  0  0  0  0  0  0  0  0999 V2000
   55.8010   19.2400   44.0840 C   0  0  0  0  0  0  0  0  0  0  0  0
   56.0220   20.6790   44.1040 N   0  0  0  0  0  0  0  0  0  0  0  0
   56.0270   21.5110   45.1780 C   0  0  0  0  0  0  0  0  0  0  0  0
   56.2760   22.7640   44.7010 C   0  0  0  0  0  0  0  0  0  0  0  0
   56.3790   23.9760   45.4380 N   0  0  0  0  0  0  0  0  0  0  0  0
   55.9890   24.1760   46.7090 C   0  0  0  0  0  0  0  0  0  0  0  0
   56.2500   25.4520   47.0480 N   0  0  0  0  0  0  0  0  0  0  0  0
   56.8110   26.0820   46.0000 C   0  0  0  0  0  0  0  0  0  0  0  0
   57.2320   27.4850   46.0000 C   0  0  0  0  0  0  0  0  0  0  0  0
   57.8450   27.8830   47.0150 O   0  0  0  0  0  0  0  0  0  0  0  0
   56.9390   28.3130   44.8920 N   0  0  0  0  0  0  0  0  0  0  0  0
   57.2800   29.6710   44.7570 C   0  0  0  0  0  0  0  0  0  0  0  0
   57.0910   30.2680   43.5180 C   0  0  0  0  0  0  0  0  0  0  0  0
   57.4020   31.5930   43.3130 C   0  0  0  0  0  0  0  0  0  0  0  0
   57.9120   32.3920   44.3140 C   0  0  0  0  0  0  0  0  0  0  0  0
   58.2230   33.6880   44.1320 N   0  0  0  0  0  0  0  0  0  0  0  0
   58.7240   34.4680   45.1190 C   0  0  0  0  0  0  0  0  0  0  0  0
   58.9080   33.8680   46.3460 C   0  0  0  0  0  0  0  0  0  0  0  0
   58.6030   32.5690   46.5490 N   0  0  0  0  0  0  0  0  0  0  0  0
   58.1040   31.8190   45.5400 C   0  0  0  0  0  0  0  0  0  0  0  0
   57.7870   30.4750   45.7450 C   0  0  0  0  0  0  0  0  0  0  0  0
   56.8840   25.1450   45.0000 C   0  0  0  0  0  0  0  0  0  0  0  0
   56.4140   22.6440   43.3340 C   0  0  0  0  0  0  0  0  0  0  0  0
   56.2550   21.3700   43.0000 N   0  0  0  0  0  0  0  0  0  0  0  0
   55.7432   18.8635   45.1160 H   0  0  0  0  0  0  0  0  0  0  0  0
   54.8587   19.0210   43.5605 H   0  0  0  0  0  0  0  0  0  0  0  0
   56.6342   18.7483   43.5605 H   0  0  0  0  0  0  0  0  0  0  0  0
   55.8622   21.2287   46.2283 H   0  0  0  0  0  0  0  0  0  0  0  0
   55.5315   23.4204   47.3645 H   0  0  0  0  0  0  0  0  0  0  0  0
   56.4150   27.8470   44.1040 H   0  0  0  0  0  0  0  0  0  0  0  0
   56.6861   29.6724   42.6866 H   0  0  0  0  0  0  0  0  0  0  0  0
   57.2380   32.0292   42.3166 H   0  0  0  0  0  0  0  0  0  0  0  0
   58.9715   35.5264   44.9501 H   0  0  0  0  0  0  0  0  0  0  0  0
   59.3128   34.4615   47.1791 H   0  0  0  0  0  0  0  0  0  0  0  0
   57.9512   30.0422   46.7428 H   0  0  0  0  0  0  0  0  0  0  0  0
   57.2927   25.3219   43.9942 H   0  0  0  0  0  0  0  0  0  0  0  0
   56.6216   23.4684   42.6360 H   0  0  0  0  0  0  0  0  0  0  0  0
  1  2  1  0
  2  3  1  0
  3  4  2  0
  4  5  1  0
  5  6  1  0
  6  7  2  0
  7  8  1  0
  8  9  1  0
  9 10  2  0
  9 11  1  0
 11 12  1  0
 12 13  2  0
 13 14  1  0
 14 15  2  0
 15 16  1  0
 16 17  2  0
 17 18  1  0
 18 19  2  0
 19 20  1  0
 20 21  2  0
  8 22  2  0
  4 23  1  0
 23 24  2  0
 24  2  1  0
 22  5  1  0
 21 12  1  0
 20 15  1  0
  1 25  1  0
  1 26  1  0
  1 27  1  0
  3 28  1  0
  6 29  1  0
 11 30  1  0
 13 31  1  0
 14 32  1  0
 17 33  1  0
 18 34  1  0
 21 35  1  0
 22 36  1  0
 23 37  1  0
M  END
>  <smiles>  (25) 
Cn1cc(-n2cnc(C(=O)Nc3ccc4nccnc4c3)c2)cn1

>  <score_type>  (25) 
oracle

>  <origin>  (25) 
adg

>  <m_score__min__energy>  (25) 
-7.6200000000000001

>  <m_primary>  (25) 
energy

$$$$
26:0
     RDKit          3D

 51 54  0  0  0  0  0  0  0  0999 V2000
   64.8390   32.0000   49.5480 C   0  0  0  0  0  0  0  0  0  0  0  0
   63.5590   32.4820   49.0620 N   0  0  0  0  0  0  0  0  0  0  0  0
   63.7300   33.0550   47.7630 C   0  0  0  0  0  0  0  0  0  0  0  0
   62.3890   33.5300   47.1810 C   0  0  0  0  0  0  0  0  0  0  0  0
   61.6350   34.1680   48.2440 N   0  0  0  0  0  0  0  0  0  0  0  0
   60.2380   34.3980   48.1960 C   0  0  0  0  0  0  0  0  0  0  0  0
   59.6490   34.9650   49.1780 O   0  0  0  0  0  0  0  0  0  0  0  0
   59.3850   34.0270   47.0790 C   0  0  0  0  0  0  0  0  0  0  0  0
   59.3060   34.8520   45.9570 C   0  0  0  0  0  0  0  0  0  0  0  0
   58.5120   34.5440   44.8730 C   0  0  0  0  0  0  0  0  0  0  0  0
   57.7520   33.3840   44.8590 C   0  0  0  0  0  0  0  0  0  0  0  0
   57.8260   32.5640   45.9640 C   0  0  0  0  0  0  0  0  0  0  0  0
   58.6220   32.8780   47.0460 C   0  0  0  0  0  0  0  0  0  0  0  0
   58.6550   31.9530   48.2000 C   0  0  0  0  0  0  0  0  0  0  0  0
   58.3930   32.4280   49.4640 C   0  0  0  0  0  0  0  0  0  0  0  0
   58.4070   31.6130   50.5550 C   0  0  0  0  0  0  0  0  0  0  0  0
   58.0790   32.1900   52.1760 Cl  0  0  0  0  0  0  0  0  0  0  0  0
   58.6930   30.2810   50.3670 C   0  0  0  0  0  0  0  0  0  0  0  0
   58.9540   29.8080   49.0990 C   0  0  0  0  0  0  0  0  0  0  0  0
   58.9510   30.5930   47.9700 C   0  0  0  0  0  0  0  0  0  0  0  0
   59.1920   30.2270   46.7050 O   0  0  0  0  0  0  0  0  0  0  0  0
   58.6970   29.2080   45.9160 C   0  0  0  0  0  0  0  0  0  0  0  0
   57.7320   29.6700   44.8940 C   0  0  0  0  0  0  0  0  0  0  0  0
   57.8660   30.1480   43.6690 N   0  0  0  0  0  0  0  0  0  0  0  0
   56.6560   30.4330   43.1300 C   0  0  0  0  0  0  0  0  0  0  0  0
   55.7500   30.0960   44.1150 C   0  0  0  0  0  0  0  0  0  0  0  0
   56.4260   29.6560   45.1230 O   0  0  0  0  0  0  0  0  0  0  0  0
   62.3920   34.5810   49.4140 C   0  0  0  0  0  0  0  0  0  0  0  0
   62.9150   33.3030   50.0330 C   0  0  0  0  0  0  0  0  0  0  0  0
   64.8374   32.0006   50.6480 H   0  0  0  0  0  0  0  0  0  0  0  0
   65.0083   30.9765   49.1822 H   0  0  0  0  0  0  0  0  0  0  0  0
   65.6413   32.6576   49.1822 H   0  0  0  0  0  0  0  0  0  0  0  0
   64.4127   33.9143   47.8375 H   0  0  0  0  0  0  0  0  0  0  0  0
   64.1447   32.2850   47.0958 H   0  0  0  0  0  0  0  0  0  0  0  0
   62.5694   34.2494   46.3686 H   0  0  0  0  0  0  0  0  0  0  0  0
   61.8266   32.6761   46.7754 H   0  0  0  0  0  0  0  0  0  0  0  0
   59.8971   35.7795   45.9365 H   0  0  0  0  0  0  0  0  0  0  0  0
   58.4809   35.2254   44.0101 H   0  0  0  0  0  0  0  0  0  0  0  0
   57.1150   33.1285   43.9994 H   0  0  0  0  0  0  0  0  0  0  0  0
   57.2357   31.6360   45.9838 H   0  0  0  0  0  0  0  0  0  0  0  0
   58.1658   33.4960   49.5974 H   0  0  0  0  0  0  0  0  0  0  0  0
   58.7134   29.5948   51.2265 H   0  0  0  0  0  0  0  0  0  0  0  0
   59.1784   28.7374   48.9831 H   0  0  0  0  0  0  0  0  0  0  0  0
   59.5409   28.7225   45.4041 H   0  0  0  0  0  0  0  0  0  0  0  0
   58.1589   28.5159   46.5804 H   0  0  0  0  0  0  0  0  0  0  0  0
   56.4434   30.8415   42.1310 H   0  0  0  0  0  0  0  0  0  0  0  0
   54.6554   30.1856   44.0528 H   0  0  0  0  0  0  0  0  0  0  0  0
   63.2265   35.2347   49.1202 H   0  0  0  0  0  0  0  0  0  0  0  0
   61.7703   35.1505   50.1206 H   0  0  0  0  0  0  0  0  0  0  0  0
   63.6372   33.5570   50.8229 H   0  0  0  0  0  0  0  0  0  0  0  0
   62.0630   32.7451   50.4488 H   0  0  0  0  0  0  0  0  0  0  0  0
  1  2  1  0
  2  3  1  0
  3  4  1  0
  4  5  1  0
  5  6  1  0
  6  7  2  0
  6  8  1  0
  8  9  2  0
  9 10  1  0
 10 11  2  0
 11 12  1  0
 12 13  2  0
 13 14  1  0
 14 15  2  0
 15 16  1  0
 16 17  1  0
 16 18  2  0
 18 19  1  0
 19 20  2  0
 20 21  1  0
 21 22  1  0
 22 23  1  0
 23 24  2  0
 24 25  1  0
 25 26  2  0
 26 27  1  0
  5 28  1  0
 28 29  1  0
 29  2  1  0
 13  8  1  0
 20 14  1  0
 27 23  1  0
  1 30  1  0
  1 31  1  0
  1 32  1  0
  3 33  1  0
  3 34  1  0
  4 35  1  0
  4 36  1  0
  9 37  1  0
 10 38  1  0
 11 39  1  0
 12 40  1  0
 15 41  1  0
 18 42  1  0
 19 43  1  0
 22 44  1  0
 22 45  1  0
 25 46  1  0
 26 47  1  0
 28 48  1  0
 28 49  1  0
 29 50  1  0
 29 51  1  0
M  END
>  <smiles>  (26) 
CN1CCN(C(=O)c2ccccc2-c2cc(Cl)ccc2OCc2ncco2)CC1

>  <score_type>  (26) 
oracle

>  <origin>  (26) 
adg

>  <m_score__min__energy>  (26) 
-8.7899999999999991

>  <m_primary>  (26) 
energy

$$$$
27:0
     RDKit          3D

 50 52  0  0  0  0  0  0  0  0999 V2000
   57.7280   32.0120   42.1070 C   0  0  0  0  0  0  0  0  0  0  0  0
   58.5170   31.7940   43.2470 O   0  0  0  0  0  0  0  0  0  0  0  0
   58.1770   32.4320   44.4360 C   0  0  0  0  0  0  0  0  0  0  0  0
   57.4030   33.5260   44.3890 N   0  0  0  0  0  0  0  0  0  0  0  0
   57.0520   34.1690   45.5150 C   0  0  0  0  0  0  0  0  0  0  0  0
   57.4760   33.7270   46.7440 C   0  0  0  0  0  0  0  0  0  0  0  0
   58.2720   32.6080   46.8290 C   0  0  0  0  0  0  0  0  0  0  0  0
   58.6270   31.9510   45.6750 C   0  0  0  0  0  0  0  0  0  0  0  0
   59.4760   30.7430   45.6240 C   0  0  0  0  0  0  0  0  0  0  0  0
   58.7030   29.5630   45.7810 N   0  0  0  0  0  0  0  0  0  0  0  0
   57.4950   29.5010   45.0050 C   0  0  0  0  0  0  0  0  0  0  0  0
   56.6730   28.3590   45.6150 C   0  0  0  0  0  0  0  0  0  0  0  0
   57.4260   27.1530   45.2250 N   0  0  0  0  0  0  0  0  0  0  0  0
   56.7510   25.8860   45.3030 C   0  0  0  0  0  0  0  0  0  0  0  0
   55.5800   25.7910   45.7410 O   0  0  0  0  0  0  0  0  0  0  0  0
   57.4300   24.6920   44.8670 N   0  0  0  0  0  0  0  0  0  0  0  0
   56.7810   23.3760   44.9420 C   0  0  0  0  0  0  0  0  0  0  0  0
   55.6260   23.4240   43.9770 C   0  0  0  0  0  0  0  0  0  0  0  0
   55.9120   22.6550   42.7310 C   0  0  0  0  0  0  0  0  0  0  0  0
   56.2420   21.3500   43.1380 O   0  0  0  0  0  0  0  0  0  0  0  0
   57.5560   21.4030   43.5810 C   0  0  0  0  0  0  0  0  0  0  0  0
   57.7770   22.3150   44.7510 C   0  0  0  0  0  0  0  0  0  0  0  0
   58.8020   27.2910   44.8100 C   0  0  0  0  0  0  0  0  0  0  0  0
   59.4300   28.3380   45.7420 C   0  0  0  0  0  0  0  0  0  0  0  0
   56.7099   32.2933   42.4140 H   0  0  0  0  0  0  0  0  0  0  0  0
   58.1671   32.8225   41.5067 H   0  0  0  0  0  0  0  0  0  0  0  0
   57.6887   31.0911   41.5067 H   0  0  0  0  0  0  0  0  0  0  0  0
   56.4150   35.0635   45.4515 H   0  0  0  0  0  0  0  0  0  0  0  0
   57.1805   34.2653   47.6567 H   0  0  0  0  0  0  0  0  0  0  0  0
   58.6196   32.2441   47.8071 H   0  0  0  0  0  0  0  0  0  0  0  0
   59.9909   30.7076   44.6526 H   0  0  0  0  0  0  0  0  0  0  0  0
   60.2030   30.7943   46.4479 H   0  0  0  0  0  0  0  0  0  0  0  0
   56.9443   30.4507   45.0748 H   0  0  0  0  0  0  0  0  0  0  0  0
   57.7038   29.3287   43.9388 H   0  0  0  0  0  0  0  0  0  0  0  0
   56.6194   28.4532   46.7096 H   0  0  0  0  0  0  0  0  0  0  0  0
   55.6296   28.3462   45.2670 H   0  0  0  0  0  0  0  0  0  0  0  0
   58.3880   24.6930   44.4870 H   0  0  0  0  0  0  0  0  0  0  0  0
   56.3576   23.1307   45.9272 H   0  0  0  0  0  0  0  0  0  0  0  0
   54.7375   22.9955   44.4637 H   0  0  0  0  0  0  0  0  0  0  0  0
   55.4567   24.4747   43.6988 H   0  0  0  0  0  0  0  0  0  0  0  0
   55.0241   22.6382   42.0818 H   0  0  0  0  0  0  0  0  0  0  0  0
   56.7313   23.1137   42.1580 H   0  0  0  0  0  0  0  0  0  0  0  0
   57.8622   20.3877   43.8731 H   0  0  0  0  0  0  0  0  0  0  0  0
   58.1524   21.8071   42.7498 H   0  0  0  0  0  0  0  0  0  0  0  0
   57.7880   21.6971   45.6610 H   0  0  0  0  0  0  0  0  0  0  0  0
   58.7247   22.8341   44.5451 H   0  0  0  0  0  0  0  0  0  0  0  0
   59.3277   26.3297   44.9079 H   0  0  0  0  0  0  0  0  0  0  0  0
   58.8730   27.5994   43.7565 H   0  0  0  0  0  0  0  0  0  0  0  0
   59.4687   27.9219   46.7595 H   0  0  0  0  0  0  0  0  0  0  0  0
   60.4324   28.5651   45.3500 H   0  0  0  0  0  0  0  0  0  0  0  0
  1  2  1  0
  2  3  1  0
  3  4  2  0
  4  5  1  0
  5  6  2  0
  6  7  1  0
  7  8  2  0
  8  9  1  0
  9 10  1  0
 10 11  1  0
 11 12  1  0
 12 13  1  0
 13 14  1  0
 14 15  2  0
 14 16  1  0
 16 17  1  0
 17 18  1  0
 18 19  1  0
 19 20  1  0
 20 21  1  0
 21 22  1  0
 13 23  1  0
 23 24  1  0
  8  3  1  0
 24 10  1  0
 22 17  1  0
  1 25  1  0
  1 26  1  0
  1 27  1  0
  5 28  1  0
  6 29  1  0
  7 30  1  0
  9 31  1  0
  9 32  1  0
 11 33  1  0
 11 34  1  0
 12 35  1  0
 12 36  1  0
 16 37  1  0
 17 38  1  0
 18 39  1  0
 18 40  1  0
 19 41  1  0
 19 42  1  0
 21 43  1  0
 21 44  1  0
 22 45  1  0
 22 46  1  0
 23 47  1  0
 23 48  1  0
 24 49  1  0
 24 50  1  0
M  END
>  <smiles>  (27) 
COc1ncccc1CN1CCN(C(=O)NC2CCOCC2)CC1

>  <score_type>  (27) 
oracle

>  <origin>  (27) 
adg

>  <m_score__min__energy>  (27) 
-7.1200000000000001

>  <m_primary>  (27) 
energy

$$$$
28:0
     RDKit          3D

 25 25  0  0  0  0  0  0  0  0999 V2000
   55.6820   30.0910   44.9790 N   0  0  0  0  0  0  0  0  0  0  0  0
   56.4590   29.3610   43.9680 C   0  0  0  0  0  0  0  0  0  0  0  0
   56.2660   30.0710   42.6540 C   0  0  0  0  0  0  0  0  0  0  0  0
   57.0350   31.3760   42.6230 C   0  0  0  0  0  0  0  0  0  0  0  0
   58.2050   31.3330   43.4140 N   0  0  0  0  0  0  0  0  0  0  0  0
   58.3720   32.2410   44.5250 C   0  0  0  0  0  0  0  0  0  0  0  0
   58.7320   33.4840   44.1580 C   0  0  0  0  0  0  0  0  0  0  0  0
   58.9290   34.4990   45.1820 C   0  0  0  0  0  0  0  0  0  0  0  0
   59.2630   35.6380   44.8020 O   0  0  0  0  0  0  0  0  0  0  0  0
   58.7340   34.1470   46.5800 C   0  0  0  0  0  0  0  0  0  0  0  0
   58.3800   32.9220   46.9160 C   0  0  0  0  0  0  0  0  0  0  0  0
   58.1560   32.5490   48.6370 Cl  0  0  0  0  0  0  0  0  0  0  0  0
   58.1720   31.8670   45.8970 C   0  0  0  0  0  0  0  0  0  0  0  0
   57.8360   30.7010   46.2310 O   0  0  0  0  0  0  0  0  0  0  0  0
   55.8920   29.7130   45.9350 H   0  0  0  0  0  0  0  0  0  0  0  0
   56.0970   31.0710   44.9810 H   0  0  0  0  0  0  0  0  0  0  0  0
   57.5244   29.3591   44.2416 H   0  0  0  0  0  0  0  0  0  0  0  0
   56.1222   28.3161   43.8985 H   0  0  0  0  0  0  0  0  0  0  0  0
   56.6234   29.4236   41.8396 H   0  0  0  0  0  0  0  0  0  0  0  0
   55.1957   30.2923   42.5295 H   0  0  0  0  0  0  0  0  0  0  0  0
   57.3200   31.5930   41.5830 H   0  0  0  0  0  0  0  0  0  0  0  0
   56.3815   32.1591   43.0348 H   0  0  0  0  0  0  0  0  0  0  0  0
   58.9530   30.6370   43.1980 H   0  0  0  0  0  0  0  0  0  0  0  0
   58.8759   33.7305   43.0957 H   0  0  0  0  0  0  0  0  0  0  0  0
   58.8827   34.9070   47.3612 H   0  0  0  0  0  0  0  0  0  0  0  0
  1  2  1  0
  2  3  1  0
  3  4  1  0
  4  5  1  0
  5  6  1  0
  6  7  2  0
  7  8  1  0
  8  9  2  0
  8 10  1  0
 10 11  2  0
 11 12  1  0
 11 13  1  0
 13 14  2  0
 13  6  1  0
  1 15  1  0
  1 16  1  0
  2 17  1  0
  2 18  1  0
  3 19  1  0
  3 20  1  0
  4 21  1  0
  4 22  1  0
  5 23  1  0
  7 24  1  0
 10 25  1  0
M  END
>  <smiles>  (28) 
NCCCNC1=CC(=O)C=C(Cl)C1=O

>  <score_type>  (28) 
oracle

>  <origin>  (28) 
adg

>  <m_score__min__energy>  (28) 
-6.4400000000000004

>  <m_primary>  (28) 
energy

$$$$
29:0
     RDKit          3D

 39 41  0  0  0  0  0  0  0  0999 V2000
   58.9050   33.9890   47.8450 C   0  0  0  0  0  0  0  0  0  0  0  0
   58.7730   32.5570   48.3080 C   0  0  0  0  0  0  0  0  0  0  0  0
   59.7110   31.6620   47.6360 N   0  0  0  0  0  0  0  0  0  0  0  0
   61.0650   31.7790   47.6950 C   0  0  0  0  0  0  0  0  0  0  0  0
   61.6610   30.7840   46.9570 C   0  0  0  0  0  0  0  0  0  0  0  0
   60.6170   30.0350   46.4310 C   0  0  0  0  0  0  0  0  0  0  0  0
   60.6540   28.9120   45.6110 C   0  0  0  0  0  0  0  0  0  0  0  0
   59.4400   28.3710   45.2400 C   0  0  0  0  0  0  0  0  0  0  0  0
   58.2400   28.8990   45.6510 C   0  0  0  0  0  0  0  0  0  0  0  0
   56.9960   28.2290   45.1870 C   0  0  0  0  0  0  0  0  0  0  0  0
   55.8370   29.0890   45.2150 N   0  0  0  0  0  0  0  0  0  0  0  0
   55.7650   29.7050   43.8830 C   0  0  0  0  0  0  0  0  0  0  0  0
   56.6180   30.9180   43.8170 C   0  0  0  0  0  0  0  0  0  0  0  0
   57.3470   31.1870   42.6820 C   0  0  0  0  0  0  0  0  0  0  0  0
   58.1200   32.3240   42.6760 C   0  0  0  0  0  0  0  0  0  0  0  0
   58.1610   33.1760   43.7810 C   0  0  0  0  0  0  0  0  0  0  0  0
   57.3950   32.8150   44.8650 C   0  0  0  0  0  0  0  0  0  0  0  0
   56.6290   31.7120   44.9050 N   0  0  0  0  0  0  0  0  0  0  0  0
   58.2270   30.0190   46.4670 C   0  0  0  0  0  0  0  0  0  0  0  0
   59.4320   30.5950   46.8640 C   0  0  0  0  0  0  0  0  0  0  0  0
   58.9662   34.6530   48.7198 H   0  0  0  0  0  0  0  0  0  0  0  0
   59.8168   34.0959   47.2390 H   0  0  0  0  0  0  0  0  0  0  0  0
   58.0281   34.2607   47.2390 H   0  0  0  0  0  0  0  0  0  0  0  0
   58.9625   32.5177   49.3908 H   0  0  0  0  0  0  0  0  0  0  0  0
   57.7553   32.2193   48.0623 H   0  0  0  0  0  0  0  0  0  0  0  0
   61.6053   32.5579   48.2530 H   0  0  0  0  0  0  0  0  0  0  0  0
   62.7386   30.6165   46.8134 H   0  0  0  0  0  0  0  0  0  0  0  0
   61.6060   28.4758   45.2742 H   0  0  0  0  0  0  0  0  0  0  0  0
   59.4327   27.4833   44.5905 H   0  0  0  0  0  0  0  0  0  0  0  0
   57.1499   27.8849   44.1536 H   0  0  0  0  0  0  0  0  0  0  0  0
   56.7989   27.3959   45.8777 H   0  0  0  0  0  0  0  0  0  0  0  0
   56.0270   29.8810   45.8690 H   0  0  0  0  0  0  0  0  0  0  0  0
   56.1101   28.9800   43.1311 H   0  0  0  0  0  0  0  0  0  0  0  0
   54.7228   29.9954   43.6844 H   0  0  0  0  0  0  0  0  0  0  0  0
   57.3128   30.5166   41.8106 H   0  0  0  0  0  0  0  0  0  0  0  0
   58.7169   32.5666   41.7844 H   0  0  0  0  0  0  0  0  0  0  0  0
   58.7743   34.0891   43.7847 H   0  0  0  0  0  0  0  0  0  0  0  0
   57.4105   33.4673   45.7506 H   0  0  0  0  0  0  0  0  0  0  0  0
   57.2713   30.4506   46.7992 H   0  0  0  0  0  0  0  0  0  0  0  0
  1  2  1  0
  2  3  1  0
  3  4  1  0
  4  5  2  0
  5  6  1  0
  6  7  2  0
  7  8  1  0
  8  9  2  0
  9 10  1  0
 10 11  1  0
 11 12  1  0
 12 13  1  0
 13 14  2  0
 14 15  1  0
 15 16  2  0
 16 17  1  0
 17 18  2  0
  9 19  1  0
 19 20  2  0
 20  3  1  0
 20  6  1  0
 18 13  1  0
  1 21  1  0
  1 22  1  0
  1 23  1  0
  2 24  1  0
  2 25  1  0
  4 26  1  0
  5 27  1  0
  7 28  1  0
  8 29  1  0
 10 30  1  0
 10 31  1  0
 11 32  1  0
 12 33  1  0
 12 34  1  0
 14 35  1  0
 15 36  1  0
 16 37  1  0
 17 38  1  0
 19 39  1  0
M  END
>  <smiles>  (29) 
CCn1ccc2ccc(CNCc3ccccn3)cc21

>  <score_type>  (29) 
oracle

>  <origin>  (29) 
adg

>  <m_score__min__energy>  (29) 
-7.8799999999999999

>  <m_primary>  (29) 
energy

$$$$
30:0
     RDKit          3D

 48 50  0  0  1  0  0  0  0  0999 V2000
   56.2880   24.1700   47.8980 C   0  0  0  0  0  0  0  0  0  0  0  0
   56.1110   25.2730   47.0340 O   0  0  0  0  0  0  0  0  0  0  0  0
   56.5280   25.1460   45.7180 C   0  0  0  0  0  0  0  0  0  0  0  0
   56.0720   24.1010   44.9400 C   0  0  0  0  0  0  0  0  0  0  0  0
   56.4470   23.9180   43.6260 C   0  0  0  0  0  0  0  0  0  0  0  0
   57.3220   24.8430   43.0990 C   0  0  0  0  0  0  0  0  0  0  0  0
   57.7810   25.8950   43.8820 C   0  0  0  0  0  0  0  0  0  0  0  0
   57.4150   26.0870   45.1880 C   0  0  0  0  0  0  0  0  0  0  0  0
   57.8460   27.1280   46.0230 N   0  0  0  0  0  0  0  0  0  0  0  0
   58.6160   28.2480   45.6450 C   0  0  0  0  0  0  0  0  0  0  0  0
   59.0090   28.4400   44.4910 O   0  0  0  0  0  0  0  0  0  0  0  0
   58.9770   29.2300   46.6270 N   0  0  0  0  0  0  0  0  0  0  0  0
   59.7690   30.3980   46.2730 C   0  0  2  0  0  0  0  0  0  0  0  0
   60.6740   30.6990   47.3890 C   0  0  0  0  0  0  0  0  0  0  0  0
   60.4600   30.1630   48.5010 O   0  0  0  0  0  0  0  0  0  0  0  0
   61.7650   31.5950   47.1590 N   0  0  0  0  0  0  0  0  0  0  0  0
   62.6740   31.9200   48.2140 C   0  0  0  0  0  0  0  0  0  0  0  0
   62.6690   31.3280   49.4380 C   0  0  0  0  0  0  0  0  0  0  0  0
   63.5860   31.7020   50.4060 C   0  0  0  0  0  0  0  0  0  0  0  0
   64.4970   32.6980   50.0590 C   0  0  0  0  0  0  0  0  0  0  0  0
   64.4940   33.2720   48.8560 N   0  0  0  0  0  0  0  0  0  0  0  0
   63.6080   32.9060   47.9320 C   0  0  0  0  0  0  0  0  0  0  0  0
   58.9230   31.5700   45.9310 C   0  0  0  0  0  0  0  0  0  0  0  0
   58.2270   31.6630   44.7310 C   0  0  0  0  0  0  0  0  0  0  0  0
   57.4400   32.7710   44.4330 C   0  0  0  0  0  0  0  0  0  0  0  0
   57.3680   33.7850   45.3670 C   0  0  0  0  0  0  0  0  0  0  0  0
   58.0620   33.6850   46.5520 C   0  0  0  0  0  0  0  0  0  0  0  0
   58.8380   32.5960   46.8520 C   0  0  0  0  0  0  0  0  0  0  0  0
   56.2334   24.5101   48.9427 H   0  0  0  0  0  0  0  0  0  0  0  0
   55.4974   23.4281   47.7121 H   0  0  0  0  0  0  0  0  0  0  0  0
   57.2710   23.7127   47.7121 H   0  0  0  0  0  0  0  0  0  0  0  0
   55.3752   23.3788   45.3905 H   0  0  0  0  0  0  0  0  0  0  0  0
   56.0670   23.0762   43.0285 H   0  0  0  0  0  0  0  0  0  0  0  0
   57.6579   24.7483   42.0558 H   0  0  0  0  0  0  0  0  0  0  0  0
   58.4778   26.6145   43.4274 H   0  0  0  0  0  0  0  0  0  0  0  0
   57.5790   27.0940   47.0530 H   0  0  0  0  0  0  0  0  0  0  0  0
   58.6880   29.1480   47.6270 H   0  0  0  0  0  0  0  0  0  0  0  0
   60.3516   30.1740   45.3673 H   0  0  0  0  0  0  0  0  0  0  0  0
   61.9310   32.0350   46.2270 H   0  0  0  0  0  0  0  0  0  0  0  0
   61.9297   30.5447   49.6614 H   0  0  0  0  0  0  0  0  0  0  0  0
   63.5949   31.2349   51.4019 H   0  0  0  0  0  0  0  0  0  0  0  0
   65.2420   33.0206   50.8013 H   0  0  0  0  0  0  0  0  0  0  0  0
   63.6167   33.3867   46.9426 H   0  0  0  0  0  0  0  0  0  0  0  0
   58.3001   30.8429   44.0015 H   0  0  0  0  0  0  0  0  0  0  0  0
   56.8916   32.8370   43.4817 H   0  0  0  0  0  0  0  0  0  0  0  0
   56.7546   34.6752   45.1640 H   0  0  0  0  0  0  0  0  0  0  0  0
   57.9913   34.5055   47.2812 H   0  0  0  0  0  0  0  0  0  0  0  0
   59.3819   32.5401   47.8065 H   0  0  0  0  0  0  0  0  0  0  0  0
  1  2  1  0
  2  3  1  0
  3  4  2  0
  4  5  1  0
  5  6  2  0
  6  7  1  0
  7  8  2  0
  8  9  1  0
  9 10  1  0
 10 11  2  0
 10 12  1  0
 12 13  1  0
 13 14  1  0
 14 15  2  0
 14 16  1  0
 16 17  1  0
 17 18  2  0
 18 19  1  0
 19 20  2  0
 20 21  1  0
 21 22  2  0
 13 23  1  0
 23 24  2  0
 24 25  1  0
 25 26  2  0
 26 27  1  0
 27 28  2  0
  8  3  1  0
 22 17  1  0
 28 23  1  0
  1 29  1  0
  1 30  1  0
  1 31  1  0
  4 32  1  0
  5 33  1  0
  6 34  1  0
  7 35  1  0
  9 36  1  0
 12 37  1  0
 13 38  1  6
 16 39  1  0
 18 40  1  0
 19 41  1  0
 20 42  1  0
 22 43  1  0
 24 44  1  0
 25 45  1  0
 26 46  1  0
 27 47  1  0
 28 48  1  0
M  END
>  <smiles>  (30) 
COc1ccccc1NC(=O)NC(C(=O)Nc1cccnc1)c1ccccc1

>  <score_type>  (30) 
oracle

>  <origin>  (30) 
adg

>  <m_score__min__energy>  (30) 
-7.4699999999999998

>  <m_primary>  (30) 
energy

$$$$
31:0
     RDKit          3D

 39 41  0  0  1  0  0  0  0  0999 V2000
   56.9930   28.3840   45.2530 C   0  0  0  0  0  0  0  0  0  0  0  0
   57.1630   29.7620   44.6820 C   0  0  0  0  0  0  0  0  0  0  0  0
   57.0900   30.0060   43.3260 C   0  0  0  0  0  0  0  0  0  0  0  0
   57.2950   31.3790   43.1810 C   0  0  0  0  0  0  0  0  0  0  0  0
   57.4810   31.8870   44.4720 C   0  0  0  0  0  0  0  0  0  0  0  0
   57.7300   33.3270   44.7480 C   0  0  0  0  0  0  0  0  0  0  0  0
   59.1220   33.6060   45.0680 N   0  0  0  0  0  0  0  0  0  0  0  0
   59.1460   34.9620   45.6030 C   0  0  0  0  0  0  0  0  0  0  0  0
   58.8940   34.9630   47.0920 C   0  0  0  0  0  0  0  0  0  0  0  0
   59.9980   34.3030   47.8640 C   0  0  0  0  0  0  0  0  0  0  0  0
   60.6270   33.2430   46.9950 C   0  0  2  0  0  0  0  0  0  0  0  0
   61.0170   32.0910   47.9280 C   0  0  0  0  0  0  0  0  0  0  0  0
   62.3170   32.6830   48.4880 C   0  0  0  0  0  0  0  0  0  0  0  0
   62.9900   33.0130   47.1780 C   0  0  0  0  0  0  0  0  0  0  0  0
   64.1360   32.7610   46.8840 O   0  0  0  0  0  0  0  0  0  0  0  0
   61.9240   33.7010   46.3730 C   0  0  0  0  0  0  0  0  0  0  0  0
   59.6530   32.6660   46.0130 C   0  0  0  0  0  0  0  0  0  0  0  0
   57.3920   30.8850   45.3110 O   0  0  0  0  0  0  0  0  0  0  0  0
   56.9998   28.4389   46.3516 H   0  0  0  0  0  0  0  0  0  0  0  0
   56.0359   27.9617   44.9129 H   0  0  0  0  0  0  0  0  0  0  0  0
   57.8187   27.7417   44.9129 H   0  0  0  0  0  0  0  0  0  0  0  0
   56.9083   29.2723   42.5268 H   0  0  0  0  0  0  0  0  0  0  0  0
   57.3078   31.9483   42.2399 H   0  0  0  0  0  0  0  0  0  0  0  0
   57.4503   33.9093   43.8577 H   0  0  0  0  0  0  0  0  0  0  0  0
   57.1258   33.6063   45.6237 H   0  0  0  0  0  0  0  0  0  0  0  0
   60.1314   35.4090   45.4050 H   0  0  0  0  0  0  0  0  0  0  0  0
   58.3519   35.5450   45.1136 H   0  0  0  0  0  0  0  0  0  0  0  0
   58.7997   36.0046   47.4327 H   0  0  0  0  0  0  0  0  0  0  0  0
   57.9719   34.3916   47.2744 H   0  0  0  0  0  0  0  0  0  0  0  0
   60.7548   35.0515   48.1415 H   0  0  0  0  0  0  0  0  0  0  0  0
   59.5948   33.8468   48.7801 H   0  0  0  0  0  0  0  0  0  0  0  0
   60.2662   31.9217   48.7139 H   0  0  0  0  0  0  0  0  0  0  0  0
   61.1071   31.1022   47.4546 H   0  0  0  0  0  0  0  0  0  0  0  0
   62.1355   33.5796   49.0989 H   0  0  0  0  0  0  0  0  0  0  0  0
   62.8858   32.0323   49.1685 H   0  0  0  0  0  0  0  0  0  0  0  0
   62.0259   34.7938   46.4461 H   0  0  0  0  0  0  0  0  0  0  0  0
   61.9843   33.4559   45.3024 H   0  0  0  0  0  0  0  0  0  0  0  0
   60.1638   31.8691   45.4526 H   0  0  0  0  0  0  0  0  0  0  0  0
   58.7979   32.3032   46.6022 H   0  0  0  0  0  0  0  0  0  0  0  0
  1  2  1  0
  2  3  2  0
  3  4  1  0
  4  5  2  0
  5  6  1  0
  6  7  1  0
  7  8  1  0
  8  9  1  0
  9 10  1  0
 11 10  1  1
 11 12  1  0
 12 13  1  0
 13 14  1  0
 14 15  2  0
 14 16  1  0
 11 17  1  0
  5 18  1  0
 18  2  1  0
 17  7  1  0
 16 11  1  0
  1 19  1  0
  1 20  1  0
  1 21  1  0
  3 22  1  0
  4 23  1  0
  6 24  1  0
  6 25  1  0
  8 26  1  0
  8 27  1  0
  9 28  1  0
  9 29  1  0
 10 30  1  0
 10 31  1  0
 12 32  1  0
 12 33  1  0
 13 34  1  0
 13 35  1  0
 16 36  1  0
 16 37  1  0
 17 38  1  0
 17 39  1  0
M  END
>  <smiles>  (31) 
Cc1ccc(CN2CCCC3(CCC(=O)C3)C2)o1

>  <score_type>  (31) 
oracle

>  <origin>  (31) 
adg

>  <m_score__min__energy>  (31) 
-7.5099999999999998

>  <m_primary>  (31) 
energy

$$$$
32:0
     RDKit          3D

 33 34  0  0  0  0  0  0  0  0999 V2000
   59.9480   34.2550   48.5940 C   0  0  0  0  0  0  0  0  0  0  0  0
   58.8560   33.4280   48.2520 O   0  0  0  0  0  0  0  0  0  0  0  0
   58.5600   33.1950   46.9340 C   0  0  0  0  0  0  0  0  0  0  0  0
   58.7200   34.2200   46.0150 C   0  0  0  0  0  0  0  0  0  0  0  0
   58.4360   34.0390   44.6620 C   0  0  0  0  0  0  0  0  0  0  0  0
   57.9820   32.8140   44.2100 C   0  0  0  0  0  0  0  0  0  0  0  0
   57.7120   32.6530   42.9200 N   0  0  0  0  0  0  0  0  0  0  0  0
   57.2690   31.4780   42.4630 C   0  0  0  0  0  0  0  0  0  0  0  0
   57.1000   30.4350   43.3680 C   0  0  0  0  0  0  0  0  0  0  0  0
   57.3690   30.5620   44.7150 C   0  0  0  0  0  0  0  0  0  0  0  0
   57.1520   29.4130   45.5910 C   0  0  0  0  0  0  0  0  0  0  0  0
   57.0790   28.1420   44.9380 N   0  0  0  0  0  0  0  0  0  0  0  0
   57.5340   27.1190   45.8370 C   0  0  0  0  0  0  0  0  0  0  0  0
   56.3920   26.2670   46.3560 C   0  0  0  0  0  0  0  0  0  0  0  0
   55.1430   26.7250   46.0040 O   0  0  0  0  0  0  0  0  0  0  0  0
   57.8240   31.7900   45.1440 C   0  0  0  0  0  0  0  0  0  0  0  0
   58.1060   31.9830   46.4630 C   0  0  0  0  0  0  0  0  0  0  0  0
   60.0313   34.3181   49.6890 H   0  0  0  0  0  0  0  0  0  0  0  0
   60.8740   33.8296   48.1797 H   0  0  0  0  0  0  0  0  0  0  0  0
   59.7895   35.2616   48.1797 H   0  0  0  0  0  0  0  0  0  0  0  0
   59.0798   35.2001   46.3614 H   0  0  0  0  0  0  0  0  0  0  0  0
   58.5731   34.8703   43.9548 H   0  0  0  0  0  0  0  0  0  0  0  0
   57.0431   31.3386   41.3955 H   0  0  0  0  0  0  0  0  0  0  0  0
   56.7361   29.4670   42.9932 H   0  0  0  0  0  0  0  0  0  0  0  0
   57.9820   29.3757   46.3120 H   0  0  0  0  0  0  0  0  0  0  0  0
   56.1667   29.5700   46.0542 H   0  0  0  0  0  0  0  0  0  0  0  0
   56.1310   27.8850   44.5990 H   0  0  0  0  0  0  0  0  0  0  0  0
   58.2469   26.4713   45.3057 H   0  0  0  0  0  0  0  0  0  0  0  0
   58.0082   27.6115   46.6987 H   0  0  0  0  0  0  0  0  0  0  0  0
   56.5116   25.2490   45.9567 H   0  0  0  0  0  0  0  0  0  0  0  0
   56.4443   26.3021   47.4542 H   0  0  0  0  0  0  0  0  0  0  0  0
   55.1460   27.5770   45.5200 H   0  0  0  0  0  0  0  0  0  0  0  0
   57.9677   31.1507   47.1688 H   0  0  0  0  0  0  0  0  0  0  0  0
  1  2  1  0
  2  3  1  0
  3  4  2  0
  4  5  1  0
  5  6  2  0
  6  7  1  0
  7  8  2  0
  8  9  1  0
  9 10  2  0
 10 11  1  0
 11 12  1  0
 12 13  1  0
 13 14  1  0
 14 15  1  0
 10 16  1  0
 16 17  2  0
 17  3  1  0
 16  6  1  0
  1 18  1  0
  1 19  1  0
  1 20  1  0
  4 21  1  0
  5 22  1  0
  8 23  1  0
  9 24  1  0
 11 25  1  0
 11 26  1  0
 12 27  1  0
 13 28  1  0
 13 29  1  0
 14 30  1  0
 14 31  1  0
 15 32  1  0
 17 33  1  0
M  END
>  <smiles>  (32) 
COc1ccc2nccc(CNCCO)c2c1

>  <score_type>  (32) 
oracle

>  <origin>  (32) 
adg

>  <m_score__min__energy>  (32) 
-6.96

>  <m_primary>  (32) 
energy

$$$$
33:0
     RDKit          3D

 67 70  0  0  0  0  0  0  0  0999 V2000
   63.5380   33.7980   46.9320 C   0  0  0  0  0  0  0  0  0  0  0  0
   62.5200   32.8240   46.7490 O   0  0  0  0  0  0  0  0  0  0  0  0
   62.1580   31.9820   47.7770 C   0  0  0  0  0  0  0  0  0  0  0  0
   62.5740   32.2710   49.0780 C   0  0  0  0  0  0  0  0  0  0  0  0
   62.1890   31.4020   50.0740 C   0  0  0  0  0  0  0  0  0  0  0  0
   61.4290   30.3070   49.7810 C   0  0  0  0  0  0  0  0  0  0  0  0
   60.9970   29.9900   48.4980 C   0  0  0  0  0  0  0  0  0  0  0  0
   60.2100   28.8330   48.2650 N   0  0  0  0  0  0  0  0  0  0  0  0
   60.7020   27.4770   48.3450 C   0  0  0  0  0  0  0  0  0  0  0  0
   60.4570   26.8720   46.9700 C   0  0  0  0  0  0  0  0  0  0  0  0
   59.1360   27.0970   46.4800 N   0  0  0  0  0  0  0  0  0  0  0  0
   58.6150   25.9650   45.7920 C   0  0  0  0  0  0  0  0  0  0  0  0
   57.7640   26.2830   44.5870 C   0  0  0  0  0  0  0  0  0  0  0  0
   58.3740   27.4130   43.7940 C   0  0  0  0  0  0  0  0  0  0  0  0
   57.9610   28.7110   44.2740 N   0  0  0  0  0  0  0  0  0  0  0  0
   57.0220   29.3600   43.3920 C   0  0  0  0  0  0  0  0  0  0  0  0
   56.4210   30.5350   44.1360 C   0  0  0  0  0  0  0  0  0  0  0  0
   57.5280   31.5100   44.4820 C   0  0  0  0  0  0  0  0  0  0  0  0
   56.9960   32.6940   45.2360 C   0  0  0  0  0  0  0  0  0  0  0  0
   58.0700   33.3490   46.0340 C   0  0  0  0  0  0  0  0  0  0  0  0
   58.1770   33.0740   47.3840 C   0  0  0  0  0  0  0  0  0  0  0  0
   59.1890   33.7030   48.0890 C   0  0  0  0  0  0  0  0  0  0  0  0
   60.0690   34.5770   47.4840 C   0  0  0  0  0  0  0  0  0  0  0  0
   59.9690   34.8620   46.1220 C   0  0  0  0  0  0  0  0  0  0  0  0
   58.9460   34.2190   45.4360 C   0  0  0  0  0  0  0  0  0  0  0  0
   58.5420   30.7720   45.3030 C   0  0  0  0  0  0  0  0  0  0  0  0
   59.0800   29.6080   44.4650 C   0  0  0  0  0  0  0  0  0  0  0  0
   58.2850   27.6360   47.4880 C   0  0  0  0  0  0  0  0  0  0  0  0
   58.8110   29.0110   47.9240 C   0  0  0  0  0  0  0  0  0  0  0  0
   61.3850   30.8630   47.5030 C   0  0  0  0  0  0  0  0  0  0  0  0
   63.7042   33.9570   48.0077 H   0  0  0  0  0  0  0  0  0  0  0  0
   64.4699   33.4466   46.4650 H   0  0  0  0  0  0  0  0  0  0  0  0
   63.2281   34.7445   46.4650 H   0  0  0  0  0  0  0  0  0  0  0  0
   63.1855   33.1584   49.2986 H   0  0  0  0  0  0  0  0  0  0  0  0
   62.4961   31.5916   51.1131 H   0  0  0  0  0  0  0  0  0  0  0  0
   61.1422   29.6380   50.6057 H   0  0  0  0  0  0  0  0  0  0  0  0
   61.7763   27.4714   48.5813 H   0  0  0  0  0  0  0  0  0  0  0  0
   60.1959   26.9060   49.1374 H   0  0  0  0  0  0  0  0  0  0  0  0
   61.1721   27.3153   46.2614 H   0  0  0  0  0  0  0  0  0  0  0  0
   60.5873   25.7839   47.0657 H   0  0  0  0  0  0  0  0  0  0  0  0
   59.4632   25.3498   45.4572 H   0  0  0  0  0  0  0  0  0  0  0  0
   57.9548   25.4504   46.5056 H   0  0  0  0  0  0  0  0  0  0  0  0
   57.6920   25.3901   43.9486 H   0  0  0  0  0  0  0  0  0  0  0  0
   56.7631   26.5865   44.9277 H   0  0  0  0  0  0  0  0  0  0  0  0
   59.4695   27.3427   43.8650 H   0  0  0  0  0  0  0  0  0  0  0  0
   58.0293   27.3159   42.7539 H   0  0  0  0  0  0  0  0  0  0  0  0
   57.5408   29.7149   42.4893 H   0  0  0  0  0  0  0  0  0  0  0  0
   56.2339   28.6562   43.0860 H   0  0  0  0  0  0  0  0  0  0  0  0
   55.6747   31.0332   43.4997 H   0  0  0  0  0  0  0  0  0  0  0  0
   55.9302   30.1842   45.0558 H   0  0  0  0  0  0  0  0  0  0  0  0
   57.9861   31.8992   43.5607 H   0  0  0  0  0  0  0  0  0  0  0  0
   56.5864   33.4214   44.5197 H   0  0  0  0  0  0  0  0  0  0  0  0
   56.2122   32.3458   45.9248 H   0  0  0  0  0  0  0  0  0  0  0  0
   57.4829   32.3801   47.8808 H   0  0  0  0  0  0  0  0  0  0  0  0
   59.2949   33.4997   49.1649 H   0  0  0  0  0  0  0  0  0  0  0  0
   60.8586   35.0546   48.0827 H   0  0  0  0  0  0  0  0  0  0  0  0
   60.6599   35.5555   45.6203 H   0  0  0  0  0  0  0  0  0  0  0  0
   58.8329   34.4174   44.3600 H   0  0  0  0  0  0  0  0  0  0  0  0
   59.3662   31.4485   45.5733 H   0  0  0  0  0  0  0  0  0  0  0  0
   58.0805   30.3938   46.2271 H   0  0  0  0  0  0  0  0  0  0  0  0
   59.4489   29.9725   43.4949 H   0  0  0  0  0  0  0  0  0  0  0  0
   59.9221   29.1052   44.9631 H   0  0  0  0  0  0  0  0  0  0  0  0
   57.2660   27.7438   47.0879 H   0  0  0  0  0  0  0  0  0  0  0  0
   58.2702   26.9586   48.3546 H   0  0  0  0  0  0  0  0  0  0  0  0
   58.7104   29.7338   47.1010 H   0  0  0  0  0  0  0  0  0  0  0  0
   58.2411   29.3992   48.7810 H   0  0  0  0  0  0  0  0  0  0  0  0
   61.0737   30.6671   46.4663 H   0  0  0  0  0  0  0  0  0  0  0  0
  1  2  1  0
  2  3  1  0
  3  4  2  0
  4  5  1  0
  5  6  2  0
  6  7  1  0
  7  8  1  0
  8  9  1  0
  9 10  1  0
 10 11  1  0
 11 12  1  0
 12 13  1  0
 13 14  1  0
 14 15  1  0
 15 16  1  0
 16 17  1  0
 17 18  1  0
 18 19  1  0
 19 20  1  0
 20 21  2  0
 21 22  1  0
 22 23  2  0
 23 24  1  0
 24 25  2  0
 18 26  1  0
 26 27  1  0
 11 28  1  0
 28 29  1  0
  7 30  2  0
 30  3  1  0
 29  8  1  0
 27 15  1  0
 25 20  1  0
  1 31  1  0
  1 32  1  0
  1 33  1  0
  4 34  1  0
  5 35  1  0
  6 36  1  0
  9 37  1  0
  9 38  1  0
 10 39  1  0
 10 40  1  0
 12 41  1  0
 12 42  1  0
 13 43  1  0
 13 44  1  0
 14 45  1  0
 14 46  1  0
 16 47  1  0
 16 48  1  0
 17 49  1  0
 17 50  1  0
 18 51  1  0
 19 52  1  0
 19 53  1  0
 21 54  1  0
 22 55  1  0
 23 56  1  0
 24 57  1  0
 25 58  1  0
 26 59  1  0
 26 60  1  0
 27 61  1  0
 27 62  1  0
 28 63  1  0
 28 64  1  0
 29 65  1  0
 29 66  1  0
 30 67  1  0
M  END
>  <smiles>  (33) 
COc1cccc(N2CCN(CCCN3CCC(Cc4ccccc4)CC3)CC2)c1

>  <score_type>  (33) 
oracle

>  <origin>  (33) 
adg

>  <m_score__min__energy>  (33) 
-9.8699999999999992

>  <m_primary>  (33) 
energy

$$$$
34:0
     RDKit          3D

 48 50  0  0  0  0  0  0  0  0999 V2000
   57.4030   22.1550   43.8100 C   0  0  0  0  0  0  0  0  0  0  0  0
   57.2990   23.5280   44.4010 C   0  0  0  0  0  0  0  0  0  0  0  0
   58.2170   23.6120   45.4550 O   0  0  0  0  0  0  0  0  0  0  0  0
   58.0780   24.8640   45.9990 C   0  0  0  0  0  0  0  0  0  0  0  0
   57.0500   25.6090   45.1550 C   0  0  0  0  0  0  0  0  0  0  0  0
   56.6450   26.7940   46.0070 C   0  0  0  0  0  0  0  0  0  0  0  0
   57.8220   27.6310   46.1230 N   0  0  0  0  0  0  0  0  0  0  0  0
   57.6830   28.9950   45.7500 C   0  0  0  0  0  0  0  0  0  0  0  0
   56.5310   29.3480   45.3480 O   0  0  0  0  0  0  0  0  0  0  0  0
   58.7460   29.9370   45.8090 N   0  0  0  0  0  0  0  0  0  0  0  0
   58.5480   31.2930   45.4210 C   0  0  0  0  0  0  0  0  0  0  0  0
   57.9860   31.4780   44.1530 C   0  0  0  0  0  0  0  0  0  0  0  0
   57.7530   32.7530   43.6840 C   0  0  0  0  0  0  0  0  0  0  0  0
   58.0880   33.8230   44.4940 C   0  0  0  0  0  0  0  0  0  0  0  0
   58.6420   33.6170   45.7440 C   0  0  0  0  0  0  0  0  0  0  0  0
   58.8800   32.3640   46.2250 C   0  0  0  0  0  0  0  0  0  0  0  0
   59.4720   32.0730   47.5580 C   0  0  0  0  0  0  0  0  0  0  0  0
   60.2940   33.2820   47.9520 C   0  0  0  0  0  0  0  0  0  0  0  0
   59.3520   34.4740   47.9610 C   0  0  0  0  0  0  0  0  0  0  0  0
   58.9720   34.8360   46.5470 C   0  0  0  0  0  0  0  0  0  0  0  0
   59.0310   27.0340   46.6010 C   0  0  0  0  0  0  0  0  0  0  0  0
   59.3290   25.6740   45.9980 C   0  0  0  0  0  0  0  0  0  0  0  0
   57.4593   21.4111   44.6184 H   0  0  0  0  0  0  0  0  0  0  0  0
   56.5174   21.9551   43.1889 H   0  0  0  0  0  0  0  0  0  0  0  0
   58.3086   22.0908   43.1889 H   0  0  0  0  0  0  0  0  0  0  0  0
   57.5365   24.2830   43.6371 H   0  0  0  0  0  0  0  0  0  0  0  0
   56.2778   23.7125   44.7658 H   0  0  0  0  0  0  0  0  0  0  0  0
   57.7834   24.7316   47.0505 H   0  0  0  0  0  0  0  0  0  0  0  0
   57.4958   25.9459   44.2075 H   0  0  0  0  0  0  0  0  0  0  0  0
   56.1921   24.9753   44.8859 H   0  0  0  0  0  0  0  0  0  0  0  0
   55.8283   27.3498   45.5232 H   0  0  0  0  0  0  0  0  0  0  0  0
   56.2838   26.4720   46.9948 H   0  0  0  0  0  0  0  0  0  0  0  0
   59.6780   29.6420   46.1360 H   0  0  0  0  0  0  0  0  0  0  0  0
   57.7305   30.6072   43.5314 H   0  0  0  0  0  0  0  0  0  0  0  0
   57.3114   32.9156   42.6897 H   0  0  0  0  0  0  0  0  0  0  0  0
   57.9117   34.8494   44.1397 H   0  0  0  0  0  0  0  0  0  0  0  0
   58.6745   31.9018   48.2961 H   0  0  0  0  0  0  0  0  0  0  0  0
   60.0975   31.1689   47.5203 H   0  0  0  0  0  0  0  0  0  0  0  0
   60.7271   33.1349   48.9524 H   0  0  0  0  0  0  0  0  0  0  0  0
   61.1226   33.4410   47.2462 H   0  0  0  0  0  0  0  0  0  0  0  0
   58.4452   34.2184   48.5287 H   0  0  0  0  0  0  0  0  0  0  0  0
   59.8554   35.3310   48.4324 H   0  0  0  0  0  0  0  0  0  0  0  0
   58.0941   35.4984   46.5702 H   0  0  0  0  0  0  0  0  0  0  0  0
   59.8280   35.3411   46.0758 H   0  0  0  0  0  0  0  0  0  0  0  0
   59.8670   27.7083   46.3634 H   0  0  0  0  0  0  0  0  0  0  0  0
   58.9039   26.8811   47.6829 H   0  0  0  0  0  0  0  0  0  0  0  0
   59.6884   25.7979   44.9658 H   0  0  0  0  0  0  0  0  0  0  0  0
   60.1046   25.1648   46.5890 H   0  0  0  0  0  0  0  0  0  0  0  0
  1  2  1  0
  2  3  1  0
  3  4  1  0
  4  5  1  0
  5  6  1  0
  6  7  1  0
  7  8  1  0
  8  9  2  0
  8 10  1  0
 10 11  1  0
 11 12  2  0
 12 13  1  0
 13 14  2  0
 14 15  1  0
 15 16  2  0
 16 17  1  0
 17 18  1  0
 18 19  1  0
 19 20  1  0
  7 21  1  0
 21 22  1  0
 22  4  1  0
 16 11  1  0
 20 15  1  0
  1 23  1  0
  1 24  1  0
  1 25  1  0
  2 26  1  0
  2 27  1  0
  4 28  1  0
  5 29  1  0
  5 30  1  0
  6 31  1  0
  6 32  1  0
 10 33  1  0
 12 34  1  0
 13 35  1  0
 14 36  1  0
 17 37  1  0
 17 38  1  0
 18 39  1  0
 18 40  1  0
 19 41  1  0
 19 42  1  0
 20 43  1  0
 20 44  1  0
 21 45  1  0
 21 46  1  0
 22 47  1  0
 22 48  1  0
M  END
>  <smiles>  (34) 
CCOC1CCN(C(=O)Nc2cccc3c2CCCC3)CC1

>  <score_type>  (34) 
oracle

>  <origin>  (34) 
adg

>  <m_score__min__energy>  (34) 
-7.6100000000000003

>  <m_primary>  (34) 
energy

$$$$
35:0
     RDKit          3D

 29 31  0  0  0  0  0  0  0  0999 V2000
   59.3080   22.2420   44.8580 C   0  0  0  0  0  0  0  0  0  0  0  0
   59.2030   23.2050   45.8640 O   0  0  0  0  0  0  0  0  0  0  0  0
   58.4190   24.3510   45.8100 C   0  0  0  0  0  0  0  0  0  0  0  0
   57.0870   24.2570   46.2130 C   0  0  0  0  0  0  0  0  0  0  0  0
   56.2600   25.3760   46.1790 C   0  0  0  0  0  0  0  0  0  0  0  0
   56.7310   26.5970   45.7480 C   0  0  0  0  0  0  0  0  0  0  0  0
   56.1630   27.8090   45.6180 N   0  0  0  0  0  0  0  0  0  0  0  0
   57.0520   28.7050   45.1460 C   0  0  0  0  0  0  0  0  0  0  0  0
   56.7380   30.0840   44.9010 C   0  0  0  0  0  0  0  0  0  0  0  0
   55.5970   30.3370   44.3920 O   0  0  0  0  0  0  0  0  0  0  0  0
   57.6010   31.1730   45.1850 C   0  0  0  0  0  0  0  0  0  0  0  0
   58.7240   31.2160   45.9850 C   0  0  0  0  0  0  0  0  0  0  0  0
   59.3920   32.3480   46.1130 C   0  0  0  0  0  0  0  0  0  0  0  0
   58.9250   33.4580   45.4300 C   0  0  0  0  0  0  0  0  0  0  0  0
   57.4520   32.8230   44.5640 S   0  0  0  0  0  0  0  0  0  0  0  0
   58.2230   28.0010   44.9820 C   0  0  0  0  0  0  0  0  0  0  0  0
   58.0470   26.6740   45.3540 C   0  0  0  0  0  0  0  0  0  0  0  0
   58.8910   25.5730   45.3790 C   0  0  0  0  0  0  0  0  0  0  0  0
   59.4165   21.2465   45.3132 H   0  0  0  0  0  0  0  0  0  0  0  0
   58.4022   22.2631   44.2342 H   0  0  0  0  0  0  0  0  0  0  0  0
   60.1879   22.4578   44.2342 H   0  0  0  0  0  0  0  0  0  0  0  0
   56.6876   23.2925   46.5598 H   0  0  0  0  0  0  0  0  0  0  0  0
   55.2124   25.2840   46.5017 H   0  0  0  0  0  0  0  0  0  0  0  0
   55.1450   27.9530   45.8730 H   0  0  0  0  0  0  0  0  0  0  0  0
   59.0613   30.3122   46.5135 H   0  0  0  0  0  0  0  0  0  0  0  0
   60.2918   32.4071   46.7429 H   0  0  0  0  0  0  0  0  0  0  0  0
   59.3416   34.4759   45.4138 H   0  0  0  0  0  0  0  0  0  0  0  0
   59.1654   28.4286   44.6090 H   0  0  0  0  0  0  0  0  0  0  0  0
   59.9372   25.6749   45.0549 H   0  0  0  0  0  0  0  0  0  0  0  0
  1  2  1  0
  2  3  1  0
  3  4  2  0
  4  5  1  0
  5  6  2  0
  6  7  1  0
  7  8  1  0
  8  9  1  0
  9 10  2  0
  9 11  1  0
 11 12  2  0
 12 13  1  0
 13 14  2  0
 14 15  1  0
  8 16  2  0
 16 17  1  0
 17 18  2  0
 18  3  1  0
 17  6  1  0
 15 11  1  0
  1 19  1  0
  1 20  1  0
  1 21  1  0
  4 22  1  0
  5 23  1  0
  7 24  1  0
 12 25  1  0
 13 26  1  0
 14 27  1  0
 16 28  1  0
 18 29  1  0
M  END
>  <smiles>  (35) 
COc1ccc2[nH]c(C(=O)c3cccs3)cc2c1

>  <score_type>  (35) 
oracle

>  <origin>  (35) 
adg

>  <m_score__min__energy>  (35) 
-6.6299999999999999

>  <m_primary>  (35) 
energy

$$$$
36:0
     RDKit          3D

 30 31  0  0  0  0  0  0  0  0999 V2000
   57.8000   27.4600   42.9430 C   0  0  0  0  0  0  0  0  0  0  0  0
   57.7360   28.3200   44.1230 N   0  0  0  0  0  0  0  0  0  0  0  0
   58.4740   28.0150   45.3020 C   0  0  0  0  0  0  0  0  0  0  0  0
   59.6910   28.6380   45.5380 C   0  0  0  0  0  0  0  0  0  0  0  0
   60.4080   28.3440   46.6780 C   0  0  0  0  0  0  0  0  0  0  0  0
   59.9760   27.4390   47.6260 C   0  0  0  0  0  0  0  0  0  0  0  0
   58.7620   26.8170   47.3920 C   0  0  0  0  0  0  0  0  0  0  0  0
   58.0450   27.1120   46.2520 C   0  0  0  0  0  0  0  0  0  0  0  0
   56.3820   26.2110   46.0020 Br  0  0  0  0  0  0  0  0  0  0  0  0
   56.7190   29.7160   43.9970 S   0  0  0  0  0  0  0  0  0  0  0  0
   55.4650   29.5160   44.8300 O   0  0  0  0  0  0  0  0  0  0  0  0
   56.2530   29.9400   42.5800 O   0  0  0  0  0  0  0  0  0  0  0  0
   57.4910   31.1690   44.5410 C   0  0  0  0  0  0  0  0  0  0  0  0
   57.8190   31.3380   45.8830 C   0  0  0  0  0  0  0  0  0  0  0  0
   58.4350   32.4850   46.3480 C   0  0  0  0  0  0  0  0  0  0  0  0
   58.7380   33.5030   45.4580 C   0  0  0  0  0  0  0  0  0  0  0  0
   59.5150   34.9680   45.9950 Cl  0  0  0  0  0  0  0  0  0  0  0  0
   58.4230   33.3610   44.1140 C   0  0  0  0  0  0  0  0  0  0  0  0
   57.8080   32.2070   43.6750 C   0  0  0  0  0  0  0  0  0  0  0  0
   57.8782   26.4092   43.2589 H   0  0  0  0  0  0  0  0  0  0  0  0
   56.8893   27.5951   42.3410 H   0  0  0  0  0  0  0  0  0  0  0  0
   58.6807   27.7284   42.3410 H   0  0  0  0  0  0  0  0  0  0  0  0
   60.0842   29.3674   44.8145 H   0  0  0  0  0  0  0  0  0  0  0  0
   61.3690   28.8544   46.8395 H   0  0  0  0  0  0  0  0  0  0  0  0
   60.5694   27.2219   48.5264 H   0  0  0  0  0  0  0  0  0  0  0  0
   58.3693   26.0874   48.1155 H   0  0  0  0  0  0  0  0  0  0  0  0
   57.5808   30.5344   46.5954 H   0  0  0  0  0  0  0  0  0  0  0  0
   58.6824   32.5886   47.4148 H   0  0  0  0  0  0  0  0  0  0  0  0
   58.6626   34.1647   43.4022 H   0  0  0  0  0  0  0  0  0  0  0  0
   57.5615   32.1061   42.6077 H   0  0  0  0  0  0  0  0  0  0  0  0
  1  2  1  0
  2  3  1  0
  3  4  2  0
  4  5  1  0
  5  6  2  0
  6  7  1  0
  7  8  2  0
  8  9  1  0
  2 10  1  0
 10 11  2  0
 10 12  2  0
 10 13  1  0
 13 14  2  0
 14 15  1  0
 15 16  2  0
 16 17  1  0
 16 18  1  0
 18 19  2  0
  8  3  1  0
 19 13  1  0
  1 20  1  0
  1 21  1  0
  1 22  1  0
  4 23  1  0
  5 24  1  0
  6 25  1  0
  7 26  1  0
 14 27  1  0
 15 28  1  0
 18 29  1  0
 19 30  1  0
M  END
>  <smiles>  (36) 
CN(c1ccccc1Br)S(=O)(=O)c1ccc(Cl)cc1

>  <score_type>  (36) 
oracle

>  <origin>  (36) 
adg

>  <m_score__min__energy>  (36) 
-8.1199999999999992

>  <m_primary>  (36) 
energy

$$$$
37:0
     RDKit          3D

 32 34  0  0  0  0  0  0  0  0999 V2000
   57.7210   32.3060   41.2030 C   0  0  0  0  0  0  0  0  0  0  0  0
   57.4630   31.7620   42.5420 C   0  0  0  0  0  0  0  0  0  0  0  0
   56.6490   30.6730   42.7940 C   0  0  0  0  0  0  0  0  0  0  0  0
   56.4590   30.2250   44.0900 C   0  0  0  0  0  0  0  0  0  0  0  0
   57.0740   30.8550   45.1180 N   0  0  0  0  0  0  0  0  0  0  0  0
   57.8650   31.9140   44.8710 C   0  0  0  0  0  0  0  0  0  0  0  0
   58.4980   32.5540   45.9930 N   0  0  0  0  0  0  0  0  0  0  0  0
   57.6970   33.1100   47.0370 C   0  0  0  0  0  0  0  0  0  0  0  0
   58.1620   32.7330   48.4280 C   0  0  0  0  0  0  0  0  0  0  0  0
   59.6360   32.9060   48.4830 C   0  0  0  0  0  0  0  0  0  0  0  0
   60.1940   33.1420   49.7280 C   0  0  0  0  0  0  0  0  0  0  0  0
   61.5540   33.3180   49.9040 C   0  0  0  0  0  0  0  0  0  0  0  0
   62.3430   33.2520   48.7770 C   0  0  0  0  0  0  0  0  0  0  0  0
   64.0820   33.4680   48.9260 Cl  0  0  0  0  0  0  0  0  0  0  0  0
   61.8080   33.0190   47.5260 C   0  0  0  0  0  0  0  0  0  0  0  0
   60.4310   32.8410   47.3590 C   0  0  0  0  0  0  0  0  0  0  0  0
   59.9470   32.5990   45.9990 C   0  0  0  0  0  0  0  0  0  0  0  0
   58.0430   32.3420   43.6090 N   0  0  0  0  0  0  0  0  0  0  0  0
   58.1908   33.2965   41.2939 H   0  0  0  0  0  0  0  0  0  0  0  0
   58.3943   31.6297   40.6559 H   0  0  0  0  0  0  0  0  0  0  0  0
   56.7713   32.3994   40.6559 H   0  0  0  0  0  0  0  0  0  0  0  0
   56.1493   30.1594   41.9594 H   0  0  0  0  0  0  0  0  0  0  0  0
   55.8095   29.3587   44.2839 H   0  0  0  0  0  0  0  0  0  0  0  0
   57.7222   34.2061   46.9477 H   0  0  0  0  0  0  0  0  0  0  0  0
   56.6827   32.7020   46.9157 H   0  0  0  0  0  0  0  0  0  0  0  0
   57.6817   33.3859   49.1717 H   0  0  0  0  0  0  0  0  0  0  0  0
   57.8915   31.6904   48.6514 H   0  0  0  0  0  0  0  0  0  0  0  0
   59.5334   33.1911   50.6062 H   0  0  0  0  0  0  0  0  0  0  0  0
   61.9861   33.5023   50.8986 H   0  0  0  0  0  0  0  0  0  0  0  0
   62.4724   32.9728   46.6505 H   0  0  0  0  0  0  0  0  0  0  0  0
   60.2897   33.4103   45.3399 H   0  0  0  0  0  0  0  0  0  0  0  0
   60.3412   31.6371   45.6395 H   0  0  0  0  0  0  0  0  0  0  0  0
  1  2  1  0
  2  3  2  0
  3  4  1  0
  4  5  2  0
  5  6  1  0
  6  7  1  0
  7  8  1  0
  8  9  1  0
  9 10  1  0
 10 11  2  0
 11 12  1  0
 12 13  2  0
 13 14  1  0
 13 15  1  0
 15 16  2  0
 16 17  1  0
  6 18  2  0
 18  2  1  0
 17  7  1  0
 16 10  1  0
  1 19  1  0
  1 20  1  0
  1 21  1  0
  3 22  1  0
  4 23  1  0
  8 24  1  0
  8 25  1  0
  9 26  1  0
  9 27  1  0
 11 28  1  0
 12 29  1  0
 15 30  1  0
 17 31  1  0
 17 32  1  0
M  END
>  <smiles>  (37) 
Cc1ccnc(N2CCc3ccc(Cl)cc3C2)n1

>  <score_type>  (37) 
oracle

>  <origin>  (37) 
adg

>  <m_score__min__energy>  (37) 
-6.8099999999999996

>  <m_primary>  (37) 
energy

$$$$
38:0
     RDKit          3D

 51 54  0  0  1  0  0  0  0  0999 V2000
   58.1460   34.1880   44.9380 C   0  0  0  0  0  0  0  0  0  0  0  0
   57.7300   33.8420   46.3260 C   0  0  0  0  0  0  0  0  0  0  0  0
   58.7270   34.1420   47.4010 C   0  0  0  0  0  0  0  0  0  0  0  0
   60.4190   34.2160   46.8350 S   0  0  0  0  0  0  0  0  0  0  0  0
   61.5160   33.4650   47.9940 C   0  0  0  0  0  0  0  0  0  0  0  0
   62.1140   34.0930   49.0170 N   0  0  0  0  0  0  0  0  0  0  0  0
   62.9400   33.5230   49.8990 C   0  0  0  0  0  0  0  0  0  0  0  0
   63.2240   32.1990   49.7830 C   0  0  0  0  0  0  0  0  0  0  0  0
   62.6510   31.5190   48.7720 N   0  0  0  0  0  0  0  0  0  0  0  0
   61.8060   32.1000   47.8710 C   0  0  0  0  0  0  0  0  0  0  0  0
   61.2210   31.2820   46.7740 C   0  0  0  0  0  0  0  0  0  0  0  0
   59.7730   30.9440   47.2610 C   0  0  0  0  0  0  0  0  0  0  0  0
   59.8290   30.0350   48.4190 C   0  0  0  0  0  0  0  0  0  0  0  0
   59.6650   30.3790   49.7390 N   0  0  0  0  0  0  0  0  0  0  0  0
   59.3250   31.3390   50.4210 C   0  0  0  0  0  0  0  0  0  0  0  0
   60.1070   32.4190   50.5300 N   0  0  0  0  0  0  0  0  0  0  0  0
   59.8100   33.4920   51.2510 C   0  0  0  0  0  0  0  0  0  0  0  0
   58.6230   33.5440   51.9510 C   0  0  0  0  0  0  0  0  0  0  0  0
   57.7870   32.4600   51.8700 C   0  0  0  0  0  0  0  0  0  0  0  0
   56.5760   32.1540   52.4010 N   0  0  0  0  0  0  0  0  0  0  0  0
   56.2000   30.9390   51.9920 C   0  0  0  0  0  0  0  0  0  0  0  0
   54.9690   30.2170   52.3220 C   0  0  0  0  0  0  0  0  0  0  0  0
   53.7890   30.5730   51.7000 C   0  0  0  0  0  0  0  0  0  0  0  0
   52.6220   29.8970   52.0060 C   0  0  0  0  0  0  0  0  0  0  0  0
   52.6470   28.8690   52.9300 C   0  0  0  0  0  0  0  0  0  0  0  0
   53.8190   28.5410   53.5240 N   0  0  0  0  0  0  0  0  0  0  0  0
   54.9840   29.1910   53.2420 C   0  0  0  0  0  0  0  0  0  0  0  0
   57.1540   30.4720   51.2110 O   0  0  0  0  0  0  0  0  0  0  0  0
   58.1250   31.3510   51.1080 C   0  0  0  0  0  0  0  0  0  0  0  0
   58.9913   34.8910   44.9731 H   0  0  0  0  0  0  0  0  0  0  0  0
   58.4513   33.2737   44.4080 H   0  0  0  0  0  0  0  0  0  0  0  0
   57.3026   34.6547   44.4080 H   0  0  0  0  0  0  0  0  0  0  0  0
   56.8113   34.4030   46.5523 H   0  0  0  0  0  0  0  0  0  0  0  0
   57.6022   32.7495   46.3349 H   0  0  0  0  0  0  0  0  0  0  0  0
   58.4703   35.1141   47.8472 H   0  0  0  0  0  0  0  0  0  0  0  0
   58.6721   33.3126   48.1215 H   0  0  0  0  0  0  0  0  0  0  0  0
   63.3851   34.1185   50.7097 H   0  0  0  0  0  0  0  0  0  0  0  0
   63.9001   31.6991   50.4922 H   0  0  0  0  0  0  0  0  0  0  0  0
   61.1910   31.8555   45.8358 H   0  0  0  0  0  0  0  0  0  0  0  0
   61.8127   30.3780   46.5673 H   0  0  0  0  0  0  0  0  0  0  0  0
   59.2606   31.8729   47.5518 H   0  0  0  0  0  0  0  0  0  0  0  0
   59.2230   30.4539   46.4441 H   0  0  0  0  0  0  0  0  0  0  0  0
   59.0569   29.2762   48.2238 H   0  0  0  0  0  0  0  0  0  0  0  0
   60.9062   29.8124   48.4224 H   0  0  0  0  0  0  0  0  0  0  0  0
   60.9980   32.3990   50.0160 H   0  0  0  0  0  0  0  0  0  0  0  0
   60.5099   34.3397   51.2905 H   0  0  0  0  0  0  0  0  0  0  0  0
   58.3560   34.4247   52.5536 H   0  0  0  0  0  0  0  0  0  0  0  0
   53.7771   31.3907   50.9643 H   0  0  0  0  0  0  0  0  0  0  0  0
   51.6775   30.1762   51.5161 H   0  0  0  0  0  0  0  0  0  0  0  0
   51.7251   28.3235   53.1800 H   0  0  0  0  0  0  0  0  0  0  0  0
   55.9206   28.9011   53.7407 H   0  0  0  0  0  0  0  0  0  0  0  0
  1  2  1  0
  2  3  1  0
  3  4  1  0
  4  5  1  0
  5  6  2  0
  6  7  1  0
  7  8  2  0
  8  9  1  0
  9 10  2  0
 10 11  1  0
 11 12  1  0
 12 13  1  0
 13 14  1  0
 14 15  2  0
 15 16  1  0
 16 17  1  0
 17 18  2  0
 18 19  1  0
 19 20  1  0
 20 21  2  0
 21 22  1  0
 22 23  2  0
 23 24  1  0
 24 25  2  0
 25 26  1  0
 26 27  2  0
 21 28  1  0
 28 29  1  0
 10  5  1  0
 29 15  1  0
 29 19  2  0
 27 22  1  0
  1 30  1  0
  1 31  1  0
  1 32  1  0
  2 33  1  0
  2 34  1  0
  3 35  1  0
  3 36  1  0
  7 37  1  0
  8 38  1  0
 11 39  1  0
 11 40  1  0
 12 41  1  0
 12 42  1  0
 13 43  1  0
 13 44  1  0
 16 45  1  0
 17 46  1  0
 18 47  1  0
 23 48  1  0
 24 49  1  0
 25 50  1  0
 27 51  1  0
M  END
>  <smiles>  (38) 
CCCSc1nccnc1CCCN=c1[nH]ccc2nc(-c3cccnc3)oc12

>  <score_type>  (38) 
oracle

>  <origin>  (38) 
adg

>  <m_score__min__energy>  (38) 
-7.54

>  <m_primary>  (38) 
energy

$$$$
39:0
     RDKit          3D

 38 40  0  0  1  0  0  0  0  0999 V2000
   57.7630   23.1530   45.4630 C   0  0  0  0  0  0  0  0  0  0  0  0
   57.0160   23.9060   46.5540 C   0  0  0  0  0  0  0  0  0  0  0  0
   57.3590   25.3240   46.5090 N   0  0  0  0  0  0  0  0  0  0  0  0
   58.6450   25.6990   46.7680 C   0  0  0  0  0  0  0  0  0  0  0  0
   58.8930   27.0560   46.7070 C   0  0  0  0  0  0  0  0  0  0  0  0
   57.9000   27.9770   46.4040 C   0  0  0  0  0  0  0  0  0  0  0  0
   58.2570   29.2170   46.3780 N   0  0  0  0  0  0  0  0  0  0  0  0
   57.7390   30.2080   45.0660 S   0  0  0  0  0  0  0  0  0  0  0  0
   56.2410   30.1060   44.8620 O   0  0  0  0  0  0  0  0  0  0  0  0
   58.3600   29.8200   43.7740 O   0  0  0  0  0  0  0  0  0  0  0  0
   58.0680   31.8590   45.5280 C   0  0  0  0  0  0  0  0  0  0  0  0
   57.1970   32.9020   45.2780 C   0  0  0  0  0  0  0  0  0  0  0  0
   57.4440   34.2030   45.6360 C   0  0  0  0  0  0  0  0  0  0  0  0
   58.6100   34.5180   46.2790 C   0  0  0  0  0  0  0  0  0  0  0  0
   59.5000   33.4950   46.5410 C   0  0  0  0  0  0  0  0  0  0  0  0
   60.6690   33.8480   47.1910 C   0  0  0  0  0  0  0  0  0  0  0  0
   61.5920   32.8620   47.4780 C   0  0  0  0  0  0  0  0  0  0  0  0
   61.3640   31.5430   47.1260 C   0  0  0  0  0  0  0  0  0  0  0  0
   60.1830   31.2190   46.4750 C   0  0  0  0  0  0  0  0  0  0  0  0
   59.2440   32.1750   46.1750 C   0  0  0  0  0  0  0  0  0  0  0  0
   56.6470   27.5560   46.1560 N   0  0  0  0  0  0  0  0  0  0  0  0
   56.4070   26.2280   46.2160 C   0  0  0  0  0  0  0  0  0  0  0  0
   55.2140   25.8480   45.9790 O   0  0  0  0  0  0  0  0  0  0  0  0
   58.4667   22.4436   45.9230 H   0  0  0  0  0  0  0  0  0  0  0  0
   57.0435   22.6030   44.8386 H   0  0  0  0  0  0  0  0  0  0  0  0
   58.3188   23.8680   44.8386 H   0  0  0  0  0  0  0  0  0  0  0  0
   55.9330   23.7885   46.4011 H   0  0  0  0  0  0  0  0  0  0  0  0
   57.3019   23.4971   47.5344 H   0  0  0  0  0  0  0  0  0  0  0  0
   59.4317   24.9690   47.0093 H   0  0  0  0  0  0  0  0  0  0  0  0
   59.9121   27.4193   46.9053 H   0  0  0  0  0  0  0  0  0  0  0  0
   56.2518   32.6763   44.7626 H   0  0  0  0  0  0  0  0  0  0  0  0
   56.7088   34.9886   45.4074 H   0  0  0  0  0  0  0  0  0  0  0  0
   58.8315   35.5532   46.5778 H   0  0  0  0  0  0  0  0  0  0  0  0
   60.8595   34.8938   47.4737 H   0  0  0  0  0  0  0  0  0  0  0  0
   62.5250   33.1295   47.9956 H   0  0  0  0  0  0  0  0  0  0  0  0
   62.1064   30.7653   47.3585 H   0  0  0  0  0  0  0  0  0  0  0  0
   59.9943   30.1727   46.1927 H   0  0  0  0  0  0  0  0  0  0  0  0
   55.9220   28.2590   45.9320 H   0  0  0  0  0  0  0  0  0  0  0  0
  1  2  1  0
  2  3  1  0
  3  4  1  0
  4  5  2  0
  5  6  1  0
  6  7  2  0
  7  8  1  0
  8  9  2  0
  8 10  2  0
  8 11  1  0
 11 12  2  0
 12 13  1  0
 13 14  2  0
 14 15  1  0
 15 16  2  0
 16 17  1  0
 17 18  2  0
 18 19  1  0
 19 20  2  0
  6 21  1  0
 21 22  1  0
 22 23  2  0
 22  3  1  0
 20 11  1  0
 20 15  1  0
  1 24  1  0
  1 25  1  0
  1 26  1  0
  2 27  1  0
  2 28  1  0
  4 29  1  0
  5 30  1  0
 12 31  1  0
 13 32  1  0
 14 33  1  0
 16 34  1  0
 17 35  1  0
 18 36  1  0
 19 37  1  0
 21 38  1  0
M  END
>  <smiles>  (39) 
CCn1ccc(=NS(=O)(=O)c2cccc3ccccc23)[nH]c1=O

>  <score_type>  (39) 
oracle

>  <origin>  (39) 
adg

>  <m_score__min__energy>  (39) 
-8.6600000000000001

>  <m_primary>  (39) 
energy

$$$$
40:0
     RDKit          3D

 39 41  0  0  1  0  0  0  0  0999 V2000
   56.8090   29.4170   43.0410 C   0  0  0  0  0  0  0  0  0  0  0  0
   57.3660   30.2950   44.1230 C   0  0  0  0  0  0  0  0  0  0  0  0
   56.9340   31.5900   44.3120 C   0  0  0  0  0  0  0  0  0  0  0  0
   57.5010   32.3190   45.3280 C   0  0  0  0  0  0  0  0  0  0  0  0
   58.4880   31.7450   46.1360 C   0  0  0  0  0  0  0  0  0  0  0  0
   59.0170   32.6030   47.1880 C   0  0  0  0  0  0  0  0  0  0  0  0
   58.8020   32.2920   48.5210 C   0  0  0  0  0  0  0  0  0  0  0  0
   59.2980   33.1070   49.5240 C   0  0  0  0  0  0  0  0  0  0  0  0
   59.0350   32.7310   51.3750 Br  0  0  0  0  0  0  0  0  0  0  0  0
   60.0120   34.2410   49.1820 C   0  0  0  0  0  0  0  0  0  0  0  0
   60.2390   34.5710   47.8530 C   0  0  0  0  0  0  0  0  0  0  0  0
   59.7360   33.7470   46.8690 C   0  0  0  0  0  0  0  0  0  0  0  0
   59.9890   34.1100   45.5830 F   0  0  0  0  0  0  0  0  0  0  0  0
   58.9060   30.4470   45.9300 C   0  0  0  0  0  0  0  0  0  0  0  0
   60.1740   29.7730   46.9860 S   0  0  0  0  0  0  0  0  0  0  0  0
   59.3800   29.4880   48.2240 O   0  0  0  0  0  0  0  0  0  0  0  0
   60.5710   28.5650   46.2040 O   0  0  0  0  0  0  0  0  0  0  0  0
   61.3340   30.9900   47.1180 N   0  0  0  0  0  0  0  0  0  0  0  0
   62.0520   31.2670   48.1240 C   0  0  0  0  0  0  0  0  0  0  0  0
   62.0580   30.6660   49.2890 O   0  0  0  0  0  0  0  0  0  0  0  0
   62.9280   31.2290   50.0740 N   0  0  0  0  0  0  0  0  0  0  0  0
   63.5300   32.2410   49.4240 C   0  0  0  0  0  0  0  0  0  0  0  0
   64.5820   33.1780   49.8800 C   0  0  0  0  0  0  0  0  0  0  0  0
   62.9770   32.2820   48.1610 C   0  0  0  0  0  0  0  0  0  0  0  0
   63.3760   33.4560   46.7610 Br  0  0  0  0  0  0  0  0  0  0  0  0
   58.3390   29.7380   44.9240 C   0  0  0  0  0  0  0  0  0  0  0  0
   56.2723   28.5710   43.4952 H   0  0  0  0  0  0  0  0  0  0  0  0
   56.1148   29.9993   42.4173 H   0  0  0  0  0  0  0  0  0  0  0  0
   57.6316   29.0371   42.4173 H   0  0  0  0  0  0  0  0  0  0  0  0
   56.1572   32.0270   43.6674 H   0  0  0  0  0  0  0  0  0  0  0  0
   57.1788   33.3554   45.5067 H   0  0  0  0  0  0  0  0  0  0  0  0
   58.2318   31.3890   48.7847 H   0  0  0  0  0  0  0  0  0  0  0  0
   60.4064   34.8920   49.9761 H   0  0  0  0  0  0  0  0  0  0  0  0
   60.8099   35.4737   47.5898 H   0  0  0  0  0  0  0  0  0  0  0  0
   63.1300   30.9440   51.0550 H   0  0  0  0  0  0  0  0  0  0  0  0
   64.6040   33.1976   50.9796 H   0  0  0  0  0  0  0  0  0  0  0  0
   65.5591   32.8456   49.4996 H   0  0  0  0  0  0  0  0  0  0  0  0
   64.3644   34.1869   49.4996 H   0  0  0  0  0  0  0  0  0  0  0  0
   58.6605   28.7016   44.7440 H   0  0  0  0  0  0  0  0  0  0  0  0
  1  2  1  0
  2  3  2  0
  3  4  1  0
  4  5  2  0
  5  6  1  0
  6  7  2  0
  7  8  1  0
  8  9  1  0
  8 10  2  0
 10 11  1  0
 11 12  2  0
 12 13  1  0
  5 14  1  0
 14 15  1  0
 15 16  2  0
 15 17  2  0
 15 18  1  0
 18 19  2  0
 19 20  1  0
 20 21  1  0
 21 22  1  0
 22 23  1  0
 22 24  2  0
 24 25  1  0
 14 26  2  0
 26  2  1  0
 12  6  1  0
 24 19  1  0
  1 27  1  0
  1 28  1  0
  1 29  1  0
  3 30  1  0
  4 31  1  0
  7 32  1  0
 10 33  1  0
 11 34  1  0
 21 35  1  0
 23 36  1  0
 23 37  1  0
 23 38  1  0
 26 39  1  0
M  END
>  <smiles>  (40) 
Cc1ccc(-c2cc(Br)ccc2F)c(S(=O)(=O)N=c2o[nH]c(C)c2Br)c1

>  <score_type>  (40) 
oracle

>  <origin>  (40) 
adg

>  <m_score__min__energy>  (40) 
-8.7300000000000004

>  <m_primary>  (40) 
energy

$$$$
41:0
     RDKit          3D

 46 49  0  0  1  0  0  0  0  0999 V2000
   63.7070   34.2160   51.1200 C   0  0  0  0  0  0  0  0  0  0  0  0
   63.0140   34.5970   49.9200 O   0  0  0  0  0  0  0  0  0  0  0  0
   62.6660   33.5900   48.9970 C   0  0  0  0  0  0  0  0  0  0  0  0
   63.7250   33.0180   48.3250 C   0  0  0  0  0  0  0  0  0  0  0  0
   63.4290   32.0330   47.4150 C   0  0  0  0  0  0  0  0  0  0  0  0
   62.1260   31.6750   47.2210 C   0  0  0  0  0  0  0  0  0  0  0  0
   61.0660   32.2460   47.8890 C   0  0  0  0  0  0  0  0  0  0  0  0
   59.8200   31.9450   47.6400 N   0  0  0  0  0  0  0  0  0  0  0  0
   59.0970   32.5360   46.5770 C   0  0  0  0  0  0  0  0  0  0  0  0
   59.0890   33.8640   46.4740 N   0  0  0  0  0  0  0  0  0  0  0  0
   58.4450   34.5690   45.5390 C   0  0  0  0  0  0  0  0  0  0  0  0
   57.7230   33.8740   44.5940 C   0  0  0  0  0  0  0  0  0  0  0  0
   57.7140   32.5150   44.6770 C   0  0  0  0  0  0  0  0  0  0  0  0
   58.3970   31.7940   45.6650 C   0  0  0  0  0  0  0  0  0  0  0  0
   58.2660   30.3700   45.6340 C   0  0  0  0  0  0  0  0  0  0  0  0
   57.6770   29.8180   44.6300 O   0  0  0  0  0  0  0  0  0  0  0  0
   58.7180   29.4400   46.6100 N   0  0  0  0  0  0  0  0  0  0  0  0
   58.4160   28.0680   46.2960 C   0  0  0  0  0  0  0  0  0  0  0  0
   59.3710   27.1370   45.9700 C   0  0  0  0  0  0  0  0  0  0  0  0
   58.9380   25.8480   45.6370 C   0  0  0  0  0  0  0  0  0  0  0  0
   57.5870   25.5230   45.6360 C   0  0  0  0  0  0  0  0  0  0  0  0
   56.6100   26.4750   45.9730 C   0  0  0  0  0  0  0  0  0  0  0  0
   57.0550   27.7530   46.3020 C   0  0  0  0  0  0  0  0  0  0  0  0
   55.2630   26.1480   45.9740 O   0  0  0  0  0  0  0  0  0  0  0  0
   54.8280   24.8640   45.6100 C   0  0  0  0  0  0  0  0  0  0  0  0
   55.8410   24.2420   44.6660 C   0  0  0  0  0  0  0  0  0  0  0  0
   57.1060   24.2700   45.3150 O   0  0  0  0  0  0  0  0  0  0  0  0
   61.3810   33.2230   48.7930 N   0  0  0  0  0  0  0  0  0  0  0  0
   63.1250   34.5360   51.9968 H   0  0  0  0  0  0  0  0  0  0  0  0
   63.8305   33.1232   51.1408 H   0  0  0  0  0  0  0  0  0  0  0  0
   64.6959   34.6972   51.1408 H   0  0  0  0  0  0  0  0  0  0  0  0
   64.7616   33.3365   48.5096 H   0  0  0  0  0  0  0  0  0  0  0  0
   64.2322   31.5384   46.8492 H   0  0  0  0  0  0  0  0  0  0  0  0
   61.9102   30.8838   46.4879 H   0  0  0  0  0  0  0  0  0  0  0  0
   58.4900   35.6680   45.5245 H   0  0  0  0  0  0  0  0  0  0  0  0
   57.1725   34.3990   43.7994 H   0  0  0  0  0  0  0  0  0  0  0  0
   57.1388   31.9523   43.9270 H   0  0  0  0  0  0  0  0  0  0  0  0
   59.2110   29.7550   47.4480 H   0  0  0  0  0  0  0  0  0  0  0  0
   60.4403   27.3952   45.9705 H   0  0  0  0  0  0  0  0  0  0  0  0
   59.6794   25.0799   45.3718 H   0  0  0  0  0  0  0  0  0  0  0  0
   56.3221   28.5278   46.5712 H   0  0  0  0  0  0  0  0  0  0  0  0
   54.7322   24.2392   46.5102 H   0  0  0  0  0  0  0  0  0  0  0  0
   53.8509   24.9332   45.1096 H   0  0  0  0  0  0  0  0  0  0  0  0
   55.5569   23.2031   44.4423 H   0  0  0  0  0  0  0  0  0  0  0  0
   55.8800   24.7996   43.7186 H   0  0  0  0  0  0  0  0  0  0  0  0
   60.6150   33.6900   49.3350 H   0  0  0  0  0  0  0  0  0  0  0  0
  1  2  1  0
  2  3  1  0
  3  4  2  0
  4  5  1  0
  5  6  2  0
  6  7  1  0
  7  8  2  0
  8  9  1  0
  9 10  2  0
 10 11  1  0
 11 12  2  0
 12 13  1  0
 13 14  2  0
 14 15  1  0
 15 16  2  0
 15 17  1  0
 17 18  1  0
 18 19  2  0
 19 20  1  0
 20 21  2  0
 21 22  1  0
 22 23  2  0
 22 24  1  0
 24 25  1  0
 25 26  1  0
 26 27  1  0
  7 28  1  0
 28  3  1  0
 14  9  1  0
 23 18  1  0
 27 21  1  0
  1 29  1  0
  1 30  1  0
  1 31  1  0
  4 32  1  0
  5 33  1  0
  6 34  1  0
 11 35  1  0
 12 36  1  0
 13 37  1  0
 17 38  1  0
 19 39  1  0
 20 40  1  0
 23 41  1  0
 25 42  1  0
 25 43  1  0
 26 44  1  0
 26 45  1  0
 28 46  1  0
M  END
>  <smiles>  (41) 
COc1cccc(=Nc2ncccc2C(=O)Nc2ccc3c(c2)OCCO3)[nH]1

>  <score_type>  (41) 
oracle

>  <origin>  (41) 
adg

>  <m_score__min__energy>  (41) 
-8.2799999999999994

>  <m_primary>  (41) 
energy

$$$$
42:0
     RDKit          3D

 39 41  0  0  0  0  0  0  0  0999 V2000
   59.9630   25.9000   47.0530 O   0  0  0  0  0  0  0  0  0  0  0  0
   59.1460   25.9260   46.0730 C   0  0  0  0  0  0  0  0  0  0  0  0
   58.7810   24.6590   45.4900 C   0  0  0  0  0  0  0  0  0  0  0  0
   57.6190   24.4060   44.8000 C   0  0  0  0  0  0  0  0  0  0  0  0
   57.3320   23.1440   44.2620 C   0  0  0  0  0  0  0  0  0  0  0  0
   58.2300   22.1360   44.4230 N   0  0  0  0  0  0  0  0  0  0  0  0
   59.3750   22.3590   45.0940 C   0  0  0  0  0  0  0  0  0  0  0  0
   59.6750   23.5940   45.6310 C   0  0  0  0  0  0  0  0  0  0  0  0
   58.6870   27.1940   45.6640 N   0  0  0  0  0  0  0  0  0  0  0  0
   59.1780   28.3670   46.3770 C   0  0  0  0  0  0  0  0  0  0  0  0
   58.9550   29.6410   45.6240 C   0  0  0  0  0  0  0  0  0  0  0  0
   57.6010   29.8110   45.1470 N   0  0  0  0  0  0  0  0  0  0  0  0
   57.0400   31.1000   44.9020 C   0  0  0  0  0  0  0  0  0  0  0  0
   55.8420   31.1560   44.4830 O   0  0  0  0  0  0  0  0  0  0  0  0
   57.8580   32.2630   45.1390 C   0  0  0  0  0  0  0  0  0  0  0  0
   58.1380   32.7610   46.3920 C   0  0  0  0  0  0  0  0  0  0  0  0
   58.9350   33.8910   46.5690 C   0  0  0  0  0  0  0  0  0  0  0  0
   59.4720   34.5560   45.4950 C   0  0  0  0  0  0  0  0  0  0  0  0
   59.1950   34.0640   44.2280 C   0  0  0  0  0  0  0  0  0  0  0  0
   58.4050   32.9400   44.0590 C   0  0  0  0  0  0  0  0  0  0  0  0
   58.1140   32.3990   42.4270 Cl  0  0  0  0  0  0  0  0  0  0  0  0
   56.8280   28.5950   44.9240 C   0  0  0  0  0  0  0  0  0  0  0  0
   57.7570   27.4340   44.5830 C   0  0  0  0  0  0  0  0  0  0  0  0
   56.8914   25.2200   44.6659 H   0  0  0  0  0  0  0  0  0  0  0  0
   56.3925   22.9714   43.7166 H   0  0  0  0  0  0  0  0  0  0  0  0
   60.0917   21.5337   45.2178 H   0  0  0  0  0  0  0  0  0  0  0  0
   60.6213   23.7410   46.1721 H   0  0  0  0  0  0  0  0  0  0  0  0
   58.6566   28.4343   47.3432 H   0  0  0  0  0  0  0  0  0  0  0  0
   60.2636   28.2450   46.5057 H   0  0  0  0  0  0  0  0  0  0  0  0
   59.1959   30.4831   46.2894 H   0  0  0  0  0  0  0  0  0  0  0  0
   59.6037   29.6046   44.7364 H   0  0  0  0  0  0  0  0  0  0  0  0
   57.7223   32.2544   47.2755 H   0  0  0  0  0  0  0  0  0  0  0  0
   59.1370   34.2560   47.5868 H   0  0  0  0  0  0  0  0  0  0  0  0
   60.1002   35.4482   45.6342 H   0  0  0  0  0  0  0  0  0  0  0  0
   59.6088   34.5740   43.3456 H   0  0  0  0  0  0  0  0  0  0  0  0
   56.2625   28.3519   45.8356 H   0  0  0  0  0  0  0  0  0  0  0  0
   56.1361   28.7589   44.0847 H   0  0  0  0  0  0  0  0  0  0  0  0
   57.1567   26.5278   44.4142 H   0  0  0  0  0  0  0  0  0  0  0  0
   58.3247   27.6878   43.6756 H   0  0  0  0  0  0  0  0  0  0  0  0
  1  2  2  0
  2  3  1  0
  3  4  2  0
  4  5  1  0
  5  6  2  0
  6  7  1  0
  7  8  2  0
  2  9  1  0
  9 10  1  0
 10 11  1  0
 11 12  1  0
 12 13  1  0
 13 14  2  0
 13 15  1  0
 15 16  2  0
 16 17  1  0
 17 18  2  0
 18 19  1  0
 19 20  2  0
 20 21  1  0
 12 22  1  0
 22 23  1  0
  8  3  1  0
 23  9  1  0
 20 15  1  0
  4 24  1  0
  5 25  1  0
  7 26  1  0
  8 27  1  0
 10 28  1  0
 10 29  1  0
 11 30  1  0
 11 31  1  0
 16 32  1  0
 17 33  1  0
 18 34  1  0
 19 35  1  0
 22 36  1  0
 22 37  1  0
 23 38  1  0
 23 39  1  0
M  END
>  <smiles>  (42) 
O=C(c1ccncc1)N1CCN(C(=O)c2ccccc2Cl)CC1

>  <score_type>  (42) 
oracle

>  <origin>  (42) 
adg

>  <m_score__min__energy>  (42) 
-7.2599999999999998

>  <m_primary>  (42) 
energy

$$$$
43:0
     RDKit          3D

 57 60  0  0  0  0  0  0  0  0999 V2000
   64.1180   33.4010   47.8390 C   0  0  0  0  0  0  0  0  0  0  0  0
   62.8360   33.7550   48.2550 O   0  0  0  0  0  0  0  0  0  0  0  0
   61.6740   33.3590   47.5940 C   0  0  0  0  0  0  0  0  0  0  0  0
   60.9100   34.2620   46.8900 C   0  0  0  0  0  0  0  0  0  0  0  0
   59.7760   33.8040   46.2600 C   0  0  0  0  0  0  0  0  0  0  0  0
   59.0590   34.7620   45.5340 C   0  0  0  0  0  0  0  0  0  0  0  0
   57.9460   34.3030   44.8800 C   0  0  0  0  0  0  0  0  0  0  0  0
   57.5640   33.0230   44.9280 N   0  0  0  0  0  0  0  0  0  0  0  0
   58.2230   32.0470   45.6190 C   0  0  0  0  0  0  0  0  0  0  0  0
   57.7630   30.6570   45.6250 C   0  0  0  0  0  0  0  0  0  0  0  0
   57.7340   30.0450   44.3160 N   0  0  0  0  0  0  0  0  0  0  0  0
   56.4200   29.6040   43.9330 C   0  0  0  0  0  0  0  0  0  0  0  0
   58.6790   29.0040   44.1250 C   0  0  0  0  0  0  0  0  0  0  0  0
   58.2770   27.6880   44.6900 C   0  0  0  0  0  0  0  0  0  0  0  0
   58.0760   27.3200   46.0030 C   0  0  0  0  0  0  0  0  0  0  0  0
   57.7240   26.0560   46.0310 O   0  0  0  0  0  0  0  0  0  0  0  0
   57.6890   25.5900   44.8000 C   0  0  0  0  0  0  0  0  0  0  0  0
   57.3500   24.2350   44.3470 C   0  0  0  0  0  0  0  0  0  0  0  0
   56.3420   24.0140   43.4060 C   0  0  0  0  0  0  0  0  0  0  0  0
   56.0180   22.7390   42.9800 C   0  0  0  0  0  0  0  0  0  0  0  0
   56.6710   21.6450   43.4640 C   0  0  0  0  0  0  0  0  0  0  0  0
   56.3210   20.3860   43.0170 O   0  0  0  0  0  0  0  0  0  0  0  0
   57.6650   21.8380   44.3910 C   0  0  0  0  0  0  0  0  0  0  0  0
   57.9960   23.1130   44.8220 C   0  0  0  0  0  0  0  0  0  0  0  0
   58.0260   26.5810   43.9700 N   0  0  0  0  0  0  0  0  0  0  0  0
   59.3570   32.4910   46.2940 C   0  0  0  0  0  0  0  0  0  0  0  0
   60.1080   31.5990   46.9910 C   0  0  0  0  0  0  0  0  0  0  0  0
   59.8330   30.2500   47.1420 O   0  0  0  0  0  0  0  0  0  0  0  0
   59.3440   29.8610   48.4350 C   0  0  0  0  0  0  0  0  0  0  0  0
   61.2680   32.0470   47.6370 C   0  0  0  0  0  0  0  0  0  0  0  0
   62.0690   31.1600   48.3610 O   0  0  0  0  0  0  0  0  0  0  0  0
   62.2420   31.1800   49.7470 C   0  0  0  0  0  0  0  0  0  0  0  0
   64.7537   33.2255   48.7193 H   0  0  0  0  0  0  0  0  0  0  0  0
   64.0670   32.4833   47.2346 H   0  0  0  0  0  0  0  0  0  0  0  0
   64.5452   34.2148   47.2346 H   0  0  0  0  0  0  0  0  0  0  0  0
   61.1986   35.3219   46.8327 H   0  0  0  0  0  0  0  0  0  0  0  0
   59.3694   35.8164   45.4912 H   0  0  0  0  0  0  0  0  0  0  0  0
   57.3448   35.0138   44.2940 H   0  0  0  0  0  0  0  0  0  0  0  0
   58.4380   30.0714   46.2664 H   0  0  0  0  0  0  0  0  0  0  0  0
   56.7280   30.6644   45.9975 H   0  0  0  0  0  0  0  0  0  0  0  0
   55.8231   29.4037   44.8350 H   0  0  0  0  0  0  0  0  0  0  0  0
   55.9301   30.3870   43.3355 H   0  0  0  0  0  0  0  0  0  0  0  0
   56.5016   28.6840   43.3355 H   0  0  0  0  0  0  0  0  0  0  0  0
   58.8369   28.8788   43.0436 H   0  0  0  0  0  0  0  0  0  0  0  0
   59.5890   29.3081   44.6630 H   0  0  0  0  0  0  0  0  0  0  0  0
   58.1911   27.9750   46.8792 H   0  0  0  0  0  0  0  0  0  0  0  0
   55.7932   24.8739   42.9943 H   0  0  0  0  0  0  0  0  0  0  0  0
   55.2183   22.6052   42.2366 H   0  0  0  0  0  0  0  0  0  0  0  0
   56.8910   19.5920   43.1930 H   0  0  0  0  0  0  0  0  0  0  0  0
   58.2054   20.9700   44.7967 H   0  0  0  0  0  0  0  0  0  0  0  0
   58.7980   23.2336   45.5652 H   0  0  0  0  0  0  0  0  0  0  0  0
   59.9499   30.3430   49.2164 H   0  0  0  0  0  0  0  0  0  0  0  0
   58.2946   30.1739   48.5395 H   0  0  0  0  0  0  0  0  0  0  0  0
   59.4129   28.7681   48.5395 H   0  0  0  0  0  0  0  0  0  0  0  0
   61.2652   31.0671   50.2401 H   0  0  0  0  0  0  0  0  0  0  0  0
   62.9017   30.3521   50.0462 H   0  0  0  0  0  0  0  0  0  0  0  0
   62.6954   32.1365   50.0462 H   0  0  0  0  0  0  0  0  0  0  0  0
  1  2  1  0
  2  3  1  0
  3  4  2  0
  4  5  1  0
  5  6  2  0
  6  7  1  0
  7  8  2  0
  8  9  1  0
  9 10  1  0
 10 11  1  0
 11 12  1  0
 11 13  1  0
 13 14  1  0
 14 15  2  0
 15 16  1  0
 16 17  1  0
 17 18  1  0
 18 19  2  0
 19 20  1  0
 20 21  2  0
 21 22  1  0
 21 23  1  0
 23 24  2  0
 17 25  2  0
  9 26  2  0
 26 27  1  0
 27 28  1  0
 28 29  1  0
 27 30  2  0
 30 31  1  0
 31 32  1  0
 30  3  1  0
 26  5  1  0
 25 14  1  0
 24 18  1  0
  1 33  1  0
  1 34  1  0
  1 35  1  0
  4 36  1  0
  6 37  1  0
  7 38  1  0
 10 39  1  0
 10 40  1  0
 12 41  1  0
 12 42  1  0
 12 43  1  0
 13 44  1  0
 13 45  1  0
 15 46  1  0
 19 47  1  0
 20 48  1  0
 22 49  1  0
 23 50  1  0
 24 51  1  0
 29 52  1  0
 29 53  1  0
 29 54  1  0
 32 55  1  0
 32 56  1  0
 32 57  1  0
M  END
>  <smiles>  (43) 
COc1cc2ccnc(CN(C)Cc3coc(-c4ccc(O)cc4)n3)c2c(OC)c1OC

>  <score_type>  (43) 
oracle

>  <origin>  (43) 
adg

>  <m_score__min__energy>  (43) 
-7.9199999999999999

>  <m_primary>  (43) 
energy

$$$$
44:0
     RDKit          3D

 27 28  0  0  0  0  0  0  0  0999 V2000
   56.6550   30.4490   43.4600 C   0  0  0  0  0  0  0  0  0  0  0  0
   56.4340   31.1070   44.6870 O   0  0  0  0  0  0  0  0  0  0  0  0
   57.4040   31.9900   45.1450 C   0  0  0  0  0  0  0  0  0  0  0  0
   58.4500   31.4880   45.9050 C   0  0  0  0  0  0  0  0  0  0  0  0
   59.4340   32.3410   46.3780 C   0  0  0  0  0  0  0  0  0  0  0  0
   59.3640   33.6840   46.0870 C   0  0  0  0  0  0  0  0  0  0  0  0
   60.3580   34.5240   46.5680 O   0  0  0  0  0  0  0  0  0  0  0  0
   61.5110   34.0550   47.1850 C   0  0  0  0  0  0  0  0  0  0  0  0
   61.5720   33.8280   48.5560 C   0  0  0  0  0  0  0  0  0  0  0  0
   62.7330   33.3610   49.1440 C   0  0  0  0  0  0  0  0  0  0  0  0
   63.8030   33.1350   48.3110 C   0  0  0  0  0  0  0  0  0  0  0  0
   63.7700   33.3500   46.9580 C   0  0  0  0  0  0  0  0  0  0  0  0
   62.6060   33.8180   46.3740 C   0  0  0  0  0  0  0  0  0  0  0  0
   58.3370   34.2200   45.3320 C   0  0  0  0  0  0  0  0  0  0  0  0
   57.3780   33.3440   44.8790 C   0  0  0  0  0  0  0  0  0  0  0  0
   56.9999   29.4222   43.6515 H   0  0  0  0  0  0  0  0  0  0  0  0
   55.7174   30.4197   42.8855 H   0  0  0  0  0  0  0  0  0  0  0  0
   57.4202   30.9917   42.8855 H   0  0  0  0  0  0  0  0  0  0  0  0
   58.4983   30.4128   46.1322 H   0  0  0  0  0  0  0  0  0  0  0  0
   60.2651   31.9475   46.9817 H   0  0  0  0  0  0  0  0  0  0  0  0
   60.6867   34.0222   49.1793 H   0  0  0  0  0  0  0  0  0  0  0  0
   62.7974   33.1790   50.2269 H   0  0  0  0  0  0  0  0  0  0  0  0
   64.7373   32.7609   48.7551 H   0  0  0  0  0  0  0  0  0  0  0  0
   64.6599   33.1525   46.3423 H   0  0  0  0  0  0  0  0  0  0  0  0
   62.5529   33.9973   45.2900 H   0  0  0  0  0  0  0  0  0  0  0  0
   58.2892   35.2952   45.1046 H   0  0  0  0  0  0  0  0  0  0  0  0
   56.5495   33.7424   44.2749 H   0  0  0  0  0  0  0  0  0  0  0  0
  1  2  1  0
  2  3  1  0
  3  4  2  0
  4  5  1  0
  5  6  2  0
  6  7  1  0
  7  8  1  0
  8  9  2  0
  9 10  1  0
 10 11  2  0
 11 12  1  0
 12 13  2  0
  6 14  1  0
 14 15  2  0
 15  3  1  0
 13  8  1  0
  1 16  1  0
  1 17  1  0
  1 18  1  0
  4 19  1  0
  5 20  1  0
  9 21  1  0
 10 22  1  0
 11 23  1  0
 12 24  1  0
 13 25  1  0
 14 26  1  0
 15 27  1  0
M  END
>  <smiles>  (44) 
COc1ccc(Oc2ccccc2)cc1

>  <score_type>  (44) 
oracle

>  <origin>  (44) 
adg

>  <m_score__min__energy>  (44) 
-5.7000000000000002

>  <m_primary>  (44) 
energy

$$$$
45:0
     RDKit          3D

 43 45  0  0  1  0  0  0  0  0999 V2000
   65.3580   31.8110   50.5230 C   0  0  0  0  0  0  0  0  0  0  0  0
   64.8490   33.0820   49.3360 S   0  0  0  0  0  0  0  0  0  0  0  0
   63.2380   32.6890   48.6720 C   0  0  0  0  0  0  0  0  0  0  0  0
   62.7640   33.4370   47.6420 C   0  0  0  0  0  0  0  0  0  0  0  0
   61.5160   33.1640   47.0970 C   0  0  0  0  0  0  0  0  0  0  0  0
   60.7240   32.1250   47.5870 C   0  0  0  0  0  0  0  0  0  0  0  0
   59.5100   31.9320   46.9860 O   0  0  0  0  0  0  0  0  0  0  0  0
   58.9590   32.8030   46.1040 C   0  0  2  0  0  0  0  0  0  0  0  0
   57.6390   33.4150   46.5210 C   0  0  0  0  0  0  0  0  0  0  0  0
   57.2100   34.0690   45.2150 C   0  0  0  0  0  0  0  0  0  0  0  0
   58.0260   33.4580   44.1330 C   0  0  0  0  0  0  0  0  0  0  0  0
   58.5090   32.1740   44.7760 C   0  0  2  0  0  0  0  0  0  0  0  0
   57.4170   31.2670   44.9690 N   0  0  0  0  0  0  0  0  0  0  0  0
   57.7640   30.0940   45.7150 C   0  0  0  0  0  0  0  0  0  0  0  0
   57.1320   28.8370   45.1410 C   0  0  0  0  0  0  0  0  0  0  0  0
   55.7880   28.9670   44.8980 O   0  0  0  0  0  0  0  0  0  0  0  0
   55.5170   30.0800   44.1470 C   0  0  0  0  0  0  0  0  0  0  0  0
   56.7630   30.8790   43.7610 C   0  0  0  0  0  0  0  0  0  0  0  0
   61.2450   31.4000   48.6250 C   0  0  0  0  0  0  0  0  0  0  0  0
   62.4940   31.6620   49.1820 C   0  0  0  0  0  0  0  0  0  0  0  0
   65.2084   32.1845   51.5468 H   0  0  0  0  0  0  0  0  0  0  0  0
   64.7535   30.9046   50.3714 H   0  0  0  0  0  0  0  0  0  0  0  0
   66.4211   31.5724   50.3714 H   0  0  0  0  0  0  0  0  0  0  0  0
   63.3703   34.2613   47.2384 H   0  0  0  0  0  0  0  0  0  0  0  0
   61.1450   33.7784   46.2634 H   0  0  0  0  0  0  0  0  0  0  0  0
   59.7944   33.5154   46.0362 H   0  0  0  0  0  0  0  0  0  0  0  0
   56.9206   32.6480   46.8460 H   0  0  0  0  0  0  0  0  0  0  0  0
   57.7031   34.1020   47.3777 H   0  0  0  0  0  0  0  0  0  0  0  0
   56.1413   33.8829   45.0328 H   0  0  0  0  0  0  0  0  0  0  0  0
   57.3619   35.1578   45.2534 H   0  0  0  0  0  0  0  0  0  0  0  0
   57.4150   33.2516   43.2419 H   0  0  0  0  0  0  0  0  0  0  0  0
   58.8412   34.1056   43.7779 H   0  0  0  0  0  0  0  0  0  0  0  0
   59.2579   31.5814   44.2302 H   0  0  0  0  0  0  0  0  0  0  0  0
   58.8577   29.9774   45.7022 H   0  0  0  0  0  0  0  0  0  0  0  0
   57.3854   30.2229   46.7397 H   0  0  0  0  0  0  0  0  0  0  0  0
   57.6360   28.5942   44.1939 H   0  0  0  0  0  0  0  0  0  0  0  0
   57.2518   28.0410   45.8907 H   0  0  0  0  0  0  0  0  0  0  0  0
   55.0090   29.7615   43.2247 H   0  0  0  0  0  0  0  0  0  0  0  0
   54.8901   30.7400   44.7646 H   0  0  0  0  0  0  0  0  0  0  0  0
   57.4355   30.2553   43.1538 H   0  0  0  0  0  0  0  0  0  0  0  0
   56.4869   31.7641   43.1692 H   0  0  0  0  0  0  0  0  0  0  0  0
   60.6495   30.5724   49.0380 H   0  0  0  0  0  0  0  0  0  0  0  0
   62.8745   31.0543   50.0162 H   0  0  0  0  0  0  0  0  0  0  0  0
  1  2  1  0
  2  3  1  0
  3  4  2  0
  4  5  1  0
  5  6  2  0
  6  7  1  0
  7  8  1  0
  8  9  1  0
  9 10  1  0
 10 11  1  0
 11 12  1  0
 12 13  1  0
 13 14  1  0
 14 15  1  0
 15 16  1  0
 16 17  1  0
 17 18  1  0
  6 19  1  0
 19 20  2  0
 20  3  1  0
 12  8  1  0
 18 13  1  0
  1 21  1  0
  1 22  1  0
  1 23  1  0
  4 24  1  0
  5 25  1  0
  8 26  1  6
  9 27  1  0
  9 28  1  0
 10 29  1  0
 10 30  1  0
 11 31  1  0
 11 32  1  0
 12 33  1  6
 14 34  1  0
 14 35  1  0
 15 36  1  0
 15 37  1  0
 17 38  1  0
 17 39  1  0
 18 40  1  0
 18 41  1  0
 19 42  1  0
 20 43  1  0
M  END
>  <smiles>  (45) 
CSc1ccc(OC2CCCC2N2CCOCC2)cc1

>  <score_type>  (45) 
oracle

>  <origin>  (45) 
adg

>  <m_score__min__energy>  (45) 
-7.5800000000000001

>  <m_primary>  (45) 
energy

$$$$
46:0
     RDKit          3D

 65 66  0  0  1  0  0  0  0  0999 V2000
   59.7170   35.3570   46.3550 C   0  0  0  0  0  0  0  0  0  0  0  0
   58.8880   34.5010   45.4110 C   0  0  0  0  0  0  0  0  0  0  0  0
   57.8550   33.6950   46.1760 C   0  0  0  0  0  0  0  0  0  0  0  0
   57.0410   32.8750   45.1810 C   0  0  0  0  0  0  0  0  0  0  0  0
   57.9280   31.9050   44.4560 C   0  0  0  0  0  0  0  0  0  0  0  0
   57.2700   31.2990   43.2550 C   0  0  0  0  0  0  0  0  0  0  0  0
   56.6080   29.9700   43.5430 C   0  0  0  0  0  0  0  0  0  0  0  0
   57.0540   29.5570   44.9320 C   0  0  0  0  0  0  0  0  0  0  0  0
   57.0850   28.0490   45.0720 C   0  0  0  0  0  0  0  0  0  0  0  0
   58.1910   27.4500   44.2360 C   0  0  0  0  0  0  0  0  0  0  0  0
   59.4740   28.2380   44.3450 C   0  0  0  0  0  0  0  0  0  0  0  0
   60.2600   27.8270   45.5940 C   0  0  0  0  0  0  0  0  0  0  0  0
   59.9800   28.8300   46.6060 N   0  0  0  0  0  0  0  0  0  0  0  0
   59.1740   28.4400   47.6340 C   0  0  0  0  0  0  0  0  0  0  0  0
   58.8630   29.3370   48.6340 C   0  0  0  0  0  0  0  0  0  0  0  0
   59.3540   30.6280   48.6140 C   0  0  0  0  0  0  0  0  0  0  0  0
   60.1660   30.9860   47.5590 C   0  0  0  0  0  0  0  0  0  0  0  0
   60.6830   32.3850   47.5610 C   0  0  0  0  0  0  0  0  0  0  0  0
   61.9370   32.5230   48.2530 N   0  0  0  0  0  0  0  0  0  0  0  0
   62.1910   32.0130   49.4710 C   0  0  0  0  0  0  0  0  0  0  0  0
   63.4290   32.1940   50.0650 C   0  0  0  0  0  0  0  0  0  0  0  0
   64.4010   32.9040   49.3940 C   0  0  0  0  0  0  0  0  0  0  0  0
   65.7020   33.0960   50.0110 C   0  0  0  0  0  0  0  0  0  0  0  0
   66.5360   32.1190   50.1240 N   0  0  0  0  0  0  0  0  0  0  0  0
   66.3310   30.9710   50.8170 O   0  0  0  0  0  0  0  0  0  0  0  0
   64.1540   33.4310   48.1450 C   0  0  0  0  0  0  0  0  0  0  0  0
   62.9130   33.2230   47.6050 C   0  0  0  0  0  0  0  0  0  0  0  0
   60.4680   30.0790   46.5670 C   0  0  0  0  0  0  0  0  0  0  0  0
   59.4689   35.1008   47.3956 H   0  0  0  0  0  0  0  0  0  0  0  0
   60.7861   35.1699   46.1762 H   0  0  0  0  0  0  0  0  0  0  0  0
   59.4958   36.4196   46.1762 H   0  0  0  0  0  0  0  0  0  0  0  0
   58.3737   35.1541   44.6906 H   0  0  0  0  0  0  0  0  0  0  0  0
   59.5594   33.8045   44.8874 H   0  0  0  0  0  0  0  0  0  0  0  0
   58.3606   33.0222   46.8843 H   0  0  0  0  0  0  0  0  0  0  0  0
   57.1920   34.3705   46.7365 H   0  0  0  0  0  0  0  0  0  0  0  0
   56.2608   32.3190   45.7215 H   0  0  0  0  0  0  0  0  0  0  0  0
   56.5808   33.5549   44.4489 H   0  0  0  0  0  0  0  0  0  0  0  0
   58.8347   32.4352   44.1293 H   0  0  0  0  0  0  0  0  0  0  0  0
   58.1610   31.0864   45.1529 H   0  0  0  0  0  0  0  0  0  0  0  0
   56.5047   31.9978   42.8863 H   0  0  0  0  0  0  0  0  0  0  0  0
   58.0576   31.1161   42.5092 H   0  0  0  0  0  0  0  0  0  0  0  0
   55.5136   30.0762   43.5115 H   0  0  0  0  0  0  0  0  0  0  0  0
   56.8905   29.2152   42.7944 H   0  0  0  0  0  0  0  0  0  0  0  0
   58.0623   29.9554   45.1183 H   0  0  0  0  0  0  0  0  0  0  0  0
   56.3366   29.9598   45.6622 H   0  0  0  0  0  0  0  0  0  0  0  0
   57.2513   27.7892   46.1279 H   0  0  0  0  0  0  0  0  0  0  0  0
   56.1235   27.6449   44.7223 H   0  0  0  0  0  0  0  0  0  0  0  0
   58.3764   26.4209   44.5775 H   0  0  0  0  0  0  0  0  0  0  0  0
   57.8695   27.4690   43.1842 H   0  0  0  0  0  0  0  0  0  0  0  0
   60.0898   28.0498   43.4532 H   0  0  0  0  0  0  0  0  0  0  0  0
   59.2260   29.3070   44.4202 H   0  0  0  0  0  0  0  0  0  0  0  0
   59.9320   26.8358   45.9404 H   0  0  0  0  0  0  0  0  0  0  0  0
   61.3378   27.7648   45.3831 H   0  0  0  0  0  0  0  0  0  0  0  0
   58.7741   27.4158   47.6655 H   0  0  0  0  0  0  0  0  0  0  0  0
   58.2126   29.0190   49.4621 H   0  0  0  0  0  0  0  0  0  0  0  0
   59.1061   31.3444   49.4110 H   0  0  0  0  0  0  0  0  0  0  0  0
   60.8210   32.7086   46.5188 H   0  0  0  0  0  0  0  0  0  0  0  0
   59.9460   33.0060   48.0913 H   0  0  0  0  0  0  0  0  0  0  0  0
   61.4095   31.4476   49.9997 H   0  0  0  0  0  0  0  0  0  0  0  0
   63.6341   31.7756   51.0614 H   0  0  0  0  0  0  0  0  0  0  0  0
   65.9803   34.0912   50.3880 H   0  0  0  0  0  0  0  0  0  0  0  0
   67.1230   30.5250   51.3020 H   0  0  0  0  0  0  0  0  0  0  0  0
   64.9249   33.9976   47.6021 H   0  0  0  0  0  0  0  0  0  0  0  0
   62.6941   33.6365   46.6095 H   0  0  0  0  0  0  0  0  0  0  0  0
   61.1173   30.3827   45.7326 H   0  0  0  0  0  0  0  0  0  0  0  0
  1  2  1  0
  2  3  1  0
  3  4  1  0
  4  5  1  0
  5  6  1  0
  6  7  1  0
  7  8  1  0
  8  9  1  0
  9 10  1  0
 10 11  1  0
 11 12  1  0
 12 13  1  0
 13 14  2  0
 14 15  1  0
 15 16  2  0
 16 17  1  0
 17 18  1  0
 18 19  1  0
 19 20  2  0
 20 21  1  0
 21 22  2  0
 22 23  1  0
 23 24  2  0
 24 25  1  0
 22 26  1  0
 26 27  2  0
 17 28  2  0
 28 13  1  0
 27 19  1  0
  1 29  1  0
  1 30  1  0
  1 31  1  0
  2 32  1  0
  2 33  1  0
  3 34  1  0
  3 35  1  0
  4 36  1  0
  4 37  1  0
  5 38  1  0
  5 39  1  0
  6 40  1  0
  6 41  1  0
  7 42  1  0
  7 43  1  0
  8 44  1  0
  8 45  1  0
  9 46  1  0
  9 47  1  0
 10 48  1  0
 10 49  1  0
 11 50  1  0
 11 51  1  0
 12 52  1  0
 12 53  1  0
 14 54  1  0
 15 55  1  0
 16 56  1  0
 18 57  1  0
 18 58  1  0
 20 59  1  0
 21 60  1  0
 23 61  1  0
 25 62  1  0
 26 63  1  0
 27 64  1  0
 28 65  1  0
M  CHG  2  13   1  19   1
M  END
>  <smiles>  (46) 
CCCCCCCCCCCC[n+]1cccc(C[n+]2ccc(C=NO)cc2)c1

>  <score_type>  (46) 
oracle

>  <origin>  (46) 
adg

>  <m_score__min__energy>  (46) 
-5.75

>  <m_primary>  (46) 
energy

$$$$
47:0
     RDKit          3D

 73 76  0  0  0  0  0  0  0  0999 V2000
   66.8230   33.2780   50.5720 C   0  0  0  0  0  0  0  0  0  0  0  0
   65.6210   33.8400   50.0620 O   0  0  0  0  0  0  0  0  0  0  0  0
   64.6120   33.0290   49.5350 C   0  0  0  0  0  0  0  0  0  0  0  0
   64.1100   33.1770   48.2650 C   0  0  0  0  0  0  0  0  0  0  0  0
   63.1090   32.3570   47.7790 C   0  0  0  0  0  0  0  0  0  0  0  0
   62.5720   31.3480   48.5720 C   0  0  0  0  0  0  0  0  0  0  0  0
   61.4990   30.4940   48.0280 C   0  0  0  0  0  0  0  0  0  0  0  0
   61.2080   30.6860   46.8370 O   0  0  0  0  0  0  0  0  0  0  0  0
   60.8300   29.5150   48.7970 N   0  0  0  0  0  0  0  0  0  0  0  0
   59.8110   28.6230   48.4260 C   0  0  0  0  0  0  0  0  0  0  0  0
   59.9620   27.1550   48.5220 C   0  0  0  0  0  0  0  0  0  0  0  0
   59.3510   26.3460   47.4590 C   0  0  0  0  0  0  0  0  0  0  0  0
   59.1450   27.0910   46.2190 N   0  0  0  0  0  0  0  0  0  0  0  0
   58.0900   26.7110   45.4100 C   0  0  0  0  0  0  0  0  0  0  0  0
   58.0690   27.3960   44.0810 C   0  0  0  0  0  0  0  0  0  0  0  0
   58.8350   28.5660   44.0540 N   0  0  0  0  0  0  0  0  0  0  0  0
   58.0890   29.7280   43.8450 C   0  0  0  0  0  0  0  0  0  0  0  0
   57.3010   30.2780   44.9680 C   0  0  0  0  0  0  0  0  0  0  0  0
   57.7570   29.9020   46.3520 C   0  0  0  0  0  0  0  0  0  0  0  0
   58.2280   30.9930   47.0680 N   0  0  0  0  0  0  0  0  0  0  0  0
   58.6900   32.0580   47.7660 C   0  0  0  0  0  0  0  0  0  0  0  0
   58.9590   32.2600   49.0840 C   0  0  0  0  0  0  0  0  0  0  0  0
   59.4780   33.4150   49.6320 C   0  0  0  0  0  0  0  0  0  0  0  0
   59.7120   33.4970   51.0110 O   0  0  0  0  0  0  0  0  0  0  0  0
   61.0660   33.4250   51.4210 C   0  0  0  0  0  0  0  0  0  0  0  0
   59.7390   34.4430   48.7630 C   0  0  0  0  0  0  0  0  0  0  0  0
   59.5040   34.3410   47.4280 C   0  0  0  0  0  0  0  0  0  0  0  0
   59.7810   35.4150   46.6000 C   0  0  0  0  0  0  0  0  0  0  0  0
   59.5450   35.3370   45.2390 C   0  0  0  0  0  0  0  0  0  0  0  0
   59.0240   34.1440   44.7650 C   0  0  0  0  0  0  0  0  0  0  0  0
   58.7640   33.1130   45.6040 N   0  0  0  0  0  0  0  0  0  0  0  0
   58.9940   33.1860   46.9290 C   0  0  0  0  0  0  0  0  0  0  0  0
   60.1340   28.5940   44.5740 C   0  0  0  0  0  0  0  0  0  0  0  0
   60.3690   27.5640   45.6630 C   0  0  0  0  0  0  0  0  0  0  0  0
   63.0840   31.2150   49.8330 C   0  0  0  0  0  0  0  0  0  0  0  0
   64.0850   32.0300   50.3240 C   0  0  0  0  0  0  0  0  0  0  0  0
   66.7960   33.2906   51.6716 H   0  0  0  0  0  0  0  0  0  0  0  0
   66.9212   32.2406   50.2195 H   0  0  0  0  0  0  0  0  0  0  0  0
   67.6820   33.8678   50.2195 H   0  0  0  0  0  0  0  0  0  0  0  0
   64.5152   33.9688   47.6178 H   0  0  0  0  0  0  0  0  0  0  0  0
   62.7335   32.5036   46.7555 H   0  0  0  0  0  0  0  0  0  0  0  0
   61.1720   29.4590   49.8170 H   0  0  0  0  0  0  0  0  0  0  0  0
   58.9396   28.8809   49.0457 H   0  0  0  0  0  0  0  0  0  0  0  0
   59.7676   28.7729   47.3371 H   0  0  0  0  0  0  0  0  0  0  0  0
   61.0393   26.9330   48.5289 H   0  0  0  0  0  0  0  0  0  0  0  0
   59.4218   26.8739   49.4380 H   0  0  0  0  0  0  0  0  0  0  0  0
   60.0091   25.4902   47.2481 H   0  0  0  0  0  0  0  0  0  0  0  0
   58.3617   26.0258   47.8178 H   0  0  0  0  0  0  0  0  0  0  0  0
   58.1572   25.6263   45.2397 H   0  0  0  0  0  0  0  0  0  0  0  0
   57.1663   26.9996   45.9329 H   0  0  0  0  0  0  0  0  0  0  0  0
   58.4627   26.7024   43.3235 H   0  0  0  0  0  0  0  0  0  0  0  0
   57.0267   27.6818   43.8761 H   0  0  0  0  0  0  0  0  0  0  0  0
   58.7929   30.5120   43.5290 H   0  0  0  0  0  0  0  0  0  0  0  0
   57.3296   29.4284   43.1078 H   0  0  0  0  0  0  0  0  0  0  0  0
   57.3307   31.3750   44.8922 H   0  0  0  0  0  0  0  0  0  0  0  0
   56.2969   29.8414   44.8622 H   0  0  0  0  0  0  0  0  0  0  0  0
   56.9084   29.4619   46.8962 H   0  0  0  0  0  0  0  0  0  0  0  0
   58.5851   29.1853   46.2493 H   0  0  0  0  0  0  0  0  0  0  0  0
   59.1870   31.1260   46.1500 H   0  0  0  0  0  0  0  0  0  0  0  0
   58.7440   31.4300   49.7731 H   0  0  0  0  0  0  0  0  0  0  0  0
   61.1167   33.4223   52.5198 H   0  0  0  0  0  0  0  0  0  0  0  0
   61.5187   32.5015   51.0308 H   0  0  0  0  0  0  0  0  0  0  0  0
   61.6140   34.2953   51.0308 H   0  0  0  0  0  0  0  0  0  0  0  0
   60.1525   35.3820   49.1596 H   0  0  0  0  0  0  0  0  0  0  0  0
   60.1932   36.3404   47.0286 H   0  0  0  0  0  0  0  0  0  0  0  0
   59.7604   36.1805   44.5665 H   0  0  0  0  0  0  0  0  0  0  0  0
   58.8182   34.0323   43.6902 H   0  0  0  0  0  0  0  0  0  0  0  0
   60.8420   28.4025   43.7542 H   0  0  0  0  0  0  0  0  0  0  0  0
   60.2812   29.5854   45.0272 H   0  0  0  0  0  0  0  0  0  0  0  0
   60.9178   26.7123   45.2347 H   0  0  0  0  0  0  0  0  0  0  0  0
   60.9465   28.0433   46.4672 H   0  0  0  0  0  0  0  0  0  0  0  0
   62.6814   30.4251   50.4841 H   0  0  0  0  0  0  0  0  0  0  0  0
   64.4621   31.8813   51.3466 H   0  0  0  0  0  0  0  0  0  0  0  0
  1  2  1  0
  2  3  1  0
  3  4  2  0
  4  5  1  0
  5  6  2  0
  6  7  1  0
  7  8  2  0
  7  9  1  0
  9 10  1  0
 10 11  1  0
 11 12  1  0
 12 13  1  0
 13 14  1  0
 14 15  1  0
 15 16  1  0
 16 17  1  0
 17 18  1  0
 18 19  1  0
 19 20  1  0
 20 21  1  0
 21 22  2  0
 22 23  1  0
 23 24  1  0
 24 25  1  0
 23 26  2  0
 26 27  1  0
 27 28  2  0
 28 29  1  0
 29 30  2  0
 30 31  1  0
 31 32  2  0
 16 33  1  0
 33 34  1  0
  6 35  1  0
 35 36  2  0
 36  3  1  0
 34 13  1  0
 32 21  1  0
 32 27  1  0
  1 37  1  0
  1 38  1  0
  1 39  1  0
  4 40  1  0
  5 41  1  0
  9 42  1  0
 10 43  1  0
 10 44  1  0
 11 45  1  0
 11 46  1  0
 12 47  1  0
 12 48  1  0
 14 49  1  0
 14 50  1  0
 15 51  1  0
 15 52  1  0
 17 53  1  0
 17 54  1  0
 18 55  1  0
 18 56  1  0
 19 57  1  0
 19 58  1  0
 20 59  1  0
 22 60  1  0
 25 61  1  0
 25 62  1  0
 25 63  1  0
 26 64  1  0
 28 65  1  0
 29 66  1  0
 30 67  1  0
 33 68  1  0
 33 69  1  0
 34 70  1  0
 34 71  1  0
 35 72  1  0
 36 73  1  0
M  END
>  <smiles>  (47) 
COc1ccc(C(=O)NCCCN2CCN(CCCNc3cc(OC)cc4cccnc34)CC2)cc1

>  <score_type>  (47) 
oracle

>  <origin>  (47) 
adg

>  <m_score__min__energy>  (47) 
-8.2599999999999998

>  <m_primary>  (47) 
energy

$$$$
48:0
     RDKit          3D

 46 48  0  0  0  0  0  0  0  0999 V2000
   57.0660   34.5890   44.8640 C   0  0  0  0  0  0  0  0  0  0  0  0
   58.8100   34.1720   44.5020 S   0  0  0  0  0  0  0  0  0  0  0  0
   59.3200   33.0370   45.8120 C   0  0  0  0  0  0  0  0  0  0  0  0
   60.4440   33.3090   46.4980 N   0  0  0  0  0  0  0  0  0  0  0  0
   60.8870   32.5090   47.4900 C   0  0  0  0  0  0  0  0  0  0  0  0
   62.0770   32.8120   48.2030 N   0  0  0  0  0  0  0  0  0  0  0  0
   63.3920   32.3560   47.7930 C   0  0  0  0  0  0  0  0  0  0  0  0
   64.3810   33.4240   48.2790 C   0  0  0  0  0  0  0  0  0  0  0  0
   64.4710   33.4260   49.7150 N   0  0  0  0  0  0  0  0  0  0  0  0
   65.3440   32.3510   50.1230 C   0  0  0  0  0  0  0  0  0  0  0  0
   63.1860   33.3180   50.3280 C   0  0  0  0  0  0  0  0  0  0  0  0
   62.0230   33.6200   49.4160 C   0  0  0  0  0  0  0  0  0  0  0  0
   60.1700   31.3780   47.8140 C   0  0  0  0  0  0  0  0  0  0  0  0
   59.0150   31.1040   47.1060 C   0  0  0  0  0  0  0  0  0  0  0  0
   58.5410   31.9050   46.0900 C   0  0  0  0  0  0  0  0  0  0  0  0
   57.3590   31.6450   45.3590 N   0  0  0  0  0  0  0  0  0  0  0  0
   56.9840   30.1990   44.5470 S   0  0  0  0  0  0  0  0  0  0  0  0
   57.1430   30.3420   43.0630 O   0  0  0  0  0  0  0  0  0  0  0  0
   55.5390   29.8040   44.7660 O   0  0  0  0  0  0  0  0  0  0  0  0
   57.9550   28.8450   45.0510 C   0  0  0  0  0  0  0  0  0  0  0  0
   59.3090   28.9070   44.8320 C   0  0  0  0  0  0  0  0  0  0  0  0
   60.1010   27.8360   45.2200 C   0  0  0  0  0  0  0  0  0  0  0  0
   59.5940   26.7330   45.8050 N   0  0  0  0  0  0  0  0  0  0  0  0
   58.2550   26.6520   46.0310 C   0  0  0  0  0  0  0  0  0  0  0  0
   57.4560   27.7130   45.6480 C   0  0  0  0  0  0  0  0  0  0  0  0
   56.9160   34.6249   45.9531 H   0  0  0  0  0  0  0  0  0  0  0  0
   56.8255   35.5700   44.4283 H   0  0  0  0  0  0  0  0  0  0  0  0
   56.4078   33.8229   44.4283 H   0  0  0  0  0  0  0  0  0  0  0  0
   63.6209   31.3845   48.2554 H   0  0  0  0  0  0  0  0  0  0  0  0
   63.4494   32.2202   46.7029 H   0  0  0  0  0  0  0  0  0  0  0  0
   65.3745   33.2136   47.8563 H   0  0  0  0  0  0  0  0  0  0  0  0
   64.0233   34.4102   47.9482 H   0  0  0  0  0  0  0  0  0  0  0  0
   65.3810   32.3055   51.2214 H   0  0  0  0  0  0  0  0  0  0  0  0
   64.9609   31.3980   49.7292 H   0  0  0  0  0  0  0  0  0  0  0  0
   66.3553   32.5304   49.7292 H   0  0  0  0  0  0  0  0  0  0  0  0
   63.0702   32.2898   50.7013 H   0  0  0  0  0  0  0  0  0  0  0  0
   63.1587   34.0748   51.1258 H   0  0  0  0  0  0  0  0  0  0  0  0
   61.0848   33.4047   49.9484 H   0  0  0  0  0  0  0  0  0  0  0  0
   62.0731   34.6807   49.1291 H   0  0  0  0  0  0  0  0  0  0  0  0
   60.5091   30.7082   48.6180 H   0  0  0  0  0  0  0  0  0  0  0  0
   58.4450   30.2001   47.3670 H   0  0  0  0  0  0  0  0  0  0  0  0
   56.6440   32.4320   45.3190 H   0  0  0  0  0  0  0  0  0  0  0  0
   59.7585   29.7913   44.3567 H   0  0  0  0  0  0  0  0  0  0  0  0
   61.1854   27.8893   45.0432 H   0  0  0  0  0  0  0  0  0  0  0  0
   57.8179   25.7623   46.5078 H   0  0  0  0  0  0  0  0  0  0  0  0
   56.3730   27.6479   45.8293 H   0  0  0  0  0  0  0  0  0  0  0  0
  1  2  1  0
  2  3  1  0
  3  4  2  0
  4  5  1  0
  5  6  1  0
  6  7  1  0
  7  8  1  0
  8  9  1  0
  9 10  1  0
  9 11  1  0
 11 12  1  0
  5 13  2  0
 13 14  1  0
 14 15  2  0
 15 16  1  0
 16 17  1  0
 17 18  2  0
 17 19  2  0
 17 20  1  0
 20 21  2  0
 21 22  1  0
 22 23  2  0
 23 24  1  0
 24 25  2  0
 15  3  1  0
 25 20  1  0
 12  6  1  0
  1 26  1  0
  1 27  1  0
  1 28  1  0
  7 29  1  0
  7 30  1  0
  8 31  1  0
  8 32  1  0
 10 33  1  0
 10 34  1  0
 10 35  1  0
 11 36  1  0
 11 37  1  0
 12 38  1  0
 12 39  1  0
 13 40  1  0
 14 41  1  0
 16 42  1  0
 21 43  1  0
 22 44  1  0
 24 45  1  0
 25 46  1  0
M  END
>  <smiles>  (48) 
CSc1nc(N2CCN(C)CC2)ccc1NS(=O)(=O)c1ccncc1

>  <score_type>  (48) 
oracle

>  <origin>  (48) 
adg

>  <m_score__min__energy>  (48) 
-8.7200000000000006

>  <m_primary>  (48) 
energy

$$$$
