0:0
     RDKit          3D

 43 46  0  0  0  0  0  0  0  0999 V2000
   57.3630   21.5170   45.9360 C   0  0  0  0  0  0  0  0  0  0  0  0
   57.3960   22.5900   46.8720 O   0  0  0  0  0  0  0  0  0  0  0  0
   57.5140   23.9430   46.5210 C   0  0  0  0  0  0  0  0  0  0  0  0
   58.7040   24.4880   46.0040 C   0  0  0  0  0  0  0  0  0  0  0  0
   58.7710   25.8430   45.6680 C   0  0  0  0  0  0  0  0  0  0  0  0
   57.6560   26.6780   45.8490 C   0  0  0  0  0  0  0  0  0  0  0  0
   57.7300   28.1150   45.4780 C   0  0  0  0  0  0  0  0  0  0  0  0
   57.2250   28.5210   44.2850 N   0  0  0  0  0  0  0  0  0  0  0  0
   57.3370   29.8110   43.8850 C   0  0  0  0  0  0  0  0  0  0  0  0
   56.9000   30.2150   42.6180 C   0  0  0  0  0  0  0  0  0  0  0  0
   57.0670   31.5020   42.2230 N   0  0  0  0  0  0  0  0  0  0  0  0
   57.6510   32.4110   43.0440 C   0  0  0  0  0  0  0  0  0  0  0  0
   58.0690   32.0410   44.2810 N   0  0  0  0  0  0  0  0  0  0  0  0
   57.9170   30.7670   44.7430 C   0  0  0  0  0  0  0  0  0  0  0  0
   58.3360   30.4090   46.0090 N   0  0  0  0  0  0  0  0  0  0  0  0
   58.8620   31.4820   46.9200 C   0  0  0  0  0  0  0  0  0  0  0  0
   57.9720   32.7170   47.1170 C   0  0  0  0  0  0  0  0  0  0  0  0
   58.9090   33.8070   47.5950 C   0  0  0  0  0  0  0  0  0  0  0  0
   60.2110   33.5570   46.8550 C   0  0  0  0  0  0  0  0  0  0  0  0
   60.1840   32.0940   46.4140 C   0  0  0  0  0  0  0  0  0  0  0  0
   58.3490   29.0600   46.3270 C   0  0  0  0  0  0  0  0  0  0  0  0
   58.9550   28.6350   47.3470 O   0  0  0  0  0  0  0  0  0  0  0  0
   56.4670   26.1290   46.3590 C   0  0  0  0  0  0  0  0  0  0  0  0
   56.4000   24.7730   46.6920 C   0  0  0  0  0  0  0  0  0  0  0  0
   57.3336   20.5595   46.4767 H   0  0  0  0  0  0  0  0  0  0  0  0
   56.4673   21.6090   45.3042 H   0  0  0  0  0  0  0  0  0  0  0  0
   58.2627   21.5538   45.3042 H   0  0  0  0  0  0  0  0  0  0  0  0
   59.5852   23.8448   45.8637 H   0  0  0  0  0  0  0  0  0  0  0  0
   59.7037   26.2586   45.2588 H   0  0  0  0  0  0  0  0  0  0  0  0
   56.7660   27.8250   43.6520 H   0  0  0  0  0  0  0  0  0  0  0  0
   56.4217   29.4897   41.9434 H   0  0  0  0  0  0  0  0  0  0  0  0
   57.7858   33.4492   42.7064 H   0  0  0  0  0  0  0  0  0  0  0  0
   58.9466   30.9145   47.8585 H   0  0  0  0  0  0  0  0  0  0  0  0
   57.4963   33.0055   46.1680 H   0  0  0  0  0  0  0  0  0  0  0  0
   57.1591   32.5289   47.8338 H   0  0  0  0  0  0  0  0  0  0  0  0
   58.5067   34.7999   47.3453 H   0  0  0  0  0  0  0  0  0  0  0  0
   59.0434   33.7875   48.6866 H   0  0  0  0  0  0  0  0  0  0  0  0
   60.2828   34.2172   45.9781 H   0  0  0  0  0  0  0  0  0  0  0  0
   61.0800   33.7635   47.4970 H   0  0  0  0  0  0  0  0  0  0  0  0
   60.2312   32.0315   45.3168 H   0  0  0  0  0  0  0  0  0  0  0  0
   61.0461   31.5490   46.8261 H   0  0  0  0  0  0  0  0  0  0  0  0
   55.5839   26.7701   46.4970 H   0  0  0  0  0  0  0  0  0  0  0  0
   55.4643   24.3549   47.0916 H   0  0  0  0  0  0  0  0  0  0  0  0
  1  2  1  0
  2  3  1  0
  3  4  2  0
  4  5  1  0
  5  6  2  0
  6  7  1  0
  7  8  2  0
  8  9  1  0
  9 10  2  0
 10 11  1  0
 11 12  2  0
 12 13  1  0
 13 14  2  0
 14 15  1  0
 15 16  1  0
 16 17  1  0
 17 18  1  0
 18 19  1  0
 19 20  1  0
 15 21  1  0
 21 22  2  0
  6 23  1  0
 23 24  2  0
 24  3  1  0
 21  7  1  0
 14  9  1  0
 20 16  1  0
  1 25  1  0
  1 26  1  0
  1 27  1  0
  4 28  1  0
  5 29  1  0
  8 30  1  0
 10 31  1  0
 12 32  1  0
 16 33  1  0
 17 34  1  0
 17 35  1  0
 18 36  1  0
 18 37  1  0
 19 38  1  0
 19 39  1  0
 20 40  1  0
 20 41  1  0
 23 42  1  0
 24 43  1  0
M  CHG  1   8   1
M  END
>  <UniqueID>  (1) 
1

>  <SMILES>  (1) 
COc1ccc(-c2[nH+]c3cncnc3n(C3CCCC3)c2=O)cc1

>  <Energy>  (1) 
73.17484871204604

>  <Genealogy>  (1) 
COc1ccc(-c2[nH+]c3cncnc3n(C3CCCC3)c2=O)cc1 (protonated)
COc1ccc(-c2[nH+]c3cncnc3n(C3CCCC3)c2=O)cc1 (3D coordinates assigned)
COc1ccc(-c2[nH+]c3cncnc3n(C3CCCC3)c2=O)cc1 (nonaromatic ring conformer: 73.17484871204604 kcal/mol)

>  <smiles>  (1) 
COc1ccc(-c2nc3cncnc3n(C3CCCC3)c2=O)cc1

>  <score_type>  (1) 
oracle

>  <origin>  (1) 
adg

>  <m_score__min__energy>  (1) 
-5.6100000000000003

>  <m_primary>  (1) 
energy

$$$$
1:0
     RDKit          3D

 42 43  0  0  0  0  0  0  0  0999 V2000
   61.0960   26.3120   46.5230 C   0  0  0  0  0  0  0  0  0  0  0  0
   59.8170   26.4810   47.1270 O   0  0  0  0  0  0  0  0  0  0  0  0
   58.7190   27.1000   46.5090 C   0  0  0  0  0  0  0  0  0  0  0  0
   58.8400   28.3350   45.8510 C   0  0  0  0  0  0  0  0  0  0  0  0
   57.7310   28.9260   45.2370 C   0  0  0  0  0  0  0  0  0  0  0  0
   57.8730   30.2350   44.5030 C   0  0  0  0  0  0  0  0  0  0  0  0
   57.1990   31.3230   45.2280 N   0  0  0  0  0  0  0  0  0  0  0  0
   57.4310   32.6480   44.6290 C   0  0  0  0  0  0  0  0  0  0  0  0
   58.2780   33.5240   45.5060 C   0  0  0  0  0  0  0  0  0  0  0  0
   58.9600   34.6570   45.1000 C   0  0  0  0  0  0  0  0  0  0  0  0
   59.6060   35.1270   46.2240 C   0  0  0  0  0  0  0  0  0  0  0  0
   59.2720   34.2530   47.2400 C   0  0  0  0  0  0  0  0  0  0  0  0
   59.7460   34.3410   48.6510 C   0  0  0  0  0  0  0  0  0  0  0  0
   58.4830   33.3080   46.7840 O   0  0  0  0  0  0  0  0  0  0  0  0
   56.4920   28.2780   45.2780 C   0  0  0  0  0  0  0  0  0  0  0  0
   56.3440   27.0410   45.9370 C   0  0  0  0  0  0  0  0  0  0  0  0
   55.0990   26.3950   45.9800 O   0  0  0  0  0  0  0  0  0  0  0  0
   54.8690   25.0370   45.6180 C   0  0  0  0  0  0  0  0  0  0  0  0
   57.4740   26.4480   46.5590 C   0  0  0  0  0  0  0  0  0  0  0  0
   57.4340   25.2170   47.2420 O   0  0  0  0  0  0  0  0  0  0  0  0
   57.7160   23.9340   46.6950 C   0  0  0  0  0  0  0  0  0  0  0  0
   61.8612   26.2109   47.3068 H   0  0  0  0  0  0  0  0  0  0  0  0
   61.0896   25.4069   45.8979 H   0  0  0  0  0  0  0  0  0  0  0  0
   61.3249   27.1877   45.8979 H   0  0  0  0  0  0  0  0  0  0  0  0
   59.8157   28.8419   45.8183 H   0  0  0  0  0  0  0  0  0  0  0  0
   58.9414   30.4772   44.4033 H   0  0  0  0  0  0  0  0  0  0  0  0
   57.4063   30.1330   43.5121 H   0  0  0  0  0  0  0  0  0  0  0  0
   57.5540   31.3330   46.2140 H   0  0  0  0  0  0  0  0  0  0  0  0
   57.9394   32.5162   43.6625 H   0  0  0  0  0  0  0  0  0  0  0  0
   56.4544   33.1383   44.5028 H   0  0  0  0  0  0  0  0  0  0  0  0
   58.9824   35.0926   44.0902 H   0  0  0  0  0  0  0  0  0  0  0  0
   60.2529   36.0137   46.2964 H   0  0  0  0  0  0  0  0  0  0  0  0
   58.8977   34.1835   49.3333 H   0  0  0  0  0  0  0  0  0  0  0  0
   60.5090   33.5692   48.8303 H   0  0  0  0  0  0  0  0  0  0  0  0
   60.1811   35.3353   48.8303 H   0  0  0  0  0  0  0  0  0  0  0  0
   55.6215   28.7401   44.7894 H   0  0  0  0  0  0  0  0  0  0  0  0
   54.7658   24.4274   46.5278 H   0  0  0  0  0  0  0  0  0  0  0  0
   53.9463   24.9673   45.0233 H   0  0  0  0  0  0  0  0  0  0  0  0
   55.7173   24.6673   45.0233 H   0  0  0  0  0  0  0  0  0  0  0  0
   57.8742   23.2140   47.5115 H   0  0  0  0  0  0  0  0  0  0  0  0
   56.8687   23.6053   46.0753 H   0  0  0  0  0  0  0  0  0  0  0  0
   58.6231   23.9909   46.0753 H   0  0  0  0  0  0  0  0  0  0  0  0
  1  2  1  0
  2  3  1  0
  3  4  2  0
  4  5  1  0
  5  6  1  0
  6  7  1  0
  7  8  1  0
  8  9  1  0
  9 10  2  0
 10 11  1  0
 11 12  2  0
 12 13  1  0
 12 14  1  0
  5 15  2  0
 15 16  1  0
 16 17  1  0
 17 18  1  0
 16 19  2  0
 19 20  1  0
 20 21  1  0
 19  3  1  0
 14  9  1  0
  1 22  1  0
  1 23  1  0
  1 24  1  0
  4 25  1  0
  6 26  1  0
  6 27  1  0
  7 28  1  0
  8 29  1  0
  8 30  1  0
 10 31  1  0
 11 32  1  0
 13 33  1  0
 13 34  1  0
 13 35  1  0
 15 36  1  0
 18 37  1  0
 18 38  1  0
 18 39  1  0
 21 40  1  0
 21 41  1  0
 21 42  1  0
M  END
>  <UniqueID>  (2) 
2

>  <SMILES>  (2) 
COc1cc(CNCc2ccc(C)o2)cc(OC)c1OC

>  <Energy>  (2) 
66.13992412522828

>  <Genealogy>  (2) 
COc1cc(CNCc2ccc(C)o2)cc(OC)c1OC (3D coordinates assigned)
COc1cc(CNCc2ccc(C)o2)cc(OC)c1OC (optimized conformer: 66.13992412522828 kcal/mol)

>  <smiles>  (2) 
COc1cc(CNCc2ccc(C)o2)cc(OC)c1OC

>  <score_type>  (2) 
oracle

>  <origin>  (2) 
adg

>  <m_score__min__energy>  (2) 
-6.1399999999999997

>  <m_primary>  (2) 
energy

$$$$
2:0
     RDKit          3D

 47 50  0  0  0  0  0  0  0  0999 V2000
   56.3060   30.0170   42.6080 C   0  0  0  0  0  0  0  0  0  0  0  0
   57.0350   30.9170   43.5470 C   0  0  0  0  0  0  0  0  0  0  0  0
   56.9610   30.8000   44.8970 N   0  0  0  0  0  0  0  0  0  0  0  0
   57.6700   31.7850   45.5070 C   0  0  0  0  0  0  0  0  0  0  0  0
   57.7970   31.9260   46.8850 C   0  0  0  0  0  0  0  0  0  0  0  0
   58.5690   32.9940   47.3740 C   0  0  0  0  0  0  0  0  0  0  0  0
   59.1750   33.8860   46.5170 N   0  0  0  0  0  0  0  0  0  0  0  0
   60.0080   34.9600   47.0810 C   0  0  0  0  0  0  0  0  0  0  0  0
   60.4930   34.5790   48.4600 C   0  0  0  0  0  0  0  0  0  0  0  0
   59.7260   34.7070   49.4030 O   0  0  0  0  0  0  0  0  0  0  0  0
   61.8500   34.0950   48.6690 N   0  0  0  0  0  0  0  0  0  0  0  0
   62.4440   33.5180   47.4570 C   0  0  0  0  0  0  0  0  0  0  0  0
   61.7240   32.2520   46.9890 C   0  0  0  0  0  0  0  0  0  0  0  0
   61.3200   31.3410   48.0820 N   0  0  0  0  0  0  0  0  0  0  0  0
   60.7460   30.0410   47.7360 C   0  0  0  0  0  0  0  0  0  0  0  0
   60.6190   29.0130   48.7050 C   0  0  0  0  0  0  0  0  0  0  0  0
   60.0720   27.7720   48.3710 C   0  0  0  0  0  0  0  0  0  0  0  0
   59.6390   27.5210   47.0700 C   0  0  0  0  0  0  0  0  0  0  0  0
   59.7550   28.5110   46.0950 C   0  0  0  0  0  0  0  0  0  0  0  0
   59.2170   28.1880   44.4570 Cl  0  0  0  0  0  0  0  0  0  0  0  0
   60.3020   29.7560   46.4190 C   0  0  0  0  0  0  0  0  0  0  0  0
   61.3330   31.7620   49.5020 C   0  0  0  0  0  0  0  0  0  0  0  0
   61.9580   33.1440   49.7860 C   0  0  0  0  0  0  0  0  0  0  0  0
   59.0450   33.7400   45.1540 C   0  0  0  0  0  0  0  0  0  0  0  0
   59.5980   34.5450   44.3550 O   0  0  0  0  0  0  0  0  0  0  0  0
   58.2870   32.6820   44.6590 C   0  0  0  0  0  0  0  0  0  0  0  0
   57.9540   32.2570   43.0670 S   0  0  0  0  0  0  0  0  0  0  0  0
   55.7156   29.2882   43.1827 H   0  0  0  0  0  0  0  0  0  0  0  0
   55.6344   30.6147   41.9743 H   0  0  0  0  0  0  0  0  0  0  0  0
   57.0302   29.4841   41.9743 H   0  0  0  0  0  0  0  0  0  0  0  0
   57.3069   31.2213   47.5729 H   0  0  0  0  0  0  0  0  0  0  0  0
   58.6913   33.1196   48.4599 H   0  0  0  0  0  0  0  0  0  0  0  0
   60.8750   35.1289   46.4254 H   0  0  0  0  0  0  0  0  0  0  0  0
   59.4063   35.8779   47.1546 H   0  0  0  0  0  0  0  0  0  0  0  0
   62.4500   34.9150   48.9280 H   0  0  0  0  0  0  0  0  0  0  0  0
   62.3977   34.2665   46.6523 H   0  0  0  0  0  0  0  0  0  0  0  0
   63.4810   33.2400   47.6964 H   0  0  0  0  0  0  0  0  0  0  0  0
   60.8197   32.5532   46.4399 H   0  0  0  0  0  0  0  0  0  0  0  0
   62.4389   31.6963   46.3644 H   0  0  0  0  0  0  0  0  0  0  0  0
   60.9566   29.1960   49.7358 H   0  0  0  0  0  0  0  0  0  0  0  0
   59.9825   26.9889   49.1383 H   0  0  0  0  0  0  0  0  0  0  0  0
   59.2063   26.5430   46.8128 H   0  0  0  0  0  0  0  0  0  0  0  0
   60.3896   30.5275   45.6399 H   0  0  0  0  0  0  0  0  0  0  0  0
   60.2923   31.7825   49.8577 H   0  0  0  0  0  0  0  0  0  0  0  0
   61.9695   31.0327   50.0245 H   0  0  0  0  0  0  0  0  0  0  0  0
   61.4509   33.5790   50.6599 H   0  0  0  0  0  0  0  0  0  0  0  0
   63.0318   32.9766   49.9563 H   0  0  0  0  0  0  0  0  0  0  0  0
  1  2  1  0
  2  3  2  0
  3  4  1  0
  4  5  1  0
  5  6  2  0
  6  7  1  0
  7  8  1  0
  8  9  1  0
  9 10  2  0
  9 11  1  0
 11 12  1  0
 12 13  1  0
 13 14  1  0
 14 15  1  0
 15 16  2  0
 16 17  1  0
 17 18  2  0
 18 19  1  0
 19 20  1  0
 19 21  2  0
 14 22  1  0
 22 23  1  0
  7 24  1  0
 24 25  2  0
 24 26  1  0
 26 27  1  0
 27  2  1  0
 26  4  2  0
 23 11  1  0
 21 15  1  0
  1 28  1  0
  1 29  1  0
  1 30  1  0
  5 31  1  0
  6 32  1  0
  8 33  1  0
  8 34  1  0
 11 35  1  0
 12 36  1  0
 12 37  1  0
 13 38  1  0
 13 39  1  0
 16 40  1  0
 17 41  1  0
 18 42  1  0
 21 43  1  0
 22 44  1  0
 22 45  1  0
 23 46  1  0
 23 47  1  0
M  CHG  1  11   1
M  END
>  <UniqueID>  (3) 
3

>  <SMILES>  (3) 
Cc1nc2ccn(CC(=O)[NH+]3CCN(c4cccc(Cl)c4)CC3)c(=O)c2s1

>  <Energy>  (3) 
97.8543186390066

>  <Genealogy>  (3) 
Cc1nc2ccn(CC(=O)[NH+]3CCN(c4cccc(Cl)c4)CC3)c(=O)c2s1 (protonated)
Cc1nc2ccn(CC(=O)[NH+]3CCN(c4cccc(Cl)c4)CC3)c(=O)c2s1 (3D coordinates assigned)
Cc1nc2ccn(CC(=O)[NH+]3CCN(c4cccc(Cl)c4)CC3)c(=O)c2s1 (nonaromatic ring conformer: 97.8543186390066 kcal/mol)

>  <smiles>  (3) 
Cc1nc2ccn(CC(=O)N3CCN(c4cccc(Cl)c4)CC3)c(=O)c2s1

>  <score_type>  (3) 
oracle

>  <origin>  (3) 
adg

>  <m_score__min__energy>  (3) 
-7.4400000000000004

>  <m_primary>  (3) 
energy

$$$$
3:0
     RDKit          3D

 55 58  0  0  0  0  0  0  0  0999 V2000
   57.2370   31.6340   51.6150 C   0  0  0  0  0  0  0  0  0  0  0  0
   57.5570   30.5660   50.7300 O   0  0  0  0  0  0  0  0  0  0  0  0
   58.7890   30.4210   50.0770 C   0  0  0  0  0  0  0  0  0  0  0  0
   59.9800   30.1270   50.7680 C   0  0  0  0  0  0  0  0  0  0  0  0
   61.1840   29.9990   50.0710 C   0  0  0  0  0  0  0  0  0  0  0  0
   61.2150   30.1570   48.6840 C   0  0  0  0  0  0  0  0  0  0  0  0
   60.0340   30.4400   47.9810 C   0  0  0  0  0  0  0  0  0  0  0  0
   60.0630   30.6520   46.4920 C   0  0  0  0  0  0  0  0  0  0  0  0
   59.2610   31.8380   46.1540 N   0  0  0  0  0  0  0  0  0  0  0  0
   57.8300   31.6030   45.8280 C   0  0  1  0  0  0  0  0  0  0  0  0
   57.2970   32.5520   44.7270 C   0  0  0  0  0  0  0  0  0  0  0  0
   57.9310   32.3060   43.3490 C   0  0  0  0  0  0  0  0  0  0  0  0
   57.0790   31.4260   42.4270 C   0  0  0  0  0  0  0  0  0  0  0  0
   56.6860   30.0970   43.0760 C   0  0  0  0  0  0  0  0  0  0  0  0
   57.6470   29.7110   44.0990 N   0  0  0  0  0  0  0  0  0  0  0  0
   57.6150   30.1510   45.4600 C   0  0  0  0  0  0  0  0  0  0  0  0
   57.3710   29.3010   46.3570 O   0  0  0  0  0  0  0  0  0  0  0  0
   59.7100   33.3270   46.9770 S   0  0  0  0  0  0  0  0  0  0  0  0
   58.7410   33.5600   48.1040 O   0  0  0  0  0  0  0  0  0  0  0  0
   59.5600   34.4470   45.9860 O   0  0  0  0  0  0  0  0  0  0  0  0
   61.3680   33.4170   47.6420 C   0  0  0  0  0  0  0  0  0  0  0  0
   62.4760   33.4880   46.7790 C   0  0  0  0  0  0  0  0  0  0  0  0
   63.7770   33.5390   47.2750 C   0  0  0  0  0  0  0  0  0  0  0  0
   64.0080   33.5310   48.6450 C   0  0  0  0  0  0  0  0  0  0  0  0
   62.9320   33.4860   49.5380 C   0  0  0  0  0  0  0  0  0  0  0  0
   63.1660   33.4960   50.9200 C   0  0  0  0  0  0  0  0  0  0  0  0
   62.1240   33.4680   51.7890 N   0  0  0  0  0  0  0  0  0  0  0  0
   60.8380   33.4340   51.3590 C   0  0  0  0  0  0  0  0  0  0  0  0
   60.5500   33.4210   49.9930 C   0  0  0  0  0  0  0  0  0  0  0  0
   61.5990   33.4380   49.0490 C   0  0  0  0  0  0  0  0  0  0  0  0
   58.8280   30.5780   48.6850 C   0  0  0  0  0  0  0  0  0  0  0  0
   57.3396   31.2914   52.6553 H   0  0  0  0  0  0  0  0  0  0  0  0
   57.9224   32.4757   51.4368 H   0  0  0  0  0  0  0  0  0  0  0  0
   56.2017   31.9601   51.4368 H   0  0  0  0  0  0  0  0  0  0  0  0
   59.9624   29.9977   51.8602 H   0  0  0  0  0  0  0  0  0  0  0  0
   62.1116   29.7728   50.6172 H   0  0  0  0  0  0  0  0  0  0  0  0
   62.1669   30.0594   48.1415 H   0  0  0  0  0  0  0  0  0  0  0  0
   61.1014   30.8046   46.1627 H   0  0  0  0  0  0  0  0  0  0  0  0
   59.6461   29.7688   45.9859 H   0  0  0  0  0  0  0  0  0  0  0  0
   57.2451   31.8344   46.7304 H   0  0  0  0  0  0  0  0  0  0  0  0
   56.2096   32.4099   44.6408 H   0  0  0  0  0  0  0  0  0  0  0  0
   57.5602   33.5771   45.0269 H   0  0  0  0  0  0  0  0  0  0  0  0
   58.0828   33.2785   42.8580 H   0  0  0  0  0  0  0  0  0  0  0  0
   58.8764   31.7706   43.5210 H   0  0  0  0  0  0  0  0  0  0  0  0
   56.1621   31.9746   42.1656 H   0  0  0  0  0  0  0  0  0  0  0  0
   57.6829   31.1952   41.5370 H   0  0  0  0  0  0  0  0  0  0  0  0
   55.6927   30.2017   43.5369 H   0  0  0  0  0  0  0  0  0  0  0  0
   56.6704   29.3188   42.2987 H   0  0  0  0  0  0  0  0  0  0  0  0
   62.3124   33.5036   45.6913 H   0  0  0  0  0  0  0  0  0  0  0  0
   64.6264   33.5859   46.5777 H   0  0  0  0  0  0  0  0  0  0  0  0
   65.0387   33.5601   49.0282 H   0  0  0  0  0  0  0  0  0  0  0  0
   64.1973   33.5266   51.3013 H   0  0  0  0  0  0  0  0  0  0  0  0
   60.0171   33.4166   52.0910 H   0  0  0  0  0  0  0  0  0  0  0  0
   59.5044   33.3975   49.6521 H   0  0  0  0  0  0  0  0  0  0  0  0
   57.9028   30.8121   48.1380 H   0  0  0  0  0  0  0  0  0  0  0  0
  1  2  1  0
  2  3  1  0
  3  4  2  0
  4  5  1  0
  5  6  2  0
  6  7  1  0
  7  8  1  0
  8  9  1  0
  9 10  1  0
 10 11  1  0
 11 12  1  0
 12 13  1  0
 13 14  1  0
 14 15  1  0
 15 16  1  0
 16 17  2  0
  9 18  1  0
 18 19  2  0
 18 20  2  0
 18 21  1  0
 21 22  2  0
 22 23  1  0
 23 24  2  0
 24 25  1  0
 25 26  2  0
 26 27  1  0
 27 28  2  0
 28 29  1  0
 29 30  2  0
  7 31  2  0
 31  3  1  0
 16 10  1  0
 30 21  1  0
 30 25  1  0
  1 32  1  0
  1 33  1  0
  1 34  1  0
  4 35  1  0
  5 36  1  0
  6 37  1  0
  8 38  1  0
  8 39  1  0
 10 40  1  1
 11 41  1  0
 11 42  1  0
 12 43  1  0
 12 44  1  0
 13 45  1  0
 13 46  1  0
 14 47  1  0
 14 48  1  0
 22 49  1  0
 23 50  1  0
 24 51  1  0
 26 52  1  0
 28 53  1  0
 29 54  1  0
 31 55  1  0
M  CHG  1  15  -1
M  END
>  <UniqueID>  (4) 
4

>  <SMILES>  (4) 
COc1cccc(CN([C@H]2CCCC[N-]C2=O)S(=O)(=O)c2cccc3cnccc23)c1

>  <Energy>  (4) 
76.13790343990584

>  <Genealogy>  (4) 
COc1cccc(CN(C2CCCC[N-]C2=O)S(=O)(=O)c2cccc3cnccc23)c1 (protonated)
COc1cccc(CN([C@H]2CCCC[N-]C2=O)S(=O)(=O)c2cccc3cnccc23)c1 (chirality)
COc1cccc(CN([C@H]2CCCC[N-]C2=O)S(=O)(=O)c2cccc3cnccc23)c1 (3D coordinates assigned)
COc1cccc(CN([C@H]2CCCC[N-]C2=O)S(=O)(=O)c2cccc3cnccc23)c1 (nonaromatic ring conformer: 76.13790343990584 kcal/mol)

>  <smiles>  (4) 
COc1cccc(CN(C2CCCCNC2=O)S(=O)(=O)c2cccc3cnccc23)c1

>  <score_type>  (4) 
oracle

>  <origin>  (4) 
adg

>  <m_score__min__energy>  (4) 
-8.9499999999999993

>  <m_primary>  (4) 
energy

$$$$
4:0
     RDKit          3D

 30 31  0  0  0  0  0  0  0  0999 V2000
   56.0747   33.0353   44.7865 H   0  0  0  0  0  0  0  0  0  0  0  0
   57.1080   32.6760   44.9010 C   0  0  0  0  0  0  0  0  0  0  0  0
   57.4390   31.5380   44.2710 C   0  0  0  0  0  0  0  0  0  0  0  0
   57.3773   31.5311   43.1728 H   0  0  0  0  0  0  0  0  0  0  0  0
   57.8810   30.2900   44.9370 C   0  0  0  0  0  0  0  0  0  0  0  0
   59.2360   30.0930   45.2590 C   0  0  0  0  0  0  0  0  0  0  0  0
   59.9710   30.8798   45.0340 H   0  0  0  0  0  0  0  0  0  0  0  0
   59.6540   28.9060   45.8620 C   0  0  0  0  0  0  0  0  0  0  0  0
   60.7132   28.7660   46.1238 H   0  0  0  0  0  0  0  0  0  0  0  0
   58.7300   27.8970   46.1330 C   0  0  0  0  0  0  0  0  0  0  0  0
   59.0607   26.9646   46.6140 H   0  0  0  0  0  0  0  0  0  0  0  0
   57.3860   28.0680   45.7950 C   0  0  0  0  0  0  0  0  0  0  0  0
   56.6636   27.2651   46.0037 H   0  0  0  0  0  0  0  0  0  0  0  0
   56.9490   29.2630   45.1880 C   0  0  0  0  0  0  0  0  0  0  0  0
   55.6040   29.4650   44.8340 O   0  0  0  0  0  0  0  0  0  0  0  0
   55.1450   29.7170   43.5110 C   0  0  0  0  0  0  0  0  0  0  0  0
   54.1814   30.2460   43.5517 H   0  0  0  0  0  0  0  0  0  0  0  0
   55.8816   30.3372   42.9792 H   0  0  0  0  0  0  0  0  0  0  0  0
   55.0171   28.7626   42.9792 H   0  0  0  0  0  0  0  0  0  0  0  0
   58.0210   33.4860   45.7370 C   0  0  0  0  0  0  0  0  0  0  0  0
   58.7750   34.5430   45.1930 C   0  0  0  0  0  0  0  0  0  0  0  0
   58.6761   34.7947   44.1267 H   0  0  0  0  0  0  0  0  0  0  0  0
   59.6490   35.2740   46.0030 C   0  0  0  0  0  0  0  0  0  0  0  0
   60.2229   36.1099   45.5766 H   0  0  0  0  0  0  0  0  0  0  0  0
   59.7950   34.9450   47.3530 C   0  0  0  0  0  0  0  0  0  0  0  0
   60.4784   35.5256   47.9901 H   0  0  0  0  0  0  0  0  0  0  0  0
   59.0730   33.8790   47.8930 C   0  0  0  0  0  0  0  0  0  0  0  0
   59.1934   33.6160   48.9543 H   0  0  0  0  0  0  0  0  0  0  0  0
   58.1970   33.1450   47.0870 C   0  0  0  0  0  0  0  0  0  0  0  0
   57.6429   32.2958   47.5134 H   0  0  0  0  0  0  0  0  0  0  0  0
  1  2  1  0
  2  3  2  0
  3  4  1  0
  3  5  1  0
  5  6  2  0
  6  7  1  0
  6  8  1  0
  8  9  1  0
  8 10  2  0
 10 11  1  0
 10 12  1  0
 12 13  1  0
 12 14  2  0
 14 15  1  0
 15 16  1  0
 16 17  1  0
 16 18  1  0
 16 19  1  0
  2 20  1  0
 20 21  2  0
 21 22  1  0
 21 23  1  0
 23 24  1  0
 23 25  2  0
 25 26  1  0
 25 27  1  0
 27 28  1  0
 27 29  2  0
 29 30  1  0
 14  5  1  0
 29 20  1  0
M  END
>  <UniqueID>  (5) 
5

>  <SMILES>  (5) 
COc1ccccc1/C=C\c1ccccc1

>  <Energy>  (5) 
40.03478531133617

>  <Genealogy>  (5) 
COc1ccccc1/C=C\c1ccccc1 (cis-trans isomerization)
COc1ccccc1/C=C\c1ccccc1 (3D coordinates assigned)
COc1ccccc1/C=C\c1ccccc1 (optimized conformer: 40.03478531133617 kcal/mol)

>  <smiles>  (5) 
COc1ccccc1C=Cc1ccccc1

>  <score_type>  (5) 
oracle

>  <origin>  (5) 
adg

>  <m_score__min__energy>  (5) 
-6.6100000000000003

>  <m_primary>  (5) 
energy

$$$$
5:0
     RDKit          3D

 45 47  0  0  0  0  0  0  0  0999 V2000
   63.4000   33.8340   46.3760 C   0  0  0  0  0  0  0  0  0  0  0  0
   63.3410   33.7880   47.9120 C   0  0  0  0  0  0  0  0  0  0  0  0
   62.1700   33.0630   48.4650 N   0  0  0  0  0  0  0  0  0  0  0  0
   61.6460   33.5950   49.7450 C   0  0  0  0  0  0  0  0  0  0  0  0
   60.2390   34.1890   49.6530 C   0  0  0  0  0  0  0  0  0  0  0  0
   62.2300   31.5880   48.3730 C   0  0  0  0  0  0  0  0  0  0  0  0
   61.0260   31.0240   47.5830 C   0  0  0  0  0  0  0  0  0  0  0  0
   59.8680   31.9410   47.5490 N   0  0  0  0  0  0  0  0  0  0  0  0
   59.1020   31.8070   46.3220 C   0  0  0  0  0  0  0  0  0  0  0  0
   58.9120   32.9460   45.4710 C   0  0  0  0  0  0  0  0  0  0  0  0
   59.5310   34.7000   45.9510 Br  0  0  0  0  0  0  0  0  0  0  0  0
   58.2280   32.8280   44.2450 C   0  0  0  0  0  0  0  0  0  0  0  0
   57.7230   31.5880   43.8720 C   0  0  0  0  0  0  0  0  0  0  0  0
   57.8700   30.5170   44.6900 C   0  0  0  0  0  0  0  0  0  0  0  0
   57.2770   29.4040   44.1760 C   0  0  0  0  0  0  0  0  0  0  0  0
   57.2970   28.2050   44.8870 C   0  0  0  0  0  0  0  0  0  0  0  0
   57.9350   28.1840   46.1410 C   0  0  0  0  0  0  0  0  0  0  0  0
   58.5420   29.3490   46.6630 C   0  0  0  0  0  0  0  0  0  0  0  0
   58.5280   30.5580   45.9210 C   0  0  0  0  0  0  0  0  0  0  0  0
   56.6510   29.7060   42.8520 C   0  0  0  0  0  0  0  0  0  0  0  0
   56.9540   31.2150   42.6440 C   0  0  0  0  0  0  0  0  0  0  0  0
   64.2310   34.4819   46.0602 H   0  0  0  0  0  0  0  0  0  0  0  0
   63.5578   32.8182   45.9845 H   0  0  0  0  0  0  0  0  0  0  0  0
   62.4534   34.2348   45.9845 H   0  0  0  0  0  0  0  0  0  0  0  0
   64.2536   33.2931   48.2755 H   0  0  0  0  0  0  0  0  0  0  0  0
   63.2503   34.8304   48.2513 H   0  0  0  0  0  0  0  0  0  0  0  0
   61.6257   32.7737   50.4765 H   0  0  0  0  0  0  0  0  0  0  0  0
   62.3151   34.4163   50.0414 H   0  0  0  0  0  0  0  0  0  0  0  0
   59.8444   34.3556   50.6662 H   0  0  0  0  0  0  0  0  0  0  0  0
   60.2799   35.1467   49.1133 H   0  0  0  0  0  0  0  0  0  0  0  0
   59.5812   33.4918   49.1133 H   0  0  0  0  0  0  0  0  0  0  0  0
   63.1605   31.2985   47.8627 H   0  0  0  0  0  0  0  0  0  0  0  0
   62.2000   31.1754   49.3922 H   0  0  0  0  0  0  0  0  0  0  0  0
   61.3473   30.8288   46.5492 H   0  0  0  0  0  0  0  0  0  0  0  0
   60.7005   30.1070   48.0960 H   0  0  0  0  0  0  0  0  0  0  0  0
   59.2870   31.8150   48.4030 H   0  0  0  0  0  0  0  0  0  0  0  0
   60.2240   32.9220   47.6120 H   0  0  0  0  0  0  0  0  0  0  0  0
   58.0956   33.7039   43.5929 H   0  0  0  0  0  0  0  0  0  0  0  0
   56.8262   27.2988   44.4783 H   0  0  0  0  0  0  0  0  0  0  0  0
   57.9617   27.2502   46.7218 H   0  0  0  0  0  0  0  0  0  0  0  0
   59.0276   29.3179   47.6495 H   0  0  0  0  0  0  0  0  0  0  0  0
   57.1058   29.1000   42.0546 H   0  0  0  0  0  0  0  0  0  0  0  0
   55.5755   29.4770   42.8242 H   0  0  0  0  0  0  0  0  0  0  0  0
   57.5578   31.3738   41.7383 H   0  0  0  0  0  0  0  0  0  0  0  0
   56.0456   31.8199   42.5065 H   0  0  0  0  0  0  0  0  0  0  0  0
  1  2  1  0
  2  3  1  0
  3  4  1  0
  4  5  1  0
  3  6  1  0
  6  7  1  0
  7  8  1  0
  8  9  1  0
  9 10  2  0
 10 11  1  0
 10 12  1  0
 12 13  2  0
 13 14  1  0
 14 15  2  0
 15 16  1  0
 16 17  2  0
 17 18  1  0
 18 19  2  0
 15 20  1  0
 20 21  1  0
 19  9  1  0
 21 13  1  0
 19 14  1  0
  1 22  1  0
  1 23  1  0
  1 24  1  0
  2 25  1  0
  2 26  1  0
  4 27  1  0
  4 28  1  0
  5 29  1  0
  5 30  1  0
  5 31  1  0
  6 32  1  0
  6 33  1  0
  7 34  1  0
  7 35  1  0
  8 36  1  0
  8 37  1  0
 12 38  1  0
 16 39  1  0
 17 40  1  0
 18 41  1  0
 20 42  1  0
 20 43  1  0
 21 44  1  0
 21 45  1  0
M  CHG  1   8   1
M  END
>  <UniqueID>  (6) 
6

>  <SMILES>  (6) 
CCN(CC)CC[NH2+]c1c(Br)cc2c3c(cccc13)CC2

>  <Energy>  (6) 
80.38029912734501

>  <Genealogy>  (6) 
CCN(CC)CC[NH2+]c1c(Br)cc2c3c(cccc13)CC2 (protonated)
CCN(CC)CC[NH2+]c1c(Br)cc2c3c(cccc13)CC2 (3D coordinates assigned)
CCN(CC)CC[NH2+]c1c(Br)cc2c3c(cccc13)CC2 (nonaromatic ring conformer: 80.38029912734501 kcal/mol)

>  <smiles>  (6) 
CCN(CC)CCNc1c(Br)cc2c3c(cccc13)CC2

>  <score_type>  (6) 
oracle

>  <origin>  (6) 
adg

>  <m_score__min__energy>  (6) 
-5.6399999999999997

>  <m_primary>  (6) 
energy

$$$$
6:0
     RDKit          3D

 40 42  0  0  0  0  0  0  0  0999 V2000
   61.1150   34.5780   48.7960 C   0  0  0  0  0  0  0  0  0  0  0  0
   60.2660   33.5520   48.1040 C   0  0  0  0  0  0  0  0  0  0  0  0
   59.7950   33.7870   46.8100 C   0  0  0  0  0  0  0  0  0  0  0  0
   59.0350   32.8210   46.1510 C   0  0  0  0  0  0  0  0  0  0  0  0
   58.7360   31.5880   46.7640 C   0  0  0  0  0  0  0  0  0  0  0  0
   57.9140   30.6050   46.0080 C   0  0  0  0  0  0  0  0  0  0  0  0
   57.8770   29.2850   46.3020 N   0  0  0  0  0  0  0  0  0  0  0  0
   57.0200   28.7720   45.3980 C   0  0  0  0  0  0  0  0  0  0  0  0
   56.6920   27.3370   45.3330 C   0  0  0  0  0  0  0  0  0  0  0  0
   55.6040   26.9460   45.8360 O   0  0  0  0  0  0  0  0  0  0  0  0
   57.5750   26.3970   44.6970 N   0  0  0  0  0  0  0  0  0  0  0  0
   57.3460   24.9780   44.6770 C   0  0  0  0  0  0  0  0  0  0  0  0
   57.0860   24.3030   43.4740 C   0  0  0  0  0  0  0  0  0  0  0  0
   56.8980   22.9210   43.4720 C   0  0  0  0  0  0  0  0  0  0  0  0
   56.9820   22.2170   44.6740 C   0  0  0  0  0  0  0  0  0  0  0  0
   57.2530   22.8780   45.8300 N   0  0  0  0  0  0  0  0  0  0  0  0
   57.4420   24.2250   45.8630 C   0  0  0  0  0  0  0  0  0  0  0  0
   57.7710   24.9930   47.4080 Cl  0  0  0  0  0  0  0  0  0  0  0  0
   56.5890   29.7950   44.5690 C   0  0  0  0  0  0  0  0  0  0  0  0
   55.6760   29.7180   43.3890 C   0  0  0  0  0  0  0  0  0  0  0  0
   57.1480   30.9040   44.9810 O   0  0  0  0  0  0  0  0  0  0  0  0
   59.2370   31.3370   48.0730 C   0  0  0  0  0  0  0  0  0  0  0  0
   58.9840   30.0390   48.7960 C   0  0  0  0  0  0  0  0  0  0  0  0
   59.9990   32.3250   48.7230 C   0  0  0  0  0  0  0  0  0  0  0  0
   61.0176   34.4602   49.8853 H   0  0  0  0  0  0  0  0  0  0  0  0
   62.1668   34.4403   48.5049 H   0  0  0  0  0  0  0  0  0  0  0  0
   60.7829   35.5855   48.5049 H   0  0  0  0  0  0  0  0  0  0  0  0
   60.0247   34.7386   46.3084 H   0  0  0  0  0  0  0  0  0  0  0  0
   58.6629   33.0250   45.1361 H   0  0  0  0  0  0  0  0  0  0  0  0
   58.4440   26.7480   44.2410 H   0  0  0  0  0  0  0  0  0  0  0  0
   57.0304   24.8655   42.5303 H   0  0  0  0  0  0  0  0  0  0  0  0
   56.6855   22.3910   42.5318 H   0  0  0  0  0  0  0  0  0  0  0  0
   56.8290   21.1278   44.6857 H   0  0  0  0  0  0  0  0  0  0  0  0
   54.6357   29.6303   43.7354 H   0  0  0  0  0  0  0  0  0  0  0  0
   55.7846   30.6285   42.7814 H   0  0  0  0  0  0  0  0  0  0  0  0
   55.9355   28.8386   42.7814 H   0  0  0  0  0  0  0  0  0  0  0  0
   59.0176   30.2115   49.8819 H   0  0  0  0  0  0  0  0  0  0  0  0
   57.9933   29.6509   48.5169 H   0  0  0  0  0  0  0  0  0  0  0  0
   59.7564   29.3072   48.5169 H   0  0  0  0  0  0  0  0  0  0  0  0
   60.3907   32.1306   49.7323 H   0  0  0  0  0  0  0  0  0  0  0  0
  1  2  1  0
  2  3  2  0
  3  4  1  0
  4  5  2  0
  5  6  1  0
  6  7  2  0
  7  8  1  0
  8  9  1  0
  9 10  2  0
  9 11  1  0
 11 12  1  0
 12 13  2  0
 13 14  1  0
 14 15  2  0
 15 16  1  0
 16 17  2  0
 17 18  1  0
  8 19  2  0
 19 20  1  0
 19 21  1  0
  5 22  1  0
 22 23  1  0
 22 24  2  0
 24  2  1  0
 21  6  1  0
 17 12  1  0
  1 25  1  0
  1 26  1  0
  1 27  1  0
  3 28  1  0
  4 29  1  0
 11 30  1  0
 13 31  1  0
 14 32  1  0
 15 33  1  0
 20 34  1  0
 20 35  1  0
 20 36  1  0
 23 37  1  0
 23 38  1  0
 23 39  1  0
 24 40  1  0
M  END
>  <UniqueID>  (7) 
7

>  <SMILES>  (7) 
Cc1ccc(-c2nc(C(=O)Nc3cccnc3Cl)c(C)o2)c(C)c1

>  <Energy>  (7) 
81.37695488541782

>  <Genealogy>  (7) 
Cc1ccc(-c2nc(C(=O)Nc3cccnc3Cl)c(C)o2)c(C)c1 (3D coordinates assigned)
Cc1ccc(-c2nc(C(=O)Nc3cccnc3Cl)c(C)o2)c(C)c1 (optimized conformer: 81.37695488541782 kcal/mol)

>  <smiles>  (7) 
Cc1ccc(-c2nc(C(=O)Nc3cccnc3Cl)c(C)o2)c(C)c1

>  <score_type>  (7) 
oracle

>  <origin>  (7) 
adg

>  <m_score__min__energy>  (7) 
-7.5199999999999996

>  <m_primary>  (7) 
energy

$$$$
7:0
     RDKit          3D

 23 23  0  0  0  0  0  0  0  0999 V2000
   57.4120   32.3440   41.2550 C   0  0  0  0  0  0  0  0  0  0  0  0
   57.0180   31.2630   42.2530 C   0  0  0  0  0  0  0  0  0  0  0  0
   58.0740   31.0980   43.2540 N   0  0  0  0  0  0  0  0  0  0  0  0
   57.4140   31.3290   44.8460 S   0  0  0  0  0  0  0  0  0  0  0  0
   57.6670   30.1050   45.6820 O   0  0  0  0  0  0  0  0  0  0  0  0
   55.9290   31.5320   44.7390 O   0  0  0  0  0  0  0  0  0  0  0  0
   58.1340   32.7440   45.6110 C   0  0  0  0  0  0  0  0  0  0  0  0
   58.3090   32.7900   47.0030 C   0  0  0  0  0  0  0  0  0  0  0  0
   58.8970   33.9090   47.5990 C   0  0  0  0  0  0  0  0  0  0  0  0
   59.3180   34.9840   46.8100 C   0  0  0  0  0  0  0  0  0  0  0  0
   59.1520   34.9390   45.4230 C   0  0  0  0  0  0  0  0  0  0  0  0
   58.5630   33.8220   44.8240 C   0  0  0  0  0  0  0  0  0  0  0  0
   57.7396   33.2427   41.7982 H   0  0  0  0  0  0  0  0  0  0  0  0
   58.2343   31.9775   40.6230 H   0  0  0  0  0  0  0  0  0  0  0  0
   56.5467   32.5926   40.6230 H   0  0  0  0  0  0  0  0  0  0  0  0
   56.0828   31.5531   42.7542 H   0  0  0  0  0  0  0  0  0  0  0  0
   56.8748   30.3123   41.7185 H   0  0  0  0  0  0  0  0  0  0  0  0
   58.4150   30.1100   43.2100 H   0  0  0  0  0  0  0  0  0  0  0  0
   57.9828   31.9439   47.6257 H   0  0  0  0  0  0  0  0  0  0  0  0
   59.0288   33.9442   48.6905 H   0  0  0  0  0  0  0  0  0  0  0  0
   59.7796   35.8646   47.2807 H   0  0  0  0  0  0  0  0  0  0  0  0
   59.4853   35.7836   44.8021 H   0  0  0  0  0  0  0  0  0  0  0  0
   58.4357   33.7886   43.7319 H   0  0  0  0  0  0  0  0  0  0  0  0
  1  2  1  0
  2  3  1  0
  3  4  1  0
  4  5  2  0
  4  6  2  0
  4  7  1  0
  7  8  2  0
  8  9  1  0
  9 10  2  0
 10 11  1  0
 11 12  2  0
 12  7  1  0
  1 13  1  0
  1 14  1  0
  1 15  1  0
  2 16  1  0
  2 17  1  0
  3 18  1  0
  8 19  1  0
  9 20  1  0
 10 21  1  0
 11 22  1  0
 12 23  1  0
M  END
>  <UniqueID>  (8) 
8

>  <SMILES>  (8) 
CCNS(=O)(=O)c1ccccc1

>  <Energy>  (8) 
15.755060200635059

>  <Genealogy>  (8) 
CCNS(=O)(=O)c1ccccc1 (3D coordinates assigned)
CCNS(=O)(=O)c1ccccc1 (optimized conformer: 15.755060200635059 kcal/mol)

>  <smiles>  (8) 
CCNS(=O)(=O)c1ccccc1

>  <score_type>  (8) 
oracle

>  <origin>  (8) 
adg

>  <m_score__min__energy>  (8) 
-5.8600000000000003

>  <m_primary>  (8) 
energy

$$$$
8:0
     RDKit          3D

 34 35  0  0  0  0  0  0  0  0999 V2000
   58.5470   31.7850   47.6970 C   0  0  0  0  0  0  0  0  0  0  0  0
   57.7750   33.0290   47.2640 C   0  0  0  0  0  0  0  0  0  0  0  0
   58.3340   33.5900   46.0250 N   0  0  0  0  0  0  0  0  0  0  0  0
   57.5560   33.4560   44.7850 C   0  0  0  0  0  0  0  0  0  0  0  0
   57.6460   32.0280   44.2370 C   0  0  0  0  0  0  0  0  0  0  0  0
   56.6350   31.2200   44.8110 O   0  0  0  0  0  0  0  0  0  0  0  0
   56.3470   30.1220   43.9710 C   0  0  0  0  0  0  0  0  0  0  0  0
   59.5550   34.3720   46.0110 C   0  0  0  0  0  0  0  0  0  0  0  0
   59.6410   35.3680   45.2440 O   0  0  0  0  0  0  0  0  0  0  0  0
   60.7320   34.0550   46.8460 C   0  0  0  0  0  0  0  0  0  0  0  0
   61.9070   33.5610   46.3650 N   0  0  0  0  0  0  0  0  0  0  0  0
   62.6410   33.4700   47.4850 C   0  0  0  0  0  0  0  0  0  0  0  0
   63.9200   33.0260   47.5870 N   0  0  0  0  0  0  0  0  0  0  0  0
   64.5130   33.0050   48.8190 C   0  0  0  0  0  0  0  0  0  0  0  0
   63.8040   33.4400   49.9660 C   0  0  0  0  0  0  0  0  0  0  0  0
   62.4790   33.8960   49.8370 C   0  0  0  0  0  0  0  0  0  0  0  0
   61.9320   33.8930   48.5590 C   0  0  0  0  0  0  0  0  0  0  0  0
   60.7470   34.2580   48.1570 O   0  0  0  0  0  0  0  0  0  0  0  0
   58.5773   31.7362   48.7955 H   0  0  0  0  0  0  0  0  0  0  0  0
   58.0468   30.8877   47.3037 H   0  0  0  0  0  0  0  0  0  0  0  0
   59.5731   31.8349   47.3037 H   0  0  0  0  0  0  0  0  0  0  0  0
   56.7225   32.7583   47.0938 H   0  0  0  0  0  0  0  0  0  0  0  0
   57.8541   33.7854   48.0587 H   0  0  0  0  0  0  0  0  0  0  0  0
   56.5029   33.6969   44.9923 H   0  0  0  0  0  0  0  0  0  0  0  0
   57.9668   34.1477   44.0349 H   0  0  0  0  0  0  0  0  0  0  0  0
   57.5179   32.0491   43.1447 H   0  0  0  0  0  0  0  0  0  0  0  0
   58.6299   31.6070   44.4914 H   0  0  0  0  0  0  0  0  0  0  0  0
   56.1157   29.2402   44.5866 H   0  0  0  0  0  0  0  0  0  0  0  0
   55.4817   30.3631   43.3361 H   0  0  0  0  0  0  0  0  0  0  0  0
   57.2192   29.9074   43.3361 H   0  0  0  0  0  0  0  0  0  0  0  0
   64.4410   32.7060   46.7400 H   0  0  0  0  0  0  0  0  0  0  0  0
   65.5484   32.6477   48.9203 H   0  0  0  0  0  0  0  0  0  0  0  0
   64.2876   33.4213   50.9538 H   0  0  0  0  0  0  0  0  0  0  0  0
   61.9020   34.2394   50.7083 H   0  0  0  0  0  0  0  0  0  0  0  0
  1  2  1  0
  2  3  1  0
  3  4  1  0
  4  5  1  0
  5  6  1  0
  6  7  1  0
  3  8  1  0
  8  9  2  0
  8 10  1  0
 10 11  2  0
 11 12  1  0
 12 13  2  0
 13 14  1  0
 14 15  2  0
 15 16  1  0
 16 17  2  0
 17 18  1  0
 18 10  1  0
 17 12  1  0
  1 19  1  0
  1 20  1  0
  1 21  1  0
  2 22  1  0
  2 23  1  0
  4 24  1  0
  4 25  1  0
  5 26  1  0
  5 27  1  0
  7 28  1  0
  7 29  1  0
  7 30  1  0
 13 31  1  0
 14 32  1  0
 15 33  1  0
 16 34  1  0
M  CHG  1  13   1
M  END
>  <UniqueID>  (9) 
9

>  <SMILES>  (9) 
CCN(CCOC)C(=O)c1nc2[nH+]cccc2o1

>  <Energy>  (9) 
71.95566809324339

>  <Genealogy>  (9) 
CCN(CCOC)C(=O)c1nc2[nH+]cccc2o1 (protonated)
CCN(CCOC)C(=O)c1nc2[nH+]cccc2o1 (3D coordinates assigned)
CCN(CCOC)C(=O)c1nc2[nH+]cccc2o1 (optimized conformer: 71.95566809324339 kcal/mol)

>  <smiles>  (9) 
CCN(CCOC)C(=O)c1nc2ncccc2o1

>  <score_type>  (9) 
oracle

>  <origin>  (9) 
adg

>  <m_score__min__energy>  (9) 
-4.79

>  <m_primary>  (9) 
energy

$$$$
9:0
     RDKit          3D

 43 45  0  0  0  0  0  0  0  0999 V2000
   59.8670   30.8750   46.3820 C   0  0  0  0  0  0  0  0  0  0  0  0
   58.5770   30.6590   45.7290 C   0  0  0  0  0  0  0  0  0  0  0  0
   58.0150   31.6820   44.9780 C   0  0  0  0  0  0  0  0  0  0  0  0
   58.6140   33.0020   44.7940 C   0  0  0  0  0  0  0  0  0  0  0  0
   58.0580   34.0910   45.4630 N   0  0  0  0  0  0  0  0  0  0  0  0
   58.9210   34.6510   46.4790 C   0  0  0  0  0  0  0  0  0  0  0  0
   60.3740   34.6260   46.1530 C   0  0  0  0  0  0  0  0  0  0  0  0
   61.1620   33.9210   47.2260 C   0  0  0  0  0  0  0  0  0  0  0  0
   60.5470   33.6210   48.4420 C   0  0  0  0  0  0  0  0  0  0  0  0
   61.3180   32.9760   49.3830 C   0  0  0  0  0  0  0  0  0  0  0  0
   62.6200   32.6440   49.1420 C   0  0  0  0  0  0  0  0  0  0  0  0
   63.2400   32.9340   47.9450 C   0  0  0  0  0  0  0  0  0  0  0  0
   62.4800   33.5800   46.9910 C   0  0  0  0  0  0  0  0  0  0  0  0
   63.0890   33.8680   45.8100 F   0  0  0  0  0  0  0  0  0  0  0  0
   56.7830   31.3910   44.3770 C   0  0  0  0  0  0  0  0  0  0  0  0
   56.1890   30.1930   44.5240 N   0  0  0  0  0  0  0  0  0  0  0  0
   56.7170   29.2090   45.2410 C   0  0  0  0  0  0  0  0  0  0  0  0
   56.0790   28.0230   45.3590 N   0  0  0  0  0  0  0  0  0  0  0  0
   56.6320   27.0390   46.0910 C   0  0  0  0  0  0  0  0  0  0  0  0
   56.0160   25.8900   46.2070 N   0  0  0  0  0  0  0  0  0  0  0  0
   57.8170   27.2220   46.7090 N   0  0  0  0  0  0  0  0  0  0  0  0
   58.4630   28.3940   46.6010 C   0  0  0  0  0  0  0  0  0  0  0  0
   59.5740   28.5250   47.2010 N   0  0  0  0  0  0  0  0  0  0  0  0
   57.9490   29.4390   45.8650 C   0  0  0  0  0  0  0  0  0  0  0  0
   59.7337   30.8527   47.4737 H   0  0  0  0  0  0  0  0  0  0  0  0
   60.5673   30.0816   46.0818 H   0  0  0  0  0  0  0  0  0  0  0  0
   60.2707   31.8532   46.0818 H   0  0  0  0  0  0  0  0  0  0  0  0
   59.6639   32.9279   45.1137 H   0  0  0  0  0  0  0  0  0  0  0  0
   58.4414   33.2265   43.7311 H   0  0  0  0  0  0  0  0  0  0  0  0
   57.0520   34.0710   45.7130 H   0  0  0  0  0  0  0  0  0  0  0  0
   58.6250   35.6983   46.6391 H   0  0  0  0  0  0  0  0  0  0  0  0
   58.7949   34.0207   47.3716 H   0  0  0  0  0  0  0  0  0  0  0  0
   60.5182   34.0998   45.1979 H   0  0  0  0  0  0  0  0  0  0  0  0
   60.7327   35.6635   46.0828 H   0  0  0  0  0  0  0  0  0  0  0  0
   59.4979   33.8867   48.6392 H   0  0  0  0  0  0  0  0  0  0  0  0
   60.8724   32.7212   50.3559 H   0  0  0  0  0  0  0  0  0  0  0  0
   63.1926   32.1289   49.9274 H   0  0  0  0  0  0  0  0  0  0  0  0
   64.2899   32.6635   47.7593 H   0  0  0  0  0  0  0  0  0  0  0  0
   56.2885   32.1627   43.7688 H   0  0  0  0  0  0  0  0  0  0  0  0
   55.1480   27.8930   44.8680 H   0  0  0  0  0  0  0  0  0  0  0  0
   55.4420   25.8040   47.0930 H   0  0  0  0  0  0  0  0  0  0  0  0
   58.1990   26.4290   47.2630 H   0  0  0  0  0  0  0  0  0  0  0  0
   60.4440   28.1840   46.7170 H   0  0  0  0  0  0  0  0  0  0  0  0
  1  2  1  0
  2  3  2  0
  3  4  1  0
  4  5  1  0
  5  6  1  0
  6  7  1  0
  7  8  1  0
  8  9  2  0
  9 10  1  0
 10 11  2  0
 11 12  1  0
 12 13  2  0
 13 14  1  0
  3 15  1  0
 15 16  2  0
 16 17  1  0
 17 18  1  0
 18 19  1  0
 19 20  2  3
 19 21  1  0
 21 22  1  0
 22 23  2  3
 22 24  1  0
 24  2  1  0
 13  8  1  0
 24 17  2  0
  1 25  1  0
  1 26  1  0
  1 27  1  0
  4 28  1  0
  4 29  1  0
  5 30  1  0
  6 31  1  0
  6 32  1  0
  7 33  1  0
  7 34  1  0
  9 35  1  0
 10 36  1  0
 11 37  1  0
 12 38  1  0
 15 39  1  0
 18 40  1  0
 20 41  1  0
 21 42  1  0
 23 43  1  0
M  END
>  <smiles>  (10) 
Cc1c(CNCCc2ccccc2F)cnc2[nH]c(=N)[nH]c(=N)c12

>  <score_type>  (10) 
oracle

>  <origin>  (10) 
adg

>  <m_score__min__energy>  (10) 
-8.0600000000000005

>  <m_primary>  (10) 
energy

$$$$
10:0
     RDKit          3D

 44 46  0  0  0  0  0  0  0  0999 V2000
   61.1122   28.4450   46.7968 H   0  0  0  0  0  0  0  0  0  0  0  0
   60.1860   27.8600   46.8960 C   0  0  0  0  0  0  0  0  0  0  0  0
   59.0360   28.2490   46.2020 C   0  0  0  0  0  0  0  0  0  0  0  0
   59.0553   29.1483   45.5689 H   0  0  0  0  0  0  0  0  0  0  0  0
   57.8570   27.4950   46.3110 C   0  0  0  0  0  0  0  0  0  0  0  0
   56.6910   27.9300   45.5920 N   0  0  0  0  0  0  0  0  0  0  0  0
   56.4710   29.1380   45.1590 C   0  0  0  0  0  0  0  0  0  0  0  0
   55.3600   29.5270   44.5070 N   0  0  0  0  0  0  0  0  0  0  0  0
   55.5440   30.8060   44.2100 N   0  0  0  0  0  0  0  0  0  0  0  0
   56.7590   31.1360   44.6940 C   0  0  0  0  0  0  0  0  0  0  0  0
   57.3730   32.5000   44.5500 C   0  0  0  0  0  0  0  0  0  0  0  0
   56.8411   33.2005   45.2107 H   0  0  0  0  0  0  0  0  0  0  0  0
   57.2852   32.8027   43.4961 H   0  0  0  0  0  0  0  0  0  0  0  0
   58.8000   32.5020   44.9060 N   0  0  0  0  0  0  0  0  0  0  0  0
   59.3160   33.1650   44.2800 H   0  0  0  0  0  0  0  0  0  0  0  0
   59.1970   31.5530   44.7210 H   0  0  0  0  0  0  0  0  0  0  0  0
   59.0050   32.8540   46.2940 C   0  0  0  0  0  0  0  0  0  0  0  0
   58.8300   31.8770   47.2940 C   0  0  0  0  0  0  0  0  0  0  0  0
   58.4957   30.8678   47.0116 H   0  0  0  0  0  0  0  0  0  0  0  0
   59.0750   32.1700   48.6440 C   0  0  0  0  0  0  0  0  0  0  0  0
   58.8960   31.1190   49.6740 C   0  0  0  0  0  0  0  0  0  0  0  0
   59.2950   29.9490   49.4200 O   0  0  0  0  0  0  0  0  0  0  0  0
   58.2650   31.3940   50.9450 N   0  0  0  0  0  0  0  0  0  0  0  0
   58.3870   32.7010   51.5920 C   0  0  0  0  0  0  0  0  0  0  0  0
   58.3750   32.5719   52.6843 H   0  0  0  0  0  0  0  0  0  0  0  0
   59.3331   33.1732   51.2890 H   0  0  0  0  0  0  0  0  0  0  0  0
   57.5446   33.3402   51.2890 H   0  0  0  0  0  0  0  0  0  0  0  0
   57.5430   30.3230   51.6340 C   0  0  0  0  0  0  0  0  0  0  0  0
   57.6350   30.4595   52.7216 H   0  0  0  0  0  0  0  0  0  0  0  0
   56.4810   30.3544   51.3491 H   0  0  0  0  0  0  0  0  0  0  0  0
   57.9705   29.3503   51.3491 H   0  0  0  0  0  0  0  0  0  0  0  0
   59.4640   33.4690   49.0010 C   0  0  0  0  0  0  0  0  0  0  0  0
   59.6338   33.7177   50.0590 H   0  0  0  0  0  0  0  0  0  0  0  0
   59.6370   34.4480   48.0220 C   0  0  0  0  0  0  0  0  0  0  0  0
   59.9509   35.4611   48.3137 H   0  0  0  0  0  0  0  0  0  0  0  0
   59.4150   34.1530   46.6740 C   0  0  0  0  0  0  0  0  0  0  0  0
   59.6490   35.4330   45.4900 Cl  0  0  0  0  0  0  0  0  0  0  0  0
   57.3360   30.1150   45.2800 O   0  0  0  0  0  0  0  0  0  0  0  0
   57.8290   26.3740   47.1700 C   0  0  0  0  0  0  0  0  0  0  0  0
   56.8973   25.8026   47.2944 H   0  0  0  0  0  0  0  0  0  0  0  0
   58.9790   25.9880   47.8620 C   0  0  0  0  0  0  0  0  0  0  0  0
   58.9568   25.1061   48.5190 H   0  0  0  0  0  0  0  0  0  0  0  0
   60.1590   26.7250   47.7180 C   0  0  0  0  0  0  0  0  0  0  0  0
   61.2740   26.3440   48.3900 F   0  0  0  0  0  0  0  0  0  0  0  0
  1  2  1  0
  2  3  2  0
  3  4  1  0
  3  5  1  0
  5  6  1  0
  6  7  2  0
  7  8  1  0
  8  9  1  0
  9 10  2  0
 10 11  1  0
 11 12  1  0
 11 13  1  0
 11 14  1  0
 14 15  1  0
 14 16  1  0
 14 17  1  0
 17 18  2  0
 18 19  1  0
 18 20  1  0
 20 21  1  0
 21 22  2  0
 21 23  1  0
 23 24  1  0
 24 25  1  0
 24 26  1  0
 24 27  1  0
 23 28  1  0
 28 29  1  0
 28 30  1  0
 28 31  1  0
 20 32  2  0
 32 33  1  0
 32 34  1  0
 34 35  1  0
 34 36  2  0
 36 37  1  0
 10 38  1  0
  5 39  2  0
 39 40  1  0
 39 41  1  0
 41 42  1  0
 41 43  2  0
 43 44  1  0
 43  2  1  0
 38  7  1  0
 36 17  1  0
M  CHG  2   8  -1  14   1
M  END
>  <UniqueID>  (11) 
10

>  <SMILES>  (11) 
CN(C)C(=O)c1ccc(Cl)c([NH2+]Cc2n[n-]/c(=N\c3ccc(F)cc3)o2)c1

>  <Energy>  (11) 
91.6101352576157

>  <Genealogy>  (11) 
CN(C)C(=O)c1ccc(Cl)c([NH2+]Cc2n[n-]c(=Nc3ccc(F)cc3)o2)c1 (protonated)
CN(C)C(=O)c1ccc(Cl)c([NH2+]Cc2n[n-]/c(=N\c3ccc(F)cc3)o2)c1 (cis-trans isomerization)
CN(C)C(=O)c1ccc(Cl)c([NH2+]Cc2n[n-]/c(=N\c3ccc(F)cc3)o2)c1 (3D coordinates assigned)
CN(C)C(=O)c1ccc(Cl)c([NH2+]Cc2n[n-]/c(=N\c3ccc(F)cc3)o2)c1 (optimized conformer: 91.6101352576157 kcal/mol)

>  <smiles>  (11) 
CN(C)C(=O)c1ccc(Cl)c(NCc2n[nH]c(=Nc3ccc(F)cc3)o2)c1

>  <score_type>  (11) 
oracle

>  <origin>  (11) 
adg

>  <m_score__min__energy>  (11) 
-7.7199999999999998

>  <m_primary>  (11) 
energy

$$$$
11:0
     RDKit          3D

 22 23  0  0  0  0  0  0  0  0999 V2000
   56.6790   28.5310   45.2400 C   0  0  0  0  0  0  0  0  0  0  0  0
   56.1560   29.8250   44.9600 O   0  0  0  0  0  0  0  0  0  0  0  0
   56.7760   30.7740   44.1300 C   0  0  0  0  0  0  0  0  0  0  0  0
   56.7550   30.6550   42.7260 C   0  0  0  0  0  0  0  0  0  0  0  0
   57.3790   31.6120   41.9220 C   0  0  0  0  0  0  0  0  0  0  0  0
   58.0310   32.7000   42.5000 C   0  0  0  0  0  0  0  0  0  0  0  0
   58.0640   32.8400   43.8930 C   0  0  0  0  0  0  0  0  0  0  0  0
   58.7150   33.9270   44.4890 C   0  0  0  0  0  0  0  0  0  0  0  0
   58.7380   34.0470   45.8770 C   0  0  0  0  0  0  0  0  0  0  0  0
   58.1080   33.0800   46.6610 C   0  0  0  0  0  0  0  0  0  0  0  0
   57.4760   32.0240   46.0780 N   0  0  0  0  0  0  0  0  0  0  0  0
   57.4360   31.8750   44.7190 C   0  0  0  0  0  0  0  0  0  0  0  0
   56.7373   28.3868   46.3290 H   0  0  0  0  0  0  0  0  0  0  0  0
   56.0192   27.7666   44.8037 H   0  0  0  0  0  0  0  0  0  0  0  0
   57.6846   28.4397   44.8037 H   0  0  0  0  0  0  0  0  0  0  0  0
   56.2427   29.8009   42.2589 H   0  0  0  0  0  0  0  0  0  0  0  0
   57.3557   31.5064   40.8273 H   0  0  0  0  0  0  0  0  0  0  0  0
   58.5204   33.4498   41.8610 H   0  0  0  0  0  0  0  0  0  0  0  0
   59.2076   34.6851   43.8624 H   0  0  0  0  0  0  0  0  0  0  0  0
   59.2491   34.8979   46.3512 H   0  0  0  0  0  0  0  0  0  0  0  0
   58.1219   33.1712   47.7571 H   0  0  0  0  0  0  0  0  0  0  0  0
   57.0190   31.3250   46.7060 H   0  0  0  0  0  0  0  0  0  0  0  0
  1  2  1  0
  2  3  1  0
  3  4  2  0
  4  5  1  0
  5  6  2  0
  6  7  1  0
  7  8  2  0
  8  9  1  0
  9 10  2  0
 10 11  1  0
 11 12  2  0
 12  3  1  0
 12  7  1  0
  1 13  1  0
  1 14  1  0
  1 15  1  0
  4 16  1  0
  5 17  1  0
  6 18  1  0
  8 19  1  0
  9 20  1  0
 10 21  1  0
 11 22  1  0
M  CHG  1  11   1
M  END
>  <UniqueID>  (12) 
11

>  <SMILES>  (12) 
COc1cccc2ccc[nH+]c12

>  <Energy>  (12) 
25.80633182497534

>  <Genealogy>  (12) 
COc1cccc2ccc[nH+]c12 (protonated)
COc1cccc2ccc[nH+]c12 (3D coordinates assigned)
COc1cccc2ccc[nH+]c12 (optimized conformer: 25.80633182497534 kcal/mol)

>  <smiles>  (12) 
COc1cccc2cccnc12

>  <score_type>  (12) 
oracle

>  <origin>  (12) 
adg

>  <m_score__min__energy>  (12) 
-3.9100000000000001

>  <m_primary>  (12) 
energy

$$$$
12:0
     RDKit          3D

 35 37  0  0  0  0  0  0  0  0999 V2000
   60.3915   34.9574   49.9368 H   0  0  0  0  0  0  0  0  0  0  0  0
   60.3670   34.5880   48.9010 C   0  0  0  0  0  0  0  0  0  0  0  0
   59.4020   34.9550   48.1100 N   0  0  0  0  0  0  0  0  0  0  0  0
   58.9470   34.2650   46.9340 C   0  0  0  0  0  0  0  0  0  0  0  0
   57.9770   33.2410   46.9740 C   0  0  0  0  0  0  0  0  0  0  0  0
   57.5284   32.9484   47.9348 H   0  0  0  0  0  0  0  0  0  0  0  0
   57.5840   32.5970   45.7970 C   0  0  0  0  0  0  0  0  0  0  0  0
   56.8206   31.8059   45.8338 H   0  0  0  0  0  0  0  0  0  0  0  0
   58.1580   32.9550   44.5730 C   0  0  0  0  0  0  0  0  0  0  0  0
   57.6550   32.1240   43.0660 S   0  0  0  0  0  0  0  0  0  0  0  0
   57.0190   30.7000   43.9520 C   0  0  0  0  0  0  0  0  0  0  0  0
   55.7090   30.4900   44.1790 N   0  0  0  0  0  0  0  0  0  0  0  0
   55.6160   29.3670   44.8760 N   0  0  0  0  0  0  0  0  0  0  0  0
   56.8690   28.9080   45.0630 C   0  0  0  0  0  0  0  0  0  0  0  0
   57.1208   27.9931   45.6194 H   0  0  0  0  0  0  0  0  0  0  0  0
   57.7710   29.7170   44.4790 N   0  0  0  0  0  0  0  0  0  0  0  0
   59.2240   29.6080   44.5390 C   0  0  0  0  0  0  0  0  0  0  0  0
   59.5468   29.5838   45.5903 H   0  0  0  0  0  0  0  0  0  0  0  0
   59.5434   28.6834   44.0360 H   0  0  0  0  0  0  0  0  0  0  0  0
   59.6778   30.4746   44.0360 H   0  0  0  0  0  0  0  0  0  0  0  0
   59.1240   33.9650   44.5270 C   0  0  0  0  0  0  0  0  0  0  0  0
   59.5729   34.2523   43.5647 H   0  0  0  0  0  0  0  0  0  0  0  0
   59.5200   34.6100   45.7020 C   0  0  0  0  0  0  0  0  0  0  0  0
   60.2886   35.3958   45.6596 H   0  0  0  0  0  0  0  0  0  0  0  0
   61.4300   33.6810   48.4240 C   0  0  0  0  0  0  0  0  0  0  0  0
   62.7440   34.1620   48.2970 C   0  0  0  0  0  0  0  0  0  0  0  0
   62.9700   35.2080   48.5518 H   0  0  0  0  0  0  0  0  0  0  0  0
   63.7660   33.3200   47.8490 C   0  0  0  0  0  0  0  0  0  0  0  0
   64.7921   33.7046   47.7531 H   0  0  0  0  0  0  0  0  0  0  0  0
   63.4860   31.9910   47.5230 C   0  0  0  0  0  0  0  0  0  0  0  0
   64.2913   31.3299   47.1702 H   0  0  0  0  0  0  0  0  0  0  0  0
   62.1830   31.5010   47.6450 C   0  0  0  0  0  0  0  0  0  0  0  0
   61.9635   30.4544   47.3874 H   0  0  0  0  0  0  0  0  0  0  0  0
   61.1580   32.3390   48.0940 C   0  0  0  0  0  0  0  0  0  0  0  0
   60.1342   31.9484   48.1900 H   0  0  0  0  0  0  0  0  0  0  0  0
  1  2  1  0
  2  3  2  0
  3  4  1  0
  4  5  2  0
  5  6  1  0
  5  7  1  0
  7  8  1  0
  7  9  2  0
  9 10  1  0
 10 11  1  0
 11 12  2  0
 12 13  1  0
 13 14  2  0
 14 15  1  0
 14 16  1  0
 16 17  1  0
 17 18  1  0
 17 19  1  0
 17 20  1  0
  9 21  1  0
 21 22  1  0
 21 23  2  0
 23 24  1  0
  2 25  1  0
 25 26  2  0
 26 27  1  0
 26 28  1  0
 28 29  1  0
 28 30  2  0
 30 31  1  0
 30 32  1  0
 32 33  1  0
 32 34  2  0
 34 35  1  0
 23  4  1  0
 34 25  1  0
 16 11  1  0
M  END
>  <UniqueID>  (13) 
12

>  <SMILES>  (13) 
Cn1cnnc1Sc1ccc(/N=C/c2ccccc2)cc1

>  <Energy>  (13) 
69.68274729799155

>  <Genealogy>  (13) 
Cn1cnnc1Sc1ccc(/N=C/c2ccccc2)cc1 (cis-trans isomerization)
Cn1cnnc1Sc1ccc(/N=C/c2ccccc2)cc1 (3D coordinates assigned)
Cn1cnnc1Sc1ccc(/N=C/c2ccccc2)cc1 (optimized conformer: 69.68274729799155 kcal/mol)

>  <smiles>  (13) 
Cn1cnnc1Sc1ccc(N=Cc2ccccc2)cc1

>  <score_type>  (13) 
oracle

>  <origin>  (13) 
adg

>  <m_score__min__energy>  (13) 
-8.3399999999999999

>  <m_primary>  (13) 
energy

$$$$
13:0
     RDKit          3D

 41 43  0  0  0  0  0  0  0  0999 V2000
   57.6660   24.3730   46.3050 C   0  0  0  0  0  0  0  0  0  0  0  0
   57.4370   25.5230   47.1150 O   0  0  0  0  0  0  0  0  0  0  0  0
   58.3680   26.5510   47.3480 C   0  0  0  0  0  0  0  0  0  0  0  0
   59.4040   26.3630   48.2770 C   0  0  0  0  0  0  0  0  0  0  0  0
   60.3780   27.3310   48.4560 C   0  0  0  0  0  0  0  0  0  0  0  0
   60.3560   28.4950   47.7030 C   0  0  0  0  0  0  0  0  0  0  0  0
   59.3290   28.7440   46.7590 C   0  0  0  0  0  0  0  0  0  0  0  0
   58.2890   27.7750   46.6170 C   0  0  0  0  0  0  0  0  0  0  0  0
   57.2260   28.0490   45.7170 C   0  0  0  0  0  0  0  0  0  0  0  0
   56.0870   27.1810   45.6200 N   0  0  0  0  0  0  0  0  0  0  0  0
   57.2720   29.2020   44.9150 C   0  0  0  0  0  0  0  0  0  0  0  0
   56.1780   29.5060   43.9600 C   0  0  0  0  0  0  0  0  0  0  0  0
   56.4700   29.9820   42.6450 N   0  0  0  0  0  0  0  0  0  0  0  0
   54.9770   29.3490   44.3080 O   0  0  0  0  0  0  0  0  0  0  0  0
   58.3340   30.1060   45.0590 C   0  0  0  0  0  0  0  0  0  0  0  0
   58.3500   31.1420   44.3380 O   0  0  0  0  0  0  0  0  0  0  0  0
   59.3320   29.8910   45.9820 N   0  0  0  0  0  0  0  0  0  0  0  0
   60.4190   30.8990   46.0960 C   0  0  0  0  0  0  0  0  0  0  0  0
   59.9200   32.1830   46.7130 C   0  0  0  0  0  0  0  0  0  0  0  0
   59.7090   32.2750   48.1010 C   0  0  0  0  0  0  0  0  0  0  0  0
   59.2660   33.4740   48.6690 C   0  0  0  0  0  0  0  0  0  0  0  0
   59.0440   34.5920   47.8620 C   0  0  0  0  0  0  0  0  0  0  0  0
   59.2710   34.5160   46.4860 C   0  0  0  0  0  0  0  0  0  0  0  0
   59.7140   33.3200   45.9130 C   0  0  0  0  0  0  0  0  0  0  0  0
   57.8400   23.4990   46.9499 H   0  0  0  0  0  0  0  0  0  0  0  0
   56.7865   24.1908   45.6700 H   0  0  0  0  0  0  0  0  0  0  0  0
   58.5482   24.5416   45.6700 H   0  0  0  0  0  0  0  0  0  0  0  0
   59.4423   25.4367   48.8690 H   0  0  0  0  0  0  0  0  0  0  0  0
   61.1735   27.1756   49.1997 H   0  0  0  0  0  0  0  0  0  0  0  0
   61.1526   29.2409   47.8413 H   0  0  0  0  0  0  0  0  0  0  0  0
   55.1450   27.5690   45.3930 H   0  0  0  0  0  0  0  0  0  0  0  0
   56.2010   26.1430   45.5900 H   0  0  0  0  0  0  0  0  0  0  0  0
   55.6950   30.2230   41.9880 H   0  0  0  0  0  0  0  0  0  0  0  0
   57.4560   30.0550   42.3090 H   0  0  0  0  0  0  0  0  0  0  0  0
   61.2225   30.4886   46.7253 H   0  0  0  0  0  0  0  0  0  0  0  0
   60.7894   31.1231   45.0848 H   0  0  0  0  0  0  0  0  0  0  0  0
   59.8932   31.4004   48.7422 H   0  0  0  0  0  0  0  0  0  0  0  0
   59.0921   33.5365   49.7534 H   0  0  0  0  0  0  0  0  0  0  0  0
   58.6904   35.5323   48.3101 H   0  0  0  0  0  0  0  0  0  0  0  0
   59.1010   35.3986   45.8519 H   0  0  0  0  0  0  0  0  0  0  0  0
   59.9023   33.2687   44.8304 H   0  0  0  0  0  0  0  0  0  0  0  0
  1  2  1  0
  2  3  1  0
  3  4  2  0
  4  5  1  0
  5  6  2  0
  6  7  1  0
  7  8  2  0
  8  9  1  0
  9 10  1  0
  9 11  2  0
 11 12  1  0
 12 13  1  0
 12 14  2  0
 11 15  1  0
 15 16  2  0
 15 17  1  0
 17 18  1  0
 18 19  1  0
 19 20  2  0
 20 21  1  0
 21 22  2  0
 22 23  1  0
 23 24  2  0
  8  3  1  0
 24 19  1  0
 17  7  1  0
  1 25  1  0
  1 26  1  0
  1 27  1  0
  4 28  1  0
  5 29  1  0
  6 30  1  0
 10 31  1  0
 10 32  1  0
 13 33  1  0
 13 34  1  0
 18 35  1  0
 18 36  1  0
 20 37  1  0
 21 38  1  0
 22 39  1  0
 23 40  1  0
 24 41  1  0
M  END
>  <UniqueID>  (14) 
13

>  <SMILES>  (14) 
COc1cccc2c1c(N)c(C(N)=O)c(=O)n2Cc1ccccc1

>  <Energy>  (14) 
69.64272589345468

>  <Genealogy>  (14) 
COc1cccc2c1c(N)c(C(N)=O)c(=O)n2Cc1ccccc1 (3D coordinates assigned)
COc1cccc2c1c(N)c(C(N)=O)c(=O)n2Cc1ccccc1 (optimized conformer: 69.64272589345468 kcal/mol)

>  <smiles>  (14) 
COc1cccc2c1c(N)c(C(N)=O)c(=O)n2Cc1ccccc1

>  <score_type>  (14) 
oracle

>  <origin>  (14) 
adg

>  <m_score__min__energy>  (14) 
-7.2800000000000002

>  <m_primary>  (14) 
energy

$$$$
14:0
     RDKit          3D

 51 55  0  0  0  0  0  0  0  0999 V2000
   57.7010   31.9510   42.2730 C   0  0  0  0  0  0  0  0  0  0  0  0
   57.3770   31.6640   43.6740 N   0  0  0  0  0  0  0  0  0  0  0  0
   56.7270   30.4270   44.0610 C   0  0  0  0  0  0  0  0  0  0  0  0
   55.5390   30.4520   44.4910 O   0  0  0  0  0  0  0  0  0  0  0  0
   57.4210   29.0860   43.9980 C   0  0  0  0  0  0  0  0  0  0  0  0
   57.7850   28.5620   45.3930 C   0  0  0  0  0  0  0  0  0  0  0  0
   58.8750   29.3670   46.0300 C   0  0  0  0  0  0  0  0  0  0  0  0
   60.1630   29.2770   45.5560 N   0  0  0  0  0  0  0  0  0  0  0  0
   61.1670   29.9730   46.1080 N   0  0  0  0  0  0  0  0  0  0  0  0
   60.8890   30.7770   47.1570 C   0  0  0  0  0  0  0  0  0  0  0  0
   59.6210   30.8640   47.6430 C   0  0  0  0  0  0  0  0  0  0  0  0
   58.5940   30.1720   47.0990 N   0  0  0  0  0  0  0  0  0  0  0  0
   59.6670   31.7020   48.7280 C   0  0  0  0  0  0  0  0  0  0  0  0
   58.6870   32.1200   49.6240 C   0  0  0  0  0  0  0  0  0  0  0  0
   59.0790   32.9840   50.6620 C   0  0  0  0  0  0  0  0  0  0  0  0
   60.4240   33.4000   50.7810 C   0  0  0  0  0  0  0  0  0  0  0  0
   61.3980   32.9550   49.8660 C   0  0  0  0  0  0  0  0  0  0  0  0
   60.9920   32.0970   48.8400 C   0  0  0  0  0  0  0  0  0  0  0  0
   61.7570   31.5380   47.8620 N   0  0  0  0  0  0  0  0  0  0  0  0
   63.2030   31.6320   47.6660 C   0  0  0  0  0  0  0  0  0  0  0  0
   63.5370   32.8860   46.8510 C   0  0  0  0  0  0  0  0  0  0  0  0
   62.3550   33.8130   46.6150 C   0  0  0  0  0  0  0  0  0  0  0  0
   63.4470   34.2130   47.5920 C   0  0  0  0  0  0  0  0  0  0  0  0
   57.7820   32.6180   44.6750 C   0  0  0  0  0  0  0  0  0  0  0  0
   58.8600   33.4870   44.4480 C   0  0  0  0  0  0  0  0  0  0  0  0
   59.2470   34.3780   45.4500 C   0  0  0  0  0  0  0  0  0  0  0  0
   58.5650   34.3930   46.6670 C   0  0  0  0  0  0  0  0  0  0  0  0
   57.5030   33.5110   46.8650 C   0  0  0  0  0  0  0  0  0  0  0  0
   57.1410   32.6500   45.8770 N   0  0  0  0  0  0  0  0  0  0  0  0
   58.5237   32.6798   42.2288 H   0  0  0  0  0  0  0  0  0  0  0  0
   58.0067   31.0219   41.7696 H   0  0  0  0  0  0  0  0  0  0  0  0
   56.8156   32.3666   41.7696 H   0  0  0  0  0  0  0  0  0  0  0  0
   56.7517   28.3622   43.5101 H   0  0  0  0  0  0  0  0  0  0  0  0
   58.3534   29.2121   43.4281 H   0  0  0  0  0  0  0  0  0  0  0  0
   56.8913   28.6060   46.0328 H   0  0  0  0  0  0  0  0  0  0  0  0
   58.1466   27.5290   45.2832 H   0  0  0  0  0  0  0  0  0  0  0  0
   57.6436   31.7865   49.5237 H   0  0  0  0  0  0  0  0  0  0  0  0
   58.3322   33.3390   51.3874 H   0  0  0  0  0  0  0  0  0  0  0  0
   60.7136   34.0786   51.5969 H   0  0  0  0  0  0  0  0  0  0  0  0
   62.4471   33.2733   49.9562 H   0  0  0  0  0  0  0  0  0  0  0  0
   63.7011   31.6897   48.6451 H   0  0  0  0  0  0  0  0  0  0  0  0
   63.5540   30.7422   47.1228 H   0  0  0  0  0  0  0  0  0  0  0  0
   64.3024   32.4048   46.2243 H   0  0  0  0  0  0  0  0  0  0  0  0
   62.2545   34.3424   45.6560 H   0  0  0  0  0  0  0  0  0  0  0  0
   61.2615   33.7079   46.6721 H   0  0  0  0  0  0  0  0  0  0  0  0
   64.1375   35.0315   47.3402 H   0  0  0  0  0  0  0  0  0  0  0  0
   63.4720   34.5170   48.6489 H   0  0  0  0  0  0  0  0  0  0  0  0
   59.3960   33.4661   43.4876 H   0  0  0  0  0  0  0  0  0  0  0  0
   60.0877   35.0668   45.2806 H   0  0  0  0  0  0  0  0  0  0  0  0
   58.8618   35.0930   47.4619 H   0  0  0  0  0  0  0  0  0  0  0  0
   56.9582   33.5119   47.8206 H   0  0  0  0  0  0  0  0  0  0  0  0
  1  2  1  0
  2  3  1  0
  3  4  2  0
  3  5  1  0
  5  6  1  0
  6  7  1  0
  7  8  2  0
  8  9  1  0
  9 10  2  0
 10 11  1  0
 11 12  2  0
 11 13  1  0
 13 14  2  0
 14 15  1  0
 15 16  2  0
 16 17  1  0
 17 18  2  0
 18 19  1  0
 19 20  1  0
 20 21  1  0
 21 22  1  0
 22 23  1  0
  2 24  1  0
 24 25  2  0
 25 26  1  0
 26 27  2  0
 27 28  1  0
 28 29  2  0
 12  7  1  0
 18 13  1  0
 23 21  1  0
 29 24  1  0
 19 10  1  0
  1 30  1  0
  1 31  1  0
  1 32  1  0
  5 33  1  0
  5 34  1  0
  6 35  1  0
  6 36  1  0
 14 37  1  0
 15 38  1  0
 16 39  1  0
 17 40  1  0
 20 41  1  0
 20 42  1  0
 21 43  1  0
 22 44  1  0
 22 45  1  0
 23 46  1  0
 23 47  1  0
 25 48  1  0
 26 49  1  0
 27 50  1  0
 28 51  1  0
M  END
>  <UniqueID>  (15) 
14

>  <SMILES>  (15) 
CN(C(=O)CCc1nnc2c(n1)c1ccccc1n2CC1CC1)c1ccccn1

>  <Energy>  (15) 
368.3406213541826

>  <Genealogy>  (15) 
CN(C(=O)CCc1nnc2c(n1)c1ccccc1n2CC1CC1)c1ccccn1 (3D coordinates assigned)
CN(C(=O)CCc1nnc2c(n1)c1ccccc1n2CC1CC1)c1ccccn1 (nonaromatic ring conformer: 368.3406213541826 kcal/mol)

>  <smiles>  (15) 
CN(C(=O)CCc1nnc2c(n1)c1ccccc1n2CC1CC1)c1ccccn1

>  <score_type>  (15) 
oracle

>  <origin>  (15) 
adg

>  <m_score__min__energy>  (15) 
-8.9199999999999999

>  <m_primary>  (15) 
energy

$$$$
15:0
     RDKit          3D

 52 55  0  0  0  0  0  0  0  0999 V2000
   54.4610   29.4290   44.2050 H   0  0  0  0  0  0  0  0  0  0  0  0
   55.4880   29.3420   44.0270 N   0  0  0  0  0  0  0  0  0  0  0  0
   56.3750   29.8720   44.8070 C   0  0  0  0  0  0  0  0  0  0  0  0
   56.5200   31.2240   44.8320 N   0  0  0  0  0  0  0  0  0  0  0  0
   57.4360   31.8350   45.6320 C   0  0  0  0  0  0  0  0  0  0  0  0
   57.5259   32.9313   45.6274 H   0  0  0  0  0  0  0  0  0  0  0  0
   58.2630   31.0690   46.4600 C   0  0  0  0  0  0  0  0  0  0  0  0
   59.2340   31.7020   47.3100 C   0  0  0  0  0  0  0  0  0  0  0  0
   60.0370   32.2470   48.0230 C   0  0  0  0  0  0  0  0  0  0  0  0
   60.9900   32.8940   48.8990 C   0  0  0  0  0  0  0  0  0  0  0  0
   60.9170   32.7260   50.3010 C   0  0  0  0  0  0  0  0  0  0  0  0
   59.8290   31.9610   50.9560 C   0  0  0  0  0  0  0  0  0  0  0  0
   59.7630   30.5690   50.7960 C   0  0  0  0  0  0  0  0  0  0  0  0
   60.5188   30.0521   50.1864 H   0  0  0  0  0  0  0  0  0  0  0  0
   58.7420   29.8350   51.4070 C   0  0  0  0  0  0  0  0  0  0  0  0
   58.6864   28.7465   51.2581 H   0  0  0  0  0  0  0  0  0  0  0  0
   57.7880   30.4790   52.2090 C   0  0  0  0  0  0  0  0  0  0  0  0
   56.7090   29.6920   52.8360 C   0  0  0  0  0  0  0  0  0  0  0  0
   56.9890   28.9420   53.8100 O   0  0  0  0  0  0  0  0  0  0  0  0
   55.3510   29.7780   52.3700 N   0  0  0  0  0  0  0  0  0  0  0  0
   54.8020   30.9390   51.6870 C   0  0  0  0  0  0  0  0  0  0  0  0
   54.8829   31.8325   52.3235 H   0  0  0  0  0  0  0  0  0  0  0  0
   55.3447   31.1570   50.7554 H   0  0  0  0  0  0  0  0  0  0  0  0
   53.3400   30.6060   51.4220 C   0  0  0  0  0  0  0  0  0  0  0  0
   52.7031   31.4738   51.6484 H   0  0  0  0  0  0  0  0  0  0  0  0
   53.1708   30.3442   50.3671 H   0  0  0  0  0  0  0  0  0  0  0  0
   53.0000   29.4420   52.3490 C   0  0  0  0  0  0  0  0  0  0  0  0
   52.4757   29.8071   53.2444 H   0  0  0  0  0  0  0  0  0  0  0  0
   52.3372   28.7152   51.8566 H   0  0  0  0  0  0  0  0  0  0  0  0
   54.3320   28.8100   52.7360 C   0  0  0  0  0  0  0  0  0  0  0  0
   54.3623   28.6126   53.8177 H   0  0  0  0  0  0  0  0  0  0  0  0
   54.4865   27.8475   52.2263 H   0  0  0  0  0  0  0  0  0  0  0  0
   57.8520   31.8730   52.3720 C   0  0  0  0  0  0  0  0  0  0  0  0
   56.9060   32.5300   53.0920 F   0  0  0  0  0  0  0  0  0  0  0  0
   58.8750   32.6050   51.7620 C   0  0  0  0  0  0  0  0  0  0  0  0
   58.9335   33.6929   51.9141 H   0  0  0  0  0  0  0  0  0  0  0  0
   61.8900   33.2600   51.0850 N   0  0  0  0  0  0  0  0  0  0  0  0
   62.9200   33.9660   50.5560 C   0  0  0  0  0  0  0  0  0  0  0  0
   63.6941   34.3863   51.2149 H   0  0  0  0  0  0  0  0  0  0  0  0
   62.9960   34.1540   49.2160 N   0  0  0  0  0  0  0  0  0  0  0  0
   62.0550   33.6540   48.3690 C   0  0  0  0  0  0  0  0  0  0  0  0
   62.2130   33.8470   46.8760 C   0  0  0  0  0  0  0  0  0  0  0  0
   61.5026   33.1842   46.3603 H   0  0  0  0  0  0  0  0  0  0  0  0
   62.0180   34.9079   46.6602 H   0  0  0  0  0  0  0  0  0  0  0  0
   63.6230   33.5320   46.3760 C   0  0  0  0  0  0  0  0  0  0  0  0
   64.2922   33.3825   47.2361 H   0  0  0  0  0  0  0  0  0  0  0  0
   63.5998   32.6169   45.7661 H   0  0  0  0  0  0  0  0  0  0  0  0
   63.9915   34.3700   45.7661 H   0  0  0  0  0  0  0  0  0  0  0  0
   58.1350   29.6770   46.4530 C   0  0  0  0  0  0  0  0  0  0  0  0
   58.7785   29.0608   47.0981 H   0  0  0  0  0  0  0  0  0  0  0  0
   57.1870   29.0700   45.6240 C   0  0  0  0  0  0  0  0  0  0  0  0
   57.0786   27.9754   45.6121 H   0  0  0  0  0  0  0  0  0  0  0  0
  1  2  1  0
  2  3  2  0
  3  4  1  0
  4  5  1  0
  5  6  1  0
  5  7  2  0
  7  8  1  0
  8  9  3  0
  9 10  1  0
 10 11  1  0
 11 12  1  0
 12 13  2  0
 13 14  1  0
 13 15  1  0
 15 16  1  0
 15 17  2  0
 17 18  1  0
 18 19  2  0
 18 20  1  0
 20 21  1  0
 21 22  1  0
 21 23  1  0
 21 24  1  0
 24 25  1  0
 24 26  1  0
 24 27  1  0
 27 28  1  0
 27 29  1  0
 27 30  1  0
 30 31  1  0
 30 32  1  0
 17 33  1  0
 33 34  1  0
 33 35  2  0
 35 36  1  0
 11 37  2  0
 37 38  1  0
 38 39  1  0
 38 40  2  0
 40 41  1  0
 41 42  1  0
 42 43  1  0
 42 44  1  0
 42 45  1  0
 45 46  1  0
 45 47  1  0
 45 48  1  0
  7 49  1  0
 49 50  1  0
 49 51  2  0
 51 52  1  0
 51  3  1  0
 41 10  2  0
 35 12  1  0
 30 20  1  0
M  CHG  1   4  -1
M  END
>  <UniqueID>  (16) 
15

>  <SMILES>  (16) 
[H]/N=c1\ccc(C#Cc2c(CC)ncnc2-c2ccc(C(=O)N3CCCC3)c(F)c2)c[n-]1

>  <Energy>  (16) 
64.06295649809296

>  <Genealogy>  (16) 
CCc1ncnc(-c2ccc(C(=O)N3CCCC3)c(F)c2)c1C#Cc1ccc(=N)[n-]c1 (protonated)
[H]/N=c1\ccc(C#Cc2c(CC)ncnc2-c2ccc(C(=O)N3CCCC3)c(F)c2)c[n-]1 (cis-trans isomerization)
[H]/N=c1\ccc(C#Cc2c(CC)ncnc2-c2ccc(C(=O)N3CCCC3)c(F)c2)c[n-]1 (3D coordinates assigned)
[H]/N=c1\ccc(C#Cc2c(CC)ncnc2-c2ccc(C(=O)N3CCCC3)c(F)c2)c[n-]1 (nonaromatic ring conformer: 64.06295649809296 kcal/mol)

>  <smiles>  (16) 
CCc1ncnc(-c2ccc(C(=O)N3CCCC3)c(F)c2)c1C#Cc1ccc(=N)[nH]c1

>  <score_type>  (16) 
oracle

>  <origin>  (16) 
adg

>  <m_score__min__energy>  (16) 
-10.59

>  <m_primary>  (16) 
energy

$$$$
16:0
     RDKit          3D

 35 37  0  0  0  0  0  0  0  0999 V2000
   58.9050   31.0680   48.5790 C   0  0  0  0  0  0  0  0  0  0  0  0
   58.5220   31.5420   47.2060 C   0  0  0  0  0  0  0  0  0  0  0  0
   57.7860   30.7130   46.4220 N   0  0  0  0  0  0  0  0  0  0  0  0
   57.3880   31.0390   45.1900 N   0  0  0  0  0  0  0  0  0  0  0  0
   56.6080   30.0670   44.4690 C   0  0  0  0  0  0  0  0  0  0  0  0
   55.3610   30.2280   44.3800 O   0  0  0  0  0  0  0  0  0  0  0  0
   57.2520   28.9320   43.7150 C   0  0  0  0  0  0  0  0  0  0  0  0
   58.3530   28.2820   44.5160 C   0  0  0  0  0  0  0  0  0  0  0  0
   58.0970   27.1340   45.2860 C   0  0  0  0  0  0  0  0  0  0  0  0
   59.1220   26.5380   46.0270 C   0  0  0  0  0  0  0  0  0  0  0  0
   60.4070   27.0860   46.0150 C   0  0  0  0  0  0  0  0  0  0  0  0
   60.6680   28.2350   45.2630 C   0  0  0  0  0  0  0  0  0  0  0  0
   59.6470   28.8340   44.5210 C   0  0  0  0  0  0  0  0  0  0  0  0
   57.7480   32.2420   44.6400 C   0  0  0  0  0  0  0  0  0  0  0  0
   57.4330   32.5190   43.4500 O   0  0  0  0  0  0  0  0  0  0  0  0
   58.4980   33.1580   45.3980 C   0  0  0  0  0  0  0  0  0  0  0  0
   58.8700   34.4120   44.8740 C   0  0  0  0  0  0  0  0  0  0  0  0
   59.6170   35.3060   45.6420 C   0  0  0  0  0  0  0  0  0  0  0  0
   60.0050   34.9610   46.9370 C   0  0  0  0  0  0  0  0  0  0  0  0
   59.6490   33.7220   47.4710 C   0  0  0  0  0  0  0  0  0  0  0  0
   58.8940   32.8050   46.7090 C   0  0  0  0  0  0  0  0  0  0  0  0
   58.4027   31.6896   49.3349 H   0  0  0  0  0  0  0  0  0  0  0  0
   58.5978   30.0192   48.7038 H   0  0  0  0  0  0  0  0  0  0  0  0
   59.9950   31.1481   48.7038 H   0  0  0  0  0  0  0  0  0  0  0  0
   56.4857   28.1772   43.4847 H   0  0  0  0  0  0  0  0  0  0  0  0
   57.6938   29.3399   42.7939 H   0  0  0  0  0  0  0  0  0  0  0  0
   57.0853   26.7025   45.3056 H   0  0  0  0  0  0  0  0  0  0  0  0
   58.9161   25.6353   46.6209 H   0  0  0  0  0  0  0  0  0  0  0  0
   61.2124   26.6138   46.5967 H   0  0  0  0  0  0  0  0  0  0  0  0
   61.6790   28.6683   45.2554 H   0  0  0  0  0  0  0  0  0  0  0  0
   59.8561   29.7426   43.9373 H   0  0  0  0  0  0  0  0  0  0  0  0
   58.5695   34.6881   43.8525 H   0  0  0  0  0  0  0  0  0  0  0  0
   59.9003   36.2840   45.2259 H   0  0  0  0  0  0  0  0  0  0  0  0
   60.5938   35.6684   47.5393 H   0  0  0  0  0  0  0  0  0  0  0  0
   59.9590   33.4582   48.4929 H   0  0  0  0  0  0  0  0  0  0  0  0
  1  2  1  0
  2  3  2  0
  3  4  1  0
  4  5  1  0
  5  6  2  0
  5  7  1  0
  7  8  1  0
  8  9  2  0
  9 10  1  0
 10 11  2  0
 11 12  1  0
 12 13  2  0
  4 14  1  0
 14 15  2  0
 14 16  1  0
 16 17  2  0
 17 18  1  0
 18 19  2  0
 19 20  1  0
 20 21  2  0
 21  2  1  0
 13  8  1  0
 21 16  1  0
  1 22  1  0
  1 23  1  0
  1 24  1  0
  7 25  1  0
  7 26  1  0
  9 27  1  0
 10 28  1  0
 11 29  1  0
 12 30  1  0
 13 31  1  0
 17 32  1  0
 18 33  1  0
 19 34  1  0
 20 35  1  0
M  END
>  <UniqueID>  (17) 
16

>  <SMILES>  (17) 
Cc1nn(C(=O)Cc2ccccc2)c(=O)c2ccccc12

>  <Energy>  (17) 
49.161775257060185

>  <Genealogy>  (17) 
Cc1nn(C(=O)Cc2ccccc2)c(=O)c2ccccc12 (3D coordinates assigned)
Cc1nn(C(=O)Cc2ccccc2)c(=O)c2ccccc12 (optimized conformer: 49.161775257060185 kcal/mol)

>  <smiles>  (17) 
Cc1nn(C(=O)Cc2ccccc2)c(=O)c2ccccc12

>  <score_type>  (17) 
oracle

>  <origin>  (17) 
adg

>  <m_score__min__energy>  (17) 
-7.9400000000000004

>  <m_primary>  (17) 
energy

$$$$
17:0
     RDKit          3D

 40 40  0  0  0  0  0  0  0  0999 V2000
   63.3720   33.5740   46.7450 C   0  0  0  0  0  0  0  0  0  0  0  0
   61.9310   33.1140   46.9400 C   0  0  0  0  0  0  0  0  0  0  0  0
   60.8890   33.8480   46.0540 C   0  0  0  0  0  0  0  0  0  0  0  0
   59.4660   33.7960   46.5040 N   0  0  0  0  0  0  0  0  0  0  0  0
   59.2500   34.5470   47.7780 C   0  0  0  0  0  0  0  0  0  0  0  0
   59.6090   33.7190   49.0290 C   0  0  0  0  0  0  0  0  0  0  0  0
   58.8760   32.3790   49.0810 C   0  0  0  0  0  0  0  0  0  0  0  0
   58.5130   34.1940   45.4340 C   0  0  0  0  0  0  0  0  0  0  0  0
   57.6210   33.0340   44.9630 C   0  0  0  0  0  0  0  0  0  0  0  0
   57.7510   31.9270   45.8500 O   0  0  0  0  0  0  0  0  0  0  0  0
   58.4380   30.7420   45.5490 C   0  0  0  0  0  0  0  0  0  0  0  0
   59.7450   30.4920   46.0150 C   0  0  0  0  0  0  0  0  0  0  0  0
   60.3940   29.2990   45.6870 C   0  0  0  0  0  0  0  0  0  0  0  0
   59.7500   28.3450   44.8950 C   0  0  0  0  0  0  0  0  0  0  0  0
   58.4560   28.5840   44.4290 C   0  0  0  0  0  0  0  0  0  0  0  0
   57.8000   29.7760   44.7530 C   0  0  0  0  0  0  0  0  0  0  0  0
   56.0310   30.0820   44.0880 Br  0  0  0  0  0  0  0  0  0  0  0  0
   63.8447   33.7249   47.7267 H   0  0  0  0  0  0  0  0  0  0  0  0
   63.9284   32.8088   46.1838 H   0  0  0  0  0  0  0  0  0  0  0  0
   63.3821   34.5200   46.1838 H   0  0  0  0  0  0  0  0  0  0  0  0
   61.8804   32.0396   46.7094 H   0  0  0  0  0  0  0  0  0  0  0  0
   61.6698   33.3462   47.9830 H   0  0  0  0  0  0  0  0  0  0  0  0
   61.1831   34.9067   46.0023 H   0  0  0  0  0  0  0  0  0  0  0  0
   60.9056   33.3171   45.0907 H   0  0  0  0  0  0  0  0  0  0  0  0
   59.2920   32.7800   46.6870 H   0  0  0  0  0  0  0  0  0  0  0  0
   59.8764   35.4511   47.7634 H   0  0  0  0  0  0  0  0  0  0  0  0
   58.1796   34.7928   47.8398 H   0  0  0  0  0  0  0  0  0  0  0  0
   60.6922   33.5275   49.0251 H   0  0  0  0  0  0  0  0  0  0  0  0
   59.3013   34.3000   49.9109 H   0  0  0  0  0  0  0  0  0  0  0  0
   58.7171   32.0885   50.1300 H   0  0  0  0  0  0  0  0  0  0  0  0
   57.9037   32.4730   48.5752 H   0  0  0  0  0  0  0  0  0  0  0  0
   59.4796   31.6110   48.5752 H   0  0  0  0  0  0  0  0  0  0  0  0
   57.8685   34.9977   45.8196 H   0  0  0  0  0  0  0  0  0  0  0  0
   59.1077   34.5241   44.5695 H   0  0  0  0  0  0  0  0  0  0  0  0
   56.5722   33.3652   44.9453 H   0  0  0  0  0  0  0  0  0  0  0  0
   57.9326   32.7262   43.9540 H   0  0  0  0  0  0  0  0  0  0  0  0
   60.2560   31.2395   46.6396 H   0  0  0  0  0  0  0  0  0  0  0  0
   61.4140   29.1104   46.0530 H   0  0  0  0  0  0  0  0  0  0  0  0
   60.2624   27.4060   44.6388 H   0  0  0  0  0  0  0  0  0  0  0  0
   57.9506   27.8323   43.8049 H   0  0  0  0  0  0  0  0  0  0  0  0
  1  2  1  0
  2  3  1  0
  3  4  1  0
  4  5  1  0
  5  6  1  0
  6  7  1  0
  4  8  1  0
  8  9  1  0
  9 10  1  0
 10 11  1  0
 11 12  2  0
 12 13  1  0
 13 14  2  0
 14 15  1  0
 15 16  2  0
 16 17  1  0
 16 11  1  0
  1 18  1  0
  1 19  1  0
  1 20  1  0
  2 21  1  0
  2 22  1  0
  3 23  1  0
  3 24  1  0
  4 25  1  0
  5 26  1  0
  5 27  1  0
  6 28  1  0
  6 29  1  0
  7 30  1  0
  7 31  1  0
  7 32  1  0
  8 33  1  0
  8 34  1  0
  9 35  1  0
  9 36  1  0
 12 37  1  0
 13 38  1  0
 14 39  1  0
 15 40  1  0
M  CHG  1   4   1
M  END
>  <UniqueID>  (18) 
17

>  <SMILES>  (18) 
CCC[NH+](CCC)CCOc1ccccc1Br

>  <Energy>  (18) 
39.86384963477499

>  <Genealogy>  (18) 
CCC[NH+](CCC)CCOc1ccccc1Br (protonated)
CCC[NH+](CCC)CCOc1ccccc1Br (3D coordinates assigned)
CCC[NH+](CCC)CCOc1ccccc1Br (optimized conformer: 39.86384963477499 kcal/mol)

>  <smiles>  (18) 
CCCN(CCC)CCOc1ccccc1Br

>  <score_type>  (18) 
oracle

>  <origin>  (18) 
adg

>  <m_score__min__energy>  (18) 
-3.75

>  <m_primary>  (18) 
energy

$$$$
18:0
     RDKit          3D

 41 44  0  0  0  0  0  0  0  0999 V2000
   56.6649   22.0924   47.2417 H   0  0  0  0  0  0  0  0  0  0  0  0
   56.4630   23.1160   46.8930 C   0  0  0  0  0  0  0  0  0  0  0  0
   55.2240   23.4180   46.2810 C   0  0  0  0  0  0  0  0  0  0  0  0
   54.4688   22.6281   46.1558 H   0  0  0  0  0  0  0  0  0  0  0  0
   54.9520   24.7250   45.8310 C   0  0  0  0  0  0  0  0  0  0  0  0
   53.9926   24.9767   45.3553 H   0  0  0  0  0  0  0  0  0  0  0  0
   55.9430   25.6860   46.0110 C   0  0  0  0  0  0  0  0  0  0  0  0
   57.1390   25.3980   46.6010 C   0  0  0  0  0  0  0  0  0  0  0  0
   57.9140   26.4950   46.6590 N   0  0  0  0  0  0  0  0  0  0  0  0
   57.1290   27.4400   46.0710 C   0  0  0  0  0  0  0  0  0  0  0  0
   57.4720   28.6870   45.9370 N   0  0  0  0  0  0  0  0  0  0  0  0
   56.9870   29.6090   44.9490 C   0  0  0  0  0  0  0  0  0  0  0  0
   55.7420   29.7100   44.7830 O   0  0  0  0  0  0  0  0  0  0  0  0
   57.9160   30.4320   44.0850 C   0  0  0  0  0  0  0  0  0  0  0  0
   58.9511   30.2539   44.4119 H   0  0  0  0  0  0  0  0  0  0  0  0
   57.7611   30.1225   43.0409 H   0  0  0  0  0  0  0  0  0  0  0  0
   57.6240   31.9430   44.1720 C   0  0  0  0  0  0  0  0  0  0  0  0
   58.4859   32.4883   43.7599 H   0  0  0  0  0  0  0  0  0  0  0  0
   56.7016   32.1272   43.6016 H   0  0  0  0  0  0  0  0  0  0  0  0
   57.3750   32.4390   45.6060 C   0  0  0  0  0  0  0  0  0  0  0  0
   56.4668   33.0596   45.6111 H   0  0  0  0  0  0  0  0  0  0  0  0
   57.2661   31.5538   46.2498 H   0  0  0  0  0  0  0  0  0  0  0  0
   58.5160   33.2530   46.1430 C   0  0  0  0  0  0  0  0  0  0  0  0
   58.5360   34.6330   46.3270 C   0  0  0  0  0  0  0  0  0  0  0  0
   57.7177   35.3143   46.0509 H   0  0  0  0  0  0  0  0  0  0  0  0
   59.7010   35.0180   46.8920 N   0  0  0  0  0  0  0  0  0  0  0  0
   59.9790   35.9910   47.1520 H   0  0  0  0  0  0  0  0  0  0  0  0
   60.4180   33.8940   47.0700 C   0  0  0  0  0  0  0  0  0  0  0  0
   61.6850   33.7810   47.6370 C   0  0  0  0  0  0  0  0  0  0  0  0
   62.2287   34.6687   47.9924 H   0  0  0  0  0  0  0  0  0  0  0  0
   62.2480   32.4950   47.7410 C   0  0  0  0  0  0  0  0  0  0  0  0
   63.2478   32.3701   48.1824 H   0  0  0  0  0  0  0  0  0  0  0  0
   61.5370   31.3640   47.2820 C   0  0  0  0  0  0  0  0  0  0  0  0
   61.9868   30.3638   47.3676 H   0  0  0  0  0  0  0  0  0  0  0  0
   60.2570   31.5090   46.7160 C   0  0  0  0  0  0  0  0  0  0  0  0
   59.6926   30.6358   46.3569 H   0  0  0  0  0  0  0  0  0  0  0  0
   59.7270   32.7960   46.6250 C   0  0  0  0  0  0  0  0  0  0  0  0
   55.9180   26.9810   45.6730 N   0  0  0  0  0  0  0  0  0  0  0  0
   55.1450   27.5120   45.2110 H   0  0  0  0  0  0  0  0  0  0  0  0
   57.4400   24.1170   47.0590 C   0  0  0  0  0  0  0  0  0  0  0  0
   58.4071   23.8951   47.5338 H   0  0  0  0  0  0  0  0  0  0  0  0
  1  2  1  0
  2  3  2  0
  3  4  1  0
  3  5  1  0
  5  6  1  0
  5  7  2  0
  7  8  1  0
  8  9  1  0
  9 10  1  0
 10 11  2  0
 11 12  1  0
 12 13  2  0
 12 14  1  0
 14 15  1  0
 14 16  1  0
 14 17  1  0
 17 18  1  0
 17 19  1  0
 17 20  1  0
 20 21  1  0
 20 22  1  0
 20 23  1  0
 23 24  2  0
 24 25  1  0
 24 26  1  0
 26 27  1  0
 26 28  1  0
 28 29  2  0
 29 30  1  0
 29 31  1  0
 31 32  1  0
 31 33  2  0
 33 34  1  0
 33 35  1  0
 35 36  1  0
 35 37  2  0
 10 38  1  0
 38 39  1  0
  8 40  2  0
 40 41  1  0
 40  2  1  0
 38  7  1  0
 37 23  1  0
 37 28  1  0
M  CHG  1   9  -1
M  END
>  <UniqueID>  (19) 
18

>  <SMILES>  (19) 
O=C(CCCc1c[nH]c2ccccc12)/N=c1\[n-]c2ccccc2[nH]1

>  <Energy>  (19) 
114.86406698975043

>  <Genealogy>  (19) 
O=C(CCCc1c[nH]c2ccccc12)N=c1[n-]c2ccccc2[nH]1 (protonated)
O=C(CCCc1c[nH]c2ccccc12)/N=c1\[n-]c2ccccc2[nH]1 (cis-trans isomerization)
O=C(CCCc1c[nH]c2ccccc12)/N=c1\[n-]c2ccccc2[nH]1 (3D coordinates assigned)
O=C(CCCc1c[nH]c2ccccc12)/N=c1\[n-]c2ccccc2[nH]1 (optimized conformer: 114.86406698975043 kcal/mol)

>  <smiles>  (19) 
O=C(CCCc1c[nH]c2ccccc12)N=c1[nH]c2ccccc2[nH]1

>  <score_type>  (19) 
oracle

>  <origin>  (19) 
adg

>  <m_score__min__energy>  (19) 
-10.51

>  <m_primary>  (19) 
energy

$$$$
19:0
     RDKit          3D

 33 35  0  0  0  0  0  0  0  0999 V2000
   59.7200   23.7210   45.6180 C   0  0  0  0  0  0  0  0  0  0  0  0
   59.8560   25.0870   45.9980 O   0  0  0  0  0  0  0  0  0  0  0  0
   58.8190   26.0310   45.9580 C   0  0  0  0  0  0  0  0  0  0  0  0
   57.5010   25.5640   45.9690 C   0  0  0  0  0  0  0  0  0  0  0  0
   56.4210   26.4640   45.9360 C   0  0  0  0  0  0  0  0  0  0  0  0
   55.0850   26.0360   45.9470 O   0  0  0  0  0  0  0  0  0  0  0  0
   54.6530   24.7370   45.5560 C   0  0  0  0  0  0  0  0  0  0  0  0
   56.6760   27.8380   45.8900 C   0  0  0  0  0  0  0  0  0  0  0  0
   57.9930   28.3310   45.8720 C   0  0  0  0  0  0  0  0  0  0  0  0
   58.2300   29.7970   45.8230 C   0  0  0  0  0  0  0  0  0  0  0  0
   57.3580   30.6610   45.2330 N   0  0  0  0  0  0  0  0  0  0  0  0
   57.9490   31.8560   45.4050 C   0  0  0  0  0  0  0  0  0  0  0  0
   57.4900   33.1030   44.9890 C   0  0  0  0  0  0  0  0  0  0  0  0
   58.2910   34.2250   45.2780 C   0  0  0  0  0  0  0  0  0  0  0  0
   59.5160   34.0700   45.9670 C   0  0  0  0  0  0  0  0  0  0  0  0
   59.9490   32.7930   46.3720 C   0  0  0  0  0  0  0  0  0  0  0  0
   59.1290   31.7090   46.0690 C   0  0  0  0  0  0  0  0  0  0  0  0
   59.3260   30.4140   46.3430 N   0  0  0  0  0  0  0  0  0  0  0  0
   59.0610   27.4170   45.9120 C   0  0  0  0  0  0  0  0  0  0  0  0
   59.6576   23.0940   46.5197 H   0  0  0  0  0  0  0  0  0  0  0  0
   58.8050   23.5960   45.0204 H   0  0  0  0  0  0  0  0  0  0  0  0
   60.5924   23.4180   45.0204 H   0  0  0  0  0  0  0  0  0  0  0  0
   57.3071   24.4818   46.0038 H   0  0  0  0  0  0  0  0  0  0  0  0
   54.4519   24.1322   46.4525 H   0  0  0  0  0  0  0  0  0  0  0  0
   53.7344   24.8210   44.9567 H   0  0  0  0  0  0  0  0  0  0  0  0
   55.4389   24.2542   44.9567 H   0  0  0  0  0  0  0  0  0  0  0  0
   55.8332   28.5445   45.8675 H   0  0  0  0  0  0  0  0  0  0  0  0
   56.5351   33.2083   44.4533 H   0  0  0  0  0  0  0  0  0  0  0  0
   57.9618   35.2271   44.9660 H   0  0  0  0  0  0  0  0  0  0  0  0
   60.1344   34.9525   46.1879 H   0  0  0  0  0  0  0  0  0  0  0  0
   60.8999   32.6566   46.9080 H   0  0  0  0  0  0  0  0  0  0  0  0
   60.1510   29.9980   46.8270 H   0  0  0  0  0  0  0  0  0  0  0  0
   60.0962   27.7889   45.9073 H   0  0  0  0  0  0  0  0  0  0  0  0
  1  2  1  0
  2  3  1  0
  3  4  2  0
  4  5  1  0
  5  6  1  0
  6  7  1  0
  5  8  2  0
  8  9  1  0
  9 10  1  0
 10 11  2  0
 11 12  1  0
 12 13  2  0
 13 14  1  0
 14 15  2  0
 15 16  1  0
 16 17  2  0
 17 18  1  0
  9 19  2  0
 19  3  1  0
 18 10  1  0
 17 12  1  0
  1 20  1  0
  1 21  1  0
  1 22  1  0
  4 23  1  0
  7 24  1  0
  7 25  1  0
  7 26  1  0
  8 27  1  0
 13 28  1  0
 14 29  1  0
 15 30  1  0
 16 31  1  0
 18 32  1  0
 19 33  1  0
M  END
>  <UniqueID>  (20) 
19

>  <SMILES>  (20) 
COc1cc(OC)cc(-c2nc3ccccc3[nH]2)c1

>  <Energy>  (20) 
72.32701470354952

>  <Genealogy>  (20) 
COc1cc(OC)cc(-c2nc3ccccc3[nH]2)c1 (3D coordinates assigned)
COc1cc(OC)cc(-c2nc3ccccc3[nH]2)c1 (optimized conformer: 72.32701470354952 kcal/mol)

>  <smiles>  (20) 
COc1cc(OC)cc(-c2nc3ccccc3[nH]2)c1

>  <score_type>  (20) 
oracle

>  <origin>  (20) 
adg

>  <m_score__min__energy>  (20) 
-6

>  <m_primary>  (20) 
energy

$$$$
20:0
     RDKit          3D

 50 53  0  0  0  0  0  0  0  0999 V2000
   60.6160   29.5220   48.1500 C   0  0  0  0  0  0  0  0  0  0  0  0
   59.9620   28.3630   47.4470 C   0  0  0  0  0  0  0  0  0  0  0  0
   60.3840   27.0560   47.7340 C   0  0  0  0  0  0  0  0  0  0  0  0
   59.8010   25.9620   47.0900 C   0  0  0  0  0  0  0  0  0  0  0  0
   58.7920   26.1570   46.1360 C   0  0  0  0  0  0  0  0  0  0  0  0
   58.1720   25.0060   45.4470 C   0  0  0  0  0  0  0  0  0  0  0  0
   57.5120   25.1060   44.2610 N   0  0  0  0  0  0  0  0  0  0  0  0
   57.1480   23.8320   44.0400 C   0  0  0  0  0  0  0  0  0  0  0  0
   56.4420   23.3070   42.9650 C   0  0  0  0  0  0  0  0  0  0  0  0
   56.1960   21.9620   42.9550 N   0  0  0  0  0  0  0  0  0  0  0  0
   56.6220   21.1380   43.9650 C   0  0  0  0  0  0  0  0  0  0  0  0
   57.3350   21.6650   45.0600 C   0  0  0  0  0  0  0  0  0  0  0  0
   57.8950   20.6420   46.3700 Cl  0  0  0  0  0  0  0  0  0  0  0  0
   57.5770   23.0340   45.0500 C   0  0  0  0  0  0  0  0  0  0  0  0
   58.2120   23.7690   45.9210 O   0  0  0  0  0  0  0  0  0  0  0  0
   58.3780   27.4610   45.8340 C   0  0  0  0  0  0  0  0  0  0  0  0
   58.9450   28.5710   46.4880 C   0  0  0  0  0  0  0  0  0  0  0  0
   58.5390   29.9040   46.1270 N   0  0  0  0  0  0  0  0  0  0  0  0
   57.3980   30.1850   45.3050 C   0  0  0  0  0  0  0  0  0  0  0  0
   56.4570   29.3500   45.2150 O   0  0  0  0  0  0  0  0  0  0  0  0
   57.3080   31.4860   44.5490 C   0  0  0  0  0  0  0  0  0  0  0  0
   58.1150   32.5700   45.1520 N   0  0  0  0  0  0  0  0  0  0  0  0
   57.8490   32.7540   46.5950 C   0  0  0  0  0  0  0  0  0  0  0  0
   58.4250   34.0860   47.1250 C   0  0  0  0  0  0  0  0  0  0  0  0
   59.5440   34.5840   46.3000 N   0  0  0  0  0  0  0  0  0  0  0  0
   60.7450   33.7410   46.4360 C   0  0  0  0  0  0  0  0  0  0  0  0
   59.1580   34.7850   44.8810 C   0  0  0  0  0  0  0  0  0  0  0  0
   58.0340   33.8390   44.4140 C   0  0  0  0  0  0  0  0  0  0  0  0
   60.5373   29.3825   49.2383 H   0  0  0  0  0  0  0  0  0  0  0  0
   61.6766   29.5739   47.8628 H   0  0  0  0  0  0  0  0  0  0  0  0
   60.1122   30.4567   47.8628 H   0  0  0  0  0  0  0  0  0  0  0  0
   61.1817   26.8912   48.4733 H   0  0  0  0  0  0  0  0  0  0  0  0
   60.1351   24.9424   47.3325 H   0  0  0  0  0  0  0  0  0  0  0  0
   56.0916   23.9535   42.1469 H   0  0  0  0  0  0  0  0  0  0  0  0
   56.4060   20.0604   43.9200 H   0  0  0  0  0  0  0  0  0  0  0  0
   57.5983   27.6197   45.0745 H   0  0  0  0  0  0  0  0  0  0  0  0
   59.1250   30.7090   46.4440 H   0  0  0  0  0  0  0  0  0  0  0  0
   57.6617   31.3178   43.5211 H   0  0  0  0  0  0  0  0  0  0  0  0
   56.2565   31.8077   44.5779 H   0  0  0  0  0  0  0  0  0  0  0  0
   56.7613   32.7472   46.7592 H   0  0  0  0  0  0  0  0  0  0  0  0
   58.3388   31.9323   47.1380 H   0  0  0  0  0  0  0  0  0  0  0  0
   57.6248   34.8407   47.1273 H   0  0  0  0  0  0  0  0  0  0  0  0
   58.8111   33.9043   48.1389 H   0  0  0  0  0  0  0  0  0  0  0  0
   60.9655   33.5862   47.5025 H   0  0  0  0  0  0  0  0  0  0  0  0
   60.5670   32.7686   45.9535 H   0  0  0  0  0  0  0  0  0  0  0  0
   61.5990   34.2389   45.9535 H   0  0  0  0  0  0  0  0  0  0  0  0
   58.8151   35.8227   44.7563 H   0  0  0  0  0  0  0  0  0  0  0  0
   60.0445   34.5644   44.2683 H   0  0  0  0  0  0  0  0  0  0  0  0
   57.0580   34.3099   44.6026 H   0  0  0  0  0  0  0  0  0  0  0  0
   58.1476   33.6421   43.3377 H   0  0  0  0  0  0  0  0  0  0  0  0
  1  2  1  0
  2  3  2  0
  3  4  1  0
  4  5  2  0
  5  6  1  0
  6  7  2  0
  7  8  1  0
  8  9  2  0
  9 10  1  0
 10 11  2  0
 11 12  1  0
 12 13  1  0
 12 14  2  0
 14 15  1  0
  5 16  1  0
 16 17  2  0
 17 18  1  0
 18 19  1  0
 19 20  2  0
 19 21  1  0
 21 22  1  0
 22 23  1  0
 23 24  1  0
 24 25  1  0
 25 26  1  0
 25 27  1  0
 27 28  1  0
 17  2  1  0
 28 22  1  0
 15  6  1  0
 14  8  1  0
  1 29  1  0
  1 30  1  0
  1 31  1  0
  3 32  1  0
  4 33  1  0
  9 34  1  0
 11 35  1  0
 16 36  1  0
 18 37  1  0
 21 38  1  0
 21 39  1  0
 23 40  1  0
 23 41  1  0
 24 42  1  0
 24 43  1  0
 26 44  1  0
 26 45  1  0
 26 46  1  0
 27 47  1  0
 27 48  1  0
 28 49  1  0
 28 50  1  0
M  END
>  <UniqueID>  (21) 
20

>  <SMILES>  (21) 
Cc1ccc(-c2nc3cncc(Cl)c3o2)cc1NC(=O)CN1CCN(C)CC1

>  <Energy>  (21) 
107.62984257622858

>  <Genealogy>  (21) 
Cc1ccc(-c2nc3cncc(Cl)c3o2)cc1NC(=O)CN1CCN(C)CC1 (3D coordinates assigned)
Cc1ccc(-c2nc3cncc(Cl)c3o2)cc1NC(=O)CN1CCN(C)CC1 (nonaromatic ring conformer: 107.62984257622858 kcal/mol)

>  <smiles>  (21) 
Cc1ccc(-c2nc3cncc(Cl)c3o2)cc1NC(=O)CN1CCN(C)CC1

>  <score_type>  (21) 
oracle

>  <origin>  (21) 
adg

>  <m_score__min__energy>  (21) 
-8.3800000000000008

>  <m_primary>  (21) 
energy

$$$$
21:0
     RDKit          3D

 43 46  0  0  0  0  0  0  0  0999 V2000
   59.8600   30.3970   49.1040 C   0  0  0  0  0  0  0  0  0  0  0  0
   60.3080   31.7450   49.0420 O   0  0  0  0  0  0  0  0  0  0  0  0
   61.4430   32.1350   48.3250 C   0  0  0  0  0  0  0  0  0  0  0  0
   62.2910   31.1970   47.8160 N   0  0  0  0  0  0  0  0  0  0  0  0
   63.4190   31.5360   47.1390 C   0  0  0  0  0  0  0  0  0  0  0  0
   63.7450   32.8780   46.9540 C   0  0  0  0  0  0  0  0  0  0  0  0
   62.8940   33.8640   47.4550 C   0  0  0  0  0  0  0  0  0  0  0  0
   61.7210   33.5030   48.1340 C   0  0  0  0  0  0  0  0  0  0  0  0
   60.8080   34.5780   48.6830 C   0  0  0  0  0  0  0  0  0  0  0  0
   59.3870   34.2020   48.5810 N   0  0  0  0  0  0  0  0  0  0  0  0
   58.9890   33.9980   47.2080 C   0  0  0  0  0  0  0  0  0  0  0  0
   59.1580   35.0230   46.2610 C   0  0  0  0  0  0  0  0  0  0  0  0
   58.7980   34.8180   44.9270 C   0  0  0  0  0  0  0  0  0  0  0  0
   58.2660   33.5910   44.5250 C   0  0  0  0  0  0  0  0  0  0  0  0
   58.1010   32.5500   45.4510 C   0  0  0  0  0  0  0  0  0  0  0  0
   57.4980   31.2720   45.0140 C   0  0  0  0  0  0  0  0  0  0  0  0
   56.2270   31.2460   44.5200 N   0  0  0  0  0  0  0  0  0  0  0  0
   55.8960   29.6520   44.1650 S   0  0  0  0  0  0  0  0  0  0  0  0
   57.3420   28.9730   44.6150 C   0  0  0  0  0  0  0  0  0  0  0  0
   57.7660   27.6490   44.5570 C   0  0  0  0  0  0  0  0  0  0  0  0
   59.0770   27.3650   44.9680 C   0  0  0  0  0  0  0  0  0  0  0  0
   59.9240   28.4010   45.4090 C   0  0  0  0  0  0  0  0  0  0  0  0
   59.4650   29.7290   45.4510 C   0  0  0  0  0  0  0  0  0  0  0  0
   58.1460   30.0090   45.0640 C   0  0  0  0  0  0  0  0  0  0  0  0
   58.4500   32.7650   46.7960 C   0  0  0  0  0  0  0  0  0  0  0  0
   59.7587   30.0923   50.1561 H   0  0  0  0  0  0  0  0  0  0  0  0
   58.8850   30.3112   48.6019 H   0  0  0  0  0  0  0  0  0  0  0  0
   60.5896   29.7447   48.6019 H   0  0  0  0  0  0  0  0  0  0  0  0
   64.0755   30.7504   46.7366 H   0  0  0  0  0  0  0  0  0  0  0  0
   64.6642   33.1575   46.4183 H   0  0  0  0  0  0  0  0  0  0  0  0
   63.1436   34.9264   47.3171 H   0  0  0  0  0  0  0  0  0  0  0  0
   61.0553   34.7471   49.7414 H   0  0  0  0  0  0  0  0  0  0  0  0
   60.9612   35.4899   48.0873 H   0  0  0  0  0  0  0  0  0  0  0  0
   59.2060   33.3440   49.1540 H   0  0  0  0  0  0  0  0  0  0  0  0
   58.8060   34.9720   48.9890 H   0  0  0  0  0  0  0  0  0  0  0  0
   59.5760   35.9917   46.5721 H   0  0  0  0  0  0  0  0  0  0  0  0
   58.9338   35.6247   44.1916 H   0  0  0  0  0  0  0  0  0  0  0  0
   57.9743   33.4397   43.4752 H   0  0  0  0  0  0  0  0  0  0  0  0
   57.0962   26.8523   44.2011 H   0  0  0  0  0  0  0  0  0  0  0  0
   59.4453   26.3287   44.9458 H   0  0  0  0  0  0  0  0  0  0  0  0
   60.9524   28.1688   45.7229 H   0  0  0  0  0  0  0  0  0  0  0  0
   60.1317   30.5384   45.7831 H   0  0  0  0  0  0  0  0  0  0  0  0
   58.3004   31.9621   47.5329 H   0  0  0  0  0  0  0  0  0  0  0  0
  1  2  1  0
  2  3  1  0
  3  4  2  0
  4  5  1  0
  5  6  2  0
  6  7  1  0
  7  8  2  0
  8  9  1  0
  9 10  1  0
 10 11  1  0
 11 12  2  0
 12 13  1  0
 13 14  2  0
 14 15  1  0
 15 16  1  0
 16 17  2  0
 17 18  1  0
 18 19  1  0
 19 20  2  0
 20 21  1  0
 21 22  2  0
 22 23  1  0
 23 24  2  0
 15 25  2  0
  8  3  1  0
 25 11  1  0
 24 16  1  0
 24 19  1  0
  1 26  1  0
  1 27  1  0
  1 28  1  0
  5 29  1  0
  6 30  1  0
  7 31  1  0
  9 32  1  0
  9 33  1  0
 10 34  1  0
 10 35  1  0
 12 36  1  0
 13 37  1  0
 14 38  1  0
 20 39  1  0
 21 40  1  0
 22 41  1  0
 23 42  1  0
 25 43  1  0
M  CHG  1  10   1
M  END
>  <UniqueID>  (22) 
21

>  <SMILES>  (22) 
COc1ncccc1C[NH2+]c1cccc(-c2nsc3ccccc23)c1

>  <Energy>  (22) 
86.95386073101938

>  <Genealogy>  (22) 
COc1ncccc1C[NH2+]c1cccc(-c2nsc3ccccc23)c1 (protonated)
COc1ncccc1C[NH2+]c1cccc(-c2nsc3ccccc23)c1 (3D coordinates assigned)
COc1ncccc1C[NH2+]c1cccc(-c2nsc3ccccc23)c1 (optimized conformer: 86.95386073101938 kcal/mol)

>  <smiles>  (22) 
COc1ncccc1CNc1cccc(-c2nsc3ccccc23)c1

>  <score_type>  (22) 
oracle

>  <origin>  (22) 
adg

>  <m_score__min__energy>  (22) 
-7.1399999999999997

>  <m_primary>  (22) 
energy

$$$$
22:0
     RDKit          3D

 46 49  0  0  0  0  0  0  0  0999 V2000
   57.0190   25.2700   45.0400 C   0  0  0  0  0  0  0  0  0  0  0  0
   56.6310   26.5990   45.3710 O   0  0  0  0  0  0  0  0  0  0  0  0
   57.5110   27.5960   45.8260 C   0  0  0  0  0  0  0  0  0  0  0  0
   58.0520   27.5710   47.1230 C   0  0  0  0  0  0  0  0  0  0  0  0
   58.9410   28.5630   47.5420 C   0  0  0  0  0  0  0  0  0  0  0  0
   59.3070   29.6060   46.6790 C   0  0  0  0  0  0  0  0  0  0  0  0
   60.2750   30.6440   47.1150 C   0  0  0  0  0  0  0  0  0  0  0  0
   59.9740   31.7480   47.9180 C   0  0  0  0  0  0  0  0  0  0  0  0
   61.1610   32.4320   48.0490 C   0  0  0  0  0  0  0  0  0  0  0  0
   61.4590   33.6090   48.7360 C   0  0  0  0  0  0  0  0  0  0  0  0
   62.7830   34.0810   48.6850 C   0  0  0  0  0  0  0  0  0  0  0  0
   63.7660   33.3740   47.9570 C   0  0  0  0  0  0  0  0  0  0  0  0
   63.4340   32.1890   47.2740 C   0  0  0  0  0  0  0  0  0  0  0  0
   62.1130   31.7460   47.3450 C   0  0  0  0  0  0  0  0  0  0  0  0
   61.5880   30.6520   46.7700 N   0  0  0  0  0  0  0  0  0  0  0  0
   58.7540   29.6420   45.3880 C   0  0  0  0  0  0  0  0  0  0  0  0
   57.8610   28.6470   44.9520 C   0  0  0  0  0  0  0  0  0  0  0  0
   57.3660   28.6740   43.5930 N   0  0  0  0  0  0  0  0  0  0  0  0
   56.3790   29.7510   43.4010 C   0  0  0  0  0  0  0  0  0  0  0  0
   56.9780   31.1130   43.6660 C   0  0  0  0  0  0  0  0  0  0  0  0
   56.6930   31.7880   44.8630 C   0  0  0  0  0  0  0  0  0  0  0  0
   57.2940   33.0210   45.1370 C   0  0  0  0  0  0  0  0  0  0  0  0
   58.1870   33.5830   44.2200 C   0  0  0  0  0  0  0  0  0  0  0  0
   58.4800   32.9140   43.0290 C   0  0  0  0  0  0  0  0  0  0  0  0
   57.8790   31.6830   42.7510 C   0  0  0  0  0  0  0  0  0  0  0  0
   57.1865   24.6962   45.9634 H   0  0  0  0  0  0  0  0  0  0  0  0
   56.2230   24.7917   44.4504 H   0  0  0  0  0  0  0  0  0  0  0  0
   57.9473   25.2951   44.4504 H   0  0  0  0  0  0  0  0  0  0  0  0
   57.7725   26.7624   47.8145 H   0  0  0  0  0  0  0  0  0  0  0  0
   59.3584   28.5259   48.5591 H   0  0  0  0  0  0  0  0  0  0  0  0
   58.9985   32.0129   48.3517 H   0  0  0  0  0  0  0  0  0  0  0  0
   60.6842   34.1500   49.2990 H   0  0  0  0  0  0  0  0  0  0  0  0
   63.0547   35.0059   49.2149 H   0  0  0  0  0  0  0  0  0  0  0  0
   64.7983   33.7524   47.9238 H   0  0  0  0  0  0  0  0  0  0  0  0
   64.1908   31.6308   46.7033 H   0  0  0  0  0  0  0  0  0  0  0  0
   62.0950   29.9720   46.1620 H   0  0  0  0  0  0  0  0  0  0  0  0
   59.0241   30.4623   44.7067 H   0  0  0  0  0  0  0  0  0  0  0  0
   58.1630   28.8230   42.9310 H   0  0  0  0  0  0  0  0  0  0  0  0
   56.9360   27.7520   43.3400 H   0  0  0  0  0  0  0  0  0  0  0  0
   56.0130   29.7183   42.3642 H   0  0  0  0  0  0  0  0  0  0  0  0
   55.5570   29.5935   44.1148 H   0  0  0  0  0  0  0  0  0  0  0  0
   55.9943   31.3457   45.5885 H   0  0  0  0  0  0  0  0  0  0  0  0
   57.0639   33.5486   46.0744 H   0  0  0  0  0  0  0  0  0  0  0  0
   58.6593   34.5526   44.4363 H   0  0  0  0  0  0  0  0  0  0  0  0
   59.1844   33.3565   42.3093 H   0  0  0  0  0  0  0  0  0  0  0  0
   58.1123   31.1587   41.8126 H   0  0  0  0  0  0  0  0  0  0  0  0
  1  2  1  0
  2  3  1  0
  3  4  2  0
  4  5  1  0
  5  6  2  0
  6  7  1  0
  7  8  2  0
  8  9  1  0
  9 10  2  0
 10 11  1  0
 11 12  2  0
 12 13  1  0
 13 14  2  0
 14 15  1  0
  6 16  1  0
 16 17  2  0
 17 18  1  0
 18 19  1  0
 19 20  1  0
 20 21  2  0
 21 22  1  0
 22 23  2  0
 23 24  1  0
 24 25  2  0
 17  3  1  0
 25 20  1  0
 15  7  1  0
 14  9  1  0
  1 26  1  0
  1 27  1  0
  1 28  1  0
  4 29  1  0
  5 30  1  0
  8 31  1  0
 10 32  1  0
 11 33  1  0
 12 34  1  0
 13 35  1  0
 15 36  1  0
 16 37  1  0
 18 38  1  0
 18 39  1  0
 19 40  1  0
 19 41  1  0
 21 42  1  0
 22 43  1  0
 23 44  1  0
 24 45  1  0
 25 46  1  0
M  CHG  1  18   1
M  END
>  <UniqueID>  (23) 
22

>  <SMILES>  (23) 
COc1ccc(-c2cc3ccccc3[nH]2)cc1[NH2+]Cc1ccccc1

>  <Energy>  (23) 
84.84576954042744

>  <Genealogy>  (23) 
COc1ccc(-c2cc3ccccc3[nH]2)cc1[NH2+]Cc1ccccc1 (protonated)
COc1ccc(-c2cc3ccccc3[nH]2)cc1[NH2+]Cc1ccccc1 (3D coordinates assigned)
COc1ccc(-c2cc3ccccc3[nH]2)cc1[NH2+]Cc1ccccc1 (optimized conformer: 84.84576954042744 kcal/mol)

>  <smiles>  (23) 
COc1ccc(-c2cc3ccccc3[nH]2)cc1NCc1ccccc1

>  <score_type>  (23) 
oracle

>  <origin>  (23) 
adg

>  <m_score__min__energy>  (23) 
-6.4800000000000004

>  <m_primary>  (23) 
energy

$$$$
23:0
     RDKit          3D

 45 48  0  0  0  0  0  0  0  0999 V2000
   60.0010   36.0220   46.0210 C   0  0  0  0  0  0  0  0  0  0  0  0
   59.5660   35.3190   44.8640 O   0  0  0  0  0  0  0  0  0  0  0  0
   58.7290   34.1940   44.8810 C   0  0  0  0  0  0  0  0  0  0  0  0
   57.9570   33.8450   46.0050 C   0  0  0  0  0  0  0  0  0  0  0  0
   57.1060   32.7350   45.9600 C   0  0  0  0  0  0  0  0  0  0  0  0
   57.0140   31.9600   44.7880 C   0  0  0  0  0  0  0  0  0  0  0  0
   56.1780   30.7950   44.7150 N   0  0  0  0  0  0  0  0  0  0  0  0
   56.6310   29.4360   44.7670 C   0  0  0  0  0  0  0  0  0  0  0  0
   55.9060   28.5290   45.2570 O   0  0  0  0  0  0  0  0  0  0  0  0
   57.9910   29.0960   44.2450 C   0  0  0  0  0  0  0  0  0  0  0  0
   58.6050   28.0660   45.0930 N   0  0  0  0  0  0  0  0  0  0  0  0
   59.2670   28.2360   46.2800 C   0  0  0  0  0  0  0  0  0  0  0  0
   59.6100   29.5460   46.8680 C   0  0  0  0  0  0  0  0  0  0  0  0
   58.7100   30.1640   47.7550 C   0  0  0  0  0  0  0  0  0  0  0  0
   59.0000   31.4230   48.2860 C   0  0  0  0  0  0  0  0  0  0  0  0
   60.1980   32.0640   47.9600 C   0  0  0  0  0  0  0  0  0  0  0  0
   60.5810   33.7920   48.6770 Br  0  0  0  0  0  0  0  0  0  0  0  0
   61.1130   31.4380   47.1070 C   0  0  0  0  0  0  0  0  0  0  0  0
   60.8270   30.1790   46.5700 C   0  0  0  0  0  0  0  0  0  0  0  0
   59.4960   27.0700   46.9470 N   0  0  0  0  0  0  0  0  0  0  0  0
   58.9680   26.1430   46.1310 C   0  0  0  0  0  0  0  0  0  0  0  0
   58.9060   24.7700   46.3480 C   0  0  0  0  0  0  0  0  0  0  0  0
   58.2580   23.9830   45.3790 C   0  0  0  0  0  0  0  0  0  0  0  0
   57.6860   24.5830   44.2350 C   0  0  0  0  0  0  0  0  0  0  0  0
   57.7590   25.9780   44.0470 C   0  0  0  0  0  0  0  0  0  0  0  0
   58.4250   26.7320   45.0190 C   0  0  0  0  0  0  0  0  0  0  0  0
   57.8180   32.2820   43.6880 C   0  0  0  0  0  0  0  0  0  0  0  0
   58.6620   33.3970   43.7300 C   0  0  0  0  0  0  0  0  0  0  0  0
   59.6692   35.4857   46.9223 H   0  0  0  0  0  0  0  0  0  0  0  0
   61.0989   36.0895   46.0179 H   0  0  0  0  0  0  0  0  0  0  0  0
   59.5714   37.0346   46.0179 H   0  0  0  0  0  0  0  0  0  0  0  0
   58.0229   34.4475   46.9230 H   0  0  0  0  0  0  0  0  0  0  0  0
   56.5071   32.4671   46.8429 H   0  0  0  0  0  0  0  0  0  0  0  0
   57.9033   28.7175   43.2159 H   0  0  0  0  0  0  0  0  0  0  0  0
   58.6204   29.9981   44.2551 H   0  0  0  0  0  0  0  0  0  0  0  0
   57.7752   29.6544   48.0313 H   0  0  0  0  0  0  0  0  0  0  0  0
   58.2832   31.9112   48.9627 H   0  0  0  0  0  0  0  0  0  0  0  0
   62.0607   31.9378   46.8578 H   0  0  0  0  0  0  0  0  0  0  0  0
   61.5570   29.6837   45.9129 H   0  0  0  0  0  0  0  0  0  0  0  0
   59.3486   24.3156   47.2467 H   0  0  0  0  0  0  0  0  0  0  0  0
   58.1962   22.8929   45.5128 H   0  0  0  0  0  0  0  0  0  0  0  0
   57.1799   23.9569   43.4854 H   0  0  0  0  0  0  0  0  0  0  0  0
   57.3076   26.4575   43.1659 H   0  0  0  0  0  0  0  0  0  0  0  0
   57.7859   31.6545   42.7851 H   0  0  0  0  0  0  0  0  0  0  0  0
   59.2771   33.6499   42.8538 H   0  0  0  0  0  0  0  0  0  0  0  0
  1  2  1  0
  2  3  1  0
  3  4  2  0
  4  5  1  0
  5  6  2  0
  6  7  1  0
  7  8  1  0
  8  9  2  0
  8 10  1  0
 10 11  1  0
 11 12  1  0
 12 13  1  0
 13 14  2  0
 14 15  1  0
 15 16  2  0
 16 17  1  0
 16 18  1  0
 18 19  2  0
 12 20  2  0
 20 21  1  0
 21 22  2  0
 22 23  1  0
 23 24  2  0
 24 25  1  0
 25 26  2  0
  6 27  1  0
 27 28  2  0
 28  3  1  0
 26 11  1  0
 19 13  1  0
 26 21  1  0
  1 29  1  0
  1 30  1  0
  1 31  1  0
  4 32  1  0
  5 33  1  0
 10 34  1  0
 10 35  1  0
 14 36  1  0
 15 37  1  0
 18 38  1  0
 19 39  1  0
 22 40  1  0
 23 41  1  0
 24 42  1  0
 25 43  1  0
 27 44  1  0
 28 45  1  0
M  CHG  1   7  -1
M  END
>  <UniqueID>  (24) 
23

>  <SMILES>  (24) 
COc1ccc([N-]C(=O)Cn2c(-c3ccc(Br)cc3)nc3ccccc32)cc1

>  <Energy>  (24) 
91.48635314498065

>  <Genealogy>  (24) 
COc1ccc([N-]C(=O)Cn2c(-c3ccc(Br)cc3)nc3ccccc32)cc1 (protonated)
COc1ccc([N-]C(=O)Cn2c(-c3ccc(Br)cc3)nc3ccccc32)cc1 (3D coordinates assigned)
COc1ccc([N-]C(=O)Cn2c(-c3ccc(Br)cc3)nc3ccccc32)cc1 (optimized conformer: 91.48635314498065 kcal/mol)

>  <smiles>  (24) 
COc1ccc(NC(=O)Cn2c(-c3ccc(Br)cc3)nc3ccccc32)cc1

>  <score_type>  (24) 
oracle

>  <origin>  (24) 
adg

>  <m_score__min__energy>  (24) 
-9.9800000000000004

>  <m_primary>  (24) 
energy

$$$$
24:0
     RDKit          3D

 53 55  0  0  0  0  0  0  0  0999 V2000
   62.1670   32.8410   47.3980 C   0  0  0  0  0  0  0  0  0  0  0  0
   60.8420   32.0700   47.2810 C   0  0  0  0  0  0  0  0  0  0  0  0
   59.6140   32.8940   47.4260 N   0  0  1  0  0  0  0  0  0  0  0  0
   59.6570   33.8440   48.5480 C   0  0  0  0  0  0  0  0  0  0  0  0
   59.1660   33.6990   45.9360 S   0  0  0  0  0  0  0  0  0  0  0  0
   58.2640   34.8600   46.2530 O   0  0  0  0  0  0  0  0  0  0  0  0
   60.4020   34.2460   45.2760 O   0  0  0  0  0  0  0  0  0  0  0  0
   58.3480   32.6270   44.7980 C   0  0  0  0  0  0  0  0  0  0  0  0
   58.3180   32.9390   43.4330 C   0  0  0  0  0  0  0  0  0  0  0  0
   57.6600   32.0950   42.5350 C   0  0  0  0  0  0  0  0  0  0  0  0
   57.0260   30.9380   42.9960 C   0  0  0  0  0  0  0  0  0  0  0  0
   57.0400   30.6190   44.3650 C   0  0  0  0  0  0  0  0  0  0  0  0
   56.3780   29.3920   44.8580 C   0  0  0  0  0  0  0  0  0  0  0  0
   55.1510   29.4310   45.1490 O   0  0  0  0  0  0  0  0  0  0  0  0
   57.1020   28.1550   44.9990 N   0  0  0  0  0  0  0  0  0  0  0  0
   56.7950   27.2460   46.1080 C   0  0  0  0  0  0  0  0  0  0  0  0
   56.4190   25.8710   45.5540 C   0  0  0  0  0  0  0  0  0  0  0  0
   57.4160   25.3940   44.5790 N   0  0  0  0  0  0  0  0  0  0  0  0
   57.4170   24.0040   44.1910 C   0  0  0  0  0  0  0  0  0  0  0  0
   56.5610   23.5460   43.1710 C   0  0  0  0  0  0  0  0  0  0  0  0
   56.5600   22.2000   42.7980 C   0  0  0  0  0  0  0  0  0  0  0  0
   57.4090   21.2950   43.4390 C   0  0  0  0  0  0  0  0  0  0  0  0
   58.2590   21.7350   44.4550 C   0  0  0  0  0  0  0  0  0  0  0  0
   58.2650   23.0810   44.8310 C   0  0  0  0  0  0  0  0  0  0  0  0
   58.5090   26.2820   44.1510 C   0  0  0  0  0  0  0  0  0  0  0  0
   57.9920   27.7080   43.9150 C   0  0  0  0  0  0  0  0  0  0  0  0
   57.7220   31.4600   45.2580 C   0  0  0  0  0  0  0  0  0  0  0  0
   62.4148   32.9852   48.4600 H   0  0  0  0  0  0  0  0  0  0  0  0
   62.9688   32.2684   46.9089 H   0  0  0  0  0  0  0  0  0  0  0  0
   62.0654   33.8210   46.9089 H   0  0  0  0  0  0  0  0  0  0  0  0
   60.8143   31.5896   46.2918 H   0  0  0  0  0  0  0  0  0  0  0  0
   60.8302   31.3559   48.1176 H   0  0  0  0  0  0  0  0  0  0  0  0
   58.8300   32.2290   47.6280 H   0  0  0  0  0  0  0  0  0  0  0  0
   59.6319   33.2905   49.4983 H   0  0  0  0  0  0  0  0  0  0  0  0
   60.5828   34.4354   48.4924 H   0  0  0  0  0  0  0  0  0  0  0  0
   58.7884   34.5166   48.4924 H   0  0  0  0  0  0  0  0  0  0  0  0
   58.8135   33.8504   43.0672 H   0  0  0  0  0  0  0  0  0  0  0  0
   57.6409   32.3416   41.4632 H   0  0  0  0  0  0  0  0  0  0  0  0
   56.5137   30.2739   42.2843 H   0  0  0  0  0  0  0  0  0  0  0  0
   57.6772   27.1502   46.7580 H   0  0  0  0  0  0  0  0  0  0  0  0
   55.9523   27.6492   46.6888 H   0  0  0  0  0  0  0  0  0  0  0  0
   56.3601   25.1537   46.3859 H   0  0  0  0  0  0  0  0  0  0  0  0
   55.4484   25.9566   45.0435 H   0  0  0  0  0  0  0  0  0  0  0  0
   55.8882   24.2535   42.6643 H   0  0  0  0  0  0  0  0  0  0  0  0
   55.8896   21.8522   41.9983 H   0  0  0  0  0  0  0  0  0  0  0  0
   57.4078   20.2355   43.1432 H   0  0  0  0  0  0  0  0  0  0  0  0
   58.9255   21.0209   44.9608 H   0  0  0  0  0  0  0  0  0  0  0  0
   58.9371   23.4213   45.6326 H   0  0  0  0  0  0  0  0  0  0  0  0
   59.2830   26.3037   44.9323 H   0  0  0  0  0  0  0  0  0  0  0  0
   58.9269   25.8980   43.2087 H   0  0  0  0  0  0  0  0  0  0  0  0
   58.8510   28.3925   43.8550 H   0  0  0  0  0  0  0  0  0  0  0  0
   57.4164   27.7114   42.9777 H   0  0  0  0  0  0  0  0  0  0  0  0
   57.7656   31.2016   46.3263 H   0  0  0  0  0  0  0  0  0  0  0  0
  1  2  1  0
  2  3  1  0
  3  4  1  0
  3  5  1  0
  5  6  2  0
  5  7  2  0
  5  8  1  0
  8  9  2  0
  9 10  1  0
 10 11  2  0
 11 12  1  0
 12 13  1  0
 13 14  2  0
 13 15  1  0
 15 16  1  0
 16 17  1  0
 17 18  1  0
 18 19  1  0
 19 20  2  0
 20 21  1  0
 21 22  2  0
 22 23  1  0
 23 24  2  0
 18 25  1  0
 25 26  1  0
 12 27  2  0
 27  8  1  0
 26 15  1  0
 24 19  1  0
  1 28  1  0
  1 29  1  0
  1 30  1  0
  2 31  1  0
  2 32  1  0
  3 33  1  1
  4 34  1  0
  4 35  1  0
  4 36  1  0
  9 37  1  0
 10 38  1  0
 11 39  1  0
 16 40  1  0
 16 41  1  0
 17 42  1  0
 17 43  1  0
 20 44  1  0
 21 45  1  0
 22 46  1  0
 23 47  1  0
 24 48  1  0
 25 49  1  0
 25 50  1  0
 26 51  1  0
 26 52  1  0
 27 53  1  0
M  CHG  1   3   1
M  END
>  <UniqueID>  (25) 
24

>  <SMILES>  (25) 
CC[N@@H+](C)S(=O)(=O)c1cccc(C(=O)N2CCN(c3ccccc3)CC2)c1

>  <Energy>  (25) 
64.72695824773916

>  <Genealogy>  (25) 
CC[NH+](C)S(=O)(=O)c1cccc(C(=O)N2CCN(c3ccccc3)CC2)c1 (protonated)
CC[N@@H+](C)S(=O)(=O)c1cccc(C(=O)N2CCN(c3ccccc3)CC2)c1 (chirality)
CC[N@@H+](C)S(=O)(=O)c1cccc(C(=O)N2CCN(c3ccccc3)CC2)c1 (3D coordinates assigned)
CC[N@@H+](C)S(=O)(=O)c1cccc(C(=O)N2CCN(c3ccccc3)CC2)c1 (nonaromatic ring conformer: 64.72695824773916 kcal/mol)

>  <smiles>  (25) 
CCN(C)S(=O)(=O)c1cccc(C(=O)N2CCN(c3ccccc3)CC2)c1

>  <score_type>  (25) 
oracle

>  <origin>  (25) 
adg

>  <m_score__min__energy>  (25) 
-8.0999999999999996

>  <m_primary>  (25) 
energy

$$$$
25:0
     RDKit          3D

 45 48  0  0  0  0  0  0  0  0999 V2000
   57.5940   25.5000   47.1200 C   0  0  0  0  0  0  0  0  0  0  0  0
   57.5110   26.8620   46.7220 O   0  0  0  0  0  0  0  0  0  0  0  0
   58.5900   27.5580   46.1670 C   0  0  0  0  0  0  0  0  0  0  0  0
   59.5810   26.9130   45.7230 O   0  0  0  0  0  0  0  0  0  0  0  0
   58.5260   29.0480   46.0790 C   0  0  0  0  0  0  0  0  0  0  0  0
   57.4950   29.7210   45.4980 C   0  0  0  0  0  0  0  0  0  0  0  0
   56.3040   29.0410   44.8850 C   0  0  0  0  0  0  0  0  0  0  0  0
   57.5050   31.1190   45.4270 O   0  0  0  0  0  0  0  0  0  0  0  0
   58.6000   31.8940   45.8040 C   0  0  0  0  0  0  0  0  0  0  0  0
   58.5780   33.2690   45.5650 C   0  0  0  0  0  0  0  0  0  0  0  0
   59.6770   34.0760   45.9010 C   0  0  0  0  0  0  0  0  0  0  0  0
   59.6110   35.5550   45.6200 C   0  0  0  0  0  0  0  0  0  0  0  0
   60.8160   33.4780   46.4910 C   0  0  0  0  0  0  0  0  0  0  0  0
   61.9560   34.2160   46.8560 C   0  0  0  0  0  0  0  0  0  0  0  0
   63.0430   33.5700   47.4420 C   0  0  0  0  0  0  0  0  0  0  0  0
   62.9760   32.1930   47.6550 C   0  0  0  0  0  0  0  0  0  0  0  0
   63.9460   31.5910   48.1850 O   0  0  0  0  0  0  0  0  0  0  0  0
   61.8920   31.5120   47.3030 O   0  0  0  0  0  0  0  0  0  0  0  0
   60.8270   32.0820   46.7400 C   0  0  0  0  0  0  0  0  0  0  0  0
   59.7110   31.2920   46.3990 C   0  0  0  0  0  0  0  0  0  0  0  0
   59.6700   29.8150   46.7340 C   0  0  1  0  0  0  0  0  0  0  0  0
   59.6070   29.6360   48.2380 C   0  0  0  0  0  0  0  0  0  0  0  0
   60.3110   28.5900   48.8670 C   0  0  0  0  0  0  0  0  0  0  0  0
   60.2470   28.4290   50.2540 C   0  0  0  0  0  0  0  0  0  0  0  0
   59.4820   29.3070   51.0280 C   0  0  0  0  0  0  0  0  0  0  0  0
   59.3950   29.0830   52.9220 Br  0  0  0  0  0  0  0  0  0  0  0  0
   58.7790   30.3480   50.4130 C   0  0  0  0  0  0  0  0  0  0  0  0
   58.8410   30.5130   49.0270 C   0  0  0  0  0  0  0  0  0  0  0  0
   57.5977   25.4385   48.2183 H   0  0  0  0  0  0  0  0  0  0  0  0
   56.7278   24.9491   46.7249 H   0  0  0  0  0  0  0  0  0  0  0  0
   58.5207   25.0584   46.7249 H   0  0  0  0  0  0  0  0  0  0  0  0
   55.6458   28.6652   45.6822 H   0  0  0  0  0  0  0  0  0  0  0  0
   55.7517   29.7599   44.2620 H   0  0  0  0  0  0  0  0  0  0  0  0
   56.6424   28.2000   44.2620 H   0  0  0  0  0  0  0  0  0  0  0  0
   57.6883   33.7264   45.1075 H   0  0  0  0  0  0  0  0  0  0  0  0
   59.5863   36.1081   46.5705 H   0  0  0  0  0  0  0  0  0  0  0  0
   60.4965   35.8583   45.0422 H   0  0  0  0  0  0  0  0  0  0  0  0
   58.7020   35.7782   45.0422 H   0  0  0  0  0  0  0  0  0  0  0  0
   61.9897   35.3012   46.6793 H   0  0  0  0  0  0  0  0  0  0  0  0
   63.9398   34.1371   47.7321 H   0  0  0  0  0  0  0  0  0  0  0  0
   60.5951   29.3868   46.3207 H   0  0  0  0  0  0  0  0  0  0  0  0
   60.9143   27.8962   48.2631 H   0  0  0  0  0  0  0  0  0  0  0  0
   60.7996   27.6100   50.7376 H   0  0  0  0  0  0  0  0  0  0  0  0
   58.1762   31.0381   51.0216 H   0  0  0  0  0  0  0  0  0  0  0  0
   58.2869   31.3345   48.5495 H   0  0  0  0  0  0  0  0  0  0  0  0
  1  2  1  0
  2  3  1  0
  3  4  2  0
  3  5  1  0
  5  6  2  0
  6  7  1  0
  6  8  1  0
  8  9  1  0
  9 10  2  0
 10 11  1  0
 11 12  1  0
 11 13  2  0
 13 14  1  0
 14 15  2  0
 15 16  1  0
 16 17  2  0
 16 18  1  0
 18 19  1  0
 19 20  2  0
 20 21  1  0
 21 22  1  0
 22 23  2  0
 23 24  1  0
 24 25  2  0
 25 26  1  0
 25 27  1  0
 27 28  2  0
 21  5  1  0
 28 22  1  0
 20  9  1  0
 19 13  1  0
  1 29  1  0
  1 30  1  0
  1 31  1  0
  7 32  1  0
  7 33  1  0
  7 34  1  0
 10 35  1  0
 12 36  1  0
 12 37  1  0
 12 38  1  0
 14 39  1  0
 15 40  1  0
 21 41  1  6
 23 42  1  0
 24 43  1  0
 27 44  1  0
 28 45  1  0
M  END
>  <UniqueID>  (26) 
25

>  <SMILES>  (26) 
COC(=O)C1=C(C)Oc2cc(C)c3ccc(=O)oc3c2[C@H]1c1ccc(Br)cc1

>  <Energy>  (26) 
58.15518508339314

>  <Genealogy>  (26) 
COC(=O)C1=C(C)Oc2cc(C)c3ccc(=O)oc3c2[C@H]1c1ccc(Br)cc1 (chirality)
COC(=O)C1=C(C)Oc2cc(C)c3ccc(=O)oc3c2[C@H]1c1ccc(Br)cc1 (3D coordinates assigned)
COC(=O)C1=C(C)Oc2cc(C)c3ccc(=O)oc3c2[C@H]1c1ccc(Br)cc1 (nonaromatic ring conformer: 58.15518508339314 kcal/mol)

>  <smiles>  (26) 
COC(=O)C1=C(C)Oc2cc(C)c3ccc(=O)oc3c2C1c1ccc(Br)cc1

>  <score_type>  (26) 
oracle

>  <origin>  (26) 
adg

>  <m_score__min__energy>  (26) 
-7.4199999999999999

>  <m_primary>  (26) 
energy

$$$$
26:0
     RDKit          3D

 44 48  0  0  0  0  0  0  0  0999 V2000
   56.8020   30.4590   43.5310 O   0  0  0  0  0  0  0  0  0  0  0  0
   57.3210   29.8330   44.4940 C   0  0  0  0  0  0  0  0  0  0  0  0
   57.1310   28.4820   44.5940 N   0  0  0  0  0  0  0  0  0  0  0  0
   57.7550   27.8170   45.5970 C   0  0  0  0  0  0  0  0  0  0  0  0
   57.6300   26.5170   45.9320 N   0  0  0  0  0  0  0  0  0  0  0  0
   56.9140   25.4740   45.2520 C   0  0  0  0  0  0  0  0  0  0  0  0
   55.6640   25.0330   45.7190 C   0  0  0  0  0  0  0  0  0  0  0  0
   54.9670   24.0360   45.0320 C   0  0  0  0  0  0  0  0  0  0  0  0
   55.5030   23.4810   43.8660 C   0  0  0  0  0  0  0  0  0  0  0  0
   56.7340   23.9310   43.3820 C   0  0  0  0  0  0  0  0  0  0  0  0
   57.4350   24.9290   44.0660 C   0  0  0  0  0  0  0  0  0  0  0  0
   58.2960   26.3400   47.0710 N   0  0  0  0  0  0  0  0  0  0  0  0
   58.8370   27.5390   47.4060 C   0  0  0  0  0  0  0  0  0  0  0  0
   59.6300   27.7730   48.6340 C   0  0  0  0  0  0  0  0  0  0  0  0
   60.3830   26.7200   49.1860 C   0  0  0  0  0  0  0  0  0  0  0  0
   61.1410   26.9220   50.3430 C   0  0  0  0  0  0  0  0  0  0  0  0
   61.1630   28.1770   50.9560 C   0  0  0  0  0  0  0  0  0  0  0  0
   60.4320   29.2330   50.4100 C   0  0  0  0  0  0  0  0  0  0  0  0
   59.6710   29.0370   49.2530 C   0  0  0  0  0  0  0  0  0  0  0  0
   58.5000   28.4660   46.4880 N   0  0  0  0  0  0  0  0  0  0  0  0
   58.6830   29.7820   46.4660 N   0  0  0  0  0  0  0  0  0  0  0  0
   58.1130   30.5130   45.4650 C   0  0  0  0  0  0  0  0  0  0  0  0
   58.3410   31.9780   45.4320 C   0  0  0  0  0  0  0  0  0  0  0  0
   59.5020   32.5130   46.0200 C   0  0  0  0  0  0  0  0  0  0  0  0
   59.7260   33.8930   46.0160 C   0  0  0  0  0  0  0  0  0  0  0  0
   58.7910   34.7530   45.4360 C   0  0  0  0  0  0  0  0  0  0  0  0
   57.6260   34.2350   44.8660 C   0  0  0  0  0  0  0  0  0  0  0  0
   57.3970   32.8560   44.8670 C   0  0  0  0  0  0  0  0  0  0  0  0
   56.5040   27.9900   43.9200 H   0  0  0  0  0  0  0  0  0  0  0  0
   55.2326   25.4747   46.6294 H   0  0  0  0  0  0  0  0  0  0  0  0
   53.9945   23.6869   45.4092 H   0  0  0  0  0  0  0  0  0  0  0  0
   54.9562   22.6910   43.3304 H   0  0  0  0  0  0  0  0  0  0  0  0
   57.1526   23.4993   42.4609 H   0  0  0  0  0  0  0  0  0  0  0  0
   58.3979   25.2889   43.6743 H   0  0  0  0  0  0  0  0  0  0  0  0
   60.3750   25.7314   48.7038 H   0  0  0  0  0  0  0  0  0  0  0  0
   61.7211   26.0914   50.7714 H   0  0  0  0  0  0  0  0  0  0  0  0
   61.7564   28.3329   51.8690 H   0  0  0  0  0  0  0  0  0  0  0  0
   60.4544   30.2221   50.8909 H   0  0  0  0  0  0  0  0  0  0  0  0
   59.1015   29.8748   48.8243 H   0  0  0  0  0  0  0  0  0  0  0  0
   60.2380   31.8412   46.4858 H   0  0  0  0  0  0  0  0  0  0  0  0
   60.6404   34.3021   46.4705 H   0  0  0  0  0  0  0  0  0  0  0  0
   58.9720   35.8380   45.4281 H   0  0  0  0  0  0  0  0  0  0  0  0
   56.8869   34.9137   44.4152 H   0  0  0  0  0  0  0  0  0  0  0  0
   56.4737   32.4547   44.4237 H   0  0  0  0  0  0  0  0  0  0  0  0
  1  2  2  0
  2  3  1  0
  3  4  2  0
  4  5  1  0
  5  6  1  0
  6  7  2  0
  7  8  1  0
  8  9  2  0
  9 10  1  0
 10 11  2  0
  5 12  1  0
 12 13  2  0
 13 14  1  0
 14 15  2  0
 15 16  1  0
 16 17  2  0
 17 18  1  0
 18 19  2  0
 13 20  1  0
 20 21  1  0
 21 22  2  0
 22 23  1  0
 23 24  2  0
 24 25  1  0
 25 26  2  0
 26 27  1  0
 27 28  2  0
 22  2  1  0
 28 23  1  0
 20  4  1  0
 11  6  1  0
 19 14  1  0
  3 29  1  0
  7 30  1  0
  8 31  1  0
  9 32  1  0
 10 33  1  0
 11 34  1  0
 15 35  1  0
 16 36  1  0
 17 37  1  0
 18 38  1  0
 19 39  1  0
 24 40  1  0
 25 41  1  0
 26 42  1  0
 27 43  1  0
 28 44  1  0
M  CHG  1   3   1
M  END
>  <UniqueID>  (27) 
26

>  <SMILES>  (27) 
O=c1[nH+]c2n(-c3ccccc3)nc(-c3ccccc3)n2nc1-c1ccccc1

>  <Energy>  (27) 
111.44135725557581

>  <Genealogy>  (27) 
O=c1[nH+]c2n(-c3ccccc3)nc(-c3ccccc3)n2nc1-c1ccccc1 (protonated)
O=c1[nH+]c2n(-c3ccccc3)nc(-c3ccccc3)n2nc1-c1ccccc1 (3D coordinates assigned)
O=c1[nH+]c2n(-c3ccccc3)nc(-c3ccccc3)n2nc1-c1ccccc1 (optimized conformer: 111.44135725557581 kcal/mol)

>  <smiles>  (27) 
O=c1nc2n(-c3ccccc3)nc(-c3ccccc3)n2nc1-c1ccccc1

>  <score_type>  (27) 
oracle

>  <origin>  (27) 
adg

>  <m_score__min__energy>  (27) 
-7.0300000000000002

>  <m_primary>  (27) 
energy

$$$$
27:0
     RDKit          3D

 35 36  0  0  1  0  0  0  0  0999 V2000
   54.3830   25.0650   45.6200 C   0  0  0  0  0  0  0  0  0  0  0  0
   55.1690   26.1540   45.9650 O   0  0  0  0  0  0  0  0  0  0  0  0
   56.5030   25.7370   46.0220 C   0  0  0  0  0  0  0  0  0  0  0  0
   57.3290   26.7180   46.8480 C   0  0  0  0  0  0  0  0  0  0  0  0
   58.0280   27.6300   45.9990 N   0  0  0  0  0  0  0  0  0  0  0  0
   57.5690   28.7240   45.5360 C   0  0  0  0  0  0  0  0  0  0  0  0
   58.1840   29.9290   45.7120 N   0  0  0  0  0  0  0  0  0  0  0  0
   57.6680   31.0620   45.2070 C   0  0  0  0  0  0  0  0  0  0  0  0
   58.3960   32.3000   45.4480 C   0  0  0  0  0  0  0  0  0  0  0  0
   57.9710   33.4360   44.7970 C   0  0  0  0  0  0  0  0  0  0  0  0
   58.6290   34.6530   44.9870 C   0  0  0  0  0  0  0  0  0  0  0  0
   59.7200   34.6880   45.8470 C   0  0  0  0  0  0  0  0  0  0  0  0
   60.1670   33.5650   46.5140 C   0  0  0  0  0  0  0  0  0  0  0  0
   61.2630   33.6650   47.3610 O   0  0  0  0  0  0  0  0  0  0  0  0
   62.5760   33.8410   46.8110 C   0  0  0  0  0  0  0  0  0  0  0  0
   59.4830   32.3910   46.2900 C   0  0  0  0  0  0  0  0  0  0  0  0
   56.4950   30.9860   44.5010 C   0  0  0  0  0  0  0  0  0  0  0  0
   55.8950   29.7930   44.3310 N   0  0  0  0  0  0  0  0  0  0  0  0
   56.4180   28.6740   44.8370 N   0  0  0  0  0  0  0  0  0  0  0  0
   54.0241   24.5678   46.5332 H   0  0  0  0  0  0  0  0  0  0  0  0
   53.5224   25.4073   45.0265 H   0  0  0  0  0  0  0  0  0  0  0  0
   54.9789   24.3560   45.0265 H   0  0  0  0  0  0  0  0  0  0  0  0
   56.5523   24.7407   46.4856 H   0  0  0  0  0  0  0  0  0  0  0  0
   56.9098   25.6977   45.0007 H   0  0  0  0  0  0  0  0  0  0  0  0
   56.6593   27.2840   47.5122 H   0  0  0  0  0  0  0  0  0  0  0  0
   58.0636   26.1515   47.4391 H   0  0  0  0  0  0  0  0  0  0  0  0
   57.1049   33.3847   44.1208 H   0  0  0  0  0  0  0  0  0  0  0  0
   58.2917   35.5624   44.4682 H   0  0  0  0  0  0  0  0  0  0  0  0
   60.2449   35.6423   46.0014 H   0  0  0  0  0  0  0  0  0  0  0  0
   63.3058   33.9388   47.6282 H   0  0  0  0  0  0  0  0  0  0  0  0
   62.8339   32.9694   46.1915 H   0  0  0  0  0  0  0  0  0  0  0  0
   62.5952   34.7498   46.1915 H   0  0  0  0  0  0  0  0  0  0  0  0
   59.8208   31.4816   46.8085 H   0  0  0  0  0  0  0  0  0  0  0  0
   56.0463   31.8957   44.0755 H   0  0  0  0  0  0  0  0  0  0  0  0
   55.9300   27.7650   44.6890 H   0  0  0  0  0  0  0  0  0  0  0  0
  1  2  1  0
  2  3  1  0
  3  4  1  0
  4  5  1  0
  5  6  2  0
  6  7  1  0
  7  8  2  0
  8  9  1  0
  9 10  2  0
 10 11  1  0
 11 12  2  0
 12 13  1  0
 13 14  1  0
 14 15  1  0
 13 16  2  0
  8 17  1  0
 17 18  2  0
 18 19  1  0
 19  6  1  0
 16  9  1  0
  1 20  1  0
  1 21  1  0
  1 22  1  0
  3 23  1  0
  3 24  1  0
  4 25  1  0
  4 26  1  0
 10 27  1  0
 11 28  1  0
 12 29  1  0
 15 30  1  0
 15 31  1  0
 15 32  1  0
 16 33  1  0
 17 34  1  0
 19 35  1  0
M  END
>  <smiles>  (28) 
COCCN=c1nc(-c2cccc(OC)c2)cn[nH]1

>  <score_type>  (28) 
oracle

>  <origin>  (28) 
adg

>  <m_score__min__energy>  (28) 
-7.4000000000000004

>  <m_primary>  (28) 
energy

$$$$
28:0
     RDKit          3D

 45 48  0  0  0  0  0  0  0  0999 V2000
   57.3530   33.5880   44.5487 H   0  0  0  0  0  0  0  0  0  0  0  0
   57.5630   32.7610   45.2430 C   0  0  0  0  0  0  0  0  0  0  0  0
   56.8710   31.6630   45.1170 N   0  0  0  0  0  0  0  0  0  0  0  0
   57.3940   30.3270   45.0450 C   0  0  0  0  0  0  0  0  0  0  0  0
   58.7820   30.1460   44.9830 C   0  0  0  0  0  0  0  0  0  0  0  0
   59.4492   31.0202   45.0076 H   0  0  0  0  0  0  0  0  0  0  0  0
   59.3240   28.8600   44.8900 C   0  0  0  0  0  0  0  0  0  0  0  0
   60.4138   28.7263   44.8231 H   0  0  0  0  0  0  0  0  0  0  0  0
   58.4820   27.7450   44.8820 C   0  0  0  0  0  0  0  0  0  0  0  0
   58.9086   26.7349   44.7945 H   0  0  0  0  0  0  0  0  0  0  0  0
   57.0990   27.9120   44.9850 C   0  0  0  0  0  0  0  0  0  0  0  0
   56.4388   27.0322   44.9876 H   0  0  0  0  0  0  0  0  0  0  0  0
   56.5510   29.1970   45.0850 C   0  0  0  0  0  0  0  0  0  0  0  0
   55.1770   29.3390   45.2430 O   0  0  0  0  0  0  0  0  0  0  0  0
   58.6160   32.9600   46.2670 C   0  0  0  0  0  0  0  0  0  0  0  0
   59.9090   33.2670   45.8460 C   0  0  0  0  0  0  0  0  0  0  0  0
   60.1195   33.3970   44.7742 H   0  0  0  0  0  0  0  0  0  0  0  0
   60.9370   33.4100   46.7780 C   0  0  0  0  0  0  0  0  0  0  0  0
   62.2460   33.6830   46.3500 C   0  0  0  0  0  0  0  0  0  0  0  0
   62.4571   33.8082   45.2777 H   0  0  0  0  0  0  0  0  0  0  0  0
   63.2790   33.7960   47.2790 C   0  0  0  0  0  0  0  0  0  0  0  0
   64.3020   34.0142   46.9386 H   0  0  0  0  0  0  0  0  0  0  0  0
   63.0180   33.6330   48.6390 C   0  0  0  0  0  0  0  0  0  0  0  0
   63.8377   33.7166   49.3678 H   0  0  0  0  0  0  0  0  0  0  0  0
   61.7200   33.3640   49.0800 C   0  0  0  0  0  0  0  0  0  0  0  0
   61.5263   33.2333   50.1549 H   0  0  0  0  0  0  0  0  0  0  0  0
   60.6520   33.2580   48.1580 C   0  0  0  0  0  0  0  0  0  0  0  0
   59.3590   33.0050   48.5650 N   0  0  0  0  0  0  0  0  0  0  0  0
   59.0330   32.8560   49.9620 C   0  0  0  0  0  0  0  0  0  0  0  0
   58.4970   31.6510   50.4380 C   0  0  0  0  0  0  0  0  0  0  0  0
   58.3148   30.8184   49.7426 H   0  0  0  0  0  0  0  0  0  0  0  0
   58.1940   31.5060   51.7940 C   0  0  0  0  0  0  0  0  0  0  0  0
   57.7694   30.5594   52.1595 H   0  0  0  0  0  0  0  0  0  0  0  0
   58.4260   32.5550   52.6920 C   0  0  0  0  0  0  0  0  0  0  0  0
   58.1040   32.3600   54.0430 O   0  0  0  0  0  0  0  0  0  0  0  0
   57.4690   31.1940   54.5570 C   0  0  0  0  0  0  0  0  0  0  0  0
   57.4845   31.2225   55.6565 H   0  0  0  0  0  0  0  0  0  0  0  0
   56.4272   31.1589   54.2058 H   0  0  0  0  0  0  0  0  0  0  0  0
   58.0047   30.2997   54.2058 H   0  0  0  0  0  0  0  0  0  0  0  0
   58.9710   33.7620   52.2120 C   0  0  0  0  0  0  0  0  0  0  0  0
   59.1597   34.5929   52.9077 H   0  0  0  0  0  0  0  0  0  0  0  0
   59.2730   33.9080   50.8550 C   0  0  0  0  0  0  0  0  0  0  0  0
   59.7006   34.8524   50.4872 H   0  0  0  0  0  0  0  0  0  0  0  0
   58.3450   32.8820   47.6450 C   0  0  0  0  0  0  0  0  0  0  0  0
   57.1550   32.7200   48.0370 O   0  0  0  0  0  0  0  0  0  0  0  0
  1  2  1  0
  2  3  2  0
  3  4  1  0
  4  5  2  0
  5  6  1  0
  5  7  1  0
  7  8  1  0
  7  9  2  0
  9 10  1  0
  9 11  1  0
 11 12  1  0
 11 13  2  0
 13 14  1  0
  2 15  1  0
 15 16  2  0
 16 17  1  0
 16 18  1  0
 18 19  2  0
 19 20  1  0
 19 21  1  0
 21 22  1  0
 21 23  2  0
 23 24  1  0
 23 25  1  0
 25 26  1  0
 25 27  2  0
 27 28  1  0
 28 29  1  0
 29 30  2  0
 30 31  1  0
 30 32  1  0
 32 33  1  0
 32 34  2  0
 34 35  1  0
 35 36  1  0
 36 37  1  0
 36 38  1  0
 36 39  1  0
 34 40  1  0
 40 41  1  0
 40 42  2  0
 42 43  1  0
 28 44  1  0
 44 45  2  0
 13  4  1  0
 44 15  1  0
 27 18  1  0
 42 29  1  0
M  CHG  1  14  -1
M  END
>  <UniqueID>  (29) 
27

>  <SMILES>  (29) 
COc1ccc(-n2c(=O)c(/C=N\c3ccccc3[O-])cc3ccccc32)cc1

>  <Energy>  (29) 
78.08520337574978

>  <Genealogy>  (29) 
COc1ccc(-n2c(=O)c(C=Nc3ccccc3[O-])cc3ccccc32)cc1 (protonated)
COc1ccc(-n2c(=O)c(/C=N\c3ccccc3[O-])cc3ccccc32)cc1 (cis-trans isomerization)
COc1ccc(-n2c(=O)c(/C=N\c3ccccc3[O-])cc3ccccc32)cc1 (3D coordinates assigned)
COc1ccc(-n2c(=O)c(/C=N\c3ccccc3[O-])cc3ccccc32)cc1 (optimized conformer: 78.08520337574978 kcal/mol)

>  <smiles>  (29) 
COc1ccc(-n2c(=O)c(C=Nc3ccccc3O)cc3ccccc32)cc1

>  <score_type>  (29) 
oracle

>  <origin>  (29) 
adg

>  <m_score__min__energy>  (29) 
-12.43

>  <m_primary>  (29) 
energy

$$$$
29:0
     RDKit          3D

 40 42  0  0  0  0  0  0  0  0999 V2000
   54.1590   24.8550   45.6270 C   0  0  0  0  0  0  0  0  0  0  0  0
   54.7630   26.1080   45.9250 O   0  0  0  0  0  0  0  0  0  0  0  0
   56.1430   26.3080   46.0910 C   0  0  0  0  0  0  0  0  0  0  0  0
   56.9850   25.2990   46.6020 C   0  0  0  0  0  0  0  0  0  0  0  0
   58.3420   25.5550   46.8150 C   0  0  0  0  0  0  0  0  0  0  0  0
   58.8730   26.8110   46.5220 C   0  0  0  0  0  0  0  0  0  0  0  0
   58.0520   27.8120   46.0030 C   0  0  0  0  0  0  0  0  0  0  0  0
   56.6960   27.5620   45.7610 C   0  0  0  0  0  0  0  0  0  0  0  0
   55.8810   28.6170   45.2370 N   0  0  0  0  0  0  0  0  0  0  0  0
   56.3040   29.5950   44.2770 C   0  0  0  0  0  0  0  0  0  0  0  0
   55.5380   29.8720   43.3180 O   0  0  0  0  0  0  0  0  0  0  0  0
   57.5930   30.3590   44.4290 C   0  0  0  0  0  0  0  0  0  0  0  0
   57.3930   31.8420   44.1030 C   0  0  0  0  0  0  0  0  0  0  0  0
   57.0980   32.6010   45.3190 N   0  0  0  0  0  0  0  0  0  0  0  0
   58.4860   33.4930   45.8750 S   0  0  0  0  0  0  0  0  0  0  0  0
   59.1280   34.1930   44.7090 O   0  0  0  0  0  0  0  0  0  0  0  0
   58.0360   34.5240   46.8700 O   0  0  0  0  0  0  0  0  0  0  0  0
   59.6630   32.4320   46.6580 C   0  0  0  0  0  0  0  0  0  0  0  0
   59.2540   31.1870   47.1690 C   0  0  0  0  0  0  0  0  0  0  0  0
   60.1730   30.3310   47.7970 C   0  0  0  0  0  0  0  0  0  0  0  0
   61.5170   30.7000   47.9290 C   0  0  0  0  0  0  0  0  0  0  0  0
   61.9380   31.9270   47.4170 C   0  0  0  0  0  0  0  0  0  0  0  0
   63.2250   32.3500   47.4960 N   0  0  0  0  0  0  0  0  0  0  0  0
   63.1000   33.8110   46.7340 S   0  0  0  0  0  0  0  0  0  0  0  0
   61.5140   33.9650   46.2950 N   0  0  0  0  0  0  0  0  0  0  0  0
   61.0130   32.7970   46.7720 C   0  0  0  0  0  0  0  0  0  0  0  0
   53.9090   24.3363   46.5643 H   0  0  0  0  0  0  0  0  0  0  0  0
   53.2414   25.0199   45.0431 H   0  0  0  0  0  0  0  0  0  0  0  0
   54.8595   24.2399   45.0431 H   0  0  0  0  0  0  0  0  0  0  0  0
   56.5719   24.3063   46.8339 H   0  0  0  0  0  0  0  0  0  0  0  0
   58.9933   24.7638   47.2148 H   0  0  0  0  0  0  0  0  0  0  0  0
   59.9396   27.0122   46.7003 H   0  0  0  0  0  0  0  0  0  0  0  0
   58.4727   28.8042   45.7824 H   0  0  0  0  0  0  0  0  0  0  0  0
   57.9480   30.2632   45.4657 H   0  0  0  0  0  0  0  0  0  0  0  0
   58.3322   29.9426   43.7288 H   0  0  0  0  0  0  0  0  0  0  0  0
   58.3104   32.2381   43.6432 H   0  0  0  0  0  0  0  0  0  0  0  0
   56.5459   31.9415   43.4083 H   0  0  0  0  0  0  0  0  0  0  0  0
   58.2018   30.8803   47.0756 H   0  0  0  0  0  0  0  0  0  0  0  0
   59.8336   29.3609   48.1891 H   0  0  0  0  0  0  0  0  0  0  0  0
   62.2318   30.0307   48.4301 H   0  0  0  0  0  0  0  0  0  0  0  0
  1  2  1  0
  2  3  1  0
  3  4  2  0
  4  5  1  0
  5  6  2  0
  6  7  1  0
  7  8  2  0
  8  9  1  0
  9 10  1  0
 10 11  2  0
 10 12  1  0
 12 13  1  0
 13 14  1  0
 14 15  1  0
 15 16  2  0
 15 17  2  0
 15 18  1  0
 18 19  2  0
 19 20  1  0
 20 21  2  0
 21 22  1  0
 22 23  2  0
 23 24  1  0
 24 25  1  0
 25 26  2  0
  8  3  1  0
 26 18  1  0
 26 22  1  0
  1 27  1  0
  1 28  1  0
  1 29  1  0
  4 30  1  0
  5 31  1  0
  6 32  1  0
  7 33  1  0
 12 34  1  0
 12 35  1  0
 13 36  1  0
 13 37  1  0
 19 38  1  0
 20 39  1  0
 21 40  1  0
M  CHG  2   9  -1  14  -1
M  END
>  <UniqueID>  (30) 
28

>  <SMILES>  (30) 
COc1ccccc1[N-]C(=O)CC[N-]S(=O)(=O)c1cccc2nsnc12

>  <Energy>  (30) 
79.33346103113234

>  <Genealogy>  (30) 
COc1ccccc1[N-]C(=O)CC[N-]S(=O)(=O)c1cccc2nsnc12 (protonated)
COc1ccccc1[N-]C(=O)CC[N-]S(=O)(=O)c1cccc2nsnc12 (3D coordinates assigned)
COc1ccccc1[N-]C(=O)CC[N-]S(=O)(=O)c1cccc2nsnc12 (optimized conformer: 79.33346103113234 kcal/mol)

>  <smiles>  (30) 
COc1ccccc1NC(=O)CCNS(=O)(=O)c1cccc2nsnc12

>  <score_type>  (30) 
oracle

>  <origin>  (30) 
adg

>  <m_score__min__energy>  (30) 
-12.300000000000001

>  <m_primary>  (30) 
energy

$$$$
30:0
     RDKit          3D

 52 55  0  0  0  0  0  0  0  0999 V2000
   63.3940   34.1730   46.0210 C   0  0  0  0  0  0  0  0  0  0  0  0
   63.9990   33.3830   47.0390 O   0  0  0  0  0  0  0  0  0  0  0  0
   63.2880   32.5760   47.9400 C   0  0  0  0  0  0  0  0  0  0  0  0
   63.8490   32.1200   49.1480 C   0  0  0  0  0  0  0  0  0  0  0  0
   63.0930   31.3290   50.0190 C   0  0  0  0  0  0  0  0  0  0  0  0
   61.7780   30.9860   49.6980 C   0  0  0  0  0  0  0  0  0  0  0  0
   61.2080   31.4260   48.4930 C   0  0  0  0  0  0  0  0  0  0  0  0
   59.7730   31.1040   48.1680 C   0  0  0  0  0  0  0  0  0  0  0  0
   59.1380   32.2540   47.5090 N   0  0  0  0  0  0  0  0  0  0  0  0
   59.2390   33.5700   48.1720 C   0  0  0  0  0  0  0  0  0  0  0  0
   58.9400   34.7510   47.2320 C   0  0  0  0  0  0  0  0  0  0  0  0
   59.8470   34.5320   45.6680 S   0  0  0  0  0  0  0  0  0  0  0  0
   58.8270   33.1260   45.2270 C   0  0  0  0  0  0  0  0  0  0  0  0
   58.2380   33.0600   43.9640 C   0  0  0  0  0  0  0  0  0  0  0  0
   57.4230   31.9760   43.6250 C   0  0  0  0  0  0  0  0  0  0  0  0
   57.1660   30.9580   44.5600 C   0  0  0  0  0  0  0  0  0  0  0  0
   56.2690   29.8290   44.2150 C   0  0  0  0  0  0  0  0  0  0  0  0
   55.8990   29.6580   43.0210 O   0  0  0  0  0  0  0  0  0  0  0  0
   55.8280   28.9200   45.2320 N   0  0  0  0  0  0  0  0  0  0  0  0
   56.5080   27.6710   45.5500 C   0  0  0  0  0  0  0  0  0  0  0  0
   57.9930   27.8910   45.6380 C   0  0  0  0  0  0  0  0  0  0  0  0
   58.6250   27.9300   46.8910 C   0  0  0  0  0  0  0  0  0  0  0  0
   60.0020   28.1560   46.9790 C   0  0  0  0  0  0  0  0  0  0  0  0
   60.7550   28.3510   45.8180 C   0  0  0  0  0  0  0  0  0  0  0  0
   60.1330   28.3220   44.5680 C   0  0  0  0  0  0  0  0  0  0  0  0
   58.7570   28.0890   44.4750 C   0  0  0  0  0  0  0  0  0  0  0  0
   57.7480   31.0420   45.8380 C   0  0  0  0  0  0  0  0  0  0  0  0
   58.5870   32.1210   46.1770 C   0  0  0  0  0  0  0  0  0  0  0  0
   61.9710   32.2220   47.6220 C   0  0  0  0  0  0  0  0  0  0  0  0
   62.7872   34.9653   46.4837 H   0  0  0  0  0  0  0  0  0  0  0  0
   64.1767   34.6282   45.3963 H   0  0  0  0  0  0  0  0  0  0  0  0
   62.7506   33.5360   45.3963 H   0  0  0  0  0  0  0  0  0  0  0  0
   64.8842   32.3864   49.4074 H   0  0  0  0  0  0  0  0  0  0  0  0
   63.5364   30.9753   50.9615 H   0  0  0  0  0  0  0  0  0  0  0  0
   61.1872   30.3693   50.3913 H   0  0  0  0  0  0  0  0  0  0  0  0
   59.7378   30.2337   47.4961 H   0  0  0  0  0  0  0  0  0  0  0  0
   59.2333   30.8775   49.0994 H   0  0  0  0  0  0  0  0  0  0  0  0
   58.5214   33.5969   49.0052 H   0  0  0  0  0  0  0  0  0  0  0  0
   60.2780   33.6824   48.5152 H   0  0  0  0  0  0  0  0  0  0  0  0
   57.8601   34.7909   47.0264 H   0  0  0  0  0  0  0  0  0  0  0  0
   59.2587   35.6887   47.7108 H   0  0  0  0  0  0  0  0  0  0  0  0
   58.4153   33.8628   43.2332 H   0  0  0  0  0  0  0  0  0  0  0  0
   56.9798   31.9191   42.6199 H   0  0  0  0  0  0  0  0  0  0  0  0
   56.1396   27.2932   46.5152 H   0  0  0  0  0  0  0  0  0  0  0  0
   56.3019   26.9397   44.7546 H   0  0  0  0  0  0  0  0  0  0  0  0
   58.0345   27.7822   47.8072 H   0  0  0  0  0  0  0  0  0  0  0  0
   60.4931   28.1803   47.9630 H   0  0  0  0  0  0  0  0  0  0  0  0
   61.8384   28.5275   45.8888 H   0  0  0  0  0  0  0  0  0  0  0  0
   60.7259   28.4826   43.6555 H   0  0  0  0  0  0  0  0  0  0  0  0
   58.2712   28.0606   43.4885 H   0  0  0  0  0  0  0  0  0  0  0  0
   57.5455   30.2562   46.5807 H   0  0  0  0  0  0  0  0  0  0  0  0
   61.5279   32.5717   46.6779 H   0  0  0  0  0  0  0  0  0  0  0  0
  1  2  1  0
  2  3  1  0
  3  4  2  0
  4  5  1  0
  5  6  2  0
  6  7  1  0
  7  8  1  0
  8  9  1  0
  9 10  1  0
 10 11  1  0
 11 12  1  0
 12 13  1  0
 13 14  2  0
 14 15  1  0
 15 16  2  0
 16 17  1  0
 17 18  2  0
 17 19  1  0
 19 20  1  0
 20 21  1  0
 21 22  2  0
 22 23  1  0
 23 24  2  0
 24 25  1  0
 25 26  2  0
 16 27  1  0
 27 28  2  0
  7 29  2  0
 29  3  1  0
 28  9  1  0
 28 13  1  0
 26 21  1  0
  1 30  1  0
  1 31  1  0
  1 32  1  0
  4 33  1  0
  5 34  1  0
  6 35  1  0
  8 36  1  0
  8 37  1  0
 10 38  1  0
 10 39  1  0
 11 40  1  0
 11 41  1  0
 14 42  1  0
 15 43  1  0
 20 44  1  0
 20 45  1  0
 22 46  1  0
 23 47  1  0
 24 48  1  0
 25 49  1  0
 26 50  1  0
 27 51  1  0
 29 52  1  0
M  CHG  1  19  -1
M  END
>  <UniqueID>  (31) 
29

>  <SMILES>  (31) 
COc1cccc(CN2CCSc3ccc(C(=O)[N-]Cc4ccccc4)cc32)c1

>  <Energy>  (31) 
59.30019061930463

>  <Genealogy>  (31) 
COc1cccc(CN2CCSc3ccc(C(=O)[N-]Cc4ccccc4)cc32)c1 (protonated)
COc1cccc(CN2CCSc3ccc(C(=O)[N-]Cc4ccccc4)cc32)c1 (3D coordinates assigned)
COc1cccc(CN2CCSc3ccc(C(=O)[N-]Cc4ccccc4)cc32)c1 (nonaromatic ring conformer: 59.30019061930463 kcal/mol)

>  <smiles>  (31) 
COc1cccc(CN2CCSc3ccc(C(=O)NCc4ccccc4)cc32)c1

>  <score_type>  (31) 
oracle

>  <origin>  (31) 
adg

>  <m_score__min__energy>  (31) 
-10.34

>  <m_primary>  (31) 
energy

$$$$
31:0
     RDKit          3D

 33 35  0  0  0  0  0  0  0  0999 V2000
   55.1930   29.7090   44.8800 O   0  0  0  0  0  0  0  0  0  0  0  0
   56.4460   29.6640   44.7500 C   0  0  0  0  0  0  0  0  0  0  0  0
   57.1180   28.3990   44.6780 N   0  0  0  0  0  0  0  0  0  0  0  0
   58.1120   27.9080   45.5890 C   0  0  0  0  0  0  0  0  0  0  0  0
   59.4500   28.2700   45.3840 C   0  0  0  0  0  0  0  0  0  0  0  0
   60.4510   27.7970   46.2370 C   0  0  0  0  0  0  0  0  0  0  0  0
   60.1240   26.9430   47.2940 C   0  0  0  0  0  0  0  0  0  0  0  0
   61.0960   26.4810   48.1190 F   0  0  0  0  0  0  0  0  0  0  0  0
   58.7960   26.5560   47.4930 C   0  0  0  0  0  0  0  0  0  0  0  0
   57.7910   27.0300   46.6410 C   0  0  0  0  0  0  0  0  0  0  0  0
   57.2370   30.9160   44.7680 C   0  0  0  0  0  0  0  0  0  0  0  0
   57.7690   31.3580   45.9930 C   0  0  0  0  0  0  0  0  0  0  0  0
   58.4440   32.5830   46.0840 C   0  0  0  0  0  0  0  0  0  0  0  0
   58.9620   33.0240   47.3120 C   0  0  0  0  0  0  0  0  0  0  0  0
   59.6270   34.2500   47.3930 C   0  0  0  0  0  0  0  0  0  0  0  0
   59.7780   35.0450   46.2530 C   0  0  0  0  0  0  0  0  0  0  0  0
   59.2660   34.6160   45.0250 C   0  0  0  0  0  0  0  0  0  0  0  0
   58.5950   33.3860   44.9320 C   0  0  0  0  0  0  0  0  0  0  0  0
   58.0830   32.9430   43.7060 C   0  0  0  0  0  0  0  0  0  0  0  0
   57.4220   31.7070   43.6050 C   0  0  0  0  0  0  0  0  0  0  0  0
   56.9990   31.2470   42.3100 N   0  0  0  0  0  0  0  0  0  0  0  0
   56.2830   30.2300   42.2090 O   0  0  0  0  0  0  0  0  0  0  0  0
   57.1860   32.0390   41.2000 O   0  0  0  0  0  0  0  0  0  0  0  0
   59.7145   28.9312   44.5457 H   0  0  0  0  0  0  0  0  0  0  0  0
   61.4970   28.0971   46.0763 H   0  0  0  0  0  0  0  0  0  0  0  0
   58.5398   25.8779   48.3203 H   0  0  0  0  0  0  0  0  0  0  0  0
   56.7482   26.7154   46.7943 H   0  0  0  0  0  0  0  0  0  0  0  0
   57.6537   30.7339   46.8914 H   0  0  0  0  0  0  0  0  0  0  0  0
   58.8441   32.4030   48.2123 H   0  0  0  0  0  0  0  0  0  0  0  0
   60.0331   34.5908   48.3568 H   0  0  0  0  0  0  0  0  0  0  0  0
   60.3009   36.0103   46.3225 H   0  0  0  0  0  0  0  0  0  0  0  0
   59.3890   35.2432   44.1298 H   0  0  0  0  0  0  0  0  0  0  0  0
   58.1998   33.5708   42.8103 H   0  0  0  0  0  0  0  0  0  0  0  0
  1  2  2  0
  2  3  1  0
  3  4  1  0
  4  5  2  0
  5  6  1  0
  6  7  2  0
  7  8  1  0
  7  9  1  0
  9 10  2  0
  2 11  1  0
 11 12  2  0
 12 13  1  0
 13 14  2  0
 14 15  1  0
 15 16  2  0
 16 17  1  0
 17 18  2  0
 18 19  1  0
 19 20  2  0
 20 21  1  0
 21 22  2  0
 21 23  1  0
 10  4  1  0
 20 11  1  0
 18 13  1  0
  5 24  1  0
  6 25  1  0
  9 26  1  0
 10 27  1  0
 12 28  1  0
 14 29  1  0
 15 30  1  0
 16 31  1  0
 17 32  1  0
 19 33  1  0
M  CHG  3   3  -1  21   1  23  -1
M  END
>  <UniqueID>  (32) 
30

>  <SMILES>  (32) 
O=C([N-]c1ccc(F)cc1)c1cc2ccccc2cc1[N+](=O)[O-]

>  <Energy>  (32) 
51.382867159218556

>  <Genealogy>  (32) 
O=C([N-]c1ccc(F)cc1)c1cc2ccccc2cc1[N+](=O)[O-] (protonated)
O=C([N-]c1ccc(F)cc1)c1cc2ccccc2cc1[N+](=O)[O-] (3D coordinates assigned)
O=C([N-]c1ccc(F)cc1)c1cc2ccccc2cc1[N+](=O)[O-] (optimized conformer: 51.382867159218556 kcal/mol)

>  <smiles>  (32) 
O=C(Nc1ccc(F)cc1)c1cc2ccccc2cc1[N+](=O)[O-]

>  <score_type>  (32) 
oracle

>  <origin>  (32) 
adg

>  <m_score__min__energy>  (32) 
-9.6999999999999993

>  <m_primary>  (32) 
energy

$$$$
32:0
     RDKit          3D

 36 38  0  0  0  0  0  0  0  0999 V2000
   56.7470   26.3910   46.4270 O   0  0  0  0  0  0  0  0  0  0  0  0
   57.1590   27.5210   46.0530 C   0  0  0  0  0  0  0  0  0  0  0  0
   58.5080   27.8920   46.3730 N   0  0  0  0  0  0  0  0  0  0  0  0
   59.0290   29.2220   46.4180 C   0  0  0  0  0  0  0  0  0  0  0  0
   60.2750   29.3770   46.4960 O   0  0  0  0  0  0  0  0  0  0  0  0
   58.0940   30.3940   46.2970 C   0  0  1  0  0  0  0  0  0  0  0  0
   58.5670   31.7290   46.8890 C   0  0  0  0  0  0  0  0  0  0  0  0
   57.7060   32.5350   47.2160 O   0  0  0  0  0  0  0  0  0  0  0  0
   59.9730   32.0690   47.0700 N   0  0  0  0  0  0  0  0  0  0  0  0
   60.4370   33.1120   46.1180 C   0  0  0  0  0  0  0  0  0  0  0  0
   60.0910   34.5410   46.5730 C   0  0  0  0  0  0  0  0  0  0  0  0
   60.5460   34.7810   47.8880 O   0  0  0  0  0  0  0  0  0  0  0  0
   59.8810   33.9080   48.7730 C   0  0  0  0  0  0  0  0  0  0  0  0
   60.2580   32.4500   48.4740 C   0  0  0  0  0  0  0  0  0  0  0  0
   57.5920   30.4390   44.8700 C   0  0  0  0  0  0  0  0  0  0  0  0
   58.0490   31.3930   43.9390 C   0  0  0  0  0  0  0  0  0  0  0  0
   57.5480   31.4140   42.6350 C   0  0  0  0  0  0  0  0  0  0  0  0
   58.1110   32.6250   41.4980 Cl  0  0  0  0  0  0  0  0  0  0  0  0
   56.6040   30.4700   42.2340 C   0  0  0  0  0  0  0  0  0  0  0  0
   56.1830   29.4830   43.1260 C   0  0  0  0  0  0  0  0  0  0  0  0
   56.6970   29.4340   44.4310 C   0  0  0  0  0  0  0  0  0  0  0  0
   56.2710   28.3670   45.2980 N   0  0  0  0  0  0  0  0  0  0  0  0
   57.2443   30.2232   46.9744 H   0  0  0  0  0  0  0  0  0  0  0  0
   60.5400   31.2150   46.8620 H   0  0  0  0  0  0  0  0  0  0  0  0
   61.5293   33.0319   46.0158 H   0  0  0  0  0  0  0  0  0  0  0  0
   59.9203   32.9376   45.1627 H   0  0  0  0  0  0  0  0  0  0  0  0
   60.5680   35.2603   45.8911 H   0  0  0  0  0  0  0  0  0  0  0  0
   58.9973   34.6576   46.5555 H   0  0  0  0  0  0  0  0  0  0  0  0
   60.1687   34.1517   49.8064 H   0  0  0  0  0  0  0  0  0  0  0  0
   58.7954   34.0287   48.6433 H   0  0  0  0  0  0  0  0  0  0  0  0
   61.3331   32.3169   48.6648 H   0  0  0  0  0  0  0  0  0  0  0  0
   59.6500   31.8059   49.1263 H   0  0  0  0  0  0  0  0  0  0  0  0
   58.8082   32.1290   44.2422 H   0  0  0  0  0  0  0  0  0  0  0  0
   56.1912   30.5031   41.2149 H   0  0  0  0  0  0  0  0  0  0  0  0
   55.4418   28.7369   42.8035 H   0  0  0  0  0  0  0  0  0  0  0  0
   55.2960   28.0120   45.1650 H   0  0  0  0  0  0  0  0  0  0  0  0
  1  2  2  0
  2  3  1  0
  3  4  1  0
  4  5  2  0
  4  6  1  0
  6  7  1  0
  7  8  2  0
  7  9  1  0
  9 10  1  0
 10 11  1  0
 11 12  1  0
 12 13  1  0
 13 14  1  0
  6 15  1  0
 15 16  2  0
 16 17  1  0
 17 18  1  0
 17 19  2  0
 19 20  1  0
 20 21  2  0
 21 22  1  0
 22  2  1  0
 14  9  1  0
 21 15  1  0
  6 23  1  1
  9 24  1  0
 10 25  1  0
 10 26  1  0
 11 27  1  0
 11 28  1  0
 13 29  1  0
 13 30  1  0
 14 31  1  0
 14 32  1  0
 16 33  1  0
 19 34  1  0
 20 35  1  0
 22 36  1  0
M  CHG  2   3  -1   9   1
M  END
>  <UniqueID>  (33) 
31

>  <SMILES>  (33) 
O=C1[N-]C(=O)[C@@H](C(=O)[NH+]2CCOCC2)c2cc(Cl)ccc2N1

>  <Energy>  (33) 
61.73238142272142

>  <Genealogy>  (33) 
O=C1[N-]C(=O)C(C(=O)[NH+]2CCOCC2)c2cc(Cl)ccc2N1 (protonated)
O=C1[N-]C(=O)[C@@H](C(=O)[NH+]2CCOCC2)c2cc(Cl)ccc2N1 (chirality)
O=C1[N-]C(=O)[C@@H](C(=O)[NH+]2CCOCC2)c2cc(Cl)ccc2N1 (3D coordinates assigned)
O=C1[N-]C(=O)[C@@H](C(=O)[NH+]2CCOCC2)c2cc(Cl)ccc2N1 (nonaromatic ring conformer: 61.73238142272142 kcal/mol)

>  <smiles>  (33) 
O=C1NC(=O)C(C(=O)N2CCOCC2)c2cc(Cl)ccc2N1

>  <score_type>  (33) 
oracle

>  <origin>  (33) 
adg

>  <m_score__min__energy>  (33) 
-5.9900000000000002

>  <m_primary>  (33) 
energy

$$$$
33:0
     RDKit          3D

 37 39  0  0  0  0  0  0  0  0999 V2000
   60.4130   27.7560   45.6110 C   0  0  0  0  0  0  0  0  0  0  0  0
   59.2990   28.6650   45.3150 N   0  0  0  0  0  0  0  0  0  0  0  0
   58.3110   28.3490   44.4080 C   0  0  0  0  0  0  0  0  0  0  0  0
   58.3260   27.2480   43.7940 O   0  0  0  0  0  0  0  0  0  0  0  0
   57.2920   29.2310   44.1570 N   0  0  0  0  0  0  0  0  0  0  0  0
   57.2120   30.4370   44.7840 C   0  0  0  0  0  0  0  0  0  0  0  0
   56.2670   31.2220   44.5170 O   0  0  0  0  0  0  0  0  0  0  0  0
   58.2060   30.7580   45.7060 C   0  0  0  0  0  0  0  0  0  0  0  0
   59.2150   29.8750   45.9400 C   0  0  0  0  0  0  0  0  0  0  0  0
   60.0690   30.3850   46.8470 N   0  0  0  0  0  0  0  0  0  0  0  0
   59.5450   31.5960   47.1510 C   0  0  0  0  0  0  0  0  0  0  0  0
   58.3990   31.8570   46.4700 N   0  0  0  0  0  0  0  0  0  0  0  0
   57.5860   33.0710   46.6090 C   0  0  0  0  0  0  0  0  0  0  0  0
   57.8850   34.0670   45.4770 C   0  0  0  0  0  0  0  0  0  0  0  0
   59.3310   34.6060   45.5090 C   0  0  0  0  0  0  0  0  0  0  0  0
   59.8120   34.9530   46.9260 C   0  0  0  0  0  0  0  0  0  0  0  0
   61.0610   34.2690   47.2490 N   0  0  0  0  0  0  0  0  0  0  0  0
   61.5180   33.9610   48.4730 C   0  0  0  0  0  0  0  0  0  0  0  0
   62.7410   33.3470   48.3250 C   0  0  0  0  0  0  0  0  0  0  0  0
   63.0530   33.2690   47.0140 N   0  0  0  0  0  0  0  0  0  0  0  0
   62.0040   33.8430   46.3870 C   0  0  0  0  0  0  0  0  0  0  0  0
   60.5292   27.6612   46.7007 H   0  0  0  0  0  0  0  0  0  0  0  0
   60.2044   26.7670   45.1770 H   0  0  0  0  0  0  0  0  0  0  0  0
   61.3401   28.1587   45.1770 H   0  0  0  0  0  0  0  0  0  0  0  0
   60.9380   29.9570   47.2350 H   0  0  0  0  0  0  0  0  0  0  0  0
   59.9982   32.2929   47.8714 H   0  0  0  0  0  0  0  0  0  0  0  0
   56.5213   32.7967   46.5749 H   0  0  0  0  0  0  0  0  0  0  0  0
   57.8305   33.5484   47.5694 H   0  0  0  0  0  0  0  0  0  0  0  0
   57.7214   33.5614   44.5139 H   0  0  0  0  0  0  0  0  0  0  0  0
   57.2121   34.9268   45.6112 H   0  0  0  0  0  0  0  0  0  0  0  0
   59.9998   33.8399   45.0898 H   0  0  0  0  0  0  0  0  0  0  0  0
   59.3488   35.5344   44.9194 H   0  0  0  0  0  0  0  0  0  0  0  0
   59.9714   36.0393   46.9935 H   0  0  0  0  0  0  0  0  0  0  0  0
   59.0436   34.6251   47.6416 H   0  0  0  0  0  0  0  0  0  0  0  0
   61.0060   34.1634   49.4253 H   0  0  0  0  0  0  0  0  0  0  0  0
   63.3683   32.9765   49.1492 H   0  0  0  0  0  0  0  0  0  0  0  0
   61.9281   33.9506   45.2949 H   0  0  0  0  0  0  0  0  0  0  0  0
  1  2  1  0
  2  3  1  0
  3  4  2  0
  3  5  1  0
  5  6  1  0
  6  7  2  0
  6  8  1  0
  8  9  2  0
  9 10  1  0
 10 11  2  0
 11 12  1  0
 12 13  1  0
 13 14  1  0
 14 15  1  0
 15 16  1  0
 16 17  1  0
 17 18  1  0
 18 19  2  0
 19 20  1  0
 20 21  2  0
  9  2  1  0
 21 17  1  0
 12  8  1  0
  1 22  1  0
  1 23  1  0
  1 24  1  0
 10 25  1  0
 11 26  1  0
 13 27  1  0
 13 28  1  0
 14 29  1  0
 14 30  1  0
 15 31  1  0
 15 32  1  0
 16 33  1  0
 16 34  1  0
 18 35  1  0
 19 36  1  0
 21 37  1  0
M  CHG  2   5  -1  10   1
M  END
>  <UniqueID>  (34) 
32

>  <SMILES>  (34) 
Cn1c(=O)[n-]c(=O)c2c1[nH+]cn2CCCCn1ccnc1

>  <Energy>  (34) 
108.32809295718612

>  <Genealogy>  (34) 
Cn1c(=O)[n-]c(=O)c2c1[nH+]cn2CCCCn1ccnc1 (protonated)
Cn1c(=O)[n-]c(=O)c2c1[nH+]cn2CCCCn1ccnc1 (3D coordinates assigned)
Cn1c(=O)[n-]c(=O)c2c1[nH+]cn2CCCCn1ccnc1 (optimized conformer: 108.32809295718612 kcal/mol)

>  <smiles>  (34) 
Cn1c(=O)[nH]c(=O)c2c1ncn2CCCCn1ccnc1

>  <score_type>  (34) 
oracle

>  <origin>  (34) 
adg

>  <m_score__min__energy>  (34) 
-5.5300000000000002

>  <m_primary>  (34) 
energy

$$$$
34:0
     RDKit          3D

 37 39  0  0  0  0  0  0  0  0999 V2000
   55.6490   28.8240   45.1930 O   0  0  0  0  0  0  0  0  0  0  0  0
   56.2680   27.8040   45.5920 C   0  0  0  0  0  0  0  0  0  0  0  0
   57.7710   27.7980   45.5520 C   0  0  0  0  0  0  0  0  0  0  0  0
   58.2960   28.8590   46.3490 O   0  0  0  0  0  0  0  0  0  0  0  0
   59.2150   29.7990   45.8670 C   0  0  0  0  0  0  0  0  0  0  0  0
   60.4520   29.5620   45.9420 O   0  0  0  0  0  0  0  0  0  0  0  0
   58.7160   31.0780   45.2990 C   0  0  0  0  0  0  0  0  0  0  0  0
   58.5070   31.1580   43.9490 N   0  0  0  0  0  0  0  0  0  0  0  0
   58.0430   32.2910   43.3530 C   0  0  0  0  0  0  0  0  0  0  0  0
   57.7850   32.3310   41.6170 Cl  0  0  0  0  0  0  0  0  0  0  0  0
   57.7690   33.4230   44.1180 C   0  0  0  0  0  0  0  0  0  0  0  0
   57.9780   33.3820   45.4940 C   0  0  0  0  0  0  0  0  0  0  0  0
   58.4540   32.2170   46.1010 C   0  0  0  0  0  0  0  0  0  0  0  0
   58.7420   32.2710   47.8390 Cl  0  0  0  0  0  0  0  0  0  0  0  0
   55.5160   26.6620   46.0240 N   0  0  0  0  0  0  0  0  0  0  0  0
   55.5900   25.3360   45.4830 C   0  0  0  0  0  0  0  0  0  0  0  0
   54.4340   24.5630   45.2670 C   0  0  0  0  0  0  0  0  0  0  0  0
   54.5350   23.2850   44.7040 C   0  0  0  0  0  0  0  0  0  0  0  0
   55.7840   22.7850   44.3350 C   0  0  0  0  0  0  0  0  0  0  0  0
   56.9390   23.5490   44.5480 C   0  0  0  0  0  0  0  0  0  0  0  0
   56.8390   24.8310   45.0980 C   0  0  0  0  0  0  0  0  0  0  0  0
   58.1840   23.0130   44.2050 O   0  0  0  0  0  0  0  0  0  0  0  0
   58.3310   21.6220   43.9070 C   0  0  0  0  0  0  0  0  0  0  0  0
   57.1210   21.1190   43.1080 C   0  0  0  0  0  0  0  0  0  0  0  0
   55.9060   21.5230   43.7420 O   0  0  0  0  0  0  0  0  0  0  0  0
   58.1397   26.8370   45.9401 H   0  0  0  0  0  0  0  0  0  0  0  0
   58.1000   27.9379   44.5117 H   0  0  0  0  0  0  0  0  0  0  0  0
   58.6920   30.3280   43.3420 H   0  0  0  0  0  0  0  0  0  0  0  0
   57.3917   34.3391   43.6400 H   0  0  0  0  0  0  0  0  0  0  0  0
   57.7673   34.2712   46.1063 H   0  0  0  0  0  0  0  0  0  0  0  0
   53.4473   24.9644   45.5415 H   0  0  0  0  0  0  0  0  0  0  0  0
   53.6312   22.6764   44.5529 H   0  0  0  0  0  0  0  0  0  0  0  0
   57.7429   25.4442   45.2286 H   0  0  0  0  0  0  0  0  0  0  0  0
   59.2453   21.4723   43.3140 H   0  0  0  0  0  0  0  0  0  0  0  0
   58.3974   21.0587   44.8495 H   0  0  0  0  0  0  0  0  0  0  0  0
   57.1571   21.5387   42.0919 H   0  0  0  0  0  0  0  0  0  0  0  0
   57.1533   20.0204   43.0631 H   0  0  0  0  0  0  0  0  0  0  0  0
  1  2  2  0
  2  3  1  0
  3  4  1  0
  4  5  1  0
  5  6  2  0
  5  7  1  0
  7  8  2  0
  8  9  1  0
  9 10  1  0
  9 11  2  0
 11 12  1  0
 12 13  2  0
 13 14  1  0
  2 15  1  0
 15 16  1  0
 16 17  2  0
 17 18  1  0
 18 19  2  0
 19 20  1  0
 20 21  2  0
 20 22  1  0
 22 23  1  0
 23 24  1  0
 24 25  1  0
 13  7  1  0
 21 16  1  0
 25 19  1  0
  3 26  1  0
  3 27  1  0
  8 28  1  0
 11 29  1  0
 12 30  1  0
 17 31  1  0
 18 32  1  0
 21 33  1  0
 23 34  1  0
 23 35  1  0
 24 36  1  0
 24 37  1  0
M  CHG  2   8   1  15  -1
M  END
>  <UniqueID>  (35) 
33

>  <SMILES>  (35) 
O=C(COC(=O)c1[nH+]c(Cl)ccc1Cl)[N-]c1ccc2c(c1)OCCO2

>  <Energy>  (35) 
46.752140587414196

>  <Genealogy>  (35) 
O=C(COC(=O)c1[nH+]c(Cl)ccc1Cl)[N-]c1ccc2c(c1)OCCO2 (protonated)
O=C(COC(=O)c1[nH+]c(Cl)ccc1Cl)[N-]c1ccc2c(c1)OCCO2 (3D coordinates assigned)
O=C(COC(=O)c1[nH+]c(Cl)ccc1Cl)[N-]c1ccc2c(c1)OCCO2 (nonaromatic ring conformer: 46.752140587414196 kcal/mol)

>  <smiles>  (35) 
O=C(COC(=O)c1nc(Cl)ccc1Cl)Nc1ccc2c(c1)OCCO2

>  <score_type>  (35) 
oracle

>  <origin>  (35) 
adg

>  <m_score__min__energy>  (35) 
-8.5

>  <m_primary>  (35) 
energy

$$$$
35:0
     RDKit          3D

 33 35  0  0  0  0  0  0  0  0999 V2000
   56.4470   23.7130   46.4440 C   0  0  0  0  0  0  0  0  0  0  0  0
   56.2840   24.9450   47.1360 O   0  0  0  0  0  0  0  0  0  0  0  0
   56.2870   26.1830   46.4850 C   0  0  0  0  0  0  0  0  0  0  0  0
   55.2170   26.6450   46.0020 O   0  0  0  0  0  0  0  0  0  0  0  0
   57.5480   26.9490   46.3640 C   0  0  0  0  0  0  0  0  0  0  0  0
   58.7820   26.2840   46.2300 C   0  0  0  0  0  0  0  0  0  0  0  0
   59.9690   27.0110   46.1210 C   0  0  0  0  0  0  0  0  0  0  0  0
   59.9420   28.4060   46.1400 C   0  0  0  0  0  0  0  0  0  0  0  0
   58.7210   29.0870   46.2580 C   0  0  0  0  0  0  0  0  0  0  0  0
   58.6930   30.5650   46.2980 C   0  0  0  0  0  0  0  0  0  0  0  0
   59.4570   31.2140   47.2830 C   0  0  0  0  0  0  0  0  0  0  0  0
   59.5370   32.6060   47.3200 C   0  0  0  0  0  0  0  0  0  0  0  0
   58.8580   33.3690   46.3730 C   0  0  0  0  0  0  0  0  0  0  0  0
   58.0830   32.7450   45.3950 C   0  0  0  0  0  0  0  0  0  0  0  0
   57.9730   31.3420   45.3500 C   0  0  0  0  0  0  0  0  0  0  0  0
   57.0700   30.7450   44.3360 C   0  0  0  0  0  0  0  0  0  0  0  0
   57.2900   30.7450   43.0070 N   0  0  0  0  0  0  0  0  0  0  0  0
   56.2730   30.0980   42.4600 N   0  0  0  0  0  0  0  0  0  0  0  0
   55.4700   29.7210   43.4710 C   0  0  0  0  0  0  0  0  0  0  0  0
   55.9570   30.1120   44.6250 O   0  0  0  0  0  0  0  0  0  0  0  0
   57.5300   28.3550   46.3820 C   0  0  0  0  0  0  0  0  0  0  0  0
   56.5552   22.8952   47.1717 H   0  0  0  0  0  0  0  0  0  0  0  0
   55.5655   23.5277   45.8126 H   0  0  0  0  0  0  0  0  0  0  0  0
   57.3463   23.7633   45.8126 H   0  0  0  0  0  0  0  0  0  0  0  0
   58.8110   25.1845   46.2111 H   0  0  0  0  0  0  0  0  0  0  0  0
   60.9284   26.4825   46.0198 H   0  0  0  0  0  0  0  0  0  0  0  0
   60.8810   28.9736   46.0622 H   0  0  0  0  0  0  0  0  0  0  0  0
   59.9977   30.6178   48.0328 H   0  0  0  0  0  0  0  0  0  0  0  0
   60.1368   33.1016   48.0976 H   0  0  0  0  0  0  0  0  0  0  0  0
   58.9330   34.4662   46.3963 H   0  0  0  0  0  0  0  0  0  0  0  0
   57.5518   33.3561   44.6505 H   0  0  0  0  0  0  0  0  0  0  0  0
   54.5316   29.1605   43.3471 H   0  0  0  0  0  0  0  0  0  0  0  0
   56.5733   28.8862   46.4943 H   0  0  0  0  0  0  0  0  0  0  0  0
  1  2  1  0
  2  3  1  0
  3  4  2  0
  3  5  1  0
  5  6  2  0
  6  7  1  0
  7  8  2  0
  8  9  1  0
  9 10  1  0
 10 11  2  0
 11 12  1  0
 12 13  2  0
 13 14  1  0
 14 15  2  0
 15 16  1  0
 16 17  2  0
 17 18  1  0
 18 19  2  0
 19 20  1  0
  9 21  2  0
 21  5  1  0
 15 10  1  0
 20 16  1  0
  1 22  1  0
  1 23  1  0
  1 24  1  0
  6 25  1  0
  7 26  1  0
  8 27  1  0
 11 28  1  0
 12 29  1  0
 13 30  1  0
 14 31  1  0
 19 32  1  0
 21 33  1  0
M  END
>  <UniqueID>  (36) 
34

>  <SMILES>  (36) 
COC(=O)c1cccc(-c2ccccc2-c2nnco2)c1

>  <Energy>  (36) 
78.42104155866221

>  <Genealogy>  (36) 
COC(=O)c1cccc(-c2ccccc2-c2nnco2)c1 (3D coordinates assigned)
COC(=O)c1cccc(-c2ccccc2-c2nnco2)c1 (optimized conformer: 78.42104155866221 kcal/mol)

>  <smiles>  (36) 
COC(=O)c1cccc(-c2ccccc2-c2nnco2)c1

>  <score_type>  (36) 
oracle

>  <origin>  (36) 
adg

>  <m_score__min__energy>  (36) 
-7.5

>  <m_primary>  (36) 
energy

$$$$
36:0
     RDKit          3D

 53 55  0  0  0  0  0  0  0  0999 V2000
   62.0560   33.8760   46.3630 C   0  0  0  0  0  0  0  0  0  0  0  0
   63.3610   33.5650   47.0830 C   0  0  0  0  0  0  0  0  0  0  0  0
   63.0980   33.0450   48.4490 N   0  0  0  0  0  0  0  0  0  0  0  0
   62.9020   31.5770   48.5990 C   0  0  0  0  0  0  0  0  0  0  0  0
   62.0150   30.9190   47.5280 C   0  0  0  0  0  0  0  0  0  0  0  0
   62.1730   33.8860   49.2450 C   0  0  0  0  0  0  0  0  0  0  0  0
   61.0420   33.0890   49.9370 C   0  0  0  0  0  0  0  0  0  0  0  0
   59.6470   33.6700   49.6360 C   0  0  0  0  0  0  0  0  0  0  0  0
   59.1620   33.2110   48.3110 N   0  0  0  0  0  0  0  0  0  0  0  0
   58.9360   31.8750   48.1110 C   0  0  0  0  0  0  0  0  0  0  0  0
   59.0450   31.0660   49.0760 O   0  0  0  0  0  0  0  0  0  0  0  0
   58.5970   31.3950   46.8390 C   0  0  0  0  0  0  0  0  0  0  0  0
   58.3890   30.0220   46.6060 C   0  0  0  0  0  0  0  0  0  0  0  0
   58.0780   29.5700   45.3160 C   0  0  0  0  0  0  0  0  0  0  0  0
   57.8330   28.1320   45.0300 C   0  0  0  0  0  0  0  0  0  0  0  0
   57.3780   27.2800   46.0560 C   0  0  0  0  0  0  0  0  0  0  0  0
   57.1750   25.9180   45.8080 C   0  0  0  0  0  0  0  0  0  0  0  0
   57.4100   25.3910   44.5340 C   0  0  0  0  0  0  0  0  0  0  0  0
   57.8400   26.2270   43.5020 C   0  0  0  0  0  0  0  0  0  0  0  0
   58.0540   27.5890   43.7450 C   0  0  0  0  0  0  0  0  0  0  0  0
   57.9730   30.4740   44.3080 N   0  0  0  0  0  0  0  0  0  0  0  0
   58.1610   31.8060   44.4960 C   0  0  0  0  0  0  0  0  0  0  0  0
   58.4730   32.3160   45.7790 C   0  0  0  0  0  0  0  0  0  0  0  0
   58.6500   33.6620   46.0160 N   0  0  0  0  0  0  0  0  0  0  0  0
   58.4910   34.6380   44.9170 C   0  0  0  0  0  0  0  0  0  0  0  0
   58.9940   34.0990   47.2760 C   0  0  0  0  0  0  0  0  0  0  0  0
   59.1520   35.3340   47.4870 O   0  0  0  0  0  0  0  0  0  0  0  0
   61.2647   34.0646   47.1034 H   0  0  0  0  0  0  0  0  0  0  0  0
   62.1885   34.7677   45.7327 H   0  0  0  0  0  0  0  0  0  0  0  0
   61.7720   33.0204   45.7327 H   0  0  0  0  0  0  0  0  0  0  0  0
   63.9177   32.8088   46.5101 H   0  0  0  0  0  0  0  0  0  0  0  0
   63.9482   34.4916   47.1652 H   0  0  0  0  0  0  0  0  0  0  0  0
   63.8910   31.0967   48.5631 H   0  0  0  0  0  0  0  0  0  0  0  0
   62.3781   31.4364   49.5560 H   0  0  0  0  0  0  0  0  0  0  0  0
   61.2237   30.3320   48.0173 H   0  0  0  0  0  0  0  0  0  0  0  0
   61.5584   31.6986   46.9005 H   0  0  0  0  0  0  0  0  0  0  0  0
   62.6286   30.2559   46.9005 H   0  0  0  0  0  0  0  0  0  0  0  0
   62.7562   34.4044   50.0203 H   0  0  0  0  0  0  0  0  0  0  0  0
   61.6906   34.5829   48.5438 H   0  0  0  0  0  0  0  0  0  0  0  0
   61.0753   32.0481   49.5830 H   0  0  0  0  0  0  0  0  0  0  0  0
   61.2041   33.1499   51.0233 H   0  0  0  0  0  0  0  0  0  0  0  0
   58.9425   33.3384   50.4130 H   0  0  0  0  0  0  0  0  0  0  0  0
   59.7159   34.7678   49.6263 H   0  0  0  0  0  0  0  0  0  0  0  0
   58.4705   29.3045   47.4358 H   0  0  0  0  0  0  0  0  0  0  0  0
   57.1811   27.6883   47.0583 H   0  0  0  0  0  0  0  0  0  0  0  0
   56.8292   25.2592   46.6182 H   0  0  0  0  0  0  0  0  0  0  0  0
   57.2561   24.3183   44.3453 H   0  0  0  0  0  0  0  0  0  0  0  0
   58.0109   25.8150   42.4965 H   0  0  0  0  0  0  0  0  0  0  0  0
   58.3970   28.2415   42.9286 H   0  0  0  0  0  0  0  0  0  0  0  0
   58.0699   32.4948   43.6432 H   0  0  0  0  0  0  0  0  0  0  0  0
   58.3276   35.6410   45.3381 H   0  0  0  0  0  0  0  0  0  0  0  0
   59.4000   34.6440   44.2976 H   0  0  0  0  0  0  0  0  0  0  0  0
   57.6271   34.3552   44.2976 H   0  0  0  0  0  0  0  0  0  0  0  0
  1  2  1  0
  2  3  1  0
  3  4  1  0
  4  5  1  0
  3  6  1  0
  6  7  1  0
  7  8  1  0
  8  9  1  0
  9 10  1  0
 10 11  2  0
 10 12  1  0
 12 13  2  0
 13 14  1  0
 14 15  1  0
 15 16  2  0
 16 17  1  0
 17 18  2  0
 18 19  1  0
 19 20  2  0
 14 21  2  0
 21 22  1  0
 22 23  2  0
 23 24  1  0
 24 25  1  0
 24 26  1  0
 26 27  2  0
 26  9  1  0
 23 12  1  0
 20 15  1  0
  1 28  1  0
  1 29  1  0
  1 30  1  0
  2 31  1  0
  2 32  1  0
  4 33  1  0
  4 34  1  0
  5 35  1  0
  5 36  1  0
  5 37  1  0
  6 38  1  0
  6 39  1  0
  7 40  1  0
  7 41  1  0
  8 42  1  0
  8 43  1  0
 13 44  1  0
 16 45  1  0
 17 46  1  0
 18 47  1  0
 19 48  1  0
 20 49  1  0
 22 50  1  0
 25 51  1  0
 25 52  1  0
 25 53  1  0
M  END
>  <UniqueID>  (37) 
35

>  <SMILES>  (37) 
CCN(CC)CCCn1c(=O)c2cc(-c3ccccc3)ncc2n(C)c1=O

>  <Energy>  (37) 
80.15514463076353

>  <Genealogy>  (37) 
CCN(CC)CCCn1c(=O)c2cc(-c3ccccc3)ncc2n(C)c1=O (3D coordinates assigned)
CCN(CC)CCCn1c(=O)c2cc(-c3ccccc3)ncc2n(C)c1=O (optimized conformer: 80.15514463076353 kcal/mol)

>  <smiles>  (37) 
CCN(CC)CCCn1c(=O)c2cc(-c3ccccc3)ncc2n(C)c1=O

>  <score_type>  (37) 
oracle

>  <origin>  (37) 
adg

>  <m_score__min__energy>  (37) 
-7.3700000000000001

>  <m_primary>  (37) 
energy

$$$$
37:0
     RDKit          3D

 48 50  0  0  0  0  0  0  0  0999 V2000
   57.7710   30.0820   50.8750 O   0  0  0  0  0  0  0  0  0  0  0  0
   58.6970   30.3060   50.0540 C   0  0  0  0  0  0  0  0  0  0  0  0
   59.6930   29.2910   49.8600 N   0  0  0  0  0  0  0  0  0  0  0  0
   60.2200   28.8570   48.5700 C   0  0  0  0  0  0  0  0  0  0  0  0
   59.2220   27.8970   47.9070 C   0  0  2  0  0  0  0  0  0  0  0  0
   59.9060   26.7750   47.3780 O   0  0  0  0  0  0  0  0  0  0  0  0
   58.9700   25.7850   46.9910 C   0  0  0  0  0  0  0  0  0  0  0  0
   58.0210   26.3020   45.9020 C   0  0  0  0  0  0  0  0  0  0  0  0
   57.3910   27.6290   46.3460 C   0  0  0  0  0  0  0  0  0  0  0  0
   58.4070   28.5700   46.8570 N   0  0  0  0  0  0  0  0  0  0  0  0
   59.3710   29.2600   45.5510 S   0  0  0  0  0  0  0  0  0  0  0  0
   60.2660   30.3330   46.0990 O   0  0  0  0  0  0  0  0  0  0  0  0
   60.2300   28.2090   44.9090 O   0  0  0  0  0  0  0  0  0  0  0  0
   58.3610   30.0160   44.3210 C   0  0  0  0  0  0  0  0  0  0  0  0
   58.5220   31.2880   43.7870 C   0  0  0  0  0  0  0  0  0  0  0  0
   57.5550   31.6130   42.8240 C   0  0  0  0  0  0  0  0  0  0  0  0
   56.6410   30.5890   42.5920 C   0  0  0  0  0  0  0  0  0  0  0  0
   57.0340   29.2860   43.5940 S   0  0  0  0  0  0  0  0  0  0  0  0
   58.6930   31.5790   49.2990 C   0  0  0  0  0  0  0  0  0  0  0  0
   58.6560   32.6860   49.9120 O   0  0  0  0  0  0  0  0  0  0  0  0
   58.7360   31.5480   47.8590 N   0  0  0  0  0  0  0  0  0  0  0  0
   58.6900   32.7240   47.0330 C   0  0  0  0  0  0  0  0  0  0  0  0
   57.5300   33.0050   46.2840 C   0  0  0  0  0  0  0  0  0  0  0  0
   57.5040   34.0760   45.3910 C   0  0  0  0  0  0  0  0  0  0  0  0
   58.6310   34.8830   45.2340 C   0  0  0  0  0  0  0  0  0  0  0  0
   59.7880   34.6280   45.9770 C   0  0  0  0  0  0  0  0  0  0  0  0
   59.8350   33.5570   46.8910 C   0  0  0  0  0  0  0  0  0  0  0  0
   61.1310   33.2540   47.6110 C   0  0  0  0  0  0  0  0  0  0  0  0
   61.0770   33.7900   48.8790 F   0  0  0  0  0  0  0  0  0  0  0  0
   61.3400   31.8870   47.7160 F   0  0  0  0  0  0  0  0  0  0  0  0
   62.2080   33.8010   46.9370 F   0  0  0  0  0  0  0  0  0  0  0  0
   60.3718   29.7330   47.9223 H   0  0  0  0  0  0  0  0  0  0  0  0
   61.1802   28.3418   48.7204 H   0  0  0  0  0  0  0  0  0  0  0  0
   58.5198   27.5555   48.6818 H   0  0  0  0  0  0  0  0  0  0  0  0
   59.5141   24.9104   46.6049 H   0  0  0  0  0  0  0  0  0  0  0  0
   58.3692   25.5155   47.8722 H   0  0  0  0  0  0  0  0  0  0  0  0
   58.5853   26.4595   44.9710 H   0  0  0  0  0  0  0  0  0  0  0  0
   57.2252   25.5615   45.7334 H   0  0  0  0  0  0  0  0  0  0  0  0
   56.8809   28.0872   45.4859 H   0  0  0  0  0  0  0  0  0  0  0  0
   56.6798   27.4170   47.1580 H   0  0  0  0  0  0  0  0  0  0  0  0
   59.3280   31.9728   44.0893 H   0  0  0  0  0  0  0  0  0  0  0  0
   57.5223   32.5815   42.3035 H   0  0  0  0  0  0  0  0  0  0  0  0
   55.8050   30.6223   41.8778 H   0  0  0  0  0  0  0  0  0  0  0  0
   58.8870   30.6250   47.3950 H   0  0  0  0  0  0  0  0  0  0  0  0
   56.6370   32.3741   46.4047 H   0  0  0  0  0  0  0  0  0  0  0  0
   56.5937   34.2846   44.8098 H   0  0  0  0  0  0  0  0  0  0  0  0
   58.6095   35.7225   44.5236 H   0  0  0  0  0  0  0  0  0  0  0  0
   60.6711   35.2707   45.8463 H   0  0  0  0  0  0  0  0  0  0  0  0
  1  2  2  0
  2  3  1  0
  3  4  1  0
  4  5  1  0
  5  6  1  0
  6  7  1  0
  7  8  1  0
  8  9  1  0
  9 10  1  0
 10 11  1  0
 11 12  2  0
 11 13  2  0
 11 14  1  0
 14 15  2  0
 15 16  1  0
 16 17  2  0
 17 18  1  0
  2 19  1  0
 19 20  2  0
 19 21  1  0
 21 22  1  0
 22 23  2  0
 23 24  1  0
 24 25  2  0
 25 26  1  0
 26 27  2  0
 27 28  1  0
 28 29  1  0
 28 30  1  0
 28 31  1  0
 10  5  1  0
 18 14  1  0
 27 22  1  0
  4 32  1  0
  4 33  1  0
  5 34  1  1
  7 35  1  0
  7 36  1  0
  8 37  1  0
  8 38  1  0
  9 39  1  0
  9 40  1  0
 15 41  1  0
 16 42  1  0
 17 43  1  0
 21 44  1  0
 23 45  1  0
 24 46  1  0
 25 47  1  0
 26 48  1  0
M  CHG  1   3  -1
M  END
>  <UniqueID>  (38) 
36

>  <SMILES>  (38) 
O=C([N-]C[C@@H]1OCCCN1S(=O)(=O)c1cccs1)C(=O)Nc1ccccc1C(F)(F)F

>  <Energy>  (38) 
87.03990524787564

>  <Genealogy>  (38) 
O=C([N-]CC1OCCCN1S(=O)(=O)c1cccs1)C(=O)Nc1ccccc1C(F)(F)F (protonated)
O=C([N-]C[C@@H]1OCCCN1S(=O)(=O)c1cccs1)C(=O)Nc1ccccc1C(F)(F)F (chirality)
O=C([N-]C[C@@H]1OCCCN1S(=O)(=O)c1cccs1)C(=O)Nc1ccccc1C(F)(F)F (3D coordinates assigned)
O=C([N-]C[C@@H]1OCCCN1S(=O)(=O)c1cccs1)C(=O)Nc1ccccc1C(F)(F)F (nonaromatic ring conformer: 87.03990524787564 kcal/mol)

>  <smiles>  (38) 
O=C(NCC1OCCCN1S(=O)(=O)c1cccs1)C(=O)Nc1ccccc1C(F)(F)F

>  <score_type>  (38) 
oracle

>  <origin>  (38) 
adg

>  <m_score__min__energy>  (38) 
-9.1799999999999997

>  <m_primary>  (38) 
energy

$$$$
38:0
     RDKit          3D

 59 62  0  0  0  0  0  0  0  0999 V2000
   55.8180   29.9090   52.3860 C   0  0  0  0  0  0  0  0  0  0  0  0
   56.9180   30.0910   51.5010 O   0  0  0  0  0  0  0  0  0  0  0  0
   57.7130   31.2460   51.4510 C   0  0  0  0  0  0  0  0  0  0  0  0
   57.3270   32.3510   52.2180 C   0  0  0  0  0  0  0  0  0  0  0  0
   58.0820   33.5250   52.1980 C   0  0  0  0  0  0  0  0  0  0  0  0
   59.2330   33.6060   51.4120 C   0  0  0  0  0  0  0  0  0  0  0  0
   59.6490   32.5030   50.6490 C   0  0  0  0  0  0  0  0  0  0  0  0
   60.8640   32.5810   49.8080 C   0  0  0  0  0  0  0  0  0  0  0  0
   62.1300   32.8780   50.2730 C   0  0  0  0  0  0  0  0  0  0  0  0
   62.9430   32.7350   49.1660 C   0  0  0  0  0  0  0  0  0  0  0  0
   64.4190   32.9900   49.1200 C   0  0  0  0  0  0  0  0  0  0  0  0
   65.0380   32.7320   50.4380 N   0  0  0  0  0  0  0  0  0  0  0  0
   65.6280   31.3710   50.5060 C   0  0  0  0  0  0  0  0  0  0  0  0
   66.7360   31.2880   51.5600 C   0  0  0  0  0  0  0  0  0  0  0  0
   67.8670   32.1790   51.2130 N   0  0  0  0  0  0  0  0  0  0  0  0
   68.6630   32.4880   52.4120 C   0  0  0  0  0  0  0  0  0  0  0  0
   67.4550   33.4160   50.5040 C   0  0  0  0  0  0  0  0  0  0  0  0
   65.9970   33.8060   50.8050 C   0  0  0  0  0  0  0  0  0  0  0  0
   62.2060   32.3940   48.0920 N   0  0  0  0  0  0  0  0  0  0  0  0
   60.9440   32.3010   48.4840 N   0  0  0  0  0  0  0  0  0  0  0  0
   59.8690   32.0290   47.5700 C   0  0  0  0  0  0  0  0  0  0  0  0
   59.4580   30.7090   47.3150 C   0  0  0  0  0  0  0  0  0  0  0  0
   58.4110   30.4560   46.4250 C   0  0  0  0  0  0  0  0  0  0  0  0
   57.7690   31.5130   45.7710 C   0  0  0  0  0  0  0  0  0  0  0  0
   56.6960   31.2270   44.8680 N   0  0  0  0  0  0  0  0  0  0  0  0
   56.3260   29.9260   44.3910 C   0  0  0  0  0  0  0  0  0  0  0  0
   55.3220   29.3580   44.8970 O   0  0  0  0  0  0  0  0  0  0  0  0
   57.1430   29.1880   43.3700 C   0  0  0  0  0  0  0  0  0  0  0  0
   58.0750   27.8820   44.1470 Cl  0  0  0  0  0  0  0  0  0  0  0  0
   58.1390   32.8350   46.0680 C   0  0  0  0  0  0  0  0  0  0  0  0
   59.1840   33.0890   46.9600 C   0  0  0  0  0  0  0  0  0  0  0  0
   58.8760   31.3290   50.6610 C   0  0  0  0  0  0  0  0  0  0  0  0
   56.1708   29.9674   53.4263 H   0  0  0  0  0  0  0  0  0  0  0  0
   55.0700   30.6956   52.2078 H   0  0  0  0  0  0  0  0  0  0  0  0
   55.3632   28.9234   52.2078 H   0  0  0  0  0  0  0  0  0  0  0  0
   56.4223   32.2941   52.8411 H   0  0  0  0  0  0  0  0  0  0  0  0
   57.7692   34.3887   52.8032 H   0  0  0  0  0  0  0  0  0  0  0  0
   59.8167   34.5381   51.3903 H   0  0  0  0  0  0  0  0  0  0  0  0
   62.4241   33.1637   51.2937 H   0  0  0  0  0  0  0  0  0  0  0  0
   64.8763   32.3270   48.3708 H   0  0  0  0  0  0  0  0  0  0  0  0
   64.5865   34.0436   48.8521 H   0  0  0  0  0  0  0  0  0  0  0  0
   64.8366   30.6514   50.7628 H   0  0  0  0  0  0  0  0  0  0  0  0
   66.0684   31.1379   49.5253 H   0  0  0  0  0  0  0  0  0  0  0  0
   66.3273   31.5890   52.5359 H   0  0  0  0  0  0  0  0  0  0  0  0
   67.1051   30.2525   51.5994 H   0  0  0  0  0  0  0  0  0  0  0  0
   68.0738   32.2593   53.3123 H   0  0  0  0  0  0  0  0  0  0  0  0
   69.5801   31.8805   52.4099 H   0  0  0  0  0  0  0  0  0  0  0  0
   68.9300   33.5551   52.4099 H   0  0  0  0  0  0  0  0  0  0  0  0
   68.1132   34.2394   50.8184 H   0  0  0  0  0  0  0  0  0  0  0  0
   67.5355   33.2262   49.4235 H   0  0  0  0  0  0  0  0  0  0  0  0
   65.9013   34.0130   51.8811 H   0  0  0  0  0  0  0  0  0  0  0  0
   65.7550   34.6934   50.2018 H   0  0  0  0  0  0  0  0  0  0  0  0
   59.9630   29.8715   47.8185 H   0  0  0  0  0  0  0  0  0  0  0  0
   58.0900   29.4207   46.2377 H   0  0  0  0  0  0  0  0  0  0  0  0
   56.4723   28.7543   42.6136 H   0  0  0  0  0  0  0  0  0  0  0  0
   57.8423   29.8921   42.8954 H   0  0  0  0  0  0  0  0  0  0  0  0
   57.6044   33.6730   45.5969 H   0  0  0  0  0  0  0  0  0  0  0  0
   59.4708   34.1269   47.1849 H   0  0  0  0  0  0  0  0  0  0  0  0
   59.1819   30.4681   50.0484 H   0  0  0  0  0  0  0  0  0  0  0  0
  1  2  1  0
  2  3  1  0
  3  4  2  0
  4  5  1  0
  5  6  2  0
  6  7  1  0
  7  8  1  0
  8  9  2  0
  9 10  1  0
 10 11  1  0
 11 12  1  0
 12 13  1  0
 13 14  1  0
 14 15  1  0
 15 16  1  0
 15 17  1  0
 17 18  1  0
 10 19  2  0
 19 20  1  0
 20 21  1  0
 21 22  2  0
 22 23  1  0
 23 24  2  0
 24 25  1  0
 25 26  1  0
 26 27  2  0
 26 28  1  0
 28 29  1  0
 24 30  1  0
 30 31  2  0
  7 32  2  0
 32  3  1  0
 20  8  1  0
 31 21  1  0
 18 12  1  0
  1 33  1  0
  1 34  1  0
  1 35  1  0
  4 36  1  0
  5 37  1  0
  6 38  1  0
  9 39  1  0
 11 40  1  0
 11 41  1  0
 13 42  1  0
 13 43  1  0
 14 44  1  0
 14 45  1  0
 16 46  1  0
 16 47  1  0
 16 48  1  0
 17 49  1  0
 17 50  1  0
 18 51  1  0
 18 52  1  0
 22 53  1  0
 23 54  1  0
 28 55  1  0
 28 56  1  0
 30 57  1  0
 31 58  1  0
 32 59  1  0
M  CHG  1  25  -1
M  END
>  <UniqueID>  (39) 
37

>  <SMILES>  (39) 
COc1cccc(-c2cc(CN3CCN(C)CC3)nn2-c2ccc([N-]C(=O)CCl)cc2)c1

>  <Energy>  (39) 
115.44805662964765

>  <Genealogy>  (39) 
COc1cccc(-c2cc(CN3CCN(C)CC3)nn2-c2ccc([N-]C(=O)CCl)cc2)c1 (protonated)
COc1cccc(-c2cc(CN3CCN(C)CC3)nn2-c2ccc([N-]C(=O)CCl)cc2)c1 (3D coordinates assigned)
COc1cccc(-c2cc(CN3CCN(C)CC3)nn2-c2ccc([N-]C(=O)CCl)cc2)c1 (nonaromatic ring conformer: 115.44805662964765 kcal/mol)

>  <smiles>  (39) 
COc1cccc(-c2cc(CN3CCN(C)CC3)nn2-c2ccc(NC(=O)CCl)cc2)c1

>  <score_type>  (39) 
oracle

>  <origin>  (39) 
adg

>  <m_score__min__energy>  (39) 
-10.289999999999999

>  <m_primary>  (39) 
energy

$$$$
39:0
     RDKit          3D

 45 48  0  0  0  0  0  0  0  0999 V2000
   64.5196   32.7925   46.5094 H   0  0  0  0  0  0  0  0  0  0  0  0
   63.7260   33.1160   47.1990 C   0  0  0  0  0  0  0  0  0  0  0  0
   62.1620   33.5540   46.7660 S   0  0  0  0  0  0  0  0  0  0  0  0
   61.6290   33.9200   48.3230 C   0  0  0  0  0  0  0  0  0  0  0  0
   60.2530   34.3080   48.7070 C   0  0  0  0  0  0  0  0  0  0  0  0
   59.3750   34.7350   47.8420 N   0  0  0  0  0  0  0  0  0  0  0  0
   59.0050   34.1180   46.6010 C   0  0  0  0  0  0  0  0  0  0  0  0
   59.3820   34.6910   45.3550 C   0  0  0  0  0  0  0  0  0  0  0  0
   59.9923   35.6060   45.3388 H   0  0  0  0  0  0  0  0  0  0  0  0
   58.9820   34.0990   44.1430 C   0  0  0  0  0  0  0  0  0  0  0  0
   59.2893   34.5218   43.1751 H   0  0  0  0  0  0  0  0  0  0  0  0
   58.1820   32.9570   44.2100 C   0  0  0  0  0  0  0  0  0  0  0  0
   57.8010   32.4190   45.4060 C   0  0  0  0  0  0  0  0  0  0  0  0
   58.1820   32.9750   46.6250 C   0  0  0  0  0  0  0  0  0  0  0  0
   57.8504   32.5351   47.5771 H   0  0  0  0  0  0  0  0  0  0  0  0
   57.0800   31.3070   45.1940 N   0  0  0  0  0  0  0  0  0  0  0  0
   56.6860   30.6540   45.9090 H   0  0  0  0  0  0  0  0  0  0  0  0
   57.0350   31.1890   43.8420 C   0  0  0  0  0  0  0  0  0  0  0  0
   56.4270   30.0040   43.1510 C   0  0  0  0  0  0  0  0  0  0  0  0
   55.3477   29.9745   43.3616 H   0  0  0  0  0  0  0  0  0  0  0  0
   56.5951   30.0941   42.0677 H   0  0  0  0  0  0  0  0  0  0  0  0
   57.0470   28.7690   43.6300 N   0  0  0  0  0  0  0  0  0  0  0  0
   57.1310   28.3570   44.9790 C   0  0  0  0  0  0  0  0  0  0  0  0
   56.6430   29.0160   45.9350 O   0  0  0  0  0  0  0  0  0  0  0  0
   57.8540   27.0830   45.1500 C   0  0  0  0  0  0  0  0  0  0  0  0
   57.2011   26.3167   45.5932 H   0  0  0  0  0  0  0  0  0  0  0  0
   58.7170   27.1674   45.8268 H   0  0  0  0  0  0  0  0  0  0  0  0
   58.2530   26.7020   43.7150 C   0  0  0  0  0  0  0  0  0  0  0  0
   57.7946   25.7405   43.4404 H   0  0  0  0  0  0  0  0  0  0  0  0
   59.3449   26.5980   43.6311 H   0  0  0  0  0  0  0  0  0  0  0  0
   57.7400   27.8160   42.7800 C   0  0  0  0  0  0  0  0  0  0  0  0
   57.0494   27.3988   42.0324 H   0  0  0  0  0  0  0  0  0  0  0  0
   58.5663   28.2929   42.2325 H   0  0  0  0  0  0  0  0  0  0  0  0
   57.6920   32.1990   43.2080 N   0  0  0  0  0  0  0  0  0  0  0  0
   57.9670   32.3310   41.7790 C   0  0  0  0  0  0  0  0  0  0  0  0
   58.9504   32.8030   41.6369 H   0  0  0  0  0  0  0  0  0  0  0  0
   57.9675   31.3350   41.3122 H   0  0  0  0  0  0  0  0  0  0  0  0
   57.1902   32.9544   41.3122 H   0  0  0  0  0  0  0  0  0  0  0  0
   59.8460   34.1480   50.0670 N   0  0  0  0  0  0  0  0  0  0  0  0
   60.4960   33.7480   50.7800 H   0  0  0  0  0  0  0  0  0  0  0  0
   58.8800   34.4110   50.3640 H   0  0  0  0  0  0  0  0  0  0  0  0
   62.6720   33.6680   49.2080 C   0  0  0  0  0  0  0  0  0  0  0  0
   62.5850   33.7978   50.2968 H   0  0  0  0  0  0  0  0  0  0  0  0
   63.8430   33.2330   48.5770 C   0  0  0  0  0  0  0  0  0  0  0  0
   64.7704   33.0049   49.1228 H   0  0  0  0  0  0  0  0  0  0  0  0
  1  2  1  0
  2  3  1  0
  3  4  1  0
  4  5  1  0
  5  6  2  0
  6  7  1  0
  7  8  2  0
  8  9  1  0
  8 10  1  0
 10 11  1  0
 10 12  2  0
 12 13  1  0
 13 14  2  0
 14 15  1  0
 13 16  1  0
 16 17  1  0
 16 18  2  0
 18 19  1  0
 19 20  1  0
 19 21  1  0
 19 22  1  0
 22 23  1  0
 23 24  2  0
 23 25  1  0
 25 26  1  0
 25 27  1  0
 25 28  1  0
 28 29  1  0
 28 30  1  0
 28 31  1  0
 31 32  1  0
 31 33  1  0
 18 34  1  0
 34 35  1  0
 35 36  1  0
 35 37  1  0
 35 38  1  0
  5 39  1  0
 39 40  1  0
 39 41  1  0
  4 42  2  0
 42 43  1  0
 42 44  1  0
 44 45  1  0
 44  2  2  0
 14  7  1  0
 31 22  1  0
 34 12  1  0
M  CHG  1  16   1
M  END
>  <UniqueID>  (40) 
38

>  <SMILES>  (40) 
Cn1c(CN2CCCC2=O)[nH+]c2cc(/N=C(/N)c3cccs3)ccc21

>  <Energy>  (40) 
125.32647605810506

>  <Genealogy>  (40) 
Cn1c(CN2CCCC2=O)[nH+]c2cc(N=C(N)c3cccs3)ccc21 (protonated)
Cn1c(CN2CCCC2=O)[nH+]c2cc(/N=C(/N)c3cccs3)ccc21 (cis-trans isomerization)
Cn1c(CN2CCCC2=O)[nH+]c2cc(/N=C(/N)c3cccs3)ccc21 (3D coordinates assigned)
Cn1c(CN2CCCC2=O)[nH+]c2cc(/N=C(/N)c3cccs3)ccc21 (nonaromatic ring conformer: 125.32647605810506 kcal/mol)

>  <smiles>  (40) 
Cn1c(CN2CCCC2=O)nc2cc(N=C(N)c3cccs3)ccc21

>  <score_type>  (40) 
oracle

>  <origin>  (40) 
adg

>  <m_score__min__energy>  (40) 
-6.9699999999999998

>  <m_primary>  (40) 
energy

$$$$
40:0
     RDKit          3D

 44 46  0  0  0  0  0  0  0  0999 V2000
   56.6390   30.4900   42.3740 C   0  0  0  0  0  0  0  0  0  0  0  0
   57.5530   30.1780   43.4860 N   0  0  2  0  0  0  0  0  0  0  0  0
   57.1940   28.9280   44.2000 C   0  0  0  0  0  0  0  0  0  0  0  0
   58.2880   28.3840   45.0970 C   0  0  0  0  0  0  0  0  0  0  0  0
   59.6370   28.4880   44.7210 C   0  0  0  0  0  0  0  0  0  0  0  0
   60.6290   27.9870   45.5680 C   0  0  0  0  0  0  0  0  0  0  0  0
   60.2890   27.4120   46.7510 N   0  0  0  0  0  0  0  0  0  0  0  0
   58.9920   27.3060   47.1460 C   0  0  0  0  0  0  0  0  0  0  0  0
   57.9700   27.7940   46.3300 C   0  0  0  0  0  0  0  0  0  0  0  0
   57.6770   31.3070   44.3900 C   0  0  0  0  0  0  0  0  0  0  0  0
   57.3800   31.1940   45.5720 O   0  0  0  0  0  0  0  0  0  0  0  0
   58.1240   32.6570   43.8770 C   0  0  0  0  0  0  0  0  0  0  0  0
   58.0560   33.6920   44.9170 N   0  0  0  0  0  0  0  0  0  0  0  0
   59.3050   34.4600   44.9760 C   0  0  1  0  0  0  0  0  0  0  0  0
   59.4240   35.3130   46.2290 C   0  0  0  0  0  0  0  0  0  0  0  0
   60.2710   34.0480   46.0900 C   0  0  1  0  0  0  0  0  0  0  0  0
   59.8620   32.8910   46.9680 C   0  0  0  0  0  0  0  0  0  0  0  0
   58.9810   33.0810   48.0480 C   0  0  0  0  0  0  0  0  0  0  0  0
   58.6490   32.0110   48.8840 C   0  0  0  0  0  0  0  0  0  0  0  0
   59.2100   30.7500   48.6630 C   0  0  0  0  0  0  0  0  0  0  0  0
   60.1130   30.5610   47.6130 C   0  0  0  0  0  0  0  0  0  0  0  0
   60.4480   31.6290   46.7760 C   0  0  0  0  0  0  0  0  0  0  0  0
   55.6704   30.8206   42.7772 H   0  0  0  0  0  0  0  0  0  0  0  0
   57.0721   31.2912   41.7571 H   0  0  0  0  0  0  0  0  0  0  0  0
   56.4918   29.5912   41.7571 H   0  0  0  0  0  0  0  0  0  0  0  0
   58.4910   30.0040   43.0540 H   0  0  0  0  0  0  0  0  0  0  0  0
   56.3080   29.1283   44.8204 H   0  0  0  0  0  0  0  0  0  0  0  0
   57.0128   28.1659   43.4278 H   0  0  0  0  0  0  0  0  0  0  0  0
   59.9109   28.9606   43.7662 H   0  0  0  0  0  0  0  0  0  0  0  0
   61.6872   28.0583   45.2764 H   0  0  0  0  0  0  0  0  0  0  0  0
   58.7480   26.8351   48.1097 H   0  0  0  0  0  0  0  0  0  0  0  0
   56.9210   27.7165   46.6517 H   0  0  0  0  0  0  0  0  0  0  0  0
   59.1626   32.5764   43.5239 H   0  0  0  0  0  0  0  0  0  0  0  0
   57.4474   32.9509   43.0610 H   0  0  0  0  0  0  0  0  0  0  0  0
   57.9150   33.2340   45.8480 H   0  0  0  0  0  0  0  0  0  0  0  0
   59.4067   34.6258   43.8933 H   0  0  0  0  0  0  0  0  0  0  0  0
   59.9018   36.3024   46.1765 H   0  0  0  0  0  0  0  0  0  0  0  0
   58.7151   35.6939   46.9789 H   0  0  0  0  0  0  0  0  0  0  0  0
   61.3431   33.8052   46.1304 H   0  0  0  0  0  0  0  0  0  0  0  0
   58.5514   34.0761   48.2356 H   0  0  0  0  0  0  0  0  0  0  0  0
   57.9458   32.1615   49.7164 H   0  0  0  0  0  0  0  0  0  0  0  0
   58.9408   29.9063   49.3155 H   0  0  0  0  0  0  0  0  0  0  0  0
   60.5606   29.5703   47.4452 H   0  0  0  0  0  0  0  0  0  0  0  0
   61.1740   31.4805   45.9631 H   0  0  0  0  0  0  0  0  0  0  0  0
  1  2  1  0
  2  3  1  0
  3  4  1  0
  4  5  2  0
  5  6  1  0
  6  7  2  0
  7  8  1  0
  8  9  2  0
  2 10  1  0
 10 11  2  0
 10 12  1  0
 12 13  1  0
 13 14  1  0
 14 15  1  0
 15 16  1  0
 16 17  1  0
 17 18  2  0
 18 19  1  0
 19 20  2  0
 20 21  1  0
 21 22  2  0
  9  4  1  0
 16 14  1  0
 22 17  1  0
  1 23  1  0
  1 24  1  0
  1 25  1  0
  2 26  1  6
  3 27  1  0
  3 28  1  0
  5 29  1  0
  6 30  1  0
  8 31  1  0
  9 32  1  0
 12 33  1  0
 12 34  1  0
 13 35  1  0
 14 36  1  6
 15 37  1  0
 15 38  1  0
 16 39  1  6
 18 40  1  0
 19 41  1  0
 20 42  1  0
 21 43  1  0
 22 44  1  0
M  CHG  1   2   1
M  END
>  <UniqueID>  (41) 
39

>  <SMILES>  (41) 
C[N@H+](Cc1ccncc1)C(=O)CN[C@H]1CC1c1ccccc1

>  <Energy>  (41) 
315.6793332542694

>  <Genealogy>  (41) 
C[NH+](Cc1ccncc1)C(=O)CNC1CC1c1ccccc1 (protonated)
C[N@H+](Cc1ccncc1)C(=O)CN[C@H]1CC1c1ccccc1 (chirality)
C[N@H+](Cc1ccncc1)C(=O)CN[C@H]1CC1c1ccccc1 (3D coordinates assigned)
C[N@H+](Cc1ccncc1)C(=O)CN[C@H]1CC1c1ccccc1 (nonaromatic ring conformer: 315.6793332542694 kcal/mol)

>  <smiles>  (41) 
CN(Cc1ccncc1)C(=O)CNC1CC1c1ccccc1

>  <score_type>  (41) 
oracle

>  <origin>  (41) 
adg

>  <m_score__min__energy>  (41) 
-5.8099999999999996

>  <m_primary>  (41) 
energy

$$$$
41:0
     RDKit          3D

 75 77  0  0  0  0  0  0  0  0999 V2000
   62.0460   30.6340   49.9290 C   0  0  0  0  0  0  0  0  0  0  0  0
   63.3140   31.3660   50.3760 C   0  0  0  0  0  0  0  0  0  0  0  0
   63.7330   32.4510   49.4480 N   0  0  0  0  0  0  0  0  0  0  0  0
   65.0610   33.0550   49.7510 C   0  0  0  0  0  0  0  0  0  0  0  0
   66.0290   32.1500   50.5170 C   0  0  0  0  0  0  0  0  0  0  0  0
   63.5570   32.1190   47.9990 C   0  0  0  0  0  0  0  0  0  0  0  0
   62.6940   33.0870   47.1590 C   0  0  0  0  0  0  0  0  0  0  0  0
   62.1600   34.1320   47.9620 O   0  0  0  0  0  0  0  0  0  0  0  0
   60.9570   34.0090   48.6640 C   0  0  0  0  0  0  0  0  0  0  0  0
   60.9540   33.6710   49.8790 O   0  0  0  0  0  0  0  0  0  0  0  0
   59.6640   34.2950   47.9610 C   0  0  0  0  0  0  0  0  0  0  0  0
   59.0050   33.0180   47.4500 C   0  0  0  0  0  0  0  0  0  0  0  0
   58.7110   32.9730   46.1320 C   0  0  0  0  0  0  0  0  0  0  0  0
   58.1130   31.8600   45.3160 C   0  0  0  0  0  0  0  0  0  0  0  0
   57.9730   30.4620   45.9540 C   0  0  1  0  0  0  0  0  0  0  0  0
   57.5060   29.4010   44.9000 C   0  0  2  0  0  0  0  0  0  0  0  0
   56.3190   29.8660   44.0350 C   0  0  0  0  0  0  0  0  0  0  0  0
   57.1260   28.0680   45.5940 C   0  0  0  0  0  0  0  0  0  0  0  0
   58.0070   27.7320   46.8050 C   0  0  0  0  0  0  0  0  0  0  0  0
   59.3670   28.4200   46.6970 C   0  0  0  0  0  0  0  0  0  0  0  0
   59.2530   29.9890   46.7700 C   0  0  1  0  0  0  0  0  0  0  0  0
   60.6020   30.4930   46.1880 C   0  0  0  0  0  0  0  0  0  0  0  0
   59.0670   30.5350   48.2080 C   0  0  0  0  0  0  0  0  0  0  0  0
   59.0500   29.6660   49.3300 C   0  0  0  0  0  0  0  0  0  0  0  0
   58.6500   30.1010   50.5890 C   0  0  0  0  0  0  0  0  0  0  0  0
   58.2160   31.4130   50.7830 C   0  0  0  0  0  0  0  0  0  0  0  0
   57.7490   31.8910   52.1470 C   0  0  0  0  0  0  0  0  0  0  0  0
   56.2620   31.5860   52.3520 C   0  0  0  0  0  0  0  0  0  0  0  0
   58.0400   33.3840   52.3480 C   0  0  0  0  0  0  0  0  0  0  0  0
   58.2650   32.3020   49.7070 C   0  0  0  0  0  0  0  0  0  0  0  0
   58.7430   31.9130   48.4370 C   0  0  0  0  0  0  0  0  0  0  0  0
   61.4800   30.3073   50.8138 H   0  0  0  0  0  0  0  0  0  0  0  0
   61.4244   31.3122   49.3260 H   0  0  0  0  0  0  0  0  0  0  0  0
   62.3225   29.7565   49.3260 H   0  0  0  0  0  0  0  0  0  0  0  0
   63.1300   31.8073   51.3667 H   0  0  0  0  0  0  0  0  0  0  0  0
   64.1261   30.6242   50.3931 H   0  0  0  0  0  0  0  0  0  0  0  0
   63.0560   33.2320   49.6260 H   0  0  0  0  0  0  0  0  0  0  0  0
   65.5351   33.3305   48.7974 H   0  0  0  0  0  0  0  0  0  0  0  0
   64.8626   33.9149   50.4077 H   0  0  0  0  0  0  0  0  0  0  0  0
   65.8818   32.2877   51.5984 H   0  0  0  0  0  0  0  0  0  0  0  0
   65.8371   31.0999   50.2516 H   0  0  0  0  0  0  0  0  0  0  0  0
   67.0638   32.4121   50.2516 H   0  0  0  0  0  0  0  0  0  0  0  0
   64.5571   32.0842   47.5424 H   0  0  0  0  0  0  0  0  0  0  0  0
   63.0099   31.1648   47.9882 H   0  0  0  0  0  0  0  0  0  0  0  0
   63.3172   33.5268   46.3664 H   0  0  0  0  0  0  0  0  0  0  0  0
   61.8571   32.5195   46.7260 H   0  0  0  0  0  0  0  0  0  0  0  0
   58.9792   34.7932   48.6630 H   0  0  0  0  0  0  0  0  0  0  0  0
   59.8794   34.9394   47.0959 H   0  0  0  0  0  0  0  0  0  0  0  0
   58.9445   33.8896   45.5705 H   0  0  0  0  0  0  0  0  0  0  0  0
   57.1039   32.1826   45.0199 H   0  0  0  0  0  0  0  0  0  0  0  0
   58.8369   31.7091   44.5016 H   0  0  0  0  0  0  0  0  0  0  0  0
   57.1816   30.5530   46.7126 H   0  0  0  0  0  0  0  0  0  0  0  0
   58.3664   29.2582   44.2297 H   0  0  0  0  0  0  0  0  0  0  0  0
   55.4943   30.1891   44.6873 H   0  0  0  0  0  0  0  0  0  0  0  0
   56.6352   30.7067   43.4000 H   0  0  0  0  0  0  0  0  0  0  0  0
   55.9800   29.0342   43.4000 H   0  0  0  0  0  0  0  0  0  0  0  0
   56.0817   28.1377   45.9325 H   0  0  0  0  0  0  0  0  0  0  0  0
   57.2742   27.2665   44.8554 H   0  0  0  0  0  0  0  0  0  0  0  0
   57.5034   28.0715   47.7221 H   0  0  0  0  0  0  0  0  0  0  0  0
   58.1648   26.6438   46.8339 H   0  0  0  0  0  0  0  0  0  0  0  0
   60.0050   28.0733   47.5233 H   0  0  0  0  0  0  0  0  0  0  0  0
   59.7979   28.1600   45.7189 H   0  0  0  0  0  0  0  0  0  0  0  0
   61.2845   30.7480   47.0121 H   0  0  0  0  0  0  0  0  0  0  0  0
   61.0528   29.7026   45.5698 H   0  0  0  0  0  0  0  0  0  0  0  0
   60.4241   31.3853   45.5698 H   0  0  0  0  0  0  0  0  0  0  0  0
   59.3619   28.6192   49.2002 H   0  0  0  0  0  0  0  0  0  0  0  0
   58.6760   29.4043   51.4398 H   0  0  0  0  0  0  0  0  0  0  0  0
   58.3188   31.3386   52.9087 H   0  0  0  0  0  0  0  0  0  0  0  0
   56.0420   31.5409   53.4288 H   0  0  0  0  0  0  0  0  0  0  0  0
   55.6576   32.3789   51.8872 H   0  0  0  0  0  0  0  0  0  0  0  0
   56.0185   30.6192   51.8872 H   0  0  0  0  0  0  0  0  0  0  0  0
   58.0836   33.6074   53.4242 H   0  0  0  0  0  0  0  0  0  0  0  0
   59.0041   33.6356   51.8820 H   0  0  0  0  0  0  0  0  0  0  0  0
   57.2410   33.9793   51.8820 H   0  0  0  0  0  0  0  0  0  0  0  0
   57.9208   33.3364   49.8536 H   0  0  0  0  0  0  0  0  0  0  0  0
  1  2  1  0
  2  3  1  0
  3  4  1  0
  4  5  1  0
  3  6  1  0
  6  7  1  0
  7  8  1  0
  8  9  1  0
  9 10  2  0
  9 11  1  0
 11 12  1  0
 12 13  2  0
 13 14  1  0
 14 15  1  0
 15 16  1  0
 16 17  1  0
 16 18  1  0
 18 19  1  0
 19 20  1  0
 20 21  1  0
 21 22  1  6
 21 23  1  0
 23 24  2  0
 24 25  1  0
 25 26  2  0
 26 27  1  0
 27 28  1  0
 27 29  1  0
 26 30  1  0
 30 31  2  0
 31 12  1  0
 21 15  1  0
 31 23  1  0
  1 32  1  0
  1 33  1  0
  1 34  1  0
  2 35  1  0
  2 36  1  0
  3 37  1  0
  4 38  1  0
  4 39  1  0
  5 40  1  0
  5 41  1  0
  5 42  1  0
  6 43  1  0
  6 44  1  0
  7 45  1  0
  7 46  1  0
 11 47  1  0
 11 48  1  0
 13 49  1  0
 14 50  1  0
 14 51  1  0
 15 52  1  1
 16 53  1  6
 17 54  1  0
 17 55  1  0
 17 56  1  0
 18 57  1  0
 18 58  1  0
 19 59  1  0
 19 60  1  0
 20 61  1  0
 20 62  1  0
 22 63  1  0
 22 64  1  0
 22 65  1  0
 24 66  1  0
 25 67  1  0
 27 68  1  0
 28 69  1  0
 28 70  1  0
 28 71  1  0
 29 72  1  0
 29 73  1  0
 29 74  1  0
 30 75  1  0
M  CHG  1   3   1
M  END
>  <UniqueID>  (42) 
40

>  <SMILES>  (42) 
CC[NH+](CC)CCOC(=O)CC1=CC[C@H]2[C@H](C)CCCC2(C)c2ccc(C(C)C)cc21

>  <Energy>  (42) 
113.53856623016506

>  <Genealogy>  (42) 
CC[NH+](CC)CCOC(=O)CC1=CCC2C(C)CCCC2(C)c2ccc(C(C)C)cc21 (protonated)
CC[NH+](CC)CCOC(=O)CC1=CC[C@H]2[C@H](C)CCCC2(C)c2ccc(C(C)C)cc21 (chirality)
CC[NH+](CC)CCOC(=O)CC1=CC[C@H]2[C@H](C)CCCC2(C)c2ccc(C(C)C)cc21 (3D coordinates assigned)
CC[NH+](CC)CCOC(=O)CC1=CC[C@H]2[C@H](C)CCCC2(C)c2ccc(C(C)C)cc21 (nonaromatic ring conformer: 113.53856623016506 kcal/mol)

>  <smiles>  (42) 
CCN(CC)CCOC(=O)CC1=CCC2C(C)CCCC2(C)c2ccc(C(C)C)cc21

>  <score_type>  (42) 
oracle

>  <origin>  (42) 
adg

>  <m_score__min__energy>  (42) 
-5.5700000000000003

>  <m_primary>  (42) 
energy

$$$$
42:0
     RDKit          3D

 35 38  0  0  0  0  0  0  0  0999 V2000
   56.2110   24.4640   43.9340 C   0  0  0  0  0  0  0  0  0  0  0  0
   56.1850   25.2520   45.1190 O   0  0  0  0  0  0  0  0  0  0  0  0
   57.1160   26.2420   45.4870 C   0  0  0  0  0  0  0  0  0  0  0  0
   58.4160   25.8160   45.7980 C   0  0  0  0  0  0  0  0  0  0  0  0
   58.8760   23.9580   45.7180 Br  0  0  0  0  0  0  0  0  0  0  0  0
   59.4000   26.7330   46.1720 C   0  0  0  0  0  0  0  0  0  0  0  0
   59.1050   28.0980   46.2420 C   0  0  0  0  0  0  0  0  0  0  0  0
   60.0980   29.0170   46.6190 C   0  0  0  0  0  0  0  0  0  0  0  0
   59.8100   30.3910   46.6950 C   0  0  0  0  0  0  0  0  0  0  0  0
   60.8630   31.3600   47.0930 C   0  0  0  0  0  0  0  0  0  0  0  0
   60.8400   32.6940   46.6000 C   0  0  0  0  0  0  0  0  0  0  0  0
   61.8350   33.6150   46.9750 C   0  0  0  0  0  0  0  0  0  0  0  0
   62.8340   33.1780   47.8360 C   0  0  0  0  0  0  0  0  0  0  0  0
   62.8670   31.9090   48.3130 C   0  0  0  0  0  0  0  0  0  0  0  0
   61.9030   30.9660   47.9710 C   0  0  0  0  0  0  0  0  0  0  0  0
   63.9630   31.7560   49.1400 O   0  0  0  0  0  0  0  0  0  0  0  0
   64.6620   33.0070   49.1860 C   0  0  0  0  0  0  0  0  0  0  0  0
   63.9070   33.8870   48.3400 O   0  0  0  0  0  0  0  0  0  0  0  0
   58.5130   30.8340   46.3890 C   0  0  0  0  0  0  0  0  0  0  0  0
   57.5210   29.9270   46.0130 C   0  0  0  0  0  0  0  0  0  0  0  0
   57.8010   28.5510   45.9340 C   0  0  0  0  0  0  0  0  0  0  0  0
   56.8070   27.6240   45.5570 C   0  0  0  0  0  0  0  0  0  0  0  0
   55.5290   28.0860   45.2570 O   0  0  0  0  0  0  0  0  0  0  0  0
   56.2462   23.3980   44.2032 H   0  0  0  0  0  0  0  0  0  0  0  0
   55.3058   24.6629   43.3415 H   0  0  0  0  0  0  0  0  0  0  0  0
   57.1011   24.7221   43.3415 H   0  0  0  0  0  0  0  0  0  0  0  0
   60.4134   26.3796   46.4130 H   0  0  0  0  0  0  0  0  0  0  0  0
   61.1103   28.6584   46.8570 H   0  0  0  0  0  0  0  0  0  0  0  0
   60.0359   33.0087   45.9185 H   0  0  0  0  0  0  0  0  0  0  0  0
   61.8225   34.6485   46.5985 H   0  0  0  0  0  0  0  0  0  0  0  0
   61.9470   29.9424   48.3713 H   0  0  0  0  0  0  0  0  0  0  0  0
   64.6944   33.3939   50.2152 H   0  0  0  0  0  0  0  0  0  0  0  0
   65.7058   32.9091   48.8528 H   0  0  0  0  0  0  0  0  0  0  0  0
   58.2765   31.9067   46.4462 H   0  0  0  0  0  0  0  0  0  0  0  0
   56.5106   30.2918   45.7762 H   0  0  0  0  0  0  0  0  0  0  0  0
  1  2  1  0
  2  3  1  0
  3  4  2  0
  4  5  1  0
  4  6  1  0
  6  7  2  0
  7  8  1  0
  8  9  2  0
  9 10  1  0
 10 11  2  0
 11 12  1  0
 12 13  2  0
 13 14  1  0
 14 15  2  0
 14 16  1  0
 16 17  1  0
 17 18  1  0
  9 19  1  0
 19 20  2  0
 20 21  1  0
 21 22  2  0
 22 23  1  0
 22  3  1  0
 21  7  1  0
 15 10  1  0
 18 13  1  0
  1 24  1  0
  1 25  1  0
  1 26  1  0
  6 27  1  0
  8 28  1  0
 11 29  1  0
 12 30  1  0
 15 31  1  0
 17 32  1  0
 17 33  1  0
 19 34  1  0
 20 35  1  0
M  CHG  1  23  -1
M  END
>  <UniqueID>  (43) 
41

>  <SMILES>  (43) 
COc1c(Br)cc2cc(-c3ccc4c(c3)OCO4)ccc2c1[O-]

>  <Energy>  (43) 
79.15895279666645

>  <Genealogy>  (43) 
COc1c(Br)cc2cc(-c3ccc4c(c3)OCO4)ccc2c1[O-] (protonated)
COc1c(Br)cc2cc(-c3ccc4c(c3)OCO4)ccc2c1[O-] (3D coordinates assigned)
COc1c(Br)cc2cc(-c3ccc4c(c3)OCO4)ccc2c1[O-] (nonaromatic ring conformer: 79.15895279666645 kcal/mol)

>  <smiles>  (43) 
COc1c(Br)cc2cc(-c3ccc4c(c3)OCO4)ccc2c1O

>  <score_type>  (43) 
oracle

>  <origin>  (43) 
adg

>  <m_score__min__energy>  (43) 
-9.9900000000000002

>  <m_primary>  (43) 
energy

$$$$
43:0
     RDKit          3D

 29 30  0  0  0  0  0  0  0  0999 V2000
   56.1420   32.3580   45.2460 F   0  0  0  0  0  0  0  0  0  0  0  0
   57.2730   33.0990   45.3750 C   0  0  0  0  0  0  0  0  0  0  0  0
   57.4620   33.8500   46.5400 C   0  0  0  0  0  0  0  0  0  0  0  0
   58.6250   34.6030   46.7090 C   0  0  0  0  0  0  0  0  0  0  0  0
   59.6090   34.5990   45.7190 C   0  0  0  0  0  0  0  0  0  0  0  0
   59.4270   33.8520   44.5520 C   0  0  0  0  0  0  0  0  0  0  0  0
   58.2450   33.1140   44.3530 C   0  0  0  0  0  0  0  0  0  0  0  0
   58.0500   32.2990   43.0840 C   0  0  0  0  0  0  0  0  0  0  0  0
   57.8030   30.8490   43.3070 N   0  0  0  0  0  0  0  0  0  0  0  0
   56.4480   30.4040   42.8840 C   0  0  0  0  0  0  0  0  0  0  0  0
   55.5560   30.0600   44.0910 C   0  0  0  0  0  0  0  0  0  0  0  0
   56.0960   29.0280   44.9060 O   0  0  0  0  0  0  0  0  0  0  0  0
   57.5170   29.0400   44.9830 C   0  0  0  0  0  0  0  0  0  0  0  0
   58.1470   30.4110   44.6820 C   0  0  0  0  0  0  0  0  0  0  0  0
   56.6917   33.8471   47.3253 H   0  0  0  0  0  0  0  0  0  0  0  0
   58.7661   35.1996   47.6223 H   0  0  0  0  0  0  0  0  0  0  0  0
   60.5295   35.1850   45.8577 H   0  0  0  0  0  0  0  0  0  0  0  0
   60.2135   33.8407   43.7830 H   0  0  0  0  0  0  0  0  0  0  0  0
   57.1885   32.7134   42.5399 H   0  0  0  0  0  0  0  0  0  0  0  0
   58.9927   32.3702   42.5217 H   0  0  0  0  0  0  0  0  0  0  0  0
   58.4800   30.3580   42.6730 H   0  0  0  0  0  0  0  0  0  0  0  0
   55.9719   31.2112   42.3081 H   0  0  0  0  0  0  0  0  0  0  0  0
   56.5616   29.4962   42.2733 H   0  0  0  0  0  0  0  0  0  0  0  0
   55.4342   30.9641   44.7056 H   0  0  0  0  0  0  0  0  0  0  0  0
   54.5949   29.6982   43.6967 H   0  0  0  0  0  0  0  0  0  0  0  0
   57.8111   28.7395   45.9995 H   0  0  0  0  0  0  0  0  0  0  0  0
   57.8839   28.3446   44.2137 H   0  0  0  0  0  0  0  0  0  0  0  0
   57.7678   31.1501   45.4031 H   0  0  0  0  0  0  0  0  0  0  0  0
   59.2405   30.3267   44.7659 H   0  0  0  0  0  0  0  0  0  0  0  0
  1  2  1  0
  2  3  2  0
  3  4  1  0
  4  5  2  0
  5  6  1  0
  6  7  2  0
  7  8  1  0
  8  9  1  0
  9 10  1  0
 10 11  1  0
 11 12  1  0
 12 13  1  0
 13 14  1  0
  7  2  1  0
 14  9  1  0
  3 15  1  0
  4 16  1  0
  5 17  1  0
  6 18  1  0
  8 19  1  0
  8 20  1  0
  9 21  1  0
 10 22  1  0
 10 23  1  0
 11 24  1  0
 11 25  1  0
 13 26  1  0
 13 27  1  0
 14 28  1  0
 14 29  1  0
M  CHG  1   9   1
M  END
>  <UniqueID>  (44) 
42

>  <SMILES>  (44) 
Fc1ccccc1C[NH+]1CCOCC1

>  <Energy>  (44) 
46.89254295180019

>  <Genealogy>  (44) 
Fc1ccccc1C[NH+]1CCOCC1 (protonated)
Fc1ccccc1C[NH+]1CCOCC1 (3D coordinates assigned)
Fc1ccccc1C[NH+]1CCOCC1 (nonaromatic ring conformer: 46.89254295180019 kcal/mol)

>  <smiles>  (44) 
Fc1ccccc1CN1CCOCC1

>  <score_type>  (44) 
oracle

>  <origin>  (44) 
adg

>  <m_score__min__energy>  (44) 
-4.29

>  <m_primary>  (44) 
energy

$$$$
44:0
     RDKit          3D

 53 55  0  0  0  0  0  0  0  0999 V2000
   60.1340   34.5890   49.0790 C   0  0  0  0  0  0  0  0  0  0  0  0
   59.2710   33.3370   49.1860 C   0  0  0  0  0  0  0  0  0  0  0  0
   59.3040   32.5600   47.8970 C   0  0  0  0  0  0  0  0  0  0  0  0
   59.8580   31.2940   47.6740 C   0  0  0  0  0  0  0  0  0  0  0  0
   60.6560   30.5060   48.6840 C   0  0  0  0  0  0  0  0  0  0  0  0
   62.0740   31.0640   48.8590 C   0  0  0  0  0  0  0  0  0  0  0  0
   62.7090   31.2890   47.5570 N   0  0  0  0  0  0  0  0  0  0  0  0
   62.9650   32.9890   47.3040 S   0  0  0  0  0  0  0  0  0  0  0  0
   63.2840   33.8010   48.8570 C   0  0  0  0  0  0  0  0  0  0  0  0
   61.7280   33.5840   46.6930 O   0  0  0  0  0  0  0  0  0  0  0  0
   64.1270   33.2090   46.3740 O   0  0  0  0  0  0  0  0  0  0  0  0
   59.6100   30.8880   46.3970 N   0  0  0  0  0  0  0  0  0  0  0  0
   59.9680   29.5950   45.7970 C   0  0  0  0  0  0  0  0  0  0  0  0
   58.8390   28.6050   45.9390 C   0  0  0  0  0  0  0  0  0  0  0  0
   58.9440   27.5320   46.8390 C   0  0  0  0  0  0  0  0  0  0  0  0
   57.8990   26.6120   46.9700 C   0  0  0  0  0  0  0  0  0  0  0  0
   56.7340   26.7460   46.1920 C   0  0  0  0  0  0  0  0  0  0  0  0
   55.6590   25.8500   46.2870 O   0  0  0  0  0  0  0  0  0  0  0  0
   55.5330   24.6590   45.5170 C   0  0  0  0  0  0  0  0  0  0  0  0
   56.6370   27.8080   45.2870 C   0  0  0  0  0  0  0  0  0  0  0  0
   57.6800   28.7290   45.1560 C   0  0  0  0  0  0  0  0  0  0  0  0
   58.8860   31.8790   45.8260 C   0  0  0  0  0  0  0  0  0  0  0  0
   58.3600   31.9320   44.5280 C   0  0  0  0  0  0  0  0  0  0  0  0
   57.6120   33.0640   44.1610 C   0  0  0  0  0  0  0  0  0  0  0  0
   57.3990   34.1100   45.0810 C   0  0  0  0  0  0  0  0  0  0  0  0
   57.9340   34.0360   46.3780 C   0  0  0  0  0  0  0  0  0  0  0  0
   58.6800   32.9050   46.7150 C   0  0  0  0  0  0  0  0  0  0  0  0
   60.3829   34.9501   50.0878 H   0  0  0  0  0  0  0  0  0  0  0  0
   61.0604   34.3505   48.5360 H   0  0  0  0  0  0  0  0  0  0  0  0
   59.5814   35.3699   48.5360 H   0  0  0  0  0  0  0  0  0  0  0  0
   59.6525   32.7033   50.0002 H   0  0  0  0  0  0  0  0  0  0  0  0
   58.2333   33.6377   49.3928 H   0  0  0  0  0  0  0  0  0  0  0  0
   60.1376   30.5437   49.6534 H   0  0  0  0  0  0  0  0  0  0  0  0
   60.7409   29.4723   48.3176 H   0  0  0  0  0  0  0  0  0  0  0  0
   62.0215   32.0179   49.4043 H   0  0  0  0  0  0  0  0  0  0  0  0
   62.6734   30.3336   49.4222 H   0  0  0  0  0  0  0  0  0  0  0  0
   63.6590   30.8500   47.5790 H   0  0  0  0  0  0  0  0  0  0  0  0
   63.0190   33.1266   49.6846 H   0  0  0  0  0  0  0  0  0  0  0  0
   64.3509   34.0605   48.9227 H   0  0  0  0  0  0  0  0  0  0  0  0
   62.6790   34.7173   48.9227 H   0  0  0  0  0  0  0  0  0  0  0  0
   60.1862   29.7417   44.7289 H   0  0  0  0  0  0  0  0  0  0  0  0
   60.8514   29.1980   46.3186 H   0  0  0  0  0  0  0  0  0  0  0  0
   59.8545   27.4144   47.4450 H   0  0  0  0  0  0  0  0  0  0  0  0
   57.9880   25.7801   47.6842 H   0  0  0  0  0  0  0  0  0  0  0  0
   55.4415   23.7945   46.1911 H   0  0  0  0  0  0  0  0  0  0  0  0
   54.6369   24.7257   44.8825 H   0  0  0  0  0  0  0  0  0  0  0  0
   56.4232   24.5367   44.8825 H   0  0  0  0  0  0  0  0  0  0  0  0
   55.7314   27.9194   44.6726 H   0  0  0  0  0  0  0  0  0  0  0  0
   57.5925   29.5556   44.4355 H   0  0  0  0  0  0  0  0  0  0  0  0
   58.5279   31.1104   43.8161 H   0  0  0  0  0  0  0  0  0  0  0  0
   57.1896   33.1340   43.1478 H   0  0  0  0  0  0  0  0  0  0  0  0
   56.8103   34.9897   44.7818 H   0  0  0  0  0  0  0  0  0  0  0  0
   57.7701   34.8444   47.1057 H   0  0  0  0  0  0  0  0  0  0  0  0
  1  2  1  0
  2  3  1  0
  3  4  2  0
  4  5  1  0
  5  6  1  0
  6  7  1  0
  7  8  1  0
  8  9  1  0
  8 10  2  0
  8 11  2  0
  4 12  1  0
 12 13  1  0
 13 14  1  0
 14 15  2  0
 15 16  1  0
 16 17  2  0
 17 18  1  0
 18 19  1  0
 17 20  1  0
 20 21  2  0
 12 22  1  0
 22 23  2  0
 23 24  1  0
 24 25  2  0
 25 26  1  0
 26 27  2  0
 27  3  1  0
 21 14  1  0
 27 22  1  0
  1 28  1  0
  1 29  1  0
  1 30  1  0
  2 31  1  0
  2 32  1  0
  5 33  1  0
  5 34  1  0
  6 35  1  0
  6 36  1  0
  7 37  1  0
  9 38  1  0
  9 39  1  0
  9 40  1  0
 13 41  1  0
 13 42  1  0
 15 43  1  0
 16 44  1  0
 19 45  1  0
 19 46  1  0
 19 47  1  0
 20 48  1  0
 21 49  1  0
 23 50  1  0
 24 51  1  0
 25 52  1  0
 26 53  1  0
M  END
>  <UniqueID>  (45) 
43

>  <SMILES>  (45) 
CCc1c(CCNS(C)(=O)=O)n(Cc2ccc(OC)cc2)c2ccccc12

>  <Energy>  (45) 
73.60863755329216

>  <Genealogy>  (45) 
CCc1c(CCNS(C)(=O)=O)n(Cc2ccc(OC)cc2)c2ccccc12 (3D coordinates assigned)
CCc1c(CCNS(C)(=O)=O)n(Cc2ccc(OC)cc2)c2ccccc12 (optimized conformer: 73.60863755329216 kcal/mol)

>  <smiles>  (45) 
CCc1c(CCNS(C)(=O)=O)n(Cc2ccc(OC)cc2)c2ccccc12

>  <score_type>  (45) 
oracle

>  <origin>  (45) 
adg

>  <m_score__min__energy>  (45) 
-9.0199999999999996

>  <m_primary>  (45) 
energy

$$$$
45:0
     RDKit          3D

 42 45  0  0  0  0  0  0  0  0999 V2000
   59.4730   34.9560   47.3900 C   0  0  0  0  0  0  0  0  0  0  0  0
   58.6410   34.5370   46.2500 N   0  0  0  0  0  0  0  0  0  0  0  0
   57.4490   33.8290   46.7430 C   0  0  0  0  0  0  0  0  0  0  0  0
   59.4000   33.6690   45.3270 C   0  0  0  0  0  0  0  0  0  0  0  0
   59.2200   32.2150   45.6880 C   0  0  0  0  0  0  0  0  0  0  0  0
   59.9120   31.4750   46.6510 C   0  0  0  0  0  0  0  0  0  0  0  0
   61.0590   31.9120   47.4710 C   0  0  0  0  0  0  0  0  0  0  0  0
   61.2170   31.4040   48.7680 C   0  0  0  0  0  0  0  0  0  0  0  0
   62.3080   31.7900   49.5520 C   0  0  0  0  0  0  0  0  0  0  0  0
   63.2700   32.6840   49.0500 C   0  0  0  0  0  0  0  0  0  0  0  0
   64.4260   33.0910   49.8870 C   0  0  0  0  0  0  0  0  0  0  0  0
   65.7270   32.9250   49.5430 N   0  0  0  0  0  0  0  0  0  0  0  0
   66.5870   33.3880   50.4880 C   0  0  0  0  0  0  0  0  0  0  0  0
   65.9840   33.9370   51.6120 C   0  0  0  0  0  0  0  0  0  0  0  0
   64.3190   33.8340   51.3970 S   0  0  0  0  0  0  0  0  0  0  0  0
   63.1230   33.1670   47.7360 C   0  0  0  0  0  0  0  0  0  0  0  0
   62.0320   32.7790   46.9540 C   0  0  0  0  0  0  0  0  0  0  0  0
   59.3370   30.2560   46.7970 N   0  0  0  0  0  0  0  0  0  0  0  0
   58.3170   30.2800   45.9180 C   0  0  0  0  0  0  0  0  0  0  0  0
   57.3980   29.2580   45.7000 C   0  0  0  0  0  0  0  0  0  0  0  0
   56.3980   29.4760   44.7980 N   0  0  0  0  0  0  0  0  0  0  0  0
   56.2850   30.6600   44.1250 C   0  0  0  0  0  0  0  0  0  0  0  0
   57.2160   31.6830   44.3570 C   0  0  0  0  0  0  0  0  0  0  0  0
   58.2120   31.4380   45.2490 N   0  0  0  0  0  0  0  0  0  0  0  0
   58.9630   34.6991   48.3302 H   0  0  0  0  0  0  0  0  0  0  0  0
   60.4428   34.4388   47.3458 H   0  0  0  0  0  0  0  0  0  0  0  0
   59.6349   36.0431   47.3458 H   0  0  0  0  0  0  0  0  0  0  0  0
   57.4507   33.8300   47.8430 H   0  0  0  0  0  0  0  0  0  0  0  0
   56.5439   34.3361   46.3773 H   0  0  0  0  0  0  0  0  0  0  0  0
   57.4613   32.7916   46.3773 H   0  0  0  0  0  0  0  0  0  0  0  0
   59.0404   33.8328   44.3004 H   0  0  0  0  0  0  0  0  0  0  0  0
   60.4679   33.9215   45.4039 H   0  0  0  0  0  0  0  0  0  0  0  0
   60.4774   30.6968   49.1715 H   0  0  0  0  0  0  0  0  0  0  0  0
   62.4149   31.3905   50.5713 H   0  0  0  0  0  0  0  0  0  0  0  0
   66.0570   32.5130   48.6430 H   0  0  0  0  0  0  0  0  0  0  0  0
   67.6793   33.3320   50.3712 H   0  0  0  0  0  0  0  0  0  0  0  0
   66.5014   34.3621   52.4847 H   0  0  0  0  0  0  0  0  0  0  0  0
   63.8736   33.8559   47.3212 H   0  0  0  0  0  0  0  0  0  0  0  0
   61.9358   33.1565   45.9253 H   0  0  0  0  0  0  0  0  0  0  0  0
   57.4756   28.3024   46.2392 H   0  0  0  0  0  0  0  0  0  0  0  0
   55.4675   30.8100   43.4045 H   0  0  0  0  0  0  0  0  0  0  0  0
   57.1428   32.6489   43.8358 H   0  0  0  0  0  0  0  0  0  0  0  0
  1  2  1  0
  2  3  1  0
  2  4  1  0
  4  5  1  0
  5  6  2  0
  6  7  1  0
  7  8  2  0
  8  9  1  0
  9 10  2  0
 10 11  1  0
 11 12  2  0
 12 13  1  0
 13 14  2  0
 14 15  1  0
 10 16  1  0
 16 17  2  0
  6 18  1  0
 18 19  2  0
 19 20  1  0
 20 21  2  0
 21 22  1  0
 22 23  2  0
 23 24  1  0
 24  5  1  0
 17  7  1  0
 24 19  1  0
 15 11  1  0
  1 25  1  0
  1 26  1  0
  1 27  1  0
  3 28  1  0
  3 29  1  0
  3 30  1  0
  4 31  1  0
  4 32  1  0
  8 33  1  0
  9 34  1  0
 12 35  1  0
 13 36  1  0
 14 37  1  0
 16 38  1  0
 17 39  1  0
 20 40  1  0
 22 41  1  0
 23 42  1  0
M  CHG  1  12   1
M  END
>  <UniqueID>  (46) 
44

>  <SMILES>  (46) 
CN(C)Cc1c(-c2ccc(-c3[nH+]ccs3)cc2)nc2cnccn12

>  <Energy>  (46) 
119.26413360439115

>  <Genealogy>  (46) 
CN(C)Cc1c(-c2ccc(-c3[nH+]ccs3)cc2)nc2cnccn12 (protonated)
CN(C)Cc1c(-c2ccc(-c3[nH+]ccs3)cc2)nc2cnccn12 (3D coordinates assigned)
CN(C)Cc1c(-c2ccc(-c3[nH+]ccs3)cc2)nc2cnccn12 (optimized conformer: 119.26413360439115 kcal/mol)

>  <smiles>  (46) 
CN(C)Cc1c(-c2ccc(-c3nccs3)cc2)nc2cnccn12

>  <score_type>  (46) 
oracle

>  <origin>  (46) 
adg

>  <m_score__min__energy>  (46) 
-5.9800000000000004

>  <m_primary>  (46) 
energy

$$$$
46:0
     RDKit          3D

 80 83  0  0  0  0  0  0  0  0999 V2000
   58.8890   29.5410   44.8790 C   0  0  0  0  0  0  0  0  0  0  0  0
   57.7670   30.2100   45.6680 C   0  0  0  0  0  0  0  0  0  0  0  0
   57.1320   31.2870   44.8690 N   0  0  0  0  0  0  0  0  0  0  0  0
   56.6320   30.7670   43.5740 C   0  0  0  0  0  0  0  0  0  0  0  0
   55.5350   29.7220   43.7780 C   0  0  0  0  0  0  0  0  0  0  0  0
   58.0530   32.4380   44.6720 C   0  0  0  0  0  0  0  0  0  0  0  0
   57.4830   33.7120   45.3150 C   0  0  0  0  0  0  0  0  0  0  0  0
   58.0580   34.0000   46.7160 C   0  0  0  0  0  0  0  0  0  0  0  0
   59.4790   34.5170   46.7130 C   0  0  0  0  0  0  0  0  0  0  0  0
   59.8920   35.1970   45.7850 O   0  0  0  0  0  0  0  0  0  0  0  0
   60.4080   34.1380   47.8540 C   0  0  1  0  0  0  0  0  0  0  0  0
   59.6720   33.9680   49.1720 C   0  0  0  0  0  0  0  0  0  0  0  0
   60.6300   33.1660   50.0290 C   0  0  0  0  0  0  0  0  0  0  0  0
   61.2670   32.1550   49.0670 C   0  0  2  0  0  0  0  0  0  0  0  0
   62.6330   31.5390   49.5350 C   0  0  2  0  0  0  0  0  0  0  0  0
   62.5760   31.0770   50.9990 C   0  0  0  0  0  0  0  0  0  0  0  0
   63.9110   30.6230   51.4970 C   0  0  0  0  0  0  0  0  0  0  0  0
   65.0050   31.3810   51.2970 C   0  0  0  0  0  0  0  0  0  0  0  0
   66.0730   31.3850   52.3700 C   0  0  0  0  0  0  0  0  0  0  0  0
   66.0830   32.7450   53.1290 C   0  0  1  0  0  0  0  0  0  0  0  0
   67.2850   33.4710   52.8720 O   0  0  0  0  0  0  0  0  0  0  0  0
   68.4650   32.8730   52.4160 C   0  0  0  0  0  0  0  0  0  0  0  0
   69.1450   31.8580   53.2690 C   0  0  0  0  0  0  0  0  0  0  0  0
   68.9300   33.1470   51.2760 O   0  0  0  0  0  0  0  0  0  0  0  0
   64.8680   33.6450   52.7910 C   0  0  0  0  0  0  0  0  0  0  0  0
   64.6130   33.8430   51.2680 C   0  0  0  0  0  0  0  0  0  0  0  0
   64.9520   32.6010   50.3770 C   0  0  1  0  0  0  0  0  0  0  0  0
   66.3630   32.8010   49.7410 C   0  0  0  0  0  0  0  0  0  0  0  0
   63.9270   32.3630   49.1890 C   0  0  2  0  0  0  0  0  0  0  0  0
   63.6150   33.6170   48.3420 C   0  0  0  0  0  0  0  0  0  0  0  0
   62.6960   33.2340   47.1780 C   0  0  0  0  0  0  0  0  0  0  0  0
   61.2690   32.8410   47.6590 C   0  0  2  0  0  0  0  0  0  0  0  0
   60.6610   31.8650   46.6190 C   0  0  0  0  0  0  0  0  0  0  0  0
   59.6191   29.1057   45.5772 H   0  0  0  0  0  0  0  0  0  0  0  0
   58.4683   28.7461   44.2456 H   0  0  0  0  0  0  0  0  0  0  0  0
   59.3883   30.2890   44.2456 H   0  0  0  0  0  0  0  0  0  0  0  0
   57.0081   29.4565   45.9256 H   0  0  0  0  0  0  0  0  0  0  0  0
   58.1924   30.6519   46.5811 H   0  0  0  0  0  0  0  0  0  0  0  0
   56.2250   31.6028   42.9860 H   0  0  0  0  0  0  0  0  0  0  0  0
   57.4706   30.2897   43.0459 H   0  0  0  0  0  0  0  0  0  0  0  0
   55.3721   29.5668   44.8547 H   0  0  0  0  0  0  0  0  0  0  0  0
   54.6023   30.0739   43.3130 H   0  0  0  0  0  0  0  0  0  0  0  0
   55.8413   28.7733   43.3130 H   0  0  0  0  0  0  0  0  0  0  0  0
   59.0242   32.2053   45.1331 H   0  0  0  0  0  0  0  0  0  0  0  0
   58.1724   32.6121   43.5924 H   0  0  0  0  0  0  0  0  0  0  0  0
   57.7136   34.5659   44.6611 H   0  0  0  0  0  0  0  0  0  0  0  0
   56.4000   33.5598   45.4332 H   0  0  0  0  0  0  0  0  0  0  0  0
   57.4192   34.7519   47.2023 H   0  0  0  0  0  0  0  0  0  0  0  0
   58.0740   33.0399   47.2526 H   0  0  0  0  0  0  0  0  0  0  0  0
   61.0920   34.9995   47.8635 H   0  0  0  0  0  0  0  0  0  0  0  0
   59.4620   34.9454   49.6310 H   0  0  0  0  0  0  0  0  0  0  0  0
   58.6976   33.4722   49.0507 H   0  0  0  0  0  0  0  0  0  0  0  0
   61.3980   33.8203   50.4673 H   0  0  0  0  0  0  0  0  0  0  0  0
   60.1205   32.6734   50.8703 H   0  0  0  0  0  0  0  0  0  0  0  0
   60.6695   31.2321   49.0326 H   0  0  0  0  0  0  0  0  0  0  0  0
   62.7554   30.6461   48.9043 H   0  0  0  0  0  0  0  0  0  0  0  0
   62.2309   31.9150   51.6224 H   0  0  0  0  0  0  0  0  0  0  0  0
   61.8838   30.2242   51.0588 H   0  0  0  0  0  0  0  0  0  0  0  0
   63.9993   29.6646   52.0295 H   0  0  0  0  0  0  0  0  0  0  0  0
   65.8704   30.5737   53.0847 H   0  0  0  0  0  0  0  0  0  0  0  0
   67.0538   31.2373   51.8944 H   0  0  0  0  0  0  0  0  0  0  0  0
   66.0211   32.4844   54.1959 H   0  0  0  0  0  0  0  0  0  0  0  0
   68.9819   32.1015   54.3292 H   0  0  0  0  0  0  0  0  0  0  0  0
   68.7314   30.8617   53.0537 H   0  0  0  0  0  0  0  0  0  0  0  0
   70.2237   31.8615   53.0537 H   0  0  0  0  0  0  0  0  0  0  0  0
   63.9697   33.1893   53.2330 H   0  0  0  0  0  0  0  0  0  0  0  0
   65.0930   34.6403   53.2018 H   0  0  0  0  0  0  0  0  0  0  0  0
   63.5489   34.0840   51.1280 H   0  0  0  0  0  0  0  0  0  0  0  0
   65.2877   34.6491   50.9440 H   0  0  0  0  0  0  0  0  0  0  0  0
   67.1130   32.9073   50.5386 H   0  0  0  0  0  0  0  0  0  0  0  0
   66.6113   31.9291   49.1180 H   0  0  0  0  0  0  0  0  0  0  0  0
   66.3592   33.7076   49.1180 H   0  0  0  0  0  0  0  0  0  0  0  0
   64.5096   31.6901   48.5426 H   0  0  0  0  0  0  0  0  0  0  0  0
   63.1156   34.3688   48.9709 H   0  0  0  0  0  0  0  0  0  0  0  0
   64.5529   34.0333   47.9458 H   0  0  0  0  0  0  0  0  0  0  0  0
   62.6153   34.0914   46.4937 H   0  0  0  0  0  0  0  0  0  0  0  0
   63.1351   32.3597   46.6752 H   0  0  0  0  0  0  0  0  0  0  0  0
   60.1494   31.0437   47.1422 H   0  0  0  0  0  0  0  0  0  0  0  0
   59.9388   32.4043   45.9885 H   0  0  0  0  0  0  0  0  0  0  0  0
   61.4635   31.4545   45.9885 H   0  0  0  0  0  0  0  0  0  0  0  0
  1  2  1  0
  2  3  1  0
  3  4  1  0
  4  5  1  0
  3  6  1  0
  6  7  1  0
  7  8  1  0
  8  9  1  0
  9 10  2  0
  9 11  1  0
 11 12  1  0
 12 13  1  0
 13 14  1  0
 14 15  1  0
 15 16  1  0
 16 17  1  0
 17 18  2  0
 18 19  1  0
 19 20  1  0
 20 21  1  0
 21 22  1  0
 22 23  1  0
 22 24  2  0
 20 25  1  0
 25 26  1  0
 26 27  1  0
 27 28  1  6
 27 29  1  0
 29 30  1  0
 30 31  1  0
 31 32  1  0
 32 33  1  6
 32 11  1  0
 32 14  1  0
 29 15  1  0
 27 18  1  0
  1 34  1  0
  1 35  1  0
  1 36  1  0
  2 37  1  0
  2 38  1  0
  4 39  1  0
  4 40  1  0
  5 41  1  0
  5 42  1  0
  5 43  1  0
  6 44  1  0
  6 45  1  0
  7 46  1  0
  7 47  1  0
  8 48  1  0
  8 49  1  0
 11 50  1  1
 12 51  1  0
 12 52  1  0
 13 53  1  0
 13 54  1  0
 14 55  1  6
 15 56  1  6
 16 57  1  0
 16 58  1  0
 17 59  1  0
 19 60  1  0
 19 61  1  0
 20 62  1  1
 23 63  1  0
 23 64  1  0
 23 65  1  0
 25 66  1  0
 25 67  1  0
 26 68  1  0
 26 69  1  0
 28 70  1  0
 28 71  1  0
 28 72  1  0
 29 73  1  6
 30 74  1  0
 30 75  1  0
 31 76  1  0
 31 77  1  0
 33 78  1  0
 33 79  1  0
 33 80  1  0
M  END
>  <UniqueID>  (47) 
45

>  <SMILES>  (47) 
CCN(CC)CCCC(=O)[C@H]1CC[C@@H]2C3CC=C4CC(OC(C)=O)CCC4(C)C3CCC12C

>  <Energy>  (47) 
113.63211075112291

>  <Genealogy>  (47) 
CCN(CC)CCCC(=O)[C@H]1CC[C@@H]2C3CC=C4CC(OC(C)=O)CCC4(C)C3CCC12C (chirality)
CCN(CC)CCCC(=O)[C@H]1CC[C@@H]2C3CC=C4CC(OC(C)=O)CCC4(C)C3CCC12C (3D coordinates assigned)
CCN(CC)CCCC(=O)[C@H]1CC[C@@H]2C3CC=C4CC(OC(C)=O)CCC4(C)C3CCC12C (nonaromatic ring conformer: 113.63211075112291 kcal/mol)

>  <smiles>  (47) 
CCN(CC)CCCC(=O)C1CCC2C3CC=C4CC(OC(C)=O)CCC4(C)C3CCC12C

>  <score_type>  (47) 
oracle

>  <origin>  (47) 
adg

>  <m_score__min__energy>  (47) 
-9.5399999999999991

>  <m_primary>  (47) 
energy

$$$$
47:0
     RDKit          3D

 41 42  0  0  0  0  0  0  0  0999 V2000
   60.8630   28.7520   45.1350 C   0  0  0  0  0  0  0  0  0  0  0  0
   59.8860   27.5710   45.2270 C   0  0  0  0  0  0  0  0  0  0  0  0
   59.3200   27.3620   46.5800 N   0  0  0  0  0  0  0  0  0  0  0  0
   60.3400   27.5050   47.6360 C   0  0  0  0  0  0  0  0  0  0  0  0
   58.5720   26.0910   46.6950 C   0  0  0  0  0  0  0  0  0  0  0  0
   57.0620   26.3570   46.7350 C   0  0  0  0  0  0  0  0  0  0  0  0
   56.6340   27.2960   45.6020 C   0  0  0  0  0  0  0  0  0  0  0  0
   57.1370   28.6510   45.8290 N   0  0  0  0  0  0  0  0  0  0  0  0
   56.8400   29.7190   44.9180 C   0  0  0  0  0  0  0  0  0  0  0  0
   56.1250   29.5010   43.9010 O   0  0  0  0  0  0  0  0  0  0  0  0
   57.3680   31.1020   45.1740 C   0  0  2  0  0  0  0  0  0  0  0  0
   57.7650   31.7720   43.8820 C   0  0  0  0  0  0  0  0  0  0  0  0
   58.4530   32.8750   43.8750 N   0  0  0  0  0  0  0  0  0  0  0  0
   58.9610   33.5050   45.0610 C   0  0  0  0  0  0  0  0  0  0  0  0
   59.2780   34.8690   45.0370 C   0  0  0  0  0  0  0  0  0  0  0  0
   59.6690   35.5200   46.2110 C   0  0  0  0  0  0  0  0  0  0  0  0
   59.7430   34.8110   47.4140 C   0  0  0  0  0  0  0  0  0  0  0  0
   59.4470   33.4440   47.4420 C   0  0  0  0  0  0  0  0  0  0  0  0
   59.0800   32.7840   46.2640 C   0  0  0  0  0  0  0  0  0  0  0  0
   58.8170   31.0070   46.2760 S   0  0  0  0  0  0  0  0  0  0  0  0
   61.1359   29.0819   46.1483 H   0  0  0  0  0  0  0  0  0  0  0  0
   61.7685   28.4376   44.5954 H   0  0  0  0  0  0  0  0  0  0  0  0
   60.3845   29.5826   44.5954 H   0  0  0  0  0  0  0  0  0  0  0  0
   59.0557   27.7536   44.5290 H   0  0  0  0  0  0  0  0  0  0  0  0
   60.4573   26.6648   44.9773 H   0  0  0  0  0  0  0  0  0  0  0  0
   59.8583   27.4375   48.6226 H   0  0  0  0  0  0  0  0  0  0  0  0
   61.0859   26.7026   47.5364 H   0  0  0  0  0  0  0  0  0  0  0  0
   60.8365   28.4815   47.5364 H   0  0  0  0  0  0  0  0  0  0  0  0
   58.8045   25.4547   45.8284 H   0  0  0  0  0  0  0  0  0  0  0  0
   58.8688   25.5870   47.6266 H   0  0  0  0  0  0  0  0  0  0  0  0
   56.5266   25.4018   46.6308 H   0  0  0  0  0  0  0  0  0  0  0  0
   56.8182   26.8358   47.6948 H   0  0  0  0  0  0  0  0  0  0  0  0
   57.0348   26.9178   44.6500 H   0  0  0  0  0  0  0  0  0  0  0  0
   55.5350   27.3298   45.5697 H   0  0  0  0  0  0  0  0  0  0  0  0
   57.7280   28.8520   46.6680 H   0  0  0  0  0  0  0  0  0  0  0  0
   56.5735   31.6963   45.6489 H   0  0  0  0  0  0  0  0  0  0  0  0
   57.4661   31.3177   42.9258 H   0  0  0  0  0  0  0  0  0  0  0  0
   59.2192   35.4294   44.0923 H   0  0  0  0  0  0  0  0  0  0  0  0
   59.9187   36.5911   46.1883 H   0  0  0  0  0  0  0  0  0  0  0  0
   60.0344   35.3289   48.3397 H   0  0  0  0  0  0  0  0  0  0  0  0
   59.5027   32.8882   48.3896 H   0  0  0  0  0  0  0  0  0  0  0  0
  1  2  1  0
  2  3  1  0
  3  4  1  0
  3  5  1  0
  5  6  1  0
  6  7  1  0
  7  8  1  0
  8  9  1  0
  9 10  2  0
  9 11  1  0
 11 12  1  0
 12 13  2  0
 13 14  1  0
 14 15  2  0
 15 16  1  0
 16 17  2  0
 17 18  1  0
 18 19  2  0
 19 20  1  0
 20 11  1  0
 19 14  1  0
  1 21  1  0
  1 22  1  0
  1 23  1  0
  2 24  1  0
  2 25  1  0
  4 26  1  0
  4 27  1  0
  4 28  1  0
  5 29  1  0
  5 30  1  0
  6 31  1  0
  6 32  1  0
  7 33  1  0
  7 34  1  0
  8 35  1  0
 11 36  1  1
 12 37  1  0
 15 38  1  0
 16 39  1  0
 17 40  1  0
 18 41  1  0
M  END
>  <UniqueID>  (48) 
46

>  <SMILES>  (48) 
CCN(C)CCCNC(=O)[C@@H]1C=Nc2ccccc2S1

>  <Energy>  (48) 
41.32291953694147

>  <Genealogy>  (48) 
CCN(C)CCCNC(=O)[C@@H]1C=Nc2ccccc2S1 (chirality)
CCN(C)CCCNC(=O)[C@@H]1C=Nc2ccccc2S1 (3D coordinates assigned)
CCN(C)CCCNC(=O)[C@@H]1C=Nc2ccccc2S1 (nonaromatic ring conformer: 41.32291953694147 kcal/mol)

>  <smiles>  (48) 
CCN(C)CCCNC(=O)C1C=Nc2ccccc2S1

>  <score_type>  (48) 
oracle

>  <origin>  (48) 
adg

>  <m_score__min__energy>  (48) 
-6.46

>  <m_primary>  (48) 
energy

$$$$
48:0
     RDKit          3D

 47 49  0  0  0  0  0  0  0  0999 V2000
   56.7070   19.5330   43.0020 H   0  0  0  0  0  0  0  0  0  0  0  0
   56.2610   20.4430   42.9700 O   0  0  0  0  0  0  0  0  0  0  0  0
   56.7190   21.5070   43.7430 C   0  0  0  0  0  0  0  0  0  0  0  0
   57.4250   21.2750   44.9280 C   0  0  0  0  0  0  0  0  0  0  0  0
   57.6246   20.2440   45.2554 H   0  0  0  0  0  0  0  0  0  0  0  0
   57.8780   22.3530   45.6980 C   0  0  0  0  0  0  0  0  0  0  0  0
   58.4413   22.1626   46.6235 H   0  0  0  0  0  0  0  0  0  0  0  0
   57.6200   23.6760   45.3000 C   0  0  0  0  0  0  0  0  0  0  0  0
   58.1220   24.7800   46.1550 C   0  0  0  0  0  0  0  0  0  0  0  0
   59.2073   24.8504   46.3202 H   0  0  0  0  0  0  0  0  0  0  0  0
   57.3380   25.6970   46.7390 C   0  0  0  0  0  0  0  0  0  0  0  0
   57.0596   25.5653   47.7950 H   0  0  0  0  0  0  0  0  0  0  0  0
   56.8370   26.8770   46.0100 C   0  0  0  0  0  0  0  0  0  0  0  0
   55.5930   27.0720   45.9600 O   0  0  0  0  0  0  0  0  0  0  0  0
   57.7290   27.8190   45.3870 N   0  0  0  0  0  0  0  0  0  0  0  0
   57.3970   28.3760   44.0690 C   0  0  0  0  0  0  0  0  0  0  0  0
   56.4363   27.9613   43.7298 H   0  0  0  0  0  0  0  0  0  0  0  0
   58.1907   28.1113   43.3549 H   0  0  0  0  0  0  0  0  0  0  0  0
   57.2880   29.9040   44.1570 C   0  0  0  0  0  0  0  0  0  0  0  0
   56.3245   30.1678   44.6175 H   0  0  0  0  0  0  0  0  0  0  0  0
   57.3606   30.3147   43.1391 H   0  0  0  0  0  0  0  0  0  0  0  0
   58.3770   30.4760   44.9650 N   0  0  0  0  0  0  0  0  0  0  0  0
   58.3270   31.8650   45.3450 C   0  0  0  0  0  0  0  0  0  0  0  0
   57.7240   32.8100   44.5000 C   0  0  0  0  0  0  0  0  0  0  0  0
   57.2726   32.4857   43.5507 H   0  0  0  0  0  0  0  0  0  0  0  0
   57.6940   34.1600   44.8580 C   0  0  0  0  0  0  0  0  0  0  0  0
   57.2196   34.8947   44.1908 H   0  0  0  0  0  0  0  0  0  0  0  0
   58.2650   34.5780   46.0610 C   0  0  0  0  0  0  0  0  0  0  0  0
   58.2366   35.6423   46.3374 H   0  0  0  0  0  0  0  0  0  0  0  0
   58.8730   33.6550   46.9180 C   0  0  0  0  0  0  0  0  0  0  0  0
   59.4270   34.1240   48.1180 O   0  0  0  0  0  0  0  0  0  0  0  0
   59.6950   33.3090   49.2550 C   0  0  0  0  0  0  0  0  0  0  0  0
   59.5054   33.8856   50.1724 H   0  0  0  0  0  0  0  0  0  0  0  0
   59.0401   32.4254   49.2354 H   0  0  0  0  0  0  0  0  0  0  0  0
   60.7465   32.9865   49.2354 H   0  0  0  0  0  0  0  0  0  0  0  0
   58.9080   32.2940   46.5510 C   0  0  0  0  0  0  0  0  0  0  0  0
   59.3937   31.5624   47.2135 H   0  0  0  0  0  0  0  0  0  0  0  0
   59.4520   29.6030   45.4560 C   0  0  0  0  0  0  0  0  0  0  0  0
   60.0833   30.1614   46.1628 H   0  0  0  0  0  0  0  0  0  0  0  0
   60.0631   29.2624   44.6072 H   0  0  0  0  0  0  0  0  0  0  0  0
   58.8430   28.3890   46.1650 C   0  0  0  0  0  0  0  0  0  0  0  0
   58.4689   28.7003   47.1515 H   0  0  0  0  0  0  0  0  0  0  0  0
   59.6228   27.6203   46.2699 H   0  0  0  0  0  0  0  0  0  0  0  0
   56.9190   23.8980   44.0950 C   0  0  0  0  0  0  0  0  0  0  0  0
   56.7246   24.9266   43.7570 H   0  0  0  0  0  0  0  0  0  0  0  0
   56.4700   22.8170   43.3280 C   0  0  0  0  0  0  0  0  0  0  0  0
   55.9185   23.0000   42.3940 H   0  0  0  0  0  0  0  0  0  0  0  0
  1  2  1  0
  2  3  1  0
  3  4  2  0
  4  5  1  0
  4  6  1  0
  6  7  1  0
  6  8  2  0
  8  9  1  0
  9 10  1  0
  9 11  2  0
 11 12  1  0
 11 13  1  0
 13 14  2  0
 13 15  1  0
 15 16  1  0
 16 17  1  0
 16 18  1  0
 16 19  1  0
 19 20  1  0
 19 21  1  0
 19 22  1  0
 22 23  1  0
 23 24  2  0
 24 25  1  0
 24 26  1  0
 26 27  1  0
 26 28  2  0
 28 29  1  0
 28 30  1  0
 30 31  1  0
 31 32  1  0
 32 33  1  0
 32 34  1  0
 32 35  1  0
 30 36  2  0
 36 37  1  0
 22 38  1  0
 38 39  1  0
 38 40  1  0
 38 41  1  0
 41 42  1  0
 41 43  1  0
  8 44  1  0
 44 45  1  0
 44 46  2  0
 46 47  1  0
 46  3  1  0
 41 15  1  0
 36 23  1  0
M  END
>  <UniqueID>  (49) 
47

>  <SMILES>  (49) 
COc1cccc(N2CCN(C(=O)/C=C/c3ccc(O)cc3)CC2)c1

>  <Energy>  (49) 
58.72283879842156

>  <Genealogy>  (49) 
COc1cccc(N2CCN(C(=O)/C=C/c3ccc(O)cc3)CC2)c1 (cis-trans isomerization)
COc1cccc(N2CCN(C(=O)/C=C/c3ccc(O)cc3)CC2)c1 (3D coordinates assigned)
COc1cccc(N2CCN(C(=O)/C=C/c3ccc(O)cc3)CC2)c1 (nonaromatic ring conformer: 58.72283879842156 kcal/mol)

>  <smiles>  (49) 
COc1cccc(N2CCN(C(=O)C=Cc3ccc(O)cc3)CC2)c1

>  <score_type>  (49) 
oracle

>  <origin>  (49) 
adg

>  <m_score__min__energy>  (49) 
-8.3699999999999992

>  <m_primary>  (49) 
energy

$$$$
49:0
     RDKit          3D

 45 47  0  0  0  0  0  0  0  0999 V2000
   60.0510   29.5120   47.6170 C   0  0  0  0  0  0  0  0  0  0  0  0
   60.5800   30.8000   47.3230 O   0  0  0  0  0  0  0  0  0  0  0  0
   61.3080   31.5940   48.2260 C   0  0  0  0  0  0  0  0  0  0  0  0
   61.6630   31.1230   49.5050 C   0  0  0  0  0  0  0  0  0  0  0  0
   62.3880   31.9320   50.3820 C   0  0  0  0  0  0  0  0  0  0  0  0
   62.7710   33.2180   49.9960 C   0  0  0  0  0  0  0  0  0  0  0  0
   63.7620   34.3200   51.2010 Br  0  0  0  0  0  0  0  0  0  0  0  0
   62.4260   33.6980   48.7320 C   0  0  0  0  0  0  0  0  0  0  0  0
   61.6940   32.8970   47.8400 C   0  0  0  0  0  0  0  0  0  0  0  0
   61.3280   33.4560   46.4840 C   0  0  0  0  0  0  0  0  0  0  0  0
   60.3680   34.5800   46.5870 N   0  0  0  0  0  0  0  0  0  0  0  0
   59.5410   34.5510   47.8130 C   0  0  0  0  0  0  0  0  0  0  0  0
   58.5240   33.3960   47.8120 C   0  0  0  0  0  0  0  0  0  0  0  0
   57.8590   33.1610   46.4320 C   0  0  0  0  0  0  0  0  0  0  0  0
   58.3610   31.9280   45.8110 N   0  0  0  0  0  0  0  0  0  0  0  0
   57.4810   30.9710   45.2000 C   0  0  0  0  0  0  0  0  0  0  0  0
   56.3160   31.3160   44.8620 O   0  0  0  0  0  0  0  0  0  0  0  0
   57.9160   29.5810   44.9890 C   0  0  0  0  0  0  0  0  0  0  0  0
   59.1500   29.1810   44.4920 C   0  0  0  0  0  0  0  0  0  0  0  0
   59.2670   27.7930   44.3480 C   0  0  0  0  0  0  0  0  0  0  0  0
   58.1280   27.0950   44.7250 C   0  0  0  0  0  0  0  0  0  0  0  0
   56.9740   28.2060   45.2350 S   0  0  0  0  0  0  0  0  0  0  0  0
   58.0700   34.3670   45.5010 C   0  0  0  0  0  0  0  0  0  0  0  0
   59.5610   34.7430   45.3470 C   0  0  0  0  0  0  0  0  0  0  0  0
   59.9961   29.3783   48.7075 H   0  0  0  0  0  0  0  0  0  0  0  0
   59.0432   29.4223   47.1854 H   0  0  0  0  0  0  0  0  0  0  0  0
   60.7048   28.7398   47.1854 H   0  0  0  0  0  0  0  0  0  0  0  0
   61.3668   30.1101   49.8153 H   0  0  0  0  0  0  0  0  0  0  0  0
   62.6581   31.5553   51.3796 H   0  0  0  0  0  0  0  0  0  0  0  0
   62.7297   34.7117   48.4317 H   0  0  0  0  0  0  0  0  0  0  0  0
   62.2426   33.8145   45.9891 H   0  0  0  0  0  0  0  0  0  0  0  0
   60.8498   32.6532   45.9036 H   0  0  0  0  0  0  0  0  0  0  0  0
   60.2042   34.4360   48.6830 H   0  0  0  0  0  0  0  0  0  0  0  0
   58.9756   35.4935   47.8565 H   0  0  0  0  0  0  0  0  0  0  0  0
   59.0440   32.4736   48.1098 H   0  0  0  0  0  0  0  0  0  0  0  0
   57.7234   33.6684   48.5155 H   0  0  0  0  0  0  0  0  0  0  0  0
   56.7774   33.0462   46.5959 H   0  0  0  0  0  0  0  0  0  0  0  0
   59.3860   31.7280   45.8150 H   0  0  0  0  0  0  0  0  0  0  0  0
   59.9557   29.8851   44.2368 H   0  0  0  0  0  0  0  0  0  0  0  0
   60.1764   27.3019   43.9714 H   0  0  0  0  0  0  0  0  0  0  0  0
   58.0021   26.0026   44.6952 H   0  0  0  0  0  0  0  0  0  0  0  0
   57.6639   34.1217   44.5086 H   0  0  0  0  0  0  0  0  0  0  0  0
   57.5528   35.2286   45.9483 H   0  0  0  0  0  0  0  0  0  0  0  0
   59.9980   34.1037   44.5657 H   0  0  0  0  0  0  0  0  0  0  0  0
   59.5901   35.8127   45.0922 H   0  0  0  0  0  0  0  0  0  0  0  0
  1  2  1  0
  2  3  1  0
  3  4  2  0
  4  5  1  0
  5  6  2  0
  6  7  1  0
  6  8  1  0
  8  9  2  0
  9 10  1  0
 10 11  1  0
 11 12  1  0
 12 13  1  0
 13 14  1  0
 14 15  1  0
 15 16  1  0
 16 17  2  0
 16 18  1  0
 18 19  2  0
 19 20  1  0
 20 21  2  0
 21 22  1  0
 14 23  1  0
 23 24  1  0
  9  3  1  0
 24 11  1  0
 22 18  1  0
  1 25  1  0
  1 26  1  0
  1 27  1  0
  4 28  1  0
  5 29  1  0
  8 30  1  0
 10 31  1  0
 10 32  1  0
 12 33  1  0
 12 34  1  0
 13 35  1  0
 13 36  1  0
 14 37  1  0
 15 38  1  0
 19 39  1  0
 20 40  1  0
 21 41  1  0
 23 42  1  0
 23 43  1  0
 24 44  1  0
 24 45  1  0
M  END
>  <UniqueID>  (50) 
48

>  <SMILES>  (50) 
COc1ccc(Br)cc1CN1CCC(NC(=O)c2cccs2)CC1

>  <Energy>  (50) 
78.37946305486385

>  <Genealogy>  (50) 
COc1ccc(Br)cc1CN1CCC(NC(=O)c2cccs2)CC1 (3D coordinates assigned)
COc1ccc(Br)cc1CN1CCC(NC(=O)c2cccs2)CC1 (nonaromatic ring conformer: 78.37946305486385 kcal/mol)

>  <smiles>  (50) 
COc1ccc(Br)cc1CN1CCC(NC(=O)c2cccs2)CC1

>  <score_type>  (50) 
oracle

>  <origin>  (50) 
adg

>  <m_score__min__energy>  (50) 
-7.3700000000000001

>  <m_primary>  (50) 
energy

$$$$
