0:0
     RDKit          3D

 34 35  0  0  0  0  0  0  0  0999 V2000
   58.5760   26.5210   45.3270 C   0  0  0  0  0  0  0  0  0  0  0  0
   59.2550   27.7700   45.8260 C   0  0  0  0  0  0  0  0  0  0  0  0
   59.9640   27.7180   47.0390 C   0  0  0  0  0  0  0  0  0  0  0  0
   60.5760   28.8600   47.5570 C   0  0  0  0  0  0  0  0  0  0  0  0
   60.4760   30.0760   46.8810 C   0  0  0  0  0  0  0  0  0  0  0  0
   61.2480   31.5100   47.5320 Cl  0  0  0  0  0  0  0  0  0  0  0  0
   59.7640   30.1510   45.6830 C   0  0  0  0  0  0  0  0  0  0  0  0
   59.1500   29.0080   45.1340 C   0  0  0  0  0  0  0  0  0  0  0  0
   58.4600   29.1200   43.8650 N   0  0  0  0  0  0  0  0  0  0  0  0
   57.0000   29.0170   44.0280 C   0  0  0  0  0  0  0  0  0  0  0  0
   56.3450   30.3670   44.0890 C   0  0  0  0  0  0  0  0  0  0  0  0
   55.1560   30.4650   44.4940 O   0  0  0  0  0  0  0  0  0  0  0  0
   57.0880   31.5310   43.7100 N   0  0  0  0  0  0  0  0  0  0  0  0
   57.6840   32.4830   44.6030 C   0  0  0  0  0  0  0  0  0  0  0  0
   57.4050   32.4870   45.9830 C   0  0  0  0  0  0  0  0  0  0  0  0
   57.9830   33.4530   46.8140 C   0  0  0  0  0  0  0  0  0  0  0  0
   58.8310   34.4250   46.2760 C   0  0  0  0  0  0  0  0  0  0  0  0
   59.3880   35.3610   47.0830 F   0  0  0  0  0  0  0  0  0  0  0  0
   59.0940   34.4390   44.9040 C   0  0  0  0  0  0  0  0  0  0  0  0
   58.5170   33.4760   44.0700 C   0  0  0  0  0  0  0  0  0  0  0  0
   58.2467   25.9153   46.1841 H   0  0  0  0  0  0  0  0  0  0  0  0
   57.7037   26.7969   44.7163 H   0  0  0  0  0  0  0  0  0  0  0  0
   59.2819   25.9390   44.7163 H   0  0  0  0  0  0  0  0  0  0  0  0
   60.0371   26.7663   47.5858 H   0  0  0  0  0  0  0  0  0  0  0  0
   61.1385   28.8012   48.5005 H   0  0  0  0  0  0  0  0  0  0  0  0
   59.6811   31.1154   45.1604 H   0  0  0  0  0  0  0  0  0  0  0  0
   58.7940   28.3770   43.2070 H   0  0  0  0  0  0  0  0  0  0  0  0
   58.6870   30.0320   43.4060 H   0  0  0  0  0  0  0  0  0  0  0  0
   56.5857   28.4593   43.1751 H   0  0  0  0  0  0  0  0  0  0  0  0
   56.7994   28.4984   44.9771 H   0  0  0  0  0  0  0  0  0  0  0  0
   56.7311   31.7290   46.4088 H   0  0  0  0  0  0  0  0  0  0  0  0
   57.7695   33.4474   47.8931 H   0  0  0  0  0  0  0  0  0  0  0  0
   59.7556   35.2083   44.4792 H   0  0  0  0  0  0  0  0  0  0  0  0
   58.7183   33.4981   42.9888 H   0  0  0  0  0  0  0  0  0  0  0  0
  1  2  1  0
  2  3  2  0
  3  4  1  0
  4  5  2  0
  5  6  1  0
  5  7  1  0
  7  8  2  0
  8  9  1  0
  9 10  1  0
 10 11  1  0
 11 12  2  0
 11 13  1  0
 13 14  1  0
 14 15  2  0
 15 16  1  0
 16 17  2  0
 17 18  1  0
 17 19  1  0
 19 20  2  0
  8  2  1  0
 20 14  1  0
  1 21  1  0
  1 22  1  0
  1 23  1  0
  3 24  1  0
  4 25  1  0
  7 26  1  0
  9 27  1  0
  9 28  1  0
 10 29  1  0
 10 30  1  0
 15 31  1  0
 16 32  1  0
 19 33  1  0
 20 34  1  0
M  CHG  2   9   1  13  -1
M  END
>  <UniqueID>  (1) 
1

>  <SMILES>  (1) 
Cc1ccc(Cl)cc1[NH2+]CC(=O)[N-]c1ccc(F)cc1

>  <Energy>  (1) 
38.31152553205169

>  <Genealogy>  (1) 
Cc1ccc(Cl)cc1[NH2+]CC(=O)[N-]c1ccc(F)cc1 (protonated)
Cc1ccc(Cl)cc1[NH2+]CC(=O)[N-]c1ccc(F)cc1 (3D coordinates assigned)
Cc1ccc(Cl)cc1[NH2+]CC(=O)[N-]c1ccc(F)cc1 (optimized conformer: 38.31152553205169 kcal/mol)

>  <smiles>  (1) 
Cc1ccc(Cl)cc1NCC(=O)Nc1ccc(F)cc1

>  <score_type>  (1) 
oracle

>  <origin>  (1) 
adg

>  <m_score__min__energy>  (1) 
-7.8499999999999996

>  <m_primary>  (1) 
energy

$$$$
1:0
     RDKit          3D

 44 46  0  0  0  0  0  0  0  0999 V2000
   64.3900   33.0800   48.5720 C   0  0  0  0  0  0  0  0  0  0  0  0
   63.0100   33.4900   48.1510 C   0  0  0  0  0  0  0  0  0  0  0  0
   62.7040   33.6440   46.7950 C   0  0  0  0  0  0  0  0  0  0  0  0
   61.4120   33.9860   46.3990 C   0  0  0  0  0  0  0  0  0  0  0  0
   60.3940   34.1800   47.3510 C   0  0  0  0  0  0  0  0  0  0  0  0
   59.0630   34.5330   46.9290 N   0  0  0  0  0  0  0  0  0  0  0  0
   58.3320   33.8880   45.4940 S   0  0  0  0  0  0  0  0  0  0  0  0
   59.1500   34.2800   44.2960 O   0  0  0  0  0  0  0  0  0  0  0  0
   56.9470   34.4550   45.3500 O   0  0  0  0  0  0  0  0  0  0  0  0
   58.2810   32.1300   45.5900 C   0  0  0  0  0  0  0  0  0  0  0  0
   58.8180   31.4590   46.6960 C   0  0  0  0  0  0  0  0  0  0  0  0
   58.7970   30.0620   46.7480 C   0  0  0  0  0  0  0  0  0  0  0  0
   58.2320   29.3160   45.6990 C   0  0  0  0  0  0  0  0  0  0  0  0
   58.2250   27.8750   45.7380 N   0  0  0  0  0  0  0  0  0  0  0  0
   59.4190   27.0420   45.7480 C   0  0  0  0  0  0  0  0  0  0  0  0
   58.9370   25.6090   46.0350 C   0  0  0  0  0  0  0  0  0  0  0  0
   57.4110   25.6060   45.8770 C   0  0  0  0  0  0  0  0  0  0  0  0
   57.0790   27.0390   45.7610 C   0  0  0  0  0  0  0  0  0  0  0  0
   55.9030   27.4690   45.6250 O   0  0  0  0  0  0  0  0  0  0  0  0
   57.7040   29.9980   44.5880 C   0  0  0  0  0  0  0  0  0  0  0  0
   57.7230   31.3940   44.5390 C   0  0  0  0  0  0  0  0  0  0  0  0
   60.6950   34.0090   48.7240 C   0  0  0  0  0  0  0  0  0  0  0  0
   59.6440   34.2050   49.7830 C   0  0  0  0  0  0  0  0  0  0  0  0
   62.0000   33.6540   49.1090 C   0  0  0  0  0  0  0  0  0  0  0  0
   64.4483   33.0627   49.6703 H   0  0  0  0  0  0  0  0  0  0  0  0
   64.6111   32.0774   48.1772 H   0  0  0  0  0  0  0  0  0  0  0  0
   65.1227   33.7993   48.1772 H   0  0  0  0  0  0  0  0  0  0  0  0
   63.4870   33.4945   46.0370 H   0  0  0  0  0  0  0  0  0  0  0  0
   61.1854   34.1057   45.3293 H   0  0  0  0  0  0  0  0  0  0  0  0
   58.5410   35.2930   47.4190 H   0  0  0  0  0  0  0  0  0  0  0  0
   59.2573   32.0325   47.5256 H   0  0  0  0  0  0  0  0  0  0  0  0
   59.2263   29.5422   47.6172 H   0  0  0  0  0  0  0  0  0  0  0  0
   59.9239   27.0867   44.7717 H   0  0  0  0  0  0  0  0  0  0  0  0
   60.1404   27.3827   46.5053 H   0  0  0  0  0  0  0  0  0  0  0  0
   59.3917   24.9077   45.3199 H   0  0  0  0  0  0  0  0  0  0  0  0
   59.2262   25.2944   47.0486 H   0  0  0  0  0  0  0  0  0  0  0  0
   57.1096   25.0572   44.9726 H   0  0  0  0  0  0  0  0  0  0  0  0
   56.8928   25.1102   46.7111 H   0  0  0  0  0  0  0  0  0  0  0  0
   57.2730   29.4281   43.7517 H   0  0  0  0  0  0  0  0  0  0  0  0
   57.2973   31.9171   43.6700 H   0  0  0  0  0  0  0  0  0  0  0  0
   60.1054   34.1190   50.7778 H   0  0  0  0  0  0  0  0  0  0  0  0
   59.1938   35.2026   49.6726 H   0  0  0  0  0  0  0  0  0  0  0  0
   58.8645   33.4367   49.6726 H   0  0  0  0  0  0  0  0  0  0  0  0
   62.2308   33.5033   50.1739 H   0  0  0  0  0  0  0  0  0  0  0  0
  1  2  1  0
  2  3  2  0
  3  4  1  0
  4  5  2  0
  5  6  1  0
  6  7  1  0
  7  8  2  0
  7  9  2  0
  7 10  1  0
 10 11  2  0
 11 12  1  0
 12 13  2  0
 13 14  1  0
 14 15  1  0
 15 16  1  0
 16 17  1  0
 17 18  1  0
 18 19  2  0
 13 20  1  0
 20 21  2  0
  5 22  1  0
 22 23  1  0
 22 24  2  0
 24  2  1  0
 21 10  1  0
 18 14  1  0
  1 25  1  0
  1 26  1  0
  1 27  1  0
  3 28  1  0
  4 29  1  0
  6 30  1  0
 11 31  1  0
 12 32  1  0
 15 33  1  0
 15 34  1  0
 16 35  1  0
 16 36  1  0
 17 37  1  0
 17 38  1  0
 20 39  1  0
 21 40  1  0
 23 41  1  0
 23 42  1  0
 23 43  1  0
 24 44  1  0
M  END
>  <UniqueID>  (2) 
2

>  <SMILES>  (2) 
Cc1ccc(NS(=O)(=O)c2ccc(N3CCCC3=O)cc2)c(C)c1

>  <Energy>  (2) 
58.40429765800989

>  <Genealogy>  (2) 
Cc1ccc(NS(=O)(=O)c2ccc(N3CCCC3=O)cc2)c(C)c1 (3D coordinates assigned)
Cc1ccc(NS(=O)(=O)c2ccc(N3CCCC3=O)cc2)c(C)c1 (nonaromatic ring conformer: 58.40429765800989 kcal/mol)

>  <smiles>  (2) 
Cc1ccc(NS(=O)(=O)c2ccc(N3CCCC3=O)cc2)c(C)c1

>  <score_type>  (2) 
oracle

>  <origin>  (2) 
adg

>  <m_score__min__energy>  (2) 
-8.5399999999999991

>  <m_primary>  (2) 
energy

$$$$
2:0
     RDKit          3D

 28 29  0  0  0  0  0  0  0  0999 V2000
   56.8010   28.3450   45.2480 C   0  0  0  0  0  0  0  0  0  0  0  0
   56.9040   29.6700   44.5710 C   0  0  0  0  0  0  0  0  0  0  0  0
   57.0200   29.8740   43.2090 C   0  0  0  0  0  0  0  0  0  0  0  0
   57.1720   31.2390   43.0840 C   0  0  0  0  0  0  0  0  0  0  0  0
   57.4250   31.9710   41.8030 C   0  0  0  0  0  0  0  0  0  0  0  0
   57.1670   31.7920   44.3180 N   0  0  0  0  0  0  0  0  0  0  0  0
   57.3860   33.1970   44.6600 C   0  0  0  0  0  0  0  0  0  0  0  0
   58.5580   33.3280   45.5930 C   0  0  0  0  0  0  0  0  0  0  0  0
   58.9260   34.5900   46.0810 C   0  0  0  0  0  0  0  0  0  0  0  0
   60.0010   34.6990   46.9650 C   0  0  0  0  0  0  0  0  0  0  0  0
   60.6950   33.5540   47.3550 C   0  0  0  0  0  0  0  0  0  0  0  0
   60.3020   32.3110   46.8550 C   0  0  0  0  0  0  0  0  0  0  0  0
   59.2510   32.2210   45.9930 N   0  0  0  0  0  0  0  0  0  0  0  0
   57.0170   30.8410   45.2280 N   0  0  0  0  0  0  0  0  0  0  0  0
   56.8122   28.4886   46.3385 H   0  0  0  0  0  0  0  0  0  0  0  0
   55.8620   27.8542   44.9524 H   0  0  0  0  0  0  0  0  0  0  0  0
   57.6529   27.7150   44.9524 H   0  0  0  0  0  0  0  0  0  0  0  0
   56.9965   29.1203   42.4081 H   0  0  0  0  0  0  0  0  0  0  0  0
   57.7769   32.9891   42.0258 H   0  0  0  0  0  0  0  0  0  0  0  0
   58.1909   31.4375   41.2209 H   0  0  0  0  0  0  0  0  0  0  0  0
   56.4931   32.0243   41.2209 H   0  0  0  0  0  0  0  0  0  0  0  0
   57.5875   33.7674   43.7413 H   0  0  0  0  0  0  0  0  0  0  0  0
   56.4865   33.5899   45.1565 H   0  0  0  0  0  0  0  0  0  0  0  0
   58.3717   35.4876   45.7695 H   0  0  0  0  0  0  0  0  0  0  0  0
   60.2995   35.6843   47.3524 H   0  0  0  0  0  0  0  0  0  0  0  0
   61.5442   33.6294   48.0501 H   0  0  0  0  0  0  0  0  0  0  0  0
   60.8424   31.4021   47.1579 H   0  0  0  0  0  0  0  0  0  0  0  0
   58.9790   31.2770   45.6390 H   0  0  0  0  0  0  0  0  0  0  0  0
  1  2  1  0
  2  3  1  0
  3  4  2  0
  4  5  1  0
  4  6  1  0
  6  7  1  0
  7  8  1  0
  8  9  2  0
  9 10  1  0
 10 11  2  0
 11 12  1  0
 12 13  2  0
  6 14  1  0
 14  2  2  0
 13  8  1  0
  1 15  1  0
  1 16  1  0
  1 17  1  0
  3 18  1  0
  5 19  1  0
  5 20  1  0
  5 21  1  0
  7 22  1  0
  7 23  1  0
  9 24  1  0
 10 25  1  0
 11 26  1  0
 12 27  1  0
 13 28  1  0
M  CHG  1  13   1
M  END
>  <UniqueID>  (3) 
3

>  <SMILES>  (3) 
Cc1cc(C)n(Cc2cccc[nH+]2)n1

>  <Energy>  (3) 
53.618048549249615

>  <Genealogy>  (3) 
Cc1cc(C)n(Cc2cccc[nH+]2)n1 (protonated)
Cc1cc(C)n(Cc2cccc[nH+]2)n1 (3D coordinates assigned)
Cc1cc(C)n(Cc2cccc[nH+]2)n1 (optimized conformer: 53.618048549249615 kcal/mol)

>  <smiles>  (3) 
Cc1cc(C)n(Cc2ccccn2)n1

>  <score_type>  (3) 
oracle

>  <origin>  (3) 
adg

>  <m_score__min__energy>  (3) 
-4.3200000000000003

>  <m_primary>  (3) 
energy

$$$$
3:0
     RDKit          3D

 28 29  0  0  0  0  0  0  0  0999 V2000
   57.0190   34.2040   45.2590 C   0  0  0  0  0  0  0  0  0  0  0  0
   57.9820   33.1260   45.6400 C   0  0  0  0  0  0  0  0  0  0  0  0
   59.2910   33.4460   46.0150 C   0  0  0  0  0  0  0  0  0  0  0  0
   60.1650   32.4060   46.3660 C   0  0  0  0  0  0  0  0  0  0  0  0
   61.5250   32.6580   46.7610 N   0  0  0  0  0  0  0  0  0  0  0  0
   62.4680   31.7690   47.1370 C   0  0  0  0  0  0  0  0  0  0  0  0
   63.6160   32.4020   47.4290 N   0  0  0  0  0  0  0  0  0  0  0  0
   63.3330   33.7000   47.2170 C   0  0  0  0  0  0  0  0  0  0  0  0
   62.0590   33.8680   46.8090 N   0  0  0  0  0  0  0  0  0  0  0  0
   59.7120   31.1230   46.3300 N   0  0  0  0  0  0  0  0  0  0  0  0
   58.4360   30.8230   45.9650 C   0  0  0  0  0  0  0  0  0  0  0  0
   57.9910   29.4530   45.9390 N   0  0  0  0  0  0  0  0  0  0  0  0
   58.4960   28.5050   46.9360 C   0  0  0  0  0  0  0  0  0  0  0  0
   57.0370   29.0170   44.9140 C   0  0  0  0  0  0  0  0  0  0  0  0
   57.5840   31.8270   45.6240 N   0  0  0  0  0  0  0  0  0  0  0  0
   56.6067   34.6655   46.1684 H   0  0  0  0  0  0  0  0  0  0  0  0
   57.5406   34.9682   44.6641 H   0  0  0  0  0  0  0  0  0  0  0  0
   56.2010   33.7715   44.6641 H   0  0  0  0  0  0  0  0  0  0  0  0
   59.6287   34.4927   46.0344 H   0  0  0  0  0  0  0  0  0  0  0  0
   62.3179   30.6809   47.1960 H   0  0  0  0  0  0  0  0  0  0  0  0
   64.5180   31.9840   47.7470 H   0  0  0  0  0  0  0  0  0  0  0  0
   64.0510   34.5212   47.3587 H   0  0  0  0  0  0  0  0  0  0  0  0
   58.2906   28.8905   47.9456 H   0  0  0  0  0  0  0  0  0  0  0  0
   57.9955   27.5342   46.8054 H   0  0  0  0  0  0  0  0  0  0  0  0
   59.5809   28.3787   46.8054 H   0  0  0  0  0  0  0  0  0  0  0  0
   56.1392   28.6067   45.3995 H   0  0  0  0  0  0  0  0  0  0  0  0
   56.7548   29.8755   44.2869 H   0  0  0  0  0  0  0  0  0  0  0  0
   57.5014   28.2418   44.2869 H   0  0  0  0  0  0  0  0  0  0  0  0
  1  2  1  0
  2  3  2  0
  3  4  1  0
  4  5  1  0
  5  6  1  0
  6  7  2  0
  7  8  1  0
  8  9  2  0
  4 10  2  0
 10 11  1  0
 11 12  1  0
 12 13  1  0
 12 14  1  0
 11 15  2  0
 15  2  1  0
  9  5  1  0
  1 16  1  0
  1 17  1  0
  1 18  1  0
  3 19  1  0
  6 20  1  0
  7 21  1  0
  8 22  1  0
 13 23  1  0
 13 24  1  0
 13 25  1  0
 14 26  1  0
 14 27  1  0
 14 28  1  0
M  CHG  1   7   1
M  END
>  <UniqueID>  (4) 
4

>  <SMILES>  (4) 
Cc1cc(-n2c[nH+]cn2)nc(N(C)C)n1

>  <Energy>  (4) 
60.177431068526104

>  <Genealogy>  (4) 
Cc1cc(-n2c[nH+]cn2)nc(N(C)C)n1 (protonated)
Cc1cc(-n2c[nH+]cn2)nc(N(C)C)n1 (3D coordinates assigned)
Cc1cc(-n2c[nH+]cn2)nc(N(C)C)n1 (optimized conformer: 60.177431068526104 kcal/mol)

>  <smiles>  (4) 
Cc1cc(-n2cncn2)nc(N(C)C)n1

>  <score_type>  (4) 
oracle

>  <origin>  (4) 
adg

>  <m_score__min__energy>  (4) 
-3.9199999999999999

>  <m_primary>  (4) 
energy

$$$$
4:0
     RDKit          3D

 39 41  0  0  0  0  0  0  0  0999 V2000
   59.6450   34.6520   45.2250 C   0  0  0  0  0  0  0  0  0  0  0  0
   58.8330   34.6410   46.4500 N   0  0  0  0  0  0  0  0  0  0  0  0
   57.6000   33.8190   46.3910 C   0  0  0  0  0  0  0  0  0  0  0  0
   57.3700   33.1030   45.0470 C   0  0  0  0  0  0  0  0  0  0  0  0
   57.8790   31.7350   45.1190 N   0  0  0  0  0  0  0  0  0  0  0  0
   59.1400   31.4100   45.3790 N   0  0  0  0  0  0  0  0  0  0  0  0
   59.2180   30.0690   45.2760 C   0  0  0  0  0  0  0  0  0  0  0  0
   60.3450   29.2700   45.4580 C   0  0  0  0  0  0  0  0  0  0  0  0
   60.1870   27.8830   45.2860 C   0  0  0  0  0  0  0  0  0  0  0  0
   58.9290   27.3430   44.9400 C   0  0  0  0  0  0  0  0  0  0  0  0
   57.8310   28.2000   44.7670 C   0  0  0  0  0  0  0  0  0  0  0  0
   58.0320   29.5290   44.9470 N   0  0  0  0  0  0  0  0  0  0  0  0
   57.2130   30.5900   44.8470 C   0  0  0  0  0  0  0  0  0  0  0  0
   55.9940   30.5240   44.5350 O   0  0  0  0  0  0  0  0  0  0  0  0
   59.6160   34.5260   47.7010 C   0  0  0  0  0  0  0  0  0  0  0  0
   60.7140   33.4910   47.6380 C   0  0  0  0  0  0  0  0  0  0  0  0
   60.4690   32.1660   48.0280 C   0  0  0  0  0  0  0  0  0  0  0  0
   61.5010   31.2260   47.9620 C   0  0  0  0  0  0  0  0  0  0  0  0
   62.7300   31.5930   47.5130 N   0  0  0  0  0  0  0  0  0  0  0  0
   62.9930   32.8660   47.1160 C   0  0  0  0  0  0  0  0  0  0  0  0
   61.9890   33.8370   47.1670 C   0  0  0  0  0  0  0  0  0  0  0  0
   60.7119   34.6665   45.4924 H   0  0  0  0  0  0  0  0  0  0  0  0
   59.4276   33.7508   44.6329 H   0  0  0  0  0  0  0  0  0  0  0  0
   59.4032   35.5470   44.6329 H   0  0  0  0  0  0  0  0  0  0  0  0
   57.6586   33.0556   47.1808 H   0  0  0  0  0  0  0  0  0  0  0  0
   56.7565   34.5126   46.5228 H   0  0  0  0  0  0  0  0  0  0  0  0
   56.2928   33.0802   44.8255 H   0  0  0  0  0  0  0  0  0  0  0  0
   57.9016   33.6459   44.2517 H   0  0  0  0  0  0  0  0  0  0  0  0
   59.9100   32.0810   45.6030 H   0  0  0  0  0  0  0  0  0  0  0  0
   61.3187   29.7063   45.7253 H   0  0  0  0  0  0  0  0  0  0  0  0
   61.0496   27.2141   45.4220 H   0  0  0  0  0  0  0  0  0  0  0  0
   58.8103   26.2576   44.8069 H   0  0  0  0  0  0  0  0  0  0  0  0
   56.8405   27.8068   44.4945 H   0  0  0  0  0  0  0  0  0  0  0  0
   60.0723   35.5035   47.9160 H   0  0  0  0  0  0  0  0  0  0  0  0
   58.9178   34.2059   48.4885 H   0  0  0  0  0  0  0  0  0  0  0  0
   59.4713   31.8689   48.3834 H   0  0  0  0  0  0  0  0  0  0  0  0
   61.3182   30.1872   48.2741 H   0  0  0  0  0  0  0  0  0  0  0  0
   63.9971   33.1323   46.7542 H   0  0  0  0  0  0  0  0  0  0  0  0
   62.1975   34.8663   46.8397 H   0  0  0  0  0  0  0  0  0  0  0  0
  1  2  1  0
  2  3  1  0
  3  4  1  0
  4  5  1  0
  5  6  1  0
  6  7  2  0
  7  8  1  0
  8  9  2  0
  9 10  1  0
 10 11  2  0
 11 12  1  0
 12 13  1  0
 13 14  2  0
  2 15  1  0
 15 16  1  0
 16 17  2  0
 17 18  1  0
 18 19  2  0
 19 20  1  0
 20 21  2  0
 13  5  1  0
 21 16  1  0
 12  7  1  0
  1 22  1  0
  1 23  1  0
  1 24  1  0
  3 25  1  0
  3 26  1  0
  4 27  1  0
  4 28  1  0
  6 29  1  0
  8 30  1  0
  9 31  1  0
 10 32  1  0
 11 33  1  0
 15 34  1  0
 15 35  1  0
 17 36  1  0
 18 37  1  0
 20 38  1  0
 21 39  1  0
M  CHG  1   6   1
M  END
>  <UniqueID>  (5) 
5

>  <SMILES>  (5) 
CN(CCn1[nH+]c2ccccn2c1=O)Cc1ccncc1

>  <Energy>  (5) 
91.72201509213181

>  <Genealogy>  (5) 
CN(CCn1[nH+]c2ccccn2c1=O)Cc1ccncc1 (protonated)
CN(CCn1[nH+]c2ccccn2c1=O)Cc1ccncc1 (3D coordinates assigned)
CN(CCn1[nH+]c2ccccn2c1=O)Cc1ccncc1 (optimized conformer: 91.72201509213181 kcal/mol)

>  <smiles>  (5) 
CN(CCn1nc2ccccn2c1=O)Cc1ccncc1

>  <score_type>  (5) 
oracle

>  <origin>  (5) 
adg

>  <m_score__min__energy>  (5) 
-5.1299999999999999

>  <m_primary>  (5) 
energy

$$$$
5:0
     RDKit          3D

 40 42  0  0  0  0  0  0  0  0999 V2000
   61.6197   28.9088   46.8140 H   0  0  0  0  0  0  0  0  0  0  0  0
   60.9060   29.7400   46.9130 C   0  0  0  0  0  0  0  0  0  0  0  0
   61.2800   30.8400   47.4970 N   0  0  0  0  0  0  0  0  0  0  0  0
   62.5970   31.2100   47.7220 O   0  0  0  0  0  0  0  0  0  0  0  0
   63.0680   31.7580   48.9520 C   0  0  0  0  0  0  0  0  0  0  0  0
   62.4829   31.3408   49.7848 H   0  0  0  0  0  0  0  0  0  0  0  0
   64.1304   31.5024   49.0789 H   0  0  0  0  0  0  0  0  0  0  0  0
   62.9150   33.2770   48.9370 C   0  0  0  0  0  0  0  0  0  0  0  0
   62.8382   33.6421   49.9718 H   0  0  0  0  0  0  0  0  0  0  0  0
   63.7935   33.7152   48.4409 H   0  0  0  0  0  0  0  0  0  0  0  0
   61.7160   33.6700   48.2000 N   0  0  0  0  0  0  0  0  0  0  0  0
   60.3620   33.4930   48.6240 C   0  0  0  0  0  0  0  0  0  0  0  0
   60.0200   33.2030   49.8010 O   0  0  0  0  0  0  0  0  0  0  0  0
   59.4560   33.6700   47.4950 C   0  0  0  0  0  0  0  0  0  0  0  0
   58.0660   33.5970   47.4230 C   0  0  0  0  0  0  0  0  0  0  0  0
   57.4623   33.3877   48.3184 H   0  0  0  0  0  0  0  0  0  0  0  0
   57.4590   33.7990   46.1710 C   0  0  0  0  0  0  0  0  0  0  0  0
   56.3637   33.7520   46.0813 H   0  0  0  0  0  0  0  0  0  0  0  0
   58.2460   34.0620   45.0270 C   0  0  0  0  0  0  0  0  0  0  0  0
   57.7596   34.2176   44.0527 H   0  0  0  0  0  0  0  0  0  0  0  0
   59.6480   34.1260   45.1270 C   0  0  0  0  0  0  0  0  0  0  0  0
   60.2704   34.3272   44.2426 H   0  0  0  0  0  0  0  0  0  0  0  0
   60.2240   33.9270   46.3790 C   0  0  0  0  0  0  0  0  0  0  0  0
   61.6230   33.9160   46.7930 C   0  0  0  0  0  0  0  0  0  0  0  0
   62.6150   34.0760   46.0340 O   0  0  0  0  0  0  0  0  0  0  0  0
   59.5370   29.5910   46.3810 C   0  0  0  0  0  0  0  0  0  0  0  0
   58.8720   28.3640   46.5230 C   0  0  0  0  0  0  0  0  0  0  0  0
   59.3755   27.5261   47.0274 H   0  0  0  0  0  0  0  0  0  0  0  0
   57.5750   28.1970   46.0290 C   0  0  0  0  0  0  0  0  0  0  0  0
   57.0639   27.2302   46.1475 H   0  0  0  0  0  0  0  0  0  0  0  0
   56.9200   29.2620   45.3800 C   0  0  0  0  0  0  0  0  0  0  0  0
   55.6200   29.1450   44.8660 O   0  0  0  0  0  0  0  0  0  0  0  0
   55.1930   29.7000   43.6260 C   0  0  0  0  0  0  0  0  0  0  0  0
   54.5324   30.5586   43.8167 H   0  0  0  0  0  0  0  0  0  0  0  0
   56.0702   30.0327   43.0517 H   0  0  0  0  0  0  0  0  0  0  0  0
   54.6465   28.9374   43.0517 H   0  0  0  0  0  0  0  0  0  0  0  0
   57.5840   30.4850   45.2380 C   0  0  0  0  0  0  0  0  0  0  0  0
   57.0812   31.3224   44.7322 H   0  0  0  0  0  0  0  0  0  0  0  0
   58.8810   30.6530   45.7330 C   0  0  0  0  0  0  0  0  0  0  0  0
   59.3907   31.6206   45.6150 H   0  0  0  0  0  0  0  0  0  0  0  0
  1  2  1  0
  2  3  2  0
  3  4  1  0
  4  5  1  0
  5  6  1  0
  5  7  1  0
  5  8  1  0
  8  9  1  0
  8 10  1  0
  8 11  1  0
 11 12  1  0
 12 13  2  0
 12 14  1  0
 14 15  2  0
 15 16  1  0
 15 17  1  0
 17 18  1  0
 17 19  2  0
 19 20  1  0
 19 21  1  0
 21 22  1  0
 21 23  2  0
 23 24  1  0
 24 25  2  0
  2 26  1  0
 26 27  2  0
 27 28  1  0
 27 29  1  0
 29 30  1  0
 29 31  2  0
 31 32  1  0
 32 33  1  0
 33 34  1  0
 33 35  1  0
 33 36  1  0
 31 37  1  0
 37 38  1  0
 37 39  2  0
 39 40  1  0
 24 11  1  0
 39 26  1  0
 23 14  1  0
M  END
>  <UniqueID>  (6) 
6

>  <SMILES>  (6) 
COc1ccc(/C=N/OCCN2C(=O)c3ccccc3C2=O)cc1

>  <Energy>  (6) 
70.89636888814796

>  <Genealogy>  (6) 
COc1ccc(/C=N/OCCN2C(=O)c3ccccc3C2=O)cc1 (cis-trans isomerization)
COc1ccc(/C=N/OCCN2C(=O)c3ccccc3C2=O)cc1 (3D coordinates assigned)
COc1ccc(/C=N/OCCN2C(=O)c3ccccc3C2=O)cc1 (nonaromatic ring conformer: 70.89636888814796 kcal/mol)

>  <smiles>  (6) 
COc1ccc(C=NOCCN2C(=O)c3ccccc3C2=O)cc1

>  <score_type>  (6) 
oracle

>  <origin>  (6) 
adg

>  <m_score__min__energy>  (6) 
-8.2799999999999994

>  <m_primary>  (6) 
energy

$$$$
6:0
     RDKit          3D

 43 46  0  0  0  0  0  0  0  0999 V2000
   58.4330   34.3440   44.9770 C   0  0  0  0  0  0  0  0  0  0  0  0
   59.6080   34.8080   45.5730 C   0  0  0  0  0  0  0  0  0  0  0  0
   59.8700   34.5290   46.9190 C   0  0  0  0  0  0  0  0  0  0  0  0
   58.9500   33.7870   47.6780 C   0  0  0  0  0  0  0  0  0  0  0  0
   59.2550   33.4560   49.1130 C   0  0  0  0  0  0  0  0  0  0  0  0
   59.3030   32.0090   49.2960 N   0  0  0  0  0  0  0  0  0  0  0  0
   59.7040   31.1350   48.2330 C   0  0  0  0  0  0  0  0  0  0  0  0
   58.9050   30.2880   47.6370 O   0  0  0  0  0  0  0  0  0  0  0  0
   59.6350   29.6310   46.7620 C   0  0  0  0  0  0  0  0  0  0  0  0
   59.0950   28.5780   45.8780 C   0  0  0  0  0  0  0  0  0  0  0  0
   58.6330   28.9060   44.5920 C   0  0  0  0  0  0  0  0  0  0  0  0
   58.1230   27.9130   43.7500 C   0  0  0  0  0  0  0  0  0  0  0  0
   58.0710   26.5860   44.1840 C   0  0  0  0  0  0  0  0  0  0  0  0
   58.5280   26.2500   45.4620 C   0  0  0  0  0  0  0  0  0  0  0  0
   59.0380   27.2410   46.3070 C   0  0  0  0  0  0  0  0  0  0  0  0
   60.9290   30.0270   46.7590 N   0  0  0  0  0  0  0  0  0  0  0  0
   60.9690   30.9970   47.6940 C   0  0  0  0  0  0  0  0  0  0  0  0
   62.1870   31.7690   48.0120 C   0  0  0  0  0  0  0  0  0  0  0  0
   62.8780   31.5690   49.2210 C   0  0  0  0  0  0  0  0  0  0  0  0
   64.0160   32.3250   49.5160 C   0  0  0  0  0  0  0  0  0  0  0  0
   64.4660   33.2950   48.6170 C   0  0  0  0  0  0  0  0  0  0  0  0
   63.7730   33.5160   47.4230 C   0  0  0  0  0  0  0  0  0  0  0  0
   62.6340   32.7630   47.1250 C   0  0  0  0  0  0  0  0  0  0  0  0
   57.7750   33.3170   47.0690 C   0  0  0  0  0  0  0  0  0  0  0  0
   57.5170   33.5970   45.7240 C   0  0  0  0  0  0  0  0  0  0  0  0
   58.2282   34.5664   43.9194 H   0  0  0  0  0  0  0  0  0  0  0  0
   60.3286   35.3937   44.9833 H   0  0  0  0  0  0  0  0  0  0  0  0
   60.7987   34.8916   47.3838 H   0  0  0  0  0  0  0  0  0  0  0  0
   60.2280   33.8896   49.3872 H   0  0  0  0  0  0  0  0  0  0  0  0
   58.4645   33.8733   49.7540 H   0  0  0  0  0  0  0  0  0  0  0  0
   58.9840   31.6100   50.2060 H   0  0  0  0  0  0  0  0  0  0  0  0
   58.6728   29.9494   44.2460 H   0  0  0  0  0  0  0  0  0  0  0  0
   57.7624   28.1769   42.7449 H   0  0  0  0  0  0  0  0  0  0  0  0
   57.6705   25.8056   43.5203 H   0  0  0  0  0  0  0  0  0  0  0  0
   58.4864   25.2051   45.8032 H   0  0  0  0  0  0  0  0  0  0  0  0
   59.3961   26.9727   47.3119 H   0  0  0  0  0  0  0  0  0  0  0  0
   62.5211   30.8143   49.9373 H   0  0  0  0  0  0  0  0  0  0  0  0
   64.5584   32.1559   50.4579 H   0  0  0  0  0  0  0  0  0  0  0  0
   65.3653   33.8847   48.8485 H   0  0  0  0  0  0  0  0  0  0  0  0
   64.1246   34.2833   46.7175 H   0  0  0  0  0  0  0  0  0  0  0  0
   62.0842   32.9495   46.1907 H   0  0  0  0  0  0  0  0  0  0  0  0
   57.0544   32.7258   47.6531 H   0  0  0  0  0  0  0  0  0  0  0  0
   56.5932   33.2296   45.2532 H   0  0  0  0  0  0  0  0  0  0  0  0
  1  2  2  0
  2  3  1  0
  3  4  2  0
  4  5  1  0
  5  6  1  0
  6  7  1  0
  7  8  1  0
  8  9  1  0
  9 10  1  0
 10 11  2  0
 11 12  1  0
 12 13  2  0
 13 14  1  0
 14 15  2  0
  9 16  2  0
 16 17  1  0
 17 18  1  0
 18 19  2  0
 19 20  1  0
 20 21  2  0
 21 22  1  0
 22 23  2  0
  4 24  1  0
 24 25  2  0
 25  1  1  0
 17  7  2  0
 23 18  1  0
 15 10  1  0
  1 26  1  0
  2 27  1  0
  3 28  1  0
  5 29  1  0
  5 30  1  0
  6 31  1  0
 11 32  1  0
 12 33  1  0
 13 34  1  0
 14 35  1  0
 15 36  1  0
 19 37  1  0
 20 38  1  0
 21 39  1  0
 22 40  1  0
 23 41  1  0
 24 42  1  0
 25 43  1  0
M  END
>  <UniqueID>  (7) 
7

>  <SMILES>  (7) 
c1ccc(CNc2oc(-c3ccccc3)nc2-c2ccccc2)cc1

>  <Energy>  (7) 
78.92282836067582

>  <Genealogy>  (7) 
c1ccc(CNc2oc(-c3ccccc3)nc2-c2ccccc2)cc1 (3D coordinates assigned)
c1ccc(CNc2oc(-c3ccccc3)nc2-c2ccccc2)cc1 (optimized conformer: 78.92282836067582 kcal/mol)

>  <smiles>  (7) 
c1ccc(CNc2oc(-c3ccccc3)nc2-c2ccccc2)cc1

>  <score_type>  (7) 
oracle

>  <origin>  (7) 
adg

>  <m_score__min__energy>  (7) 
-7.71

>  <m_primary>  (7) 
energy

$$$$
7:0
     RDKit          3D

 30 32  0  0  0  0  0  0  0  0999 V2000
   56.2880   29.8050   43.2620 C   0  0  0  0  0  0  0  0  0  0  0  0
   56.2820   30.5040   44.5020 O   0  0  0  0  0  0  0  0  0  0  0  0
   57.4350   30.8390   45.2290 C   0  0  0  0  0  0  0  0  0  0  0  0
   57.7650   32.1670   45.5500 C   0  0  0  0  0  0  0  0  0  0  0  0
   58.9270   32.4490   46.2760 C   0  0  0  0  0  0  0  0  0  0  0  0
   59.7800   31.4130   46.6940 C   0  0  0  0  0  0  0  0  0  0  0  0
   61.0140   31.7120   47.4630 C   0  0  0  0  0  0  0  0  0  0  0  0
   61.9500   32.7040   47.1710 C   0  0  0  0  0  0  0  0  0  0  0  0
   62.9080   32.6380   48.1100 N   0  0  0  0  0  0  0  0  0  0  0  0
   64.0290   33.3860   48.2650 C   0  0  0  0  0  0  0  0  0  0  0  0
   64.8710   33.0970   49.3500 C   0  0  0  0  0  0  0  0  0  0  0  0
   64.5320   32.0540   50.2330 C   0  0  0  0  0  0  0  0  0  0  0  0
   63.3600   31.3070   50.0320 C   0  0  0  0  0  0  0  0  0  0  0  0
   62.5620   31.6400   48.9390 C   0  0  0  0  0  0  0  0  0  0  0  0
   61.4080   31.0480   48.5800 N   0  0  0  0  0  0  0  0  0  0  0  0
   59.4430   30.0870   46.3700 C   0  0  0  0  0  0  0  0  0  0  0  0
   58.2820   29.8060   45.6440 C   0  0  0  0  0  0  0  0  0  0  0  0
   56.2973   28.7216   43.4519 H   0  0  0  0  0  0  0  0  0  0  0  0
   55.3876   30.0689   42.6879 H   0  0  0  0  0  0  0  0  0  0  0  0
   57.1838   30.0843   42.6879 H   0  0  0  0  0  0  0  0  0  0  0  0
   57.1069   32.9879   45.2290 H   0  0  0  0  0  0  0  0  0  0  0  0
   59.1756   33.4919   46.5222 H   0  0  0  0  0  0  0  0  0  0  0  0
   61.9108   33.4095   46.3280 H   0  0  0  0  0  0  0  0  0  0  0  0
   64.2710   34.1956   47.5607 H   0  0  0  0  0  0  0  0  0  0  0  0
   65.7893   33.6812   49.5094 H   0  0  0  0  0  0  0  0  0  0  0  0
   65.1886   31.8231   51.0848 H   0  0  0  0  0  0  0  0  0  0  0  0
   63.0819   30.4887   50.7125 H   0  0  0  0  0  0  0  0  0  0  0  0
   60.9450   30.2420   49.0530 H   0  0  0  0  0  0  0  0  0  0  0  0
   60.0985   29.2638   46.6905 H   0  0  0  0  0  0  0  0  0  0  0  0
   58.0323   28.7636   45.3969 H   0  0  0  0  0  0  0  0  0  0  0  0
  1  2  1  0
  2  3  1  0
  3  4  2  0
  4  5  1  0
  5  6  2  0
  6  7  1  0
  7  8  2  0
  8  9  1  0
  9 10  1  0
 10 11  2  0
 11 12  1  0
 12 13  2  0
 13 14  1  0
 14 15  2  0
  6 16  1  0
 16 17  2  0
 17  3  1  0
 15  7  1  0
 14  9  1  0
  1 18  1  0
  1 19  1  0
  1 20  1  0
  4 21  1  0
  5 22  1  0
  8 23  1  0
 10 24  1  0
 11 25  1  0
 12 26  1  0
 13 27  1  0
 15 28  1  0
 16 29  1  0
 17 30  1  0
M  CHG  1  15   1
M  END
>  <UniqueID>  (8) 
8

>  <SMILES>  (8) 
COc1ccc(-c2cn3ccccc3[nH+]2)cc1

>  <Energy>  (8) 
70.17189573868227

>  <Genealogy>  (8) 
COc1ccc(-c2cn3ccccc3[nH+]2)cc1 (protonated)
COc1ccc(-c2cn3ccccc3[nH+]2)cc1 (3D coordinates assigned)
COc1ccc(-c2cn3ccccc3[nH+]2)cc1 (optimized conformer: 70.17189573868227 kcal/mol)

>  <smiles>  (8) 
COc1ccc(-c2cn3ccccc3n2)cc1

>  <score_type>  (8) 
oracle

>  <origin>  (8) 
adg

>  <m_score__min__energy>  (8) 
-4.2400000000000002

>  <m_primary>  (8) 
energy

$$$$
8:0
     RDKit          3D

 54 56  0  0  0  0  0  0  0  0999 V2000
   56.9270   28.0820   45.4040 C   0  0  0  0  0  0  0  0  0  0  0  0
   56.3770   29.4310   45.3310 N   0  0  0  0  0  0  0  0  0  0  0  0
   56.8320   30.4270   44.3960 C   0  0  0  0  0  0  0  0  0  0  0  0
   56.6760   30.2690   43.0060 C   0  0  0  0  0  0  0  0  0  0  0  0
   57.1510   31.2460   42.1270 C   0  0  0  0  0  0  0  0  0  0  0  0
   57.7880   32.3880   42.6190 C   0  0  0  0  0  0  0  0  0  0  0  0
   57.9400   32.5670   44.0020 C   0  0  0  0  0  0  0  0  0  0  0  0
   58.6870   33.7630   44.5390 C   0  0  0  0  0  0  0  0  0  0  0  0
   57.9610   34.4140   45.7290 C   0  0  0  0  0  0  0  0  0  0  0  0
   58.5640   34.0130   47.0530 C   0  0  0  0  0  0  0  0  0  0  0  0
   59.3250   34.9330   47.7930 C   0  0  0  0  0  0  0  0  0  0  0  0
   59.9640   34.5330   48.9700 C   0  0  0  0  0  0  0  0  0  0  0  0
   59.8630   33.2110   49.4080 C   0  0  0  0  0  0  0  0  0  0  0  0
   59.1060   32.2810   48.6800 C   0  0  0  0  0  0  0  0  0  0  0  0
   59.0840   30.8330   49.0790 C   0  0  0  0  0  0  0  0  0  0  0  0
   60.4750   30.3220   49.1130 N   0  0  0  0  0  0  0  0  0  0  0  0
   60.5210   28.9470   49.6350 C   0  0  0  0  0  0  0  0  0  0  0  0
   61.1270   30.3990   47.7900 C   0  0  0  0  0  0  0  0  0  0  0  0
   62.0290   31.6040   47.7380 C   0  0  0  0  0  0  0  0  0  0  0  0
   61.7940   32.6110   46.7870 C   0  0  0  0  0  0  0  0  0  0  0  0
   62.6600   33.7040   46.6890 C   0  0  0  0  0  0  0  0  0  0  0  0
   63.7640   33.8000   47.5400 C   0  0  0  0  0  0  0  0  0  0  0  0
   64.0030   32.8050   48.4920 C   0  0  0  0  0  0  0  0  0  0  0  0
   63.1390   31.7090   48.5920 C   0  0  0  0  0  0  0  0  0  0  0  0
   58.4490   32.6900   47.5090 C   0  0  0  0  0  0  0  0  0  0  0  0
   57.4620   31.5830   44.8810 C   0  0  0  0  0  0  0  0  0  0  0  0
   57.0457   27.7910   46.4581 H   0  0  0  0  0  0  0  0  0  0  0  0
   56.2434   27.3798   44.9045 H   0  0  0  0  0  0  0  0  0  0  0  0
   57.9067   28.0579   44.9045 H   0  0  0  0  0  0  0  0  0  0  0  0
   55.6190   29.6810   46.0070 H   0  0  0  0  0  0  0  0  0  0  0  0
   56.1777   29.3720   42.6097 H   0  0  0  0  0  0  0  0  0  0  0  0
   57.0227   31.1153   41.0423 H   0  0  0  0  0  0  0  0  0  0  0  0
   58.1707   33.1474   41.9213 H   0  0  0  0  0  0  0  0  0  0  0  0
   59.6857   33.4390   44.8672 H   0  0  0  0  0  0  0  0  0  0  0  0
   58.7534   34.5096   43.7339 H   0  0  0  0  0  0  0  0  0  0  0  0
   58.0244   35.5075   45.6275 H   0  0  0  0  0  0  0  0  0  0  0  0
   56.9160   34.0707   45.7160 H   0  0  0  0  0  0  0  0  0  0  0  0
   59.4184   35.9723   47.4449 H   0  0  0  0  0  0  0  0  0  0  0  0
   60.5476   35.2611   49.5524 H   0  0  0  0  0  0  0  0  0  0  0  0
   60.3790   32.8976   50.3275 H   0  0  0  0  0  0  0  0  0  0  0  0
   58.6291   30.7316   50.0754 H   0  0  0  0  0  0  0  0  0  0  0  0
   58.4930   30.2557   48.3527 H   0  0  0  0  0  0  0  0  0  0  0  0
   60.5202   28.9721   50.7347 H   0  0  0  0  0  0  0  0  0  0  0  0
   59.6410   28.3905   49.2803 H   0  0  0  0  0  0  0  0  0  0  0  0
   61.4363   28.4506   49.2803 H   0  0  0  0  0  0  0  0  0  0  0  0
   61.7221   29.4893   47.6221 H   0  0  0  0  0  0  0  0  0  0  0  0
   60.3573   30.4862   47.0090 H   0  0  0  0  0  0  0  0  0  0  0  0
   60.9248   32.5391   46.1166 H   0  0  0  0  0  0  0  0  0  0  0  0
   62.4722   34.4889   45.9415 H   0  0  0  0  0  0  0  0  0  0  0  0
   64.4458   34.6596   47.4606 H   0  0  0  0  0  0  0  0  0  0  0  0
   64.8710   32.8836   49.1631 H   0  0  0  0  0  0  0  0  0  0  0  0
   63.3297   30.9271   49.3419 H   0  0  0  0  0  0  0  0  0  0  0  0
   57.8397   31.9689   46.9445 H   0  0  0  0  0  0  0  0  0  0  0  0
   57.5830   31.7200   45.9657 H   0  0  0  0  0  0  0  0  0  0  0  0
  1  2  1  0
  2  3  1  0
  3  4  2  0
  4  5  1  0
  5  6  2  0
  6  7  1  0
  7  8  1  0
  8  9  1  0
  9 10  1  0
 10 11  2  0
 11 12  1  0
 12 13  2  0
 13 14  1  0
 14 15  1  0
 15 16  1  0
 16 17  1  0
 16 18  1  0
 18 19  1  0
 19 20  2  0
 20 21  1  0
 21 22  2  0
 22 23  1  0
 23 24  2  0
 14 25  2  0
  7 26  2  0
 26  3  1  0
 25 10  1  0
 24 19  1  0
  1 27  1  0
  1 28  1  0
  1 29  1  0
  2 30  1  0
  4 31  1  0
  5 32  1  0
  6 33  1  0
  8 34  1  0
  8 35  1  0
  9 36  1  0
  9 37  1  0
 11 38  1  0
 12 39  1  0
 13 40  1  0
 15 41  1  0
 15 42  1  0
 17 43  1  0
 17 44  1  0
 17 45  1  0
 18 46  1  0
 18 47  1  0
 20 48  1  0
 21 49  1  0
 22 50  1  0
 23 51  1  0
 24 52  1  0
 25 53  1  0
 26 54  1  0
M  END
>  <UniqueID>  (9) 
9

>  <SMILES>  (9) 
CNc1cccc(CCc2cccc(CN(C)Cc3ccccc3)c2)c1

>  <Energy>  (9) 
47.861398749552244

>  <Genealogy>  (9) 
CNc1cccc(CCc2cccc(CN(C)Cc3ccccc3)c2)c1 (3D coordinates assigned)
CNc1cccc(CCc2cccc(CN(C)Cc3ccccc3)c2)c1 (optimized conformer: 47.861398749552244 kcal/mol)

>  <smiles>  (9) 
CNc1cccc(CCc2cccc(CN(C)Cc3ccccc3)c2)c1

>  <score_type>  (9) 
oracle

>  <origin>  (9) 
adg

>  <m_score__min__energy>  (9) 
-8.4800000000000004

>  <m_primary>  (9) 
energy

$$$$
9:0
     RDKit          3D

 32 34  0  0  0  0  0  0  0  0999 V2000
   57.6940   26.6110   44.4820 N   0  0  0  0  0  0  0  0  0  0  0  0
   58.0380   27.8320   44.7310 C   0  0  0  0  0  0  0  0  0  0  0  0
   59.2620   28.0940   45.2090 N   0  0  0  0  0  0  0  0  0  0  0  0
   59.6800   29.3520   45.4880 C   0  0  0  0  0  0  0  0  0  0  0  0
   60.8380   29.6280   45.9440 N   0  0  0  0  0  0  0  0  0  0  0  0
   58.7770   30.3650   45.2540 C   0  0  0  0  0  0  0  0  0  0  0  0
   59.1540   31.6110   45.5170 N   0  0  0  0  0  0  0  0  0  0  0  0
   58.3070   32.6330   45.3050 C   0  0  0  0  0  0  0  0  0  0  0  0
   58.7500   34.0230   45.6090 C   0  0  0  0  0  0  0  0  0  0  0  0
   58.9440   34.2540   47.4070 S   0  0  0  0  0  0  0  0  0  0  0  0
   60.6300   33.9000   47.8770 C   0  0  0  0  0  0  0  0  0  0  0  0
   61.5830   33.4620   46.9850 C   0  0  0  0  0  0  0  0  0  0  0  0
   62.8710   33.2150   47.4500 C   0  0  0  0  0  0  0  0  0  0  0  0
   63.2100   33.3980   48.7840 C   0  0  0  0  0  0  0  0  0  0  0  0
   64.8540   33.0770   49.3560 Cl  0  0  0  0  0  0  0  0  0  0  0  0
   62.2420   33.8360   49.6630 C   0  0  0  0  0  0  0  0  0  0  0  0
   60.9560   34.0860   49.2130 C   0  0  0  0  0  0  0  0  0  0  0  0
   57.0490   32.3540   44.8110 C   0  0  0  0  0  0  0  0  0  0  0  0
   56.6270   31.1040   44.5320 N   0  0  0  0  0  0  0  0  0  0  0  0
   57.5070   30.0880   44.7560 C   0  0  0  0  0  0  0  0  0  0  0  0
   57.1460   28.8010   44.4960 N   0  0  0  0  0  0  0  0  0  0  0  0
   57.0260   26.3380   43.7460 H   0  0  0  0  0  0  0  0  0  0  0  0
   59.9730   27.3330   45.3960 H   0  0  0  0  0  0  0  0  0  0  0  0
   61.1150   30.5950   46.1280 H   0  0  0  0  0  0  0  0  0  0  0  0
   59.7139   34.2119   45.1139 H   0  0  0  0  0  0  0  0  0  0  0  0
   57.9893   34.7269   45.2404 H   0  0  0  0  0  0  0  0  0  0  0  0
   61.3310   33.3102   45.9251 H   0  0  0  0  0  0  0  0  0  0  0  0
   63.6390   32.8664   46.7439 H   0  0  0  0  0  0  0  0  0  0  0  0
   62.4915   33.9872   50.7236 H   0  0  0  0  0  0  0  0  0  0  0  0
   60.1881   34.4343   49.9194 H   0  0  0  0  0  0  0  0  0  0  0  0
   56.3574   33.1914   44.6365 H   0  0  0  0  0  0  0  0  0  0  0  0
   56.1800   28.5780   44.1170 H   0  0  0  0  0  0  0  0  0  0  0  0
  1  2  2  3
  2  3  1  0
  3  4  1  0
  4  5  2  3
  4  6  1  0
  6  7  2  0
  7  8  1  0
  8  9  1  0
  9 10  1  0
 10 11  1  0
 11 12  2  0
 12 13  1  0
 13 14  2  0
 14 15  1  0
 14 16  1  0
 16 17  2  0
  8 18  2  0
 18 19  1  0
 19 20  2  0
 20 21  1  0
 21  2  1  0
 20  6  1  0
 17 11  1  0
  1 22  1  0
  3 23  1  0
  5 24  1  0
  9 25  1  0
  9 26  1  0
 12 27  1  0
 13 28  1  0
 16 29  1  0
 17 30  1  0
 18 31  1  0
 21 32  1  0
M  END
>  <smiles>  (10) 
N=c1[nH]c(=N)c2nc(CSc3ccc(Cl)cc3)cnc2[nH]1

>  <score_type>  (10) 
oracle

>  <origin>  (10) 
adg

>  <m_score__min__energy>  (10) 
-7.46

>  <m_primary>  (10) 
energy

$$$$
10:0
     RDKit          3D

 52 55  0  0  0  0  0  0  0  0999 V2000
   58.3160   27.7310   44.5590 C   0  0  0  0  0  0  0  0  0  0  0  0
   59.6080   28.2600   44.4830 C   0  0  0  0  0  0  0  0  0  0  0  0
   60.2850   28.6230   45.6510 C   0  0  0  0  0  0  0  0  0  0  0  0
   59.6700   28.4660   46.9050 C   0  0  0  0  0  0  0  0  0  0  0  0
   60.4190   28.8020   48.1670 C   0  0  0  0  0  0  0  0  0  0  0  0
   59.9000   30.1050   48.7890 C   0  0  0  0  0  0  0  0  0  0  0  0
   60.9240   31.1660   48.6970 N   0  0  0  0  0  0  0  0  0  0  0  0
   61.5880   31.2460   47.3830 C   0  0  0  0  0  0  0  0  0  0  0  0
   62.8500   32.1020   47.4790 C   0  0  0  0  0  0  0  0  0  0  0  0
   62.5060   33.4990   47.9890 C   0  0  0  0  0  0  0  0  0  0  0  0
   61.7690   33.4250   49.3310 C   0  0  0  0  0  0  0  0  0  0  0  0
   60.5540   32.4690   49.3090 C   0  0  1  0  0  0  0  0  0  0  0  0
   59.2050   33.1080   48.8280 C   0  0  0  0  0  0  0  0  0  0  0  0
   59.1480   33.6860   47.4210 C   0  0  0  0  0  0  0  0  0  0  0  0
   59.6900   34.9690   47.2240 C   0  0  0  0  0  0  0  0  0  0  0  0
   59.6490   35.5880   45.9770 C   0  0  0  0  0  0  0  0  0  0  0  0
   59.0950   34.9300   44.8860 C   0  0  0  0  0  0  0  0  0  0  0  0
   58.6120   33.6230   45.0220 C   0  0  0  0  0  0  0  0  0  0  0  0
   58.0950   32.9560   43.8990 C   0  0  0  0  0  0  0  0  0  0  0  0
   57.6460   31.6420   44.0060 C   0  0  0  0  0  0  0  0  0  0  0  0
   57.7190   30.9770   45.2270 C   0  0  0  0  0  0  0  0  0  0  0  0
   58.2280   31.6250   46.3560 C   0  0  0  0  0  0  0  0  0  0  0  0
   58.6600   32.9690   46.2860 C   0  0  0  0  0  0  0  0  0  0  0  0
   58.3760   27.9230   46.9720 C   0  0  0  0  0  0  0  0  0  0  0  0
   57.7010   27.5620   45.8020 C   0  0  0  0  0  0  0  0  0  0  0  0
   57.7833   27.4476   43.6393 H   0  0  0  0  0  0  0  0  0  0  0  0
   60.0919   28.3906   43.5038 H   0  0  0  0  0  0  0  0  0  0  0  0
   61.3037   29.0334   45.5883 H   0  0  0  0  0  0  0  0  0  0  0  0
   60.2901   27.9829   48.8898 H   0  0  0  0  0  0  0  0  0  0  0  0
   61.4820   28.9342   47.9169 H   0  0  0  0  0  0  0  0  0  0  0  0
   58.9956   30.4273   48.2522 H   0  0  0  0  0  0  0  0  0  0  0  0
   59.6680   29.9254   49.8492 H   0  0  0  0  0  0  0  0  0  0  0  0
   61.8607   30.2331   47.0517 H   0  0  0  0  0  0  0  0  0  0  0  0
   60.8977   31.7053   46.6601 H   0  0  0  0  0  0  0  0  0  0  0  0
   63.5587   31.6268   48.1732 H   0  0  0  0  0  0  0  0  0  0  0  0
   63.3009   32.1874   46.4793 H   0  0  0  0  0  0  0  0  0  0  0  0
   63.4348   34.0737   48.1194 H   0  0  0  0  0  0  0  0  0  0  0  0
   61.8505   33.9898   47.2545 H   0  0  0  0  0  0  0  0  0  0  0  0
   62.4751   33.0748   50.0984 H   0  0  0  0  0  0  0  0  0  0  0  0
   61.3867   34.4331   49.5490 H   0  0  0  0  0  0  0  0  0  0  0  0
   60.2948   32.2476   50.3548 H   0  0  0  0  0  0  0  0  0  0  0  0
   58.4325   32.3275   48.8922 H   0  0  0  0  0  0  0  0  0  0  0  0
   59.0630   33.9771   49.4872 H   0  0  0  0  0  0  0  0  0  0  0  0
   60.1553   35.4937   48.0714 H   0  0  0  0  0  0  0  0  0  0  0  0
   60.0570   36.6023   45.8554 H   0  0  0  0  0  0  0  0  0  0  0  0
   59.0357   35.4377   43.9120 H   0  0  0  0  0  0  0  0  0  0  0  0
   58.0445   33.4742   42.9300 H   0  0  0  0  0  0  0  0  0  0  0  0
   57.2332   31.1290   43.1248 H   0  0  0  0  0  0  0  0  0  0  0  0
   57.3740   29.9353   45.3036 H   0  0  0  0  0  0  0  0  0  0  0  0
   58.2932   31.0824   47.3106 H   0  0  0  0  0  0  0  0  0  0  0  0
   57.8917   27.7812   47.9494 H   0  0  0  0  0  0  0  0  0  0  0  0
   56.6849   27.1446   45.8602 H   0  0  0  0  0  0  0  0  0  0  0  0
  1  2  2  0
  2  3  1  0
  3  4  2  0
  4  5  1  0
  5  6  1  0
  6  7  1  0
  7  8  1  0
  8  9  1  0
  9 10  1  0
 10 11  1  0
 11 12  1  0
 12 13  1  0
 13 14  1  0
 14 15  2  0
 15 16  1  0
 16 17  2  0
 17 18  1  0
 18 19  2  0
 19 20  1  0
 20 21  2  0
 21 22  1  0
 22 23  2  0
  4 24  1  0
 24 25  2  0
 25  1  1  0
 12  7  1  0
 23 14  1  0
 23 18  1  0
  1 26  1  0
  2 27  1  0
  3 28  1  0
  5 29  1  0
  5 30  1  0
  6 31  1  0
  6 32  1  0
  8 33  1  0
  8 34  1  0
  9 35  1  0
  9 36  1  0
 10 37  1  0
 10 38  1  0
 11 39  1  0
 11 40  1  0
 12 41  1  1
 13 42  1  0
 13 43  1  0
 15 44  1  0
 16 45  1  0
 17 46  1  0
 19 47  1  0
 20 48  1  0
 21 49  1  0
 22 50  1  0
 24 51  1  0
 25 52  1  0
M  END
>  <UniqueID>  (11) 
10

>  <SMILES>  (11) 
c1ccc(CCN2CCCC[C@H]2Cc2cccc3ccccc23)cc1

>  <Energy>  (11) 
67.42551435236292

>  <Genealogy>  (11) 
c1ccc(CCN2CCCC[C@H]2Cc2cccc3ccccc23)cc1 (chirality)
c1ccc(CCN2CCCC[C@H]2Cc2cccc3ccccc23)cc1 (3D coordinates assigned)
c1ccc(CCN2CCCC[C@H]2Cc2cccc3ccccc23)cc1 (nonaromatic ring conformer: 67.42551435236292 kcal/mol)

>  <smiles>  (11) 
c1ccc(CCN2CCCCC2Cc2cccc3ccccc23)cc1

>  <score_type>  (11) 
oracle

>  <origin>  (11) 
adg

>  <m_score__min__energy>  (11) 
-8.4000000000000004

>  <m_primary>  (11) 
energy

$$$$
11:0
     RDKit          3D

 68 73  0  0  0  0  0  0  0  0999 V2000
   60.7690   31.0110   47.4900 C   0  0  0  0  0  0  0  0  0  0  0  0
   61.0770   32.4440   47.9520 C   0  0  1  0  0  0  0  0  0  0  0  0
   61.6080   33.2950   46.7740 C   0  0  0  0  0  0  0  0  0  0  0  0
   60.5750   34.0080   46.1320 O   0  0  0  0  0  0  0  0  0  0  0  0
   60.0670   34.9670   47.0320 C   0  0  0  0  0  0  0  0  0  0  0  0
   59.2510   34.2830   48.1240 C   0  0  0  0  0  0  0  0  0  0  0  0
   59.8850   33.0370   48.6050 N   0  0  0  0  0  0  0  0  0  0  0  0
   59.4580   32.4850   49.8740 C   0  0  0  0  0  0  0  0  0  0  0  0
   58.1370   32.1890   50.0450 N   0  0  0  0  0  0  0  0  0  0  0  0
   57.6470   31.6380   51.1880 C   0  0  0  0  0  0  0  0  0  0  0  0
   56.3180   31.3530   51.3050 N   0  0  0  0  0  0  0  0  0  0  0  0
   55.8020   30.7890   52.4390 C   0  0  0  0  0  0  0  0  0  0  0  0
   54.4000   30.4690   52.5150 N   0  0  0  0  0  0  0  0  0  0  0  0
   53.7970   30.1250   53.8150 C   0  0  0  0  0  0  0  0  0  0  0  0
   52.2870   29.8960   53.6960 C   0  0  0  0  0  0  0  0  0  0  0  0
   51.6610   30.9880   52.8330 C   0  0  0  0  0  0  0  0  0  0  0  0
   52.2260   30.9770   51.3870 C   0  0  1  0  0  0  0  0  0  0  0  0
   52.2490   32.3290   50.8260 N   0  0  0  0  0  0  0  0  0  0  0  0
   53.6240   30.3250   51.2750 C   0  0  0  0  0  0  0  0  0  0  0  0
   56.6550   30.5010   53.5180 C   0  0  0  0  0  0  0  0  0  0  0  0
   58.0150   30.7880   53.4210 C   0  0  0  0  0  0  0  0  0  0  0  0
   58.5210   31.3560   52.2520 C   0  0  0  0  0  0  0  0  0  0  0  0
   59.8750   31.6580   52.1200 C   0  0  0  0  0  0  0  0  0  0  0  0
   60.3670   32.2280   50.9380 C   0  0  0  0  0  0  0  0  0  0  0  0
   61.8120   32.5450   50.8750 C   0  0  0  0  0  0  0  0  0  0  0  0
   62.2290   33.8790   50.7710 C   0  0  0  0  0  0  0  0  0  0  0  0
   63.5880   34.1900   50.7000 C   0  0  0  0  0  0  0  0  0  0  0  0
   64.5600   33.1770   50.7530 C   0  0  0  0  0  0  0  0  0  0  0  0
   66.0050   33.5050   50.6920 C   0  0  0  0  0  0  0  0  0  0  0  0
   66.8810   32.8640   49.8910 N   0  0  0  0  0  0  0  0  0  0  0  0
   68.0510   33.4480   50.1110 N   0  0  0  0  0  0  0  0  0  0  0  0
   67.9160   34.4100   51.0110 N   0  0  0  0  0  0  0  0  0  0  0  0
   66.6520   34.4570   51.3990 N   0  0  0  0  0  0  0  0  0  0  0  0
   66.1330   35.3880   52.3920 C   0  0  0  0  0  0  0  0  0  0  0  0
   64.1380   31.8370   50.8220 C   0  0  0  0  0  0  0  0  0  0  0  0
   65.0470   30.8340   50.8810 F   0  0  0  0  0  0  0  0  0  0  0  0
   62.7750   31.5240   50.8660 C   0  0  0  0  0  0  0  0  0  0  0  0
   60.6300   30.3643   48.3689 H   0  0  0  0  0  0  0  0  0  0  0  0
   59.8502   31.0102   46.8852 H   0  0  0  0  0  0  0  0  0  0  0  0
   61.6064   30.6328   46.8852 H   0  0  0  0  0  0  0  0  0  0  0  0
   61.8782   32.4228   48.7054 H   0  0  0  0  0  0  0  0  0  0  0  0
   62.3487   34.0115   47.1586 H   0  0  0  0  0  0  0  0  0  0  0  0
   62.0598   32.6136   46.0381 H   0  0  0  0  0  0  0  0  0  0  0  0
   60.9038   35.5132   47.4918 H   0  0  0  0  0  0  0  0  0  0  0  0
   59.4187   35.6663   46.4837 H   0  0  0  0  0  0  0  0  0  0  0  0
   59.1452   34.9756   48.9720 H   0  0  0  0  0  0  0  0  0  0  0  0
   58.2732   34.0178   47.6954 H   0  0  0  0  0  0  0  0  0  0  0  0
   55.6800   31.5830   50.5120 H   0  0  0  0  0  0  0  0  0  0  0  0
   54.2681   29.2063   54.1946 H   0  0  0  0  0  0  0  0  0  0  0  0
   53.9631   30.9666   54.5036 H   0  0  0  0  0  0  0  0  0  0  0  0
   52.1024   28.9152   53.2334 H   0  0  0  0  0  0  0  0  0  0  0  0
   51.8367   29.9254   54.6992 H   0  0  0  0  0  0  0  0  0  0  0  0
   50.5734   30.8287   52.7912 H   0  0  0  0  0  0  0  0  0  0  0  0
   51.9018   31.9610   53.2861 H   0  0  0  0  0  0  0  0  0  0  0  0
   51.5401   30.3487   50.7998 H   0  0  0  0  0  0  0  0  0  0  0  0
   53.1960   32.7350   50.9910 H   0  0  0  0  0  0  0  0  0  0  0  0
   52.1070   32.2790   49.7930 H   0  0  0  0  0  0  0  0  0  0  0  0
   53.4999   29.2542   51.0561 H   0  0  0  0  0  0  0  0  0  0  0  0
   54.1730   30.8349   50.4696 H   0  0  0  0  0  0  0  0  0  0  0  0
   56.2503   30.0504   54.4363 H   0  0  0  0  0  0  0  0  0  0  0  0
   58.6872   30.5674   54.2633 H   0  0  0  0  0  0  0  0  0  0  0  0
   60.5639   31.4471   52.9512 H   0  0  0  0  0  0  0  0  0  0  0  0
   61.4813   34.6854   50.7452 H   0  0  0  0  0  0  0  0  0  0  0  0
   63.9013   35.2398   50.6015 H   0  0  0  0  0  0  0  0  0  0  0  0
   66.3466   35.0049   53.4008 H   0  0  0  0  0  0  0  0  0  0  0  0
   66.6147   36.3684   52.2625 H   0  0  0  0  0  0  0  0  0  0  0  0
   65.0458   35.4937   52.2625 H   0  0  0  0  0  0  0  0  0  0  0  0
   62.4563   30.4715   50.8937 H   0  0  0  0  0  0  0  0  0  0  0  0
  1  2  1  0
  2  3  1  0
  3  4  1  0
  4  5  1  0
  5  6  1  0
  6  7  1  0
  7  8  1  0
  8  9  2  0
  9 10  1  0
 10 11  2  0
 11 12  1  0
 12 13  1  0
 13 14  1  0
 14 15  1  0
 15 16  1  0
 16 17  1  0
 17 18  1  0
 17 19  1  0
 12 20  2  0
 20 21  1  0
 21 22  2  0
 22 23  1  0
 23 24  2  0
 24 25  1  0
 25 26  2  0
 26 27  1  0
 27 28  2  0
 28 29  1  0
 29 30  2  0
 30 31  1  0
 31 32  2  0
 32 33  1  0
 33 34  1  0
 28 35  1  0
 35 36  1  0
 35 37  2  0
  7  2  1  0
 24  8  1  0
 37 25  1  0
 22 10  1  0
 33 29  1  0
 19 13  1  0
  1 38  1  0
  1 39  1  0
  1 40  1  0
  2 41  1  1
  3 42  1  0
  3 43  1  0
  5 44  1  0
  5 45  1  0
  6 46  1  0
  6 47  1  0
 11 48  1  0
 14 49  1  0
 14 50  1  0
 15 51  1  0
 15 52  1  0
 16 53  1  0
 16 54  1  0
 17 55  1  6
 18 56  1  0
 18 57  1  0
 19 58  1  0
 19 59  1  0
 20 60  1  0
 21 61  1  0
 23 62  1  0
 26 63  1  0
 27 64  1  0
 34 65  1  0
 34 66  1  0
 34 67  1  0
 37 68  1  0
M  CHG  1  11   1
M  END
>  <UniqueID>  (12) 
11

>  <SMILES>  (12) 
C[C@H]1COCCN1c1nc2[nH+]c(N3CCC[C@@H](N)C3)ccc2cc1-c1ccc(-c2nnnn2C)c(F)c1

>  <Energy>  (12) 
141.76023255229072

>  <Genealogy>  (12) 
CC1COCCN1c1nc2[nH+]c(N3CCCC(N)C3)ccc2cc1-c1ccc(-c2nnnn2C)c(F)c1 (protonated)
C[C@H]1COCCN1c1nc2[nH+]c(N3CCC[C@@H](N)C3)ccc2cc1-c1ccc(-c2nnnn2C)c(F)c1 (chirality)
C[C@H]1COCCN1c1nc2[nH+]c(N3CCC[C@@H](N)C3)ccc2cc1-c1ccc(-c2nnnn2C)c(F)c1 (3D coordinates assigned)
C[C@H]1COCCN1c1nc2[nH+]c(N3CCC[C@@H](N)C3)ccc2cc1-c1ccc(-c2nnnn2C)c(F)c1 (nonaromatic ring conformer: 141.76023255229072 kcal/mol)

>  <smiles>  (12) 
CC1COCCN1c1nc2nc(N3CCCC(N)C3)ccc2cc1-c1ccc(-c2nnnn2C)c(F)c1

>  <score_type>  (12) 
oracle

>  <origin>  (12) 
adg

>  <m_score__min__energy>  (12) 
-8.2699999999999996

>  <m_primary>  (12) 
energy

$$$$
12:0
     RDKit          3D

 51 54  0  0  0  0  0  0  0  0999 V2000
   56.2650   33.8140   46.8120 H   0  0  0  0  0  0  0  0  0  0  0  0
   56.9340   33.3190   46.1820 N   0  0  0  0  0  0  0  0  0  0  0  0
   57.4720   28.2660   46.0200 C   0  0  0  0  0  0  0  0  0  0  0  0
   57.7690   31.1690   46.4520 O   0  0  0  0  0  0  0  0  0  0  0  0
   58.5670   30.2390   47.1240 C   0  0  0  0  0  0  0  0  0  0  0  0
   59.4440   30.6470   48.0700 C   0  0  0  0  0  0  0  0  0  0  0  0
   60.2710   29.6240   48.8110 C   0  0  0  0  0  0  0  0  0  0  0  0
   61.1351   30.1209   49.2763 H   0  0  0  0  0  0  0  0  0  0  0  0
   59.6522   29.1510   49.5878 H   0  0  0  0  0  0  0  0  0  0  0  0
   60.7640   28.5550   47.8400 C   0  0  0  0  0  0  0  0  0  0  0  0
   61.3703   29.0295   47.0544 H   0  0  0  0  0  0  0  0  0  0  0  0
   61.3709   27.8217   48.3913 H   0  0  0  0  0  0  0  0  0  0  0  0
   59.5740   27.8360   47.1960 C   0  0  0  0  0  0  0  0  0  0  0  0
   59.9330   27.2816   46.3163 H   0  0  0  0  0  0  0  0  0  0  0  0
   59.1434   27.1656   47.9543 H   0  0  0  0  0  0  0  0  0  0  0  0
   57.8510   32.5430   46.6630 C   0  0  0  0  0  0  0  0  0  0  0  0
   58.4770   28.7890   46.7540 C   0  0  0  0  0  0  0  0  0  0  0  0
   57.1333   27.2535   46.2848 H   0  0  0  0  0  0  0  0  0  0  0  0
   56.7890   28.9280   44.8980 C   0  0  0  0  0  0  0  0  0  0  0  0
   55.4860   29.0720   44.8260 O   0  0  0  0  0  0  0  0  0  0  0  0
   55.1970   29.7390   43.7330 C   0  0  0  0  0  0  0  0  0  0  0  0
   54.1816   30.0015   43.4014 H   0  0  0  0  0  0  0  0  0  0  0  0
   56.3590   30.0610   43.0630 C   0  0  0  0  0  0  0  0  0  0  0  0
   56.4450   30.6164   42.1174 H   0  0  0  0  0  0  0  0  0  0  0  0
   57.3900   29.5460   43.8180 C   0  0  0  0  0  0  0  0  0  0  0  0
   58.4672   29.6128   43.6054 H   0  0  0  0  0  0  0  0  0  0  0  0
   59.6710   32.1180   48.3870 C   0  0  2  0  0  0  0  0  0  0  0  0
   60.7523   32.2611   48.2443 H   0  0  0  0  0  0  0  0  0  0  0  0
   59.3290   32.4470   49.8420 C   0  0  0  0  0  0  0  0  0  0  0  0
   58.1170   31.9580   50.3680 C   0  0  0  0  0  0  0  0  0  0  0  0
   57.4523   31.3622   49.7252 H   0  0  0  0  0  0  0  0  0  0  0  0
   57.7390   32.2160   51.6990 C   0  0  0  0  0  0  0  0  0  0  0  0
   56.5320   31.7440   52.2380 O   0  0  0  0  0  0  0  0  0  0  0  0
   56.3730   30.4840   52.8850 C   0  0  0  0  0  0  0  0  0  0  0  0
   56.3910   30.6269   53.9755 H   0  0  0  0  0  0  0  0  0  0  0  0
   55.4115   30.0388   52.5894 H   0  0  0  0  0  0  0  0  0  0  0  0
   57.1937   29.8139   52.5894 H   0  0  0  0  0  0  0  0  0  0  0  0
   58.5850   32.9650   52.5250 C   0  0  0  0  0  0  0  0  0  0  0  0
   58.1810   33.2080   53.8480 O   0  0  0  0  0  0  0  0  0  0  0  0
   58.9750   32.9350   54.9980 C   0  0  0  0  0  0  0  0  0  0  0  0
   58.3874   33.1370   55.9057 H   0  0  0  0  0  0  0  0  0  0  0  0
   59.2835   31.8792   54.9884 H   0  0  0  0  0  0  0  0  0  0  0  0
   59.8675   33.5779   54.9884 H   0  0  0  0  0  0  0  0  0  0  0  0
   59.8020   33.4480   52.0150 C   0  0  0  0  0  0  0  0  0  0  0  0
   60.4677   34.0344   52.6654 H   0  0  0  0  0  0  0  0  0  0  0  0
   60.1790   33.1940   50.6930 C   0  0  0  0  0  0  0  0  0  0  0  0
   61.7290   33.8400   50.1760 Cl  0  0  0  0  0  0  0  0  0  0  0  0
   59.0200   33.1280   47.3910 C   0  0  1  0  0  0  0  0  0  0  0  0
   58.6739   33.9738   48.0033 H   0  0  0  0  0  0  0  0  0  0  0  0
   59.9990   33.5770   46.3850 C   0  0  0  0  0  0  0  0  0  0  0  0
   60.7680   33.9300   45.5950 N   0  0  0  0  0  0  0  0  0  0  0  0
  1  2  1  0
  2  3  2  0
  3  4  1  0
  4  5  1  0
  5  6  2  0
  6  7  1  0
  7  8  1  0
  7  9  1  0
  7 10  1  0
 10 11  1  0
 10 12  1  0
 10 13  1  0
 13 14  1  0
 13 15  1  0
 13 16  1  0
 16 17  2  0
 17 18  1  0
 17 19  1  0
 19 20  1  0
 20 21  1  0
 21 22  1  0
 21 23  2  0
 23 24  1  0
 23 25  1  0
 25 26  1  0
  6 27  1  0
 27 28  1  1
 27 29  1  0
 29 30  2  0
 30 31  1  0
 30 32  1  0
 32 33  1  0
 33 34  1  0
 34 35  1  0
 34 36  1  0
 34 37  1  0
 32 38  2  0
 38 39  1  0
 39 40  1  0
 40 41  1  0
 40 42  1  0
 40 43  1  0
 38 44  1  0
 44 45  1  0
 44 46  2  0
 46 47  1  0
 27 48  1  0
 48 49  1  1
 48 50  1  0
 50 51  3  0
 48  3  1  0
 16  5  1  0
 25 19  2  0
 46 29  1  0
M  END
>  <UniqueID>  (13) 
12

>  <SMILES>  (13) 
[H]/N=C1\OC2=C(CCC/C2=C/c2ccco2)[C@H](c2cc(OC)c(OC)cc2Cl)[C@H]1C#N

>  <Energy>  (13) 
93.1934359191868

>  <Genealogy>  (13) 
COc1cc(Cl)c([C@H]2C3=C(OC(=N)[C@@H]2C#N)C(=Cc2ccco2)CCC3)cc1OC (chirality)
[H]/N=C1\OC2=C(CCC/C2=C/c2ccco2)[C@H](c2cc(OC)c(OC)cc2Cl)[C@H]1C#N (cis-trans isomerization)
[H]/N=C1\OC2=C(CCC/C2=C/c2ccco2)[C@H](c2cc(OC)c(OC)cc2Cl)[C@H]1C#N (3D coordinates assigned)
[H]/N=C1\OC2=C(CCC/C2=C/c2ccco2)[C@H](c2cc(OC)c(OC)cc2Cl)[C@H]1C#N (nonaromatic ring conformer: 93.1934359191868 kcal/mol)

>  <smiles>  (13) 
COc1cc(Cl)c(C2C3=C(OC(=N)C2C#N)C(=Cc2ccco2)CCC3)cc1OC

>  <score_type>  (13) 
oracle

>  <origin>  (13) 
adg

>  <m_score__min__energy>  (13) 
-8.0399999999999991

>  <m_primary>  (13) 
energy

$$$$
13:0
     RDKit          3D

 42 45  0  0  0  0  0  0  0  0999 V2000
   55.5320   29.0400   44.8700 N   0  0  0  0  0  0  0  0  0  0  0  0
   55.3580   30.0850   43.8650 C   0  0  0  0  0  0  0  0  0  0  0  0
   56.6930   30.4260   43.2020 C   0  0  0  0  0  0  0  0  0  0  0  0
   57.6220   30.9950   44.1780 N   0  0  0  0  0  0  0  0  0  0  0  0
   57.9790   32.2730   44.2260 N   0  0  0  0  0  0  0  0  0  0  0  0
   58.7950   32.4670   45.2930 C   0  0  0  0  0  0  0  0  0  0  0  0
   59.3670   33.7950   45.6960 C   0  0  0  0  0  0  0  0  0  0  0  0
   59.8870   33.7450   47.1150 C   0  0  0  0  0  0  0  0  0  0  0  0
   58.9590   33.8350   48.1680 C   0  0  0  0  0  0  0  0  0  0  0  0
   59.3790   33.8160   49.4970 C   0  0  0  0  0  0  0  0  0  0  0  0
   60.7320   33.7150   49.8050 C   0  0  0  0  0  0  0  0  0  0  0  0
   61.6870   33.6360   48.7820 C   0  0  0  0  0  0  0  0  0  0  0  0
   63.0510   33.5460   49.1030 C   0  0  0  0  0  0  0  0  0  0  0  0
   64.0080   33.4750   48.0920 C   0  0  0  0  0  0  0  0  0  0  0  0
   63.6160   33.4950   46.7530 C   0  0  0  0  0  0  0  0  0  0  0  0
   62.2640   33.5820   46.4160 C   0  0  0  0  0  0  0  0  0  0  0  0
   61.2750   33.6530   47.4210 C   0  0  0  0  0  0  0  0  0  0  0  0
   58.9320   31.2570   45.9520 C   0  0  0  0  0  0  0  0  0  0  0  0
   59.6010   30.8590   47.1050 C   0  0  0  0  0  0  0  0  0  0  0  0
   59.4830   29.5080   47.4810 C   0  0  0  0  0  0  0  0  0  0  0  0
   58.7030   28.6240   46.7000 C   0  0  0  0  0  0  0  0  0  0  0  0
   58.0580   29.0680   45.5770 N   0  0  0  0  0  0  0  0  0  0  0  0
   58.1890   30.3720   45.2240 C   0  0  0  0  0  0  0  0  0  0  0  0
   56.2610   28.3790   44.5190 H   0  0  0  0  0  0  0  0  0  0  0  0
   55.9210   29.4800   45.7350 H   0  0  0  0  0  0  0  0  0  0  0  0
   54.6530   29.7336   43.0972 H   0  0  0  0  0  0  0  0  0  0  0  0
   54.9675   30.9876   44.3578 H   0  0  0  0  0  0  0  0  0  0  0  0
   57.1304   29.5101   42.7779 H   0  0  0  0  0  0  0  0  0  0  0  0
   56.5157   31.1661   42.4078 H   0  0  0  0  0  0  0  0  0  0  0  0
   57.6600   33.0050   43.5510 H   0  0  0  0  0  0  0  0  0  0  0  0
   60.1935   34.0530   45.0175 H   0  0  0  0  0  0  0  0  0  0  0  0
   58.5733   34.5543   45.6369 H   0  0  0  0  0  0  0  0  0  0  0  0
   57.8865   33.9216   47.9395 H   0  0  0  0  0  0  0  0  0  0  0  0
   58.6369   33.8812   50.3064 H   0  0  0  0  0  0  0  0  0  0  0  0
   61.0539   33.6970   50.8567 H   0  0  0  0  0  0  0  0  0  0  0  0
   63.3657   33.5315   50.1569 H   0  0  0  0  0  0  0  0  0  0  0  0
   65.0748   33.4030   48.3504 H   0  0  0  0  0  0  0  0  0  0  0  0
   64.3757   33.4420   45.9593 H   0  0  0  0  0  0  0  0  0  0  0  0
   61.9664   33.5954   45.3571 H   0  0  0  0  0  0  0  0  0  0  0  0
   60.1964   31.5695   47.6971 H   0  0  0  0  0  0  0  0  0  0  0  0
   59.9969   29.1401   48.3813 H   0  0  0  0  0  0  0  0  0  0  0  0
   58.6136   27.5689   46.9978 H   0  0  0  0  0  0  0  0  0  0  0  0
  1  2  1  0
  2  3  1  0
  3  4  1  0
  4  5  1  0
  5  6  2  0
  6  7  1  0
  7  8  1  0
  8  9  2  0
  9 10  1  0
 10 11  2  0
 11 12  1  0
 12 13  2  0
 13 14  1  0
 14 15  2  0
 15 16  1  0
 16 17  2  0
  6 18  1  0
 18 19  2  0
 19 20  1  0
 20 21  2  0
 21 22  1  0
 22 23  2  0
 23  4  1  0
 17  8  1  0
 23 18  1  0
 17 12  1  0
  1 24  1  0
  1 25  1  0
  2 26  1  0
  2 27  1  0
  3 28  1  0
  3 29  1  0
  5 30  1  0
  7 31  1  0
  7 32  1  0
  9 33  1  0
 10 34  1  0
 11 35  1  0
 13 36  1  0
 14 37  1  0
 15 38  1  0
 16 39  1  0
 19 40  1  0
 20 41  1  0
 21 42  1  0
M  CHG  1   5   1
M  END
>  <UniqueID>  (14) 
13

>  <SMILES>  (14) 
NCCn1[nH+]c(Cc2cccc3ccccc23)c2cccnc21

>  <Energy>  (14) 
87.26758694730158

>  <Genealogy>  (14) 
NCCn1[nH+]c(Cc2cccc3ccccc23)c2cccnc21 (protonated)
NCCn1[nH+]c(Cc2cccc3ccccc23)c2cccnc21 (3D coordinates assigned)
NCCn1[nH+]c(Cc2cccc3ccccc23)c2cccnc21 (optimized conformer: 87.26758694730158 kcal/mol)

>  <smiles>  (14) 
NCCn1nc(Cc2cccc3ccccc23)c2cccnc21

>  <score_type>  (14) 
oracle

>  <origin>  (14) 
adg

>  <m_score__min__energy>  (14) 
-7.0999999999999996

>  <m_primary>  (14) 
energy

$$$$
14:0
     RDKit          3D

 47 49  0  0  0  0  0  0  0  0999 V2000
   57.3900   31.9830   41.5200 C   0  0  0  0  0  0  0  0  0  0  0  0
   58.1260   32.4450   42.7870 C   0  0  0  0  0  0  0  0  0  0  0  0
   57.7420   31.7250   44.0300 N   0  0  0  0  0  0  0  0  0  0  0  0
   57.1080   32.5760   45.0620 C   0  0  0  0  0  0  0  0  0  0  0  0
   57.8730   33.8820   45.2760 C   0  0  0  0  0  0  0  0  0  0  0  0
   56.9410   30.5110   43.7670 C   0  0  0  0  0  0  0  0  0  0  0  0
   57.7140   29.2790   44.1300 C   0  0  0  0  0  0  0  0  0  0  0  0
   57.6020   28.0840   43.5130 N   0  0  0  0  0  0  0  0  0  0  0  0
   58.4110   27.2450   44.0980 O   0  0  0  0  0  0  0  0  0  0  0  0
   59.0470   27.8470   45.0760 C   0  0  0  0  0  0  0  0  0  0  0  0
   58.6580   29.1560   45.1280 C   0  0  0  0  0  0  0  0  0  0  0  0
   59.1190   30.1080   46.1830 C   0  0  0  0  0  0  0  0  0  0  0  0
   60.3820   29.6130   46.7870 N   0  0  0  0  0  0  0  0  0  0  0  0
   60.7670   30.4730   47.9240 C   0  0  0  0  0  0  0  0  0  0  0  0
   61.5770   31.6470   47.4440 C   0  0  0  0  0  0  0  0  0  0  0  0
   62.9770   31.6490   47.5440 C   0  0  0  0  0  0  0  0  0  0  0  0
   63.7080   32.7430   47.0790 C   0  0  0  0  0  0  0  0  0  0  0  0
   63.0330   33.8270   46.5160 C   0  0  0  0  0  0  0  0  0  0  0  0
   61.6760   33.8120   46.4220 N   0  0  0  0  0  0  0  0  0  0  0  0
   60.9420   32.7580   46.8680 C   0  0  0  0  0  0  0  0  0  0  0  0
   60.2550   28.1930   47.2140 C   0  0  0  0  0  0  0  0  0  0  0  0
   60.0690   27.2640   45.9940 C   0  0  0  0  0  0  0  0  0  0  0  0
   56.4900   31.4180   41.8042 H   0  0  0  0  0  0  0  0  0  0  0  0
   57.0990   32.8608   40.9243 H   0  0  0  0  0  0  0  0  0  0  0  0
   58.0540   31.3394   40.9243 H   0  0  0  0  0  0  0  0  0  0  0  0
   59.2048   32.3007   42.6276 H   0  0  0  0  0  0  0  0  0  0  0  0
   57.8463   33.4977   42.9405 H   0  0  0  0  0  0  0  0  0  0  0  0
   56.0817   32.8133   44.7452 H   0  0  0  0  0  0  0  0  0  0  0  0
   57.1128   32.0199   46.0110 H   0  0  0  0  0  0  0  0  0  0  0  0
   57.9831   34.0700   46.3542 H   0  0  0  0  0  0  0  0  0  0  0  0
   58.8682   33.8040   44.8139 H   0  0  0  0  0  0  0  0  0  0  0  0
   57.3182   34.7119   44.8139 H   0  0  0  0  0  0  0  0  0  0  0  0
   56.0195   30.5492   44.3665 H   0  0  0  0  0  0  0  0  0  0  0  0
   56.6968   30.4730   42.6951 H   0  0  0  0  0  0  0  0  0  0  0  0
   56.9780   27.8500   42.7090 H   0  0  0  0  0  0  0  0  0  0  0  0
   59.2919   31.0967   45.7329 H   0  0  0  0  0  0  0  0  0  0  0  0
   58.3484   30.1871   46.9640 H   0  0  0  0  0  0  0  0  0  0  0  0
   59.8588   30.8398   48.4246 H   0  0  0  0  0  0  0  0  0  0  0  0
   61.3747   29.8840   48.6267 H   0  0  0  0  0  0  0  0  0  0  0  0
   63.4979   30.7883   47.9888 H   0  0  0  0  0  0  0  0  0  0  0  0
   64.8053   32.7509   47.1555 H   0  0  0  0  0  0  0  0  0  0  0  0
   63.5993   34.6951   46.1476 H   0  0  0  0  0  0  0  0  0  0  0  0
   59.8459   32.7762   46.7770 H   0  0  0  0  0  0  0  0  0  0  0  0
   61.1653   27.8973   47.7561 H   0  0  0  0  0  0  0  0  0  0  0  0
   59.3726   28.0995   47.8641 H   0  0  0  0  0  0  0  0  0  0  0  0
   61.0258   27.1630   45.4608 H   0  0  0  0  0  0  0  0  0  0  0  0
   59.7331   26.2737   46.3351 H   0  0  0  0  0  0  0  0  0  0  0  0
  1  2  1  0
  2  3  1  0
  3  4  1  0
  4  5  1  0
  3  6  1  0
  6  7  1  0
  7  8  2  0
  8  9  1  0
  9 10  1  0
 10 11  2  0
 11 12  1  0
 12 13  1  0
 13 14  1  0
 14 15  1  0
 15 16  2  0
 16 17  1  0
 17 18  2  0
 18 19  1  0
 19 20  2  0
 13 21  1  0
 21 22  1  0
 11  7  1  0
 20 15  1  0
 22 10  1  0
  1 23  1  0
  1 24  1  0
  1 25  1  0
  2 26  1  0
  2 27  1  0
  4 28  1  0
  4 29  1  0
  5 30  1  0
  5 31  1  0
  5 32  1  0
  6 33  1  0
  6 34  1  0
  8 35  1  0
 12 36  1  0
 12 37  1  0
 14 38  1  0
 14 39  1  0
 16 40  1  0
 17 41  1  0
 18 42  1  0
 20 43  1  0
 21 44  1  0
 21 45  1  0
 22 46  1  0
 22 47  1  0
M  CHG  1   8   1
M  END
>  <UniqueID>  (15) 
14

>  <SMILES>  (15) 
CCN(CC)Cc1[nH+]oc2c1CN(Cc1cccnc1)CC2

>  <Energy>  (15) 
86.18487468593663

>  <Genealogy>  (15) 
CCN(CC)Cc1[nH+]oc2c1CN(Cc1cccnc1)CC2 (protonated)
CCN(CC)Cc1[nH+]oc2c1CN(Cc1cccnc1)CC2 (3D coordinates assigned)
CCN(CC)Cc1[nH+]oc2c1CN(Cc1cccnc1)CC2 (nonaromatic ring conformer: 86.18487468593663 kcal/mol)

>  <smiles>  (15) 
CCN(CC)Cc1noc2c1CN(Cc1cccnc1)CC2

>  <score_type>  (15) 
oracle

>  <origin>  (15) 
adg

>  <m_score__min__energy>  (15) 
-6.0199999999999996

>  <m_primary>  (15) 
energy

$$$$
15:0
     RDKit          3D

 43 46  0  0  0  0  0  0  0  0999 V2000
   56.6480   29.9780   42.9850 C   0  0  0  0  0  0  0  0  0  0  0  0
   57.5700   30.0680   44.1640 C   0  0  0  0  0  0  0  0  0  0  0  0
   58.0620   31.2490   44.6860 C   0  0  0  0  0  0  0  0  0  0  0  0
   58.8650   30.9000   45.7550 C   0  0  0  0  0  0  0  0  0  0  0  0
   59.6330   31.8540   46.5780 C   0  0  0  0  0  0  0  0  0  0  0  0
   59.1610   33.0360   47.0390 N   0  0  0  0  0  0  0  0  0  0  0  0
   60.0320   33.7130   47.7850 N   0  0  0  0  0  0  0  0  0  0  0  0
   61.2060   33.0660   47.9480 C   0  0  0  0  0  0  0  0  0  0  0  0
   62.3760   33.6380   48.6810 C   0  0  0  0  0  0  0  0  0  0  0  0
   61.9500   34.6240   49.5530 F   0  0  0  0  0  0  0  0  0  0  0  0
   63.2730   34.1890   47.7840 F   0  0  0  0  0  0  0  0  0  0  0  0
   63.0050   32.6360   49.3960 F   0  0  0  0  0  0  0  0  0  0  0  0
   61.2070   31.5960   47.1230 S   0  0  0  0  0  0  0  0  0  0  0  0
   58.8270   29.5120   45.8490 C   0  0  0  0  0  0  0  0  0  0  0  0
   59.4820   28.6880   46.8900 C   0  0  0  0  0  0  0  0  0  0  0  0
   59.3940   29.0550   48.2420 C   0  0  0  0  0  0  0  0  0  0  0  0
   60.0000   28.2670   49.2260 C   0  0  0  0  0  0  0  0  0  0  0  0
   60.6930   27.1080   48.8660 C   0  0  0  0  0  0  0  0  0  0  0  0
   61.2790   26.3440   49.8210 F   0  0  0  0  0  0  0  0  0  0  0  0
   60.7810   26.7360   47.5210 C   0  0  0  0  0  0  0  0  0  0  0  0
   60.1780   27.5220   46.5350 C   0  0  0  0  0  0  0  0  0  0  0  0
   58.0430   29.0120   44.8650 N   0  0  0  0  0  0  0  0  0  0  0  0
   57.6980   27.6320   44.6560 C   0  0  0  0  0  0  0  0  0  0  0  0
   58.0860   26.9750   43.4770 C   0  0  0  0  0  0  0  0  0  0  0  0
   57.7620   25.6300   43.2800 C   0  0  0  0  0  0  0  0  0  0  0  0
   57.0480   24.9290   44.2600 C   0  0  0  0  0  0  0  0  0  0  0  0
   56.7170   23.5430   44.0580 C   0  0  0  0  0  0  0  0  0  0  0  0
   56.4510   22.4280   43.8960 N   0  0  0  0  0  0  0  0  0  0  0  0
   56.6580   25.5790   45.4370 C   0  0  0  0  0  0  0  0  0  0  0  0
   56.9800   26.9250   45.6340 C   0  0  0  0  0  0  0  0  0  0  0  0
   55.6109   29.8768   43.3374 H   0  0  0  0  0  0  0  0  0  0  0  0
   56.7411   30.8895   42.3763 H   0  0  0  0  0  0  0  0  0  0  0  0
   56.9156   29.1017   42.3763 H   0  0  0  0  0  0  0  0  0  0  0  0
   57.8552   32.2663   44.3223 H   0  0  0  0  0  0  0  0  0  0  0  0
   58.1960   33.3940   46.8660 H   0  0  0  0  0  0  0  0  0  0  0  0
   58.8467   29.9652   48.5285 H   0  0  0  0  0  0  0  0  0  0  0  0
   59.9311   28.5598   50.2841 H   0  0  0  0  0  0  0  0  0  0  0  0
   61.3258   25.8231   47.2384 H   0  0  0  0  0  0  0  0  0  0  0  0
   60.2491   27.2260   45.4780 H   0  0  0  0  0  0  0  0  0  0  0  0
   58.6475   27.5216   42.7051 H   0  0  0  0  0  0  0  0  0  0  0  0
   58.0681   25.1212   42.3540 H   0  0  0  0  0  0  0  0  0  0  0  0
   56.0974   25.0298   46.2078 H   0  0  0  0  0  0  0  0  0  0  0  0
   56.6696   27.4326   46.5592 H   0  0  0  0  0  0  0  0  0  0  0  0
  1  2  1  0
  2  3  2  0
  3  4  1  0
  4  5  1  0
  5  6  2  0
  6  7  1  0
  7  8  2  0
  8  9  1  0
  9 10  1  0
  9 11  1  0
  9 12  1  0
  8 13  1  0
  4 14  2  0
 14 15  1  0
 15 16  2  0
 16 17  1  0
 17 18  2  0
 18 19  1  0
 18 20  1  0
 20 21  2  0
 14 22  1  0
 22 23  1  0
 23 24  2  0
 24 25  1  0
 25 26  2  0
 26 27  1  0
 27 28  3  0
 26 29  1  0
 29 30  2  0
 22  2  1  0
 30 23  1  0
 13  5  1  0
 21 15  1  0
  1 31  1  0
  1 32  1  0
  1 33  1  0
  3 34  1  0
  6 35  1  0
 16 36  1  0
 17 37  1  0
 20 38  1  0
 21 39  1  0
 24 40  1  0
 25 41  1  0
 29 42  1  0
 30 43  1  0
M  CHG  1   6   1
M  END
>  <UniqueID>  (16) 
15

>  <SMILES>  (16) 
Cc1cc(-c2[nH+]nc(C(F)(F)F)s2)c(-c2ccc(F)cc2)n1-c1ccc(C#N)cc1

>  <Energy>  (16) 
116.70530727475845

>  <Genealogy>  (16) 
Cc1cc(-c2[nH+]nc(C(F)(F)F)s2)c(-c2ccc(F)cc2)n1-c1ccc(C#N)cc1 (protonated)
Cc1cc(-c2[nH+]nc(C(F)(F)F)s2)c(-c2ccc(F)cc2)n1-c1ccc(C#N)cc1 (3D coordinates assigned)
Cc1cc(-c2[nH+]nc(C(F)(F)F)s2)c(-c2ccc(F)cc2)n1-c1ccc(C#N)cc1 (optimized conformer: 116.70530727475845 kcal/mol)

>  <smiles>  (16) 
Cc1cc(-c2nnc(C(F)(F)F)s2)c(-c2ccc(F)cc2)n1-c1ccc(C#N)cc1

>  <score_type>  (16) 
oracle

>  <origin>  (16) 
adg

>  <m_score__min__energy>  (16) 
-6.0899999999999999

>  <m_primary>  (16) 
energy

$$$$
16:0
     RDKit          3D

 42 44  0  0  0  0  0  0  0  0999 V2000
   62.8910   32.5030   48.3700 C   0  0  0  0  0  0  0  0  0  0  0  0
   61.4500   32.6160   48.0860 N   0  0  0  0  0  0  0  0  0  0  0  0
   60.6180   32.0330   49.1570 C   0  0  0  0  0  0  0  0  0  0  0  0
   60.5770   30.4930   49.1090 C   0  0  0  0  0  0  0  0  0  0  0  0
   60.2180   29.9700   47.7730 N   0  0  0  0  0  0  0  0  0  0  0  0
   58.7800   30.1030   47.4560 C   0  0  0  0  0  0  0  0  0  0  0  0
   58.4590   29.4060   46.1580 C   0  0  0  0  0  0  0  0  0  0  0  0
   59.0350   28.1620   45.8580 C   0  0  0  0  0  0  0  0  0  0  0  0
   58.7440   27.5310   44.6480 C   0  0  0  0  0  0  0  0  0  0  0  0
   57.8810   28.1490   43.7440 C   0  0  0  0  0  0  0  0  0  0  0  0
   57.3320   29.3550   44.0450 N   0  0  0  0  0  0  0  0  0  0  0  0
   57.5910   29.9940   45.2200 C   0  0  0  0  0  0  0  0  0  0  0  0
   57.0200   31.2450   45.4910 O   0  0  0  0  0  0  0  0  0  0  0  0
   57.7510   32.4360   45.5510 C   0  0  0  0  0  0  0  0  0  0  0  0
   57.8670   33.0910   46.7830 C   0  0  0  0  0  0  0  0  0  0  0  0
   58.5950   34.2790   46.8860 C   0  0  0  0  0  0  0  0  0  0  0  0
   59.2020   34.8270   45.7540 C   0  0  0  0  0  0  0  0  0  0  0  0
   59.0710   34.1950   44.5150 C   0  0  0  0  0  0  0  0  0  0  0  0
   58.3430   33.0040   44.4040 C   0  0  0  0  0  0  0  0  0  0  0  0
   58.1200   32.2960   42.8090 Cl  0  0  0  0  0  0  0  0  0  0  0  0
   61.0850   30.5440   46.7250 C   0  0  0  0  0  0  0  0  0  0  0  0
   61.0910   32.0830   46.7580 C   0  0  0  0  0  0  0  0  0  0  0  0
   63.0503   32.4905   49.4583 H   0  0  0  0  0  0  0  0  0  0  0  0
   63.2791   31.5717   47.9319 H   0  0  0  0  0  0  0  0  0  0  0  0
   63.4196   33.3625   47.9319 H   0  0  0  0  0  0  0  0  0  0  0  0
   61.0281   32.3437   50.1293 H   0  0  0  0  0  0  0  0  0  0  0  0
   59.5899   32.3967   49.0132 H   0  0  0  0  0  0  0  0  0  0  0  0
   61.5699   30.1064   49.3825 H   0  0  0  0  0  0  0  0  0  0  0  0
   59.8009   30.1605   49.8140 H   0  0  0  0  0  0  0  0  0  0  0  0
   58.1876   29.6516   48.2655 H   0  0  0  0  0  0  0  0  0  0  0  0
   58.5347   31.1707   47.3568 H   0  0  0  0  0  0  0  0  0  0  0  0
   59.7164   27.6840   46.5772 H   0  0  0  0  0  0  0  0  0  0  0  0
   59.1914   26.5548   44.4095 H   0  0  0  0  0  0  0  0  0  0  0  0
   57.6446   27.6604   42.7873 H   0  0  0  0  0  0  0  0  0  0  0  0
   57.3821   32.6678   47.6751 H   0  0  0  0  0  0  0  0  0  0  0  0
   58.6901   34.7829   47.8592 H   0  0  0  0  0  0  0  0  0  0  0  0
   59.7836   35.7569   45.8380 H   0  0  0  0  0  0  0  0  0  0  0  0
   59.5415   34.6347   43.6232 H   0  0  0  0  0  0  0  0  0  0  0  0
   62.1125   30.1819   46.8769 H   0  0  0  0  0  0  0  0  0  0  0  0
   60.6909   30.2274   45.7480 H   0  0  0  0  0  0  0  0  0  0  0  0
   61.8211   32.4492   46.0213 H   0  0  0  0  0  0  0  0  0  0  0  0
   60.0732   32.4273   46.5225 H   0  0  0  0  0  0  0  0  0  0  0  0
  1  2  1  0
  2  3  1  0
  3  4  1  0
  4  5  1  0
  5  6  1  0
  6  7  1  0
  7  8  2  0
  8  9  1  0
  9 10  2  0
 10 11  1  0
 11 12  2  0
 12 13  1  0
 13 14  1  0
 14 15  2  0
 15 16  1  0
 16 17  2  0
 17 18  1  0
 18 19  2  0
 19 20  1  0
  5 21  1  0
 21 22  1  0
 22  2  1  0
 12  7  1  0
 19 14  1  0
  1 23  1  0
  1 24  1  0
  1 25  1  0
  3 26  1  0
  3 27  1  0
  4 28  1  0
  4 29  1  0
  6 30  1  0
  6 31  1  0
  8 32  1  0
  9 33  1  0
 10 34  1  0
 15 35  1  0
 16 36  1  0
 17 37  1  0
 18 38  1  0
 21 39  1  0
 21 40  1  0
 22 41  1  0
 22 42  1  0
M  END
>  <UniqueID>  (17) 
16

>  <SMILES>  (17) 
CN1CCN(Cc2cccnc2Oc2ccccc2Cl)CC1

>  <Energy>  (17) 
57.85181705596284

>  <Genealogy>  (17) 
CN1CCN(Cc2cccnc2Oc2ccccc2Cl)CC1 (3D coordinates assigned)
CN1CCN(Cc2cccnc2Oc2ccccc2Cl)CC1 (nonaromatic ring conformer: 57.85181705596284 kcal/mol)

>  <smiles>  (17) 
CN1CCN(Cc2cccnc2Oc2ccccc2Cl)CC1

>  <score_type>  (17) 
oracle

>  <origin>  (17) 
adg

>  <m_score__min__energy>  (17) 
-7.3600000000000003

>  <m_primary>  (17) 
energy

$$$$
17:0
     RDKit          3D

 34 35  0  0  0  0  0  0  0  0999 V2000
   57.4960   30.7400   43.6320 C   0  0  0  0  0  0  0  0  0  0  0  0
   57.0210   31.2220   44.8820 O   0  0  0  0  0  0  0  0  0  0  0  0
   57.8690   31.4920   45.9590 C   0  0  0  0  0  0  0  0  0  0  0  0
   58.1410   30.5840   46.7920 O   0  0  0  0  0  0  0  0  0  0  0  0
   58.4250   32.8520   46.1440 C   0  0  0  0  0  0  0  0  0  0  0  0
   58.6830   33.6400   45.0080 C   0  0  0  0  0  0  0  0  0  0  0  0
   59.2930   34.8910   45.1310 C   0  0  0  0  0  0  0  0  0  0  0  0
   59.6630   35.3660   46.3880 C   0  0  0  0  0  0  0  0  0  0  0  0
   59.4000   34.6070   47.5280 C   0  0  0  0  0  0  0  0  0  0  0  0
   58.7490   33.3670   47.4270 C   0  0  0  0  0  0  0  0  0  0  0  0
   58.3900   32.6870   48.6410 N   0  0  0  0  0  0  0  0  0  0  0  0
   59.1620   32.7430   49.8540 C   0  0  0  0  0  0  0  0  0  0  0  0
   58.4570   32.3080   51.2650 S   0  0  0  0  0  0  0  0  0  0  0  0
   60.4910   33.2890   49.8800 N   0  0  0  0  0  0  0  0  0  0  0  0
   61.4690   33.0580   48.8560 C   0  0  0  0  0  0  0  0  0  0  0  0
   61.4980   31.8500   48.1350 C   0  0  0  0  0  0  0  0  0  0  0  0
   62.4470   31.6530   47.1280 C   0  0  0  0  0  0  0  0  0  0  0  0
   63.3830   32.6520   46.8430 C   0  0  0  0  0  0  0  0  0  0  0  0
   63.3750   33.8450   47.5700 C   0  0  0  0  0  0  0  0  0  0  0  0
   62.4270   34.0450   48.5780 C   0  0  0  0  0  0  0  0  0  0  0  0
   58.2587   29.9661   43.8033 H   0  0  0  0  0  0  0  0  0  0  0  0
   56.6587   30.3100   43.0627 H   0  0  0  0  0  0  0  0  0  0  0  0
   57.9382   31.5709   43.0627 H   0  0  0  0  0  0  0  0  0  0  0  0
   58.4015   33.2675   44.0120 H   0  0  0  0  0  0  0  0  0  0  0  0
   59.4813   35.5013   44.2354 H   0  0  0  0  0  0  0  0  0  0  0  0
   60.1633   36.3412   46.4810 H   0  0  0  0  0  0  0  0  0  0  0  0
   59.7054   34.9832   48.5155 H   0  0  0  0  0  0  0  0  0  0  0  0
   57.5820   32.0240   48.6050 H   0  0  0  0  0  0  0  0  0  0  0  0
   60.7640   33.8760   50.7010 H   0  0  0  0  0  0  0  0  0  0  0  0
   60.7707   31.0574   48.3649 H   0  0  0  0  0  0  0  0  0  0  0  0
   62.4576   30.7115   46.5593 H   0  0  0  0  0  0  0  0  0  0  0  0
   64.1257   32.4985   46.0463 H   0  0  0  0  0  0  0  0  0  0  0  0
   64.1154   34.6279   47.3491 H   0  0  0  0  0  0  0  0  0  0  0  0
   62.4321   34.9808   49.1561 H   0  0  0  0  0  0  0  0  0  0  0  0
  1  2  1  0
  2  3  1  0
  3  4  2  0
  3  5  1  0
  5  6  2  0
  6  7  1  0
  7  8  2  0
  8  9  1  0
  9 10  2  0
 10 11  1  0
 11 12  1  0
 12 13  2  0
 12 14  1  0
 14 15  1  0
 15 16  2  0
 16 17  1  0
 17 18  2  0
 18 19  1  0
 19 20  2  0
 10  5  1  0
 20 15  1  0
  1 21  1  0
  1 22  1  0
  1 23  1  0
  6 24  1  0
  7 25  1  0
  8 26  1  0
  9 27  1  0
 11 28  1  0
 14 29  1  0
 16 30  1  0
 17 31  1  0
 18 32  1  0
 19 33  1  0
 20 34  1  0
M  END
>  <UniqueID>  (18) 
17

>  <SMILES>  (18) 
COC(=O)c1ccccc1NC(=S)Nc1ccccc1

>  <Energy>  (18) 
42.74735992948188

>  <Genealogy>  (18) 
COC(=O)c1ccccc1NC(=S)Nc1ccccc1 (3D coordinates assigned)
COC(=O)c1ccccc1NC(=S)Nc1ccccc1 (optimized conformer: 42.74735992948188 kcal/mol)

>  <smiles>  (18) 
COC(=O)c1ccccc1NC(=S)Nc1ccccc1

>  <score_type>  (18) 
oracle

>  <origin>  (18) 
adg

>  <m_score__min__energy>  (18) 
-6.5099999999999998

>  <m_primary>  (18) 
energy

$$$$
18:0
     RDKit          3D

 30 31  0  0  0  0  0  0  0  0999 V2000
   56.2640   29.4510   42.2590 C   0  0  0  0  0  0  0  0  0  0  0  0
   57.2250   29.8560   43.2760 N   0  0  0  0  0  0  0  0  0  0  0  0
   56.8590   29.9670   44.6580 C   0  0  0  0  0  0  0  0  0  0  0  0
   55.6830   29.6950   45.0210 O   0  0  0  0  0  0  0  0  0  0  0  0
   57.8440   30.4480   45.6550 C   0  0  0  0  0  0  0  0  0  0  0  0
   58.4170   29.5070   46.5230 C   0  0  0  0  0  0  0  0  0  0  0  0
   59.3920   29.9010   47.4430 C   0  0  0  0  0  0  0  0  0  0  0  0
   60.0230   28.8940   48.3590 C   0  0  0  0  0  0  0  0  0  0  0  0
   60.2860   27.7170   47.6800 F   0  0  0  0  0  0  0  0  0  0  0  0
   59.1650   28.6220   49.4090 F   0  0  0  0  0  0  0  0  0  0  0  0
   61.2100   29.3960   48.8590 F   0  0  0  0  0  0  0  0  0  0  0  0
   59.7850   31.2010   47.4910 N   0  0  0  0  0  0  0  0  0  0  0  0
   59.2550   32.1580   46.6830 C   0  0  0  0  0  0  0  0  0  0  0  0
   59.6970   33.4960   46.7930 C   0  0  0  0  0  0  0  0  0  0  0  0
   60.7730   33.8670   47.7900 C   0  0  0  0  0  0  0  0  0  0  0  0
   61.0340   32.8360   48.6770 F   0  0  0  0  0  0  0  0  0  0  0  0
   60.3710   34.9740   48.5180 F   0  0  0  0  0  0  0  0  0  0  0  0
   61.9430   34.1710   47.1160 F   0  0  0  0  0  0  0  0  0  0  0  0
   59.1090   34.4780   45.9760 C   0  0  0  0  0  0  0  0  0  0  0  0
   58.1040   34.1410   45.0720 C   0  0  0  0  0  0  0  0  0  0  0  0
   57.6700   32.8210   44.9550 C   0  0  0  0  0  0  0  0  0  0  0  0
   58.2510   31.8060   45.7420 C   0  0  0  0  0  0  0  0  0  0  0  0
   55.3549   29.0679   42.7455 H   0  0  0  0  0  0  0  0  0  0  0  0
   56.0069   30.3173   41.6318 H   0  0  0  0  0  0  0  0  0  0  0  0
   56.7045   28.6620   41.6318 H   0  0  0  0  0  0  0  0  0  0  0  0
   58.2100   30.0490   42.9860 H   0  0  0  0  0  0  0  0  0  0  0  0
   58.0977   28.4553   46.4793 H   0  0  0  0  0  0  0  0  0  0  0  0
   59.4459   35.5224   46.0515 H   0  0  0  0  0  0  0  0  0  0  0  0
   57.6492   34.9224   44.4455 H   0  0  0  0  0  0  0  0  0  0  0  0
   56.8691   32.5701   44.2440 H   0  0  0  0  0  0  0  0  0  0  0  0
  1  2  1  0
  2  3  1  0
  3  4  2  0
  3  5  1  0
  5  6  2  0
  6  7  1  0
  7  8  1  0
  8  9  1  0
  8 10  1  0
  8 11  1  0
  7 12  2  0
 12 13  1  0
 13 14  2  0
 14 15  1  0
 15 16  1  0
 15 17  1  0
 15 18  1  0
 14 19  1  0
 19 20  2  0
 20 21  1  0
 21 22  2  0
 22  5  1  0
 22 13  1  0
  1 23  1  0
  1 24  1  0
  1 25  1  0
  2 26  1  0
  6 27  1  0
 19 28  1  0
 20 29  1  0
 21 30  1  0
M  END
>  <UniqueID>  (19) 
18

>  <SMILES>  (19) 
CNC(=O)c1cc(C(F)(F)F)nc2c(C(F)(F)F)cccc12

>  <Energy>  (19) 
38.824493450119995

>  <Genealogy>  (19) 
CNC(=O)c1cc(C(F)(F)F)nc2c(C(F)(F)F)cccc12 (3D coordinates assigned)
CNC(=O)c1cc(C(F)(F)F)nc2c(C(F)(F)F)cccc12 (optimized conformer: 38.824493450119995 kcal/mol)

>  <smiles>  (19) 
CNC(=O)c1cc(C(F)(F)F)nc2c(C(F)(F)F)cccc12

>  <score_type>  (19) 
oracle

>  <origin>  (19) 
adg

>  <m_score__min__energy>  (19) 
-6.1100000000000003

>  <m_primary>  (19) 
energy

$$$$
19:0
     RDKit          3D

 38 40  0  0  0  0  0  0  0  0999 V2000
   59.7900   33.8420   50.0910 C   0  0  0  0  0  0  0  0  0  0  0  0
   59.6440   34.7540   49.0080 O   0  0  0  0  0  0  0  0  0  0  0  0
   59.3130   34.3810   47.6970 C   0  0  0  0  0  0  0  0  0  0  0  0
   59.5800   35.2830   46.6610 C   0  0  0  0  0  0  0  0  0  0  0  0
   59.2730   34.9560   45.3380 C   0  0  0  0  0  0  0  0  0  0  0  0
   58.6850   33.7250   45.0400 C   0  0  0  0  0  0  0  0  0  0  0  0
   58.3930   32.8150   46.0660 C   0  0  0  0  0  0  0  0  0  0  0  0
   57.7720   31.5120   45.7660 C   0  0  0  0  0  0  0  0  0  0  0  0
   56.7570   31.3710   44.8890 N   0  0  0  0  0  0  0  0  0  0  0  0
   56.4960   30.0770   44.7980 N   0  0  0  0  0  0  0  0  0  0  0  0
   57.3620   29.4470   45.6120 C   0  0  0  0  0  0  0  0  0  0  0  0
   57.4300   27.8160   45.7470 S   0  0  0  0  0  0  0  0  0  0  0  0
   58.1830   30.3150   46.2430 N   0  0  0  0  0  0  0  0  0  0  0  0
   59.3720   30.0110   47.0550 C   0  0  0  0  0  0  0  0  0  0  0  0
   60.6610   30.4720   46.3610 C   0  0  0  0  0  0  0  0  0  0  0  0
   61.4760   31.3740   47.2490 C   0  0  0  0  0  0  0  0  0  0  0  0
   61.7830   30.9850   48.5630 C   0  0  0  0  0  0  0  0  0  0  0  0
   62.5810   31.8010   49.3720 C   0  0  0  0  0  0  0  0  0  0  0  0
   63.0830   33.0060   48.8710 C   0  0  0  0  0  0  0  0  0  0  0  0
   62.7870   33.3980   47.5630 C   0  0  0  0  0  0  0  0  0  0  0  0
   61.9880   32.5860   46.7520 C   0  0  0  0  0  0  0  0  0  0  0  0
   58.7240   33.1380   47.3910 C   0  0  0  0  0  0  0  0  0  0  0  0
   59.7029   34.3862   51.0430 H   0  0  0  0  0  0  0  0  0  0  0  0
   59.0031   33.0755   50.0335 H   0  0  0  0  0  0  0  0  0  0  0  0
   60.7768   33.3594   50.0335 H   0  0  0  0  0  0  0  0  0  0  0  0
   60.0354   36.2577   46.8903 H   0  0  0  0  0  0  0  0  0  0  0  0
   59.4947   35.6689   44.5302 H   0  0  0  0  0  0  0  0  0  0  0  0
   58.4500   33.4682   43.9965 H   0  0  0  0  0  0  0  0  0  0  0  0
   59.2842   30.5251   48.0235 H   0  0  0  0  0  0  0  0  0  0  0  0
   59.4257   28.9210   47.1932 H   0  0  0  0  0  0  0  0  0  0  0  0
   61.2624   29.5883   46.1014 H   0  0  0  0  0  0  0  0  0  0  0  0
   60.3831   31.0367   45.4589 H   0  0  0  0  0  0  0  0  0  0  0  0
   61.3944   30.0347   48.9578 H   0  0  0  0  0  0  0  0  0  0  0  0
   62.8136   31.4945   50.4025 H   0  0  0  0  0  0  0  0  0  0  0  0
   63.7117   33.6461   49.5074 H   0  0  0  0  0  0  0  0  0  0  0  0
   63.1829   34.3464   47.1708 H   0  0  0  0  0  0  0  0  0  0  0  0
   61.7591   32.8963   45.7218 H   0  0  0  0  0  0  0  0  0  0  0  0
   58.5223   32.4160   48.1960 H   0  0  0  0  0  0  0  0  0  0  0  0
  1  2  1  0
  2  3  1  0
  3  4  2  0
  4  5  1  0
  5  6  2  0
  6  7  1  0
  7  8  1  0
  8  9  2  0
  9 10  1  0
 10 11  1  0
 11 12  2  0
 11 13  1  0
 13 14  1  0
 14 15  1  0
 15 16  1  0
 16 17  2  0
 17 18  1  0
 18 19  2  0
 19 20  1  0
 20 21  2  0
  7 22  2  0
 22  3  1  0
 13  8  1  0
 21 16  1  0
  1 23  1  0
  1 24  1  0
  1 25  1  0
  4 26  1  0
  5 27  1  0
  6 28  1  0
 14 29  1  0
 14 30  1  0
 15 31  1  0
 15 32  1  0
 17 33  1  0
 18 34  1  0
 19 35  1  0
 20 36  1  0
 21 37  1  0
 22 38  1  0
M  CHG  1  10  -1
M  END
>  <UniqueID>  (20) 
19

>  <SMILES>  (20) 
COc1cccc(-c2n[n-]c(=S)n2CCc2ccccc2)c1

>  <Energy>  (20) 
76.00441844136532

>  <Genealogy>  (20) 
COc1cccc(-c2n[n-]c(=S)n2CCc2ccccc2)c1 (protonated)
COc1cccc(-c2n[n-]c(=S)n2CCc2ccccc2)c1 (3D coordinates assigned)
COc1cccc(-c2n[n-]c(=S)n2CCc2ccccc2)c1 (optimized conformer: 76.00441844136532 kcal/mol)

>  <smiles>  (20) 
COc1cccc(-c2n[nH]c(=S)n2CCc2ccccc2)c1

>  <score_type>  (20) 
oracle

>  <origin>  (20) 
adg

>  <m_score__min__energy>  (20) 
-8.8399999999999999

>  <m_primary>  (20) 
energy

$$$$
20:0
     RDKit          3D

 47 50  0  0  0  0  0  0  0  0999 V2000
   63.8380   33.0930   46.7310 C   0  0  0  0  0  0  0  0  0  0  0  0
   63.7580   33.6200   48.1590 C   0  0  0  0  0  0  0  0  0  0  0  0
   62.3370   33.6370   48.6370 C   0  0  0  0  0  0  0  0  0  0  0  0
   62.0330   33.9200   49.9750 C   0  0  0  0  0  0  0  0  0  0  0  0
   60.7040   33.8840   50.3970 C   0  0  0  0  0  0  0  0  0  0  0  0
   59.6940   33.5590   49.4910 C   0  0  0  0  0  0  0  0  0  0  0  0
   60.0270   33.2690   48.1560 C   0  0  0  0  0  0  0  0  0  0  0  0
   58.9860   32.8850   47.1760 C   0  0  0  0  0  0  0  0  0  0  0  0
   58.3130   33.8640   46.3980 C   0  0  0  0  0  0  0  0  0  0  0  0
   57.3680   33.4730   45.4340 C   0  0  0  0  0  0  0  0  0  0  0  0
   57.1400   32.1130   45.2930 C   0  0  0  0  0  0  0  0  0  0  0  0
   56.3310   31.4960   44.4110 N   0  0  0  0  0  0  0  0  0  0  0  0
   56.4850   30.1870   44.6200 N   0  0  0  0  0  0  0  0  0  0  0  0
   57.3880   30.0370   45.6190 C   0  0  0  0  0  0  0  0  0  0  0  0
   57.8520   28.7150   46.1560 C   0  0  0  0  0  0  0  0  0  0  0  0
   57.5500   27.6110   45.2170 N   0  0  0  0  0  0  0  0  0  0  0  0
   58.4850   27.6630   44.0820 C   0  0  0  0  0  0  0  0  0  0  0  0
   57.6110   26.2840   45.8760 C   0  0  0  0  0  0  0  0  0  0  0  0
   56.2550   25.6570   45.8820 C   0  0  0  0  0  0  0  0  0  0  0  0
   56.0370   24.3350   45.7470 N   0  0  0  0  0  0  0  0  0  0  0  0
   54.6900   24.2870   45.7940 C   0  0  0  0  0  0  0  0  0  0  0  0
   53.9030   23.0320   45.6210 C   0  0  0  0  0  0  0  0  0  0  0  0
   54.1300   25.5040   45.9310 N   0  0  0  0  0  0  0  0  0  0  0  0
   55.1330   26.3260   45.9890 O   0  0  0  0  0  0  0  0  0  0  0  0
   57.7910   31.2370   46.0550 N   0  0  0  0  0  0  0  0  0  0  0  0
   58.6940   31.5660   46.9730 N   0  0  0  0  0  0  0  0  0  0  0  0
   61.3360   33.3130   47.7760 N   0  0  0  0  0  0  0  0  0  0  0  0
   64.0031   32.0056   46.7502 H   0  0  0  0  0  0  0  0  0  0  0  0
   62.8964   33.3117   46.2061 H   0  0  0  0  0  0  0  0  0  0  0  0
   64.6723   33.5813   46.2061 H   0  0  0  0  0  0  0  0  0  0  0  0
   64.3532   32.9705   48.8178 H   0  0  0  0  0  0  0  0  0  0  0  0
   64.1514   34.6470   48.1803 H   0  0  0  0  0  0  0  0  0  0  0  0
   62.8348   34.1682   50.6860 H   0  0  0  0  0  0  0  0  0  0  0  0
   60.4524   34.1117   51.4434 H   0  0  0  0  0  0  0  0  0  0  0  0
   58.6444   33.5298   49.8188 H   0  0  0  0  0  0  0  0  0  0  0  0
   58.5319   34.9312   46.5503 H   0  0  0  0  0  0  0  0  0  0  0  0
   56.8337   34.2125   44.8194 H   0  0  0  0  0  0  0  0  0  0  0  0
   58.9389   28.7575   46.3198 H   0  0  0  0  0  0  0  0  0  0  0  0
   57.3208   28.5204   47.0993 H   0  0  0  0  0  0  0  0  0  0  0  0
   59.5167   27.7204   44.4592 H   0  0  0  0  0  0  0  0  0  0  0  0
   58.3685   26.7570   43.4692 H   0  0  0  0  0  0  0  0  0  0  0  0
   58.2688   28.5505   43.4692 H   0  0  0  0  0  0  0  0  0  0  0  0
   58.3102   25.6359   45.3272 H   0  0  0  0  0  0  0  0  0  0  0  0
   57.9567   26.4098   46.9127 H   0  0  0  0  0  0  0  0  0  0  0  0
   53.6456   22.6215   46.6086 H   0  0  0  0  0  0  0  0  0  0  0  0
   52.9806   23.2516   45.0634 H   0  0  0  0  0  0  0  0  0  0  0  0
   54.5024   22.2973   45.0634 H   0  0  0  0  0  0  0  0  0  0  0  0
  1  2  1  0
  2  3  1  0
  3  4  2  0
  4  5  1  0
  5  6  2  0
  6  7  1  0
  7  8  1  0
  8  9  1  0
  9 10  2  0
 10 11  1  0
 11 12  2  0
 12 13  1  0
 13 14  2  0
 14 15  1  0
 15 16  1  0
 16 17  1  0
 16 18  1  0
 18 19  1  0
 19 20  2  0
 20 21  1  0
 21 22  1  0
 21 23  2  0
 23 24  1  0
 14 25  1  0
 25 26  1  0
  7 27  2  0
 27  3  1  0
 26  8  2  0
 25 11  1  0
 24 19  1  0
  1 28  1  0
  1 29  1  0
  1 30  1  0
  2 31  1  0
  2 32  1  0
  4 33  1  0
  5 34  1  0
  6 35  1  0
  9 36  1  0
 10 37  1  0
 15 38  1  0
 15 39  1  0
 17 40  1  0
 17 41  1  0
 17 42  1  0
 18 43  1  0
 18 44  1  0
 22 45  1  0
 22 46  1  0
 22 47  1  0
M  END
>  <UniqueID>  (21) 
20

>  <SMILES>  (21) 
CCc1cccc(-c2ccc3nnc(CN(C)Cc4nc(C)no4)n3n2)n1

>  <Energy>  (21) 
119.49566857371755

>  <Genealogy>  (21) 
CCc1cccc(-c2ccc3nnc(CN(C)Cc4nc(C)no4)n3n2)n1 (3D coordinates assigned)
CCc1cccc(-c2ccc3nnc(CN(C)Cc4nc(C)no4)n3n2)n1 (optimized conformer: 119.49566857371755 kcal/mol)

>  <smiles>  (21) 
CCc1cccc(-c2ccc3nnc(CN(C)Cc4nc(C)no4)n3n2)n1

>  <score_type>  (21) 
oracle

>  <origin>  (21) 
adg

>  <m_score__min__energy>  (21) 
-9.6500000000000004

>  <m_primary>  (21) 
energy

$$$$
21:0
     RDKit          3D

 51 52  0  0  0  0  0  0  0  0999 V2000
   55.5420   28.8730   44.8890 N   0  0  0  0  0  0  0  0  0  0  0  0
   55.6790   29.7830   43.7560 C   0  0  0  0  0  0  0  0  0  0  0  0
   56.5810   30.9620   44.1350 C   0  0  0  0  0  0  0  0  0  0  0  0
   58.0470   30.7330   43.7420 C   0  0  0  0  0  0  0  0  0  0  0  0
   58.7350   29.8750   44.7200 N   0  0  0  0  0  0  0  0  0  0  0  0
   59.4540   30.5090   45.8380 C   0  0  0  0  0  0  0  0  0  0  0  0
   58.5110   31.3740   46.6850 C   0  0  0  0  0  0  0  0  0  0  0  0
   58.8530   32.8350   46.5650 C   0  0  0  0  0  0  0  0  0  0  0  0
   59.2690   33.5600   47.6930 C   0  0  0  0  0  0  0  0  0  0  0  0
   59.6380   34.9030   47.5720 C   0  0  0  0  0  0  0  0  0  0  0  0
   59.6050   35.5270   46.3220 C   0  0  0  0  0  0  0  0  0  0  0  0
   59.2030   34.8100   45.1930 C   0  0  0  0  0  0  0  0  0  0  0  0
   58.8290   33.4680   45.3110 C   0  0  0  0  0  0  0  0  0  0  0  0
   58.7360   28.4400   44.5470 C   0  0  0  0  0  0  0  0  0  0  0  0
   57.8790   27.9050   43.7880 O   0  0  0  0  0  0  0  0  0  0  0  0
   59.7730   27.5770   45.2270 C   0  0  0  0  0  0  0  0  0  0  0  0
   59.1750   26.6380   46.2840 C   0  0  0  0  0  0  0  0  0  0  0  0
   58.0220   27.2950   46.9760 C   0  0  0  0  0  0  0  0  0  0  0  0
   58.2240   27.9450   48.0370 O   0  0  0  0  0  0  0  0  0  0  0  0
   56.7000   27.1500   46.4300 N   0  0  0  0  0  0  0  0  0  0  0  0
   56.0310   26.0430   46.2850 C   0  0  0  0  0  0  0  0  0  0  0  0
   56.6150   24.8350   46.6880 C   0  0  0  0  0  0  0  0  0  0  0  0
   55.9020   23.6440   46.5380 C   0  0  0  0  0  0  0  0  0  0  0  0
   54.6210   23.6640   45.9830 C   0  0  0  0  0  0  0  0  0  0  0  0
   54.0660   24.8850   45.5960 C   0  0  0  0  0  0  0  0  0  0  0  0
   54.7740   26.0350   45.7530 N   0  0  0  0  0  0  0  0  0  0  0  0
   55.8410   27.9180   44.5800 H   0  0  0  0  0  0  0  0  0  0  0  0
   56.2270   29.1720   45.6220 H   0  0  0  0  0  0  0  0  0  0  0  0
   56.1234   29.2429   42.9070 H   0  0  0  0  0  0  0  0  0  0  0  0
   54.6854   30.1642   43.4777 H   0  0  0  0  0  0  0  0  0  0  0  0
   56.2156   31.8642   43.6227 H   0  0  0  0  0  0  0  0  0  0  0  0
   56.5425   31.0732   45.2287 H   0  0  0  0  0  0  0  0  0  0  0  0
   58.0820   30.2499   42.7544 H   0  0  0  0  0  0  0  0  0  0  0  0
   58.5560   31.7078   43.7166 H   0  0  0  0  0  0  0  0  0  0  0  0
   59.8905   29.7251   46.4744 H   0  0  0  0  0  0  0  0  0  0  0  0
   60.2416   31.1555   45.4236 H   0  0  0  0  0  0  0  0  0  0  0  0
   57.4774   31.2186   46.3421 H   0  0  0  0  0  0  0  0  0  0  0  0
   58.6203   31.0773   47.7386 H   0  0  0  0  0  0  0  0  0  0  0  0
   59.3048   33.0690   48.6767 H   0  0  0  0  0  0  0  0  0  0  0  0
   59.9544   35.4686   48.4608 H   0  0  0  0  0  0  0  0  0  0  0  0
   59.8959   36.5836   46.2273 H   0  0  0  0  0  0  0  0  0  0  0  0
   59.1806   35.3019   44.2093 H   0  0  0  0  0  0  0  0  0  0  0  0
   58.5149   32.9060   44.4191 H   0  0  0  0  0  0  0  0  0  0  0  0
   60.2774   26.9677   44.4626 H   0  0  0  0  0  0  0  0  0  0  0  0
   60.4724   28.2503   45.7442 H   0  0  0  0  0  0  0  0  0  0  0  0
   58.8262   25.7169   45.7942 H   0  0  0  0  0  0  0  0  0  0  0  0
   59.9492   26.4014   47.0288 H   0  0  0  0  0  0  0  0  0  0  0  0
   57.6270   24.8249   47.1191 H   0  0  0  0  0  0  0  0  0  0  0  0
   56.3491   22.6908   46.8568 H   0  0  0  0  0  0  0  0  0  0  0  0
   54.0561   22.7292   45.8523 H   0  0  0  0  0  0  0  0  0  0  0  0
   53.0550   24.9167   45.1637 H   0  0  0  0  0  0  0  0  0  0  0  0
  1  2  1  0
  2  3  1  0
  3  4  1  0
  4  5  1  0
  5  6  1  0
  6  7  1  0
  7  8  1  0
  8  9  2  0
  9 10  1  0
 10 11  2  0
 11 12  1  0
 12 13  2  0
  5 14  1  0
 14 15  2  0
 14 16  1  0
 16 17  1  0
 17 18  1  0
 18 19  2  0
 18 20  1  0
 20 21  2  3
 21 22  1  0
 22 23  2  0
 23 24  1  0
 24 25  2  0
 25 26  1  0
 13  8  1  0
 26 21  1  0
  1 27  1  0
  1 28  1  0
  2 29  1  0
  2 30  1  0
  3 31  1  0
  3 32  1  0
  4 33  1  0
  4 34  1  0
  6 35  1  0
  6 36  1  0
  7 37  1  0
  7 38  1  0
  9 39  1  0
 10 40  1  0
 11 41  1  0
 12 42  1  0
 13 43  1  0
 16 44  1  0
 16 45  1  0
 17 46  1  0
 17 47  1  0
 22 48  1  0
 23 49  1  0
 24 50  1  0
 25 51  1  0
M  CHG  1  26  -1
M  END
>  <UniqueID>  (22) 
21

>  <SMILES>  (22) 
NCCCN(CCc1ccccc1)C(=O)CCC(=O)N=c1cccc[n-]1

>  <Energy>  (22) 
41.98453544025066

>  <Genealogy>  (22) 
NCCCN(CCc1ccccc1)C(=O)CCC(=O)N=c1cccc[n-]1 (protonated)
NCCCN(CCc1ccccc1)C(=O)CCC(=O)N=c1cccc[n-]1 (3D coordinates assigned)
NCCCN(CCc1ccccc1)C(=O)CCC(=O)N=c1cccc[n-]1 (optimized conformer: 41.98453544025066 kcal/mol)

>  <smiles>  (22) 
NCCCN(CCc1ccccc1)C(=O)CCC(=O)N=c1cccc[nH]1

>  <score_type>  (22) 
oracle

>  <origin>  (22) 
adg

>  <m_score__min__energy>  (22) 
-9.4900000000000002

>  <m_primary>  (22) 
energy

$$$$
22:0
     RDKit          3D

 48 50  0  0  0  0  0  0  0  0999 V2000
   60.4420   28.8180   49.2520 C   0  0  0  0  0  0  0  0  0  0  0  0
   60.5060   28.0700   48.0430 O   0  0  0  0  0  0  0  0  0  0  0  0
   59.7640   28.3630   46.8900 C   0  0  0  0  0  0  0  0  0  0  0  0
   58.3700   28.4290   46.9950 C   0  0  0  0  0  0  0  0  0  0  0  0
   57.5850   28.7210   45.8750 C   0  0  0  0  0  0  0  0  0  0  0  0
   58.1860   28.9520   44.6270 C   0  0  0  0  0  0  0  0  0  0  0  0
   57.3820   29.2930   43.4760 N   0  0  0  0  0  0  0  0  0  0  0  0
   56.7920   30.6370   43.6090 C   0  0  0  0  0  0  0  0  0  0  0  0
   57.8620   31.7200   43.8410 C   0  0  0  0  0  0  0  0  0  0  0  0
   57.3700   32.7870   44.7450 N   0  0  0  0  0  0  0  0  0  0  0  0
   57.4000   32.3600   46.1570 C   0  0  0  0  0  0  0  0  0  0  0  0
   58.8010   32.2930   46.7040 C   0  0  0  0  0  0  0  0  0  0  0  0
   59.7890   33.0760   46.2350 C   0  0  0  0  0  0  0  0  0  0  0  0
   61.1560   32.9590   46.8010 C   0  0  0  0  0  0  0  0  0  0  0  0
   61.4600   31.9510   47.7360 C   0  0  0  0  0  0  0  0  0  0  0  0
   62.7530   31.8320   48.2550 C   0  0  0  0  0  0  0  0  0  0  0  0
   63.7550   32.7140   47.8460 C   0  0  0  0  0  0  0  0  0  0  0  0
   63.4660   33.7170   46.9170 C   0  0  0  0  0  0  0  0  0  0  0  0
   62.1750   33.8390   46.3940 C   0  0  0  0  0  0  0  0  0  0  0  0
   59.5670   33.9760   45.0360 C   0  0  0  0  0  0  0  0  0  0  0  0
   58.0920   34.0700   44.6040 C   0  0  0  0  0  0  0  0  0  0  0  0
   59.5860   28.8850   44.5190 C   0  0  0  0  0  0  0  0  0  0  0  0
   60.3690   28.5920   45.6400 C   0  0  0  0  0  0  0  0  0  0  0  0
   60.5006   28.1329   50.1106 H   0  0  0  0  0  0  0  0  0  0  0  0
   61.2828   29.5262   49.2900 H   0  0  0  0  0  0  0  0  0  0  0  0
   59.4931   29.3731   49.2900 H   0  0  0  0  0  0  0  0  0  0  0  0
   57.8875   28.2496   47.9671 H   0  0  0  0  0  0  0  0  0  0  0  0
   56.4904   28.7700   45.9722 H   0  0  0  0  0  0  0  0  0  0  0  0
   56.6260   28.5830   43.3280 H   0  0  0  0  0  0  0  0  0  0  0  0
   57.9880   29.2770   42.6230 H   0  0  0  0  0  0  0  0  0  0  0  0
   56.2407   30.8750   42.6873 H   0  0  0  0  0  0  0  0  0  0  0  0
   56.1242   30.6284   44.4831 H   0  0  0  0  0  0  0  0  0  0  0  0
   58.7511   31.2533   44.2901 H   0  0  0  0  0  0  0  0  0  0  0  0
   58.1064   32.1763   42.8704 H   0  0  0  0  0  0  0  0  0  0  0  0
   56.8203   33.0778   46.7560 H   0  0  0  0  0  0  0  0  0  0  0  0
   56.9685   31.3497   46.2123 H   0  0  0  0  0  0  0  0  0  0  0  0
   59.0237   31.5813   47.5127 H   0  0  0  0  0  0  0  0  0  0  0  0
   60.6748   31.2522   48.0604 H   0  0  0  0  0  0  0  0  0  0  0  0
   62.9809   31.0426   48.9863 H   0  0  0  0  0  0  0  0  0  0  0  0
   64.7717   32.6194   48.2550 H   0  0  0  0  0  0  0  0  0  0  0  0
   64.2559   34.4122   46.5964 H   0  0  0  0  0  0  0  0  0  0  0  0
   61.9549   34.6280   45.6598 H   0  0  0  0  0  0  0  0  0  0  0  0
   59.9210   34.9864   45.2886 H   0  0  0  0  0  0  0  0  0  0  0  0
   60.1235   33.5376   44.1946 H   0  0  0  0  0  0  0  0  0  0  0  0
   57.5909   34.8255   45.2270 H   0  0  0  0  0  0  0  0  0  0  0  0
   58.0760   34.3434   43.5386 H   0  0  0  0  0  0  0  0  0  0  0  0
   60.0685   29.0641   43.5468 H   0  0  0  0  0  0  0  0  0  0  0  0
   61.4636   28.5402   45.5443 H   0  0  0  0  0  0  0  0  0  0  0  0
  1  2  1  0
  2  3  1  0
  3  4  2  0
  4  5  1  0
  5  6  2  0
  6  7  1  0
  7  8  1  0
  8  9  1  0
  9 10  1  0
 10 11  1  0
 11 12  1  0
 12 13  2  0
 13 14  1  0
 14 15  2  0
 15 16  1  0
 16 17  2  0
 17 18  1  0
 18 19  2  0
 13 20  1  0
 20 21  1  0
  6 22  1  0
 22 23  2  0
 23  3  1  0
 21 10  1  0
 19 14  1  0
  1 24  1  0
  1 25  1  0
  1 26  1  0
  4 27  1  0
  5 28  1  0
  7 29  1  0
  7 30  1  0
  8 31  1  0
  8 32  1  0
  9 33  1  0
  9 34  1  0
 11 35  1  0
 11 36  1  0
 12 37  1  0
 15 38  1  0
 16 39  1  0
 17 40  1  0
 18 41  1  0
 19 42  1  0
 20 43  1  0
 20 44  1  0
 21 45  1  0
 21 46  1  0
 22 47  1  0
 23 48  1  0
M  CHG  1   7   1
M  END
>  <UniqueID>  (23) 
22

>  <SMILES>  (23) 
COc1ccc([NH2+]CCN2CC=C(c3ccccc3)CC2)cc1

>  <Energy>  (23) 
59.48592348162851

>  <Genealogy>  (23) 
COc1ccc([NH2+]CCN2CC=C(c3ccccc3)CC2)cc1 (protonated)
COc1ccc([NH2+]CCN2CC=C(c3ccccc3)CC2)cc1 (3D coordinates assigned)
COc1ccc([NH2+]CCN2CC=C(c3ccccc3)CC2)cc1 (nonaromatic ring conformer: 59.48592348162851 kcal/mol)

>  <smiles>  (23) 
COc1ccc(NCCN2CC=C(c3ccccc3)CC2)cc1

>  <score_type>  (23) 
oracle

>  <origin>  (23) 
adg

>  <m_score__min__energy>  (23) 
-6.25

>  <m_primary>  (23) 
energy

$$$$
23:0
     RDKit          3D

 35 37  0  0  0  0  0  0  0  0999 V2000
   58.0840   32.3130   43.0890 O   0  0  0  0  0  0  0  0  0  0  0  0
   57.3120   31.5920   43.7830 C   0  0  0  0  0  0  0  0  0  0  0  0
   56.7880   30.3130   43.2150 C   0  0  0  0  0  0  0  0  0  0  0  0
   57.0660   29.2130   44.1330 N   0  0  0  0  0  0  0  0  0  0  0  0
   57.4150   27.9950   43.7540 N   0  0  0  0  0  0  0  0  0  0  0  0
   57.4900   27.3090   44.9170 C   0  0  0  0  0  0  0  0  0  0  0  0
   57.8220   25.8830   45.0070 C   0  0  0  0  0  0  0  0  0  0  0  0
   58.7020   25.3010   45.9140 C   0  0  0  0  0  0  0  0  0  0  0  0
   58.7940   23.9070   45.7800 C   0  0  0  0  0  0  0  0  0  0  0  0
   57.9940   23.3910   44.7680 C   0  0  0  0  0  0  0  0  0  0  0  0
   57.1640   24.6650   44.0450 S   0  0  0  0  0  0  0  0  0  0  0  0
   57.1760   28.0860   45.9790 N   0  0  0  0  0  0  0  0  0  0  0  0
   56.9170   29.2680   45.4460 N   0  0  0  0  0  0  0  0  0  0  0  0
   56.9940   31.9460   45.1340 N   0  0  0  0  0  0  0  0  0  0  0  0
   57.8600   32.6430   46.0420 C   0  0  0  0  0  0  0  0  0  0  0  0
   58.0620   34.0140   45.8410 C   0  0  0  0  0  0  0  0  0  0  0  0
   58.8890   34.7410   46.6990 C   0  0  0  0  0  0  0  0  0  0  0  0
   59.5430   34.0960   47.7510 C   0  0  0  0  0  0  0  0  0  0  0  0
   59.3800   32.7200   47.9440 C   0  0  0  0  0  0  0  0  0  0  0  0
   58.5480   31.9730   47.0830 C   0  0  0  0  0  0  0  0  0  0  0  0
   58.4030   30.5820   47.2150 O   0  0  0  0  0  0  0  0  0  0  0  0
   59.4670   29.6330   47.2380 C   0  0  0  0  0  0  0  0  0  0  0  0
   60.5680   30.1630   47.8890 F   0  0  0  0  0  0  0  0  0  0  0  0
   59.0480   28.5050   47.9190 F   0  0  0  0  0  0  0  0  0  0  0  0
   59.8090   29.2730   45.9470 F   0  0  0  0  0  0  0  0  0  0  0  0
   55.7015   30.3980   43.0655 H   0  0  0  0  0  0  0  0  0  0  0  0
   57.2807   30.1150   42.2516 H   0  0  0  0  0  0  0  0  0  0  0  0
   59.2688   25.8758   46.6612 H   0  0  0  0  0  0  0  0  0  0  0  0
   59.4384   23.2822   46.4159 H   0  0  0  0  0  0  0  0  0  0  0  0
   57.9161   22.3304   44.4869 H   0  0  0  0  0  0  0  0  0  0  0  0
   56.6230   30.1100   45.9880 H   0  0  0  0  0  0  0  0  0  0  0  0
   57.5654   34.5217   45.0010 H   0  0  0  0  0  0  0  0  0  0  0  0
   59.0256   35.8218   46.5465 H   0  0  0  0  0  0  0  0  0  0  0  0
   60.1886   34.6720   48.4303 H   0  0  0  0  0  0  0  0  0  0  0  0
   59.9031   32.2178   48.7711 H   0  0  0  0  0  0  0  0  0  0  0  0
  1  2  2  0
  2  3  1  0
  3  4  1  0
  4  5  1  0
  5  6  2  0
  6  7  1  0
  7  8  2  0
  8  9  1  0
  9 10  2  0
 10 11  1  0
  6 12  1  0
 12 13  2  0
  2 14  1  0
 14 15  1  0
 15 16  2  0
 16 17  1  0
 17 18  2  0
 18 19  1  0
 19 20  2  0
 20 21  1  0
 21 22  1  0
 22 23  1  0
 22 24  1  0
 22 25  1  0
 13  4  1  0
 20 15  1  0
 11  7  1  0
  3 26  1  0
  3 27  1  0
  8 28  1  0
  9 29  1  0
 10 30  1  0
 13 31  1  0
 16 32  1  0
 17 33  1  0
 18 34  1  0
 19 35  1  0
M  CHG  2  13   1  14  -1
M  END
>  <UniqueID>  (24) 
23

>  <SMILES>  (24) 
O=C(Cn1nc(-c2cccs2)n[nH+]1)[N-]c1ccccc1OC(F)(F)F

>  <Energy>  (24) 
104.98162524353975

>  <Genealogy>  (24) 
O=C(Cn1nc(-c2cccs2)n[nH+]1)[N-]c1ccccc1OC(F)(F)F (protonated)
O=C(Cn1nc(-c2cccs2)n[nH+]1)[N-]c1ccccc1OC(F)(F)F (3D coordinates assigned)
O=C(Cn1nc(-c2cccs2)n[nH+]1)[N-]c1ccccc1OC(F)(F)F (optimized conformer: 104.98162524353975 kcal/mol)

>  <smiles>  (24) 
O=C(Cn1nnc(-c2cccs2)n1)Nc1ccccc1OC(F)(F)F

>  <score_type>  (24) 
oracle

>  <origin>  (24) 
adg

>  <m_score__min__energy>  (24) 
-8.8100000000000005

>  <m_primary>  (24) 
energy

$$$$
24:0
     RDKit          3D

 29 31  0  0  0  0  0  0  0  0999 V2000
   60.3100   34.0270   48.1330 C   0  0  0  0  0  0  0  0  0  0  0  0
   59.5490   33.9000   46.8500 C   0  0  0  0  0  0  0  0  0  0  0  0
   59.2580   34.9630   46.0700 N   0  0  0  0  0  0  0  0  0  0  0  0
   58.6060   34.4350   45.0150 C   0  0  0  0  0  0  0  0  0  0  0  0
   58.5000   33.0700   45.1740 C   0  0  0  0  0  0  0  0  0  0  0  0
   57.8120   32.1570   44.2370 C   0  0  0  0  0  0  0  0  0  0  0  0
   57.7600   32.2640   42.8500 C   0  0  0  0  0  0  0  0  0  0  0  0
   57.0640   31.2140   42.2380 C   0  0  0  0  0  0  0  0  0  0  0  0
   56.5770   30.2710   43.1320 C   0  0  0  0  0  0  0  0  0  0  0  0
   57.0160   30.7430   44.6840 S   0  0  0  0  0  0  0  0  0  0  0  0
   59.0950   32.7330   46.3380 N   0  0  0  0  0  0  0  0  0  0  0  0
   59.3380   31.4150   46.8600 C   0  0  0  0  0  0  0  0  0  0  0  0
   58.8880   31.0680   48.1420 C   0  0  0  0  0  0  0  0  0  0  0  0
   59.1260   29.7860   48.6480 C   0  0  0  0  0  0  0  0  0  0  0  0
   59.8160   28.8460   47.8770 C   0  0  0  0  0  0  0  0  0  0  0  0
   60.0450   27.6030   48.3680 F   0  0  0  0  0  0  0  0  0  0  0  0
   60.2690   29.1870   46.5990 C   0  0  0  0  0  0  0  0  0  0  0  0
   60.0340   30.4680   46.0920 C   0  0  0  0  0  0  0  0  0  0  0  0
   59.6197   33.9118   48.9817 H   0  0  0  0  0  0  0  0  0  0  0  0
   61.0825   33.2454   48.1800 H   0  0  0  0  0  0  0  0  0  0  0  0
   60.7869   35.0171   48.1800 H   0  0  0  0  0  0  0  0  0  0  0  0
   58.2180   35.0059   44.1585 H   0  0  0  0  0  0  0  0  0  0  0  0
   58.2201   33.0915   42.2900 H   0  0  0  0  0  0  0  0  0  0  0  0
   56.9171   31.1434   41.1501 H   0  0  0  0  0  0  0  0  0  0  0  0
   56.0028   29.3701   42.8700 H   0  0  0  0  0  0  0  0  0  0  0  0
   58.3462   31.8062   48.7515 H   0  0  0  0  0  0  0  0  0  0  0  0
   58.7699   29.5172   49.6535 H   0  0  0  0  0  0  0  0  0  0  0  0
   60.8107   28.4465   45.9922 H   0  0  0  0  0  0  0  0  0  0  0  0
   60.3955   30.7351   45.0880 H   0  0  0  0  0  0  0  0  0  0  0  0
  1  2  1  0
  2  3  2  0
  3  4  1  0
  4  5  2  0
  5  6  1  0
  6  7  2  0
  7  8  1  0
  8  9  2  0
  9 10  1  0
  5 11  1  0
 11 12  1  0
 12 13  2  0
 13 14  1  0
 14 15  2  0
 15 16  1  0
 15 17  1  0
 17 18  2  0
 11  2  1  0
 18 12  1  0
 10  6  1  0
  1 19  1  0
  1 20  1  0
  1 21  1  0
  4 22  1  0
  7 23  1  0
  8 24  1  0
  9 25  1  0
 13 26  1  0
 14 27  1  0
 17 28  1  0
 18 29  1  0
M  END
>  <UniqueID>  (25) 
24

>  <SMILES>  (25) 
Cc1ncc(-c2cccs2)n1-c1ccc(F)cc1

>  <Energy>  (25) 
94.08143129271566

>  <Genealogy>  (25) 
Cc1ncc(-c2cccs2)n1-c1ccc(F)cc1 (3D coordinates assigned)
Cc1ncc(-c2cccs2)n1-c1ccc(F)cc1 (optimized conformer: 94.08143129271566 kcal/mol)

>  <smiles>  (25) 
Cc1ncc(-c2cccs2)n1-c1ccc(F)cc1

>  <score_type>  (25) 
oracle

>  <origin>  (25) 
adg

>  <m_score__min__energy>  (25) 
-5.9699999999999998

>  <m_primary>  (25) 
energy

$$$$
25:0
     RDKit          3D

 31 33  0  0  0  0  0  0  0  0999 V2000
   62.0160   33.2210   47.0990 C   0  0  0  0  0  0  0  0  0  0  0  0
   60.7140   33.7840   46.9710 O   0  0  0  0  0  0  0  0  0  0  0  0
   59.6230   33.1380   46.3690 C   0  0  0  0  0  0  0  0  0  0  0  0
   58.6540   33.9250   45.7400 C   0  0  0  0  0  0  0  0  0  0  0  0
   57.5550   33.3360   45.1140 C   0  0  0  0  0  0  0  0  0  0  0  0
   57.4050   31.9460   45.1160 C   0  0  0  0  0  0  0  0  0  0  0  0
   56.3610   31.4030   44.4970 O   0  0  0  0  0  0  0  0  0  0  0  0
   56.1590   30.0920   44.4490 C   0  0  0  0  0  0  0  0  0  0  0  0
   55.1530   29.6400   43.8420 O   0  0  0  0  0  0  0  0  0  0  0  0
   57.0510   29.2150   45.0700 C   0  0  0  0  0  0  0  0  0  0  0  0
   58.1610   29.7290   45.7520 C   0  0  0  0  0  0  0  0  0  0  0  0
   59.0660   28.7840   46.4430 C   0  0  0  0  0  0  0  0  0  0  0  0
   59.7740   27.8180   45.7080 C   0  0  0  0  0  0  0  0  0  0  0  0
   60.6150   26.9120   46.3610 C   0  0  0  0  0  0  0  0  0  0  0  0
   60.7480   26.9570   47.7530 C   0  0  0  0  0  0  0  0  0  0  0  0
   60.0360   27.9060   48.4930 C   0  0  0  0  0  0  0  0  0  0  0  0
   59.1940   28.8140   47.8420 C   0  0  0  0  0  0  0  0  0  0  0  0
   58.3610   31.1300   45.7680 C   0  0  0  0  0  0  0  0  0  0  0  0
   59.4790   31.7370   46.3770 C   0  0  0  0  0  0  0  0  0  0  0  0
   62.2656   33.1131   48.1648 H   0  0  0  0  0  0  0  0  0  0  0  0
   62.0375   32.2332   46.6155 H   0  0  0  0  0  0  0  0  0  0  0  0
   62.7504   33.8819   46.6155 H   0  0  0  0  0  0  0  0  0  0  0  0
   58.7590   35.0200   45.7386 H   0  0  0  0  0  0  0  0  0  0  0  0
   56.8039   33.9675   44.6171 H   0  0  0  0  0  0  0  0  0  0  0  0
   56.8830   28.1289   45.0238 H   0  0  0  0  0  0  0  0  0  0  0  0
   59.6660   27.7745   44.6142 H   0  0  0  0  0  0  0  0  0  0  0  0
   61.1727   26.1630   45.7797 H   0  0  0  0  0  0  0  0  0  0  0  0
   61.4127   26.2458   48.2653 H   0  0  0  0  0  0  0  0  0  0  0  0
   60.1380   27.9387   49.5878 H   0  0  0  0  0  0  0  0  0  0  0  0
   58.6298   29.5546   48.4278 H   0  0  0  0  0  0  0  0  0  0  0  0
   60.2436   31.1120   46.8615 H   0  0  0  0  0  0  0  0  0  0  0  0
  1  2  1  0
  2  3  1  0
  3  4  2  0
  4  5  1  0
  5  6  2  0
  6  7  1  0
  7  8  1  0
  8  9  2  0
  8 10  1  0
 10 11  2  0
 11 12  1  0
 12 13  2  0
 13 14  1  0
 14 15  2  0
 15 16  1  0
 16 17  2  0
 11 18  1  0
 18 19  2  0
 19  3  1  0
 18  6  1  0
 17 12  1  0
  1 20  1  0
  1 21  1  0
  1 22  1  0
  4 23  1  0
  5 24  1  0
 10 25  1  0
 13 26  1  0
 14 27  1  0
 15 28  1  0
 16 29  1  0
 17 30  1  0
 19 31  1  0
M  END
>  <UniqueID>  (26) 
25

>  <SMILES>  (26) 
COc1ccc2oc(=O)cc(-c3ccccc3)c2c1

>  <Energy>  (26) 
45.579762882042104

>  <Genealogy>  (26) 
COc1ccc2oc(=O)cc(-c3ccccc3)c2c1 (3D coordinates assigned)
COc1ccc2oc(=O)cc(-c3ccccc3)c2c1 (optimized conformer: 45.579762882042104 kcal/mol)

>  <smiles>  (26) 
COc1ccc2oc(=O)cc(-c3ccccc3)c2c1

>  <score_type>  (26) 
oracle

>  <origin>  (26) 
adg

>  <m_score__min__energy>  (26) 
-6.54

>  <m_primary>  (26) 
energy

$$$$
26:0
     RDKit          3D

 38 39  0  0  0  0  0  0  0  0999 V2000
   59.3230   34.8470   46.6440 C   0  0  0  0  0  0  0  0  0  0  0  0
   58.7610   33.6960   45.8640 C   0  0  0  0  0  0  0  0  0  0  0  0
   58.3590   33.8760   44.5340 C   0  0  0  0  0  0  0  0  0  0  0  0
   57.7950   32.8180   43.8150 C   0  0  0  0  0  0  0  0  0  0  0  0
   57.6280   31.5600   44.4180 C   0  0  0  0  0  0  0  0  0  0  0  0
   57.0150   30.4170   43.6500 C   0  0  0  0  0  0  0  0  0  0  0  0
   56.0150   29.3500   44.7540 S   0  0  0  0  0  0  0  0  0  0  0  0
   57.1580   27.9170   44.8520 C   0  0  0  0  0  0  0  0  0  0  0  0
   56.9240   27.0180   46.0700 C   0  0  0  0  0  0  0  0  0  0  0  0
   55.5200   26.6420   46.1760 N   0  0  0  0  0  0  0  0  0  0  0  0
   55.0010   25.4200   45.6450 C   0  0  0  0  0  0  0  0  0  0  0  0
   53.7510   25.2660   45.5670 O   0  0  0  0  0  0  0  0  0  0  0  0
   55.9070   24.3590   45.1290 C   0  0  0  0  0  0  0  0  0  0  0  0
   55.8390   24.0350   43.7570 C   0  0  0  0  0  0  0  0  0  0  0  0
   56.6920   23.0800   43.2030 C   0  0  0  0  0  0  0  0  0  0  0  0
   57.6290   22.4320   44.0020 C   0  0  0  0  0  0  0  0  0  0  0  0
   57.7080   22.7260   45.3620 C   0  0  0  0  0  0  0  0  0  0  0  0
   56.8550   23.6770   45.9380 C   0  0  0  0  0  0  0  0  0  0  0  0
   57.0220   23.9180   47.8370 Br  0  0  0  0  0  0  0  0  0  0  0  0
   58.0020   31.3920   45.7630 C   0  0  0  0  0  0  0  0  0  0  0  0
   58.5660   32.4510   46.4790 C   0  0  0  0  0  0  0  0  0  0  0  0
   59.2237   34.6437   47.7205 H   0  0  0  0  0  0  0  0  0  0  0  0
   60.3858   34.9767   46.3918 H   0  0  0  0  0  0  0  0  0  0  0  0
   58.7717   35.7648   46.3918 H   0  0  0  0  0  0  0  0  0  0  0  0
   58.4880   34.8564   44.0522 H   0  0  0  0  0  0  0  0  0  0  0  0
   57.4804   32.9712   42.7721 H   0  0  0  0  0  0  0  0  0  0  0  0
   56.3684   30.8214   42.8573 H   0  0  0  0  0  0  0  0  0  0  0  0
   57.8239   29.8121   43.2145 H   0  0  0  0  0  0  0  0  0  0  0  0
   57.0305   27.3097   43.9438 H   0  0  0  0  0  0  0  0  0  0  0  0
   58.1747   28.3258   44.9477 H   0  0  0  0  0  0  0  0  0  0  0  0
   57.5340   26.1082   45.9688 H   0  0  0  0  0  0  0  0  0  0  0  0
   57.2090   27.5724   46.9763 H   0  0  0  0  0  0  0  0  0  0  0  0
   55.1033   24.5424   43.1156 H   0  0  0  0  0  0  0  0  0  0  0  0
   56.6236   22.8387   42.1320 H   0  0  0  0  0  0  0  0  0  0  0  0
   58.3075   21.6875   43.5601 H   0  0  0  0  0  0  0  0  0  0  0  0
   58.4472   22.2065   45.9895 H   0  0  0  0  0  0  0  0  0  0  0  0
   57.8495   30.4200   46.2550 H   0  0  0  0  0  0  0  0  0  0  0  0
   58.8583   32.3075   47.5297 H   0  0  0  0  0  0  0  0  0  0  0  0
  1  2  1  0
  2  3  2  0
  3  4  1  0
  4  5  2  0
  5  6  1  0
  6  7  1  0
  7  8  1  0
  8  9  1  0
  9 10  1  0
 10 11  1  0
 11 12  2  0
 11 13  1  0
 13 14  2  0
 14 15  1  0
 15 16  2  0
 16 17  1  0
 17 18  2  0
 18 19  1  0
  5 20  1  0
 20 21  2  0
 21  2  1  0
 18 13  1  0
  1 22  1  0
  1 23  1  0
  1 24  1  0
  3 25  1  0
  4 26  1  0
  6 27  1  0
  6 28  1  0
  8 29  1  0
  8 30  1  0
  9 31  1  0
  9 32  1  0
 14 33  1  0
 15 34  1  0
 16 35  1  0
 17 36  1  0
 20 37  1  0
 21 38  1  0
M  CHG  1  10  -1
M  END
>  <UniqueID>  (27) 
26

>  <SMILES>  (27) 
Cc1ccc(CSCC[N-]C(=O)c2ccccc2Br)cc1

>  <Energy>  (27) 
31.880275377360693

>  <Genealogy>  (27) 
Cc1ccc(CSCC[N-]C(=O)c2ccccc2Br)cc1 (protonated)
Cc1ccc(CSCC[N-]C(=O)c2ccccc2Br)cc1 (3D coordinates assigned)
Cc1ccc(CSCC[N-]C(=O)c2ccccc2Br)cc1 (optimized conformer: 31.880275377360693 kcal/mol)

>  <smiles>  (27) 
Cc1ccc(CSCCNC(=O)c2ccccc2Br)cc1

>  <score_type>  (27) 
oracle

>  <origin>  (27) 
adg

>  <m_score__min__energy>  (27) 
-10.01

>  <m_primary>  (27) 
energy

$$$$
27:0
     RDKit          3D

 52 55  0  0  0  0  0  0  0  0999 V2000
   57.8750   32.7300   42.9760 C   0  0  0  0  0  0  0  0  0  0  0  0
   57.7690   31.2860   43.3680 C   0  0  0  0  0  0  0  0  0  0  0  0
   56.8610   30.4440   42.7150 C   0  0  0  0  0  0  0  0  0  0  0  0
   56.7400   29.1070   43.0950 C   0  0  0  0  0  0  0  0  0  0  0  0
   57.5120   28.5940   44.1480 C   0  0  0  0  0  0  0  0  0  0  0  0
   57.4040   27.2790   44.4980 N   0  0  0  0  0  0  0  0  0  0  0  0
   58.1600   26.7390   45.4960 C   0  0  0  0  0  0  0  0  0  0  0  0
   57.9980   25.2960   45.8690 C   0  0  0  0  0  0  0  0  0  0  0  0
   59.0390   27.5500   46.2200 C   0  0  0  0  0  0  0  0  0  0  0  0
   59.1530   28.9100   45.9180 C   0  0  0  0  0  0  0  0  0  0  0  0
   60.0670   29.7310   46.7350 C   0  0  0  0  0  0  0  0  0  0  0  0
   61.2330   30.2180   46.2690 N   0  0  0  0  0  0  0  0  0  0  0  0
   61.8150   30.8540   47.2740 N   0  0  0  0  0  0  0  0  0  0  0  0
   61.0050   30.7330   48.3440 C   0  0  0  0  0  0  0  0  0  0  0  0
   61.3390   31.3100   49.6910 C   0  0  0  0  0  0  0  0  0  0  0  0
   60.5120   32.5550   50.0530 C   0  0  0  0  0  0  0  0  0  0  0  0
   60.7380   33.7550   49.1150 C   0  0  0  0  0  0  0  0  0  0  0  0
   59.7410   33.8150   47.9840 C   0  0  0  0  0  0  0  0  0  0  0  0
   60.0110   34.5800   46.8360 C   0  0  0  0  0  0  0  0  0  0  0  0
   59.0910   34.6230   45.7840 C   0  0  0  0  0  0  0  0  0  0  0  0
   57.9020   33.8940   45.8620 C   0  0  0  0  0  0  0  0  0  0  0  0
   57.6300   33.1210   46.9940 C   0  0  0  0  0  0  0  0  0  0  0  0
   58.5480   33.0730   48.0470 C   0  0  0  0  0  0  0  0  0  0  0  0
   59.8840   30.0440   48.0360 N   0  0  0  0  0  0  0  0  0  0  0  0
   58.8400   29.5640   48.9390 C   0  0  0  0  0  0  0  0  0  0  0  0
   58.4050   29.4450   44.8440 C   0  0  0  0  0  0  0  0  0  0  0  0
   58.5300   30.7900   44.4370 C   0  0  0  0  0  0  0  0  0  0  0  0
   57.9208   33.3533   43.8812 H   0  0  0  0  0  0  0  0  0  0  0  0
   58.7867   32.8821   42.3797 H   0  0  0  0  0  0  0  0  0  0  0  0
   56.9953   33.0136   42.3797 H   0  0  0  0  0  0  0  0  0  0  0  0
   56.2395   30.8387   41.8977 H   0  0  0  0  0  0  0  0  0  0  0  0
   56.0342   28.4504   42.5651 H   0  0  0  0  0  0  0  0  0  0  0  0
   56.7330   26.6630   43.9840 H   0  0  0  0  0  0  0  0  0  0  0  0
   57.9872   25.1995   46.9647 H   0  0  0  0  0  0  0  0  0  0  0  0
   57.0514   24.9151   45.4580 H   0  0  0  0  0  0  0  0  0  0  0  0
   58.8365   24.7147   45.4580 H   0  0  0  0  0  0  0  0  0  0  0  0
   59.6432   27.1162   47.0304 H   0  0  0  0  0  0  0  0  0  0  0  0
   61.1573   30.5386   50.4539 H   0  0  0  0  0  0  0  0  0  0  0  0
   62.3926   31.6238   49.6538 H   0  0  0  0  0  0  0  0  0  0  0  0
   59.4464   32.2843   50.0169 H   0  0  0  0  0  0  0  0  0  0  0  0
   60.8366   32.8707   51.0555 H   0  0  0  0  0  0  0  0  0  0  0  0
   60.6562   34.6805   49.7039 H   0  0  0  0  0  0  0  0  0  0  0  0
   61.7364   33.6397   48.6679 H   0  0  0  0  0  0  0  0  0  0  0  0
   60.9506   35.1475   46.7650 H   0  0  0  0  0  0  0  0  0  0  0  0
   59.3039   35.2321   44.8931 H   0  0  0  0  0  0  0  0  0  0  0  0
   57.1801   33.9284   45.0327 H   0  0  0  0  0  0  0  0  0  0  0  0
   56.6922   32.5495   47.0565 H   0  0  0  0  0  0  0  0  0  0  0  0
   58.3362   32.4516   48.9296 H   0  0  0  0  0  0  0  0  0  0  0  0
   59.1603   29.7113   49.9810 H   0  0  0  0  0  0  0  0  0  0  0  0
   57.9118   30.1257   48.7578 H   0  0  0  0  0  0  0  0  0  0  0  0
   58.6621   28.4937   48.7578 H   0  0  0  0  0  0  0  0  0  0  0  0
   59.2304   31.4557   44.9626 H   0  0  0  0  0  0  0  0  0  0  0  0
  1  2  1  0
  2  3  2  0
  3  4  1  0
  4  5  2  0
  5  6  1  0
  6  7  2  0
  7  8  1  0
  7  9  1  0
  9 10  2  0
 10 11  1  0
 11 12  2  0
 12 13  1  0
 13 14  2  0
 14 15  1  0
 15 16  1  0
 16 17  1  0
 17 18  1  0
 18 19  2  0
 19 20  1  0
 20 21  2  0
 21 22  1  0
 22 23  2  0
 14 24  1  0
 24 25  1  0
 10 26  1  0
 26 27  2  0
 27  2  1  0
 26  5  1  0
 24 11  1  0
 23 18  1  0
  1 28  1  0
  1 29  1  0
  1 30  1  0
  3 31  1  0
  4 32  1  0
  6 33  1  0
  8 34  1  0
  8 35  1  0
  8 36  1  0
  9 37  1  0
 15 38  1  0
 15 39  1  0
 16 40  1  0
 16 41  1  0
 17 42  1  0
 17 43  1  0
 19 44  1  0
 20 45  1  0
 21 46  1  0
 22 47  1  0
 23 48  1  0
 25 49  1  0
 25 50  1  0
 25 51  1  0
 27 52  1  0
M  CHG  1   6   1
M  END
>  <UniqueID>  (28) 
27

>  <SMILES>  (28) 
Cc1ccc2[nH+]c(C)cc(-c3nnc(CCCc4ccccc4)n3C)c2c1

>  <Energy>  (28) 
92.87992345737142

>  <Genealogy>  (28) 
Cc1ccc2[nH+]c(C)cc(-c3nnc(CCCc4ccccc4)n3C)c2c1 (protonated)
Cc1ccc2[nH+]c(C)cc(-c3nnc(CCCc4ccccc4)n3C)c2c1 (3D coordinates assigned)
Cc1ccc2[nH+]c(C)cc(-c3nnc(CCCc4ccccc4)n3C)c2c1 (optimized conformer: 92.87992345737142 kcal/mol)

>  <smiles>  (28) 
Cc1ccc2nc(C)cc(-c3nnc(CCCc4ccccc4)n3C)c2c1

>  <score_type>  (28) 
oracle

>  <origin>  (28) 
adg

>  <m_score__min__energy>  (28) 
-7.3600000000000003

>  <m_primary>  (28) 
energy

$$$$
28:0
     RDKit          3D

 58 57  0  0  0  0  0  0  0  0999 V2000
   59.6881   32.9217   48.5180 H   0  0  0  0  0  0  0  0  0  0  0  0
   59.5610   32.7930   47.4330 C   0  0  0  0  0  0  0  0  0  0  0  0
   60.2100   33.6520   46.6200 C   0  0  0  0  0  0  0  0  0  0  0  0
   59.1800   34.6560   45.3550 Br  0  0  0  0  0  0  0  0  0  0  0  0
   61.7060   33.8510   46.6280 C   0  0  0  0  0  0  0  0  0  0  0  0
   62.0705   33.8778   45.5905 H   0  0  0  0  0  0  0  0  0  0  0  0
   61.9300   34.7980   47.1408 H   0  0  0  0  0  0  0  0  0  0  0  0
   62.4060   32.7190   47.3730 C   0  0  0  0  0  0  0  0  0  0  0  0
   62.3079   32.8777   48.4571 H   0  0  0  0  0  0  0  0  0  0  0  0
   61.9436   31.7591   47.0996 H   0  0  0  0  0  0  0  0  0  0  0  0
   63.4714   32.7038   47.0996 H   0  0  0  0  0  0  0  0  0  0  0  0
   58.6730   31.6680   46.9600 C   0  0  0  0  0  0  0  0  0  0  0  0
   58.0054   32.0459   46.1716 H   0  0  0  0  0  0  0  0  0  0  0  0
   58.0923   31.2999   47.8187 H   0  0  0  0  0  0  0  0  0  0  0  0
   59.4700   30.5440   46.4190 N   0  0  0  0  0  0  0  0  0  0  0  0
   59.0480   30.1890   45.0410 C   0  0  0  0  0  0  0  0  0  0  0  0
   59.9299   30.1961   44.3835 H   0  0  0  0  0  0  0  0  0  0  0  0
   58.5881   29.1901   45.0661 H   0  0  0  0  0  0  0  0  0  0  0  0
   58.0110   31.1860   44.4980 C   0  0  0  0  0  0  0  0  0  0  0  0
   58.0204   32.0854   45.1313 H   0  0  0  0  0  0  0  0  0  0  0  0
   58.2845   31.4217   43.4589 H   0  0  0  0  0  0  0  0  0  0  0  0
   56.6530   30.6310   44.4880 C   0  0  0  0  0  0  0  0  0  0  0  0
   55.5830   30.1910   44.4860 N   0  0  0  0  0  0  0  0  0  0  0  0
   59.4530   29.3710   47.3360 C   0  0  0  0  0  0  0  0  0  0  0  0
   58.4691   29.3056   47.8234 H   0  0  0  0  0  0  0  0  0  0  0  0
   60.2408   29.4971   48.0933 H   0  0  0  0  0  0  0  0  0  0  0  0
   59.7160   28.0810   46.5530 C   0  0  0  0  0  0  0  0  0  0  0  0
   60.5710   27.5586   47.0071 H   0  0  0  0  0  0  0  0  0  0  0  0
   59.9247   28.3556   45.5085 H   0  0  0  0  0  0  0  0  0  0  0  0
   58.5000   27.1410   46.5610 C   0  0  0  0  0  0  0  0  0  0  0  0
   57.8691   27.3832   47.4289 H   0  0  0  0  0  0  0  0  0  0  0  0
   58.8695   26.1064   46.6155 H   0  0  0  0  0  0  0  0  0  0  0  0
   57.6630   27.2790   45.2870 C   0  0  0  0  0  0  0  0  0  0  0  0
   57.8494   26.4150   44.6322 H   0  0  0  0  0  0  0  0  0  0  0  0
   57.9444   28.2062   44.7663 H   0  0  0  0  0  0  0  0  0  0  0  0
   56.2490   27.3300   45.6290 N   0  0  0  0  0  0  0  0  0  0  0  0
   55.5130   26.2230   46.1560 C   0  0  0  0  0  0  0  0  0  0  0  0
   56.0310   25.4670   47.0200 O   0  0  0  0  0  0  0  0  0  0  0  0
   54.1850   25.9580   45.6930 N   0  0  0  0  0  0  0  0  0  0  0  0
   53.6840   24.6120   45.4250 C   0  0  0  0  0  0  0  0  0  0  0  0
   53.0868   24.6272   44.5014 H   0  0  0  0  0  0  0  0  0  0  0  0
   53.0661   24.2907   46.2765 H   0  0  0  0  0  0  0  0  0  0  0  0
   54.8420   23.6210   45.2580 C   0  0  0  0  0  0  0  0  0  0  0  0
   54.4666   22.5998   45.4200 H   0  0  0  0  0  0  0  0  0  0  0  0
   55.6215   23.8686   45.9936 H   0  0  0  0  0  0  0  0  0  0  0  0
   55.4510   23.7130   43.8560 C   0  0  0  0  0  0  0  0  0  0  0  0
   56.0647   24.6232   43.7861 H   0  0  0  0  0  0  0  0  0  0  0  0
   54.6388   23.7479   43.1150 H   0  0  0  0  0  0  0  0  0  0  0  0
   56.3080   22.5180   43.5820 C   0  0  0  0  0  0  0  0  0  0  0  0
   56.1240   21.8330   42.5390 O   0  0  0  0  0  0  0  0  0  0  0  0
   57.2810   22.1530   44.5180 O   0  0  0  0  0  0  0  0  0  0  0  0
   58.3480   23.0150   44.8990 C   0  0  0  0  0  0  0  0  0  0  0  0
   58.1616   23.4050   45.9105 H   0  0  0  0  0  0  0  0  0  0  0  0
   58.4141   23.8538   44.1904 H   0  0  0  0  0  0  0  0  0  0  0  0
   59.6540   22.2360   44.8880 C   0  0  0  0  0  0  0  0  0  0  0  0
   59.9753   22.0443   45.9224 H   0  0  0  0  0  0  0  0  0  0  0  0
   59.5056   21.2787   44.3668 H   0  0  0  0  0  0  0  0  0  0  0  0
   60.4258   22.8214   44.3668 H   0  0  0  0  0  0  0  0  0  0  0  0
  1  2  1  0
  2  3  2  0
  3  4  1  0
  3  5  1  0
  5  6  1  0
  5  7  1  0
  5  8  1  0
  8  9  1  0
  8 10  1  0
  8 11  1  0
  2 12  1  0
 12 13  1  0
 12 14  1  0
 12 15  1  0
 15 16  1  0
 16 17  1  0
 16 18  1  0
 16 19  1  0
 19 20  1  0
 19 21  1  0
 19 22  1  0
 22 23  3  0
 15 24  1  0
 24 25  1  0
 24 26  1  0
 24 27  1  0
 27 28  1  0
 27 29  1  0
 27 30  1  0
 30 31  1  0
 30 32  1  0
 30 33  1  0
 33 34  1  0
 33 35  1  0
 33 36  1  0
 36 37  1  0
 37 38  2  0
 37 39  1  0
 39 40  1  0
 40 41  1  0
 40 42  1  0
 40 43  1  0
 43 44  1  0
 43 45  1  0
 43 46  1  0
 46 47  1  0
 46 48  1  0
 46 49  1  0
 49 50  2  0
 49 51  1  0
 51 52  1  0
 52 53  1  0
 52 54  1  0
 52 55  1  0
 55 56  1  0
 55 57  1  0
 55 58  1  0
M  CHG  2  36  -1  39  -1
M  END
>  <UniqueID>  (29) 
28

>  <SMILES>  (29) 
CCOC(=O)CCC[N-]C(=O)[N-]CCCCN(C/C=C(/Br)CC)CCC#N

>  <Energy>  (29) 
27.35267423774087

>  <Genealogy>  (29) 
CCOC(=O)CCC[N-]C(=O)[N-]CCCCN(CC=C(Br)CC)CCC#N (protonated)
CCOC(=O)CCC[N-]C(=O)[N-]CCCCN(C/C=C(/Br)CC)CCC#N (cis-trans isomerization)
CCOC(=O)CCC[N-]C(=O)[N-]CCCCN(C/C=C(/Br)CC)CCC#N (3D coordinates assigned)
CCOC(=O)CCC[N-]C(=O)[N-]CCCCN(C/C=C(/Br)CC)CCC#N (optimized conformer: 27.35267423774087 kcal/mol)

>  <smiles>  (29) 
CCOC(=O)CCCNC(=O)NCCCCN(CC=C(Br)CC)CCC#N

>  <score_type>  (29) 
oracle

>  <origin>  (29) 
adg

>  <m_score__min__energy>  (29) 
-10.75

>  <m_primary>  (29) 
energy

$$$$
29:0
     RDKit          3D

 64 67  0  0  0  0  0  0  0  0999 V2000
   61.8960   32.2100   52.1870 C   0  0  0  0  0  0  0  0  0  0  0  0
   62.7550   31.7160   51.1630 O   0  0  0  0  0  0  0  0  0  0  0  0
   64.0150   31.1330   51.3870 C   0  0  0  0  0  0  0  0  0  0  0  0
   64.1730   30.0260   52.2450 C   0  0  0  0  0  0  0  0  0  0  0  0
   65.4370   29.4710   52.4580 C   0  0  0  0  0  0  0  0  0  0  0  0
   66.5550   30.0140   51.8260 C   0  0  0  0  0  0  0  0  0  0  0  0
   66.4140   31.1090   50.9720 C   0  0  0  0  0  0  0  0  0  0  0  0
   65.1480   31.6730   50.7350 C   0  0  0  0  0  0  0  0  0  0  0  0
   65.0180   32.8650   49.8020 C   0  0  0  0  0  0  0  0  0  0  0  0
   63.7250   32.9260   49.0840 N   0  0  0  0  0  0  0  0  0  0  0  0
   63.7940   32.3420   47.7280 C   0  0  0  0  0  0  0  0  0  0  0  0
   62.4160   32.0620   47.1050 C   0  0  0  0  0  0  0  0  0  0  0  0
   61.2880   31.7980   48.1250 C   0  0  0  0  0  0  0  0  0  0  0  0
   60.9040   32.9590   48.9850 N   0  0  2  0  0  0  0  0  0  0  0  0
   59.4370   33.1860   48.9220 C   0  0  0  0  0  0  0  0  0  0  0  0
   58.9470   33.3500   47.5000 C   0  0  0  0  0  0  0  0  0  0  0  0
   59.2750   34.4970   46.7610 C   0  0  0  0  0  0  0  0  0  0  0  0
   58.8480   34.6270   45.4380 C   0  0  0  0  0  0  0  0  0  0  0  0
   58.0920   33.6150   44.8400 C   0  0  0  0  0  0  0  0  0  0  0  0
   57.7530   32.4580   45.5690 C   0  0  0  0  0  0  0  0  0  0  0  0
   56.9940   31.4120   45.0190 O   0  0  0  0  0  0  0  0  0  0  0  0
   57.4890   30.4160   44.1220 C   0  0  0  0  0  0  0  0  0  0  0  0
   58.3020   29.3870   44.8630 C   0  0  0  0  0  0  0  0  0  0  0  0
   59.7040   29.4640   44.8650 C   0  0  0  0  0  0  0  0  0  0  0  0
   60.4640   28.5050   45.5420 C   0  0  0  0  0  0  0  0  0  0  0  0
   59.8300   27.4570   46.2160 C   0  0  0  0  0  0  0  0  0  0  0  0
   58.4350   27.3670   46.2110 C   0  0  0  0  0  0  0  0  0  0  0  0
   57.6720   28.3260   45.5350 C   0  0  0  0  0  0  0  0  0  0  0  0
   58.1890   32.3340   46.8940 C   0  0  0  0  0  0  0  0  0  0  0  0
   61.6170   34.2150   48.6230 C   0  0  0  0  0  0  0  0  0  0  0  0
   63.0860   34.2590   49.1270 C   0  0  0  0  0  0  0  0  0  0  0  0
   62.3210   31.9656   53.1717 H   0  0  0  0  0  0  0  0  0  0  0  0
   61.7997   33.3015   52.0899 H   0  0  0  0  0  0  0  0  0  0  0  0
   60.9042   31.7443   52.0899 H   0  0  0  0  0  0  0  0  0  0  0  0
   63.2953   29.5964   52.7501 H   0  0  0  0  0  0  0  0  0  0  0  0
   65.5506   28.6041   53.1255 H   0  0  0  0  0  0  0  0  0  0  0  0
   67.5499   29.5786   52.0008 H   0  0  0  0  0  0  0  0  0  0  0  0
   67.3011   31.5345   50.4801 H   0  0  0  0  0  0  0  0  0  0  0  0
   65.1277   33.7839   50.3966 H   0  0  0  0  0  0  0  0  0  0  0  0
   65.8028   32.7601   49.0384 H   0  0  0  0  0  0  0  0  0  0  0  0
   64.3345   33.0430   47.0750 H   0  0  0  0  0  0  0  0  0  0  0  0
   64.3079   31.3738   47.8206 H   0  0  0  0  0  0  0  0  0  0  0  0
   62.1313   32.9336   46.4974 H   0  0  0  0  0  0  0  0  0  0  0  0
   62.5235   31.1396   46.5154 H   0  0  0  0  0  0  0  0  0  0  0  0
   60.3948   31.4819   47.5662 H   0  0  0  0  0  0  0  0  0  0  0  0
   61.6794   31.0335   48.8123 H   0  0  0  0  0  0  0  0  0  0  0  0
   61.1200   32.7290   49.9850 H   0  0  0  0  0  0  0  0  0  0  0  0
   58.9250   32.3250   49.3765 H   0  0  0  0  0  0  0  0  0  0  0  0
   59.2144   34.1156   49.4663 H   0  0  0  0  0  0  0  0  0  0  0  0
   59.8706   35.2965   47.2257 H   0  0  0  0  0  0  0  0  0  0  0  0
   59.1075   35.5290   44.8644 H   0  0  0  0  0  0  0  0  0  0  0  0
   57.7605   33.7222   43.7966 H   0  0  0  0  0  0  0  0  0  0  0  0
   56.6397   29.9191   43.6303 H   0  0  0  0  0  0  0  0  0  0  0  0
   58.1324   30.9027   43.3742 H   0  0  0  0  0  0  0  0  0  0  0  0
   60.2074   30.2834   44.3310 H   0  0  0  0  0  0  0  0  0  0  0  0
   61.5617   28.5753   45.5442 H   0  0  0  0  0  0  0  0  0  0  0  0
   60.4283   26.7039   46.7498 H   0  0  0  0  0  0  0  0  0  0  0  0
   57.9362   26.5411   46.7392 H   0  0  0  0  0  0  0  0  0  0  0  0
   56.5747   28.2488   45.5298 H   0  0  0  0  0  0  0  0  0  0  0  0
   57.9350   31.4302   47.4673 H   0  0  0  0  0  0  0  0  0  0  0  0
   61.6216   34.3097   47.5271 H   0  0  0  0  0  0  0  0  0  0  0  0
   61.0820   35.0435   49.1102 H   0  0  0  0  0  0  0  0  0  0  0  0
   63.6596   34.9488   48.4905 H   0  0  0  0  0  0  0  0  0  0  0  0
   63.0770   34.5986   50.1732 H   0  0  0  0  0  0  0  0  0  0  0  0
  1  2  1  0
  2  3  1  0
  3  4  2  0
  4  5  1  0
  5  6  2  0
  6  7  1  0
  7  8  2  0
  8  9  1  0
  9 10  1  0
 10 11  1  0
 11 12  1  0
 12 13  1  0
 13 14  1  0
 14 15  1  0
 15 16  1  0
 16 17  2  0
 17 18  1  0
 18 19  2  0
 19 20  1  0
 20 21  1  0
 21 22  1  0
 22 23  1  0
 23 24  2  0
 24 25  1  0
 25 26  2  0
 26 27  1  0
 27 28  2  0
 20 29  2  0
 14 30  1  0
 30 31  1  0
  8  3  1  0
 31 10  1  0
 29 16  1  0
 28 23  1  0
  1 32  1  0
  1 33  1  0
  1 34  1  0
  4 35  1  0
  5 36  1  0
  6 37  1  0
  7 38  1  0
  9 39  1  0
  9 40  1  0
 11 41  1  0
 11 42  1  0
 12 43  1  0
 12 44  1  0
 13 45  1  0
 13 46  1  0
 14 47  1  1
 15 48  1  0
 15 49  1  0
 17 50  1  0
 18 51  1  0
 19 52  1  0
 22 53  1  0
 22 54  1  0
 24 55  1  0
 25 56  1  0
 26 57  1  0
 27 58  1  0
 28 59  1  0
 29 60  1  0
 30 61  1  0
 30 62  1  0
 31 63  1  0
 31 64  1  0
M  CHG  1  14   1
M  END
>  <UniqueID>  (30) 
29

>  <SMILES>  (30) 
COc1ccccc1CN1CCC[N@H+](Cc2cccc(OCc3ccccc3)c2)CC1

>  <Energy>  (30) 
85.9659111466046

>  <Genealogy>  (30) 
COc1ccccc1CN1CCC[NH+](Cc2cccc(OCc3ccccc3)c2)CC1 (protonated)
COc1ccccc1CN1CCC[N@H+](Cc2cccc(OCc3ccccc3)c2)CC1 (chirality)
COc1ccccc1CN1CCC[N@H+](Cc2cccc(OCc3ccccc3)c2)CC1 (3D coordinates assigned)
COc1ccccc1CN1CCC[N@H+](Cc2cccc(OCc3ccccc3)c2)CC1 (nonaromatic ring conformer: 85.9659111466046 kcal/mol)

>  <smiles>  (30) 
COc1ccccc1CN1CCCN(Cc2cccc(OCc3ccccc3)c2)CC1

>  <score_type>  (30) 
oracle

>  <origin>  (30) 
adg

>  <m_score__min__energy>  (30) 
-5.2199999999999998

>  <m_primary>  (30) 
energy

$$$$
30:0
     RDKit          3D

 46 49  0  0  0  0  0  0  0  0999 V2000
   56.6410   30.1210   42.8840 C   0  0  0  0  0  0  0  0  0  0  0  0
   57.1200   31.2800   42.2710 C   0  0  0  0  0  0  0  0  0  0  0  0
   57.7520   32.2670   43.0330 C   0  0  0  0  0  0  0  0  0  0  0  0
   57.9110   32.1010   44.4210 C   0  0  0  0  0  0  0  0  0  0  0  0
   58.5780   33.1460   45.2230 C   0  0  0  0  0  0  0  0  0  0  0  0
   58.8070   33.0420   46.5510 N   0  0  0  0  0  0  0  0  0  0  0  0
   59.4230   34.2010   46.8460 C   0  0  0  0  0  0  0  0  0  0  0  0
   59.8670   34.5910   48.2280 C   0  0  0  0  0  0  0  0  0  0  0  0
   61.1530   33.9540   48.5940 N   0  0  0  0  0  0  0  0  0  0  0  0
   60.9010   32.6280   49.2190 C   0  0  0  0  0  0  0  0  0  0  0  0
   62.1280   31.6910   49.1880 C   0  0  0  0  0  0  0  0  0  0  0  0
   63.3660   32.4530   48.9890 N   0  0  0  0  0  0  0  0  0  0  0  0
   64.5140   32.2380   49.8330 C   0  0  0  0  0  0  0  0  0  0  0  0
   64.5160   31.1960   50.7790 C   0  0  0  0  0  0  0  0  0  0  0  0
   65.6240   30.9960   51.6080 C   0  0  0  0  0  0  0  0  0  0  0  0
   66.7370   31.8330   51.5040 C   0  0  0  0  0  0  0  0  0  0  0  0
   66.7410   32.8760   50.5750 C   0  0  0  0  0  0  0  0  0  0  0  0
   65.6350   33.0820   49.7450 C   0  0  0  0  0  0  0  0  0  0  0  0
   63.4460   33.3840   47.8570 C   0  0  0  0  0  0  0  0  0  0  0  0
   62.0410   33.8250   47.4160 C   0  0  0  0  0  0  0  0  0  0  0  0
   59.5430   34.9650   45.7070 C   0  0  0  0  0  0  0  0  0  0  0  0
   59.0140   34.2830   44.7230 O   0  0  0  0  0  0  0  0  0  0  0  0
   57.4250   30.9300   45.0290 C   0  0  0  0  0  0  0  0  0  0  0  0
   56.7930   29.9460   44.2630 C   0  0  0  0  0  0  0  0  0  0  0  0
   56.1441   29.3456   42.2825 H   0  0  0  0  0  0  0  0  0  0  0  0
   56.9999   31.4170   41.1862 H   0  0  0  0  0  0  0  0  0  0  0  0
   58.1271   33.1785   42.5447 H   0  0  0  0  0  0  0  0  0  0  0  0
   59.9870   35.6837   48.2681 H   0  0  0  0  0  0  0  0  0  0  0  0
   59.1020   34.2503   48.9412 H   0  0  0  0  0  0  0  0  0  0  0  0
   61.6290   34.5580   49.3080 H   0  0  0  0  0  0  0  0  0  0  0  0
   60.6102   32.7868   50.2679 H   0  0  0  0  0  0  0  0  0  0  0  0
   60.1059   32.1405   48.6357 H   0  0  0  0  0  0  0  0  0  0  0  0
   62.1896   31.1472   50.1422 H   0  0  0  0  0  0  0  0  0  0  0  0
   62.0109   30.9874   48.3506 H   0  0  0  0  0  0  0  0  0  0  0  0
   63.6410   30.5352   50.8667 H   0  0  0  0  0  0  0  0  0  0  0  0
   65.6190   30.1780   52.3434 H   0  0  0  0  0  0  0  0  0  0  0  0
   67.6100   31.6710   52.1533 H   0  0  0  0  0  0  0  0  0  0  0  0
   67.6167   33.5371   50.4962 H   0  0  0  0  0  0  0  0  0  0  0  0
   65.6419   33.9087   49.0194 H   0  0  0  0  0  0  0  0  0  0  0  0
   64.0246   34.2698   48.1581 H   0  0  0  0  0  0  0  0  0  0  0  0
   63.9377   32.8753   47.0147 H   0  0  0  0  0  0  0  0  0  0  0  0
   62.1089   34.7962   46.9039 H   0  0  0  0  0  0  0  0  0  0  0  0
   61.6250   33.0692   46.7336 H   0  0  0  0  0  0  0  0  0  0  0  0
   59.9990   35.9636   45.6369 H   0  0  0  0  0  0  0  0  0  0  0  0
   57.5427   30.7874   46.1133 H   0  0  0  0  0  0  0  0  0  0  0  0
   56.4148   29.0328   44.7457 H   0  0  0  0  0  0  0  0  0  0  0  0
  1  2  2  0
  2  3  1  0
  3  4  2  0
  4  5  1  0
  5  6  2  0
  6  7  1  0
  7  8  1  0
  8  9  1  0
  9 10  1  0
 10 11  1  0
 11 12  1  0
 12 13  1  0
 13 14  2  0
 14 15  1  0
 15 16  2  0
 16 17  1  0
 17 18  2  0
 12 19  1  0
 19 20  1  0
  7 21  2  0
 21 22  1  0
  4 23  1  0
 23 24  2  0
 24  1  1  0
 22  5  1  0
 20  9  1  0
 18 13  1  0
  1 25  1  0
  2 26  1  0
  3 27  1  0
  8 28  1  0
  8 29  1  0
  9 30  1  0
 10 31  1  0
 10 32  1  0
 11 33  1  0
 11 34  1  0
 14 35  1  0
 15 36  1  0
 16 37  1  0
 17 38  1  0
 18 39  1  0
 19 40  1  0
 19 41  1  0
 20 42  1  0
 20 43  1  0
 21 44  1  0
 23 45  1  0
 24 46  1  0
M  CHG  1   9   1
M  END
>  <UniqueID>  (31) 
30

>  <SMILES>  (31) 
c1ccc(-c2nc(C[NH+]3CCN(c4ccccc4)CC3)co2)cc1

>  <Energy>  (31) 
89.6364772049544

>  <Genealogy>  (31) 
c1ccc(-c2nc(C[NH+]3CCN(c4ccccc4)CC3)co2)cc1 (protonated)
c1ccc(-c2nc(C[NH+]3CCN(c4ccccc4)CC3)co2)cc1 (3D coordinates assigned)
c1ccc(-c2nc(C[NH+]3CCN(c4ccccc4)CC3)co2)cc1 (nonaromatic ring conformer: 89.6364772049544 kcal/mol)

>  <smiles>  (31) 
c1ccc(-c2nc(CN3CCN(c4ccccc4)CC3)co2)cc1

>  <score_type>  (31) 
oracle

>  <origin>  (31) 
adg

>  <m_score__min__energy>  (31) 
-6.7000000000000002

>  <m_primary>  (31) 
energy

$$$$
31:0
     RDKit          3D

 50 53  0  0  0  0  0  0  0  0999 V2000
   59.5380   30.0710   51.2410 C   0  0  0  0  0  0  0  0  0  0  0  0
   60.6540   30.1910   50.3660 O   0  0  0  0  0  0  0  0  0  0  0  0
   60.6050   29.9790   48.9800 C   0  0  0  0  0  0  0  0  0  0  0  0
   59.9640   28.8550   48.4200 C   0  0  0  0  0  0  0  0  0  0  0  0
   59.9000   28.6960   47.0340 C   0  0  0  0  0  0  0  0  0  0  0  0
   60.4700   29.6520   46.1920 C   0  0  0  0  0  0  0  0  0  0  0  0
   61.1140   30.7650   46.7340 C   0  0  0  0  0  0  0  0  0  0  0  0
   61.2000   30.9270   48.1240 C   0  0  0  0  0  0  0  0  0  0  0  0
   61.9030   32.0590   48.6580 N   0  0  0  0  0  0  0  0  0  0  0  0
   62.4980   32.0780   49.8400 N   0  0  0  0  0  0  0  0  0  0  0  0
   63.0040   33.2720   50.1070 N   0  0  0  0  0  0  0  0  0  0  0  0
   62.7100   34.0600   49.0530 C   0  0  0  0  0  0  0  0  0  0  0  0
   62.0020   33.3020   48.1410 C   0  0  0  0  0  0  0  0  0  0  0  0
   61.4180   33.7890   46.8430 C   0  0  0  0  0  0  0  0  0  0  0  0
   60.2040   34.5980   47.0860 N   0  0  0  0  0  0  0  0  0  0  0  0
   59.1520   33.8590   47.7890 C   0  0  0  0  0  0  0  0  0  0  0  0
   58.6100   32.6880   46.9630 C   0  0  0  0  0  0  0  0  0  0  0  0
   58.4640   32.9730   45.5190 N   0  0  0  0  0  0  0  0  0  0  0  0
   57.8520   31.9580   44.6610 C   0  0  0  0  0  0  0  0  0  0  0  0
   57.6580   32.1840   43.2750 C   0  0  0  0  0  0  0  0  0  0  0  0
   57.0730   31.2100   42.4610 C   0  0  0  0  0  0  0  0  0  0  0  0
   56.6640   29.9940   43.0030 C   0  0  0  0  0  0  0  0  0  0  0  0
   56.8350   29.7470   44.3630 C   0  0  0  0  0  0  0  0  0  0  0  0
   57.4200   30.7140   45.1860 C   0  0  0  0  0  0  0  0  0  0  0  0
   59.0500   34.1790   44.8930 C   0  0  0  0  0  0  0  0  0  0  0  0
   59.6470   35.2050   45.8700 C   0  0  0  0  0  0  0  0  0  0  0  0
   59.8844   30.1083   52.2844 H   0  0  0  0  0  0  0  0  0  0  0  0
   58.8375   30.8990   51.0575 H   0  0  0  0  0  0  0  0  0  0  0  0
   59.0295   29.1130   51.0575 H   0  0  0  0  0  0  0  0  0  0  0  0
   59.5117   28.0989   49.0786 H   0  0  0  0  0  0  0  0  0  0  0  0
   59.3993   27.8155   46.6051 H   0  0  0  0  0  0  0  0  0  0  0  0
   60.4116   29.5281   45.1006 H   0  0  0  0  0  0  0  0  0  0  0  0
   61.5566   31.5194   46.0670 H   0  0  0  0  0  0  0  0  0  0  0  0
   62.5630   31.2580   50.4850 H   0  0  0  0  0  0  0  0  0  0  0  0
   62.9853   35.1189   48.9396 H   0  0  0  0  0  0  0  0  0  0  0  0
   62.1641   34.4057   46.3204 H   0  0  0  0  0  0  0  0  0  0  0  0
   61.1450   32.9178   46.2294 H   0  0  0  0  0  0  0  0  0  0  0  0
   59.5645   33.4665   48.7302 H   0  0  0  0  0  0  0  0  0  0  0  0
   58.3193   34.5538   47.9729 H   0  0  0  0  0  0  0  0  0  0  0  0
   59.2991   31.8383   47.0777 H   0  0  0  0  0  0  0  0  0  0  0  0
   57.6001   32.4765   47.3443 H   0  0  0  0  0  0  0  0  0  0  0  0
   57.9728   33.1409   42.8333 H   0  0  0  0  0  0  0  0  0  0  0  0
   56.9350   31.4048   41.3872 H   0  0  0  0  0  0  0  0  0  0  0  0
   56.2065   29.2296   42.3578 H   0  0  0  0  0  0  0  0  0  0  0  0
   56.5086   28.7877   44.7911 H   0  0  0  0  0  0  0  0  0  0  0  0
   57.5472   30.5061   46.2587 H   0  0  0  0  0  0  0  0  0  0  0  0
   59.8502   33.8532   44.2121 H   0  0  0  0  0  0  0  0  0  0  0  0
   58.2192   34.6913   44.3856 H   0  0  0  0  0  0  0  0  0  0  0  0
   60.4501   35.7514   45.3539 H   0  0  0  0  0  0  0  0  0  0  0  0
   58.8278   35.8684   46.1845 H   0  0  0  0  0  0  0  0  0  0  0  0
  1  2  1  0
  2  3  1  0
  3  4  2  0
  4  5  1  0
  5  6  2  0
  6  7  1  0
  7  8  2  0
  8  9  1  0
  9 10  1  0
 10 11  2  0
 11 12  1  0
 12 13  2  0
 13 14  1  0
 14 15  1  0
 15 16  1  0
 16 17  1  0
 17 18  1  0
 18 19  1  0
 19 20  2  0
 20 21  1  0
 21 22  2  0
 22 23  1  0
 23 24  2  0
 18 25  1  0
 25 26  1  0
  8  3  1  0
 13  9  1  0
 26 15  1  0
 24 19  1  0
  1 27  1  0
  1 28  1  0
  1 29  1  0
  4 30  1  0
  5 31  1  0
  6 32  1  0
  7 33  1  0
 10 34  1  0
 12 35  1  0
 14 36  1  0
 14 37  1  0
 16 38  1  0
 16 39  1  0
 17 40  1  0
 17 41  1  0
 20 42  1  0
 21 43  1  0
 22 44  1  0
 23 45  1  0
 24 46  1  0
 25 47  1  0
 25 48  1  0
 26 49  1  0
 26 50  1  0
M  CHG  1  10   1
M  END
>  <UniqueID>  (32) 
31

>  <SMILES>  (32) 
COc1ccccc1-n1[nH+]ncc1CN1CCN(c2ccccc2)CC1

>  <Energy>  (32) 
103.7753339078344

>  <Genealogy>  (32) 
COc1ccccc1-n1[nH+]ncc1CN1CCN(c2ccccc2)CC1 (protonated)
COc1ccccc1-n1[nH+]ncc1CN1CCN(c2ccccc2)CC1 (3D coordinates assigned)
COc1ccccc1-n1[nH+]ncc1CN1CCN(c2ccccc2)CC1 (nonaromatic ring conformer: 103.7753339078344 kcal/mol)

>  <smiles>  (32) 
COc1ccccc1-n1nncc1CN1CCN(c2ccccc2)CC1

>  <score_type>  (32) 
oracle

>  <origin>  (32) 
adg

>  <m_score__min__energy>  (32) 
-7.5800000000000001

>  <m_primary>  (32) 
energy

$$$$
32:0
     RDKit          3D

 36 38  0  0  0  0  0  0  0  0999 V2000
   59.8530   26.5210   46.7560 C   0  0  0  0  0  0  0  0  0  0  0  0
   60.3880   27.6580   45.8900 C   0  0  0  0  0  0  0  0  0  0  0  0
   59.3500   28.7370   45.7170 C   0  0  0  0  0  0  0  0  0  0  0  0
   58.3200   28.4700   44.9610 N   0  0  0  0  0  0  0  0  0  0  0  0
   57.3580   29.4770   44.6710 C   0  0  0  0  0  0  0  0  0  0  0  0
   56.2530   29.3260   43.9240 N   0  0  0  0  0  0  0  0  0  0  0  0
   55.6130   30.4840   44.0630 N   0  0  0  0  0  0  0  0  0  0  0  0
   56.2890   31.2930   44.8700 N   0  0  0  0  0  0  0  0  0  0  0  0
   57.4000   30.6800   45.2300 N   0  0  0  0  0  0  0  0  0  0  0  0
   58.3260   31.0480   46.2960 C   0  0  2  0  0  0  0  0  0  0  0  0
   58.6640   32.5230   46.2310 C   0  0  0  0  0  0  0  0  0  0  0  0
   58.9100   33.2420   47.4140 C   0  0  0  0  0  0  0  0  0  0  0  0
   59.2590   34.5950   47.3590 C   0  0  0  0  0  0  0  0  0  0  0  0
   59.3760   35.2390   46.1250 C   0  0  0  0  0  0  0  0  0  0  0  0
   59.1480   34.5310   44.9430 C   0  0  0  0  0  0  0  0  0  0  0  0
   58.7990   33.1780   44.9920 C   0  0  0  0  0  0  0  0  0  0  0  0
   59.6190   30.1720   46.2050 C   0  0  1  0  0  0  0  0  0  0  0  0
   60.3300   30.1900   47.5320 C   0  0  0  0  0  0  0  0  0  0  0  0
   59.6980   29.9260   48.5930 O   0  0  0  0  0  0  0  0  0  0  0  0
   61.6850   30.5310   47.5790 O   0  0  0  0  0  0  0  0  0  0  0  0
   62.1360   31.8770   47.5130 C   0  0  0  0  0  0  0  0  0  0  0  0
   59.9750   26.7803   47.8180 H   0  0  0  0  0  0  0  0  0  0  0  0
   58.7865   26.3640   46.5371 H   0  0  0  0  0  0  0  0  0  0  0  0
   60.4119   25.5992   46.5371 H   0  0  0  0  0  0  0  0  0  0  0  0
   61.2785   28.0888   46.3712 H   0  0  0  0  0  0  0  0  0  0  0  0
   60.6438   27.2545   44.8992 H   0  0  0  0  0  0  0  0  0  0  0  0
   57.8421   30.8595   47.2657 H   0  0  0  0  0  0  0  0  0  0  0  0
   58.8275   32.7375   48.3880 H   0  0  0  0  0  0  0  0  0  0  0  0
   59.4417   35.1531   48.2891 H   0  0  0  0  0  0  0  0  0  0  0  0
   59.6478   36.3041   46.0842 H   0  0  0  0  0  0  0  0  0  0  0  0
   59.2432   35.0387   43.9718 H   0  0  0  0  0  0  0  0  0  0  0  0
   58.6290   32.6225   44.0579 H   0  0  0  0  0  0  0  0  0  0  0  0
   60.2707   30.6159   45.4380 H   0  0  0  0  0  0  0  0  0  0  0  0
   62.2677   32.2700   48.5319 H   0  0  0  0  0  0  0  0  0  0  0  0
   63.0963   31.9161   46.9780 H   0  0  0  0  0  0  0  0  0  0  0  0
   61.3931   32.4868   46.9780 H   0  0  0  0  0  0  0  0  0  0  0  0
  1  2  1  0
  2  3  1  0
  3  4  2  0
  4  5  1  0
  5  6  2  0
  6  7  1  0
  7  8  2  0
  8  9  1  0
  9 10  1  0
 10 11  1  0
 11 12  2  0
 12 13  1  0
 13 14  2  0
 14 15  1  0
 15 16  2  0
 10 17  1  0
 17 18  1  0
 18 19  2  0
 18 20  1  0
 20 21  1  0
 17  3  1  0
  9  5  1  0
 16 11  1  0
  1 22  1  0
  1 23  1  0
  1 24  1  0
  2 25  1  0
  2 26  1  0
 10 27  1  1
 12 28  1  0
 13 29  1  0
 14 30  1  0
 15 31  1  0
 16 32  1  0
 17 33  1  6
 21 34  1  0
 21 35  1  0
 21 36  1  0
M  END
>  <UniqueID>  (33) 
32

>  <SMILES>  (33) 
CCC1=Nc2nnnn2[C@H](c2ccccc2)[C@H]1C(=O)OC

>  <Energy>  (33) 
78.13953509563922

>  <Genealogy>  (33) 
CCC1=Nc2nnnn2[C@H](c2ccccc2)[C@H]1C(=O)OC (chirality)
CCC1=Nc2nnnn2[C@H](c2ccccc2)[C@H]1C(=O)OC (3D coordinates assigned)
CCC1=Nc2nnnn2[C@H](c2ccccc2)[C@H]1C(=O)OC (nonaromatic ring conformer: 78.13953509563922 kcal/mol)

>  <smiles>  (33) 
CCC1=Nc2nnnn2C(c2ccccc2)C1C(=O)OC

>  <score_type>  (33) 
oracle

>  <origin>  (33) 
adg

>  <m_score__min__energy>  (33) 
-7.3799999999999999

>  <m_primary>  (33) 
energy

$$$$
33:0
     RDKit          3D

 39 42  0  0  0  0  0  0  0  0999 V2000
   59.3090   32.9940   50.1620 C   0  0  0  0  0  0  0  0  0  0  0  0
   59.1210   32.6240   48.8010 O   0  0  0  0  0  0  0  0  0  0  0  0
   59.3000   33.4900   47.7100 C   0  0  0  0  0  0  0  0  0  0  0  0
   59.2660   34.8920   47.8540 C   0  0  0  0  0  0  0  0  0  0  0  0
   59.4480   35.7170   46.7410 C   0  0  0  0  0  0  0  0  0  0  0  0
   59.6670   35.1610   45.4810 C   0  0  0  0  0  0  0  0  0  0  0  0
   59.7000   33.7740   45.3260 C   0  0  0  0  0  0  0  0  0  0  0  0
   59.5160   32.9330   46.4360 C   0  0  0  0  0  0  0  0  0  0  0  0
   59.5360   31.4980   46.2610 N   0  0  0  0  0  0  0  0  0  0  0  0
   60.5770   30.7640   46.7870 C   0  0  0  0  0  0  0  0  0  0  0  0
   61.6530   31.3910   47.5950 C   0  0  0  0  0  0  0  0  0  0  0  0
   61.9200   31.1160   48.9310 C   0  0  0  0  0  0  0  0  0  0  0  0
   62.9550   31.8950   49.4620 C   0  0  0  0  0  0  0  0  0  0  0  0
   63.4970   32.7970   48.5570 C   0  0  0  0  0  0  0  0  0  0  0  0
   62.6850   32.6260   47.0950 S   0  0  0  0  0  0  0  0  0  0  0  0
   60.6490   29.4240   46.5620 N   0  0  0  0  0  0  0  0  0  0  0  0
   59.7000   28.7690   45.8480 C   0  0  0  0  0  0  0  0  0  0  0  0
   59.8020   27.3800   45.6520 C   0  0  0  0  0  0  0  0  0  0  0  0
   58.8320   26.6950   44.9210 C   0  0  0  0  0  0  0  0  0  0  0  0
   57.7510   27.3890   44.3800 C   0  0  0  0  0  0  0  0  0  0  0  0
   57.6350   28.7680   44.5640 C   0  0  0  0  0  0  0  0  0  0  0  0
   58.6100   29.4800   45.3020 C   0  0  0  0  0  0  0  0  0  0  0  0
   58.5520   30.8790   45.5180 C   0  0  0  0  0  0  0  0  0  0  0  0
   57.3290   31.7690   44.8420 S   0  0  0  0  0  0  0  0  0  0  0  0
   58.9081   32.2050   50.8152 H   0  0  0  0  0  0  0  0  0  0  0  0
   60.3828   33.1247   50.3615 H   0  0  0  0  0  0  0  0  0  0  0  0
   58.7814   33.9384   50.3615 H   0  0  0  0  0  0  0  0  0  0  0  0
   59.0957   35.3377   48.8452 H   0  0  0  0  0  0  0  0  0  0  0  0
   59.4184   36.8102   46.8593 H   0  0  0  0  0  0  0  0  0  0  0  0
   59.8138   35.8154   44.6091 H   0  0  0  0  0  0  0  0  0  0  0  0
   59.8708   33.3379   44.3307 H   0  0  0  0  0  0  0  0  0  0  0  0
   61.3721   30.3608   49.5137 H   0  0  0  0  0  0  0  0  0  0  0  0
   63.3061   31.8009   50.5002 H   0  0  0  0  0  0  0  0  0  0  0  0
   64.3163   33.5020   48.7611 H   0  0  0  0  0  0  0  0  0  0  0  0
   61.4460   28.8810   46.9680 H   0  0  0  0  0  0  0  0  0  0  0  0
   60.6536   26.8297   46.0787 H   0  0  0  0  0  0  0  0  0  0  0  0
   58.9198   25.6087   44.7715 H   0  0  0  0  0  0  0  0  0  0  0  0
   56.9854   26.8473   43.8051 H   0  0  0  0  0  0  0  0  0  0  0  0
   56.7783   29.3057   44.1316 H   0  0  0  0  0  0  0  0  0  0  0  0
  1  2  1  0
  2  3  1  0
  3  4  2  0
  4  5  1  0
  5  6  2  0
  6  7  1  0
  7  8  2  0
  8  9  1  0
  9 10  1  0
 10 11  1  0
 11 12  2  0
 12 13  1  0
 13 14  2  0
 14 15  1  0
 10 16  2  0
 16 17  1  0
 17 18  2  0
 18 19  1  0
 19 20  2  0
 20 21  1  0
 21 22  2  0
 22 23  1  0
 23 24  2  0
  8  3  1  0
 23  9  1  0
 15 11  1  0
 22 17  1  0
  1 25  1  0
  1 26  1  0
  1 27  1  0
  4 28  1  0
  5 29  1  0
  6 30  1  0
  7 31  1  0
 12 32  1  0
 13 33  1  0
 14 34  1  0
 16 35  1  0
 18 36  1  0
 19 37  1  0
 20 38  1  0
 21 39  1  0
M  CHG  1  16   1
M  END
>  <UniqueID>  (34) 
33

>  <SMILES>  (34) 
COc1ccccc1-n1c(-c2cccs2)[nH+]c2ccccc2c1=S

>  <Energy>  (34) 
92.53972889570707

>  <Genealogy>  (34) 
COc1ccccc1-n1c(-c2cccs2)[nH+]c2ccccc2c1=S (protonated)
COc1ccccc1-n1c(-c2cccs2)[nH+]c2ccccc2c1=S (3D coordinates assigned)
COc1ccccc1-n1c(-c2cccs2)[nH+]c2ccccc2c1=S (optimized conformer: 92.53972889570707 kcal/mol)

>  <smiles>  (34) 
COc1ccccc1-n1c(-c2cccs2)nc2ccccc2c1=S

>  <score_type>  (34) 
oracle

>  <origin>  (34) 
adg

>  <m_score__min__energy>  (34) 
-5.46

>  <m_primary>  (34) 
energy

$$$$
34:0
     RDKit          3D

 48 50  0  0  0  0  0  0  0  0999 V2000
   60.2946   35.5959   45.9705 H   0  0  0  0  0  0  0  0  0  0  0  0
   59.6190   34.7280   45.9890 C   0  0  0  0  0  0  0  0  0  0  0  0
   58.4270   34.3820   44.8580 S   0  0  0  0  0  0  0  0  0  0  0  0
   57.9310   32.9700   45.6320 C   0  0  0  0  0  0  0  0  0  0  0  0
   57.0230   32.1400   45.2020 N   0  0  0  0  0  0  0  0  0  0  0  0
   57.0570   31.3240   44.0200 C   0  0  0  0  0  0  0  0  0  0  0  0
   57.9420   31.5740   43.1570 O   0  0  0  0  0  0  0  0  0  0  0  0
   56.1430   30.1220   43.8370 C   0  0  0  0  0  0  0  0  0  0  0  0
   55.1097   30.4826   43.9476 H   0  0  0  0  0  0  0  0  0  0  0  0
   56.2820   29.5010   42.4380 C   0  0  0  0  0  0  0  0  0  0  0  0
   56.5214   28.4316   42.5337 H   0  0  0  0  0  0  0  0  0  0  0  0
   55.3356   29.6173   41.8895 H   0  0  0  0  0  0  0  0  0  0  0  0
   57.0885   30.0096   41.8895 H   0  0  0  0  0  0  0  0  0  0  0  0
   56.4320   29.0580   44.9050 C   0  0  0  0  0  0  0  0  0  0  0  0
   56.3119   29.5002   45.9050 H   0  0  0  0  0  0  0  0  0  0  0  0
   55.7289   28.2203   44.7877 H   0  0  0  0  0  0  0  0  0  0  0  0
   57.4623   28.6911   44.7877 H   0  0  0  0  0  0  0  0  0  0  0  0
   58.6700   32.7400   46.7510 N   0  0  0  0  0  0  0  0  0  0  0  0
   58.5470   31.5310   47.5830 C   0  0  0  0  0  0  0  0  0  0  0  0
   59.0564   31.6983   48.5434 H   0  0  0  0  0  0  0  0  0  0  0  0
   57.4807   31.3212   47.7529 H   0  0  0  0  0  0  0  0  0  0  0  0
   59.1730   30.3510   46.8880 C   0  0  0  0  0  0  0  0  0  0  0  0
   59.6020   29.2360   47.6270 C   0  0  0  0  0  0  0  0  0  0  0  0
   59.4528   29.2020   48.7163 H   0  0  0  0  0  0  0  0  0  0  0  0
   60.2190   28.1720   46.9680 C   0  0  0  0  0  0  0  0  0  0  0  0
   60.5649   27.2968   47.5375 H   0  0  0  0  0  0  0  0  0  0  0  0
   60.3960   28.2210   45.5860 C   0  0  0  0  0  0  0  0  0  0  0  0
   60.8815   27.3869   45.0582 H   0  0  0  0  0  0  0  0  0  0  0  0
   59.9510   29.3390   44.8790 C   0  0  0  0  0  0  0  0  0  0  0  0
   60.0828   29.3855   43.7879 H   0  0  0  0  0  0  0  0  0  0  0  0
   59.3540   30.3730   45.5350 N   0  0  0  0  0  0  0  0  0  0  0  0
   59.0350   31.1990   44.9820 H   0  0  0  0  0  0  0  0  0  0  0  0
   59.6030   33.7250   46.9540 C   0  0  0  0  0  0  0  0  0  0  0  0
   60.5690   33.7150   48.0690 C   0  0  0  0  0  0  0  0  0  0  0  0
   60.1320   33.8790   49.3890 C   0  0  0  0  0  0  0  0  0  0  0  0
   59.0643   34.0420   49.5976 H   0  0  0  0  0  0  0  0  0  0  0  0
   61.0490   33.8360   50.4410 C   0  0  0  0  0  0  0  0  0  0  0  0
   60.7014   33.9631   51.4769 H   0  0  0  0  0  0  0  0  0  0  0  0
   62.4070   33.6320   50.1820 C   0  0  0  0  0  0  0  0  0  0  0  0
   63.1239   33.5915   51.0153 H   0  0  0  0  0  0  0  0  0  0  0  0
   62.8610   33.4780   48.8570 C   0  0  0  0  0  0  0  0  0  0  0  0
   64.2120   33.2670   48.5440 O   0  0  0  0  0  0  0  0  0  0  0  0
   65.1880   32.8040   49.4700 C   0  0  0  0  0  0  0  0  0  0  0  0
   64.8297   32.9740   50.4960 H   0  0  0  0  0  0  0  0  0  0  0  0
   65.3595   31.7286   49.3149 H   0  0  0  0  0  0  0  0  0  0  0  0
   66.1294   33.3515   49.3149 H   0  0  0  0  0  0  0  0  0  0  0  0
   61.9350   33.5300   47.8080 C   0  0  0  0  0  0  0  0  0  0  0  0
   62.2818   33.4248   46.7694 H   0  0  0  0  0  0  0  0  0  0  0  0
  1  2  1  0
  2  3  1  0
  3  4  1  0
  4  5  2  0
  5  6  1  0
  6  7  2  0
  6  8  1  0
  8  9  1  0
  8 10  1  0
 10 11  1  0
 10 12  1  0
 10 13  1  0
  8 14  1  0
 14 15  1  0
 14 16  1  0
 14 17  1  0
  4 18  1  0
 18 19  1  0
 19 20  1  0
 19 21  1  0
 19 22  1  0
 22 23  2  0
 23 24  1  0
 23 25  1  0
 25 26  1  0
 25 27  2  0
 27 28  1  0
 27 29  1  0
 29 30  1  0
 29 31  2  0
 31 32  1  0
 18 33  1  0
 33 34  1  0
 34 35  2  0
 35 36  1  0
 35 37  1  0
 37 38  1  0
 37 39  2  0
 39 40  1  0
 39 41  1  0
 41 42  1  0
 42 43  1  0
 43 44  1  0
 43 45  1  0
 43 46  1  0
 41 47  2  0
 47 48  1  0
 33  2  2  0
 47 34  1  0
 31 22  1  0
M  CHG  1  31   1
M  END
>  <UniqueID>  (35) 
34

>  <SMILES>  (35) 
COc1cccc(-c2cs/c(=N\C(=O)C(C)C)n2Cc2cccc[nH+]2)c1

>  <Energy>  (35) 
88.54714941415416

>  <Genealogy>  (35) 
COc1cccc(-c2csc(=NC(=O)C(C)C)n2Cc2cccc[nH+]2)c1 (protonated)
COc1cccc(-c2cs/c(=N\C(=O)C(C)C)n2Cc2cccc[nH+]2)c1 (cis-trans isomerization)
COc1cccc(-c2cs/c(=N\C(=O)C(C)C)n2Cc2cccc[nH+]2)c1 (3D coordinates assigned)
COc1cccc(-c2cs/c(=N\C(=O)C(C)C)n2Cc2cccc[nH+]2)c1 (optimized conformer: 88.54714941415416 kcal/mol)

>  <smiles>  (35) 
COc1cccc(-c2csc(=NC(=O)C(C)C)n2Cc2ccccn2)c1

>  <score_type>  (35) 
oracle

>  <origin>  (35) 
adg

>  <m_score__min__energy>  (35) 
-6.1600000000000001

>  <m_primary>  (35) 
energy

$$$$
35:0
     RDKit          3D

 36 37  0  0  0  0  0  0  0  0999 V2000
   59.7000   33.8010   49.6920 C   0  0  0  0  0  0  0  0  0  0  0  0
   61.1130   34.0050   49.2600 C   0  0  0  0  0  0  0  0  0  0  0  0
   61.3770   33.6130   47.8680 N   0  0  0  0  0  0  0  0  0  0  0  0
   62.7260   33.1540   47.6180 C   0  0  0  0  0  0  0  0  0  0  0  0
   63.3840   33.8040   46.4210 C   0  0  0  0  0  0  0  0  0  0  0  0
   60.3700   33.7070   46.8640 C   0  0  0  0  0  0  0  0  0  0  0  0
   59.9960   34.9240   46.3340 C   0  0  0  0  0  0  0  0  0  0  0  0
   59.0070   35.0340   45.3490 C   0  0  0  0  0  0  0  0  0  0  0  0
   58.3590   33.9250   44.8620 C   0  0  0  0  0  0  0  0  0  0  0  0
   58.7280   32.7050   45.3870 C   0  0  0  0  0  0  0  0  0  0  0  0
   58.0580   31.5000   44.8880 C   0  0  0  0  0  0  0  0  0  0  0  0
   56.7430   31.3750   44.5720 N   0  0  0  0  0  0  0  0  0  0  0  0
   56.4730   30.1530   44.1460 N   0  0  0  0  0  0  0  0  0  0  0  0
   55.1620   29.7160   43.7330 C   0  0  0  0  0  0  0  0  0  0  0  0
   57.6320   29.4730   44.1840 C   0  0  0  0  0  0  0  0  0  0  0  0
   57.8020   27.9010   43.7450 S   0  0  0  0  0  0  0  0  0  0  0  0
   58.5990   30.3050   44.6400 N   0  0  0  0  0  0  0  0  0  0  0  0
   59.7180   32.5950   46.3740 C   0  0  0  0  0  0  0  0  0  0  0  0
   59.6499   33.7938   50.7908 H   0  0  0  0  0  0  0  0  0  0  0  0
   59.0757   34.6183   49.3019 H   0  0  0  0  0  0  0  0  0  0  0  0
   59.3323   32.8405   49.3019 H   0  0  0  0  0  0  0  0  0  0  0  0
   61.3577   35.0717   49.3709 H   0  0  0  0  0  0  0  0  0  0  0  0
   61.7358   33.3582   49.8955 H   0  0  0  0  0  0  0  0  0  0  0  0
   63.3356   33.3700   48.5078 H   0  0  0  0  0  0  0  0  0  0  0  0
   62.6613   32.0776   47.4007 H   0  0  0  0  0  0  0  0  0  0  0  0
   64.1273   34.5383   46.7650 H   0  0  0  0  0  0  0  0  0  0  0  0
   63.8828   33.0342   45.8138 H   0  0  0  0  0  0  0  0  0  0  0  0
   62.6204   34.3121   45.8138 H   0  0  0  0  0  0  0  0  0  0  0  0
   60.4904   35.8373   46.6966 H   0  0  0  0  0  0  0  0  0  0  0  0
   58.7438   36.0277   44.9576 H   0  0  0  0  0  0  0  0  0  0  0  0
   57.5812   34.0067   44.0885 H   0  0  0  0  0  0  0  0  0  0  0  0
   54.5470   29.5110   44.6217 H   0  0  0  0  0  0  0  0  0  0  0  0
   54.6856   30.5039   43.1312 H   0  0  0  0  0  0  0  0  0  0  0  0
   55.2536   28.7998   43.1312 H   0  0  0  0  0  0  0  0  0  0  0  0
   59.6120   30.0840   44.7850 H   0  0  0  0  0  0  0  0  0  0  0  0
   59.9800   31.6010   46.7656 H   0  0  0  0  0  0  0  0  0  0  0  0
  1  2  1  0
  2  3  1  0
  3  4  1  0
  4  5  1  0
  3  6  1  0
  6  7  2  0
  7  8  1  0
  8  9  2  0
  9 10  1  0
 10 11  1  0
 11 12  2  0
 12 13  1  0
 13 14  1  0
 13 15  1  0
 15 16  2  0
 15 17  1  0
 10 18  2  0
 18  6  1  0
 17 11  1  0
  1 19  1  0
  1 20  1  0
  1 21  1  0
  2 22  1  0
  2 23  1  0
  4 24  1  0
  4 25  1  0
  5 26  1  0
  5 27  1  0
  5 28  1  0
  7 29  1  0
  8 30  1  0
  9 31  1  0
 14 32  1  0
 14 33  1  0
 14 34  1  0
 17 35  1  0
 18 36  1  0
M  END
>  <smiles>  (36) 
CCN(CC)c1cccc(-c2nn(C)c(=S)[nH]2)c1

>  <score_type>  (36) 
oracle

>  <origin>  (36) 
adg

>  <m_score__min__energy>  (36) 
-6.4000000000000004

>  <m_primary>  (36) 
energy

$$$$
36:0
     RDKit          3D

 52 54  0  0  0  0  0  0  0  0999 V2000
   55.5950   24.0200   46.6850 C   0  0  0  0  0  0  0  0  0  0  0  0
   55.5750   24.8850   45.4160 C   0  0  0  0  0  0  0  0  0  0  0  0
   56.7500   24.7760   44.5040 N   0  0  1  0  0  0  0  0  0  0  0  0
   58.0710   25.0680   45.1560 C   0  0  0  0  0  0  0  0  0  0  0  0
   58.5410   26.5290   45.2930 C   0  0  0  0  0  0  0  0  0  0  0  0
   57.5920   27.4530   44.7730 O   0  0  0  0  0  0  0  0  0  0  0  0
   57.6820   28.8510   44.9090 C   0  0  0  0  0  0  0  0  0  0  0  0
   56.7580   29.6460   44.2140 C   0  0  0  0  0  0  0  0  0  0  0  0
   56.8360   31.0400   44.2610 C   0  0  0  0  0  0  0  0  0  0  0  0
   57.8420   31.6630   45.0250 C   0  0  0  0  0  0  0  0  0  0  0  0
   57.9730   33.0610   45.1060 C   0  0  0  0  0  0  0  0  0  0  0  0
   57.1770   33.8230   44.4910 O   0  0  0  0  0  0  0  0  0  0  0  0
   59.0050   33.6140   45.8720 C   0  0  0  0  0  0  0  0  0  0  0  0
   59.9020   32.7610   46.5410 C   0  0  0  0  0  0  0  0  0  0  0  0
   61.0480   33.2720   47.3390 C   0  0  0  0  0  0  0  0  0  0  0  0
   60.8960   33.7500   48.6640 C   0  0  0  0  0  0  0  0  0  0  0  0
   62.0090   34.2230   49.3710 C   0  0  0  0  0  0  0  0  0  0  0  0
   63.2790   34.2170   48.7800 C   0  0  0  0  0  0  0  0  0  0  0  0
   63.4410   33.7400   47.4760 C   0  0  0  0  0  0  0  0  0  0  0  0
   62.3370   33.2720   46.7580 C   0  0  0  0  0  0  0  0  0  0  0  0
   59.7390   31.4370   46.4430 O   0  0  0  0  0  0  0  0  0  0  0  0
   58.7660   30.8700   45.7350 C   0  0  0  0  0  0  0  0  0  0  0  0
   58.6730   29.4750   45.6920 C   0  0  0  0  0  0  0  0  0  0  0  0
   56.6310   23.7400   43.4360 C   0  0  0  0  0  0  0  0  0  0  0  0
   57.4690   22.4870   43.7630 C   0  0  0  0  0  0  0  0  0  0  0  0
   55.2050   23.3390   43.0190 C   0  0  0  0  0  0  0  0  0  0  0  0
   55.5800   24.6701   47.5722 H   0  0  0  0  0  0  0  0  0  0  0  0
   54.7118   23.3644   46.6958 H   0  0  0  0  0  0  0  0  0  0  0  0
   56.5076   23.4059   46.6958 H   0  0  0  0  0  0  0  0  0  0  0  0
   54.6804   24.6075   44.8393 H   0  0  0  0  0  0  0  0  0  0  0  0
   55.5895   25.9237   45.7779 H   0  0  0  0  0  0  0  0  0  0  0  0
   56.5970   25.6560   43.9550 H   0  0  0  0  0  0  0  0  0  0  0  0
   58.0261   24.6493   46.1722 H   0  0  0  0  0  0  0  0  0  0  0  0
   58.8041   24.6235   44.4668 H   0  0  0  0  0  0  0  0  0  0  0  0
   58.7028   26.7501   46.3583 H   0  0  0  0  0  0  0  0  0  0  0  0
   59.4698   26.6392   44.7141 H   0  0  0  0  0  0  0  0  0  0  0  0
   55.9627   29.1658   43.6251 H   0  0  0  0  0  0  0  0  0  0  0  0
   56.1121   31.6508   43.7016 H   0  0  0  0  0  0  0  0  0  0  0  0
   59.1141   34.7058   45.9505 H   0  0  0  0  0  0  0  0  0  0  0  0
   59.9033   33.7497   49.1379 H   0  0  0  0  0  0  0  0  0  0  0  0
   61.8849   34.6014   50.3964 H   0  0  0  0  0  0  0  0  0  0  0  0
   64.1489   34.5877   49.3420 H   0  0  0  0  0  0  0  0  0  0  0  0
   64.4393   33.7330   47.0141 H   0  0  0  0  0  0  0  0  0  0  0  0
   62.4722   32.9003   45.7316 H   0  0  0  0  0  0  0  0  0  0  0  0
   59.3776   28.8617   46.2729 H   0  0  0  0  0  0  0  0  0  0  0  0
   57.0400   24.2504   42.5516 H   0  0  0  0  0  0  0  0  0  0  0  0
   57.5460   22.3719   44.8543 H   0  0  0  0  0  0  0  0  0  0  0  0
   56.9828   21.5985   43.3340 H   0  0  0  0  0  0  0  0  0  0  0  0
   58.4759   22.5971   43.3340 H   0  0  0  0  0  0  0  0  0  0  0  0
   54.5947   23.1674   43.9179 H   0  0  0  0  0  0  0  0  0  0  0  0
   54.7574   24.1461   42.4205 H   0  0  0  0  0  0  0  0  0  0  0  0
   55.2436   22.4169   42.4205 H   0  0  0  0  0  0  0  0  0  0  0  0
  1  2  1  0
  2  3  1  0
  3  4  1  0
  4  5  1  0
  5  6  1  0
  6  7  1  0
  7  8  2  0
  8  9  1  0
  9 10  2  0
 10 11  1  0
 11 12  2  0
 11 13  1  0
 13 14  2  0
 14 15  1  0
 15 16  2  0
 16 17  1  0
 17 18  2  0
 18 19  1  0
 19 20  2  0
 14 21  1  0
 21 22  1  0
 22 23  2  0
  3 24  1  0
 24 25  1  0
 24 26  1  0
 23  7  1  0
 22 10  1  0
 20 15  1  0
  1 27  1  0
  1 28  1  0
  1 29  1  0
  2 30  1  0
  2 31  1  0
  3 32  1  6
  4 33  1  0
  4 34  1  0
  5 35  1  0
  5 36  1  0
  8 37  1  0
  9 38  1  0
 13 39  1  0
 16 40  1  0
 17 41  1  0
 18 42  1  0
 19 43  1  0
 20 44  1  0
 23 45  1  0
 24 46  1  0
 25 47  1  0
 25 48  1  0
 25 49  1  0
 26 50  1  0
 26 51  1  0
 26 52  1  0
M  CHG  1   3   1
M  END
>  <UniqueID>  (37) 
35

>  <SMILES>  (37) 
CC[N@@H+](CCOc1ccc2c(=O)cc(-c3ccccc3)oc2c1)C(C)C

>  <Energy>  (37) 
88.9128214859299

>  <Genealogy>  (37) 
CC[NH+](CCOc1ccc2c(=O)cc(-c3ccccc3)oc2c1)C(C)C (protonated)
CC[N@@H+](CCOc1ccc2c(=O)cc(-c3ccccc3)oc2c1)C(C)C (chirality)
CC[N@@H+](CCOc1ccc2c(=O)cc(-c3ccccc3)oc2c1)C(C)C (3D coordinates assigned)
CC[N@@H+](CCOc1ccc2c(=O)cc(-c3ccccc3)oc2c1)C(C)C (optimized conformer: 88.9128214859299 kcal/mol)

>  <smiles>  (37) 
CCN(CCOc1ccc2c(=O)cc(-c3ccccc3)oc2c1)C(C)C

>  <score_type>  (37) 
oracle

>  <origin>  (37) 
adg

>  <m_score__min__energy>  (37) 
-5.8799999999999999

>  <m_primary>  (37) 
energy

$$$$
37:0
     RDKit          3D

 40 40  0  0  0  0  0  0  0  0999 V2000
   64.1710   33.0700   48.8210 C   0  0  0  0  0  0  0  0  0  0  0  0
   63.6980   32.7390   47.4660 N   0  0  0  0  0  0  0  0  0  0  0  0
   62.9990   31.4400   47.4920 C   0  0  0  0  0  0  0  0  0  0  0  0
   62.8110   33.8140   46.9500 C   0  0  0  0  0  0  0  0  0  0  0  0
   61.3290   33.5870   47.3260 C   0  0  0  0  0  0  0  0  0  0  0  0
   60.1950   34.6970   46.4090 S   0  0  0  0  0  0  0  0  0  0  0  0
   59.2090   33.3780   45.6950 C   0  0  0  0  0  0  0  0  0  0  0  0
   59.1440   32.1310   46.3210 C   0  0  0  0  0  0  0  0  0  0  0  0
   58.4090   31.0910   45.7460 C   0  0  0  0  0  0  0  0  0  0  0  0
   57.7100   31.2800   44.5280 C   0  0  0  0  0  0  0  0  0  0  0  0
   56.9070   30.1560   43.8430 C   0  0  0  0  0  0  0  0  0  0  0  0
   56.6560   30.5290   42.3650 C   0  0  0  0  0  0  0  0  0  0  0  0
   57.7070   28.8380   43.9110 C   0  0  0  0  0  0  0  0  0  0  0  0
   55.5300   29.9060   44.5040 C   0  0  0  0  0  0  0  0  0  0  0  0
   57.7720   32.5580   43.9270 C   0  0  0  0  0  0  0  0  0  0  0  0
   58.5070   33.5940   44.5090 C   0  0  0  0  0  0  0  0  0  0  0  0
   63.5070   32.6054   49.5648 H   0  0  0  0  0  0  0  0  0  0  0  0
   65.1946   32.6901   48.9551 H   0  0  0  0  0  0  0  0  0  0  0  0
   64.1647   34.1618   48.9551 H   0  0  0  0  0  0  0  0  0  0  0  0
   64.5420   32.6430   46.8540 H   0  0  0  0  0  0  0  0  0  0  0  0
   62.8339   31.1333   48.5354 H   0  0  0  0  0  0  0  0  0  0  0  0
   62.0300   31.5347   46.9800 H   0  0  0  0  0  0  0  0  0  0  0  0
   63.6119   30.6835   46.9800 H   0  0  0  0  0  0  0  0  0  0  0  0
   63.1391   34.7754   47.3719 H   0  0  0  0  0  0  0  0  0  0  0  0
   62.8827   33.8097   45.8524 H   0  0  0  0  0  0  0  0  0  0  0  0
   61.0629   32.5443   47.0982 H   0  0  0  0  0  0  0  0  0  0  0  0
   61.2184   33.8074   48.3980 H   0  0  0  0  0  0  0  0  0  0  0  0
   59.6738   31.9670   47.2709 H   0  0  0  0  0  0  0  0  0  0  0  0
   58.3725   30.1118   46.2459 H   0  0  0  0  0  0  0  0  0  0  0  0
   56.0425   31.4407   42.3160 H   0  0  0  0  0  0  0  0  0  0  0  0
   57.6185   30.7074   41.8633 H   0  0  0  0  0  0  0  0  0  0  0  0
   56.1283   29.7045   41.8633 H   0  0  0  0  0  0  0  0  0  0  0  0
   57.8734   28.5639   44.9632 H   0  0  0  0  0  0  0  0  0  0  0  0
   57.1411   28.0393   43.4091 H   0  0  0  0  0  0  0  0  0  0  0  0
   58.6767   28.9714   43.4091 H   0  0  0  0  0  0  0  0  0  0  0  0
   55.6396   29.9259   45.5983 H   0  0  0  0  0  0  0  0  0  0  0  0
   54.8255   30.6909   44.1917 H   0  0  0  0  0  0  0  0  0  0  0  0
   55.1463   28.9235   44.1917 H   0  0  0  0  0  0  0  0  0  0  0  0
   57.2327   32.7398   42.9857 H   0  0  0  0  0  0  0  0  0  0  0  0
   58.5322   34.5839   44.0301 H   0  0  0  0  0  0  0  0  0  0  0  0
  1  2  1  0
  2  3  1  0
  2  4  1  0
  4  5  1  0
  5  6  1  0
  6  7  1  0
  7  8  2  0
  8  9  1  0
  9 10  2  0
 10 11  1  0
 11 12  1  0
 11 13  1  0
 11 14  1  0
 10 15  1  0
 15 16  2  0
 16  7  1  0
  1 17  1  0
  1 18  1  0
  1 19  1  0
  2 20  1  0
  3 21  1  0
  3 22  1  0
  3 23  1  0
  4 24  1  0
  4 25  1  0
  5 26  1  0
  5 27  1  0
  8 28  1  0
  9 29  1  0
 12 30  1  0
 12 31  1  0
 12 32  1  0
 13 33  1  0
 13 34  1  0
 13 35  1  0
 14 36  1  0
 14 37  1  0
 14 38  1  0
 15 39  1  0
 16 40  1  0
M  CHG  1   2   1
M  END
>  <UniqueID>  (38) 
36

>  <SMILES>  (38) 
C[NH+](C)CCSc1ccc(C(C)(C)C)cc1

>  <Energy>  (38) 
35.66794038304182

>  <Genealogy>  (38) 
C[NH+](C)CCSc1ccc(C(C)(C)C)cc1 (protonated)
C[NH+](C)CCSc1ccc(C(C)(C)C)cc1 (3D coordinates assigned)
C[NH+](C)CCSc1ccc(C(C)(C)C)cc1 (optimized conformer: 35.66794038304182 kcal/mol)

>  <smiles>  (38) 
CN(C)CCSc1ccc(C(C)(C)C)cc1

>  <score_type>  (38) 
oracle

>  <origin>  (38) 
adg

>  <m_score__min__energy>  (38) 
-5.1799999999999997

>  <m_primary>  (38) 
energy

$$$$
38:0
     RDKit          3D

 41 43  0  0  0  0  0  0  0  0999 V2000
   64.4450   33.2450   49.9860 C   0  0  0  0  0  0  0  0  0  0  0  0
   63.4300   34.2160   49.7530 O   0  0  0  0  0  0  0  0  0  0  0  0
   62.3250   34.0190   48.9110 C   0  0  0  0  0  0  0  0  0  0  0  0
   61.0000   34.2130   49.3440 C   0  0  0  0  0  0  0  0  0  0  0  0
   59.9330   34.0050   48.4660 C   0  0  0  0  0  0  0  0  0  0  0  0
   60.1690   33.5980   47.1430 C   0  0  0  0  0  0  0  0  0  0  0  0
   59.0370   33.3770   46.2200 C   0  0  0  0  0  0  0  0  0  0  0  0
   58.9190   32.2930   45.4220 N   0  0  0  0  0  0  0  0  0  0  0  0
   57.7620   32.5170   44.7720 C   0  0  0  0  0  0  0  0  0  0  0  0
   57.1400   31.5520   43.8040 C   0  0  0  0  0  0  0  0  0  0  0  0
   58.0900   30.5070   43.3900 N   0  0  0  0  0  0  0  0  0  0  0  0
   58.1500   29.4360   44.3580 C   0  0  0  0  0  0  0  0  0  0  0  0
   59.3870   29.0250   44.8850 C   0  0  0  0  0  0  0  0  0  0  0  0
   59.4500   27.9660   45.7960 C   0  0  0  0  0  0  0  0  0  0  0  0
   58.2790   27.3070   46.1990 C   0  0  0  0  0  0  0  0  0  0  0  0
   58.3530   26.1440   47.1420 C   0  0  0  0  0  0  0  0  0  0  0  0
   57.0460   27.7000   45.6570 C   0  0  0  0  0  0  0  0  0  0  0  0
   56.9810   28.7600   44.7480 C   0  0  0  0  0  0  0  0  0  0  0  0
   57.2130   33.7040   45.2010 C   0  0  0  0  0  0  0  0  0  0  0  0
   58.0280   34.2120   46.0900 O   0  0  0  0  0  0  0  0  0  0  0  0
   61.4920   33.4050   46.7130 C   0  0  0  0  0  0  0  0  0  0  0  0
   62.5580   33.6140   47.5910 C   0  0  0  0  0  0  0  0  0  0  0  0
   64.5837   33.1123   51.0691 H   0  0  0  0  0  0  0  0  0  0  0  0
   64.1468   32.2873   49.5344 H   0  0  0  0  0  0  0  0  0  0  0  0
   65.3886   33.5853   49.5344 H   0  0  0  0  0  0  0  0  0  0  0  0
   60.8033   34.5300   50.3788 H   0  0  0  0  0  0  0  0  0  0  0  0
   58.9011   34.1612   48.8136 H   0  0  0  0  0  0  0  0  0  0  0  0
   56.2726   31.0752   44.2838 H   0  0  0  0  0  0  0  0  0  0  0  0
   56.8362   32.1133   42.9081 H   0  0  0  0  0  0  0  0  0  0  0  0
   57.7810   30.1180   42.4700 H   0  0  0  0  0  0  0  0  0  0  0  0
   59.0390   30.9260   43.2450 H   0  0  0  0  0  0  0  0  0  0  0  0
   60.3101   29.5392   44.5791 H   0  0  0  0  0  0  0  0  0  0  0  0
   60.4230   27.6480   46.1988 H   0  0  0  0  0  0  0  0  0  0  0  0
   58.3297   26.5106   48.1788 H   0  0  0  0  0  0  0  0  0  0  0  0
   57.4955   25.4770   46.9695 H   0  0  0  0  0  0  0  0  0  0  0  0
   59.2881   25.5910   46.9695 H   0  0  0  0  0  0  0  0  0  0  0  0
   56.1263   27.1716   45.9487 H   0  0  0  0  0  0  0  0  0  0  0  0
   56.0087   29.0671   44.3353 H   0  0  0  0  0  0  0  0  0  0  0  0
   56.2645   34.1443   44.8597 H   0  0  0  0  0  0  0  0  0  0  0  0
   61.6899   33.0874   45.6786 H   0  0  0  0  0  0  0  0  0  0  0  0
   63.5897   33.4591   47.2424 H   0  0  0  0  0  0  0  0  0  0  0  0
  1  2  1  0
  2  3  1  0
  3  4  2  0
  4  5  1  0
  5  6  2  0
  6  7  1  0
  7  8  2  0
  8  9  1  0
  9 10  1  0
 10 11  1  0
 11 12  1  0
 12 13  2  0
 13 14  1  0
 14 15  2  0
 15 16  1  0
 15 17  1  0
 17 18  2  0
  9 19  2  0
 19 20  1  0
  6 21  1  0
 21 22  2  0
 22  3  1  0
 20  7  1  0
 18 12  1  0
  1 23  1  0
  1 24  1  0
  1 25  1  0
  4 26  1  0
  5 27  1  0
 10 28  1  0
 10 29  1  0
 11 30  1  0
 11 31  1  0
 13 32  1  0
 14 33  1  0
 16 34  1  0
 16 35  1  0
 16 36  1  0
 17 37  1  0
 18 38  1  0
 19 39  1  0
 21 40  1  0
 22 41  1  0
M  CHG  1  11   1
M  END
>  <UniqueID>  (39) 
37

>  <SMILES>  (39) 
COc1ccc(-c2nc(C[NH2+]c3ccc(C)cc3)co2)cc1

>  <Energy>  (39) 
70.98834047136864

>  <Genealogy>  (39) 
COc1ccc(-c2nc(C[NH2+]c3ccc(C)cc3)co2)cc1 (protonated)
COc1ccc(-c2nc(C[NH2+]c3ccc(C)cc3)co2)cc1 (3D coordinates assigned)
COc1ccc(-c2nc(C[NH2+]c3ccc(C)cc3)co2)cc1 (optimized conformer: 70.98834047136864 kcal/mol)

>  <smiles>  (39) 
COc1ccc(-c2nc(CNc3ccc(C)cc3)co2)cc1

>  <score_type>  (39) 
oracle

>  <origin>  (39) 
adg

>  <m_score__min__energy>  (39) 
-5.8200000000000003

>  <m_primary>  (39) 
energy

$$$$
39:0
     RDKit          3D

 54 55  0  0  0  0  0  0  0  0999 V2000
   66.3910   32.7040   50.1260 C   0  0  0  0  0  0  0  0  0  0  0  0
   65.3850   33.4850   50.9690 C   0  0  0  0  0  0  0  0  0  0  0  0
   63.9960   33.5780   50.3140 C   0  0  0  0  0  0  0  0  0  0  0  0
   63.2400   32.2260   50.2620 C   0  0  0  0  0  0  0  0  0  0  0  0
   62.2110   32.1550   49.1870 N   0  0  1  0  0  0  0  0  0  0  0  0
   62.7140   31.6130   47.8850 C   0  0  0  0  0  0  0  0  0  0  0  0
   63.7480   32.4630   47.1100 C   0  0  0  0  0  0  0  0  0  0  0  0
   63.2670   33.8670   46.7500 C   0  0  0  0  0  0  0  0  0  0  0  0
   60.9990   31.4590   49.7090 C   0  0  0  0  0  0  0  0  0  0  0  0
   59.7040   32.3040   49.7450 C   0  0  0  0  0  0  0  0  0  0  0  0
   59.9520   33.7950   50.0220 C   0  0  0  0  0  0  0  0  0  0  0  0
   60.0710   34.5970   48.7260 C   0  0  0  0  0  0  0  0  0  0  0  0
   60.3590   33.7210   47.6380 O   0  0  0  0  0  0  0  0  0  0  0  0
   59.3880   33.0940   46.8440 C   0  0  0  0  0  0  0  0  0  0  0  0
   58.2830   33.8490   46.4280 C   0  0  0  0  0  0  0  0  0  0  0  0
   57.2850   33.2760   45.6340 C   0  0  0  0  0  0  0  0  0  0  0  0
   57.3820   31.9370   45.2460 C   0  0  0  0  0  0  0  0  0  0  0  0
   56.4300   31.3940   44.4900 O   0  0  0  0  0  0  0  0  0  0  0  0
   56.4710   30.1250   44.0910 C   0  0  0  0  0  0  0  0  0  0  0  0
   55.5410   29.6660   43.3770 O   0  0  0  0  0  0  0  0  0  0  0  0
   57.5380   29.3010   44.4610 C   0  0  0  0  0  0  0  0  0  0  0  0
   58.5570   29.8290   45.2530 C   0  0  0  0  0  0  0  0  0  0  0  0
   58.4900   31.1650   45.6570 C   0  0  0  0  0  0  0  0  0  0  0  0
   59.4890   31.7430   46.4540 C   0  0  0  0  0  0  0  0  0  0  0  0
   67.0847   32.1655   50.7884 H   0  0  0  0  0  0  0  0  0  0  0  0
   65.8557   31.9826   49.4912 H   0  0  0  0  0  0  0  0  0  0  0  0
   66.9572   33.4015   49.4912 H   0  0  0  0  0  0  0  0  0  0  0  0
   65.2805   32.9846   51.9430 H   0  0  0  0  0  0  0  0  0  0  0  0
   65.7690   34.5105   51.0734 H   0  0  0  0  0  0  0  0  0  0  0  0
   63.3887   34.2936   50.8877 H   0  0  0  0  0  0  0  0  0  0  0  0
   64.1520   33.8993   49.2736 H   0  0  0  0  0  0  0  0  0  0  0  0
   63.9740   31.4242   50.0934 H   0  0  0  0  0  0  0  0  0  0  0  0
   62.7111   32.1169   51.2203 H   0  0  0  0  0  0  0  0  0  0  0  0
   61.9220   33.1420   49.0030 H   0  0  0  0  0  0  0  0  0  0  0  0
   63.1779   30.6372   48.0914 H   0  0  0  0  0  0  0  0  0  0  0  0
   61.8289   31.5843   47.2325 H   0  0  0  0  0  0  0  0  0  0  0  0
   64.6509   32.5573   47.7312 H   0  0  0  0  0  0  0  0  0  0  0  0
   63.9343   31.9414   46.1596 H   0  0  0  0  0  0  0  0  0  0  0  0
   63.0723   34.4354   47.6714 H   0  0  0  0  0  0  0  0  0  0  0  0
   64.0408   34.3796   46.1596 H   0  0  0  0  0  0  0  0  0  0  0  0
   62.3415   33.7974   46.1596 H   0  0  0  0  0  0  0  0  0  0  0  0
   60.8125   30.5816   49.0723 H   0  0  0  0  0  0  0  0  0  0  0  0
   61.2239   31.2100   50.7566 H   0  0  0  0  0  0  0  0  0  0  0  0
   59.1998   32.2099   48.7719 H   0  0  0  0  0  0  0  0  0  0  0  0
   59.0897   31.9192   50.5724 H   0  0  0  0  0  0  0  0  0  0  0  0
   59.1130   34.1927   50.6119 H   0  0  0  0  0  0  0  0  0  0  0  0
   60.8996   33.8892   50.5726 H   0  0  0  0  0  0  0  0  0  0  0  0
   59.1228   35.1198   48.5322 H   0  0  0  0  0  0  0  0  0  0  0  0
   60.8855   35.3294   48.8267 H   0  0  0  0  0  0  0  0  0  0  0  0
   58.2000   34.9036   46.7294 H   0  0  0  0  0  0  0  0  0  0  0  0
   56.4227   33.8797   45.3145 H   0  0  0  0  0  0  0  0  0  0  0  0
   57.5732   28.2519   44.1323 H   0  0  0  0  0  0  0  0  0  0  0  0
   59.4061   29.1993   45.5571 H   0  0  0  0  0  0  0  0  0  0  0  0
   60.3522   31.1415   46.7751 H   0  0  0  0  0  0  0  0  0  0  0  0
  1  2  1  0
  2  3  1  0
  3  4  1  0
  4  5  1  0
  5  6  1  0
  6  7  1  0
  7  8  1  0
  5  9  1  0
  9 10  1  0
 10 11  1  0
 11 12  1  0
 12 13  1  0
 13 14  1  0
 14 15  2  0
 15 16  1  0
 16 17  2  0
 17 18  1  0
 18 19  1  0
 19 20  2  0
 19 21  1  0
 21 22  2  0
 22 23  1  0
 23 24  2  0
 24 14  1  0
 23 17  1  0
  1 25  1  0
  1 26  1  0
  1 27  1  0
  2 28  1  0
  2 29  1  0
  3 30  1  0
  3 31  1  0
  4 32  1  0
  4 33  1  0
  5 34  1  6
  6 35  1  0
  6 36  1  0
  7 37  1  0
  7 38  1  0
  8 39  1  0
  8 40  1  0
  8 41  1  0
  9 42  1  0
  9 43  1  0
 10 44  1  0
 10 45  1  0
 11 46  1  0
 11 47  1  0
 12 48  1  0
 12 49  1  0
 15 50  1  0
 16 51  1  0
 21 52  1  0
 22 53  1  0
 24 54  1  0
M  CHG  1   5   1
M  END
>  <UniqueID>  (40) 
38

>  <SMILES>  (40) 
CCCC[N@@H+](CCC)CCCCOc1ccc2oc(=O)ccc2c1

>  <Energy>  (40) 
59.19749995506177

>  <Genealogy>  (40) 
CCCC[NH+](CCC)CCCCOc1ccc2oc(=O)ccc2c1 (protonated)
CCCC[N@@H+](CCC)CCCCOc1ccc2oc(=O)ccc2c1 (chirality)
CCCC[N@@H+](CCC)CCCCOc1ccc2oc(=O)ccc2c1 (3D coordinates assigned)
CCCC[N@@H+](CCC)CCCCOc1ccc2oc(=O)ccc2c1 (optimized conformer: 59.19749995506177 kcal/mol)

>  <smiles>  (40) 
CCCCN(CCC)CCCCOc1ccc2oc(=O)ccc2c1

>  <score_type>  (40) 
oracle

>  <origin>  (40) 
adg

>  <m_score__min__energy>  (40) 
-5.3700000000000001

>  <m_primary>  (40) 
energy

$$$$
40:0
     RDKit          3D

 59 61  0  0  0  0  0  0  0  0999 V2000
   67.2000   32.6740   50.6230 C   0  0  0  0  0  0  0  0  0  0  0  0
   66.0050   31.7260   50.6050 C   0  0  0  0  0  0  0  0  0  0  0  0
   64.8940   32.2500   49.6870 C   0  0  0  0  0  0  0  0  0  0  0  0
   63.7590   31.3150   49.6700 N   0  0  0  0  0  0  0  0  0  0  0  0
   63.1530   31.1760   51.0010 C   0  0  0  0  0  0  0  0  0  0  0  0
   61.6630   31.5680   50.9350 C   0  0  0  0  0  0  0  0  0  0  0  0
   61.3240   32.5660   49.8830 N   0  0  0  0  0  0  0  0  0  0  0  0
   62.0640   33.8450   49.9870 C   0  0  0  0  0  0  0  0  0  0  0  0
   62.7100   34.2420   48.6520 C   0  0  0  0  0  0  0  0  0  0  0  0
   62.6040   33.1800   47.7220 O   0  0  0  0  0  0  0  0  0  0  0  0
   63.3480   33.4690   46.5580 C   0  0  0  0  0  0  0  0  0  0  0  0
   59.8620   32.7870   49.7740 C   0  0  0  0  0  0  0  0  0  0  0  0
   59.4930   33.3410   48.4200 C   0  0  0  0  0  0  0  0  0  0  0  0
   59.6200   34.6910   48.2210 N   0  0  0  0  0  0  0  0  0  0  0  0
   59.3250   35.3070   47.0400 C   0  0  0  0  0  0  0  0  0  0  0  0
   58.8630   34.5610   45.9510 C   0  0  0  0  0  0  0  0  0  0  0  0
   58.7040   33.1940   46.1410 C   0  0  0  0  0  0  0  0  0  0  0  0
   58.2650   32.2280   45.2730 C   0  0  0  0  0  0  0  0  0  0  0  0
   57.8660   32.3020   43.9380 C   0  0  0  0  0  0  0  0  0  0  0  0
   57.4810   31.1110   43.3020 C   0  0  0  0  0  0  0  0  0  0  0  0
   57.5040   29.8870   44.0040 C   0  0  0  0  0  0  0  0  0  0  0  0
   57.9090   29.8420   45.3500 C   0  0  0  0  0  0  0  0  0  0  0  0
   58.2850   31.0420   45.9710 C   0  0  0  0  0  0  0  0  0  0  0  0
   58.7060   31.2270   47.2510 N   0  0  0  0  0  0  0  0  0  0  0  0
   58.8320   30.1610   48.2540 C   0  0  0  0  0  0  0  0  0  0  0  0
   60.2330   29.5520   48.2170 C   0  0  0  0  0  0  0  0  0  0  0  0
   58.9870   32.5650   47.3440 C   0  0  0  0  0  0  0  0  0  0  0  0
   67.4776   32.8943   51.6643 H   0  0  0  0  0  0  0  0  0  0  0  0
   68.0502   32.2020   50.1088 H   0  0  0  0  0  0  0  0  0  0  0  0
   66.9338   33.6093   50.1088 H   0  0  0  0  0  0  0  0  0  0  0  0
   66.3342   30.7408   50.2432 H   0  0  0  0  0  0  0  0  0  0  0  0
   65.6052   31.6507   51.6270 H   0  0  0  0  0  0  0  0  0  0  0  0
   64.5518   33.2287   50.0545 H   0  0  0  0  0  0  0  0  0  0  0  0
   65.2913   32.3473   48.6659 H   0  0  0  0  0  0  0  0  0  0  0  0
   63.0280   31.7080   49.0310 H   0  0  0  0  0  0  0  0  0  0  0  0
   63.2423   30.1323   51.3366 H   0  0  0  0  0  0  0  0  0  0  0  0
   63.6733   31.8368   51.7099 H   0  0  0  0  0  0  0  0  0  0  0  0
   61.0779   30.6566   50.7428 H   0  0  0  0  0  0  0  0  0  0  0  0
   61.4254   32.0423   51.8987 H   0  0  0  0  0  0  0  0  0  0  0  0
   61.3645   34.6368   50.2931 H   0  0  0  0  0  0  0  0  0  0  0  0
   62.8657   33.7160   50.7290 H   0  0  0  0  0  0  0  0  0  0  0  0
   62.1982   35.1290   48.2504 H   0  0  0  0  0  0  0  0  0  0  0  0
   63.7736   34.4661   48.8208 H   0  0  0  0  0  0  0  0  0  0  0  0
   64.3386   33.8538   46.8421 H   0  0  0  0  0  0  0  0  0  0  0  0
   63.4679   32.5520   45.9623 H   0  0  0  0  0  0  0  0  0  0  0  0
   62.8174   34.2264   45.9623 H   0  0  0  0  0  0  0  0  0  0  0  0
   59.3423   31.8291   49.9234 H   0  0  0  0  0  0  0  0  0  0  0  0
   59.5618   33.5153   50.5418 H   0  0  0  0  0  0  0  0  0  0  0  0
   59.4511   36.3955   46.9439 H   0  0  0  0  0  0  0  0  0  0  0  0
   58.6353   35.0362   44.9854 H   0  0  0  0  0  0  0  0  0  0  0  0
   57.8535   33.2621   43.4014 H   0  0  0  0  0  0  0  0  0  0  0  0
   57.1595   31.1321   42.2502 H   0  0  0  0  0  0  0  0  0  0  0  0
   57.2026   28.9602   43.4940 H   0  0  0  0  0  0  0  0  0  0  0  0
   57.9303   28.8904   45.9014 H   0  0  0  0  0  0  0  0  0  0  0  0
   58.6465   30.5811   49.2536 H   0  0  0  0  0  0  0  0  0  0  0  0
   58.0967   29.3741   48.0301 H   0  0  0  0  0  0  0  0  0  0  0  0
   60.5922   29.3959   49.2449 H   0  0  0  0  0  0  0  0  0  0  0  0
   60.1996   28.5872   47.6897 H   0  0  0  0  0  0  0  0  0  0  0  0
   60.9157   30.2346   47.6897 H   0  0  0  0  0  0  0  0  0  0  0  0
  1  2  1  0
  2  3  1  0
  3  4  1  0
  4  5  1  0
  5  6  1  0
  6  7  1  0
  7  8  1  0
  8  9  1  0
  9 10  1  0
 10 11  1  0
  7 12  1  0
 12 13  1  0
 13 14  2  0
 14 15  1  0
 15 16  2  0
 16 17  1  0
 17 18  1  0
 18 19  2  0
 19 20  1  0
 20 21  2  0
 21 22  1  0
 22 23  2  0
 23 24  1  0
 24 25  1  0
 25 26  1  0
 24 27  1  0
 27 13  1  0
 27 17  2  0
 23 18  1  0
  1 28  1  0
  1 29  1  0
  1 30  1  0
  2 31  1  0
  2 32  1  0
  3 33  1  0
  3 34  1  0
  4 35  1  0
  5 36  1  0
  5 37  1  0
  6 38  1  0
  6 39  1  0
  8 40  1  0
  8 41  1  0
  9 42  1  0
  9 43  1  0
 11 44  1  0
 11 45  1  0
 11 46  1  0
 12 47  1  0
 12 48  1  0
 15 49  1  0
 16 50  1  0
 19 51  1  0
 20 52  1  0
 21 53  1  0
 22 54  1  0
 25 55  1  0
 25 56  1  0
 26 57  1  0
 26 58  1  0
 26 59  1  0
M  END
>  <UniqueID>  (41) 
39

>  <SMILES>  (41) 
CCCNCCN(CCOC)Cc1nccc2c3ccccc3n(CC)c12

>  <Energy>  (41) 
105.51026093339372

>  <Genealogy>  (41) 
CCCNCCN(CCOC)Cc1nccc2c3ccccc3n(CC)c12 (3D coordinates assigned)
CCCNCCN(CCOC)Cc1nccc2c3ccccc3n(CC)c12 (optimized conformer: 105.51026093339372 kcal/mol)

>  <smiles>  (41) 
CCCNCCN(CCOC)Cc1nccc2c3ccccc3n(CC)c12

>  <score_type>  (41) 
oracle

>  <origin>  (41) 
adg

>  <m_score__min__energy>  (41) 
-7.1399999999999997

>  <m_primary>  (41) 
energy

$$$$
41:0
     RDKit          3D

 19 20  0  0  0  0  0  0  0  0999 V2000
   57.9550   31.6500   43.0640 C   0  0  0  0  0  0  0  0  0  0  0  0
   57.2850   30.6190   43.8450 N   0  0  0  0  0  0  0  0  0  0  0  0
   55.8420   30.5330   44.1050 C   0  0  0  0  0  0  0  0  0  0  0  0
   55.6700   29.3310   44.9310 N   0  0  0  0  0  0  0  0  0  0  0  0
   56.9590   28.7710   45.1240 C   0  0  0  0  0  0  0  0  0  0  0  0
   57.3070   27.6290   45.8370 C   0  0  0  0  0  0  0  0  0  0  0  0
   58.6270   27.2780   45.8860 N   0  0  0  0  0  0  0  0  0  0  0  0
   59.5960   28.0160   45.2580 C   0  0  0  0  0  0  0  0  0  0  0  0
   59.2520   29.1730   44.5350 C   0  0  0  0  0  0  0  0  0  0  0  0
   57.9020   29.5180   44.4950 C   0  0  0  0  0  0  0  0  0  0  0  0
   58.4266   32.3758   43.7428 H   0  0  0  0  0  0  0  0  0  0  0  0
   58.7253   31.1870   42.4297 H   0  0  0  0  0  0  0  0  0  0  0  0
   57.2191   32.1658   42.4297 H   0  0  0  0  0  0  0  0  0  0  0  0
   55.4937   31.4255   44.6455 H   0  0  0  0  0  0  0  0  0  0  0  0
   55.2592   30.4784   43.1737 H   0  0  0  0  0  0  0  0  0  0  0  0
   54.7700   28.9590   45.3060 H   0  0  0  0  0  0  0  0  0  0  0  0
   56.5418   27.0254   46.3470 H   0  0  0  0  0  0  0  0  0  0  0  0
   60.6485   27.7021   45.3195 H   0  0  0  0  0  0  0  0  0  0  0  0
   60.0148   29.7786   44.0238 H   0  0  0  0  0  0  0  0  0  0  0  0
  1  2  1  0
  2  3  1  0
  3  4  1  0
  4  5  1  0
  5  6  2  0
  6  7  1  0
  7  8  2  0
  8  9  1  0
  9 10  2  0
 10  2  1  0
 10  5  1  0
  1 11  1  0
  1 12  1  0
  1 13  1  0
  3 14  1  0
  3 15  1  0
  4 16  1  0
  6 17  1  0
  8 18  1  0
  9 19  1  0
M  END
>  <UniqueID>  (42) 
40

>  <SMILES>  (42) 
CN1CNc2cnccc21

>  <Energy>  (42) 
41.98482902907099

>  <Genealogy>  (42) 
CN1CNc2cnccc21 (3D coordinates assigned)
CN1CNc2cnccc21 (nonaromatic ring conformer: 41.98482902907099 kcal/mol)

>  <smiles>  (42) 
CN1CNc2cnccc21

>  <score_type>  (42) 
oracle

>  <origin>  (42) 
adg

>  <m_score__min__energy>  (42) 
-4.2800000000000002

>  <m_primary>  (42) 
energy

$$$$
42:0
     RDKit          3D

 27 28  0  0  0  0  0  0  0  0999 V2000
   54.5610   24.4950   46.0370 O   0  0  0  0  0  0  0  0  0  0  0  0
   55.4750   25.3600   45.9990 C   0  0  0  0  0  0  0  0  0  0  0  0
   55.1460   26.7100   45.9920 O   0  0  0  0  0  0  0  0  0  0  0  0
   56.9080   24.9390   46.0150 C   0  0  0  0  0  0  0  0  0  0  0  0
   57.8000   26.1500   46.0090 C   0  0  0  0  0  0  0  0  0  0  0  0
   58.9800   26.1580   46.7650 C   0  0  0  0  0  0  0  0  0  0  0  0
   59.8150   27.2730   46.7220 C   0  0  0  0  0  0  0  0  0  0  0  0
   59.4760   28.3630   45.9220 C   0  0  0  0  0  0  0  0  0  0  0  0
   58.2960   28.3290   45.1620 C   0  0  0  0  0  0  0  0  0  0  0  0
   57.9200   29.4810   44.3050 C   0  0  0  0  0  0  0  0  0  0  0  0
   56.9650   29.3250   43.2830 C   0  0  0  0  0  0  0  0  0  0  0  0
   56.6100   30.4100   42.4750 C   0  0  0  0  0  0  0  0  0  0  0  0
   57.2030   31.6580   42.6750 C   0  0  0  0  0  0  0  0  0  0  0  0
   58.1530   31.8250   43.6860 C   0  0  0  0  0  0  0  0  0  0  0  0
   58.5100   30.7440   44.4990 C   0  0  0  0  0  0  0  0  0  0  0  0
   57.4930   27.2230   45.2220 N   0  0  0  0  0  0  0  0  0  0  0  0
   57.1036   24.3469   46.9212 H   0  0  0  0  0  0  0  0  0  0  0  0
   57.1162   24.3327   45.1211 H   0  0  0  0  0  0  0  0  0  0  0  0
   59.2451   25.2908   47.3876 H   0  0  0  0  0  0  0  0  0  0  0  0
   60.7394   27.2928   47.3180 H   0  0  0  0  0  0  0  0  0  0  0  0
   60.1305   29.2464   45.8863 H   0  0  0  0  0  0  0  0  0  0  0  0
   56.4951   28.3441   43.1188 H   0  0  0  0  0  0  0  0  0  0  0  0
   55.8614   30.2797   41.6796 H   0  0  0  0  0  0  0  0  0  0  0  0
   56.9226   32.5092   42.0372 H   0  0  0  0  0  0  0  0  0  0  0  0
   58.6209   32.8081   43.8429 H   0  0  0  0  0  0  0  0  0  0  0  0
   59.2566   30.8820   45.2950 H   0  0  0  0  0  0  0  0  0  0  0  0
   56.6290   27.1810   44.6340 H   0  0  0  0  0  0  0  0  0  0  0  0
  1  2  2  0
  2  3  1  0
  2  4  1  0
  4  5  1  0
  5  6  2  0
  6  7  1  0
  7  8  2  0
  8  9  1  0
  9 10  1  0
 10 11  2  0
 11 12  1  0
 12 13  2  0
 13 14  1  0
 14 15  2  0
  9 16  2  0
 16  5  1  0
 15 10  1  0
  4 17  1  0
  4 18  1  0
  6 19  1  0
  7 20  1  0
  8 21  1  0
 11 22  1  0
 12 23  1  0
 13 24  1  0
 14 25  1  0
 15 26  1  0
 16 27  1  0
M  CHG  2   3  -1  16   1
M  END
>  <UniqueID>  (43) 
41

>  <SMILES>  (43) 
O=C([O-])Cc1cccc(-c2ccccc2)[nH+]1

>  <Energy>  (43) 
30.80263445751794

>  <Genealogy>  (43) 
O=C([O-])Cc1cccc(-c2ccccc2)[nH+]1 (protonated)
O=C([O-])Cc1cccc(-c2ccccc2)[nH+]1 (3D coordinates assigned)
O=C([O-])Cc1cccc(-c2ccccc2)[nH+]1 (optimized conformer: 30.80263445751794 kcal/mol)

>  <smiles>  (43) 
O=C(O)Cc1cccc(-c2ccccc2)n1

>  <score_type>  (43) 
oracle

>  <origin>  (43) 
adg

>  <m_score__min__energy>  (43) 
-7.5899999999999999

>  <m_primary>  (43) 
energy

$$$$
43:0
     RDKit          3D

 33 36  0  0  0  0  0  0  0  0999 V2000
   59.0920   35.1620   44.8750 C   0  0  0  0  0  0  0  0  0  0  0  0
   58.2080   34.3990   45.6890 O   0  0  0  0  0  0  0  0  0  0  0  0
   58.5780   33.2440   46.3980 C   0  0  0  0  0  0  0  0  0  0  0  0
   59.4450   33.2930   47.5100 C   0  0  0  0  0  0  0  0  0  0  0  0
   59.7920   32.1220   48.1930 C   0  0  0  0  0  0  0  0  0  0  0  0
   59.2850   30.8870   47.7850 C   0  0  0  0  0  0  0  0  0  0  0  0
   58.4250   30.8210   46.6830 C   0  0  0  0  0  0  0  0  0  0  0  0
   58.0650   32.0050   45.9830 C   0  0  0  0  0  0  0  0  0  0  0  0
   57.2200   31.9330   44.9040 N   0  0  0  0  0  0  0  0  0  0  0  0
   56.6990   30.7480   44.4680 C   0  0  0  0  0  0  0  0  0  0  0  0
   57.0480   29.5880   45.1500 C   0  0  0  0  0  0  0  0  0  0  0  0
   56.6560   28.3310   44.9010 N   0  0  0  0  0  0  0  0  0  0  0  0
   57.3000   27.6210   45.8660 C   0  0  0  0  0  0  0  0  0  0  0  0
   57.1630   26.1520   46.0260 C   0  0  0  0  0  0  0  0  0  0  0  0
   55.8770   25.5700   46.0240 C   0  0  0  0  0  0  0  0  0  0  0  0
   54.7660   26.3320   45.8620 F   0  0  0  0  0  0  0  0  0  0  0  0
   55.7240   24.1880   46.1600 C   0  0  0  0  0  0  0  0  0  0  0  0
   56.8420   23.3660   46.3020 C   0  0  0  0  0  0  0  0  0  0  0  0
   58.1200   23.9250   46.3140 C   0  0  0  0  0  0  0  0  0  0  0  0
   58.2930   25.3080   46.1800 C   0  0  0  0  0  0  0  0  0  0  0  0
   59.9390   25.9300   46.2780 Cl  0  0  0  0  0  0  0  0  0  0  0  0
   58.0590   28.3830   46.7010 N   0  0  0  0  0  0  0  0  0  0  0  0
   57.8810   29.6220   46.2190 C   0  0  0  0  0  0  0  0  0  0  0  0
   59.7687   35.7460   45.5161 H   0  0  0  0  0  0  0  0  0  0  0  0
   59.6821   34.4849   44.2399 H   0  0  0  0  0  0  0  0  0  0  0  0
   58.5084   35.8447   44.2399 H   0  0  0  0  0  0  0  0  0  0  0  0
   59.8514   34.2595   47.8427 H   0  0  0  0  0  0  0  0  0  0  0  0
   60.4695   32.1751   49.0580 H   0  0  0  0  0  0  0  0  0  0  0  0
   59.5601   29.9702   48.3271 H   0  0  0  0  0  0  0  0  0  0  0  0
   56.0223   30.7126   43.6015 H   0  0  0  0  0  0  0  0  0  0  0  0
   54.7168   23.7458   46.1551 H   0  0  0  0  0  0  0  0  0  0  0  0
   56.7160   22.2781   46.4044 H   0  0  0  0  0  0  0  0  0  0  0  0
   58.9991   23.2740   46.4297 H   0  0  0  0  0  0  0  0  0  0  0  0
  1  2  1  0
  2  3  1  0
  3  4  2  0
  4  5  1  0
  5  6  2  0
  6  7  1  0
  7  8  2  0
  8  9  1  0
  9 10  2  0
 10 11  1  0
 11 12  1  0
 12 13  1  0
 13 14  1  0
 14 15  2  0
 15 16  1  0
 15 17  1  0
 17 18  2  0
 18 19  1  0
 19 20  2  0
 20 21  1  0
 13 22  2  0
 22 23  1  0
  8  3  1  0
 23 11  2  0
 23  7  1  0
 20 14  1  0
  1 24  1  0
  1 25  1  0
  1 26  1  0
  4 27  1  0
  5 28  1  0
  6 29  1  0
 10 30  1  0
 17 31  1  0
 18 32  1  0
 19 33  1  0
M  CHG  1  12  -1
M  END
>  <UniqueID>  (44) 
42

>  <SMILES>  (44) 
COc1cccc2c1ncc1[n-]c(-c3c(F)cccc3Cl)nc12

>  <Energy>  (44) 
81.99401226090211

>  <Genealogy>  (44) 
COc1cccc2c1ncc1[n-]c(-c3c(F)cccc3Cl)nc12 (protonated)
COc1cccc2c1ncc1[n-]c(-c3c(F)cccc3Cl)nc12 (3D coordinates assigned)
COc1cccc2c1ncc1[n-]c(-c3c(F)cccc3Cl)nc12 (optimized conformer: 81.99401226090211 kcal/mol)

>  <smiles>  (44) 
COc1cccc2c1ncc1[nH]c(-c3c(F)cccc3Cl)nc12

>  <score_type>  (44) 
oracle

>  <origin>  (44) 
adg

>  <m_score__min__energy>  (44) 
-8.2899999999999991

>  <m_primary>  (44) 
energy

$$$$
44:0
     RDKit          3D

 39 42  0  0  0  0  0  0  0  0999 V2000
   58.2090   21.6760   45.5890 C   0  0  0  0  0  0  0  0  0  0  0  0
   57.9010   23.0430   45.9860 N   0  0  0  0  0  0  0  0  0  0  0  0
   58.1020   24.1430   45.2380 C   0  0  0  0  0  0  0  0  0  0  0  0
   57.7460   25.2480   45.9930 C   0  0  0  0  0  0  0  0  0  0  0  0
   57.7950   26.6770   45.5890 C   0  0  0  0  0  0  0  0  0  0  0  0
   59.0030   27.2620   45.1620 C   0  0  0  0  0  0  0  0  0  0  0  0
   59.0460   28.6080   44.7840 C   0  0  0  0  0  0  0  0  0  0  0  0
   57.8910   29.3980   44.8380 C   0  0  0  0  0  0  0  0  0  0  0  0
   57.9480   30.8140   44.4240 C   0  0  0  0  0  0  0  0  0  0  0  0
   58.0000   31.2160   43.1380 N   0  0  0  0  0  0  0  0  0  0  0  0
   58.1280   32.5340   43.1180 N   0  0  0  0  0  0  0  0  0  0  0  0
   58.1680   32.9180   44.4090 C   0  0  0  0  0  0  0  0  0  0  0  0
   58.0310   31.8760   45.2530 N   0  0  0  0  0  0  0  0  0  0  0  0
   58.2760   31.9230   46.6970 C   0  0  0  0  0  0  0  0  0  0  0  0
   58.1380   33.3640   47.2190 C   0  0  0  0  0  0  0  0  0  0  0  0
   58.8810   34.3560   46.3090 C   0  0  0  0  0  0  0  0  0  0  0  0
   58.3230   34.3310   44.8770 C   0  0  0  0  0  0  0  0  0  0  0  0
   56.6820   28.8170   45.2410 C   0  0  0  0  0  0  0  0  0  0  0  0
   56.6350   27.4720   45.6190 C   0  0  0  0  0  0  0  0  0  0  0  0
   57.3450   24.7240   47.2150 C   0  0  0  0  0  0  0  0  0  0  0  0
   57.4580   23.3820   47.1860 N   0  0  0  0  0  0  0  0  0  0  0  0
   58.3487   21.0561   46.4869 H   0  0  0  0  0  0  0  0  0  0  0  0
   57.3793   21.2723   44.9901 H   0  0  0  0  0  0  0  0  0  0  0  0
   59.1317   21.6671   44.9901 H   0  0  0  0  0  0  0  0  0  0  0  0
   58.4829   24.1615   44.2062 H   0  0  0  0  0  0  0  0  0  0  0  0
   59.9200   26.6555   45.1255 H   0  0  0  0  0  0  0  0  0  0  0  0
   59.9938   29.0491   44.4419 H   0  0  0  0  0  0  0  0  0  0  0  0
   57.9580   30.6130   42.2870 H   0  0  0  0  0  0  0  0  0  0  0  0
   57.5450   31.2805   47.2096 H   0  0  0  0  0  0  0  0  0  0  0  0
   59.2978   31.5679   46.8968 H   0  0  0  0  0  0  0  0  0  0  0  0
   57.0722   33.6342   47.2503 H   0  0  0  0  0  0  0  0  0  0  0  0
   58.5795   33.4148   48.2252 H   0  0  0  0  0  0  0  0  0  0  0  0
   58.7688   35.3706   46.7190 H   0  0  0  0  0  0  0  0  0  0  0  0
   59.9410   34.0643   46.2722 H   0  0  0  0  0  0  0  0  0  0  0  0
   57.3425   34.8293   44.8600 H   0  0  0  0  0  0  0  0  0  0  0  0
   59.0219   34.8563   44.2095 H   0  0  0  0  0  0  0  0  0  0  0  0
   55.7640   29.4227   45.2602 H   0  0  0  0  0  0  0  0  0  0  0  0
   55.6810   27.0308   45.9433 H   0  0  0  0  0  0  0  0  0  0  0  0
   56.9902   25.3133   48.0734 H   0  0  0  0  0  0  0  0  0  0  0  0
  1  2  1  0
  2  3  1  0
  3  4  2  0
  4  5  1  0
  5  6  2  0
  6  7  1  0
  7  8  2  0
  8  9  1  0
  9 10  2  0
 10 11  1  0
 11 12  2  0
 12 13  1  0
 13 14  1  0
 14 15  1  0
 15 16  1  0
 16 17  1  0
  8 18  1  0
 18 19  2  0
  4 20  1  0
 20 21  2  0
 21  2  1  0
 19  5  1  0
 13  9  1  0
 17 12  1  0
  1 22  1  0
  1 23  1  0
  1 24  1  0
  3 25  1  0
  6 26  1  0
  7 27  1  0
 10 28  1  0
 14 29  1  0
 14 30  1  0
 15 31  1  0
 15 32  1  0
 16 33  1  0
 16 34  1  0
 17 35  1  0
 17 36  1  0
 18 37  1  0
 19 38  1  0
 20 39  1  0
M  CHG  1  10   1
M  END
>  <UniqueID>  (45) 
43

>  <SMILES>  (45) 
Cn1cc(-c2ccc(-c3[nH+]nc4n3CCCC4)cc2)cn1

>  <Energy>  (45) 
112.31004179224145

>  <Genealogy>  (45) 
Cn1cc(-c2ccc(-c3[nH+]nc4n3CCCC4)cc2)cn1 (protonated)
Cn1cc(-c2ccc(-c3[nH+]nc4n3CCCC4)cc2)cn1 (3D coordinates assigned)
Cn1cc(-c2ccc(-c3[nH+]nc4n3CCCC4)cc2)cn1 (nonaromatic ring conformer: 112.31004179224145 kcal/mol)

>  <smiles>  (45) 
Cn1cc(-c2ccc(-c3nnc4n3CCCC4)cc2)cn1

>  <score_type>  (45) 
oracle

>  <origin>  (45) 
adg

>  <m_score__min__energy>  (45) 
-6.0300000000000002

>  <m_primary>  (45) 
energy

$$$$
45:0
     RDKit          3D

 31 33  0  0  0  0  0  0  0  0999 V2000
   57.0160   34.2400   44.8850 C   0  0  0  0  0  0  0  0  0  0  0  0
   58.3430   33.1550   44.4110 S   0  0  0  0  0  0  0  0  0  0  0  0
   59.6460   33.6980   44.9270 O   0  0  0  0  0  0  0  0  0  0  0  0
   58.4140   33.0750   42.9110 O   0  0  0  0  0  0  0  0  0  0  0  0
   58.0550   31.5540   45.0830 C   0  0  0  0  0  0  0  0  0  0  0  0
   57.1640   30.6750   44.4520 C   0  0  0  0  0  0  0  0  0  0  0  0
   56.9450   29.3990   44.9780 C   0  0  0  0  0  0  0  0  0  0  0  0
   57.6380   28.9770   46.1250 C   0  0  0  0  0  0  0  0  0  0  0  0
   57.3900   27.6920   46.7160 N   0  0  0  0  0  0  0  0  0  0  0  0
   56.9110   26.6280   46.1330 C   0  0  0  0  0  0  0  0  0  0  0  0
   57.7260   25.6900   45.4680 C   0  0  0  0  0  0  0  0  0  0  0  0
   57.1310   24.5740   44.8830 C   0  0  0  0  0  0  0  0  0  0  0  0
   57.8720   23.6420   44.2270 N   0  0  0  0  0  0  0  0  0  0  0  0
   57.2840   22.5550   43.6610 C   0  0  0  0  0  0  0  0  0  0  0  0
   55.8990   22.3910   43.7560 C   0  0  0  0  0  0  0  0  0  0  0  0
   55.1550   23.3200   44.4150 N   0  0  0  0  0  0  0  0  0  0  0  0
   55.7420   24.4070   44.9800 C   0  0  0  0  0  0  0  0  0  0  0  0
   55.0020   25.3270   45.6470 N   0  0  0  0  0  0  0  0  0  0  0  0
   55.5710   26.3980   46.2050 N   0  0  0  0  0  0  0  0  0  0  0  0
   58.5070   29.8680   46.7690 C   0  0  0  0  0  0  0  0  0  0  0  0
   58.7250   31.1450   46.2430 C   0  0  0  0  0  0  0  0  0  0  0  0
   56.9564   34.2887   45.9823 H   0  0  0  0  0  0  0  0  0  0  0  0
   57.2039   35.2465   44.4829 H   0  0  0  0  0  0  0  0  0  0  0  0
   56.0669   33.8559   44.4829 H   0  0  0  0  0  0  0  0  0  0  0  0
   56.6357   30.9905   43.5402 H   0  0  0  0  0  0  0  0  0  0  0  0
   56.2270   28.7221   44.4919 H   0  0  0  0  0  0  0  0  0  0  0  0
   58.8147   25.8366   45.4117 H   0  0  0  0  0  0  0  0  0  0  0  0
   57.8944   21.8088   43.1313 H   0  0  0  0  0  0  0  0  0  0  0  0
   55.4133   21.5155   43.3004 H   0  0  0  0  0  0  0  0  0  0  0  0
   59.0199   29.5614   47.6925 H   0  0  0  0  0  0  0  0  0  0  0  0
   59.4253   31.8310   46.7420 H   0  0  0  0  0  0  0  0  0  0  0  0
  1  2  1  0
  2  3  2  0
  2  4  2  0
  2  5  1  0
  5  6  2  0
  6  7  1  0
  7  8  2  0
  8  9  1  0
  9 10  2  3
 10 11  1  0
 11 12  2  0
 12 13  1  0
 13 14  2  0
 14 15  1  0
 15 16  2  0
 16 17  1  0
 17 18  2  0
 18 19  1  0
  8 20  1  0
 20 21  2  0
 21  5  1  0
 19 10  1  0
 17 12  1  0
  1 22  1  0
  1 23  1  0
  1 24  1  0
  6 25  1  0
  7 26  1  0
 11 27  1  0
 14 28  1  0
 15 29  1  0
 20 30  1  0
 21 31  1  0
M  CHG  1  19  -1
M  END
>  <UniqueID>  (46) 
44

>  <SMILES>  (46) 
CS(=O)(=O)c1ccc(N=c2cc3nccnc3n[n-]2)cc1

>  <Energy>  (46) 
45.9778170990697

>  <Genealogy>  (46) 
CS(=O)(=O)c1ccc(N=c2cc3nccnc3n[n-]2)cc1 (protonated)
CS(=O)(=O)c1ccc(N=c2cc3nccnc3n[n-]2)cc1 (3D coordinates assigned)
CS(=O)(=O)c1ccc(N=c2cc3nccnc3n[n-]2)cc1 (optimized conformer: 45.9778170990697 kcal/mol)

>  <smiles>  (46) 
CS(=O)(=O)c1ccc(N=c2cc3nccnc3n[nH]2)cc1

>  <score_type>  (46) 
oracle

>  <origin>  (46) 
adg

>  <m_score__min__energy>  (46) 
-8.7599999999999998

>  <m_primary>  (46) 
energy

$$$$
46:0
     RDKit          3D

 45 46  0  0  0  0  0  0  0  0999 V2000
   58.2350   27.5270   43.4780 C   0  0  0  0  0  0  0  0  0  0  0  0
   59.0860   27.7330   44.7370 C   0  0  0  0  0  0  0  0  0  0  0  0
   60.0920   28.8710   44.5160 C   0  0  0  0  0  0  0  0  0  0  0  0
   58.1760   28.0030   45.9560 C   0  0  0  0  0  0  0  0  0  0  0  0
   56.8780   28.6630   45.5670 C   0  0  0  0  0  0  0  0  0  0  0  0
   55.8920   27.9420   45.2650 O   0  0  0  0  0  0  0  0  0  0  0  0
   56.7580   30.0850   45.4370 N   0  0  0  0  0  0  0  0  0  0  0  0
   57.1060   30.8450   44.2740 C   0  0  0  0  0  0  0  0  0  0  0  0
   56.6430   30.4580   43.0060 C   0  0  0  0  0  0  0  0  0  0  0  0
   56.9700   31.2060   41.8750 C   0  0  0  0  0  0  0  0  0  0  0  0
   57.7720   32.3420   41.9970 C   0  0  0  0  0  0  0  0  0  0  0  0
   58.2560   32.7250   43.2500 C   0  0  0  0  0  0  0  0  0  0  0  0
   57.9400   31.9740   44.3950 C   0  0  0  0  0  0  0  0  0  0  0  0
   58.4410   32.3900   45.6770 N   0  0  0  0  0  0  0  0  0  0  0  0
   59.6460   31.7740   46.2400 C   0  0  0  0  0  0  0  0  0  0  0  0
   60.5770   32.8360   46.8650 C   0  0  0  0  0  0  0  0  0  0  0  0
   59.8740   34.0550   47.3580 N   0  0  0  0  0  0  0  0  0  0  0  0
   60.0030   35.1750   46.4040 C   0  0  0  0  0  0  0  0  0  0  0  0
   58.4590   33.7980   47.7090 C   0  0  0  0  0  0  0  0  0  0  0  0
   57.6500   33.3150   46.4960 C   0  0  0  0  0  0  0  0  0  0  0  0
   57.2040   27.2774   43.7691 H   0  0  0  0  0  0  0  0  0  0  0  0
   58.2340   28.4508   42.8809 H   0  0  0  0  0  0  0  0  0  0  0  0
   58.6566   26.7050   42.8809 H   0  0  0  0  0  0  0  0  0  0  0  0
   59.6585   26.8167   44.9432 H   0  0  0  0  0  0  0  0  0  0  0  0
   60.4312   29.2547   45.4895 H   0  0  0  0  0  0  0  0  0  0  0  0
   60.9558   28.4921   43.9501 H   0  0  0  0  0  0  0  0  0  0  0  0
   59.6100   29.6818   43.9501 H   0  0  0  0  0  0  0  0  0  0  0  0
   57.9520   27.0455   46.4489 H   0  0  0  0  0  0  0  0  0  0  0  0
   58.7119   28.6870   46.6305 H   0  0  0  0  0  0  0  0  0  0  0  0
   56.0180   29.5586   42.9039 H   0  0  0  0  0  0  0  0  0  0  0  0
   56.5958   30.9006   40.8867 H   0  0  0  0  0  0  0  0  0  0  0  0
   58.0230   32.9359   41.1058 H   0  0  0  0  0  0  0  0  0  0  0  0
   58.8886   33.6203   43.3411 H   0  0  0  0  0  0  0  0  0  0  0  0
   59.3509   31.0536   47.0172 H   0  0  0  0  0  0  0  0  0  0  0  0
   60.1900   31.2684   45.4286 H   0  0  0  0  0  0  0  0  0  0  0  0
   61.1040   32.3754   47.7136 H   0  0  0  0  0  0  0  0  0  0  0  0
   61.2581   33.1665   46.0669 H   0  0  0  0  0  0  0  0  0  0  0  0
   60.3510   34.3620   48.2390 H   0  0  0  0  0  0  0  0  0  0  0  0
   60.1117   36.1186   46.9588 H   0  0  0  0  0  0  0  0  0  0  0  0
   60.8889   35.0175   45.7713 H   0  0  0  0  0  0  0  0  0  0  0  0
   59.1045   35.2231   45.7713 H   0  0  0  0  0  0  0  0  0  0  0  0
   58.4207   33.0269   48.4926 H   0  0  0  0  0  0  0  0  0  0  0  0
   58.0170   34.7416   48.0615 H   0  0  0  0  0  0  0  0  0  0  0  0
   56.7441   32.8001   46.8486 H   0  0  0  0  0  0  0  0  0  0  0  0
   57.3804   34.1871   45.8821 H   0  0  0  0  0  0  0  0  0  0  0  0
  1  2  1  0
  2  3  1  0
  2  4  1  0
  4  5  1  0
  5  6  2  0
  5  7  1  0
  7  8  1  0
  8  9  2  0
  9 10  1  0
 10 11  2  0
 11 12  1  0
 12 13  2  0
 13 14  1  0
 14 15  1  0
 15 16  1  0
 16 17  1  0
 17 18  1  0
 17 19  1  0
 19 20  1  0
 13  8  1  0
 20 14  1  0
  1 21  1  0
  1 22  1  0
  1 23  1  0
  2 24  1  0
  3 25  1  0
  3 26  1  0
  3 27  1  0
  4 28  1  0
  4 29  1  0
  9 30  1  0
 10 31  1  0
 11 32  1  0
 12 33  1  0
 15 34  1  0
 15 35  1  0
 16 36  1  0
 16 37  1  0
 17 38  1  0
 18 39  1  0
 18 40  1  0
 18 41  1  0
 19 42  1  0
 19 43  1  0
 20 44  1  0
 20 45  1  0
M  CHG  2   7  -1  17   1
M  END
>  <UniqueID>  (47) 
45

>  <SMILES>  (47) 
CC(C)CC(=O)[N-]c1ccccc1N1CC[NH+](C)CC1

>  <Energy>  (47) 
54.01137944254401

>  <Genealogy>  (47) 
CC(C)CC(=O)[N-]c1ccccc1N1CC[NH+](C)CC1 (protonated)
CC(C)CC(=O)[N-]c1ccccc1N1CC[NH+](C)CC1 (3D coordinates assigned)
CC(C)CC(=O)[N-]c1ccccc1N1CC[NH+](C)CC1 (nonaromatic ring conformer: 54.01137944254401 kcal/mol)

>  <smiles>  (47) 
CC(C)CC(=O)Nc1ccccc1N1CCN(C)CC1

>  <score_type>  (47) 
oracle

>  <origin>  (47) 
adg

>  <m_score__min__energy>  (47) 
-6.9800000000000004

>  <m_primary>  (47) 
energy

$$$$
47:0
     RDKit          3D

 29 31  0  0  1  0  0  0  0  0999 V2000
   59.1790   34.9820   47.0170 C   0  0  0  0  0  0  0  0  0  0  0  0
   59.3120   33.9110   47.8730 C   0  0  0  0  0  0  0  0  0  0  0  0
   59.2320   32.6530   47.3160 C   0  0  0  0  0  0  0  0  0  0  0  0
   59.0310   32.4300   45.9680 C   0  0  0  0  0  0  0  0  0  0  0  0
   58.9710   31.0770   45.5420 N   0  0  0  0  0  0  0  0  0  0  0  0
   57.8980   30.4450   45.2760 C   0  0  0  0  0  0  0  0  0  0  0  0
   57.8140   29.1070   45.6060 C   0  0  0  0  0  0  0  0  0  0  0  0
   56.6400   28.4460   45.3060 C   0  0  0  0  0  0  0  0  0  0  0  0
   56.5700   27.0710   45.6510 N   0  0  0  0  0  0  0  0  0  0  0  0
   57.6250   26.2360   45.6700 C   0  0  0  0  0  0  0  0  0  0  0  0
   57.1920   24.9840   46.0490 C   0  0  0  0  0  0  0  0  0  0  0  0
   55.8270   25.0940   46.2610 C   0  0  0  0  0  0  0  0  0  0  0  0
   55.5210   26.3630   46.0050 N   0  0  0  0  0  0  0  0  0  0  0  0
   55.6210   29.1070   44.7080 N   0  0  0  0  0  0  0  0  0  0  0  0
   55.7680   30.4130   44.4130 C   0  0  0  0  0  0  0  0  0  0  0  0
   56.8900   31.1090   44.6820 N   0  0  0  0  0  0  0  0  0  0  0  0
   58.9000   33.5090   45.1340 C   0  0  0  0  0  0  0  0  0  0  0  0
   58.9790   34.7820   45.6810 C   0  0  0  0  0  0  0  0  0  0  0  0
   59.2344   36.0068   47.4128 H   0  0  0  0  0  0  0  0  0  0  0  0
   59.4746   34.0533   48.9516 H   0  0  0  0  0  0  0  0  0  0  0  0
   59.3335   31.7814   47.9794 H   0  0  0  0  0  0  0  0  0  0  0  0
   58.6529   28.5862   46.0908 H   0  0  0  0  0  0  0  0  0  0  0  0
   58.6620   26.5080   45.4236 H   0  0  0  0  0  0  0  0  0  0  0  0
   57.8067   24.0786   46.1609 H   0  0  0  0  0  0  0  0  0  0  0  0
   55.1383   24.2962   46.5761 H   0  0  0  0  0  0  0  0  0  0  0  0
   54.7520   28.5640   44.5010 H   0  0  0  0  0  0  0  0  0  0  0  0
   54.9309   30.9372   43.9287 H   0  0  0  0  0  0  0  0  0  0  0  0
   58.7359   33.3695   44.0553 H   0  0  0  0  0  0  0  0  0  0  0  0
   58.8776   35.6550   45.0194 H   0  0  0  0  0  0  0  0  0  0  0  0
  1  2  2  0
  2  3  1  0
  3  4  2  0
  4  5  1  0
  5  6  2  0
  6  7  1  0
  7  8  2  0
  8  9  1  0
  9 10  1  0
 10 11  2  0
 11 12  1  0
 12 13  2  0
  8 14  1  0
 14 15  1  0
 15 16  2  0
  4 17  1  0
 17 18  2  0
 18  1  1  0
 16  6  1  0
 13  9  1  0
  1 19  1  0
  2 20  1  0
  3 21  1  0
  7 22  1  0
 10 23  1  0
 11 24  1  0
 12 25  1  0
 14 26  1  0
 15 27  1  0
 17 28  1  0
 18 29  1  0
M  END
>  <smiles>  (48) 
c1ccc(N=c2cc(-n3cccn3)[nH]cn2)cc1

>  <score_type>  (48) 
oracle

>  <origin>  (48) 
adg

>  <m_score__min__energy>  (48) 
-7.3899999999999997

>  <m_primary>  (48) 
energy

$$$$
48:0
     RDKit          3D

 52 53  0  0  0  0  0  0  0  0999 V2000
   55.8400   29.7430   43.8010 C   0  0  0  0  0  0  0  0  0  0  0  0
   56.6480   29.7010   45.0910 C   0  0  0  0  0  0  0  0  0  0  0  0
   57.5100   30.9090   45.1790 N   0  0  0  0  0  0  0  0  0  0  0  0
   58.9140   30.5590   45.4940 C   0  0  0  0  0  0  0  0  0  0  0  0
   59.0570   29.0650   45.7890 C   0  0  0  0  0  0  0  0  0  0  0  0
   57.4470   31.7190   43.9410 C   0  0  0  0  0  0  0  0  0  0  0  0
   57.7010   33.2060   44.2450 C   0  0  0  0  0  0  0  0  0  0  0  0
   57.1910   33.6100   45.6350 C   0  0  0  0  0  0  0  0  0  0  0  0
   58.1280   33.1900   46.6750 N   0  0  0  0  0  0  0  0  0  0  0  0
   58.9320   34.1200   47.4220 C   0  0  0  0  0  0  0  0  0  0  0  0
   58.9070   35.3470   47.1300 O   0  0  0  0  0  0  0  0  0  0  0  0
   59.7820   33.6670   48.5880 C   0  0  0  0  0  0  0  0  0  0  0  0
   59.2470   32.4020   49.2450 C   0  0  0  0  0  0  0  0  0  0  0  0
   59.4890   31.1200   48.7110 C   0  0  0  0  0  0  0  0  0  0  0  0
   58.9930   29.9790   49.3460 C   0  0  0  0  0  0  0  0  0  0  0  0
   58.2620   30.0980   50.5290 C   0  0  0  0  0  0  0  0  0  0  0  0
   58.0320   31.3590   51.0830 C   0  0  0  0  0  0  0  0  0  0  0  0
   58.5250   32.5040   50.4500 C   0  0  0  0  0  0  0  0  0  0  0  0
   61.2550   33.5790   48.2170 C   0  0  0  0  0  0  0  0  0  0  0  0
   62.2460   33.1910   49.1440 C   0  0  0  0  0  0  0  0  0  0  0  0
   63.5840   33.0910   48.7510 C   0  0  0  0  0  0  0  0  0  0  0  0
   63.9510   33.3660   47.4330 C   0  0  0  0  0  0  0  0  0  0  0  0
   62.9790   33.7350   46.5010 C   0  0  0  0  0  0  0  0  0  0  0  0
   61.6390   33.8370   46.8870 C   0  0  0  0  0  0  0  0  0  0  0  0
   54.7680   29.7987   44.0414 H   0  0  0  0  0  0  0  0  0  0  0  0
   56.1308   30.6272   43.2148 H   0  0  0  0  0  0  0  0  0  0  0  0
   56.0375   28.8334   43.2148 H   0  0  0  0  0  0  0  0  0  0  0  0
   55.9630   29.6766   45.9514 H   0  0  0  0  0  0  0  0  0  0  0  0
   57.2795   28.8003   45.0974 H   0  0  0  0  0  0  0  0  0  0  0  0
   59.5501   30.8179   44.6347 H   0  0  0  0  0  0  0  0  0  0  0  0
   59.2222   31.1222   46.3872 H   0  0  0  0  0  0  0  0  0  0  0  0
   59.0722   28.9060   46.8773 H   0  0  0  0  0  0  0  0  0  0  0  0
   58.2067   28.5217   45.3509 H   0  0  0  0  0  0  0  0  0  0  0  0
   59.9949   28.6929   45.3509 H   0  0  0  0  0  0  0  0  0  0  0  0
   58.2112   31.3597   43.2361 H   0  0  0  0  0  0  0  0  0  0  0  0
   56.4429   31.6159   43.5039 H   0  0  0  0  0  0  0  0  0  0  0  0
   58.7830   33.3977   44.1954 H   0  0  0  0  0  0  0  0  0  0  0  0
   57.1538   33.8010   43.4990 H   0  0  0  0  0  0  0  0  0  0  0  0
   57.0765   34.7034   45.6732 H   0  0  0  0  0  0  0  0  0  0  0  0
   56.2239   33.1168   45.8123 H   0  0  0  0  0  0  0  0  0  0  0  0
   58.1190   32.1830   46.9500 H   0  0  0  0  0  0  0  0  0  0  0  0
   59.7096   34.4470   49.3602 H   0  0  0  0  0  0  0  0  0  0  0  0
   60.0741   31.0172   47.7852 H   0  0  0  0  0  0  0  0  0  0  0  0
   59.1788   28.9850   48.9130 H   0  0  0  0  0  0  0  0  0  0  0  0
   57.8672   29.1989   51.0247 H   0  0  0  0  0  0  0  0  0  0  0  0
   57.4619   31.4517   52.0192 H   0  0  0  0  0  0  0  0  0  0  0  0
   58.3474   33.4933   50.8970 H   0  0  0  0  0  0  0  0  0  0  0  0
   61.9637   32.9657   50.1830 H   0  0  0  0  0  0  0  0  0  0  0  0
   64.3498   32.7946   49.4830 H   0  0  0  0  0  0  0  0  0  0  0  0
   65.0054   33.2921   47.1285 H   0  0  0  0  0  0  0  0  0  0  0  0
   63.2681   33.9459   45.4608 H   0  0  0  0  0  0  0  0  0  0  0  0
   60.8781   34.1213   46.1452 H   0  0  0  0  0  0  0  0  0  0  0  0
  1  2  1  0
  2  3  1  0
  3  4  1  0
  4  5  1  0
  3  6  1  0
  6  7  1  0
  7  8  1  0
  8  9  1  0
  9 10  1  0
 10 11  2  0
 10 12  1  0
 12 13  1  0
 13 14  2  0
 14 15  1  0
 15 16  2  0
 16 17  1  0
 17 18  2  0
 12 19  1  0
 19 20  2  0
 20 21  1  0
 21 22  2  0
 22 23  1  0
 23 24  2  0
 18 13  1  0
 24 19  1  0
  1 25  1  0
  1 26  1  0
  1 27  1  0
  2 28  1  0
  2 29  1  0
  4 30  1  0
  4 31  1  0
  5 32  1  0
  5 33  1  0
  5 34  1  0
  6 35  1  0
  6 36  1  0
  7 37  1  0
  7 38  1  0
  8 39  1  0
  8 40  1  0
  9 41  1  0
 12 42  1  0
 14 43  1  0
 15 44  1  0
 16 45  1  0
 17 46  1  0
 18 47  1  0
 20 48  1  0
 21 49  1  0
 22 50  1  0
 23 51  1  0
 24 52  1  0
M  END
>  <UniqueID>  (49) 
46

>  <SMILES>  (49) 
CCN(CC)CCCNC(=O)C(c1ccccc1)c1ccccc1

>  <Energy>  (49) 
48.10250798153933

>  <Genealogy>  (49) 
CCN(CC)CCCNC(=O)C(c1ccccc1)c1ccccc1 (3D coordinates assigned)
CCN(CC)CCCNC(=O)C(c1ccccc1)c1ccccc1 (optimized conformer: 48.10250798153933 kcal/mol)

>  <smiles>  (49) 
CCN(CC)CCCNC(=O)C(c1ccccc1)c1ccccc1

>  <score_type>  (49) 
oracle

>  <origin>  (49) 
adg

>  <m_score__min__energy>  (49) 
-7.4100000000000001

>  <m_primary>  (49) 
energy

$$$$
49:0
     RDKit          3D

 50 52  0  0  0  0  0  0  0  0999 V2000
   59.2040   32.6300   49.7360 C   0  0  0  0  0  0  0  0  0  0  0  0
   58.2190   32.7200   48.7110 O   0  0  0  0  0  0  0  0  0  0  0  0
   58.4690   33.1860   47.4110 C   0  0  0  0  0  0  0  0  0  0  0  0
   59.1230   34.4120   47.2600 C   0  0  0  0  0  0  0  0  0  0  0  0
   59.3840   34.9240   45.9850 C   0  0  0  0  0  0  0  0  0  0  0  0
   58.9940   34.2120   44.8500 C   0  0  0  0  0  0  0  0  0  0  0  0
   58.3500   32.9720   44.9810 C   0  0  0  0  0  0  0  0  0  0  0  0
   57.8890   32.2310   43.7560 C   0  0  0  0  0  0  0  0  0  0  0  0
   57.2270   30.9860   44.1440 N   0  0  0  0  0  0  0  0  0  0  0  0
   55.9000   30.8060   44.3540 C   0  0  0  0  0  0  0  0  0  0  0  0
   55.5910   29.5620   44.8020 N   0  0  0  0  0  0  0  0  0  0  0  0
   56.7930   28.9600   44.8770 C   0  0  0  0  0  0  0  0  0  0  0  0
   57.0640   27.6610   45.2990 C   0  0  0  0  0  0  0  0  0  0  0  0
   58.4140   27.2330   45.3260 C   0  0  0  0  0  0  0  0  0  0  0  0
   58.7400   25.8550   45.7640 C   0  0  0  0  0  0  0  0  0  0  0  0
   59.5350   25.6850   46.7290 O   0  0  0  0  0  0  0  0  0  0  0  0
   58.1800   24.7130   45.0980 N   0  0  0  0  0  0  0  0  0  0  0  0
   58.3420   23.3630   45.6420 C   0  0  0  0  0  0  0  0  0  0  0  0
   57.4780   22.3480   44.8820 C   0  0  0  0  0  0  0  0  0  0  0  0
   56.8290   22.9700   43.7060 N   0  0  0  0  0  0  0  0  0  0  0  0
   55.5240   23.5520   44.0650 C   0  0  0  0  0  0  0  0  0  0  0  0
   56.6420   21.9720   42.6410 C   0  0  0  0  0  0  0  0  0  0  0  0
   59.4360   28.1290   44.9060 C   0  0  0  0  0  0  0  0  0  0  0  0
   59.1240   29.4340   44.4860 C   0  0  0  0  0  0  0  0  0  0  0  0
   57.7820   29.8130   44.4880 C   0  0  0  0  0  0  0  0  0  0  0  0
   58.0810   32.4650   46.2640 C   0  0  0  0  0  0  0  0  0  0  0  0
   58.7144   32.6747   50.7200 H   0  0  0  0  0  0  0  0  0  0  0  0
   59.7474   31.6785   49.6398 H   0  0  0  0  0  0  0  0  0  0  0  0
   59.9109   33.4673   49.6398 H   0  0  0  0  0  0  0  0  0  0  0  0
   59.4346   34.9781   48.1502 H   0  0  0  0  0  0  0  0  0  0  0  0
   59.8980   35.8904   45.8766 H   0  0  0  0  0  0  0  0  0  0  0  0
   59.1920   34.6240   43.8495 H   0  0  0  0  0  0  0  0  0  0  0  0
   57.1823   32.8597   43.1944 H   0  0  0  0  0  0  0  0  0  0  0  0
   58.7603   31.9958   43.1271 H   0  0  0  0  0  0  0  0  0  0  0  0
   55.1483   31.5897   44.1789 H   0  0  0  0  0  0  0  0  0  0  0  0
   56.2513   26.9851   45.6033 H   0  0  0  0  0  0  0  0  0  0  0  0
   57.6850   24.8430   44.1870 H   0  0  0  0  0  0  0  0  0  0  0  0
   59.3983   23.0676   45.5589 H   0  0  0  0  0  0  0  0  0  0  0  0
   58.0219   23.3722   46.6944 H   0  0  0  0  0  0  0  0  0  0  0  0
   58.1149   21.5178   44.5427 H   0  0  0  0  0  0  0  0  0  0  0  0
   56.6926   21.9830   45.5602 H   0  0  0  0  0  0  0  0  0  0  0  0
   55.4300   23.5939   45.1602 H   0  0  0  0  0  0  0  0  0  0  0  0
   55.4496   24.5686   43.6514 H   0  0  0  0  0  0  0  0  0  0  0  0
   54.7180   22.9280   43.6514 H   0  0  0  0  0  0  0  0  0  0  0  0
   56.4572   20.9855   43.0913 H   0  0  0  0  0  0  0  0  0  0  0  0
   55.7817   22.2576   42.0178 H   0  0  0  0  0  0  0  0  0  0  0  0
   57.5473   21.9268   42.0178 H   0  0  0  0  0  0  0  0  0  0  0  0
   60.4845   27.7963   44.9099 H   0  0  0  0  0  0  0  0  0  0  0  0
   59.9117   30.1323   44.1667 H   0  0  0  0  0  0  0  0  0  0  0  0
   57.5647   31.4999   46.3734 H   0  0  0  0  0  0  0  0  0  0  0  0
  1  2  1  0
  2  3  1  0
  3  4  2  0
  4  5  1  0
  5  6  2  0
  6  7  1  0
  7  8  1  0
  8  9  1  0
  9 10  1  0
 10 11  2  0
 11 12  1  0
 12 13  2  0
 13 14  1  0
 14 15  1  0
 15 16  2  0
 15 17  1  0
 17 18  1  0
 18 19  1  0
 19 20  1  0
 20 21  1  0
 20 22  1  0
 14 23  2  0
 23 24  1  0
 24 25  2  0
  7 26  2  0
 26  3  1  0
 25  9  1  0
 25 12  1  0
  1 27  1  0
  1 28  1  0
  1 29  1  0
  4 30  1  0
  5 31  1  0
  6 32  1  0
  8 33  1  0
  8 34  1  0
 10 35  1  0
 13 36  1  0
 17 37  1  0
 18 38  1  0
 18 39  1  0
 19 40  1  0
 19 41  1  0
 21 42  1  0
 21 43  1  0
 21 44  1  0
 22 45  1  0
 22 46  1  0
 22 47  1  0
 23 48  1  0
 24 49  1  0
 26 50  1  0
M  END
>  <UniqueID>  (50) 
47

>  <SMILES>  (50) 
COc1cccc(Cn2cnc3cc(C(=O)NCCN(C)C)ccc32)c1

>  <Energy>  (50) 
85.6582316955371

>  <Genealogy>  (50) 
COc1cccc(Cn2cnc3cc(C(=O)NCCN(C)C)ccc32)c1 (3D coordinates assigned)
COc1cccc(Cn2cnc3cc(C(=O)NCCN(C)C)ccc32)c1 (optimized conformer: 85.6582316955371 kcal/mol)

>  <smiles>  (50) 
COc1cccc(Cn2cnc3cc(C(=O)NCCN(C)C)ccc32)c1

>  <score_type>  (50) 
oracle

>  <origin>  (50) 
adg

>  <m_score__min__energy>  (50) 
-7.4800000000000004

>  <m_primary>  (50) 
energy

$$$$
