0:0
     RDKit          3D

 49 50  0  0  0  0  0  0  0  0999 V2000
   67.9020   33.4880   50.4620 C   0  0  0  0  0  0  0  0  0  0  0  0
   66.6660   33.7320   51.2680 C   0  0  0  0  0  0  0  0  0  0  0  0
   65.4310   33.0690   50.8110 C   0  0  0  0  0  0  0  0  0  0  0  0
   65.1750   32.9340   49.4270 N   0  0  0  0  0  0  0  0  0  0  0  0
   64.1510   33.4650   48.6350 C   0  0  0  0  0  0  0  0  0  0  0  0
   63.2330   34.1640   49.0730 O   0  0  0  0  0  0  0  0  0  0  0  0
   64.1320   33.2010   47.2210 N   0  0  0  0  0  0  0  0  0  0  0  0
   63.0240   33.7970   46.4610 C   0  0  0  0  0  0  0  0  0  0  0  0
   61.8060   33.0550   46.7930 C   0  0  0  0  0  0  0  0  0  0  0  0
   61.7450   31.7840   47.2630 N   0  0  0  0  0  0  0  0  0  0  0  0
   60.4980   31.4220   47.4570 N   0  0  0  0  0  0  0  0  0  0  0  0
   60.0150   30.1540   47.9460 C   0  0  0  0  0  0  0  0  0  0  0  0
   59.7130   32.4430   47.1220 C   0  0  0  0  0  0  0  0  0  0  0  0
   60.5080   33.5100   46.6920 C   0  0  0  0  0  0  0  0  0  0  0  0
   59.8700   34.7750   46.2620 C   0  0  0  0  0  0  0  0  0  0  0  0
   58.5430   34.5880   45.5820 C   0  0  0  0  0  0  0  0  0  0  0  0
   57.9600   33.3450   45.8650 N   0  0  0  0  0  0  0  0  0  0  0  0
   57.0260   32.7750   44.9870 C   0  0  0  0  0  0  0  0  0  0  0  0
   57.3880   31.4580   44.4020 C   0  0  0  0  0  0  0  0  0  0  0  0
   56.5610   30.4670   44.8680 O   0  0  0  0  0  0  0  0  0  0  0  0
   57.0550   29.1930   44.8490 C   0  0  0  0  0  0  0  0  0  0  0  0
   58.2370   32.7130   47.0960 C   0  0  0  0  0  0  0  0  0  0  0  0
   68.7533   33.3199   51.1380 H   0  0  0  0  0  0  0  0  0  0  0  0
   67.7569   32.6012   49.8276 H   0  0  0  0  0  0  0  0  0  0  0  0
   68.1048   34.3634   49.8276 H   0  0  0  0  0  0  0  0  0  0  0  0
   66.8659   33.3913   52.2946 H   0  0  0  0  0  0  0  0  0  0  0  0
   66.4669   34.8093   51.1694 H   0  0  0  0  0  0  0  0  0  0  0  0
   65.4401   32.0534   51.2334 H   0  0  0  0  0  0  0  0  0  0  0  0
   64.6363   33.7492   51.1514 H   0  0  0  0  0  0  0  0  0  0  0  0
   65.8860   32.3200   48.8860 H   0  0  0  0  0  0  0  0  0  0  0  0
   64.8630   32.6190   46.7570 H   0  0  0  0  0  0  0  0  0  0  0  0
   62.9056   34.8548   46.7387 H   0  0  0  0  0  0  0  0  0  0  0  0
   63.2252   33.7434   45.3809 H   0  0  0  0  0  0  0  0  0  0  0  0
   60.0174   30.1602   49.0460 H   0  0  0  0  0  0  0  0  0  0  0  0
   58.9903   29.9871   47.5825 H   0  0  0  0  0  0  0  0  0  0  0  0
   60.6689   29.3476   47.5825 H   0  0  0  0  0  0  0  0  0  0  0  0
   59.7180   35.4055   47.1504 H   0  0  0  0  0  0  0  0  0  0  0  0
   60.5434   35.2377   45.5255 H   0  0  0  0  0  0  0  0  0  0  0  0
   57.8601   35.3818   45.9189 H   0  0  0  0  0  0  0  0  0  0  0  0
   58.7166   34.6339   44.4968 H   0  0  0  0  0  0  0  0  0  0  0  0
   56.0824   32.6486   45.5380 H   0  0  0  0  0  0  0  0  0  0  0  0
   56.9660   33.4672   44.1342 H   0  0  0  0  0  0  0  0  0  0  0  0
   57.2995   31.5146   43.3070 H   0  0  0  0  0  0  0  0  0  0  0  0
   58.4209   31.2176   44.6942 H   0  0  0  0  0  0  0  0  0  0  0  0
   57.1928   28.8377   45.8809 H   0  0  0  0  0  0  0  0  0  0  0  0
   56.3475   28.5332   44.3254 H   0  0  0  0  0  0  0  0  0  0  0  0
   58.0223   29.1826   44.3254 H   0  0  0  0  0  0  0  0  0  0  0  0
   57.9578   33.3720   47.9313 H   0  0  0  0  0  0  0  0  0  0  0  0
   57.6631   31.7802   47.1988 H   0  0  0  0  0  0  0  0  0  0  0  0
  1  2  1  0
  2  3  1  0
  3  4  1  0
  4  5  1  0
  5  6  2  0
  5  7  1  0
  7  8  1  0
  8  9  1  0
  9 10  2  0
 10 11  1  0
 11 12  1  0
 11 13  1  0
 13 14  2  0
 14 15  1  0
 15 16  1  0
 16 17  1  0
 17 18  1  0
 18 19  1  0
 19 20  1  0
 20 21  1  0
 17 22  1  0
 14  9  1  0
 22 13  1  0
  1 23  1  0
  1 24  1  0
  1 25  1  0
  2 26  1  0
  2 27  1  0
  3 28  1  0
  3 29  1  0
  4 30  1  0
  7 31  1  0
  8 32  1  0
  8 33  1  0
 12 34  1  0
 12 35  1  0
 12 36  1  0
 15 37  1  0
 15 38  1  0
 16 39  1  0
 16 40  1  0
 18 41  1  0
 18 42  1  0
 19 43  1  0
 19 44  1  0
 21 45  1  0
 21 46  1  0
 21 47  1  0
 22 48  1  0
 22 49  1  0
M  END
>  <smiles>  (1) 
CCCNC(=O)NCc1nn(C)c2c1CCN(CCOC)C2

>  <score_type>  (1) 
oracle

>  <origin>  (1) 
adg

>  <m_score__min__energy>  (1) 
-7.1799999999999997

>  <m_primary>  (1) 
energy

$$$$
1:0
     RDKit          3D

 77 78  0  0  0  0  0  0  0  0999 V2000
   60.7230   28.0480   49.3930 C   0  0  0  0  0  0  0  0  0  0  0  0
   60.7350   29.5370   49.3640 C   0  0  0  0  0  0  0  0  0  0  0  0
   60.9800   30.1680   50.6550 N   0  0  0  0  0  0  0  0  0  0  0  0
   59.9710   31.1630   50.9370 C   0  0  0  0  0  0  0  0  0  0  0  0
   58.9470   31.2380   49.8190 C   0  0  0  0  0  0  0  0  0  0  0  0
   58.9930   32.5420   49.1990 N   0  0  0  0  0  0  0  0  0  0  0  0
   59.6490   33.4930   50.0760 C   0  0  0  0  0  0  0  0  0  0  0  0
   62.3410   30.7160   50.6030 C   0  0  0  0  0  0  0  0  0  0  0  0
   62.5740   31.4470   49.3470 C   0  0  0  0  0  0  0  0  0  0  0  0
   63.5610   32.4160   49.2040 N   0  0  0  0  0  0  0  0  0  0  0  0
   63.1980   33.3840   48.1890 C   0  0  0  0  0  0  0  0  0  0  0  0
   62.2320   32.8200   47.1480 C   0  0  0  0  0  0  0  0  0  0  0  0
   61.0700   33.5700   47.1930 N   0  0  0  0  0  0  0  0  0  0  0  0
   60.7180   34.5940   46.2860 C   0  0  0  0  0  0  0  0  0  0  0  0
   59.2510   34.9350   46.6470 C   0  0  0  0  0  0  0  0  0  0  0  0
   58.4850   33.6880   46.6990 N   0  0  0  0  0  0  0  0  0  0  0  0
   58.2330   33.2510   45.3490 C   0  0  0  0  0  0  0  0  0  0  0  0
   57.8630   31.8390   45.2640 C   0  0  0  0  0  0  0  0  0  0  0  0
   56.7220   31.3530   44.6470 C   0  0  0  0  0  0  0  0  0  0  0  0
   56.4530   30.0810   44.6570 O   0  0  0  0  0  0  0  0  0  0  0  0
   57.2610   29.2290   45.2550 C   0  0  0  0  0  0  0  0  0  0  0  0
   56.9440   27.8920   45.2530 C   0  0  0  0  0  0  0  0  0  0  0  0
   57.8010   26.9990   45.8930 C   0  0  0  0  0  0  0  0  0  0  0  0
   58.9460   27.4020   46.5210 C   0  0  0  0  0  0  0  0  0  0  0  0
   59.2710   28.7370   46.5280 C   0  0  0  0  0  0  0  0  0  0  0  0
   58.4190   29.6050   45.8950 C   0  0  0  0  0  0  0  0  0  0  0  0
   58.7330   30.9390   45.9030 C   0  0  0  0  0  0  0  0  0  0  0  0
   59.7810   31.3500   46.4720 O   0  0  0  0  0  0  0  0  0  0  0  0
   64.1540   33.0910   50.2690 C   0  0  0  0  0  0  0  0  0  0  0  0
   65.2730   32.5640   51.0710 C   0  0  0  0  0  0  0  0  0  0  0  0
   66.4470   32.1570   50.4030 N   0  0  0  0  0  0  0  0  0  0  0  0
   67.4670   33.1820   50.4890 C   0  0  0  0  0  0  0  0  0  0  0  0
   67.0080   30.9420   50.8920 C   0  0  0  0  0  0  0  0  0  0  0  0
   60.7202   27.7016   50.4370 H   0  0  0  0  0  0  0  0  0  0  0  0
   59.8218   27.6786   48.8817 H   0  0  0  0  0  0  0  0  0  0  0  0
   61.6181   27.6641   48.8817 H   0  0  0  0  0  0  0  0  0  0  0  0
   61.5241   29.8601   48.6691 H   0  0  0  0  0  0  0  0  0  0  0  0
   59.7283   29.8504   49.0503 H   0  0  0  0  0  0  0  0  0  0  0  0
   59.4598   30.9000   51.8748 H   0  0  0  0  0  0  0  0  0  0  0  0
   60.4630   32.1429   51.0253 H   0  0  0  0  0  0  0  0  0  0  0  0
   59.1712   30.4678   49.0663 H   0  0  0  0  0  0  0  0  0  0  0  0
   57.9427   31.0691   50.2348 H   0  0  0  0  0  0  0  0  0  0  0  0
   59.4640   32.4790   48.2800 H   0  0  0  0  0  0  0  0  0  0  0  0
   59.4588   33.2172   51.1237 H   0  0  0  0  0  0  0  0  0  0  0  0
   60.7322   33.4815   49.8847 H   0  0  0  0  0  0  0  0  0  0  0  0
   59.2535   34.5015   49.8847 H   0  0  0  0  0  0  0  0  0  0  0  0
   62.4833   31.4036   51.4498 H   0  0  0  0  0  0  0  0  0  0  0  0
   63.0546   29.8806   50.6568 H   0  0  0  0  0  0  0  0  0  0  0  0
   62.7892   30.6815   48.5869 H   0  0  0  0  0  0  0  0  0  0  0  0
   61.6594   32.0538   49.2741 H   0  0  0  0  0  0  0  0  0  0  0  0
   62.7214   34.2453   48.6799 H   0  0  0  0  0  0  0  0  0  0  0  0
   64.1199   33.6716   47.6623 H   0  0  0  0  0  0  0  0  0  0  0  0
   62.6814   32.8875   46.1463 H   0  0  0  0  0  0  0  0  0  0  0  0
   62.0136   31.7633   47.3619 H   0  0  0  0  0  0  0  0  0  0  0  0
   60.2220   33.0700   47.5370 H   0  0  0  0  0  0  0  0  0  0  0  0
   61.3666   35.4725   46.4188 H   0  0  0  0  0  0  0  0  0  0  0  0
   60.8322   34.2844   45.2367 H   0  0  0  0  0  0  0  0  0  0  0  0
   59.2160   35.4335   47.6270 H   0  0  0  0  0  0  0  0  0  0  0  0
   58.8231   35.6097   45.8908 H   0  0  0  0  0  0  0  0  0  0  0  0
   58.9370   32.9590   47.2570 H   0  0  0  0  0  0  0  0  0  0  0  0
   57.4123   33.8538   44.9331 H   0  0  0  0  0  0  0  0  0  0  0  0
   59.1667   33.3806   44.7821 H   0  0  0  0  0  0  0  0  0  0  0  0
   56.0364   32.0504   44.1434 H   0  0  0  0  0  0  0  0  0  0  0  0
   56.0308   27.5334   44.7555 H   0  0  0  0  0  0  0  0  0  0  0  0
   57.5463   25.9289   45.8928 H   0  0  0  0  0  0  0  0  0  0  0  0
   59.5990   26.6671   47.0145 H   0  0  0  0  0  0  0  0  0  0  0  0
   60.1840   29.0973   47.0247 H   0  0  0  0  0  0  0  0  0  0  0  0
   64.5114   34.0445   49.8529 H   0  0  0  0  0  0  0  0  0  0  0  0
   63.3404   33.0603   51.0087 H   0  0  0  0  0  0  0  0  0  0  0  0
   65.5610   33.3512   51.7832 H   0  0  0  0  0  0  0  0  0  0  0  0
   64.8768   31.6359   51.5087 H   0  0  0  0  0  0  0  0  0  0  0  0
   67.6818   33.3978   51.5460 H   0  0  0  0  0  0  0  0  0  0  0  0
   68.3835   32.8297   49.9931 H   0  0  0  0  0  0  0  0  0  0  0  0
   67.1103   34.0968   49.9931 H   0  0  0  0  0  0  0  0  0  0  0  0
   67.0032   30.9525   51.9919 H   0  0  0  0  0  0  0  0  0  0  0  0
   66.4116   30.0912   50.5308 H   0  0  0  0  0  0  0  0  0  0  0  0
   68.0424   30.8443   50.5308 H   0  0  0  0  0  0  0  0  0  0  0  0
  1  2  1  0
  2  3  1  0
  3  4  1  0
  4  5  1  0
  5  6  1  0
  6  7  1  0
  3  8  1  0
  8  9  1  0
  9 10  1  0
 10 11  1  0
 11 12  1  0
 12 13  1  0
 13 14  1  0
 14 15  1  0
 15 16  1  0
 16 17  1  0
 17 18  1  0
 18 19  2  0
 19 20  1  0
 20 21  1  0
 21 22  2  0
 22 23  1  0
 23 24  2  0
 24 25  1  0
 25 26  2  0
 26 27  1  0
 27 28  2  0
 10 29  1  0
 29 30  1  0
 30 31  1  0
 31 32  1  0
 31 33  1  0
 27 18  1  0
 26 21  1  0
  1 34  1  0
  1 35  1  0
  1 36  1  0
  2 37  1  0
  2 38  1  0
  4 39  1  0
  4 40  1  0
  5 41  1  0
  5 42  1  0
  6 43  1  0
  7 44  1  0
  7 45  1  0
  7 46  1  0
  8 47  1  0
  8 48  1  0
  9 49  1  0
  9 50  1  0
 11 51  1  0
 11 52  1  0
 12 53  1  0
 12 54  1  0
 13 55  1  0
 14 56  1  0
 14 57  1  0
 15 58  1  0
 15 59  1  0
 16 60  1  0
 17 61  1  0
 17 62  1  0
 19 63  1  0
 22 64  1  0
 23 65  1  0
 24 66  1  0
 25 67  1  0
 29 68  1  0
 29 69  1  0
 30 70  1  0
 30 71  1  0
 32 72  1  0
 32 73  1  0
 32 74  1  0
 33 75  1  0
 33 76  1  0
 33 77  1  0
M  END
>  <smiles>  (2) 
CCN(CCNC)CCN(CCNCCNCc1coc2ccccc2c1=O)CCN(C)C

>  <score_type>  (2) 
oracle

>  <origin>  (2) 
adg

>  <m_score__min__energy>  (2) 
-6.5199999999999996

>  <m_primary>  (2) 
energy

$$$$
3:0
     RDKit          3D

 29 30  0  0  0  0  0  0  0  0999 V2000
   59.3370   34.3520   45.9950 C   0  0  0  0  0  0  0  0  0  0  0  0
   58.9660   32.8640   45.9800 C   0  0  0  0  0  0  0  0  0  0  0  0
   57.6860   32.7630   45.3590 N   0  0  0  0  0  0  0  0  0  0  0  0
   57.3290   34.1010   44.8840 C   0  0  0  0  0  0  0  0  0  0  0  0
   57.6110   31.8770   44.2340 C   0  0  0  0  0  0  0  0  0  0  0  0
   56.9640   30.5840   44.5700 C   0  0  0  0  0  0  0  0  0  0  0  0
   55.6440   30.2090   44.4410 C   0  0  0  0  0  0  0  0  0  0  0  0
   55.4780   28.9710   44.8520 O   0  0  0  0  0  0  0  0  0  0  0  0
   56.6550   28.5220   45.2470 C   0  0  0  0  0  0  0  0  0  0  0  0
   56.9560   27.1950   45.7850 C   0  0  0  0  0  0  0  0  0  0  0  0
   58.2090   26.5870   45.8580 C   0  0  0  0  0  0  0  0  0  0  0  0
   58.0580   25.3280   46.4380 C   0  0  0  0  0  0  0  0  0  0  0  0
   56.6970   25.2400   46.6900 C   0  0  0  0  0  0  0  0  0  0  0  0
   55.8960   23.6980   47.4950 Br  0  0  0  0  0  0  0  0  0  0  0  0
   56.1230   26.3370   46.2930 O   0  0  0  0  0  0  0  0  0  0  0  0
   57.5770   29.4850   45.0850 N   0  0  0  0  0  0  0  0  0  0  0  0
   59.4232   34.6979   47.0356 H   0  0  0  0  0  0  0  0  0  0  0  0
   60.2984   34.4954   45.4801 H   0  0  0  0  0  0  0  0  0  0  0  0
   58.5555   34.9300   45.4801 H   0  0  0  0  0  0  0  0  0  0  0  0
   59.7112   32.2940   45.4057 H   0  0  0  0  0  0  0  0  0  0  0  0
   58.9424   32.4535   47.0003 H   0  0  0  0  0  0  0  0  0  0  0  0
   57.1528   34.7612   45.7460 H   0  0  0  0  0  0  0  0  0  0  0  0
   58.1507   34.5051   44.2745 H   0  0  0  0  0  0  0  0  0  0  0  0
   56.4152   34.0420   44.2745 H   0  0  0  0  0  0  0  0  0  0  0  0
   57.0298   32.3659   43.4383 H   0  0  0  0  0  0  0  0  0  0  0  0
   58.6397   31.6613   43.9097 H   0  0  0  0  0  0  0  0  0  0  0  0
   54.8432   30.8537   44.0498 H   0  0  0  0  0  0  0  0  0  0  0  0
   59.1573   27.0268   45.5155 H   0  0  0  0  0  0  0  0  0  0  0  0
   58.8365   24.5794   46.6469 H   0  0  0  0  0  0  0  0  0  0  0  0
  1  2  1  0
  2  3  1  0
  3  4  1  0
  3  5  1  0
  5  6  1  0
  6  7  2  0
  7  8  1  0
  8  9  1  0
  9 10  1  0
 10 11  2  0
 11 12  1  0
 12 13  2  0
 13 14  1  0
 13 15  1  0
  9 16  2  0
 16  6  1  0
 15 10  1  0
  1 17  1  0
  1 18  1  0
  1 19  1  0
  2 20  1  0
  2 21  1  0
  4 22  1  0
  4 23  1  0
  4 24  1  0
  5 25  1  0
  5 26  1  0
  7 27  1  0
 11 28  1  0
 12 29  1  0
M  END
>  <smiles>  (3) 
CCN(C)Cc1coc(-c2ccc(Br)o2)n1

>  <score_type>  (3) 
oracle

>  <origin>  (3) 
adg

>  <m_score__min__energy>  (3) 
-5.9699999999999998

>  <m_primary>  (3) 
energy

$$$$
4:0
     RDKit          3D

 34 36  0  0  0  0  0  0  0  0999 V2000
   59.7600   33.0680   50.6200 C   0  0  0  0  0  0  0  0  0  0  0  0
   60.3810   34.2130   50.0620 O   0  0  0  0  0  0  0  0  0  0  0  0
   61.1890   34.0440   48.9610 C   0  0  0  0  0  0  0  0  0  0  0  0
   62.5520   33.8740   49.0750 C   0  0  0  0  0  0  0  0  0  0  0  0
   63.3960   33.7010   47.9990 C   0  0  0  0  0  0  0  0  0  0  0  0
   62.7970   33.7060   46.7420 C   0  0  0  0  0  0  0  0  0  0  0  0
   61.4580   33.8740   46.6200 C   0  0  0  0  0  0  0  0  0  0  0  0
   60.6110   34.0490   47.7210 C   0  0  0  0  0  0  0  0  0  0  0  0
   59.1860   34.2370   47.4280 C   0  0  0  0  0  0  0  0  0  0  0  0
   58.7040   33.2250   46.5110 N   0  0  0  0  0  0  0  0  0  0  0  0
   58.5030   31.8450   46.6490 C   0  0  0  0  0  0  0  0  0  0  0  0
   58.7550   31.2290   47.7440 O   0  0  0  0  0  0  0  0  0  0  0  0
   58.0030   31.2020   45.4760 C   0  0  0  0  0  0  0  0  0  0  0  0
   57.6860   29.8460   45.2760 C   0  0  0  0  0  0  0  0  0  0  0  0
   57.2030   29.4120   44.0600 C   0  0  0  0  0  0  0  0  0  0  0  0
   57.0110   30.2730   43.0040 C   0  0  0  0  0  0  0  0  0  0  0  0
   57.3140   31.6050   43.1800 C   0  0  0  0  0  0  0  0  0  0  0  0
   57.8020   32.0230   44.4180 C   0  0  0  0  0  0  0  0  0  0  0  0
   58.2620   33.6530   44.8670 S   0  0  0  0  0  0  0  0  0  0  0  0
   59.3990   34.1910   44.0960 O   0  0  0  0  0  0  0  0  0  0  0  0
   57.0770   34.5880   44.9150 O   0  0  0  0  0  0  0  0  0  0  0  0
   59.7940   33.1307   51.7177 H   0  0  0  0  0  0  0  0  0  0  0  0
   58.7125   33.0204   50.2877 H   0  0  0  0  0  0  0  0  0  0  0  0
   60.2915   32.1640   50.2877 H   0  0  0  0  0  0  0  0  0  0  0  0
   62.9918   33.8765   50.0832 H   0  0  0  0  0  0  0  0  0  0  0  0
   64.4804   33.5667   48.1260 H   0  0  0  0  0  0  0  0  0  0  0  0
   63.4150   33.5727   45.8419 H   0  0  0  0  0  0  0  0  0  0  0  0
   61.0173   33.8728   45.6121 H   0  0  0  0  0  0  0  0  0  0  0  0
   58.6149   34.1731   48.3660 H   0  0  0  0  0  0  0  0  0  0  0  0
   59.0528   35.2238   46.9605 H   0  0  0  0  0  0  0  0  0  0  0  0
   57.8246   29.1264   46.0964 H   0  0  0  0  0  0  0  0  0  0  0  0
   56.9641   28.3462   43.9301 H   0  0  0  0  0  0  0  0  0  0  0  0
   56.6245   29.9061   42.0417 H   0  0  0  0  0  0  0  0  0  0  0  0
   57.1739   32.3250   42.3603 H   0  0  0  0  0  0  0  0  0  0  0  0
  1  2  1  0
  2  3  1  0
  3  4  2  0
  4  5  1  0
  5  6  2  0
  6  7  1  0
  7  8  2  0
  8  9  1  0
  9 10  1  0
 10 11  1  0
 11 12  2  0
 11 13  1  0
 13 14  2  0
 14 15  1  0
 15 16  2  0
 16 17  1  0
 17 18  2  0
 18 19  1  0
 19 20  2  0
 19 21  2  0
  8  3  1  0
 19 10  1  0
 18 13  1  0
  1 22  1  0
  1 23  1  0
  1 24  1  0
  4 25  1  0
  5 26  1  0
  6 27  1  0
  7 28  1  0
  9 29  1  0
  9 30  1  0
 14 31  1  0
 15 32  1  0
 16 33  1  0
 17 34  1  0
M  END
>  <smiles>  (4) 
COc1ccccc1CN1C(=O)c2ccccc2S1(=O)=O

>  <score_type>  (4) 
oracle

>  <origin>  (4) 
adg

>  <m_score__min__energy>  (4) 
-7.6699999999999999

>  <m_primary>  (4) 
energy

$$$$
5:0
     RDKit          3D

 33 34  0  0  0  0  0  0  0  0999 V2000
   55.2330   26.6080   45.9580 N   0  0  0  0  0  0  0  0  0  0  0  0
   56.4070   26.2420   46.7350 C   0  0  0  0  0  0  0  0  0  0  0  0
   57.4550   25.5910   45.8330 C   0  0  0  0  0  0  0  0  0  0  0  0
   57.7560   26.5520   44.6690 C   0  0  0  0  0  0  0  0  0  0  0  0
   58.1670   27.7620   45.0530 N   0  0  0  0  0  0  0  0  0  0  0  0
   58.5940   29.0260   45.4570 C   0  0  0  0  0  0  0  0  0  0  0  0
   59.6900   29.4520   46.1310 C   0  0  0  0  0  0  0  0  0  0  0  0
   59.9620   30.7820   46.4350 C   0  0  0  0  0  0  0  0  0  0  0  0
   59.0540   31.7080   46.0200 C   0  0  0  0  0  0  0  0  0  0  0  0
   59.2740   33.0230   46.2920 C   0  0  0  0  0  0  0  0  0  0  0  0
   58.4030   34.0420   45.9110 C   0  0  0  0  0  0  0  0  0  0  0  0
   57.2540   33.7060   45.2180 C   0  0  0  0  0  0  0  0  0  0  0  0
   57.0240   32.3470   44.9330 C   0  0  0  0  0  0  0  0  0  0  0  0
   57.9130   31.3730   45.3300 C   0  0  0  0  0  0  0  0  0  0  0  0
   57.6950   30.0620   45.0600 C   0  0  0  0  0  0  0  0  0  0  0  0
   56.5050   29.7240   44.3370 N   0  0  0  0  0  0  0  0  0  0  0  0
   56.4080   30.0500   43.1500 O   0  0  0  0  0  0  0  0  0  0  0  0
   55.4550   29.0460   44.9060 O   0  0  0  0  0  0  0  0  0  0  0  0
   55.5440   26.8930   44.9790 H   0  0  0  0  0  0  0  0  0  0  0  0
   54.8030   27.4640   46.3730 H   0  0  0  0  0  0  0  0  0  0  0  0
   56.8342   27.1452   47.1952 H   0  0  0  0  0  0  0  0  0  0  0  0
   56.1115   25.5263   47.5163 H   0  0  0  0  0  0  0  0  0  0  0  0
   58.3743   25.4028   46.4070 H   0  0  0  0  0  0  0  0  0  0  0  0
   57.0784   24.6329   45.4454 H   0  0  0  0  0  0  0  0  0  0  0  0
   58.5420   26.1024   44.0445 H   0  0  0  0  0  0  0  0  0  0  0  0
   56.8110   26.6963   44.1248 H   0  0  0  0  0  0  0  0  0  0  0  0
   56.9610   27.9910   45.6070 H   0  0  0  0  0  0  0  0  0  0  0  0
   60.4150   28.6932   46.4606 H   0  0  0  0  0  0  0  0  0  0  0  0
   60.8691   31.0723   46.9854 H   0  0  0  0  0  0  0  0  0  0  0  0
   60.1871   33.2960   46.8413 H   0  0  0  0  0  0  0  0  0  0  0  0
   58.6245   35.0912   46.1562 H   0  0  0  0  0  0  0  0  0  0  0  0
   56.5399   34.4793   44.8985 H   0  0  0  0  0  0  0  0  0  0  0  0
   56.1167   32.0573   44.3826 H   0  0  0  0  0  0  0  0  0  0  0  0
  1  2  1  0
  2  3  1  0
  3  4  1  0
  4  5  1  0
  5  6  1  0
  6  7  2  0
  7  8  1  0
  8  9  2  0
  9 10  1  0
 10 11  2  0
 11 12  1  0
 12 13  2  0
 13 14  1  0
 14 15  2  0
 15 16  1  0
 16 17  2  0
 16 18  1  0
 15  6  1  0
 14  9  1  0
  1 19  1  0
  1 20  1  0
  2 21  1  0
  2 22  1  0
  3 23  1  0
  3 24  1  0
  4 25  1  0
  4 26  1  0
  5 27  1  0
  7 28  1  0
  8 29  1  0
 10 30  1  0
 11 31  1  0
 12 32  1  0
 13 33  1  0
M  CHG  2  16   1  18  -1
M  END
>  <smiles>  (5) 
NCCCNc1ccc2ccccc2c1[N+](=O)[O-]

>  <score_type>  (5) 
oracle

>  <origin>  (5) 
adg

>  <m_score__min__energy>  (5) 
-7.0700000000000003

>  <m_primary>  (5) 
energy

$$$$
6:0
     RDKit          3D

 75 78  0  0  0  0  0  0  0  0999 V2000
   59.2350   34.9820   45.0090 C   0  0  0  0  0  0  0  0  0  0  0  0
   59.0690   34.9780   46.5030 C   0  0  0  0  0  0  0  0  0  0  0  0
   60.2080   34.5140   47.2140 N   0  0  0  0  0  0  0  0  0  0  0  0
   59.9770   33.8200   48.4360 C   0  0  0  0  0  0  0  0  0  0  0  0
   61.0510   33.7750   46.3170 C   0  0  0  0  0  0  0  0  0  0  0  0
   62.5010   33.9740   46.5740 C   0  0  0  0  0  0  0  0  0  0  0  0
   63.1620   33.3230   47.4910 O   0  0  0  0  0  0  0  0  0  0  0  0
   63.4540   32.0360   47.6270 C   0  0  0  0  0  0  0  0  0  0  0  0
   62.3040   31.2180   48.1420 C   0  0  0  0  0  0  0  0  0  0  0  0
   61.4860   30.6950   47.1650 C   0  0  0  0  0  0  0  0  0  0  0  0
   60.4560   29.7920   47.4830 C   0  0  0  0  0  0  0  0  0  0  0  0
   59.7170   29.2840   46.3520 C   0  0  0  0  0  0  0  0  0  0  0  0
   59.8820   27.9450   45.9930 C   0  0  0  0  0  0  0  0  0  0  0  0
   59.2170   27.3580   44.9560 C   0  0  0  0  0  0  0  0  0  0  0  0
   58.3370   28.1550   44.2390 C   0  0  0  0  0  0  0  0  0  0  0  0
   58.1300   29.4920   44.5480 C   0  0  0  0  0  0  0  0  0  0  0  0
   57.2270   30.2600   43.8140 C   0  0  0  0  0  0  0  0  0  0  0  0
   57.0150   31.5800   44.1450 C   0  0  0  0  0  0  0  0  0  0  0  0
   57.7080   32.1080   45.2000 C   0  0  0  0  0  0  0  0  0  0  0  0
   58.6060   31.3370   45.9240 C   0  0  0  0  0  0  0  0  0  0  0  0
   58.8220   30.0280   45.5970 C   0  0  0  0  0  0  0  0  0  0  0  0
   60.3160   29.4720   48.7960 C   0  0  0  0  0  0  0  0  0  0  0  0
   61.1540   30.0100   49.7760 C   0  0  0  0  0  0  0  0  0  0  0  0
   62.1670   30.8960   49.4900 C   0  0  0  0  0  0  0  0  0  0  0  0
   63.0180   31.4660   50.3610 O   0  0  0  0  0  0  0  0  0  0  0  0
   62.8790   32.5700   51.1360 C   0  0  0  0  0  0  0  0  0  0  0  0
   61.4560   33.1610   51.2070 C   0  0  0  0  0  0  0  0  0  0  0  0
   60.7380   32.3480   52.2120 C   0  0  0  0  0  0  0  0  0  0  0  0
   59.3410   32.5990   52.5580 C   0  0  0  0  0  0  0  0  0  0  0  0
   58.3220   32.6610   51.6020 N   0  0  0  0  0  0  0  0  0  0  0  0
   58.2700   31.7500   50.5240 C   0  0  0  0  0  0  0  0  0  0  0  0
   58.1550   30.3030   50.9980 C   0  0  0  0  0  0  0  0  0  0  0  0
   56.9120   30.2060   51.6310 O   0  0  0  0  0  0  0  0  0  0  0  0
   56.8330   31.0920   52.6740 C   0  0  0  0  0  0  0  0  0  0  0  0
   57.0120   32.5370   52.2930 C   0  0  0  0  0  0  0  0  0  0  0  0
   60.3059   35.0078   44.7591 H   0  0  0  0  0  0  0  0  0  0  0  0
   58.7819   34.0727   44.5873 H   0  0  0  0  0  0  0  0  0  0  0  0
   58.7386   35.8685   44.5873 H   0  0  0  0  0  0  0  0  0  0  0  0
   58.8541   36.0064   46.8290 H   0  0  0  0  0  0  0  0  0  0  0  0
   58.2495   34.2796   46.7282 H   0  0  0  0  0  0  0  0  0  0  0  0
   60.1986   34.4856   49.2832 H   0  0  0  0  0  0  0  0  0  0  0  0
   58.9248   33.5028   48.4843 H   0  0  0  0  0  0  0  0  0  0  0  0
   60.6292   32.9355   48.4843 H   0  0  0  0  0  0  0  0  0  0  0  0
   60.8212   32.7046   46.4242 H   0  0  0  0  0  0  0  0  0  0  0  0
   60.8470   34.1433   45.3008 H   0  0  0  0  0  0  0  0  0  0  0  0
   63.0087   33.7543   45.6232 H   0  0  0  0  0  0  0  0  0  0  0  0
   62.5102   34.9947   46.9839 H   0  0  0  0  0  0  0  0  0  0  0  0
   63.7524   31.6398   46.6452 H   0  0  0  0  0  0  0  0  0  0  0  0
   64.2644   31.9618   48.3671 H   0  0  0  0  0  0  0  0  0  0  0  0
   61.6413   30.9892   46.1165 H   0  0  0  0  0  0  0  0  0  0  0  0
   60.5844   27.3314   46.5762 H   0  0  0  0  0  0  0  0  0  0  0  0
   59.3720   26.2995   44.7000 H   0  0  0  0  0  0  0  0  0  0  0  0
   57.7845   27.7124   43.3970 H   0  0  0  0  0  0  0  0  0  0  0  0
   56.6833   29.8112   42.9696 H   0  0  0  0  0  0  0  0  0  0  0  0
   56.3046   32.1959   43.5741 H   0  0  0  0  0  0  0  0  0  0  0  0
   57.5507   33.1604   45.4786 H   0  0  0  0  0  0  0  0  0  0  0  0
   59.1494   31.7839   46.7696 H   0  0  0  0  0  0  0  0  0  0  0  0
   59.5225   28.7714   49.0952 H   0  0  0  0  0  0  0  0  0  0  0  0
   60.9968   29.7119   50.8231 H   0  0  0  0  0  0  0  0  0  0  0  0
   63.1871   32.3064   52.1585 H   0  0  0  0  0  0  0  0  0  0  0  0
   63.5035   33.3457   50.6687 H   0  0  0  0  0  0  0  0  0  0  0  0
   61.4930   34.2147   51.5207 H   0  0  0  0  0  0  0  0  0  0  0  0
   60.9547   33.1344   50.2282 H   0  0  0  0  0  0  0  0  0  0  0  0
   60.7848   31.3080   51.8567 H   0  0  0  0  0  0  0  0  0  0  0  0
   61.2581   32.6199   53.1424 H   0  0  0  0  0  0  0  0  0  0  0  0
   59.0531   31.8004   53.2575 H   0  0  0  0  0  0  0  0  0  0  0  0
   59.3826   33.6418   52.9055 H   0  0  0  0  0  0  0  0  0  0  0  0
   57.3963   31.9890   49.8998 H   0  0  0  0  0  0  0  0  0  0  0  0
   59.2064   31.8459   49.9548 H   0  0  0  0  0  0  0  0  0  0  0  0
   58.2032   29.6146   50.1414 H   0  0  0  0  0  0  0  0  0  0  0  0
   58.9770   30.0335   51.6775 H   0  0  0  0  0  0  0  0  0  0  0  0
   55.8434   30.9820   53.1416 H   0  0  0  0  0  0  0  0  0  0  0  0
   57.6643   30.8463   53.3511 H   0  0  0  0  0  0  0  0  0  0  0  0
   56.2012   32.8503   51.6188 H   0  0  0  0  0  0  0  0  0  0  0  0
   56.9845   33.1782   53.1864 H   0  0  0  0  0  0  0  0  0  0  0  0
  1  2  1  0
  2  3  1  0
  3  4  1  0
  3  5  1  0
  5  6  1  0
  6  7  1  0
  7  8  1  0
  8  9  1  0
  9 10  2  0
 10 11  1  0
 11 12  1  0
 12 13  2  0
 13 14  1  0
 14 15  2  0
 15 16  1  0
 16 17  2  0
 17 18  1  0
 18 19  2  0
 19 20  1  0
 20 21  2  0
 11 22  2  0
 22 23  1  0
 23 24  2  0
 24 25  1  0
 25 26  1  0
 26 27  1  0
 27 28  1  0
 28 29  1  0
 29 30  1  0
 30 31  1  0
 31 32  1  0
 32 33  1  0
 33 34  1  0
 34 35  1  0
 24  9  1  0
 35 30  1  0
 21 12  1  0
 21 16  1  0
  1 36  1  0
  1 37  1  0
  1 38  1  0
  2 39  1  0
  2 40  1  0
  4 41  1  0
  4 42  1  0
  4 43  1  0
  5 44  1  0
  5 45  1  0
  6 46  1  0
  6 47  1  0
  8 48  1  0
  8 49  1  0
 10 50  1  0
 13 51  1  0
 14 52  1  0
 15 53  1  0
 17 54  1  0
 18 55  1  0
 19 56  1  0
 20 57  1  0
 22 58  1  0
 23 59  1  0
 26 60  1  0
 26 61  1  0
 27 62  1  0
 27 63  1  0
 28 64  1  0
 28 65  1  0
 29 66  1  0
 29 67  1  0
 31 68  1  0
 31 69  1  0
 32 70  1  0
 32 71  1  0
 34 72  1  0
 34 73  1  0
 35 74  1  0
 35 75  1  0
M  END
>  <smiles>  (6) 
CCN(C)CCOCc1cc(-c2cccc3ccccc23)ccc1OCCCCN1CCOCC1

>  <score_type>  (6) 
oracle

>  <origin>  (6) 
adg

>  <m_score__min__energy>  (6) 
-9.3499999999999996

>  <m_primary>  (6) 
energy

$$$$
7:0
     RDKit          3D

 56 59  0  0  1  0  0  0  0  0999 V2000
   56.1100   25.5940   45.6130 C   0  0  0  0  0  0  0  0  0  0  0  0
   55.9320   26.9930   45.6230 O   0  0  0  0  0  0  0  0  0  0  0  0
   57.0110   27.7820   46.0010 C   0  0  0  0  0  0  0  0  0  0  0  0
   58.0390   27.2290   46.7700 C   0  0  0  0  0  0  0  0  0  0  0  0
   59.0620   28.0550   47.1050 C   0  0  0  0  0  0  0  0  0  0  0  0
   59.1300   29.4000   46.7240 C   0  0  0  0  0  0  0  0  0  0  0  0
   58.1210   29.9440   45.9700 C   0  0  0  0  0  0  0  0  0  0  0  0
   57.0690   29.1090   45.6210 C   0  0  0  0  0  0  0  0  0  0  0  0
   56.0190   29.5950   44.8620 O   0  0  0  0  0  0  0  0  0  0  0  0
   56.2220   29.8270   43.4960 C   0  0  0  0  0  0  0  0  0  0  0  0
   60.3350   30.1350   47.1750 C   0  0  1  0  0  0  0  0  0  0  0  0
   60.2320   31.6150   46.8660 C   0  0  0  0  0  0  0  0  0  0  0  0
   61.3850   32.3020   47.4830 C   0  0  0  0  0  0  0  0  0  0  0  0
   62.6470   31.8010   47.1700 C   0  0  0  0  0  0  0  0  0  0  0  0
   63.7990   32.3110   47.7300 C   0  0  0  0  0  0  0  0  0  0  0  0
   63.6480   33.3500   48.6220 C   0  0  0  0  0  0  0  0  0  0  0  0
   62.4000   33.8550   48.9390 C   0  0  0  0  0  0  0  0  0  0  0  0
   61.2340   33.3570   48.3870 C   0  0  0  0  0  0  0  0  0  0  0  0
   59.9230   33.9300   48.6690 C   0  0  0  0  0  0  0  0  0  0  0  0
   59.2160   34.6360   47.8210 C   0  0  0  0  0  0  0  0  0  0  0  0
   58.6620   34.1260   46.5740 C   0  0  0  0  0  0  0  0  0  0  0  0
   59.3520   34.3060   45.3660 C   0  0  0  0  0  0  0  0  0  0  0  0
   58.8540   33.8350   44.1700 C   0  0  0  0  0  0  0  0  0  0  0  0
   57.6510   33.1630   44.1060 C   0  0  0  0  0  0  0  0  0  0  0  0
   56.9700   32.9830   45.2840 C   0  0  0  0  0  0  0  0  0  0  0  0
   57.4690   33.4550   46.4800 C   0  0  0  0  0  0  0  0  0  0  0  0
   60.5880   29.9230   48.5520 N   0  0  0  0  0  0  0  0  0  0  0  0
   60.2390   28.6440   49.0860 C   0  0  0  0  0  0  0  0  0  0  0  0
   60.2420   27.6250   47.9480 C   0  0  0  0  0  0  0  0  0  0  0  0
   56.1572   25.2230   46.6475 H   0  0  0  0  0  0  0  0  0  0  0  0
   55.2649   25.1206   45.0919 H   0  0  0  0  0  0  0  0  0  0  0  0
   57.0468   25.3473   45.0919 H   0  0  0  0  0  0  0  0  0  0  0  0
   58.0196   26.1761   47.0879 H   0  0  0  0  0  0  0  0  0  0  0  0
   58.1450   30.9978   45.6554 H   0  0  0  0  0  0  0  0  0  0  0  0
   56.9413   30.6491   43.3666 H   0  0  0  0  0  0  0  0  0  0  0  0
   56.6180   28.9156   43.0242 H   0  0  0  0  0  0  0  0  0  0  0  0
   55.2661   30.0985   43.0242 H   0  0  0  0  0  0  0  0  0  0  0  0
   61.1892   29.7327   46.6106 H   0  0  0  0  0  0  0  0  0  0  0  0
   60.2472   31.7690   45.7769 H   0  0  0  0  0  0  0  0  0  0  0  0
   59.2916   32.0202   47.2678 H   0  0  0  0  0  0  0  0  0  0  0  0
   62.7268   30.9712   46.4524 H   0  0  0  0  0  0  0  0  0  0  0  0
   64.7907   31.9079   47.4768 H   0  0  0  0  0  0  0  0  0  0  0  0
   64.5404   33.7880   49.0929 H   0  0  0  0  0  0  0  0  0  0  0  0
   62.3324   34.6848   49.6579 H   0  0  0  0  0  0  0  0  0  0  0  0
   59.4958   33.7567   49.6677 H   0  0  0  0  0  0  0  0  0  0  0  0
   59.0271   35.6909   48.0690 H   0  0  0  0  0  0  0  0  0  0  0  0
   60.3155   34.8368   45.3733 H   0  0  0  0  0  0  0  0  0  0  0  0
   59.4285   33.9986   43.2463 H   0  0  0  0  0  0  0  0  0  0  0  0
   57.2543   32.7873   43.1513 H   0  0  0  0  0  0  0  0  0  0  0  0
   56.0069   32.4516   45.2740 H   0  0  0  0  0  0  0  0  0  0  0  0
   56.8858   33.2863   47.3973 H   0  0  0  0  0  0  0  0  0  0  0  0
   61.6110   30.1180   48.8050 H   0  0  0  0  0  0  0  0  0  0  0  0
   60.9728   28.3485   49.8503 H   0  0  0  0  0  0  0  0  0  0  0  0
   59.2420   28.6886   49.5486 H   0  0  0  0  0  0  0  0  0  0  0  0
   61.1785   27.6766   47.3733 H   0  0  0  0  0  0  0  0  0  0  0  0
   60.1698   26.5843   48.2970 H   0  0  0  0  0  0  0  0  0  0  0  0
  1  2  1  0
  2  3  1  0
  3  4  2  0
  4  5  1  0
  5  6  2  0
  6  7  1  0
  7  8  2  0
  8  9  1  0
  9 10  1  0
  6 11  1  0
 11 12  1  0
 12 13  1  0
 13 14  2  0
 14 15  1  0
 15 16  2  0
 16 17  1  0
 17 18  2  0
 18 19  1  0
 19 20  2  0
 20 21  1  0
 21 22  2  0
 22 23  1  0
 23 24  2  0
 24 25  1  0
 25 26  2  0
 11 27  1  0
 27 28  1  0
 28 29  1  0
  8  3  1  0
 18 13  1  0
 26 21  1  0
 29  5  1  0
  1 30  1  0
  1 31  1  0
  1 32  1  0
  4 33  1  0
  7 34  1  0
 10 35  1  0
 10 36  1  0
 10 37  1  0
 11 38  1  6
 12 39  1  0
 12 40  1  0
 14 41  1  0
 15 42  1  0
 16 43  1  0
 17 44  1  0
 19 45  1  0
 20 46  1  0
 22 47  1  0
 23 48  1  0
 24 49  1  0
 25 50  1  0
 26 51  1  0
 27 52  1  0
 28 53  1  0
 28 54  1  0
 29 55  1  0
 29 56  1  0
M  END
>  <smiles>  (7) 
COc1cc2c(cc1OC)C(Cc1ccccc1C=Cc1ccccc1)NCC2

>  <score_type>  (7) 
oracle

>  <origin>  (7) 
adg

>  <m_score__min__energy>  (7) 
-9.8000000000000007

>  <m_primary>  (7) 
energy

$$$$
8:0
     RDKit          3D

 55 57  0  0  0  0  0  0  0  0999 V2000
   57.0180   29.1880   43.1350 C   0  0  0  0  0  0  0  0  0  0  0  0
   57.2430   29.5770   44.5530 C   0  0  0  0  0  0  0  0  0  0  0  0
   56.2980   30.0610   45.2300 O   0  0  0  0  0  0  0  0  0  0  0  0
   58.5100   29.4080   45.1530 N   0  0  0  0  0  0  0  0  0  0  0  0
   58.7440   29.7750   46.5090 C   0  0  0  0  0  0  0  0  0  0  0  0
   58.5610   31.0800   46.9290 C   0  0  0  0  0  0  0  0  0  0  0  0
   58.7770   31.4790   48.2390 C   0  0  0  0  0  0  0  0  0  0  0  0
   59.1940   30.5010   49.1360 C   0  0  0  0  0  0  0  0  0  0  0  0
   59.4500   30.7800   50.5050 N   0  0  0  0  0  0  0  0  0  0  0  0
   58.4630   30.3670   51.4460 C   0  0  0  0  0  0  0  0  0  0  0  0
   57.4360   29.7860   50.9960 O   0  0  0  0  0  0  0  0  0  0  0  0
   58.6020   30.5950   52.9120 C   0  0  0  0  0  0  0  0  0  0  0  0
   58.8740   31.9820   53.2280 N   0  0  0  0  0  0  0  0  0  0  0  0
   59.7620   32.2960   54.3310 C   0  0  0  0  0  0  0  0  0  0  0  0
   58.3120   33.0740   52.5110 C   0  0  0  0  0  0  0  0  0  0  0  0
   57.0600   33.2540   52.4090 O   0  0  0  0  0  0  0  0  0  0  0  0
   59.2610   34.0220   51.8700 C   0  0  0  0  0  0  0  0  0  0  0  0
   59.9800   33.4060   50.8170 O   0  0  0  0  0  0  0  0  0  0  0  0
   61.3440   33.3630   50.7170 C   0  0  0  0  0  0  0  0  0  0  0  0
   61.9660   32.5170   51.4400 O   0  0  0  0  0  0  0  0  0  0  0  0
   62.1560   34.2190   49.8380 C   0  0  0  0  0  0  0  0  0  0  0  0
   61.9180   34.0280   48.4420 N   0  0  0  0  0  0  0  0  0  0  0  0
   62.8900   33.6450   47.5700 C   0  0  0  0  0  0  0  0  0  0  0  0
   62.4010   33.5410   46.3360 N   0  0  0  0  0  0  0  0  0  0  0  0
   61.0900   33.8580   46.3760 C   0  0  0  0  0  0  0  0  0  0  0  0
   60.0960   33.9250   45.4330 C   0  0  0  0  0  0  0  0  0  0  0  0
   58.7990   34.2910   45.7710 C   0  0  0  0  0  0  0  0  0  0  0  0
   58.5380   34.5900   47.1120 C   0  0  0  0  0  0  0  0  0  0  0  0
   59.5330   34.5240   48.0640 C   0  0  0  0  0  0  0  0  0  0  0  0
   60.8130   34.1570   47.6960 C   0  0  0  0  0  0  0  0  0  0  0  0
   59.3790   29.1940   48.7180 C   0  0  0  0  0  0  0  0  0  0  0  0
   59.1650   28.7970   47.4180 C   0  0  0  0  0  0  0  0  0  0  0  0
   56.4675   28.2363   43.0988 H   0  0  0  0  0  0  0  0  0  0  0  0
   56.4326   29.9697   42.6288 H   0  0  0  0  0  0  0  0  0  0  0  0
   57.9875   29.0703   42.6288 H   0  0  0  0  0  0  0  0  0  0  0  0
   59.2750   29.0030   44.5650 H   0  0  0  0  0  0  0  0  0  0  0  0
   58.2313   31.8303   46.1953 H   0  0  0  0  0  0  0  0  0  0  0  0
   58.6255   32.5217   48.5548 H   0  0  0  0  0  0  0  0  0  0  0  0
   60.3120   31.2640   50.8450 H   0  0  0  0  0  0  0  0  0  0  0  0
   57.6662   30.2961   53.4070 H   0  0  0  0  0  0  0  0  0  0  0  0
   59.4530   29.9952   53.2672 H   0  0  0  0  0  0  0  0  0  0  0  0
   59.2429   32.1125   55.2833 H   0  0  0  0  0  0  0  0  0  0  0  0
   60.6577   31.6601   54.2731 H   0  0  0  0  0  0  0  0  0  0  0  0
   60.0588   33.3536   54.2731 H   0  0  0  0  0  0  0  0  0  0  0  0
   58.6957   34.8746   51.4656 H   0  0  0  0  0  0  0  0  0  0  0  0
   59.9821   34.3550   52.6310 H   0  0  0  0  0  0  0  0  0  0  0  0
   61.9379   35.2688   50.0834 H   0  0  0  0  0  0  0  0  0  0  0  0
   63.2062   33.9453   50.0171 H   0  0  0  0  0  0  0  0  0  0  0  0
   63.9363   33.4483   47.8467 H   0  0  0  0  0  0  0  0  0  0  0  0
   60.3310   33.6836   44.3859 H   0  0  0  0  0  0  0  0  0  0  0  0
   58.0057   34.3437   45.0109 H   0  0  0  0  0  0  0  0  0  0  0  0
   57.5212   34.8829   47.4124 H   0  0  0  0  0  0  0  0  0  0  0  0
   59.3083   34.7630   49.1139 H   0  0  0  0  0  0  0  0  0  0  0  0
   59.7094   28.4450   49.4527 H   0  0  0  0  0  0  0  0  0  0  0  0
   59.3185   27.7535   47.1056 H   0  0  0  0  0  0  0  0  0  0  0  0
  1  2  1  0
  2  3  2  0
  2  4  1  0
  4  5  1  0
  5  6  2  0
  6  7  1  0
  7  8  2  0
  8  9  1  0
  9 10  1  0
 10 11  2  0
 10 12  1  0
 12 13  1  0
 13 14  1  0
 13 15  1  0
 15 16  2  0
 15 17  1  0
 17 18  1  0
 18 19  1  0
 19 20  2  0
 19 21  1  0
 21 22  1  0
 22 23  1  0
 23 24  2  0
 24 25  1  0
 25 26  2  0
 26 27  1  0
 27 28  2  0
 28 29  1  0
 29 30  2  0
  8 31  1  0
 31 32  2  0
 32  5  1  0
 30 22  1  0
 30 25  1  0
  1 33  1  0
  1 34  1  0
  1 35  1  0
  4 36  1  0
  6 37  1  0
  7 38  1  0
  9 39  1  0
 12 40  1  0
 12 41  1  0
 14 42  1  0
 14 43  1  0
 14 44  1  0
 17 45  1  0
 17 46  1  0
 21 47  1  0
 21 48  1  0
 23 49  1  0
 26 50  1  0
 27 51  1  0
 28 52  1  0
 29 53  1  0
 31 54  1  0
 32 55  1  0
M  END
>  <smiles>  (8) 
CC(=O)Nc1ccc(NC(=O)CN(C)C(=O)COC(=O)Cn2cnc3ccccc32)cc1

>  <score_type>  (8) 
oracle

>  <origin>  (8) 
adg

>  <m_score__min__energy>  (8) 
-7.2999999999999998

>  <m_primary>  (8) 
energy

$$$$
9:0
     RDKit          3D

 45 48  0  0  0  0  0  0  0  0999 V2000
   63.7500   30.5190   50.9450 F   0  0  0  0  0  0  0  0  0  0  0  0
   63.3960   31.3420   49.9270 C   0  0  0  0  0  0  0  0  0  0  0  0
   62.2660   31.0340   49.1940 C   0  0  0  0  0  0  0  0  0  0  0  0
   61.9250   31.8800   48.1660 C   0  0  0  0  0  0  0  0  0  0  0  0
   62.6960   33.0070   47.8790 C   0  0  0  0  0  0  0  0  0  0  0  0
   62.2340   33.8460   46.7510 C   0  0  0  0  0  0  0  0  0  0  0  0
   60.8150   33.8240   46.5990 N   0  0  0  0  0  0  0  0  0  0  0  0
   60.3160   34.0980   45.3040 C   0  0  0  0  0  0  0  0  0  0  0  0
   58.9650   34.7560   45.2740 C   0  0  0  0  0  0  0  0  0  0  0  0
   58.0480   34.3200   46.2780 N   0  0  0  0  0  0  0  0  0  0  0  0
   56.9940   33.4710   45.7970 C   0  0  0  0  0  0  0  0  0  0  0  0
   57.4310   32.1130   45.4150 C   0  0  0  0  0  0  0  0  0  0  0  0
   56.6490   31.1810   44.8150 N   0  0  0  0  0  0  0  0  0  0  0  0
   57.3790   30.0550   44.6130 C   0  0  0  0  0  0  0  0  0  0  0  0
   57.1340   28.8160   44.0640 C   0  0  0  0  0  0  0  0  0  0  0  0
   58.0900   27.8210   43.9820 C   0  0  0  0  0  0  0  0  0  0  0  0
   59.3530   28.0960   44.4820 C   0  0  0  0  0  0  0  0  0  0  0  0
   59.6020   29.3360   45.0330 C   0  0  0  0  0  0  0  0  0  0  0  0
   58.6360   30.3200   45.1070 C   0  0  0  0  0  0  0  0  0  0  0  0
   58.6530   31.5900   45.5970 N   0  0  0  0  0  0  0  0  0  0  0  0
   58.6320   33.8850   47.5040 C   0  0  0  0  0  0  0  0  0  0  0  0
   60.0610   34.3850   47.6770 C   0  0  0  0  0  0  0  0  0  0  0  0
   63.8320   33.3120   48.6180 C   0  0  0  0  0  0  0  0  0  0  0  0
   64.1720   32.4530   49.6560 C   0  0  0  0  0  0  0  0  0  0  0  0
   61.6615   30.1444   49.4247 H   0  0  0  0  0  0  0  0  0  0  0  0
   61.0317   31.6657   47.5610 H   0  0  0  0  0  0  0  0  0  0  0  0
   62.5537   34.8834   46.9288 H   0  0  0  0  0  0  0  0  0  0  0  0
   62.6753   33.4393   45.8292 H   0  0  0  0  0  0  0  0  0  0  0  0
   61.0309   34.7615   44.7954 H   0  0  0  0  0  0  0  0  0  0  0  0
   60.1967   33.1243   44.8063 H   0  0  0  0  0  0  0  0  0  0  0  0
   59.1125   35.8391   45.3967 H   0  0  0  0  0  0  0  0  0  0  0  0
   58.5138   34.4771   44.3103 H   0  0  0  0  0  0  0  0  0  0  0  0
   56.2375   33.3786   46.5902 H   0  0  0  0  0  0  0  0  0  0  0  0
   56.6024   33.9433   44.8840 H   0  0  0  0  0  0  0  0  0  0  0  0
   56.1278   28.6079   43.6713 H   0  0  0  0  0  0  0  0  0  0  0  0
   57.8562   26.8436   43.5348 H   0  0  0  0  0  0  0  0  0  0  0  0
   60.1466   27.3354   44.4400 H   0  0  0  0  0  0  0  0  0  0  0  0
   60.6065   29.5486   45.4277 H   0  0  0  0  0  0  0  0  0  0  0  0
   59.5000   32.0010   46.0180 H   0  0  0  0  0  0  0  0  0  0  0  0
   58.0226   34.2617   48.3387 H   0  0  0  0  0  0  0  0  0  0  0  0
   58.6611   32.7855   47.4898 H   0  0  0  0  0  0  0  0  0  0  0  0
   60.0886   35.4836   47.6300 H   0  0  0  0  0  0  0  0  0  0  0  0
   60.4740   34.0868   48.6519 H   0  0  0  0  0  0  0  0  0  0  0  0
   64.4396   34.2002   48.3901 H   0  0  0  0  0  0  0  0  0  0  0  0
   65.0642   32.6585   50.2657 H   0  0  0  0  0  0  0  0  0  0  0  0
  1  2  1  0
  2  3  2  0
  3  4  1  0
  4  5  2  0
  5  6  1  0
  6  7  1  0
  7  8  1  0
  8  9  1  0
  9 10  1  0
 10 11  1  0
 11 12  1  0
 12 13  2  0
 13 14  1  0
 14 15  2  0
 15 16  1  0
 16 17  2  0
 17 18  1  0
 18 19  2  0
 19 20  1  0
 10 21  1  0
 21 22  1  0
  5 23  1  0
 23 24  2  0
 24  2  1  0
 22  7  1  0
 20 12  1  0
 19 14  1  0
  3 25  1  0
  4 26  1  0
  6 27  1  0
  6 28  1  0
  8 29  1  0
  8 30  1  0
  9 31  1  0
  9 32  1  0
 11 33  1  0
 11 34  1  0
 15 35  1  0
 16 36  1  0
 17 37  1  0
 18 38  1  0
 20 39  1  0
 21 40  1  0
 21 41  1  0
 22 42  1  0
 22 43  1  0
 23 44  1  0
 24 45  1  0
M  END
>  <smiles>  (9) 
Fc1ccc(CN2CCN(Cc3nc4ccccc4[nH]3)CC2)cc1

>  <score_type>  (9) 
oracle

>  <origin>  (9) 
adg

>  <m_score__min__energy>  (9) 
-8.5600000000000005

>  <m_primary>  (9) 
energy

$$$$
10:0
     RDKit          3D

 25 26  0  0  0  0  0  0  0  0999 V2000
   57.0280   30.8140   42.7710 C   0  0  0  0  0  0  0  0  0  0  0  0
   55.9920   30.1790   43.7050 C   0  0  0  0  0  0  0  0  0  0  0  0
   56.6140   30.0070   44.9390 O   0  0  0  0  0  0  0  0  0  0  0  0
   57.6870   30.7450   45.4200 C   0  0  0  0  0  0  0  0  0  0  0  0
   58.7780   30.0470   45.7620 C   0  0  0  0  0  0  0  0  0  0  0  0
   58.7590   28.1320   45.5620 Br  0  0  0  0  0  0  0  0  0  0  0  0
   59.9760   30.7260   46.2850 C   0  0  0  0  0  0  0  0  0  0  0  0
   61.0150   30.0570   46.6110 O   0  0  0  0  0  0  0  0  0  0  0  0
   59.9400   32.1800   46.4190 C   0  0  0  0  0  0  0  0  0  0  0  0
   61.0680   32.8310   46.9120 C   0  0  0  0  0  0  0  0  0  0  0  0
   61.0670   34.2050   47.0500 C   0  0  0  0  0  0  0  0  0  0  0  0
   59.9350   34.9370   46.6960 C   0  0  0  0  0  0  0  0  0  0  0  0
   58.7940   34.3090   46.2010 C   0  0  0  0  0  0  0  0  0  0  0  0
   58.8340   32.9290   46.0760 C   0  0  0  0  0  0  0  0  0  0  0  0
   57.6610   32.1970   45.5580 C   0  0  0  0  0  0  0  0  0  0  0  0
   56.6330   32.8360   45.2330 O   0  0  0  0  0  0  0  0  0  0  0  0
   57.8147   31.2962   43.3698 H   0  0  0  0  0  0  0  0  0  0  0  0
   57.4758   30.0350   42.1364 H   0  0  0  0  0  0  0  0  0  0  0  0
   56.5371   31.5665   42.1364 H   0  0  0  0  0  0  0  0  0  0  0  0
   55.1201   30.8415   43.8096 H   0  0  0  0  0  0  0  0  0  0  0  0
   55.6368   29.2179   43.3049 H   0  0  0  0  0  0  0  0  0  0  0  0
   61.9598   32.2508   47.1915 H   0  0  0  0  0  0  0  0  0  0  0  0
   61.9576   34.7206   47.4385 H   0  0  0  0  0  0  0  0  0  0  0  0
   59.9425   36.0311   46.8095 H   0  0  0  0  0  0  0  0  0  0  0  0
   57.8990   34.8841   45.9211 H   0  0  0  0  0  0  0  0  0  0  0  0
  1  2  1  0
  2  3  1  0
  3  4  1  0
  4  5  2  0
  5  6  1  0
  5  7  1  0
  7  8  2  0
  7  9  1  0
  9 10  2  0
 10 11  1  0
 11 12  2  0
 12 13  1  0
 13 14  2  0
 14 15  1  0
 15 16  2  0
 15  4  1  0
 14  9  1  0
  1 17  1  0
  1 18  1  0
  1 19  1  0
  2 20  1  0
  2 21  1  0
 10 22  1  0
 11 23  1  0
 12 24  1  0
 13 25  1  0
M  END
>  <smiles>  (10) 
CCOC1=C(Br)C(=O)c2ccccc2C1=O

>  <score_type>  (10) 
oracle

>  <origin>  (10) 
adg

>  <m_score__min__energy>  (10) 
-6.5899999999999999

>  <m_primary>  (10) 
energy

$$$$
11:0
     RDKit          3D

 53 57  0  0  0  0  0  0  0  0999 V2000
   53.8760   24.1930   45.3610 C   0  0  0  0  0  0  0  0  0  0  0  0
   54.8590   25.2850   45.6300 C   0  0  0  0  0  0  0  0  0  0  0  0
   56.2140   24.7230   45.7030 C   0  0  0  0  0  0  0  0  0  0  0  0
   56.4860   23.3780   45.7790 C   0  0  0  0  0  0  0  0  0  0  0  0
   57.7800   22.9060   45.8420 C   0  0  0  0  0  0  0  0  0  0  0  0
   58.8840   23.7680   45.8300 C   0  0  0  0  0  0  0  0  0  0  0  0
   58.5860   25.1210   45.7520 C   0  0  0  0  0  0  0  0  0  0  0  0
   59.6730   26.0020   45.7400 C   0  0  0  0  0  0  0  0  0  0  0  0
   59.4530   27.3640   45.6650 C   0  0  0  0  0  0  0  0  0  0  0  0
   58.1420   27.8380   45.6020 C   0  0  0  0  0  0  0  0  0  0  0  0
   57.8230   29.2570   45.5180 C   0  0  0  0  0  0  0  0  0  0  0  0
   56.6550   29.7000   44.9760 N   0  0  0  0  0  0  0  0  0  0  0  0
   56.6900   31.0190   45.0670 N   0  0  0  0  0  0  0  0  0  0  0  0
   57.8390   31.4180   45.6470 C   0  0  0  0  0  0  0  0  0  0  0  0
   58.1440   32.8520   45.8950 C   0  0  0  0  0  0  0  0  0  0  0  0
   58.9290   33.0080   47.1390 C   0  0  0  0  0  0  0  0  0  0  0  0
   60.1730   33.6330   47.0030 C   0  0  0  0  0  0  0  0  0  0  0  0
   60.9990   33.8310   48.1030 C   0  0  0  0  0  0  0  0  0  0  0  0
   60.6040   33.4120   49.3560 C   0  0  0  0  0  0  0  0  0  0  0  0
   61.6600   33.6710   50.7140 Cl  0  0  0  0  0  0  0  0  0  0  0  0
   59.3570   32.7850   49.4920 C   0  0  0  0  0  0  0  0  0  0  0  0
   58.5350   32.5910   48.3840 C   0  0  0  0  0  0  0  0  0  0  0  0
   57.0460   33.8370   45.7850 C   0  0  0  0  0  0  0  0  0  0  0  0
   57.8990   34.6310   44.8100 C   0  0  0  0  0  0  0  0  0  0  0  0
   58.9080   33.5220   44.7700 C   0  0  0  0  0  0  0  0  0  0  0  0
   58.5560   30.3210   45.9320 N   0  0  0  0  0  0  0  0  0  0  0  0
   59.8420   30.2510   46.5560 C   0  0  0  0  0  0  0  0  0  0  0  0
   57.1050   26.9400   45.6170 C   0  0  0  0  0  0  0  0  0  0  0  0
   57.2850   25.5840   45.6900 C   0  0  0  0  0  0  0  0  0  0  0  0
   53.5097   23.7861   46.3151 H   0  0  0  0  0  0  0  0  0  0  0  0
   53.0296   24.5952   44.7849 H   0  0  0  0  0  0  0  0  0  0  0  0
   54.3647   23.3934   44.7849 H   0  0  0  0  0  0  0  0  0  0  0  0
   54.8136   26.0262   44.8185 H   0  0  0  0  0  0  0  0  0  0  0  0
   54.6131   25.7696   46.5864 H   0  0  0  0  0  0  0  0  0  0  0  0
   55.6517   22.6611   45.7898 H   0  0  0  0  0  0  0  0  0  0  0  0
   57.9503   21.8210   45.9035 H   0  0  0  0  0  0  0  0  0  0  0  0
   59.9184   23.3971   45.8791 H   0  0  0  0  0  0  0  0  0  0  0  0
   60.7000   25.6113   45.7902 H   0  0  0  0  0  0  0  0  0  0  0  0
   60.3002   28.0655   45.6551 H   0  0  0  0  0  0  0  0  0  0  0  0
   60.5026   33.9730   46.0101 H   0  0  0  0  0  0  0  0  0  0  0  0
   61.9734   34.3247   47.9734 H   0  0  0  0  0  0  0  0  0  0  0  0
   59.0246   32.4430   50.4832 H   0  0  0  0  0  0  0  0  0  0  0  0
   57.5597   32.0981   48.5095 H   0  0  0  0  0  0  0  0  0  0  0  0
   56.1176   33.4353   45.3528 H   0  0  0  0  0  0  0  0  0  0  0  0
   56.6174   34.3111   46.6802 H   0  0  0  0  0  0  0  0  0  0  0  0
   57.4101   34.8258   43.8441 H   0  0  0  0  0  0  0  0  0  0  0  0
   58.2135   35.6554   45.0584 H   0  0  0  0  0  0  0  0  0  0  0  0
   58.9245   32.9540   43.8282 H   0  0  0  0  0  0  0  0  0  0  0  0
   59.9860   33.7252   44.8512 H   0  0  0  0  0  0  0  0  0  0  0  0
   59.7200   30.2576   47.6492 H   0  0  0  0  0  0  0  0  0  0  0  0
   60.3484   29.3240   46.2492 H   0  0  0  0  0  0  0  0  0  0  0  0
   60.4461   31.1176   46.2492 H   0  0  0  0  0  0  0  0  0  0  0  0
   56.0770   27.3285   45.5679 H   0  0  0  0  0  0  0  0  0  0  0  0
  1  2  1  0
  2  3  1  0
  3  4  2  0
  4  5  1  0
  5  6  2  0
  6  7  1  0
  7  8  2  0
  8  9  1  0
  9 10  2  0
 10 11  1  0
 11 12  2  0
 12 13  1  0
 13 14  2  0
 14 15  1  0
 15 16  1  0
 16 17  2  0
 17 18  1  0
 18 19  2  0
 19 20  1  0
 19 21  1  0
 21 22  2  0
 15 23  1  0
 23 24  1  0
 24 25  1  0
 14 26  1  0
 26 27  1  0
 10 28  1  0
 28 29  2  0
 29  3  1  0
 29  7  1  0
 26 11  1  0
 25 15  1  0
 22 16  1  0
  1 30  1  0
  1 31  1  0
  1 32  1  0
  2 33  1  0
  2 34  1  0
  4 35  1  0
  5 36  1  0
  6 37  1  0
  8 38  1  0
  9 39  1  0
 17 40  1  0
 18 41  1  0
 21 42  1  0
 22 43  1  0
 23 44  1  0
 23 45  1  0
 24 46  1  0
 24 47  1  0
 25 48  1  0
 25 49  1  0
 27 50  1  0
 27 51  1  0
 27 52  1  0
 28 53  1  0
M  END
>  <smiles>  (11) 
CCc1cccc2ccc(-c3nnc(C4(c5ccc(Cl)cc5)CCC4)n3C)cc12

>  <score_type>  (11) 
oracle

>  <origin>  (11) 
adg

>  <m_score__min__energy>  (11) 
-9.5700000000000003

>  <m_primary>  (11) 
energy

$$$$
12:0
     RDKit          3D

 49 52  0  0  0  0  0  0  0  0999 V2000
   61.1480   26.3430   46.3730 C   0  0  0  0  0  0  0  0  0  0  0  0
   59.8820   27.0830   46.4810 N   0  0  0  0  0  0  0  0  0  0  0  0
   58.8420   26.1480   46.0650 C   0  0  0  0  0  0  0  0  0  0  0  0
   59.7170   27.5150   47.8550 C   0  0  0  0  0  0  0  0  0  0  0  0
   60.0640   28.9550   48.0910 C   0  0  0  0  0  0  0  0  0  0  0  0
   60.5250   29.5510   46.8280 N   0  0  0  0  0  0  0  0  0  0  0  0
   60.2650   30.9240   46.6590 C   0  0  0  0  0  0  0  0  0  0  0  0
   61.2220   31.7550   47.2860 C   0  0  0  0  0  0  0  0  0  0  0  0
   62.3180   31.2050   47.9310 C   0  0  0  0  0  0  0  0  0  0  0  0
   63.2870   31.9540   48.5580 C   0  0  0  0  0  0  0  0  0  0  0  0
   63.1420   33.3210   48.5310 C   0  0  0  0  0  0  0  0  0  0  0  0
   62.0510   33.8680   47.8870 C   0  0  0  0  0  0  0  0  0  0  0  0
   61.0790   33.1130   47.2580 C   0  0  0  0  0  0  0  0  0  0  0  0
   60.0270   33.7330   46.6370 N   0  0  0  0  0  0  0  0  0  0  0  0
   60.0240   35.1530   46.6910 C   0  0  0  0  0  0  0  0  0  0  0  0
   59.1220   32.9420   46.0420 C   0  0  0  0  0  0  0  0  0  0  0  0
   58.0630   33.5650   45.4200 C   0  0  0  0  0  0  0  0  0  0  0  0
   57.0830   32.8360   44.7780 C   0  0  0  0  0  0  0  0  0  0  0  0
   57.2250   31.4640   44.7970 C   0  0  0  0  0  0  0  0  0  0  0  0
   56.2200   30.7700   44.1100 C   0  0  0  0  0  0  0  0  0  0  0  0
   56.2930   29.4080   44.0520 C   0  0  0  0  0  0  0  0  0  0  0  0
   57.3050   28.7160   44.6390 C   0  0  0  0  0  0  0  0  0  0  0  0
   58.2900   29.4480   45.3160 C   0  0  0  0  0  0  0  0  0  0  0  0
   58.2730   30.8140   45.4130 C   0  0  0  0  0  0  0  0  0  0  0  0
   59.2290   31.5390   46.0440 C   0  0  0  0  0  0  0  0  0  0  0  0
   61.5295   26.1200   47.3804 H   0  0  0  0  0  0  0  0  0  0  0  0
   60.9776   25.4023   45.8289 H   0  0  0  0  0  0  0  0  0  0  0  0
   61.8841   26.9531   45.8289 H   0  0  0  0  0  0  0  0  0  0  0  0
   58.3608   25.7153   46.9545 H   0  0  0  0  0  0  0  0  0  0  0  0
   58.0901   26.6798   45.4634 H   0  0  0  0  0  0  0  0  0  0  0  0
   59.2911   25.3440   45.4634 H   0  0  0  0  0  0  0  0  0  0  0  0
   58.6660   27.3617   48.1413 H   0  0  0  0  0  0  0  0  0  0  0  0
   60.4143   26.9177   48.4608 H   0  0  0  0  0  0  0  0  0  0  0  0
   59.1750   29.4942   48.4501 H   0  0  0  0  0  0  0  0  0  0  0  0
   60.8599   29.0258   48.8470 H   0  0  0  0  0  0  0  0  0  0  0  0
   61.0670   28.9630   46.1180 H   0  0  0  0  0  0  0  0  0  0  0  0
   62.4189   30.1097   47.9424 H   0  0  0  0  0  0  0  0  0  0  0  0
   64.1425   31.4787   49.0602 H   0  0  0  0  0  0  0  0  0  0  0  0
   63.8858   33.9700   49.0163 H   0  0  0  0  0  0  0  0  0  0  0  0
   61.9495   34.9632   47.8735 H   0  0  0  0  0  0  0  0  0  0  0  0
   60.0233   35.4800   47.7413 H   0  0  0  0  0  0  0  0  0  0  0  0
   60.9213   35.5410   46.1868 H   0  0  0  0  0  0  0  0  0  0  0  0
   59.1250   35.5372   46.1868 H   0  0  0  0  0  0  0  0  0  0  0  0
   57.9972   34.6629   45.4352 H   0  0  0  0  0  0  0  0  0  0  0  0
   56.2333   33.3232   44.2774 H   0  0  0  0  0  0  0  0  0  0  0  0
   55.3915   31.3101   43.6286 H   0  0  0  0  0  0  0  0  0  0  0  0
   55.5095   28.8541   43.5142 H   0  0  0  0  0  0  0  0  0  0  0  0
   57.3494   27.6182   44.5845 H   0  0  0  0  0  0  0  0  0  0  0  0
   59.1160   28.8993   45.7921 H   0  0  0  0  0  0  0  0  0  0  0  0
  1  2  1  0
  2  3  1  0
  2  4  1  0
  4  5  1  0
  5  6  1  0
  6  7  1  0
  7  8  2  0
  8  9  1  0
  9 10  2  0
 10 11  1  0
 11 12  2  0
 12 13  1  0
 13 14  2  0
 14 15  1  0
 14 16  1  0
 16 17  2  0
 17 18  1  0
 18 19  2  0
 19 20  1  0
 20 21  2  0
 21 22  1  0
 22 23  2  0
 23 24  1  0
 24 25  2  0
 25  7  1  0
 13  8  1  0
 25 16  1  0
 24 19  1  0
  1 26  1  0
  1 27  1  0
  1 28  1  0
  3 29  1  0
  3 30  1  0
  3 31  1  0
  4 32  1  0
  4 33  1  0
  5 34  1  0
  5 35  1  0
  6 36  1  0
  9 37  1  0
 10 38  1  0
 11 39  1  0
 12 40  1  0
 15 41  1  0
 15 42  1  0
 15 43  1  0
 17 44  1  0
 18 45  1  0
 20 46  1  0
 21 47  1  0
 22 48  1  0
 23 49  1  0
M  CHG  1  14   1
M  END
>  <smiles>  (12) 
CN(C)CCNc1c2ccccc2[n+](C)c2ccc3ccccc3c12

>  <score_type>  (12) 
oracle

>  <origin>  (12) 
adg

>  <m_score__min__energy>  (12) 
-6.1100000000000003

>  <m_primary>  (12) 
energy

$$$$
13:0
     RDKit          3D

 37 38  0  0  0  0  0  0  0  0999 V2000
   56.4010   29.7490   42.7770 C   0  0  0  0  0  0  0  0  0  0  0  0
   55.8590   30.1340   44.1320 C   0  0  0  0  0  0  0  0  0  0  0  0
   56.7540   30.8480   44.8950 O   0  0  0  0  0  0  0  0  0  0  0  0
   57.9030   30.4760   45.5330 C   0  0  0  0  0  0  0  0  0  0  0  0
   58.5930   29.3080   45.3720 C   0  0  0  0  0  0  0  0  0  0  0  0
   59.7570   28.9940   46.0540 C   0  0  0  0  0  0  0  0  0  0  0  0
   60.2700   29.8970   46.9530 C   0  0  0  0  0  0  0  0  0  0  0  0
   59.5980   31.0880   47.1420 C   0  0  0  0  0  0  0  0  0  0  0  0
   58.4380   31.3890   46.4540 C   0  0  0  0  0  0  0  0  0  0  0  0
   57.7630   32.6770   46.6890 C   0  0  0  0  0  0  0  0  0  0  0  0
   57.3980   33.4090   45.5330 N   0  0  0  0  0  0  0  0  0  0  0  0
   58.5420   34.0420   44.9900 C   0  0  0  0  0  0  0  0  0  0  0  0
   59.3010   34.9700   45.8490 C   0  0  0  0  0  0  0  0  0  0  0  0
   60.3980   34.4080   46.6290 C   0  0  0  0  0  0  0  0  0  0  0  0
   61.5990   33.8580   46.3610 C   0  0  0  0  0  0  0  0  0  0  0  0
   62.3870   33.4150   47.3440 C   0  0  0  0  0  0  0  0  0  0  0  0
   61.9710   33.5190   48.6480 C   0  0  0  0  0  0  0  0  0  0  0  0
   60.2810   34.3350   48.4340 S   0  0  0  0  0  0  0  0  0  0  0  0
   57.2917   29.1163   42.9046 H   0  0  0  0  0  0  0  0  0  0  0  0
   55.6330   29.1928   42.2194 H   0  0  0  0  0  0  0  0  0  0  0  0
   56.6733   30.6573   42.2194 H   0  0  0  0  0  0  0  0  0  0  0  0
   54.9579   30.7477   43.9857 H   0  0  0  0  0  0  0  0  0  0  0  0
   55.6428   29.2008   44.6727 H   0  0  0  0  0  0  0  0  0  0  0  0
   58.1998   28.5711   44.6563 H   0  0  0  0  0  0  0  0  0  0  0  0
   60.2640   28.0338   45.8779 H   0  0  0  0  0  0  0  0  0  0  0  0
   61.1934   29.6766   47.5086 H   0  0  0  0  0  0  0  0  0  0  0  0
   59.9974   31.8184   47.8610 H   0  0  0  0  0  0  0  0  0  0  0  0
   56.8464   32.4763   47.2630 H   0  0  0  0  0  0  0  0  0  0  0  0
   58.4975   33.3037   47.2160 H   0  0  0  0  0  0  0  0  0  0  0  0
   56.6720   33.0620   44.9280 H   0  0  0  0  0  0  0  0  0  0  0  0
   59.2354   33.2479   44.6759 H   0  0  0  0  0  0  0  0  0  0  0  0
   58.1442   34.6794   44.1866 H   0  0  0  0  0  0  0  0  0  0  0  0
   59.7225   35.7521   45.2004 H   0  0  0  0  0  0  0  0  0  0  0  0
   58.5747   35.3252   46.5949 H   0  0  0  0  0  0  0  0  0  0  0  0
   61.9351   33.7728   45.3171 H   0  0  0  0  0  0  0  0  0  0  0  0
   63.3648   32.9689   47.1098 H   0  0  0  0  0  0  0  0  0  0  0  0
   62.4843   33.2099   49.5705 H   0  0  0  0  0  0  0  0  0  0  0  0
  1  2  1  0
  2  3  1  0
  3  4  1  0
  4  5  2  0
  5  6  1  0
  6  7  2  0
  7  8  1  0
  8  9  2  0
  9 10  1  0
 10 11  1  0
 11 12  1  0
 12 13  1  0
 13 14  1  0
 14 15  2  0
 15 16  1  0
 16 17  2  0
 17 18  1  0
  9  4  1  0
 18 14  1  0
  1 19  1  0
  1 20  1  0
  1 21  1  0
  2 22  1  0
  2 23  1  0
  5 24  1  0
  6 25  1  0
  7 26  1  0
  8 27  1  0
 10 28  1  0
 10 29  1  0
 11 30  1  0
 12 31  1  0
 12 32  1  0
 13 33  1  0
 13 34  1  0
 15 35  1  0
 16 36  1  0
 17 37  1  0
M  END
>  <smiles>  (13) 
CCOc1ccccc1CNCCc1cccs1

>  <score_type>  (13) 
oracle

>  <origin>  (13) 
adg

>  <m_score__min__energy>  (13) 
-6.7000000000000002

>  <m_primary>  (13) 
energy

$$$$
14:0
     RDKit          3D

 24 25  0  0  0  0  0  0  0  0999 V2000
   57.7980   27.8670   43.4300 C   0  0  0  0  0  0  0  0  0  0  0  0
   57.0700   29.0340   43.1330 O   0  0  0  0  0  0  0  0  0  0  0  0
   56.5360   29.8310   44.1340 C   0  0  0  0  0  0  0  0  0  0  0  0
   55.4320   29.5520   44.7110 O   0  0  0  0  0  0  0  0  0  0  0  0
   57.2050   31.0440   44.5940 C   0  0  0  0  0  0  0  0  0  0  0  0
   57.3990   31.3560   45.8830 N   0  0  0  0  0  0  0  0  0  0  0  0
   58.0380   32.5280   45.9800 N   0  0  0  0  0  0  0  0  0  0  0  0
   58.4330   33.2150   47.0680 C   0  0  0  0  0  0  0  0  0  0  0  0
   59.0820   34.4150   46.8590 C   0  0  0  0  0  0  0  0  0  0  0  0
   59.3330   34.9180   45.5960 C   0  0  0  0  0  0  0  0  0  0  0  0
   58.9170   34.1920   44.4930 C   0  0  0  0  0  0  0  0  0  0  0  0
   58.2630   32.9850   44.7220 C   0  0  0  0  0  0  0  0  0  0  0  0
   57.7460   32.0630   43.8270 C   0  0  0  0  0  0  0  0  0  0  0  0
   57.7650   32.1490   42.3550 C   0  0  0  0  0  0  0  0  0  0  0  0
   57.8718   27.7486   44.5211 H   0  0  0  0  0  0  0  0  0  0  0  0
   57.2836   26.9947   43.0005 H   0  0  0  0  0  0  0  0  0  0  0  0
   58.8077   27.9454   43.0005 H   0  0  0  0  0  0  0  0  0  0  0  0
   58.2460   32.8352   48.0833 H   0  0  0  0  0  0  0  0  0  0  0  0
   59.4131   34.9949   47.7331 H   0  0  0  0  0  0  0  0  0  0  0  0
   59.8542   35.8784   45.4696 H   0  0  0  0  0  0  0  0  0  0  0  0
   59.0972   34.5566   43.4709 H   0  0  0  0  0  0  0  0  0  0  0  0
   57.9931   33.1812   42.0509 H   0  0  0  0  0  0  0  0  0  0  0  0
   58.5350   31.4712   41.9580 H   0  0  0  0  0  0  0  0  0  0  0  0
   56.7811   31.8587   41.9580 H   0  0  0  0  0  0  0  0  0  0  0  0
  1  2  1  0
  2  3  1  0
  3  4  2  0
  3  5  1  0
  5  6  2  0
  6  7  1  0
  7  8  1  0
  8  9  2  0
  9 10  1  0
 10 11  2  0
 11 12  1  0
 12 13  2  0
 13 14  1  0
 13  5  1  0
 12  7  1  0
  1 15  1  0
  1 16  1  0
  1 17  1  0
  8 18  1  0
  9 19  1  0
 10 20  1  0
 11 21  1  0
 14 22  1  0
 14 23  1  0
 14 24  1  0
M  END
>  <smiles>  (14) 
COC(=O)c1nn2ccccc2c1C

>  <score_type>  (14) 
oracle

>  <origin>  (14) 
adg

>  <m_score__min__energy>  (14) 
-6.0899999999999999

>  <m_primary>  (14) 
energy

$$$$
15:0
     RDKit          3D

 48 50  0  0  1  0  0  0  0  0999 V2000
   56.8220   27.2150   45.6010 C   0  0  0  0  0  0  0  0  0  0  0  0
   58.0610   27.9650   45.8620 C   0  0  0  0  0  0  0  0  0  0  0  0
   58.9370   28.3570   44.8770 C   0  0  0  0  0  0  0  0  0  0  0  0
   60.1040   29.0680   45.1720 C   0  0  0  0  0  0  0  0  0  0  0  0
   60.4360   29.4110   46.4530 C   0  0  0  0  0  0  0  0  0  0  0  0
   61.5260   30.0930   46.8830 O   0  0  0  0  0  0  0  0  0  0  0  0
   61.5710   31.4230   47.1360 C   0  0  0  0  0  0  0  0  0  0  0  0
   60.8740   32.4040   46.5570 N   0  0  0  0  0  0  0  0  0  0  0  0
   60.9440   33.6980   46.8310 C   0  0  0  0  0  0  0  0  0  0  0  0
   60.2230   34.5690   46.2090 N   0  0  0  0  0  0  0  0  0  0  0  0
   58.7570   34.5320   46.3190 C   0  0  0  0  0  0  0  0  0  0  0  0
   58.3260   33.3920   45.4860 C   0  0  0  0  0  0  0  0  0  0  0  0
   58.5060   33.4620   44.1210 C   0  0  0  0  0  0  0  0  0  0  0  0
   58.1130   32.4070   43.2950 C   0  0  0  0  0  0  0  0  0  0  0  0
   57.5420   31.3050   43.9130 C   0  0  0  0  0  0  0  0  0  0  0  0
   57.3660   31.2340   45.2450 N   0  0  0  0  0  0  0  0  0  0  0  0
   57.7510   32.2660   46.0470 C   0  0  0  0  0  0  0  0  0  0  0  0
   61.8190   34.0730   47.8070 N   0  0  0  0  0  0  0  0  0  0  0  0
   62.5680   33.1280   48.4470 C   0  0  0  0  0  0  0  0  0  0  0  0
   63.4710   33.5670   49.4630 N   0  0  0  0  0  0  0  0  0  0  0  0
   64.8320   33.0360   49.4950 C   0  0  0  0  0  0  0  0  0  0  0  0
   63.0020   34.5390   50.4390 C   0  0  0  0  0  0  0  0  0  0  0  0
   62.4440   31.8320   48.1150 N   0  0  0  0  0  0  0  0  0  0  0  0
   59.5250   28.9980   47.4440 C   0  0  0  0  0  0  0  0  0  0  0  0
   59.7940   29.3240   48.8860 C   0  0  0  0  0  0  0  0  0  0  0  0
   58.3880   28.3060   47.1600 C   0  0  0  0  0  0  0  0  0  0  0  0
   56.3560   26.9329   46.5566 H   0  0  0  0  0  0  0  0  0  0  0  0
   56.1269   27.8441   45.0256 H   0  0  0  0  0  0  0  0  0  0  0  0
   57.0571   26.3074   45.0256 H   0  0  0  0  0  0  0  0  0  0  0  0
   58.7137   28.1046   43.8299 H   0  0  0  0  0  0  0  0  0  0  0  0
   60.7742   29.3598   44.3500 H   0  0  0  0  0  0  0  0  0  0  0  0
   58.4540   34.3794   47.3654 H   0  0  0  0  0  0  0  0  0  0  0  0
   58.2995   35.4755   45.9865 H   0  0  0  0  0  0  0  0  0  0  0  0
   58.9641   34.3585   43.6778 H   0  0  0  0  0  0  0  0  0  0  0  0
   58.2501   32.4483   42.2044 H   0  0  0  0  0  0  0  0  0  0  0  0
   57.2207   30.4567   43.2908 H   0  0  0  0  0  0  0  0  0  0  0  0
   57.6052   32.2040   47.1355 H   0  0  0  0  0  0  0  0  0  0  0  0
   65.1523   32.9110   50.5399 H   0  0  0  0  0  0  0  0  0  0  0  0
   64.8576   32.0619   48.9846 H   0  0  0  0  0  0  0  0  0  0  0  0
   65.5105   33.7353   48.9846 H   0  0  0  0  0  0  0  0  0  0  0  0
   63.1861   34.1574   51.4541 H   0  0  0  0  0  0  0  0  0  0  0  0
   63.5416   35.4875   50.3003 H   0  0  0  0  0  0  0  0  0  0  0  0
   61.9238   34.7069   50.3003 H   0  0  0  0  0  0  0  0  0  0  0  0
   63.0360   31.1380   48.6290 H   0  0  0  0  0  0  0  0  0  0  0  0
   59.2262   28.6359   49.5296 H   0  0  0  0  0  0  0  0  0  0  0  0
   60.8691   29.2157   49.0920 H   0  0  0  0  0  0  0  0  0  0  0  0
   59.4836   30.3590   49.0920 H   0  0  0  0  0  0  0  0  0  0  0  0
   57.7163   28.0125   47.9802 H   0  0  0  0  0  0  0  0  0  0  0  0
  1  2  1  0
  2  3  2  0
  3  4  1  0
  4  5  2  0
  5  6  1  0
  6  7  1  0
  7  8  2  0
  8  9  1  0
  9 10  2  0
 10 11  1  0
 11 12  1  0
 12 13  2  0
 13 14  1  0
 14 15  2  0
 15 16  1  0
 16 17  2  0
  9 18  1  0
 18 19  2  0
 19 20  1  0
 20 21  1  0
 20 22  1  0
 19 23  1  0
  5 24  1  0
 24 25  1  0
 24 26  2  0
 26  2  1  0
 23  7  1  0
 17 12  1  0
  1 27  1  0
  1 28  1  0
  1 29  1  0
  3 30  1  0
  4 31  1  0
 11 32  1  0
 11 33  1  0
 13 34  1  0
 14 35  1  0
 15 36  1  0
 17 37  1  0
 21 38  1  0
 21 39  1  0
 21 40  1  0
 22 41  1  0
 22 42  1  0
 22 43  1  0
 23 44  1  0
 25 45  1  0
 25 46  1  0
 25 47  1  0
 26 48  1  0
M  END
>  <smiles>  (15) 
Cc1ccc(Oc2nc(=NCc3cccnc3)nc(N(C)C)[nH]2)c(C)c1

>  <score_type>  (15) 
oracle

>  <origin>  (15) 
adg

>  <m_score__min__energy>  (15) 
-7.79

>  <m_primary>  (15) 
energy

$$$$
16:0
     RDKit          3D

 51 52  0  0  1  0  0  0  0  0999 V2000
   58.8980   34.6090   44.8740 C   0  0  0  0  0  0  0  0  0  0  0  0
   58.4790   34.4880   46.3440 C   0  0  0  0  0  0  0  0  0  0  0  0
   59.6950   34.8650   47.1560 C   0  0  0  0  0  0  0  0  0  0  0  0
   59.7760   34.1460   48.4870 C   0  0  0  0  0  0  0  0  0  0  0  0
   60.7650   33.1750   48.3980 N   0  0  0  0  0  0  0  0  0  0  0  0
   61.7940   33.0740   49.3350 C   0  0  0  0  0  0  0  0  0  0  0  0
   62.9820   33.9270   49.0210 C   0  0  0  0  0  0  0  0  0  0  0  0
   63.7770   33.2760   47.8950 C   0  0  0  0  0  0  0  0  0  0  0  0
   63.3750   33.8650   46.5660 C   0  0  0  0  0  0  0  0  0  0  0  0
   60.7440   32.2250   47.3380 C   0  0  0  0  0  0  0  0  0  0  0  0
   60.2730   30.8420   47.7800 C   0  0  1  0  0  0  0  0  0  0  0  0
   59.6800   31.0200   49.0530 O   0  0  0  0  0  0  0  0  0  0  0  0
   59.2690   30.3620   46.8170 C   0  0  0  0  0  0  0  0  0  0  0  0
   58.5470   29.2030   46.9160 C   0  0  0  0  0  0  0  0  0  0  0  0
   57.6490   28.8830   45.9220 C   0  0  0  0  0  0  0  0  0  0  0  0
   57.4250   29.6680   44.8120 C   0  0  0  0  0  0  0  0  0  0  0  0
   56.5320   29.3470   43.8160 C   0  0  0  0  0  0  0  0  0  0  0  0
   56.3260   30.1570   42.6980 C   0  0  0  0  0  0  0  0  0  0  0  0
   57.0720   31.3410   42.6080 C   0  0  0  0  0  0  0  0  0  0  0  0
   57.9720   31.6650   43.6090 C   0  0  0  0  0  0  0  0  0  0  0  0
   58.1510   30.8330   44.7100 C   0  0  0  0  0  0  0  0  0  0  0  0
   59.0480   31.1630   45.6950 C   0  0  0  0  0  0  0  0  0  0  0  0
   59.9534   34.9138   44.8175 H   0  0  0  0  0  0  0  0  0  0  0  0
   58.7698   33.6371   44.3750 H   0  0  0  0  0  0  0  0  0  0  0  0
   58.2714   35.3629   44.3750 H   0  0  0  0  0  0  0  0  0  0  0  0
   57.6466   35.1733   46.5618 H   0  0  0  0  0  0  0  0  0  0  0  0
   58.1350   33.4707   46.5824 H   0  0  0  0  0  0  0  0  0  0  0  0
   60.5942   34.6196   46.5718 H   0  0  0  0  0  0  0  0  0  0  0  0
   59.6205   35.9410   47.3721 H   0  0  0  0  0  0  0  0  0  0  0  0
   60.0288   34.8627   49.2823 H   0  0  0  0  0  0  0  0  0  0  0  0
   58.8083   33.6809   48.7263 H   0  0  0  0  0  0  0  0  0  0  0  0
   61.4000   33.3758   50.3167 H   0  0  0  0  0  0  0  0  0  0  0  0
   62.1374   32.0291   49.3224 H   0  0  0  0  0  0  0  0  0  0  0  0
   62.6458   34.9257   48.7055 H   0  0  0  0  0  0  0  0  0  0  0  0
   63.6157   34.0250   49.9148 H   0  0  0  0  0  0  0  0  0  0  0  0
   64.8505   33.4505   48.0600 H   0  0  0  0  0  0  0  0  0  0  0  0
   63.5692   32.1958   47.8867 H   0  0  0  0  0  0  0  0  0  0  0  0
   62.7621   34.7630   46.7333 H   0  0  0  0  0  0  0  0  0  0  0  0
   64.2767   34.1371   45.9977 H   0  0  0  0  0  0  0  0  0  0  0  0
   62.7930   33.1245   45.9977 H   0  0  0  0  0  0  0  0  0  0  0  0
   60.0655   32.5913   46.5535 H   0  0  0  0  0  0  0  0  0  0  0  0
   61.7765   32.1181   46.9741 H   0  0  0  0  0  0  0  0  0  0  0  0
   61.0938   30.1112   47.8262 H   0  0  0  0  0  0  0  0  0  0  0  0
   59.6100   31.9850   49.2700 H   0  0  0  0  0  0  0  0  0  0  0  0
   58.6826   28.5351   47.7794 H   0  0  0  0  0  0  0  0  0  0  0  0
   57.0783   27.9477   46.0198 H   0  0  0  0  0  0  0  0  0  0  0  0
   55.9566   28.4136   43.9043 H   0  0  0  0  0  0  0  0  0  0  0  0
   55.6048   29.8768   41.9161 H   0  0  0  0  0  0  0  0  0  0  0  0
   56.9425   32.0103   41.7447 H   0  0  0  0  0  0  0  0  0  0  0  0
   58.5548   32.5948   43.5328 H   0  0  0  0  0  0  0  0  0  0  0  0
   59.6174   32.0990   45.5962 H   0  0  0  0  0  0  0  0  0  0  0  0
  1  2  1  0
  2  3  1  0
  3  4  1  0
  4  5  1  0
  5  6  1  0
  6  7  1  0
  7  8  1  0
  8  9  1  0
  5 10  1  0
 10 11  1  0
 11 12  1  0
 11 13  1  0
 13 14  2  0
 14 15  1  0
 15 16  2  0
 16 17  1  0
 17 18  2  0
 18 19  1  0
 19 20  2  0
 20 21  1  0
 21 22  2  0
 22 13  1  0
 21 16  1  0
  1 23  1  0
  1 24  1  0
  1 25  1  0
  2 26  1  0
  2 27  1  0
  3 28  1  0
  3 29  1  0
  4 30  1  0
  4 31  1  0
  6 32  1  0
  6 33  1  0
  7 34  1  0
  7 35  1  0
  8 36  1  0
  8 37  1  0
  9 38  1  0
  9 39  1  0
  9 40  1  0
 10 41  1  0
 10 42  1  0
 11 43  1  1
 12 44  1  0
 14 45  1  0
 15 46  1  0
 17 47  1  0
 18 48  1  0
 19 49  1  0
 20 50  1  0
 22 51  1  0
M  END
>  <smiles>  (16) 
CCCCN(CCCC)CC(O)c1ccc2ccccc2c1

>  <score_type>  (16) 
oracle

>  <origin>  (16) 
adg

>  <m_score__min__energy>  (16) 
-8.0199999999999996

>  <m_primary>  (16) 
energy

$$$$
17:0
     RDKit          3D

 47 51  0  0  1  0  0  0  0  0999 V2000
   57.9900   23.7620   44.8970 C   0  0  0  0  0  0  0  0  0  0  0  0
   58.6680   24.2170   46.0470 O   0  0  0  0  0  0  0  0  0  0  0  0
   58.8430   25.5430   46.3380 C   0  0  0  0  0  0  0  0  0  0  0  0
   57.8040   26.4270   46.5990 C   0  0  0  0  0  0  0  0  0  0  0  0
   58.0820   27.7500   46.8830 C   0  0  0  0  0  0  0  0  0  0  0  0
   59.3700   28.2350   46.9180 C   0  0  0  0  0  0  0  0  0  0  0  0
   59.5660   29.6430   47.2260 C   0  0  0  0  0  0  0  0  0  0  0  0
   60.5570   30.1130   48.0620 C   0  0  0  0  0  0  0  0  0  0  0  0
   60.7060   31.4620   48.3250 C   0  0  0  0  0  0  0  0  0  0  0  0
   61.6460   31.8420   49.1130 N   0  0  0  0  0  0  0  0  0  0  0  0
   62.9750   32.1840   48.6360 C   0  0  0  0  0  0  0  0  0  0  0  0
   63.3050   32.0590   47.1950 C   0  0  0  0  0  0  0  0  0  0  0  0
   62.9740   33.3940   47.7000 C   0  0  0  0  0  0  0  0  0  0  0  0
   59.8410   32.3040   47.7300 N   0  0  0  0  0  0  0  0  0  0  0  0
   59.7890   33.6260   47.8320 N   0  0  0  0  0  0  0  0  0  0  0  0
   58.7820   34.1090   47.0850 C   0  0  0  0  0  0  0  0  0  0  0  0
   58.1920   33.0000   46.4980 C   0  0  0  0  0  0  0  0  0  0  0  0
   57.1490   33.0310   45.6730 C   0  0  0  0  0  0  0  0  0  0  0  0
   57.3030   32.3580   44.3880 C   0  0  0  0  0  0  0  0  0  0  0  0
   57.8010   32.8490   43.2360 N   0  0  0  0  0  0  0  0  0  0  0  0
   57.7730   31.9050   42.2710 C   0  0  0  0  0  0  0  0  0  0  0  0
   58.1820   32.1110   41.1020 O   0  0  0  0  0  0  0  0  0  0  0  0
   57.2490   30.8010   42.8230 N   0  0  0  0  0  0  0  0  0  0  0  0
   56.9460   31.0410   44.1310 C   0  0  0  0  0  0  0  0  0  0  0  0
   56.3870   30.1160   45.0090 O   0  0  0  0  0  0  0  0  0  0  0  0
   58.8560   31.8710   46.9020 C   0  0  0  0  0  0  0  0  0  0  0  0
   58.7340   30.5350   46.6610 N   0  0  0  0  0  0  0  0  0  0  0  0
   60.3990   27.3560   46.6580 C   0  0  0  0  0  0  0  0  0  0  0  0
   60.1380   26.0290   46.3730 C   0  0  0  0  0  0  0  0  0  0  0  0
   57.1116   23.1725   45.1984 H   0  0  0  0  0  0  0  0  0  0  0  0
   57.6643   24.6251   44.2978 H   0  0  0  0  0  0  0  0  0  0  0  0
   58.6653   23.1335   44.2978 H   0  0  0  0  0  0  0  0  0  0  0  0
   56.7622   26.0744   46.5796 H   0  0  0  0  0  0  0  0  0  0  0  0
   57.2481   28.4376   47.0876 H   0  0  0  0  0  0  0  0  0  0  0  0
   61.2466   29.3961   48.5316 H   0  0  0  0  0  0  0  0  0  0  0  0
   63.4802   31.8404   49.5507 H   0  0  0  0  0  0  0  0  0  0  0  0
   64.3382   31.8338   46.8922 H   0  0  0  0  0  0  0  0  0  0  0  0
   62.9182   31.4360   46.3751 H   0  0  0  0  0  0  0  0  0  0  0  0
   63.7579   34.1606   47.7883 H   0  0  0  0  0  0  0  0  0  0  0  0
   62.2459   34.1733   47.4306 H   0  0  0  0  0  0  0  0  0  0  0  0
   58.4877   35.1620   46.9645 H   0  0  0  0  0  0  0  0  0  0  0  0
   56.2135   33.5406   45.9471 H   0  0  0  0  0  0  0  0  0  0  0  0
   58.1540   33.8290   43.1270 H   0  0  0  0  0  0  0  0  0  0  0  0
   57.0980   29.8940   42.3220 H   0  0  0  0  0  0  0  0  0  0  0  0
   56.6550   30.1370   45.9970 H   0  0  0  0  0  0  0  0  0  0  0  0
   61.4389   27.7142   46.6775 H   0  0  0  0  0  0  0  0  0  0  0  0
   60.9761   25.3460   46.1701 H   0  0  0  0  0  0  0  0  0  0  0  0
  1  2  1  0
  2  3  1  0
  3  4  2  0
  4  5  1  0
  5  6  2  0
  6  7  1  0
  7  8  2  0
  8  9  1  0
  9 10  2  0
 10 11  1  0
 11 12  1  0
 12 13  1  0
  9 14  1  0
 14 15  1  0
 15 16  2  0
 16 17  1  0
 17 18  2  0
 18 19  1  0
 19 20  1  0
 20 21  1  0
 21 22  2  0
 21 23  1  0
 23 24  1  0
 24 25  1  0
 17 26  1  0
 26 27  2  0
  6 28  1  0
 28 29  2  0
 29  3  1  0
 27  7  1  0
 13 11  1  0
 26 14  1  0
 24 19  2  0
  1 30  1  0
  1 31  1  0
  1 32  1  0
  4 33  1  0
  5 34  1  0
  8 35  1  0
 11 36  1  0
 12 37  1  0
 12 38  1  0
 13 39  1  0
 13 40  1  0
 16 41  1  0
 18 42  1  0
 20 43  1  0
 23 44  1  0
 25 45  1  0
 28 46  1  0
 29 47  1  0
M  END
>  <smiles>  (17) 
COc1ccc(-c2cc(=NC3CC3)n3ncc(=Cc4[nH]c(=O)[nH]c4O)c3n2)cc1

>  <score_type>  (17) 
oracle

>  <origin>  (17) 
adg

>  <m_score__min__energy>  (17) 
-8.4600000000000009

>  <m_primary>  (17) 
energy

$$$$
18:0
     RDKit          3D

 43 45  0  0  0  0  0  0  0  0999 V2000
   56.5830   30.5930   43.7540 C   0  0  0  0  0  0  0  0  0  0  0  0
   57.0940   31.3220   44.8770 N   0  0  0  0  0  0  0  0  0  0  0  0
   58.0030   30.5970   45.7060 C   0  0  0  0  0  0  0  0  0  0  0  0
   57.4960   32.6330   44.4950 C   0  0  0  0  0  0  0  0  0  0  0  0
   56.9920   33.7350   45.4060 C   0  0  0  0  0  0  0  0  0  0  0  0
   58.0900   34.5920   45.6230 O   0  0  0  0  0  0  0  0  0  0  0  0
   59.1730   34.1950   46.3810 C   0  0  0  0  0  0  0  0  0  0  0  0
   58.8790   33.7130   47.6610 C   0  0  0  0  0  0  0  0  0  0  0  0
   59.8620   33.2830   48.5250 C   0  0  0  0  0  0  0  0  0  0  0  0
   61.1790   33.3350   48.1000 C   0  0  0  0  0  0  0  0  0  0  0  0
   62.1290   32.8970   48.9990 C   0  0  0  0  0  0  0  0  0  0  0  0
   63.4560   32.9300   48.6260 C   0  0  0  0  0  0  0  0  0  0  0  0
   64.4540   32.4680   49.5870 C   0  0  0  0  0  0  0  0  0  0  0  0
   65.6800   33.0970   49.7300 C   0  0  0  0  0  0  0  0  0  0  0  0
   66.5510   32.5810   50.6630 C   0  0  0  0  0  0  0  0  0  0  0  0
   66.2470   31.4810   51.4430 C   0  0  0  0  0  0  0  0  0  0  0  0
   65.0200   30.8580   51.2960 C   0  0  0  0  0  0  0  0  0  0  0  0
   64.5830   29.4520   52.2630 Cl  0  0  0  0  0  0  0  0  0  0  0  0
   64.1150   31.3570   50.3580 C   0  0  0  0  0  0  0  0  0  0  0  0
   63.7800   33.3990   47.3720 C   0  0  0  0  0  0  0  0  0  0  0  0
   62.8190   33.8360   46.4790 C   0  0  0  0  0  0  0  0  0  0  0  0
   61.4690   33.8070   46.8450 C   0  0  0  0  0  0  0  0  0  0  0  0
   60.4790   34.2430   45.9680 C   0  0  0  0  0  0  0  0  0  0  0  0
   55.9858   29.7410   44.1109 H   0  0  0  0  0  0  0  0  0  0  0  0
   55.9500   31.2547   43.1445 H   0  0  0  0  0  0  0  0  0  0  0  0
   57.4210   30.2237   43.1445 H   0  0  0  0  0  0  0  0  0  0  0  0
   57.7657   30.7863   46.7633 H   0  0  0  0  0  0  0  0  0  0  0  0
   57.9117   29.5210   45.4967 H   0  0  0  0  0  0  0  0  0  0  0  0
   59.0318   30.9253   45.4967 H   0  0  0  0  0  0  0  0  0  0  0  0
   58.5954   32.6675   44.4896 H   0  0  0  0  0  0  0  0  0  0  0  0
   57.0553   32.8195   43.5046 H   0  0  0  0  0  0  0  0  0  0  0  0
   56.1689   34.2829   44.9240 H   0  0  0  0  0  0  0  0  0  0  0  0
   56.6039   33.3298   46.3521 H   0  0  0  0  0  0  0  0  0  0  0  0
   57.8294   33.6762   47.9880 H   0  0  0  0  0  0  0  0  0  0  0  0
   59.6073   32.9078   49.5272 H   0  0  0  0  0  0  0  0  0  0  0  0
   61.8341   32.5290   49.9928 H   0  0  0  0  0  0  0  0  0  0  0  0
   65.9470   33.9740   49.1221 H   0  0  0  0  0  0  0  0  0  0  0  0
   67.5304   33.0646   50.7933 H   0  0  0  0  0  0  0  0  0  0  0  0
   66.9755   31.1034   52.1756 H   0  0  0  0  0  0  0  0  0  0  0  0
   63.1353   30.8742   50.2272 H   0  0  0  0  0  0  0  0  0  0  0  0
   64.8377   33.4268   47.0712 H   0  0  0  0  0  0  0  0  0  0  0  0
   63.1145   34.2047   45.4856 H   0  0  0  0  0  0  0  0  0  0  0  0
   60.7392   34.6173   44.9669 H   0  0  0  0  0  0  0  0  0  0  0  0
  1  2  1  0
  2  3  1  0
  2  4  1  0
  4  5  1  0
  5  6  1  0
  6  7  1  0
  7  8  2  0
  8  9  1  0
  9 10  2  0
 10 11  1  0
 11 12  2  0
 12 13  1  0
 13 14  2  0
 14 15  1  0
 15 16  2  0
 16 17  1  0
 17 18  1  0
 17 19  2  0
 12 20  1  0
 20 21  2  0
 21 22  1  0
 22 23  2  0
 23  7  1  0
 22 10  1  0
 19 13  1  0
  1 24  1  0
  1 25  1  0
  1 26  1  0
  3 27  1  0
  3 28  1  0
  3 29  1  0
  4 30  1  0
  4 31  1  0
  5 32  1  0
  5 33  1  0
  8 34  1  0
  9 35  1  0
 11 36  1  0
 14 37  1  0
 15 38  1  0
 16 39  1  0
 19 40  1  0
 20 41  1  0
 21 42  1  0
 23 43  1  0
M  END
>  <smiles>  (18) 
CN(C)CCOc1ccc2cc(-c3cccc(Cl)c3)ccc2c1

>  <score_type>  (18) 
oracle

>  <origin>  (18) 
adg

>  <m_score__min__energy>  (18) 
-7.7000000000000002

>  <m_primary>  (18) 
energy

$$$$
19:0
     RDKit          3D

 45 47  0  0  0  0  0  0  0  0999 V2000
   56.6340   29.6040   42.6350 C   0  0  0  0  0  0  0  0  0  0  0  0
   55.5290   29.7320   43.6630 C   0  0  0  0  0  0  0  0  0  0  0  0
   56.0530   30.2420   44.8710 O   0  0  0  0  0  0  0  0  0  0  0  0
   57.3300   29.9630   45.3400 C   0  0  0  0  0  0  0  0  0  0  0  0
   57.5920   28.7040   45.8650 C   0  0  0  0  0  0  0  0  0  0  0  0
   58.8840   28.4380   46.3320 C   0  0  0  0  0  0  0  0  0  0  0  0
   59.8550   29.4140   46.2650 C   0  0  0  0  0  0  0  0  0  0  0  0
   59.6140   30.6770   45.7450 C   0  0  0  0  0  0  0  0  0  0  0  0
   58.3370   30.9370   45.2830 C   0  0  0  0  0  0  0  0  0  0  0  0
   57.9350   32.2390   44.7000 C   0  0  0  0  0  0  0  0  0  0  0  0
   57.6740   33.2490   45.6410 N   0  0  0  0  0  0  0  0  0  0  0  0
   58.2330   34.5310   45.4610 C   0  0  0  0  0  0  0  0  0  0  0  0
   59.7380   34.4370   45.6050 C   0  0  0  0  0  0  0  0  0  0  0  0
   60.0260   33.8510   46.8990 N   0  0  0  0  0  0  0  0  0  0  0  0
   61.3780   33.7290   47.3570 C   0  0  0  0  0  0  0  0  0  0  0  0
   61.7210   33.8250   48.6850 C   0  0  0  0  0  0  0  0  0  0  0  0
   63.0340   33.7060   49.1340 C   0  0  0  0  0  0  0  0  0  0  0  0
   64.0080   33.4830   48.1770 C   0  0  0  0  0  0  0  0  0  0  0  0
   63.6670   33.3870   46.8420 C   0  0  0  0  0  0  0  0  0  0  0  0
   62.3760   33.5130   46.4830 N   0  0  0  0  0  0  0  0  0  0  0  0
   58.9570   33.3800   47.7540 C   0  0  0  0  0  0  0  0  0  0  0  0
   57.7720   32.8520   47.0200 C   0  0  0  0  0  0  0  0  0  0  0  0
   57.6007   29.4920   43.1478 H   0  0  0  0  0  0  0  0  0  0  0  0
   56.4485   28.7213   42.0053 H   0  0  0  0  0  0  0  0  0  0  0  0
   56.6552   30.5057   42.0053 H   0  0  0  0  0  0  0  0  0  0  0  0
   54.7553   30.4157   43.2836 H   0  0  0  0  0  0  0  0  0  0  0  0
   55.0904   28.7404   43.8486 H   0  0  0  0  0  0  0  0  0  0  0  0
   56.8051   27.9368   45.9124 H   0  0  0  0  0  0  0  0  0  0  0  0
   59.1246   27.4504   46.7524 H   0  0  0  0  0  0  0  0  0  0  0  0
   60.8628   29.1816   46.6395 H   0  0  0  0  0  0  0  0  0  0  0  0
   60.4055   31.4397   45.7019 H   0  0  0  0  0  0  0  0  0  0  0  0
   58.7462   32.5849   44.0425 H   0  0  0  0  0  0  0  0  0  0  0  0
   56.9901   32.0612   44.1656 H   0  0  0  0  0  0  0  0  0  0  0  0
   57.9811   34.9057   44.4579 H   0  0  0  0  0  0  0  0  0  0  0  0
   57.8297   35.2218   46.2160 H   0  0  0  0  0  0  0  0  0  0  0  0
   60.1509   33.8023   44.8071 H   0  0  0  0  0  0  0  0  0  0  0  0
   60.1935   35.4352   45.5265 H   0  0  0  0  0  0  0  0  0  0  0  0
   60.9254   34.0032   49.4234 H   0  0  0  0  0  0  0  0  0  0  0  0
   63.2854   33.7858   50.2019 H   0  0  0  0  0  0  0  0  0  0  0  0
   65.0602   33.3816   48.4812 H   0  0  0  0  0  0  0  0  0  0  0  0
   64.4414   33.2097   46.0812 H   0  0  0  0  0  0  0  0  0  0  0  0
   59.3542   32.5759   48.3909 H   0  0  0  0  0  0  0  0  0  0  0  0
   58.6086   34.2495   48.3308 H   0  0  0  0  0  0  0  0  0  0  0  0
   57.8129   31.7533   47.0549 H   0  0  0  0  0  0  0  0  0  0  0  0
   56.8902   33.2774   47.5215 H   0  0  0  0  0  0  0  0  0  0  0  0
  1  2  1  0
  2  3  1  0
  3  4  1  0
  4  5  2  0
  5  6  1  0
  6  7  2  0
  7  8  1  0
  8  9  2  0
  9 10  1  0
 10 11  1  0
 11 12  1  0
 12 13  1  0
 13 14  1  0
 14 15  1  0
 15 16  2  0
 16 17  1  0
 17 18  2  0
 18 19  1  0
 19 20  2  0
 14 21  1  0
 21 22  1  0
  9  4  1  0
 22 11  1  0
 20 15  1  0
  1 23  1  0
  1 24  1  0
  1 25  1  0
  2 26  1  0
  2 27  1  0
  5 28  1  0
  6 29  1  0
  7 30  1  0
  8 31  1  0
 10 32  1  0
 10 33  1  0
 12 34  1  0
 12 35  1  0
 13 36  1  0
 13 37  1  0
 16 38  1  0
 17 39  1  0
 18 40  1  0
 19 41  1  0
 21 42  1  0
 21 43  1  0
 22 44  1  0
 22 45  1  0
M  END
>  <smiles>  (19) 
CCOc1ccccc1CN1CCN(c2ccccn2)CC1

>  <score_type>  (19) 
oracle

>  <origin>  (19) 
adg

>  <m_score__min__energy>  (19) 
-7.6600000000000001

>  <m_primary>  (19) 
energy

$$$$
20:0
     RDKit          3D

 51 54  0  0  0  0  0  0  0  0999 V2000
   57.0650   23.6810   44.7720 C   0  0  0  0  0  0  0  0  0  0  0  0
   57.2750   23.1480   46.1750 C   0  0  0  0  0  0  0  0  0  0  0  0
   58.1920   23.9430   46.9220 O   0  0  0  0  0  0  0  0  0  0  0  0
   58.9560   24.8750   46.2560 C   0  0  0  0  0  0  0  0  0  0  0  0
   59.9890   24.4890   45.6400 O   0  0  0  0  0  0  0  0  0  0  0  0
   58.5360   26.2300   46.2970 N   0  0  0  0  0  0  0  0  0  0  0  0
   57.3500   26.6780   47.0020 C   0  0  0  0  0  0  0  0  0  0  0  0
   56.4360   27.2570   45.9180 C   0  0  0  0  0  0  0  0  0  0  0  0
   57.1710   28.3710   45.3180 N   0  0  0  0  0  0  0  0  0  0  0  0
   56.3740   29.2960   44.5620 C   0  0  0  0  0  0  0  0  0  0  0  0
   55.1410   29.0310   44.5100 O   0  0  0  0  0  0  0  0  0  0  0  0
   56.9580   30.4540   43.9040 C   0  0  0  0  0  0  0  0  0  0  0  0
   56.8470   30.6980   42.5510 C   0  0  0  0  0  0  0  0  0  0  0  0
   57.4420   31.8390   42.0140 C   0  0  0  0  0  0  0  0  0  0  0  0
   58.1440   32.7270   42.8340 C   0  0  0  0  0  0  0  0  0  0  0  0
   58.2490   32.4720   44.1960 C   0  0  0  0  0  0  0  0  0  0  0  0
   58.9360   33.3270   45.0400 C   0  0  0  0  0  0  0  0  0  0  0  0
   59.0430   33.0780   46.3930 C   0  0  0  0  0  0  0  0  0  0  0  0
   59.7290   33.9350   47.2300 C   0  0  0  0  0  0  0  0  0  0  0  0
   59.8120   33.6470   48.5790 C   0  0  0  0  0  0  0  0  0  0  0  0
   60.5550   34.5880   49.4450 C   0  0  0  0  0  0  0  0  0  0  0  0
   59.2020   32.4930   49.0860 C   0  0  0  0  0  0  0  0  0  0  0  0
   58.5130   31.6270   48.2550 C   0  0  0  0  0  0  0  0  0  0  0  0
   58.4380   31.9320   46.8930 C   0  0  0  0  0  0  0  0  0  0  0  0
   57.7620   31.0880   46.0700 N   0  0  0  0  0  0  0  0  0  0  0  0
   57.6580   31.3380   44.7340 C   0  0  0  0  0  0  0  0  0  0  0  0
   58.5950   28.5400   45.4680 C   0  0  0  0  0  0  0  0  0  0  0  0
   59.3240   27.2250   45.6030 C   0  0  0  0  0  0  0  0  0  0  0  0
   56.6622   24.7033   44.8246 H   0  0  0  0  0  0  0  0  0  0  0  0
   58.0258   23.6925   44.2365 H   0  0  0  0  0  0  0  0  0  0  0  0
   56.3545   23.0341   44.2365 H   0  0  0  0  0  0  0  0  0  0  0  0
   56.3075   23.1375   46.6983 H   0  0  0  0  0  0  0  0  0  0  0  0
   57.6965   22.1354   46.0916 H   0  0  0  0  0  0  0  0  0  0  0  0
   56.8604   25.8337   47.5094 H   0  0  0  0  0  0  0  0  0  0  0  0
   57.5880   27.4190   47.7793 H   0  0  0  0  0  0  0  0  0  0  0  0
   56.2139   26.4932   45.1582 H   0  0  0  0  0  0  0  0  0  0  0  0
   55.4757   27.5900   46.3386 H   0  0  0  0  0  0  0  0  0  0  0  0
   56.2956   30.0007   41.9032 H   0  0  0  0  0  0  0  0  0  0  0  0
   57.3582   32.0420   40.9361 H   0  0  0  0  0  0  0  0  0  0  0  0
   58.6116   33.6244   42.4028 H   0  0  0  0  0  0  0  0  0  0  0  0
   59.4087   34.2279   44.6217 H   0  0  0  0  0  0  0  0  0  0  0  0
   60.2059   34.8403   46.8262 H   0  0  0  0  0  0  0  0  0  0  0  0
   60.3629   34.3447   50.5004 H   0  0  0  0  0  0  0  0  0  0  0  0
   61.6323   34.5030   49.2393 H   0  0  0  0  0  0  0  0  0  0  0  0
   60.2225   35.6162   49.2393 H   0  0  0  0  0  0  0  0  0  0  0  0
   59.2715   32.2714   50.1612 H   0  0  0  0  0  0  0  0  0  0  0  0
   58.0360   30.7208   48.6565 H   0  0  0  0  0  0  0  0  0  0  0  0
   58.9822   29.0685   44.5844 H   0  0  0  0  0  0  0  0  0  0  0  0
   58.7674   29.1131   46.3910 H   0  0  0  0  0  0  0  0  0  0  0  0
   59.5637   26.8484   44.5977 H   0  0  0  0  0  0  0  0  0  0  0  0
   60.2354   27.4040   46.1924 H   0  0  0  0  0  0  0  0  0  0  0  0
  1  2  1  0
  2  3  1  0
  3  4  1  0
  4  5  2  0
  4  6  1  0
  6  7  1  0
  7  8  1  0
  8  9  1  0
  9 10  1  0
 10 11  2  0
 10 12  1  0
 12 13  2  0
 13 14  1  0
 14 15  2  0
 15 16  1  0
 16 17  2  0
 17 18  1  0
 18 19  2  0
 19 20  1  0
 20 21  1  0
 20 22  2  0
 22 23  1  0
 23 24  2  0
 24 25  1  0
 25 26  2  0
  9 27  1  0
 27 28  1  0
 28  6  1  0
 26 12  1  0
 26 16  1  0
 24 18  1  0
  1 29  1  0
  1 30  1  0
  1 31  1  0
  2 32  1  0
  2 33  1  0
  7 34  1  0
  7 35  1  0
  8 36  1  0
  8 37  1  0
 13 38  1  0
 14 39  1  0
 15 40  1  0
 17 41  1  0
 19 42  1  0
 21 43  1  0
 21 44  1  0
 21 45  1  0
 22 46  1  0
 23 47  1  0
 27 48  1  0
 27 49  1  0
 28 50  1  0
 28 51  1  0
M  END
>  <smiles>  (20) 
CCOC(=O)N1CCN(C(=O)c2cccc3cc4cc(C)ccc4nc23)CC1

>  <score_type>  (20) 
oracle

>  <origin>  (20) 
adg

>  <m_score__min__energy>  (20) 
-8.5199999999999996

>  <m_primary>  (20) 
energy

$$$$
21:0
     RDKit          3D

 63 67  0  0  1  0  0  0  0  0999 V2000
   63.2870   30.9210   50.2710 C   0  0  0  0  0  0  0  0  0  0  0  0
   63.5990   32.2090   51.0030 C   0  0  2  0  0  0  0  0  0  0  0  0
   62.3440   32.7780   51.5560 C   0  0  0  0  0  0  0  0  0  0  0  0
   61.5020   33.6030   50.6590 C   0  0  0  0  0  0  0  0  0  0  0  0
   62.1260   34.0900   49.3980 C   0  0  2  0  0  0  0  0  0  0  0  0
   61.1700   34.1790   48.2660 C   0  0  0  0  0  0  0  0  0  0  0  0
   59.8760   34.5730   48.5810 C   0  0  0  0  0  0  0  0  0  0  0  0
   58.9210   34.6800   47.5710 C   0  0  0  0  0  0  0  0  0  0  0  0
   59.1920   34.4130   46.2550 C   0  0  0  0  0  0  0  0  0  0  0  0
   58.3430   34.4870   45.2020 O   0  0  0  0  0  0  0  0  0  0  0  0
   57.3910   33.6590   44.6760 C   0  0  0  0  0  0  0  0  0  0  0  0
   57.9280   32.4150   44.0600 C   0  0  0  0  0  0  0  0  0  0  0  0
   57.1380   31.2430   44.3370 N   0  0  0  0  0  0  0  0  0  0  0  0
   56.6170   30.5720   43.1900 C   0  0  0  0  0  0  0  0  0  0  0  0
   55.4410   29.7190   43.6360 C   0  0  0  0  0  0  0  0  0  0  0  0
   55.5640   29.2610   44.9300 O   0  0  0  0  0  0  0  0  0  0  0  0
   56.8870   29.0370   45.2950 C   0  0  0  0  0  0  0  0  0  0  0  0
   57.7290   30.3110   45.2430 C   0  0  0  0  0  0  0  0  0  0  0  0
   60.5120   34.0160   45.9790 C   0  0  0  0  0  0  0  0  0  0  0  0
   61.4540   33.9100   46.9700 C   0  0  0  0  0  0  0  0  0  0  0  0
   62.8250   33.4860   46.5880 C   0  0  0  0  0  0  0  0  0  0  0  0
   63.8310   33.9010   47.6730 C   0  0  0  0  0  0  0  0  0  0  0  0
   63.3000   33.3030   48.9260 C   0  0  1  0  0  0  0  0  0  0  0  0
   64.2520   33.2320   50.0790 C   0  0  2  0  0  0  0  0  0  0  0  0
   65.5790   32.6340   49.8130 C   0  0  0  0  0  0  0  0  0  0  0  0
   65.9850   32.1510   51.2010 C   0  0  0  0  0  0  0  0  0  0  0  0
   64.6850   31.9500   51.9780 C   0  0  1  0  0  0  0  0  0  0  0  0
   64.6170   32.7070   53.1260 O   0  0  0  0  0  0  0  0  0  0  0  0
   63.0934   30.1217   51.0015 H   0  0  0  0  0  0  0  0  0  0  0  0
   62.3976   31.0642   49.6398 H   0  0  0  0  0  0  0  0  0  0  0  0
   64.1434   30.6413   49.6398 H   0  0  0  0  0  0  0  0  0  0  0  0
   61.7268   31.9355   51.9012 H   0  0  0  0  0  0  0  0  0  0  0  0
   62.6788   33.4753   52.3381 H   0  0  0  0  0  0  0  0  0  0  0  0
   60.6240   33.0007   50.3827 H   0  0  0  0  0  0  0  0  0  0  0  0
   61.2803   34.5131   51.2357 H   0  0  0  0  0  0  0  0  0  0  0  0
   62.4729   35.0920   49.6908 H   0  0  0  0  0  0  0  0  0  0  0  0
   59.6058   34.7997   49.6229 H   0  0  0  0  0  0  0  0  0  0  0  0
   57.9024   34.9934   47.8435 H   0  0  0  0  0  0  0  0  0  0  0  0
   56.7007   33.3726   45.4831 H   0  0  0  0  0  0  0  0  0  0  0  0
   56.8987   34.2209   43.8686 H   0  0  0  0  0  0  0  0  0  0  0  0
   57.9682   32.5568   42.9699 H   0  0  0  0  0  0  0  0  0  0  0  0
   58.9221   32.2430   44.4983 H   0  0  0  0  0  0  0  0  0  0  0  0
   56.2816   31.3101   42.4465 H   0  0  0  0  0  0  0  0  0  0  0  0
   57.3932   29.9414   42.7319 H   0  0  0  0  0  0  0  0  0  0  0  0
   54.5240   30.3223   43.5641 H   0  0  0  0  0  0  0  0  0  0  0  0
   55.4076   28.8378   42.9785 H   0  0  0  0  0  0  0  0  0  0  0  0
   56.9082   28.6411   46.3211 H   0  0  0  0  0  0  0  0  0  0  0  0
   57.3163   28.3216   44.5781 H   0  0  0  0  0  0  0  0  0  0  0  0
   57.7779   30.7580   46.2469 H   0  0  0  0  0  0  0  0  0  0  0  0
   58.7438   30.0626   44.8989 H   0  0  0  0  0  0  0  0  0  0  0  0
   60.7965   33.7845   44.9419 H   0  0  0  0  0  0  0  0  0  0  0  0
   62.8476   32.3925   46.4708 H   0  0  0  0  0  0  0  0  0  0  0  0
   63.0995   33.9714   45.6398 H   0  0  0  0  0  0  0  0  0  0  0  0
   64.8316   33.5039   47.4470 H   0  0  0  0  0  0  0  0  0  0  0  0
   63.9391   34.9933   47.7455 H   0  0  0  0  0  0  0  0  0  0  0  0
   63.0594   32.2684   48.6400 H   0  0  0  0  0  0  0  0  0  0  0  0
   64.4198   34.2628   50.4244 H   0  0  0  0  0  0  0  0  0  0  0  0
   65.5065   31.7972   49.1027 H   0  0  0  0  0  0  0  0  0  0  0  0
   66.2978   33.3289   49.3544 H   0  0  0  0  0  0  0  0  0  0  0  0
   66.5368   31.2022   51.1286 H   0  0  0  0  0  0  0  0  0  0  0  0
   66.6438   32.8759   51.7015 H   0  0  0  0  0  0  0  0  0  0  0  0
   64.6028   30.9275   52.3752 H   0  0  0  0  0  0  0  0  0  0  0  0
   64.6830   32.0950   53.9050 H   0  0  0  0  0  0  0  0  0  0  0  0
  2  1  1  6
  2  3  1  0
  3  4  1  0
  4  5  1  0
  5  6  1  0
  6  7  2  0
  7  8  1  0
  8  9  2  0
  9 10  1  0
 10 11  1  0
 11 12  1  0
 12 13  1  0
 13 14  1  0
 14 15  1  0
 15 16  1  0
 16 17  1  0
 17 18  1  0
  9 19  1  0
 19 20  2  0
 20 21  1  0
 21 22  1  0
 22 23  1  0
 23 24  1  0
 24 25  1  0
 25 26  1  0
 26 27  1  0
 27 28  1  0
 24  2  1  0
 27  2  1  0
 23  5  1  0
 20  6  1  0
 18 13  1  0
  1 29  1  0
  1 30  1  0
  1 31  1  0
  3 32  1  0
  3 33  1  0
  4 34  1  0
  4 35  1  0
  5 36  1  1
  7 37  1  0
  8 38  1  0
 11 39  1  0
 11 40  1  0
 12 41  1  0
 12 42  1  0
 14 43  1  0
 14 44  1  0
 15 45  1  0
 15 46  1  0
 17 47  1  0
 17 48  1  0
 18 49  1  0
 18 50  1  0
 19 51  1  0
 21 52  1  0
 21 53  1  0
 22 54  1  0
 22 55  1  0
 23 56  1  6
 24 57  1  1
 25 58  1  0
 25 59  1  0
 26 60  1  0
 26 61  1  0
 27 62  1  1
 28 63  1  0
M  END
>  <smiles>  (21) 
CC12CCC3c4ccc(OCCN5CCOCC5)cc4CCC3C1CCC2O

>  <score_type>  (21) 
oracle

>  <origin>  (21) 
adg

>  <m_score__min__energy>  (21) 
-9.6799999999999997

>  <m_primary>  (21) 
energy

$$$$
22:0
     RDKit          3D

 45 47  0  0  0  0  0  0  0  0999 V2000
   56.6260   22.6970   43.3600 C   0  0  0  0  0  0  0  0  0  0  0  0
   56.6960   24.1240   43.8510 C   0  0  0  0  0  0  0  0  0  0  0  0
   56.4020   24.2760   45.2100 N   0  0  0  0  0  0  0  0  0  0  0  0
   55.2350   23.6840   45.7440 C   0  0  0  0  0  0  0  0  0  0  0  0
   54.0180   24.4550   45.3010 C   0  0  0  0  0  0  0  0  0  0  0  0
   57.3690   24.7130   46.1200 C   0  0  0  0  0  0  0  0  0  0  0  0
   57.7640   26.1440   46.1570 C   0  0  0  0  0  0  0  0  0  0  0  0
   57.0100   26.9620   45.2180 N   0  0  0  0  0  0  0  0  0  0  0  0
   57.3050   28.3420   45.0460 C   0  0  0  0  0  0  0  0  0  0  0  0
   57.0360   28.9840   43.8590 C   0  0  0  0  0  0  0  0  0  0  0  0
   57.3480   30.3270   43.6800 C   0  0  0  0  0  0  0  0  0  0  0  0
   57.9460   31.0790   44.6930 C   0  0  0  0  0  0  0  0  0  0  0  0
   58.2330   32.3890   44.4490 C   0  0  0  0  0  0  0  0  0  0  0  0
   57.9160   32.8380   43.2860 O   0  0  0  0  0  0  0  0  0  0  0  0
   58.8160   33.2760   45.3030 C   0  0  0  0  0  0  0  0  0  0  0  0
   59.0320   34.5790   44.8780 C   0  0  0  0  0  0  0  0  0  0  0  0
   59.6190   35.5380   45.6830 C   0  0  0  0  0  0  0  0  0  0  0  0
   60.0190   35.2210   46.9670 C   0  0  0  0  0  0  0  0  0  0  0  0
   59.8180   33.9370   47.4170 C   0  0  0  0  0  0  0  0  0  0  0  0
   59.2260   32.9870   46.5880 C   0  0  0  0  0  0  0  0  0  0  0  0
   58.9470   31.3570   47.0980 S   0  0  0  0  0  0  0  0  0  0  0  0
   58.1990   30.4050   45.8670 C   0  0  0  0  0  0  0  0  0  0  0  0
   57.8920   29.0670   46.0570 C   0  0  0  0  0  0  0  0  0  0  0  0
   56.5925   22.0140   44.2216 H   0  0  0  0  0  0  0  0  0  0  0  0
   55.7202   22.5630   42.7504 H   0  0  0  0  0  0  0  0  0  0  0  0
   57.5143   22.4750   42.7504 H   0  0  0  0  0  0  0  0  0  0  0  0
   57.7142   24.5006   43.6737 H   0  0  0  0  0  0  0  0  0  0  0  0
   55.9315   24.6879   43.2964 H   0  0  0  0  0  0  0  0  0  0  0  0
   55.1578   22.6457   45.3889 H   0  0  0  0  0  0  0  0  0  0  0  0
   55.2923   23.6989   46.8424 H   0  0  0  0  0  0  0  0  0  0  0  0
   53.4645   24.8057   46.1845 H   0  0  0  0  0  0  0  0  0  0  0  0
   54.3313   25.3197   44.6976 H   0  0  0  0  0  0  0  0  0  0  0  0
   53.3700   23.8023   44.6976 H   0  0  0  0  0  0  0  0  0  0  0  0
   56.9967   24.4608   47.1239 H   0  0  0  0  0  0  0  0  0  0  0  0
   58.2840   24.2080   45.7769 H   0  0  0  0  0  0  0  0  0  0  0  0
   57.5946   26.5291   47.1734 H   0  0  0  0  0  0  0  0  0  0  0  0
   58.8242   26.2024   45.8698 H   0  0  0  0  0  0  0  0  0  0  0  0
   56.2470   26.5020   44.6790 H   0  0  0  0  0  0  0  0  0  0  0  0
   56.5656   28.4246   43.0369 H   0  0  0  0  0  0  0  0  0  0  0  0
   57.1184   30.8083   42.7179 H   0  0  0  0  0  0  0  0  0  0  0  0
   58.7240   34.8604   43.8602 H   0  0  0  0  0  0  0  0  0  0  0  0
   59.7682   36.5581   45.2993 H   0  0  0  0  0  0  0  0  0  0  0  0
   60.4871   35.9776   47.6139 H   0  0  0  0  0  0  0  0  0  0  0  0
   60.1260   33.6591   48.4358 H   0  0  0  0  0  0  0  0  0  0  0  0
   58.1183   28.5835   47.0188 H   0  0  0  0  0  0  0  0  0  0  0  0
  1  2  1  0
  2  3  1  0
  3  4  1  0
  4  5  1  0
  3  6  1  0
  6  7  1  0
  7  8  1  0
  8  9  1  0
  9 10  2  0
 10 11  1  0
 11 12  2  0
 12 13  1  0
 13 14  2  0
 13 15  1  0
 15 16  2  0
 16 17  1  0
 17 18  2  0
 18 19  1  0
 19 20  2  0
 20 21  1  0
 21 22  1  0
 22 23  2  0
 23  9  1  0
 22 12  1  0
 20 15  1  0
  1 24  1  0
  1 25  1  0
  1 26  1  0
  2 27  1  0
  2 28  1  0
  4 29  1  0
  4 30  1  0
  5 31  1  0
  5 32  1  0
  5 33  1  0
  6 34  1  0
  6 35  1  0
  7 36  1  0
  7 37  1  0
  8 38  1  0
 10 39  1  0
 11 40  1  0
 16 41  1  0
 17 42  1  0
 18 43  1  0
 19 44  1  0
 23 45  1  0
M  END
>  <smiles>  (22) 
CCN(CC)CCNc1ccc2c(=O)c3ccccc3sc2c1

>  <score_type>  (22) 
oracle

>  <origin>  (22) 
adg

>  <m_score__min__energy>  (22) 
-7.6900000000000004

>  <m_primary>  (22) 
energy

$$$$
23:0
     RDKit          3D

 36 37  0  0  0  0  0  0  0  0999 V2000
   58.5890   27.7530   44.0840 C   0  0  0  0  0  0  0  0  0  0  0  0
   59.7870   28.5890   44.4820 C   0  0  0  0  0  0  0  0  0  0  0  0
   60.2930   28.1590   45.8730 C   0  0  0  0  0  0  0  0  0  0  0  0
   59.3310   28.8830   47.1480 S   0  0  0  0  0  0  0  0  0  0  0  0
   58.0690   28.1250   47.4290 O   0  0  0  0  0  0  0  0  0  0  0  0
   60.1870   28.8690   48.4060 O   0  0  0  0  0  0  0  0  0  0  0  0
   59.0340   30.5290   46.7950 N   0  0  0  0  0  0  0  0  0  0  0  0
   59.9460   31.5910   46.8850 C   0  0  0  0  0  0  0  0  0  0  0  0
   61.2650   31.4800   47.2670 C   0  0  0  0  0  0  0  0  0  0  0  0
   62.1330   32.5560   47.3270 C   0  0  0  0  0  0  0  0  0  0  0  0
   61.6910   33.8170   46.9940 C   0  0  0  0  0  0  0  0  0  0  0  0
   60.3760   33.9510   46.6070 C   0  0  0  0  0  0  0  0  0  0  0  0
   59.9590   35.2030   46.2830 F   0  0  0  0  0  0  0  0  0  0  0  0
   59.5040   32.8550   46.5500 C   0  0  0  0  0  0  0  0  0  0  0  0
   57.8390   33.2160   46.0240 S   0  0  0  0  0  0  0  0  0  0  0  0
   57.4050   32.1790   44.6420 C   0  0  0  0  0  0  0  0  0  0  0  0
   57.7660   32.4400   43.3410 C   0  0  0  0  0  0  0  0  0  0  0  0
   57.3910   31.5930   42.2910 C   0  0  0  0  0  0  0  0  0  0  0  0
   56.6390   30.4720   42.5940 C   0  0  0  0  0  0  0  0  0  0  0  0
   56.2740   30.2090   43.9180 C   0  0  0  0  0  0  0  0  0  0  0  0
   56.6740   31.0730   44.8650 N   0  0  0  0  0  0  0  0  0  0  0  0
   58.0753   27.3945   44.9882 H   0  0  0  0  0  0  0  0  0  0  0  0
   57.8967   28.3651   43.4873 H   0  0  0  0  0  0  0  0  0  0  0  0
   58.9246   26.8920   43.4873 H   0  0  0  0  0  0  0  0  0  0  0  0
   60.5900   28.4492   43.7433 H   0  0  0  0  0  0  0  0  0  0  0  0
   59.4918   29.6481   44.5173 H   0  0  0  0  0  0  0  0  0  0  0  0
   60.2314   27.0638   45.9547 H   0  0  0  0  0  0  0  0  0  0  0  0
   61.3334   28.4979   45.9858 H   0  0  0  0  0  0  0  0  0  0  0  0
   58.0570   30.7740   46.4700 H   0  0  0  0  0  0  0  0  0  0  0  0
   61.6478   30.4850   47.5382 H   0  0  0  0  0  0  0  0  0  0  0  0
   63.1763   32.4040   47.6408 H   0  0  0  0  0  0  0  0  0  0  0  0
   62.3640   34.6861   47.0356 H   0  0  0  0  0  0  0  0  0  0  0  0
   58.3641   33.3363   43.1197 H   0  0  0  0  0  0  0  0  0  0  0  0
   57.6860   31.8127   41.2543 H   0  0  0  0  0  0  0  0  0  0  0  0
   56.3277   29.7864   41.7921 H   0  0  0  0  0  0  0  0  0  0  0  0
   55.6775   29.3215   44.1759 H   0  0  0  0  0  0  0  0  0  0  0  0
  1  2  1  0
  2  3  1  0
  3  4  1  0
  4  5  2  0
  4  6  2  0
  4  7  1  0
  7  8  1  0
  8  9  2  0
  9 10  1  0
 10 11  2  0
 11 12  1  0
 12 13  1  0
 12 14  2  0
 14 15  1  0
 15 16  1  0
 16 17  2  0
 17 18  1  0
 18 19  2  0
 19 20  1  0
 20 21  2  0
 14  8  1  0
 21 16  1  0
  1 22  1  0
  1 23  1  0
  1 24  1  0
  2 25  1  0
  2 26  1  0
  3 27  1  0
  3 28  1  0
  7 29  1  0
  9 30  1  0
 10 31  1  0
 11 32  1  0
 17 33  1  0
 18 34  1  0
 19 35  1  0
 20 36  1  0
M  END
>  <smiles>  (23) 
CCCS(=O)(=O)Nc1cccc(F)c1Sc1ccccn1

>  <score_type>  (23) 
oracle

>  <origin>  (23) 
adg

>  <m_score__min__energy>  (23) 
-7.9400000000000004

>  <m_primary>  (23) 
energy

$$$$
24:0
     RDKit          3D

 57 59  0  0  0  0  0  0  0  0999 V2000
   54.2970   24.4920   45.5590 C   0  0  0  0  0  0  0  0  0  0  0  0
   55.1640   25.5610   45.9660 N   0  0  0  0  0  0  0  0  0  0  0  0
   56.2850   25.1420   46.7420 C   0  0  0  0  0  0  0  0  0  0  0  0
   57.6470   25.3610   46.1620 C   0  0  0  0  0  0  0  0  0  0  0  0
   57.7610   26.3100   45.0240 C   0  0  0  0  0  0  0  0  0  0  0  0
   56.9520   27.4740   45.2230 O   0  0  0  0  0  0  0  0  0  0  0  0
   57.2820   28.7310   44.7910 C   0  0  0  0  0  0  0  0  0  0  0  0
   58.5670   29.2240   44.6990 C   0  0  0  0  0  0  0  0  0  0  0  0
   58.8460   30.5060   44.2550 C   0  0  0  0  0  0  0  0  0  0  0  0
   57.7750   31.2990   43.8970 C   0  0  0  0  0  0  0  0  0  0  0  0
   58.0950   32.6690   43.4180 C   0  0  0  0  0  0  0  0  0  0  0  0
   58.0670   33.5570   44.5530 N   0  0  0  0  0  0  0  0  0  0  0  0
   57.8450   32.7630   45.7390 C   0  0  0  0  0  0  0  0  0  0  0  0
   57.7920   33.6750   46.9210 C   0  0  0  0  0  0  0  0  0  0  0  0
   59.0750   34.3110   47.0550 N   0  0  0  0  0  0  0  0  0  0  0  0
   60.1370   33.4330   47.4430 C   0  0  0  0  0  0  0  0  0  0  0  0
   59.6200   32.3700   48.3260 C   0  0  0  0  0  0  0  0  0  0  0  0
   59.0590   32.5950   49.5650 C   0  0  0  0  0  0  0  0  0  0  0  0
   58.6060   31.5210   50.3020 C   0  0  0  0  0  0  0  0  0  0  0  0
   58.6820   30.2190   49.8660 C   0  0  0  0  0  0  0  0  0  0  0  0
   59.2450   30.0090   48.6250 C   0  0  0  0  0  0  0  0  0  0  0  0
   59.3880   28.2150   47.9540 Br  0  0  0  0  0  0  0  0  0  0  0  0
   59.7100   31.0660   47.8600 C   0  0  0  0  0  0  0  0  0  0  0  0
   59.4210   35.1040   45.8940 C   0  0  0  0  0  0  0  0  0  0  0  0
   59.2630   34.3460   44.6090 C   0  0  0  0  0  0  0  0  0  0  0  0
   56.4840   30.8450   43.9740 C   0  0  0  0  0  0  0  0  0  0  0  0
   56.2240   29.5660   44.4190 C   0  0  0  0  0  0  0  0  0  0  0  0
   54.9480   29.1170   44.4960 F   0  0  0  0  0  0  0  0  0  0  0  0
   53.8903   23.9905   46.4495 H   0  0  0  0  0  0  0  0  0  0  0  0
   53.4706   24.8989   44.9578 H   0  0  0  0  0  0  0  0  0  0  0  0
   54.8657   23.7674   44.9578 H   0  0  0  0  0  0  0  0  0  0  0  0
   55.3840   26.2460   45.2350 H   0  0  0  0  0  0  0  0  0  0  0  0
   56.2437   25.6824   47.6992 H   0  0  0  0  0  0  0  0  0  0  0  0
   56.1834   24.0491   46.8141 H   0  0  0  0  0  0  0  0  0  0  0  0
   58.2933   25.7351   46.9696 H   0  0  0  0  0  0  0  0  0  0  0  0
   57.9353   24.3850   45.7445 H   0  0  0  0  0  0  0  0  0  0  0  0
   58.8116   26.6192   44.9214 H   0  0  0  0  0  0  0  0  0  0  0  0
   57.4101   25.7995   44.1150 H   0  0  0  0  0  0  0  0  0  0  0  0
   59.4042   28.5725   44.9901 H   0  0  0  0  0  0  0  0  0  0  0  0
   59.8795   30.8770   44.1904 H   0  0  0  0  0  0  0  0  0  0  0  0
   59.0952   32.6800   42.9603 H   0  0  0  0  0  0  0  0  0  0  0  0
   57.3616   32.9905   42.6638 H   0  0  0  0  0  0  0  0  0  0  0  0
   56.8933   32.2190   45.6478 H   0  0  0  0  0  0  0  0  0  0  0  0
   58.6611   32.0358   45.8622 H   0  0  0  0  0  0  0  0  0  0  0  0
   57.0128   34.4365   46.7693 H   0  0  0  0  0  0  0  0  0  0  0  0
   57.5534   33.1047   47.8309 H   0  0  0  0  0  0  0  0  0  0  0  0
   60.5784   32.9769   46.5446 H   0  0  0  0  0  0  0  0  0  0  0  0
   60.9013   34.0101   47.9842 H   0  0  0  0  0  0  0  0  0  0  0  0
   58.9738   33.6179   49.9606 H   0  0  0  0  0  0  0  0  0  0  0  0
   58.1612   31.7158   51.2890 H   0  0  0  0  0  0  0  0  0  0  0  0
   58.3110   29.3841   50.4786 H   0  0  0  0  0  0  0  0  0  0  0  0
   60.1550   30.8698   46.8734 H   0  0  0  0  0  0  0  0  0  0  0  0
   58.7674   35.9883   45.8640 H   0  0  0  0  0  0  0  0  0  0  0  0
   60.4804   35.3852   45.9866 H   0  0  0  0  0  0  0  0  0  0  0  0
   59.2429   35.0679   43.7793 H   0  0  0  0  0  0  0  0  0  0  0  0
   60.1125   33.6509   44.5372 H   0  0  0  0  0  0  0  0  0  0  0  0
   55.6529   31.5029   43.6799 H   0  0  0  0  0  0  0  0  0  0  0  0
  1  2  1  0
  2  3  1  0
  3  4  1  0
  4  5  1  0
  5  6  1  0
  6  7  1  0
  7  8  2  0
  8  9  1  0
  9 10  2  0
 10 11  1  0
 11 12  1  0
 12 13  1  0
 13 14  1  0
 14 15  1  0
 15 16  1  0
 16 17  1  0
 17 18  2  0
 18 19  1  0
 19 20  2  0
 20 21  1  0
 21 22  1  0
 21 23  2  0
 15 24  1  0
 24 25  1  0
 10 26  1  0
 26 27  2  0
 27 28  1  0
 27  7  1  0
 25 12  1  0
 23 17  1  0
  1 29  1  0
  1 30  1  0
  1 31  1  0
  2 32  1  0
  3 33  1  0
  3 34  1  0
  4 35  1  0
  4 36  1  0
  5 37  1  0
  5 38  1  0
  8 39  1  0
  9 40  1  0
 11 41  1  0
 11 42  1  0
 13 43  1  0
 13 44  1  0
 14 45  1  0
 14 46  1  0
 16 47  1  0
 16 48  1  0
 18 49  1  0
 19 50  1  0
 20 51  1  0
 23 52  1  0
 24 53  1  0
 24 54  1  0
 25 55  1  0
 25 56  1  0
 26 57  1  0
M  END
>  <smiles>  (24) 
CNCCCOc1ccc(CN2CCN(Cc3cccc(Br)c3)CC2)cc1F

>  <score_type>  (24) 
oracle

>  <origin>  (24) 
adg

>  <m_score__min__energy>  (24) 
-9.0299999999999994

>  <m_primary>  (24) 
energy

$$$$
25:0
     RDKit          3D

 53 56  0  0  0  0  0  0  0  0999 V2000
   60.6240   29.5360   48.5160 C   0  0  0  0  0  0  0  0  0  0  0  0
   60.6390   30.8280   47.9420 O   0  0  0  0  0  0  0  0  0  0  0  0
   61.6560   31.6950   48.2610 C   0  0  0  0  0  0  0  0  0  0  0  0
   62.7870   31.2920   48.9670 C   0  0  0  0  0  0  0  0  0  0  0  0
   63.7990   32.2070   49.2710 C   0  0  0  0  0  0  0  0  0  0  0  0
   63.6250   33.5120   48.8420 C   0  0  0  0  0  0  0  0  0  0  0  0
   62.5150   33.9100   48.1480 C   0  0  0  0  0  0  0  0  0  0  0  0
   61.5290   33.0130   47.8530 C   0  0  0  0  0  0  0  0  0  0  0  0
   60.3500   33.4060   47.1190 N   0  0  0  0  0  0  0  0  0  0  0  0
   60.5710   34.1660   45.9180 C   0  0  0  0  0  0  0  0  0  0  0  0
   59.4180   35.1600   45.6850 C   0  0  0  0  0  0  0  0  0  0  0  0
   58.2340   34.4260   45.9450 N   0  0  0  0  0  0  0  0  0  0  0  0
   57.6050   33.7520   44.8840 C   0  0  0  0  0  0  0  0  0  0  0  0
   58.4500   32.7410   44.1650 C   0  0  0  0  0  0  0  0  0  0  0  0
   58.2160   31.3510   44.5450 C   0  0  0  0  0  0  0  0  0  0  0  0
   59.0430   30.5750   45.3230 C   0  0  0  0  0  0  0  0  0  0  0  0
   58.7110   29.2660   45.6190 C   0  0  0  0  0  0  0  0  0  0  0  0
   57.5540   28.6790   45.1590 C   0  0  0  0  0  0  0  0  0  0  0  0
   57.2230   27.2630   45.4880 C   0  0  0  0  0  0  0  0  0  0  0  0
   58.2640   26.3490   45.6300 C   0  0  0  0  0  0  0  0  0  0  0  0
   57.4990   24.7820   46.0140 S   0  0  0  0  0  0  0  0  0  0  0  0
   55.8120   25.5400   45.9400 C   0  0  0  0  0  0  0  0  0  0  0  0
   54.7460   24.8680   46.1420 O   0  0  0  0  0  0  0  0  0  0  0  0
   56.0100   26.8410   45.6450 N   0  0  0  0  0  0  0  0  0  0  0  0
   56.7230   29.4450   44.3840 C   0  0  0  0  0  0  0  0  0  0  0  0
   57.0390   30.7520   44.0790 C   0  0  0  0  0  0  0  0  0  0  0  0
   58.0230   33.9950   47.2700 C   0  0  0  0  0  0  0  0  0  0  0  0
   59.0920   32.9990   47.6460 C   0  0  0  0  0  0  0  0  0  0  0  0
   60.6250   29.6219   49.6126 H   0  0  0  0  0  0  0  0  0  0  0  0
   59.7196   29.0009   48.1910 H   0  0  0  0  0  0  0  0  0  0  0  0
   61.5158   28.9800   48.1910 H   0  0  0  0  0  0  0  0  0  0  0  0
   62.8847   30.2445   49.2881 H   0  0  0  0  0  0  0  0  0  0  0  0
   64.6972   31.9027   49.8284 H   0  0  0  0  0  0  0  0  0  0  0  0
   64.4055   34.2538   49.0667 H   0  0  0  0  0  0  0  0  0  0  0  0
   62.4166   34.9573   47.8263 H   0  0  0  0  0  0  0  0  0  0  0  0
   61.5150   34.7229   46.0113 H   0  0  0  0  0  0  0  0  0  0  0  0
   60.6200   33.4738   45.0645 H   0  0  0  0  0  0  0  0  0  0  0  0
   59.5007   36.0143   46.3729 H   0  0  0  0  0  0  0  0  0  0  0  0
   59.4303   35.5709   44.6647 H   0  0  0  0  0  0  0  0  0  0  0  0
   56.7249   33.2308   45.2887 H   0  0  0  0  0  0  0  0  0  0  0  0
   57.3617   34.5243   44.1395 H   0  0  0  0  0  0  0  0  0  0  0  0
   58.2519   32.8369   43.0872 H   0  0  0  0  0  0  0  0  0  0  0  0
   59.4914   32.9616   44.4422 H   0  0  0  0  0  0  0  0  0  0  0  0
   59.9789   31.0005   45.7141 H   0  0  0  0  0  0  0  0  0  0  0  0
   59.3951   28.6730   46.2438 H   0  0  0  0  0  0  0  0  0  0  0  0
   59.3402   26.5515   45.5265 H   0  0  0  0  0  0  0  0  0  0  0  0
   55.1430   27.4640   45.5560 H   0  0  0  0  0  0  0  0  0  0  0  0
   55.7888   29.0102   43.9990 H   0  0  0  0  0  0  0  0  0  0  0  0
   56.3496   31.3387   43.4542 H   0  0  0  0  0  0  0  0  0  0  0  0
   58.0701   34.8588   47.9494 H   0  0  0  0  0  0  0  0  0  0  0  0
   57.0333   33.5217   47.3506 H   0  0  0  0  0  0  0  0  0  0  0  0
   59.1604   32.9358   48.7420 H   0  0  0  0  0  0  0  0  0  0  0  0
   58.8292   32.0157   47.2289 H   0  0  0  0  0  0  0  0  0  0  0  0
  1  2  1  0
  2  3  1  0
  3  4  2  0
  4  5  1  0
  5  6  2  0
  6  7  1  0
  7  8  2  0
  8  9  1  0
  9 10  1  0
 10 11  1  0
 11 12  1  0
 12 13  1  0
 13 14  1  0
 14 15  1  0
 15 16  2  0
 16 17  1  0
 17 18  2  0
 18 19  1  0
 19 20  2  0
 20 21  1  0
 21 22  1  0
 22 23  2  0
 22 24  1  0
 18 25  1  0
 25 26  2  0
 12 27  1  0
 27 28  1  0
  8  3  1  0
 28  9  1  0
 26 15  1  0
 24 19  1  0
  1 29  1  0
  1 30  1  0
  1 31  1  0
  4 32  1  0
  5 33  1  0
  6 34  1  0
  7 35  1  0
 10 36  1  0
 10 37  1  0
 11 38  1  0
 11 39  1  0
 13 40  1  0
 13 41  1  0
 14 42  1  0
 14 43  1  0
 16 44  1  0
 17 45  1  0
 20 46  1  0
 24 47  1  0
 25 48  1  0
 26 49  1  0
 27 50  1  0
 27 51  1  0
 28 52  1  0
 28 53  1  0
M  END
>  <smiles>  (25) 
COc1ccccc1N1CCN(CCc2ccc(-c3csc(=O)[nH]3)cc2)CC1

>  <score_type>  (25) 
oracle

>  <origin>  (25) 
adg

>  <m_score__min__energy>  (25) 
-9.2200000000000006

>  <m_primary>  (25) 
energy

$$$$
26:0
     RDKit          3D

 38 40  0  0  0  0  0  0  0  0999 V2000
   59.6520   25.9180   46.0070 C   0  0  0  0  0  0  0  0  0  0  0  0
   58.3200   25.2330   45.9430 C   0  0  0  0  0  0  0  0  0  0  0  0
   58.2990   23.8910   45.8460 N   0  0  0  0  0  0  0  0  0  0  0  0
   57.1120   23.2540   45.7870 C   0  0  0  0  0  0  0  0  0  0  0  0
   57.1190   21.8910   45.6890 C   0  0  0  0  0  0  0  0  0  0  0  0
   55.8950   21.2190   45.6270 C   0  0  0  0  0  0  0  0  0  0  0  0
   54.7190   21.9690   45.6690 C   0  0  0  0  0  0  0  0  0  0  0  0
   54.7350   23.3320   45.7670 C   0  0  0  0  0  0  0  0  0  0  0  0
   55.9450   23.9830   45.8260 C   0  0  0  0  0  0  0  0  0  0  0  0
   55.9920   25.3780   45.9280 C   0  0  0  0  0  0  0  0  0  0  0  0
   54.9520   26.0770   45.9670 O   0  0  0  0  0  0  0  0  0  0  0  0
   57.1990   25.9830   45.9850 N   0  0  0  0  0  0  0  0  0  0  0  0
   57.3380   27.3750   46.0860 N   0  0  0  0  0  0  0  0  0  0  0  0
   57.7530   28.2030   45.0330 C   0  0  0  0  0  0  0  0  0  0  0  0
   58.0370   27.7340   43.8870 O   0  0  0  0  0  0  0  0  0  0  0  0
   57.8510   29.6480   45.2890 C   0  0  0  0  0  0  0  0  0  0  0  0
   57.4180   30.1730   46.3500 O   0  0  0  0  0  0  0  0  0  0  0  0
   58.4460   30.5390   44.3450 N   0  0  0  0  0  0  0  0  0  0  0  0
   58.4740   31.9230   44.7270 C   0  0  0  0  0  0  0  0  0  0  0  0
   57.7670   32.8860   44.0520 C   0  0  0  0  0  0  0  0  0  0  0  0
   57.8610   34.1870   44.4990 C   0  0  0  0  0  0  0  0  0  0  0  0
   58.6460   34.5340   45.6040 C   0  0  0  0  0  0  0  0  0  0  0  0
   59.3520   33.5550   46.2750 C   0  0  0  0  0  0  0  0  0  0  0  0
   60.4460   33.9690   47.7990 Br  0  0  0  0  0  0  0  0  0  0  0  0
   59.2650   32.2300   45.8320 C   0  0  0  0  0  0  0  0  0  0  0  0
   59.9384   26.0653   47.0588 H   0  0  0  0  0  0  0  0  0  0  0  0
   60.4082   25.2969   45.5046 H   0  0  0  0  0  0  0  0  0  0  0  0
   59.5867   26.8944   45.5046 H   0  0  0  0  0  0  0  0  0  0  0  0
   58.0675   21.3347   45.6595 H   0  0  0  0  0  0  0  0  0  0  0  0
   55.8595   20.1225   45.5468 H   0  0  0  0  0  0  0  0  0  0  0  0
   53.7513   21.4481   45.6219 H   0  0  0  0  0  0  0  0  0  0  0  0
   53.7936   23.9002   45.7982 H   0  0  0  0  0  0  0  0  0  0  0  0
   57.1090   27.7980   47.0280 H   0  0  0  0  0  0  0  0  0  0  0  0
   58.8230   30.1870   43.4540 H   0  0  0  0  0  0  0  0  0  0  0  0
   57.1451   32.6283   43.1820 H   0  0  0  0  0  0  0  0  0  0  0  0
   57.3028   34.9747   43.9717 H   0  0  0  0  0  0  0  0  0  0  0  0
   58.7005   35.5811   45.9365 H   0  0  0  0  0  0  0  0  0  0  0  0
   59.8183   31.4352   46.3537 H   0  0  0  0  0  0  0  0  0  0  0  0
  1  2  1  0
  2  3  2  0
  3  4  1  0
  4  5  2  0
  5  6  1  0
  6  7  2  0
  7  8  1  0
  8  9  2  0
  9 10  1  0
 10 11  2  0
 10 12  1  0
 12 13  1  0
 13 14  1  0
 14 15  2  0
 14 16  1  0
 16 17  2  0
 16 18  1  0
 18 19  1  0
 19 20  2  0
 20 21  1  0
 21 22  2  0
 22 23  1  0
 23 24  1  0
 23 25  2  0
 12  2  1  0
 25 19  1  0
  9  4  1  0
  1 26  1  0
  1 27  1  0
  1 28  1  0
  5 29  1  0
  6 30  1  0
  7 31  1  0
  8 32  1  0
 13 33  1  0
 18 34  1  0
 20 35  1  0
 21 36  1  0
 22 37  1  0
 25 38  1  0
M  END
>  <smiles>  (26) 
Cc1nc2ccccc2c(=O)n1NC(=O)C(=O)Nc1cccc(Br)c1

>  <score_type>  (26) 
oracle

>  <origin>  (26) 
adg

>  <m_score__min__energy>  (26) 
-8.2200000000000006

>  <m_primary>  (26) 
energy

$$$$
27:0
     RDKit          3D

 37 38  0  0  1  0  0  0  0  0999 V2000
   55.6020   29.7540   43.7150 C   0  0  0  0  0  0  0  0  0  0  0  0
   55.5120   28.9410   44.8820 O   0  0  0  0  0  0  0  0  0  0  0  0
   56.6390   28.3520   45.4020 C   0  0  0  0  0  0  0  0  0  0  0  0
   57.8510   29.0100   45.3560 C   0  0  0  0  0  0  0  0  0  0  0  0
   59.0200   28.4390   45.8770 C   0  0  0  0  0  0  0  0  0  0  0  0
   60.2930   29.1440   45.8230 C   0  0  0  0  0  0  0  0  0  0  0  0
   60.5940   30.2000   46.5390 C   0  0  0  0  0  0  0  0  0  0  0  0
   59.5180   31.0280   47.0650 C   0  0  0  0  0  0  0  0  0  0  0  0
   58.8630   30.6470   48.0680 O   0  0  0  0  0  0  0  0  0  0  0  0
   59.2280   32.2740   46.4150 C   0  0  0  0  0  0  0  0  0  0  0  0
   59.8140   33.4770   46.3540 C   0  0  0  0  0  0  0  0  0  0  0  0
   59.2640   34.4640   45.6320 C   0  0  0  0  0  0  0  0  0  0  0  0
   58.0900   34.1880   44.9670 C   0  0  0  0  0  0  0  0  0  0  0  0
   57.7210   32.4190   45.3780 S   0  0  0  0  0  0  0  0  0  0  0  0
   58.8650   27.1860   46.4330 C   0  0  0  0  0  0  0  0  0  0  0  0
   57.6530   26.5230   46.4800 C   0  0  0  0  0  0  0  0  0  0  0  0
   57.5160   25.2540   47.0470 O   0  0  0  0  0  0  0  0  0  0  0  0
   58.1060   24.1630   46.3670 C   0  0  0  0  0  0  0  0  0  0  0  0
   56.5260   27.1000   45.9660 C   0  0  0  0  0  0  0  0  0  0  0  0
   55.3080   26.4530   46.0050 O   0  0  0  0  0  0  0  0  0  0  0  0
   55.1410   25.0920   45.6040 C   0  0  0  0  0  0  0  0  0  0  0  0
   55.7186   30.8073   44.0100 H   0  0  0  0  0  0  0  0  0  0  0  0
   56.4711   29.4423   43.1171 H   0  0  0  0  0  0  0  0  0  0  0  0
   54.6857   29.6400   43.1171 H   0  0  0  0  0  0  0  0  0  0  0  0
   57.9009   30.0090   44.8983 H   0  0  0  0  0  0  0  0  0  0  0  0
   61.0580   28.7625   45.1307 H   0  0  0  0  0  0  0  0  0  0  0  0
   61.6446   30.4570   46.7396 H   0  0  0  0  0  0  0  0  0  0  0  0
   60.7522   33.6563   46.8996 H   0  0  0  0  0  0  0  0  0  0  0  0
   59.7331   35.4572   45.5730 H   0  0  0  0  0  0  0  0  0  0  0  0
   57.5017   34.8671   44.3325 H   0  0  0  0  0  0  0  0  0  0  0  0
   59.7493   26.6902   46.8599 H   0  0  0  0  0  0  0  0  0  0  0  0
   58.4961   23.4416   47.1001 H   0  0  0  0  0  0  0  0  0  0  0  0
   57.3503   23.6722   45.7360 H   0  0  0  0  0  0  0  0  0  0  0  0
   58.9304   24.5267   45.7360 H   0  0  0  0  0  0  0  0  0  0  0  0
   55.0627   24.4538   46.4965 H   0  0  0  0  0  0  0  0  0  0  0  0
   54.2244   24.9965   45.0034 H   0  0  0  0  0  0  0  0  0  0  0  0
   56.0073   24.7778   45.0034 H   0  0  0  0  0  0  0  0  0  0  0  0
  1  2  1  0
  2  3  1  0
  3  4  2  0
  4  5  1  0
  5  6  1  0
  6  7  2  0
  7  8  1  0
  8  9  2  0
  8 10  1  0
 10 11  2  0
 11 12  1  0
 12 13  2  0
 13 14  1  0
  5 15  2  0
 15 16  1  0
 16 17  1  0
 17 18  1  0
 16 19  2  0
 19 20  1  0
 20 21  1  0
 19  3  1  0
 14 10  1  0
  1 22  1  0
  1 23  1  0
  1 24  1  0
  4 25  1  0
  6 26  1  0
  7 27  1  0
 11 28  1  0
 12 29  1  0
 13 30  1  0
 15 31  1  0
 18 32  1  0
 18 33  1  0
 18 34  1  0
 21 35  1  0
 21 36  1  0
 21 37  1  0
M  END
>  <smiles>  (27) 
COc1cc(C=CC(=O)c2cccs2)cc(OC)c1OC

>  <score_type>  (27) 
oracle

>  <origin>  (27) 
adg

>  <m_score__min__energy>  (27) 
-6.9699999999999998

>  <m_primary>  (27) 
energy

$$$$
28:0
     RDKit          3D

 46 48  0  0  0  0  0  0  0  0999 V2000
   58.9440   30.8340   49.3060 C   0  0  0  0  0  0  0  0  0  0  0  0
   59.1720   29.3460   49.4710 C   0  0  0  0  0  0  0  0  0  0  0  0
   59.6410   28.7460   48.2390 N   0  0  0  0  0  0  0  0  0  0  0  0
   60.0070   27.3750   48.5320 C   0  0  0  0  0  0  0  0  0  0  0  0
   60.7820   29.4140   47.7120 C   0  0  0  0  0  0  0  0  0  0  0  0
   60.7660   29.6170   46.2100 C   0  0  0  0  0  0  0  0  0  0  0  0
   59.5240   30.1500   45.7480 N   0  0  0  0  0  0  0  0  0  0  0  0
   58.5710   29.4140   45.1140 C   0  0  0  0  0  0  0  0  0  0  0  0
   58.6310   27.9480   44.7820 C   0  0  0  0  0  0  0  0  0  0  0  0
   57.4820   30.1820   44.7850 C   0  0  0  0  0  0  0  0  0  0  0  0
   56.2530   29.7620   44.0980 C   0  0  0  0  0  0  0  0  0  0  0  0
   56.2560   29.7180   42.6210 C   0  0  0  0  0  0  0  0  0  0  0  0
   55.2520   29.4600   44.8030 O   0  0  0  0  0  0  0  0  0  0  0  0
   57.7620   31.4470   45.2290 C   0  0  0  0  0  0  0  0  0  0  0  0
   56.9930   32.5840   45.1440 C   0  0  0  0  0  0  0  0  0  0  0  0
   57.4920   33.7210   45.6620 N   0  0  0  0  0  0  0  0  0  0  0  0
   58.7160   33.7110   46.2450 C   0  0  0  0  0  0  0  0  0  0  0  0
   59.1350   34.9380   46.7580 C   0  0  0  0  0  0  0  0  0  0  0  0
   60.3610   34.9590   47.3580 C   0  0  0  0  0  0  0  0  0  0  0  0
   61.1560   33.8450   47.4640 C   0  0  0  0  0  0  0  0  0  0  0  0
   60.7040   32.6250   46.9370 C   0  0  0  0  0  0  0  0  0  0  0  0
   59.4900   32.5730   46.3320 C   0  0  0  0  0  0  0  0  0  0  0  0
   59.0090   31.3920   45.8090 C   0  0  0  0  0  0  0  0  0  0  0  0
   58.8717   31.3060   50.2970 H   0  0  0  0  0  0  0  0  0  0  0  0
   59.7851   31.2745   48.7506 H   0  0  0  0  0  0  0  0  0  0  0  0
   58.0096   31.0024   48.7506 H   0  0  0  0  0  0  0  0  0  0  0  0
   59.9237   29.1837   50.2575 H   0  0  0  0  0  0  0  0  0  0  0  0
   58.2156   28.8762   49.7440 H   0  0  0  0  0  0  0  0  0  0  0  0
   60.0455   27.2307   49.6218 H   0  0  0  0  0  0  0  0  0  0  0  0
   59.2589   26.6951   48.0983 H   0  0  0  0  0  0  0  0  0  0  0  0
   60.9944   27.1584   48.0983 H   0  0  0  0  0  0  0  0  0  0  0  0
   60.8500   30.4026   48.1896 H   0  0  0  0  0  0  0  0  0  0  0  0
   61.6448   28.7663   47.9264 H   0  0  0  0  0  0  0  0  0  0  0  0
   61.5727   30.3138   45.9387 H   0  0  0  0  0  0  0  0  0  0  0  0
   60.9074   28.6344   45.7362 H   0  0  0  0  0  0  0  0  0  0  0  0
   58.6550   27.3620   45.7126 H   0  0  0  0  0  0  0  0  0  0  0  0
   57.7436   27.6683   44.1953 H   0  0  0  0  0  0  0  0  0  0  0  0
   59.5383   27.7417   44.1953 H   0  0  0  0  0  0  0  0  0  0  0  0
   56.3273   28.6729   42.2855 H   0  0  0  0  0  0  0  0  0  0  0  0
   55.3254   30.1631   42.2390 H   0  0  0  0  0  0  0  0  0  0  0  0
   57.1175   30.2853   42.2390 H   0  0  0  0  0  0  0  0  0  0  0  0
   56.0016   32.5644   44.6677 H   0  0  0  0  0  0  0  0  0  0  0  0
   58.5110   35.8408   46.6832 H   0  0  0  0  0  0  0  0  0  0  0  0
   60.7274   35.9090   47.7742 H   0  0  0  0  0  0  0  0  0  0  0  0
   62.1374   33.9077   47.9569 H   0  0  0  0  0  0  0  0  0  0  0  0
   61.3265   31.7213   47.0134 H   0  0  0  0  0  0  0  0  0  0  0  0
  1  2  1  0
  2  3  1  0
  3  4  1  0
  3  5  1  0
  5  6  1  0
  6  7  1  0
  7  8  1  0
  8  9  1  0
  8 10  2  0
 10 11  1  0
 11 12  1  0
 11 13  2  0
 10 14  1  0
 14 15  2  0
 15 16  1  0
 16 17  2  0
 17 18  1  0
 18 19  2  0
 19 20  1  0
 20 21  2  0
 21 22  1  0
 22 23  2  0
 23  7  1  0
 23 14  1  0
 22 17  1  0
  1 24  1  0
  1 25  1  0
  1 26  1  0
  2 27  1  0
  2 28  1  0
  4 29  1  0
  4 30  1  0
  4 31  1  0
  5 32  1  0
  5 33  1  0
  6 34  1  0
  6 35  1  0
  9 36  1  0
  9 37  1  0
  9 38  1  0
 12 39  1  0
 12 40  1  0
 12 41  1  0
 15 42  1  0
 18 43  1  0
 19 44  1  0
 20 45  1  0
 21 46  1  0
M  END
>  <smiles>  (28) 
CCN(C)CCn1c(C)c(C(C)=O)c2cnc3ccccc3c21

>  <score_type>  (28) 
oracle

>  <origin>  (28) 
adg

>  <m_score__min__energy>  (28) 
-7.9199999999999999

>  <m_primary>  (28) 
energy

$$$$
29:0
     RDKit          3D

 58 62  0  0  1  0  0  0  0  0999 V2000
   57.6940   21.9710   43.9520 C   0  0  0  0  0  0  0  0  0  0  0  0
   56.3870   22.6640   43.6620 C   0  0  0  0  0  0  0  0  0  0  0  0
   56.2530   23.7650   44.6060 N   0  0  0  0  0  0  0  0  0  0  0  0
   55.4470   23.6860   45.7040 C   0  0  0  0  0  0  0  0  0  0  0  0
   55.5270   24.8410   46.3820 N   0  0  0  0  0  0  0  0  0  0  0  0
   56.3800   25.6270   45.7000 C   0  0  0  0  0  0  0  0  0  0  0  0
   56.8190   26.8950   45.9410 C   0  0  0  0  0  0  0  0  0  0  0  0
   57.7200   27.5010   45.0690 C   0  0  0  0  0  0  0  0  0  0  0  0
   58.2060   28.9020   45.3350 C   0  0  2  0  0  0  0  0  0  0  0  0
   58.7480   28.8450   46.7700 C   0  0  0  0  0  0  0  0  0  0  0  0
   58.3660   30.0680   47.3720 O   0  0  0  0  0  0  0  0  0  0  0  0
   59.2300   31.1540   47.4990 C   0  0  0  0  0  0  0  0  0  0  0  0
   58.7920   32.4400   47.7290 C   0  0  0  0  0  0  0  0  0  0  0  0
   59.7370   33.4450   47.8370 C   0  0  0  0  0  0  0  0  0  0  0  0
   61.0880   33.2280   47.7270 C   0  0  0  0  0  0  0  0  0  0  0  0
   61.9870   34.2230   47.8360 N   0  0  0  0  0  0  0  0  0  0  0  0
   63.3030   33.9750   47.7240 C   0  0  0  0  0  0  0  0  0  0  0  0
   63.7570   32.6990   47.4940 C   0  0  0  0  0  0  0  0  0  0  0  0
   62.8640   31.6580   47.3760 C   0  0  0  0  0  0  0  0  0  0  0  0
   61.4970   31.9240   47.4960 C   0  0  0  0  0  0  0  0  0  0  0  0
   60.5800   30.8930   47.3810 C   0  0  0  0  0  0  0  0  0  0  0  0
   57.0740   29.7380   45.2420 N   0  0  0  0  0  0  0  0  0  0  0  0
   56.8730   30.7130   44.4730 C   0  0  0  0  0  0  0  0  0  0  0  0
   56.5470   30.3880   43.0350 C   0  0  0  0  0  0  0  0  0  0  0  0
   57.0250   31.5840   42.2200 C   0  0  0  0  0  0  0  0  0  0  0  0
   58.3430   32.1140   42.7720 C   0  0  0  0  0  0  0  0  0  0  0  0
   58.1500   32.7410   44.1440 C   0  0  0  0  0  0  0  0  0  0  0  0
   56.9230   32.1410   44.8300 C   0  0  0  0  0  0  0  0  0  0  0  0
   58.1470   26.7850   43.9680 C   0  0  0  0  0  0  0  0  0  0  0  0
   57.7200   25.5310   43.7200 N   0  0  0  0  0  0  0  0  0  0  0  0
   56.8500   24.9760   44.5840 C   0  0  0  0  0  0  0  0  0  0  0  0
   57.8356   21.8959   45.0403 H   0  0  0  0  0  0  0  0  0  0  0  0
   57.6793   20.9622   43.5137 H   0  0  0  0  0  0  0  0  0  0  0  0
   58.5208   22.5492   43.5137 H   0  0  0  0  0  0  0  0  0  0  0  0
   56.3881   23.0509   42.6323 H   0  0  0  0  0  0  0  0  0  0  0  0
   55.5464   21.9621   43.7655 H   0  0  0  0  0  0  0  0  0  0  0  0
   54.8328   22.8184   45.9868 H   0  0  0  0  0  0  0  0  0  0  0  0
   56.4607   27.4407   46.8263 H   0  0  0  0  0  0  0  0  0  0  0  0
   58.9764   29.2754   44.6443 H   0  0  0  0  0  0  0  0  0  0  0  0
   58.3073   27.9960   47.3131 H   0  0  0  0  0  0  0  0  0  0  0  0
   59.8392   28.7073   46.7869 H   0  0  0  0  0  0  0  0  0  0  0  0
   57.7189   32.6620   47.8243 H   0  0  0  0  0  0  0  0  0  0  0  0
   59.3873   34.4716   48.0206 H   0  0  0  0  0  0  0  0  0  0  0  0
   64.0232   34.8012   47.8173 H   0  0  0  0  0  0  0  0  0  0  0  0
   64.8367   32.5086   47.4039 H   0  0  0  0  0  0  0  0  0  0  0  0
   63.2202   30.6340   47.1904 H   0  0  0  0  0  0  0  0  0  0  0  0
   60.9275   29.8659   47.1956 H   0  0  0  0  0  0  0  0  0  0  0  0
   57.0733   29.4749   42.7199 H   0  0  0  0  0  0  0  0  0  0  0  0
   55.4711   30.2067   42.8949 H   0  0  0  0  0  0  0  0  0  0  0  0
   57.1687   31.2751   41.1741 H   0  0  0  0  0  0  0  0  0  0  0  0
   56.2685   32.3803   42.2798 H   0  0  0  0  0  0  0  0  0  0  0  0
   59.0582   31.2823   42.8546 H   0  0  0  0  0  0  0  0  0  0  0  0
   58.7239   32.8851   42.0862 H   0  0  0  0  0  0  0  0  0  0  0  0
   59.0410   32.5491   44.7599 H   0  0  0  0  0  0  0  0  0  0  0  0
   58.0016   33.8246   44.0261 H   0  0  0  0  0  0  0  0  0  0  0  0
   57.0098   32.2530   45.9208 H   0  0  0  0  0  0  0  0  0  0  0  0
   56.0063   32.6549   44.5051 H   0  0  0  0  0  0  0  0  0  0  0  0
   58.8581   27.2530   43.2714 H   0  0  0  0  0  0  0  0  0  0  0  0
  1  2  1  0
  2  3  1  0
  3  4  1  0
  4  5  2  0
  5  6  1  0
  6  7  2  0
  7  8  1  0
  8  9  1  0
  9 10  1  0
 10 11  1  0
 11 12  1  0
 12 13  2  0
 13 14  1  0
 14 15  2  0
 15 16  1  0
 16 17  2  0
 17 18  1  0
 18 19  2  0
 19 20  1  0
 20 21  2  0
  9 22  1  0
 22 23  2  3
 23 24  1  0
 24 25  1  0
 25 26  1  0
 26 27  1  0
 27 28  1  0
  8 29  2  0
 29 30  1  0
 30 31  2  0
 31  3  1  0
 31  6  1  0
 21 12  1  0
 28 23  1  0
 20 15  1  0
  1 32  1  0
  1 33  1  0
  1 34  1  0
  2 35  1  0
  2 36  1  0
  4 37  1  0
  7 38  1  0
  9 39  1  6
 10 40  1  0
 10 41  1  0
 13 42  1  0
 14 43  1  0
 17 44  1  0
 18 45  1  0
 19 46  1  0
 21 47  1  0
 24 48  1  0
 24 49  1  0
 25 50  1  0
 25 51  1  0
 26 52  1  0
 26 53  1  0
 27 54  1  0
 27 55  1  0
 28 56  1  0
 28 57  1  0
 29 58  1  0
M  END
>  <smiles>  (29) 
CCn1cnc2cc(C(COc3ccc4ncccc4c3)N=C3CCCCC3)cnc21

>  <score_type>  (29) 
oracle

>  <origin>  (29) 
adg

>  <m_score__min__energy>  (29) 
-9.3699999999999992

>  <m_primary>  (29) 
energy

$$$$
30:0
     RDKit          3D

 75 79  0  0  1  0  0  0  0  0999 V2000
   64.1570   31.1530   50.8960 C   0  0  0  0  0  0  0  0  0  0  0  0
   64.8310   32.2530   50.0930 C   0  0  2  0  0  0  0  0  0  0  0  0
   66.3460   32.1450   50.1970 C   0  0  0  0  0  0  0  0  0  0  0  0
   66.9770   33.4720   50.5150 C   0  0  0  0  0  0  0  0  0  0  0  0
   66.5490   33.9040   51.9090 C   0  0  0  0  0  0  0  0  0  0  0  0
   65.0380   33.7880   51.9290 C   0  0  0  0  0  0  0  0  0  0  0  0
   64.4610   33.5030   50.6850 N   0  0  0  0  0  0  0  0  0  0  0  0
   63.4050   34.2160   50.1540 C   0  0  0  0  0  0  0  0  0  0  0  0
   63.0210   34.0950   48.7340 C   0  0  0  0  0  0  0  0  0  0  0  0
   62.1990   32.9300   48.3660 C   0  0  0  0  0  0  0  0  0  0  0  0
   62.6080   31.9660   47.4450 C   0  0  0  0  0  0  0  0  0  0  0  0
   61.8100   30.8880   47.1250 C   0  0  0  0  0  0  0  0  0  0  0  0
   60.5630   30.7090   47.7010 C   0  0  0  0  0  0  0  0  0  0  0  0
   59.7940   29.5540   47.3080 C   0  0  0  0  0  0  0  0  0  0  0  0
   59.9660   28.3740   48.0210 C   0  0  0  0  0  0  0  0  0  0  0  0
   59.2370   27.2470   47.6620 C   0  0  0  0  0  0  0  0  0  0  0  0
   58.3410   27.2480   46.6180 C   0  0  0  0  0  0  0  0  0  0  0  0
   57.5850   26.1070   46.2290 N   0  0  0  0  0  0  0  0  0  0  0  0
   56.2740   26.1560   45.6820 C   0  0  0  0  0  0  0  0  0  0  0  0
   55.3970   24.9820   45.9250 C   0  0  0  0  0  0  0  0  0  0  0  0
   56.0970   23.6800   46.1910 C   0  0  0  0  0  0  0  0  0  0  0  0
   56.7580   23.1400   45.0420 N   0  0  0  0  0  0  0  0  0  0  0  0
   57.2450   21.8300   45.3420 C   0  0  0  0  0  0  0  0  0  0  0  0
   56.7120   20.7870   44.3800 C   0  0  0  0  0  0  0  0  0  0  0  0
   57.1550   21.1890   42.9930 C   0  0  0  0  0  0  0  0  0  0  0  0
   56.6290   22.5700   42.6780 C   0  0  0  0  0  0  0  0  0  0  0  0
   55.9750   23.2500   43.8500 C   0  0  0  0  0  0  0  0  0  0  0  0
   57.1930   24.0030   47.2160 C   0  0  0  0  0  0  0  0  0  0  0  0
   58.2010   24.7920   46.4030 C   0  0  0  0  0  0  0  0  0  0  0  0
   58.2060   28.4240   45.9510 N   0  0  0  0  0  0  0  0  0  0  0  0
   58.8920   29.5370   46.2650 C   0  0  0  0  0  0  0  0  0  0  0  0
   60.1510   31.6480   48.6050 C   0  0  0  0  0  0  0  0  0  0  0  0
   60.9540   32.7310   48.9280 C   0  0  0  0  0  0  0  0  0  0  0  0
   64.2807   31.3549   51.9702 H   0  0  0  0  0  0  0  0  0  0  0  0
   63.0854   31.1232   50.6495 H   0  0  0  0  0  0  0  0  0  0  0  0
   64.6170   30.1847   50.6495 H   0  0  0  0  0  0  0  0  0  0  0  0
   64.5253   32.1714   49.0395 H   0  0  0  0  0  0  0  0  0  0  0  0
   66.5987   31.4299   50.9938 H   0  0  0  0  0  0  0  0  0  0  0  0
   66.7333   31.8050   49.2252 H   0  0  0  0  0  0  0  0  0  0  0  0
   68.0723   33.3775   50.4785 H   0  0  0  0  0  0  0  0  0  0  0  0
   66.6540   34.2225   49.7785 H   0  0  0  0  0  0  0  0  0  0  0  0
   66.9943   33.2445   52.6684 H   0  0  0  0  0  0  0  0  0  0  0  0
   66.8804   34.9280   52.1361 H   0  0  0  0  0  0  0  0  0  0  0  0
   64.7644   32.9832   52.6271 H   0  0  0  0  0  0  0  0  0  0  0  0
   64.6526   34.7719   52.2346 H   0  0  0  0  0  0  0  0  0  0  0  0
   62.5170   33.9348   50.7392 H   0  0  0  0  0  0  0  0  0  0  0  0
   63.7716   35.2516   50.2091 H   0  0  0  0  0  0  0  0  0  0  0  0
   62.4564   34.9995   48.4636 H   0  0  0  0  0  0  0  0  0  0  0  0
   63.9678   33.9630   48.1898 H   0  0  0  0  0  0  0  0  0  0  0  0
   63.5911   32.0681   46.9621 H   0  0  0  0  0  0  0  0  0  0  0  0
   62.1730   30.1511   46.3934 H   0  0  0  0  0  0  0  0  0  0  0  0
   60.6732   28.3324   48.8625 H   0  0  0  0  0  0  0  0  0  0  0  0
   59.3817   26.3188   48.2342 H   0  0  0  0  0  0  0  0  0  0  0  0
   55.7712   27.0387   46.1041 H   0  0  0  0  0  0  0  0  0  0  0  0
   56.4203   26.1822   44.5921 H   0  0  0  0  0  0  0  0  0  0  0  0
   54.7655   25.2086   46.7967 H   0  0  0  0  0  0  0  0  0  0  0  0
   54.8374   24.8318   44.9900 H   0  0  0  0  0  0  0  0  0  0  0  0
   55.3496   22.9429   46.5196 H   0  0  0  0  0  0  0  0  0  0  0  0
   58.3434   21.8382   45.2828 H   0  0  0  0  0  0  0  0  0  0  0  0
   56.9006   21.5648   46.3525 H   0  0  0  0  0  0  0  0  0  0  0  0
   57.1198   19.7974   44.6336 H   0  0  0  0  0  0  0  0  0  0  0  0
   55.6151   20.7281   44.4373 H   0  0  0  0  0  0  0  0  0  0  0  0
   58.2540   21.1955   42.9464 H   0  0  0  0  0  0  0  0  0  0  0  0
   56.7617   20.4701   42.2592 H   0  0  0  0  0  0  0  0  0  0  0  0
   57.4700   23.1932   42.3399 H   0  0  0  0  0  0  0  0  0  0  0  0
   55.8569   22.4510   41.9036 H   0  0  0  0  0  0  0  0  0  0  0  0
   55.8397   24.3153   43.6116 H   0  0  0  0  0  0  0  0  0  0  0  0
   55.0093   22.7559   44.0325 H   0  0  0  0  0  0  0  0  0  0  0  0
   56.7938   24.6070   48.0441 H   0  0  0  0  0  0  0  0  0  0  0  0
   57.6231   23.1066   47.6867 H   0  0  0  0  0  0  0  0  0  0  0  0
   59.1546   24.8783   46.9445 H   0  0  0  0  0  0  0  0  0  0  0  0
   58.4324   24.3089   45.4422 H   0  0  0  0  0  0  0  0  0  0  0  0
   58.7304   30.4530   45.6777 H   0  0  0  0  0  0  0  0  0  0  0  0
   59.1664   31.5426   49.0839 H   0  0  0  0  0  0  0  0  0  0  0  0
   60.5838   33.4617   49.6622 H   0  0  0  0  0  0  0  0  0  0  0  0
  1  2  1  0
  2  3  1  0
  3  4  1  0
  4  5  1  0
  5  6  1  0
  6  7  1  0
  7  8  1  0
  8  9  1  0
  9 10  1  0
 10 11  2  0
 11 12  1  0
 12 13  2  0
 13 14  1  0
 14 15  2  0
 15 16  1  0
 16 17  2  0
 17 18  1  0
 18 19  1  0
 19 20  1  0
 20 21  1  0
 21 22  1  0
 22 23  1  0
 23 24  1  0
 24 25  1  0
 25 26  1  0
 26 27  1  0
 21 28  1  0
 28 29  1  0
 17 30  1  0
 30 31  2  0
 13 32  1  0
 32 33  2  0
  7  2  1  0
 33 10  1  0
 31 14  1  0
 29 18  1  0
 27 22  1  0
  1 34  1  0
  1 35  1  0
  1 36  1  0
  2 37  1  6
  3 38  1  0
  3 39  1  0
  4 40  1  0
  4 41  1  0
  5 42  1  0
  5 43  1  0
  6 44  1  0
  6 45  1  0
  8 46  1  0
  8 47  1  0
  9 48  1  0
  9 49  1  0
 11 50  1  0
 12 51  1  0
 15 52  1  0
 16 53  1  0
 19 54  1  0
 19 55  1  0
 20 56  1  0
 20 57  1  0
 21 58  1  0
 23 59  1  0
 23 60  1  0
 24 61  1  0
 24 62  1  0
 25 63  1  0
 25 64  1  0
 26 65  1  0
 26 66  1  0
 27 67  1  0
 27 68  1  0
 28 69  1  0
 28 70  1  0
 29 71  1  0
 29 72  1  0
 31 73  1  0
 32 74  1  0
 33 75  1  0
M  END
>  <smiles>  (30) 
CC1CCCCN1CCc1ccc(-c2ccc(N3CCC(N4CCCCC4)CC3)nc2)cc1

>  <score_type>  (30) 
oracle

>  <origin>  (30) 
adg

>  <m_score__min__energy>  (30) 
-8.4600000000000009

>  <m_primary>  (30) 
energy

$$$$
31:0
     RDKit          3D

 41 44  0  0  1  0  0  0  0  0999 V2000
   58.6510   29.9540   49.0780 O   0  0  0  0  0  0  0  0  0  0  0  0
   59.4130   30.4130   47.6860 S   0  0  0  0  0  0  0  0  0  0  0  0
   60.7340   29.3860   47.1980 C   0  0  0  0  0  0  0  0  0  0  0  0
   60.7250   28.9800   45.7540 C   0  0  0  0  0  0  0  0  0  0  0  0
   59.7080   27.9920   45.3920 C   0  0  0  0  0  0  0  0  0  0  0  0
   59.3280   27.0200   46.3270 C   0  0  0  0  0  0  0  0  0  0  0  0
   58.3590   26.0720   45.9970 C   0  0  0  0  0  0  0  0  0  0  0  0
   57.7960   26.1220   44.7380 C   0  0  0  0  0  0  0  0  0  0  0  0
   58.1560   27.0770   43.7960 C   0  0  0  0  0  0  0  0  0  0  0  0
   59.1180   28.0180   44.1240 C   0  0  0  0  0  0  0  0  0  0  0  0
   58.3700   30.9260   46.4120 C   0  0  0  0  0  0  0  0  0  0  0  0
   57.5810   30.0030   45.8340 N   0  0  0  0  0  0  0  0  0  0  0  0
   56.6990   30.2310   44.8580 C   0  0  0  0  0  0  0  0  0  0  0  0
   56.6000   31.5030   44.4230 N   0  0  0  0  0  0  0  0  0  0  0  0
   57.3650   32.4550   44.9700 C   0  0  0  0  0  0  0  0  0  0  0  0
   57.4170   34.2160   44.5950 S   0  0  0  0  0  0  0  0  0  0  0  0
   58.6770   34.5690   45.8180 C   0  0  0  0  0  0  0  0  0  0  0  0
   58.9650   33.3230   46.4190 C   0  0  0  0  0  0  0  0  0  0  0  0
   60.0470   33.3290   47.4490 C   0  0  0  0  0  0  0  0  0  0  0  0
   59.7680   33.5770   48.7750 C   0  0  0  0  0  0  0  0  0  0  0  0
   60.7750   33.5980   49.7210 C   0  0  0  0  0  0  0  0  0  0  0  0
   62.0740   33.3590   49.2800 C   0  0  0  0  0  0  0  0  0  0  0  0
   62.3420   33.1080   47.9320 C   0  0  0  0  0  0  0  0  0  0  0  0
   61.3310   33.0900   46.9980 C   0  0  0  0  0  0  0  0  0  0  0  0
   58.2850   32.2710   45.9710 C   0  0  0  0  0  0  0  0  0  0  0  0
   61.6737   29.9228   47.3951 H   0  0  0  0  0  0  0  0  0  0  0  0
   60.6300   28.4571   47.7779 H   0  0  0  0  0  0  0  0  0  0  0  0
   60.5546   29.8819   45.1478 H   0  0  0  0  0  0  0  0  0  0  0  0
   61.6972   28.5014   45.5649 H   0  0  0  0  0  0  0  0  0  0  0  0
   59.7945   27.0043   47.3230 H   0  0  0  0  0  0  0  0  0  0  0  0
   58.0515   25.3041   46.7221 H   0  0  0  0  0  0  0  0  0  0  0  0
   57.0326   25.3767   44.4702 H   0  0  0  0  0  0  0  0  0  0  0  0
   57.6834   27.0859   42.8027 H   0  0  0  0  0  0  0  0  0  0  0  0
   59.4165   28.7819   43.3910 H   0  0  0  0  0  0  0  0  0  0  0  0
   56.0856   29.4236   44.4315 H   0  0  0  0  0  0  0  0  0  0  0  0
   59.1288   35.5445   46.0508 H   0  0  0  0  0  0  0  0  0  0  0  0
   58.7288   33.7609   49.0852 H   0  0  0  0  0  0  0  0  0  0  0  0
   60.5589   33.7958   50.7813 H   0  0  0  0  0  0  0  0  0  0  0  0
   62.9020   33.3680   50.0042 H   0  0  0  0  0  0  0  0  0  0  0  0
   63.3778   32.9217   47.6118 H   0  0  0  0  0  0  0  0  0  0  0  0
   61.5370   32.8933   45.9355 H   0  0  0  0  0  0  0  0  0  0  0  0
  2  1  1  1
  2  3  1  0
  3  4  1  0
  4  5  1  0
  5  6  2  0
  6  7  1  0
  7  8  2  0
  8  9  1  0
  9 10  2  0
  2 11  1  0
 11 12  2  0
 12 13  1  0
 13 14  2  0
 14 15  1  0
 15 16  1  0
 16 17  1  0
 17 18  2  0
 18 19  1  0
 19 20  2  0
 20 21  1  0
 21 22  2  0
 22 23  1  0
 23 24  2  0
 18 25  1  0
 10  5  1  0
 25 11  1  0
 25 15  2  0
 24 19  1  0
  3 26  1  0
  3 27  1  0
  4 28  1  0
  4 29  1  0
  6 30  1  0
  7 31  1  0
  8 32  1  0
  9 33  1  0
 10 34  1  0
 13 35  1  0
 17 36  1  0
 20 37  1  0
 21 38  1  0
 22 39  1  0
 23 40  1  0
 24 41  1  0
M  CHG  2   1  -1   2   1
M  END
>  <smiles>  (31) 
[O-][S+](CCc1ccccc1)c1ncnc2scc(-c3ccccc3)c12

>  <score_type>  (31) 
oracle

>  <origin>  (31) 
adg

>  <m_score__min__energy>  (31) 
-8.6999999999999993

>  <m_primary>  (31) 
energy

$$$$
32:0
     RDKit          3D

 72 75  0  0  1  0  0  0  0  0999 V2000
   61.8520   34.1450   50.0990 C   0  0  0  0  0  0  0  0  0  0  0  0
   62.9750   34.1480   49.1360 C   0  0  0  0  0  0  0  0  0  0  0  0
   63.3980   32.9500   48.5440 N   0  0  0  0  0  0  0  0  0  0  0  0
   63.7710   33.0310   47.1350 C   0  0  0  0  0  0  0  0  0  0  0  0
   62.7590   33.8410   46.3970 C   0  0  0  0  0  0  0  0  0  0  0  0
   62.7790   31.7240   48.8470 C   0  0  0  0  0  0  0  0  0  0  0  0
   62.2330   30.8460   47.8070 C   0  0  0  0  0  0  0  0  0  0  0  0
   60.8740   30.4520   47.8320 N   0  0  0  0  0  0  0  0  0  0  0  0
   60.0180   31.0260   46.8090 C   0  0  0  0  0  0  0  0  0  0  0  0
   59.5010   32.3280   46.8070 C   0  0  0  0  0  0  0  0  0  0  0  0
   59.6540   33.3540   47.6980 C   0  0  0  0  0  0  0  0  0  0  0  0
   59.0020   34.5600   47.4110 C   0  0  0  0  0  0  0  0  0  0  0  0
   58.2670   34.6130   46.2650 C   0  0  0  0  0  0  0  0  0  0  0  0
   58.0990   33.6010   45.3560 C   0  0  0  0  0  0  0  0  0  0  0  0
   58.7570   32.3980   45.6560 C   0  0  0  0  0  0  0  0  0  0  0  0
   58.8050   31.2300   44.9870 N   0  0  0  0  0  0  0  0  0  0  0  0
   58.1400   30.9270   43.7190 C   0  0  0  0  0  0  0  0  0  0  0  0
   59.5750   30.3850   45.6860 N   0  0  0  0  0  0  0  0  0  0  0  0
   59.9210   29.0560   45.3110 C   0  0  0  0  0  0  0  0  0  0  0  0
   58.9500   28.0060   45.6820 C   0  0  0  0  0  0  0  0  0  0  0  0
   59.2710   26.8420   46.3460 C   0  0  0  0  0  0  0  0  0  0  0  0
   58.2580   25.9300   46.6740 C   0  0  0  0  0  0  0  0  0  0  0  0
   56.9690   26.2050   46.3310 C   0  0  0  0  0  0  0  0  0  0  0  0
   55.8400   25.3640   46.6540 N   0  0  0  0  0  0  0  0  0  0  0  0
   55.4600   24.4910   45.7640 C   0  0  0  0  0  0  0  0  0  0  0  0
   56.1880   23.3150   45.3570 C   0  0  0  0  0  0  0  0  0  0  0  0
   56.0730   22.9690   44.0010 C   0  0  0  0  0  0  0  0  0  0  0  0
   56.7490   21.8910   43.4880 C   0  0  0  0  0  0  0  0  0  0  0  0
   57.5400   21.1610   44.3400 C   0  0  0  0  0  0  0  0  0  0  0  0
   57.6830   21.4700   45.6960 C   0  0  0  0  0  0  0  0  0  0  0  0
   58.5130   20.6830   46.5190 O   0  0  0  0  0  0  0  0  0  0  0  0
   58.0560   19.3930   46.9070 C   0  0  0  0  0  0  0  0  0  0  0  0
   56.9890   22.5550   46.1630 C   0  0  0  0  0  0  0  0  0  0  0  0
   57.0690   22.9350   47.5040 O   0  0  0  0  0  0  0  0  0  0  0  0
   56.5990   27.3780   45.6530 C   0  0  0  0  0  0  0  0  0  0  0  0
   57.6320   28.2330   45.3580 C   0  0  0  0  0  0  0  0  0  0  0  0
   62.2488   34.1461   51.1250 H   0  0  0  0  0  0  0  0  0  0  0  0
   61.2337   35.0415   49.9440 H   0  0  0  0  0  0  0  0  0  0  0  0
   61.2385   33.2452   49.9440 H   0  0  0  0  0  0  0  0  0  0  0  0
   62.6873   34.8223   48.3159 H   0  0  0  0  0  0  0  0  0  0  0  0
   63.8360   34.4399   49.7552 H   0  0  0  0  0  0  0  0  0  0  0  0
   64.7584   33.5072   47.0442 H   0  0  0  0  0  0  0  0  0  0  0  0
   63.8110   32.0180   46.7081 H   0  0  0  0  0  0  0  0  0  0  0  0
   62.1096   34.3608   47.1168 H   0  0  0  0  0  0  0  0  0  0  0  0
   63.2718   34.5810   45.7650 H   0  0  0  0  0  0  0  0  0  0  0  0
   62.1493   33.1786   45.7650 H   0  0  0  0  0  0  0  0  0  0  0  0
   63.5276   31.1281   49.3898 H   0  0  0  0  0  0  0  0  0  0  0  0
   61.8689   32.0508   49.3714 H   0  0  0  0  0  0  0  0  0  0  0  0
   62.3934   31.3590   46.8472 H   0  0  0  0  0  0  0  0  0  0  0  0
   62.7651   29.8994   47.9823 H   0  0  0  0  0  0  0  0  0  0  0  0
   60.3860   29.8210   48.4850 H   0  0  0  0  0  0  0  0  0  0  0  0
   60.2654   33.2368   48.6049 H   0  0  0  0  0  0  0  0  0  0  0  0
   59.0801   35.4277   48.0825 H   0  0  0  0  0  0  0  0  0  0  0  0
   57.7573   35.5632   46.0475 H   0  0  0  0  0  0  0  0  0  0  0  0
   57.4878   33.7237   44.4497 H   0  0  0  0  0  0  0  0  0  0  0  0
   57.1557   30.4785   43.9192 H   0  0  0  0  0  0  0  0  0  0  0  0
   58.0098   31.8547   43.1424 H   0  0  0  0  0  0  0  0  0  0  0  0
   58.7546   30.2201   43.1424 H   0  0  0  0  0  0  0  0  0  0  0  0
   60.0389   29.0345   44.2176 H   0  0  0  0  0  0  0  0  0  0  0  0
   60.8404   28.8203   45.8670 H   0  0  0  0  0  0  0  0  0  0  0  0
   60.3157   26.6297   46.6171 H   0  0  0  0  0  0  0  0  0  0  0  0
   58.5027   24.9983   47.2050 H   0  0  0  0  0  0  0  0  0  0  0  0
   54.4902   24.6686   45.2763 H   0  0  0  0  0  0  0  0  0  0  0  0
   55.4316   23.5710   43.3405 H   0  0  0  0  0  0  0  0  0  0  0  0
   56.6598   21.6197   42.4257 H   0  0  0  0  0  0  0  0  0  0  0  0
   58.0855   20.2945   43.9380 H   0  0  0  0  0  0  0  0  0  0  0  0
   58.0327   19.3271   48.0048 H   0  0  0  0  0  0  0  0  0  0  0  0
   57.0444   19.2271   46.5081 H   0  0  0  0  0  0  0  0  0  0  0  0
   58.7376   18.6272   46.5081 H   0  0  0  0  0  0  0  0  0  0  0  0
   57.7700   22.5160   48.1080 H   0  0  0  0  0  0  0  0  0  0  0  0
   55.5565   27.5961   45.3781 H   0  0  0  0  0  0  0  0  0  0  0  0
   57.3891   29.1644   44.8255 H   0  0  0  0  0  0  0  0  0  0  0  0
  1  2  1  0
  2  3  1  0
  3  4  1  0
  4  5  1  0
  3  6  1  0
  6  7  1  0
  7  8  1  0
  8  9  1  0
  9 10  2  0
 10 11  1  0
 11 12  2  0
 12 13  1  0
 13 14  2  0
 14 15  1  0
 15 16  2  0
 16 17  1  0
 16 18  1  0
 18 19  1  0
 19 20  1  0
 20 21  2  0
 21 22  1  0
 22 23  2  0
 23 24  1  0
 24 25  2  0
 25 26  1  0
 26 27  2  0
 27 28  1  0
 28 29  2  0
 29 30  1  0
 30 31  1  0
 31 32  1  0
 30 33  2  0
 33 34  1  0
 23 35  1  0
 35 36  2  0
 18  9  1  0
 36 20  1  0
 15 10  1  0
 33 26  1  0
  1 37  1  0
  1 38  1  0
  1 39  1  0
  2 40  1  0
  2 41  1  0
  4 42  1  0
  4 43  1  0
  5 44  1  0
  5 45  1  0
  5 46  1  0
  6 47  1  0
  6 48  1  0
  7 49  1  0
  7 50  1  0
  8 51  1  0
 11 52  1  0
 12 53  1  0
 13 54  1  0
 14 55  1  0
 17 56  1  0
 17 57  1  0
 17 58  1  0
 19 59  1  0
 19 60  1  0
 21 61  1  0
 22 62  1  0
 25 63  1  0
 27 64  1  0
 28 65  1  0
 29 66  1  0
 32 67  1  0
 32 68  1  0
 32 69  1  0
 34 70  1  0
 35 71  1  0
 36 72  1  0
M  CHG  1  16   1
M  END
>  <smiles>  (32) 
CCN(CC)CCNc1c2ccccc2[n+](C)n1Cc1ccc(N=Cc2cccc(OC)c2O)cc1

>  <score_type>  (32) 
oracle

>  <origin>  (32) 
adg

>  <m_score__min__energy>  (32) 
-8.8599999999999994

>  <m_primary>  (32) 
energy

$$$$
33:0
     RDKit          3D

 50 52  0  0  0  0  0  0  0  0999 V2000
   61.8750   32.8820   50.5710 C   0  0  0  0  0  0  0  0  0  0  0  0
   61.5940   34.1480   49.9720 O   0  0  0  0  0  0  0  0  0  0  0  0
   60.9500   34.1880   48.7410 C   0  0  0  0  0  0  0  0  0  0  0  0
   59.6250   34.5510   48.5980 C   0  0  0  0  0  0  0  0  0  0  0  0
   59.0250   34.5770   47.3550 C   0  0  0  0  0  0  0  0  0  0  0  0
   59.7900   34.2290   46.2550 C   0  0  0  0  0  0  0  0  0  0  0  0
   59.2040   34.2350   44.8880 C   0  0  0  0  0  0  0  0  0  0  0  0
   57.7150   34.1610   44.8970 C   0  0  0  0  0  0  0  0  0  0  0  0
   57.3140   32.8030   45.1900 N   0  0  0  0  0  0  0  0  0  0  0  0
   57.1980   31.7830   44.2100 C   0  0  0  0  0  0  0  0  0  0  0  0
   57.4390   31.9880   43.0060 O   0  0  0  0  0  0  0  0  0  0  0  0
   56.7850   30.4370   44.5950 C   0  0  0  0  0  0  0  0  0  0  0  0
   57.6260   29.4090   45.0360 C   0  0  0  0  0  0  0  0  0  0  0  0
   56.8350   28.3140   45.2900 C   0  0  0  0  0  0  0  0  0  0  0  0
   57.1810   26.9850   45.7640 C   0  0  0  0  0  0  0  0  0  0  0  0
   58.5120   26.6730   45.9470 C   0  0  0  0  0  0  0  0  0  0  0  0
   58.9380   25.4330   46.3940 C   0  0  0  0  0  0  0  0  0  0  0  0
   58.0220   24.4490   46.6790 C   0  0  0  0  0  0  0  0  0  0  0  0
   56.6910   24.7510   46.5000 C   0  0  0  0  0  0  0  0  0  0  0  0
   56.2640   26.0010   46.0480 C   0  0  0  0  0  0  0  0  0  0  0  0
   54.9190   26.2460   45.8880 O   0  0  0  0  0  0  0  0  0  0  0  0
   54.0260   25.1910   45.6140 C   0  0  0  0  0  0  0  0  0  0  0  0
   55.6080   28.6750   45.0140 O   0  0  0  0  0  0  0  0  0  0  0  0
   55.5630   29.9060   44.6100 N   0  0  0  0  0  0  0  0  0  0  0  0
   61.1230   33.8590   46.3640 C   0  0  0  0  0  0  0  0  0  0  0  0
   61.7040   33.8420   47.6270 C   0  0  0  0  0  0  0  0  0  0  0  0
   63.0410   33.4760   47.7770 O   0  0  0  0  0  0  0  0  0  0  0  0
   63.3950   32.1520   47.3950 C   0  0  0  0  0  0  0  0  0  0  0  0
   61.8529   32.9816   51.6663 H   0  0  0  0  0  0  0  0  0  0  0  0
   61.1174   32.1501   50.2540 H   0  0  0  0  0  0  0  0  0  0  0  0
   62.8711   32.5394   50.2540 H   0  0  0  0  0  0  0  0  0  0  0  0
   59.0390   34.8235   49.4881 H   0  0  0  0  0  0  0  0  0  0  0  0
   57.9696   34.8659   47.2419 H   0  0  0  0  0  0  0  0  0  0  0  0
   59.5067   35.1626   44.3800 H   0  0  0  0  0  0  0  0  0  0  0  0
   59.5766   33.3424   44.3642 H   0  0  0  0  0  0  0  0  0  0  0  0
   57.3166   34.8377   45.6672 H   0  0  0  0  0  0  0  0  0  0  0  0
   57.3216   34.4615   43.9147 H   0  0  0  0  0  0  0  0  0  0  0  0
   57.0840   32.5100   46.1870 H   0  0  0  0  0  0  0  0  0  0  0  0
   58.7178   29.4666   45.1569 H   0  0  0  0  0  0  0  0  0  0  0  0
   59.2677   27.4419   45.7286 H   0  0  0  0  0  0  0  0  0  0  0  0
   60.0126   25.2354   46.5212 H   0  0  0  0  0  0  0  0  0  0  0  0
   58.3401   23.4585   47.0363 H   0  0  0  0  0  0  0  0  0  0  0  0
   55.9375   23.9806   46.7208 H   0  0  0  0  0  0  0  0  0  0  0  0
   53.6633   24.7626   46.5600 H   0  0  0  0  0  0  0  0  0  0  0  0
   53.1732   25.5737   45.0341 H   0  0  0  0  0  0  0  0  0  0  0  0
   54.5443   24.4132   45.0341 H   0  0  0  0  0  0  0  0  0  0  0  0
   61.7062   33.5856   45.4723 H   0  0  0  0  0  0  0  0  0  0  0  0
   63.5582   31.5418   48.2956 H   0  0  0  0  0  0  0  0  0  0  0  0
   62.5826   31.7133   46.7970 H   0  0  0  0  0  0  0  0  0  0  0  0
   64.3179   32.1773   46.7970 H   0  0  0  0  0  0  0  0  0  0  0  0
  1  2  1  0
  2  3  1  0
  3  4  2  0
  4  5  1  0
  5  6  2  0
  6  7  1  0
  7  8  1  0
  8  9  1  0
  9 10  1  0
 10 11  2  0
 10 12  1  0
 12 13  1  0
 13 14  2  0
 14 15  1  0
 15 16  2  0
 16 17  1  0
 17 18  2  0
 18 19  1  0
 19 20  2  0
 20 21  1  0
 21 22  1  0
 14 23  1  0
 23 24  1  0
  6 25  1  0
 25 26  2  0
 26 27  1  0
 27 28  1  0
 26  3  1  0
 24 12  2  0
 20 15  1  0
  1 29  1  0
  1 30  1  0
  1 31  1  0
  4 32  1  0
  5 33  1  0
  7 34  1  0
  7 35  1  0
  8 36  1  0
  8 37  1  0
  9 38  1  0
 13 39  1  0
 16 40  1  0
 17 41  1  0
 18 42  1  0
 19 43  1  0
 22 44  1  0
 22 45  1  0
 22 46  1  0
 25 47  1  0
 28 48  1  0
 28 49  1  0
 28 50  1  0
M  END
>  <smiles>  (33) 
COc1ccc(CCNC(=O)c2cc(-c3ccccc3OC)on2)cc1OC

>  <score_type>  (33) 
oracle

>  <origin>  (33) 
adg

>  <m_score__min__energy>  (33) 
-9.1500000000000004

>  <m_primary>  (33) 
energy

$$$$
34:0
     RDKit          3D

 38 39  0  0  1  0  0  0  0  0999 V2000
   60.1890   26.7230   46.6970 C   0  0  0  0  0  0  0  0  0  0  0  0
   59.5070   27.7330   47.3840 O   0  0  0  0  0  0  0  0  0  0  0  0
   59.0340   28.8250   46.7120 C   0  0  0  0  0  0  0  0  0  0  0  0
   57.8380   28.7960   46.0830 C   0  0  0  0  0  0  0  0  0  0  0  0
   57.3360   29.8600   45.4080 C   0  0  0  0  0  0  0  0  0  0  0  0
   56.1070   29.7190   44.8050 O   0  0  0  0  0  0  0  0  0  0  0  0
   55.9110   29.7030   43.4310 C   0  0  0  0  0  0  0  0  0  0  0  0
   58.0590   31.0210   45.3490 C   0  0  0  0  0  0  0  0  0  0  0  0
   57.6340   32.2270   44.6630 C   0  0  0  0  0  0  0  0  0  0  0  0
   57.7830   32.2140   43.4130 O   0  0  0  0  0  0  0  0  0  0  0  0
   57.0730   33.3920   45.3080 C   0  0  0  0  0  0  0  0  0  0  0  0
   57.7540   34.2360   46.0340 C   0  0  0  0  0  0  0  0  0  0  0  0
   59.1030   34.1800   46.4790 C   0  0  0  0  0  0  0  0  0  0  0  0
   59.2740   33.9750   47.8720 C   0  0  0  0  0  0  0  0  0  0  0  0
   60.5120   33.7870   48.4270 C   0  0  0  0  0  0  0  0  0  0  0  0
   61.6510   33.7870   47.6550 C   0  0  0  0  0  0  0  0  0  0  0  0
   63.2400   33.5510   48.3380 Cl  0  0  0  0  0  0  0  0  0  0  0  0
   61.4940   33.9790   46.3390 N   0  0  0  0  0  0  0  0  0  0  0  0
   60.2620   34.1670   45.7700 C   0  0  0  0  0  0  0  0  0  0  0  0
   59.2980   31.0390   46.0060 C   0  0  0  0  0  0  0  0  0  0  0  0
   59.7950   29.9630   46.6830 C   0  0  0  0  0  0  0  0  0  0  0  0
   61.1210   30.0270   47.3680 C   0  0  0  0  0  0  0  0  0  0  0  0
   60.6527   26.0362   47.4204 H   0  0  0  0  0  0  0  0  0  0  0  0
   59.4809   26.1667   46.0652 H   0  0  0  0  0  0  0  0  0  0  0  0
   60.9696   27.1719   46.0652 H   0  0  0  0  0  0  0  0  0  0  0  0
   57.2462   27.8695   46.1201 H   0  0  0  0  0  0  0  0  0  0  0  0
   54.8360   29.6152   43.2150 H   0  0  0  0  0  0  0  0  0  0  0  0
   56.2978   30.6357   42.9946 H   0  0  0  0  0  0  0  0  0  0  0  0
   56.4439   28.8454   42.9946 H   0  0  0  0  0  0  0  0  0  0  0  0
   55.9971   33.5806   45.1780 H   0  0  0  0  0  0  0  0  0  0  0  0
   57.1973   35.1302   46.3511 H   0  0  0  0  0  0  0  0  0  0  0  0
   58.3883   33.9668   48.5243 H   0  0  0  0  0  0  0  0  0  0  0  0
   60.5975   33.6328   49.5128 H   0  0  0  0  0  0  0  0  0  0  0  0
   60.2083   34.3153   44.6814 H   0  0  0  0  0  0  0  0  0  0  0  0
   59.8961   31.9617   45.9743 H   0  0  0  0  0  0  0  0  0  0  0  0
   60.9715   30.0198   48.4578 H   0  0  0  0  0  0  0  0  0  0  0  0
   61.7273   29.1571   47.0753 H   0  0  0  0  0  0  0  0  0  0  0  0
   61.6407   30.9513   47.0753 H   0  0  0  0  0  0  0  0  0  0  0  0
  1  2  1  0
  2  3  1  0
  3  4  2  0
  4  5  1  0
  5  6  1  0
  6  7  1  0
  5  8  2  0
  8  9  1  0
  9 10  2  0
  9 11  1  0
 11 12  2  0
 12 13  1  0
 13 14  2  0
 14 15  1  0
 15 16  2  0
 16 17  1  0
 16 18  1  0
 18 19  2  0
  8 20  1  0
 20 21  2  0
 21 22  1  0
 21  3  1  0
 19 13  1  0
  1 23  1  0
  1 24  1  0
  1 25  1  0
  4 26  1  0
  7 27  1  0
  7 28  1  0
  7 29  1  0
 11 30  1  0
 12 31  1  0
 14 32  1  0
 15 33  1  0
 19 34  1  0
 20 35  1  0
 22 36  1  0
 22 37  1  0
 22 38  1  0
M  END
>  <smiles>  (34) 
COc1cc(OC)c(C(=O)C=Cc2ccc(Cl)nc2)cc1C

>  <score_type>  (34) 
oracle

>  <origin>  (34) 
adg

>  <m_score__min__energy>  (34) 
-7.5999999999999996

>  <m_primary>  (34) 
energy

$$$$
35:0
     RDKit          3D

 63 64  0  0  0  0  0  0  0  0999 V2000
   63.4420   32.1750   47.1490 C   0  0  0  0  0  0  0  0  0  0  0  0
   62.8160   33.5130   47.2320 C   0  0  0  0  0  0  0  0  0  0  0  0
   61.4020   33.5560   47.5140 N   0  0  0  0  0  0  0  0  0  0  0  0
   61.1470   34.2190   48.7340 C   0  0  0  0  0  0  0  0  0  0  0  0
   62.2470   34.2130   49.7490 C   0  0  0  0  0  0  0  0  0  0  0  0
   60.8210   34.1950   46.3580 C   0  0  0  0  0  0  0  0  0  0  0  0
   59.6500   35.0510   46.6310 C   0  0  0  0  0  0  0  0  0  0  0  0
   58.4720   34.2730   46.5170 O   0  0  0  0  0  0  0  0  0  0  0  0
   57.7620   34.1470   45.3320 C   0  0  0  0  0  0  0  0  0  0  0  0
   56.5800   34.6030   45.1920 O   0  0  0  0  0  0  0  0  0  0  0  0
   58.3230   33.4690   44.1240 C   0  0  0  0  0  0  0  0  0  0  0  0
   58.4120   31.9800   44.2650 C   0  0  0  0  0  0  0  0  0  0  0  0
   57.0160   31.4400   44.0530 C   0  0  0  0  0  0  0  0  0  0  0  0
   56.7840   30.4090   45.0480 N   0  0  0  0  0  0  0  0  0  0  0  0
   56.9810   29.0820   44.4930 C   0  0  0  0  0  0  0  0  0  0  0  0
   57.6150   28.1520   45.4540 C   0  0  0  0  0  0  0  0  0  0  0  0
   56.9520   26.9490   45.6810 C   0  0  0  0  0  0  0  0  0  0  0  0
   57.4420   25.9980   46.5510 C   0  0  0  0  0  0  0  0  0  0  0  0
   56.5600   24.5120   46.7880 Cl  0  0  0  0  0  0  0  0  0  0  0  0
   58.6180   26.2820   47.1920 C   0  0  0  0  0  0  0  0  0  0  0  0
   59.2760   27.4780   46.9660 C   0  0  0  0  0  0  0  0  0  0  0  0
   58.8170   28.4480   46.1070 C   0  0  0  0  0  0  0  0  0  0  0  0
   59.3970   29.6350   45.8310 O   0  0  0  0  0  0  0  0  0  0  0  0
   60.3660   30.3980   46.4250 C   0  0  0  0  0  0  0  0  0  0  0  0
   60.0960   30.7320   47.8370 C   0  0  0  0  0  0  0  0  0  0  0  0
   60.8950   30.4080   48.9030 C   0  0  0  0  0  0  0  0  0  0  0  0
   60.6350   30.7410   50.2050 C   0  0  0  0  0  0  0  0  0  0  0  0
   59.4850   31.4600   50.5040 C   0  0  0  0  0  0  0  0  0  0  0  0
   58.6670   31.7980   49.4590 C   0  0  0  0  0  0  0  0  0  0  0  0
   58.9390   31.4550   48.1380 C   0  0  0  0  0  0  0  0  0  0  0  0
   58.0620   31.8400   47.1730 F   0  0  0  0  0  0  0  0  0  0  0  0
   63.6218   31.7907   48.1639 H   0  0  0  0  0  0  0  0  0  0  0  0
   62.7713   31.4891   46.6107 H   0  0  0  0  0  0  0  0  0  0  0  0
   64.3983   32.2504   46.6107 H   0  0  0  0  0  0  0  0  0  0  0  0
   63.3306   34.0718   48.0276 H   0  0  0  0  0  0  0  0  0  0  0  0
   62.9204   33.9412   46.2242 H   0  0  0  0  0  0  0  0  0  0  0  0
   60.9159   35.2687   48.5001 H   0  0  0  0  0  0  0  0  0  0  0  0
   60.3233   33.6578   49.1994 H   0  0  0  0  0  0  0  0  0  0  0  0
   61.8132   34.2154   50.7598 H   0  0  0  0  0  0  0  0  0  0  0  0
   62.8632   33.3115   49.6166 H   0  0  0  0  0  0  0  0  0  0  0  0
   62.8730   35.1077   49.6166 H   0  0  0  0  0  0  0  0  0  0  0  0
   61.5962   34.8192   45.8895 H   0  0  0  0  0  0  0  0  0  0  0  0
   60.4587   33.3820   45.7116 H   0  0  0  0  0  0  0  0  0  0  0  0
   59.7232   35.4620   47.6487 H   0  0  0  0  0  0  0  0  0  0  0  0
   59.6191   35.8793   45.9078 H   0  0  0  0  0  0  0  0  0  0  0  0
   57.6779   33.6998   43.2634 H   0  0  0  0  0  0  0  0  0  0  0  0
   59.3480   33.8442   43.9876 H   0  0  0  0  0  0  0  0  0  0  0  0
   59.0969   31.5678   43.5093 H   0  0  0  0  0  0  0  0  0  0  0  0
   58.7992   31.6985   45.2554 H   0  0  0  0  0  0  0  0  0  0  0  0
   56.2797   32.2484   44.1729 H   0  0  0  0  0  0  0  0  0  0  0  0
   56.9138   31.0259   43.0391 H   0  0  0  0  0  0  0  0  0  0  0  0
   57.4490   30.5980   45.8420 H   0  0  0  0  0  0  0  0  0  0  0  0
   56.0024   28.6735   44.2006 H   0  0  0  0  0  0  0  0  0  0  0  0
   57.6546   29.1787   43.6288 H   0  0  0  0  0  0  0  0  0  0  0  0
   56.0090   26.7512   45.1504 H   0  0  0  0  0  0  0  0  0  0  0  0
   59.0446   25.5510   47.8947 H   0  0  0  0  0  0  0  0  0  0  0  0
   60.2180   27.6627   47.5031 H   0  0  0  0  0  0  0  0  0  0  0  0
   61.3164   29.8462   46.3773 H   0  0  0  0  0  0  0  0  0  0  0  0
   60.3967   31.3509   45.8764 H   0  0  0  0  0  0  0  0  0  0  0  0
   61.8130   29.8382   48.6967 H   0  0  0  0  0  0  0  0  0  0  0  0
   61.3286   30.4427   51.0049 H   0  0  0  0  0  0  0  0  0  0  0  0
   59.2412   31.7462   51.5378 H   0  0  0  0  0  0  0  0  0  0  0  0
   57.7511   32.3679   49.6741 H   0  0  0  0  0  0  0  0  0  0  0  0
  1  2  1  0
  2  3  1  0
  3  4  1  0
  4  5  1  0
  3  6  1  0
  6  7  1  0
  7  8  1  0
  8  9  1  0
  9 10  2  0
  9 11  1  0
 11 12  1  0
 12 13  1  0
 13 14  1  0
 14 15  1  0
 15 16  1  0
 16 17  2  0
 17 18  1  0
 18 19  1  0
 18 20  2  0
 20 21  1  0
 21 22  2  0
 22 23  1  0
 23 24  1  0
 24 25  1  0
 25 26  2  0
 26 27  1  0
 27 28  2  0
 28 29  1  0
 29 30  2  0
 30 31  1  0
 22 16  1  0
 30 25  1  0
  1 32  1  0
  1 33  1  0
  1 34  1  0
  2 35  1  0
  2 36  1  0
  4 37  1  0
  4 38  1  0
  5 39  1  0
  5 40  1  0
  5 41  1  0
  6 42  1  0
  6 43  1  0
  7 44  1  0
  7 45  1  0
 11 46  1  0
 11 47  1  0
 12 48  1  0
 12 49  1  0
 13 50  1  0
 13 51  1  0
 14 52  1  0
 15 53  1  0
 15 54  1  0
 17 55  1  0
 20 56  1  0
 21 57  1  0
 24 58  1  0
 24 59  1  0
 26 60  1  0
 27 61  1  0
 28 62  1  0
 29 63  1  0
M  END
>  <smiles>  (35) 
CCN(CC)CCOC(=O)CCCNCc1cc(Cl)ccc1OCc1ccccc1F

>  <score_type>  (35) 
oracle

>  <origin>  (35) 
adg

>  <m_score__min__energy>  (35) 
-6.8099999999999996

>  <m_primary>  (35) 
energy

$$$$
36:0
     RDKit          3D

 41 42  0  0  0  0  0  0  0  0999 V2000
   57.6130   28.1680   44.0740 C   0  0  0  0  0  0  0  0  0  0  0  0
   56.7180   28.5590   45.2500 C   0  0  0  0  0  0  0  0  0  0  0  0
   55.5980   29.2920   44.8140 O   0  0  0  0  0  0  0  0  0  0  0  0
   55.9020   30.0780   43.7220 C   0  0  0  0  0  0  0  0  0  0  0  0
   56.9420   31.1070   44.0630 C   0  0  0  0  0  0  0  0  0  0  0  0
   57.4250   31.3980   45.3040 N   0  0  0  0  0  0  0  0  0  0  0  0
   58.3470   32.3810   45.2080 C   0  0  0  0  0  0  0  0  0  0  0  0
   59.1040   32.9830   46.3020 C   0  0  0  0  0  0  0  0  0  0  0  0
   59.5840   32.1810   47.3080 C   0  0  0  0  0  0  0  0  0  0  0  0
   60.2960   32.7640   48.3280 C   0  0  0  0  0  0  0  0  0  0  0  0
   60.5440   34.1410   48.3740 C   0  0  0  0  0  0  0  0  0  0  0  0
   61.2610   34.6140   49.4340 O   0  0  0  0  0  0  0  0  0  0  0  0
   62.6310   34.5150   49.6630 C   0  0  0  0  0  0  0  0  0  0  0  0
   63.3700   33.8330   48.5290 C   0  0  0  0  0  0  0  0  0  0  0  0
   62.8260   33.6350   50.9040 C   0  0  0  0  0  0  0  0  0  0  0  0
   60.0380   34.8830   47.3430 C   0  0  0  0  0  0  0  0  0  0  0  0
   59.3140   34.3470   46.2900 C   0  0  0  0  0  0  0  0  0  0  0  0
   58.4380   32.6970   43.9270 O   0  0  0  0  0  0  0  0  0  0  0  0
   57.6170   31.9590   43.2240 C   0  0  0  0  0  0  0  0  0  0  0  0
   57.3850   31.9730   41.7390 C   0  0  0  0  0  0  0  0  0  0  0  0
   58.5588   27.7548   44.4545 H   0  0  0  0  0  0  0  0  0  0  0  0
   57.1026   27.4109   43.4606 H   0  0  0  0  0  0  0  0  0  0  0  0
   57.8217   29.0569   43.4606 H   0  0  0  0  0  0  0  0  0  0  0  0
   56.3740   27.6462   45.7584 H   0  0  0  0  0  0  0  0  0  0  0  0
   57.3011   29.1890   45.9379 H   0  0  0  0  0  0  0  0  0  0  0  0
   56.2839   29.4367   42.9140 H   0  0  0  0  0  0  0  0  0  0  0  0
   54.9874   30.6004   43.4048 H   0  0  0  0  0  0  0  0  0  0  0  0
   59.4025   31.0961   47.2974 H   0  0  0  0  0  0  0  0  0  0  0  0
   60.6845   32.1270   49.1363 H   0  0  0  0  0  0  0  0  0  0  0  0
   63.0264   35.5355   49.7739 H   0  0  0  0  0  0  0  0  0  0  0  0
   64.1190   33.1418   48.9428 H   0  0  0  0  0  0  0  0  0  0  0  0
   62.6545   33.2711   47.9106 H   0  0  0  0  0  0  0  0  0  0  0  0
   63.8728   34.5912   47.9106 H   0  0  0  0  0  0  0  0  0  0  0  0
   62.6911   34.2439   51.8101 H   0  0  0  0  0  0  0  0  0  0  0  0
   62.0865   32.8207   50.8959 H   0  0  0  0  0  0  0  0  0  0  0  0
   63.8403   33.2093   50.8959 H   0  0  0  0  0  0  0  0  0  0  0  0
   60.2160   35.9685   47.3498 H   0  0  0  0  0  0  0  0  0  0  0  0
   58.9238   34.9809   45.4801 H   0  0  0  0  0  0  0  0  0  0  0  0
   56.3056   32.0381   41.5371 H   0  0  0  0  0  0  0  0  0  0  0  0
   57.8939   32.8421   41.2966 H   0  0  0  0  0  0  0  0  0  0  0  0
   57.7857   31.0490   41.2966 H   0  0  0  0  0  0  0  0  0  0  0  0
  1  2  1  0
  2  3  1  0
  3  4  1  0
  4  5  1  0
  5  6  1  0
  6  7  2  0
  7  8  1  0
  8  9  2  0
  9 10  1  0
 10 11  2  0
 11 12  1  0
 12 13  1  0
 13 14  1  0
 13 15  1  0
 11 16  1  0
 16 17  2  0
  7 18  1  0
 18 19  1  0
 19 20  1  0
 19  5  2  0
 17  8  1  0
  1 21  1  0
  1 22  1  0
  1 23  1  0
  2 24  1  0
  2 25  1  0
  4 26  1  0
  4 27  1  0
  9 28  1  0
 10 29  1  0
 13 30  1  0
 14 31  1  0
 14 32  1  0
 14 33  1  0
 15 34  1  0
 15 35  1  0
 15 36  1  0
 16 37  1  0
 17 38  1  0
 20 39  1  0
 20 40  1  0
 20 41  1  0
M  END
>  <smiles>  (36) 
CCOCc1nc(-c2ccc(OC(C)C)cc2)oc1C

>  <score_type>  (36) 
oracle

>  <origin>  (36) 
adg

>  <m_score__min__energy>  (36) 
-6.71

>  <m_primary>  (36) 
energy

$$$$
37:0
     RDKit          3D

 39 40  0  0  1  0  0  0  0  0999 V2000
   63.3620   31.7460   49.4350 C   0  0  0  0  0  0  0  0  0  0  0  0
   63.2720   33.2420   49.1120 C   0  0  1  0  0  0  0  0  0  0  0  0
   64.1850   33.5320   48.0170 N   0  0  0  0  0  0  0  0  0  0  0  0
   63.6580   32.9030   46.8040 C   0  0  0  0  0  0  0  0  0  0  0  0
   62.5190   33.8370   46.3680 C   0  0  0  0  0  0  0  0  0  0  0  0
   61.4760   33.8720   47.4520 C   0  0  0  0  0  0  0  0  0  0  0  0
   60.1520   34.1830   47.1670 C   0  0  0  0  0  0  0  0  0  0  0  0
   59.7330   34.4910   45.7750 C   0  0  0  0  0  0  0  0  0  0  0  0
   58.2840   34.2080   45.5100 C   0  0  0  0  0  0  0  0  0  0  0  0
   57.9400   32.7410   45.6340 C   0  0  0  0  0  0  0  0  0  0  0  0
   57.9020   32.1560   44.3030 N   0  0  0  0  0  0  0  0  0  0  0  0
   57.0250   31.0540   44.0100 C   0  0  0  0  0  0  0  0  0  0  0  0
   57.0060   30.4950   42.6850 N   0  0  0  0  0  0  0  0  0  0  0  0
   56.2650   30.5460   44.8620 O   0  0  0  0  0  0  0  0  0  0  0  0
   59.2830   34.1840   48.2370 C   0  0  0  0  0  0  0  0  0  0  0  0
   59.6520   33.9020   49.5210 C   0  0  0  0  0  0  0  0  0  0  0  0
   60.9570   33.5960   49.8030 C   0  0  0  0  0  0  0  0  0  0  0  0
   61.8670   33.5840   48.7510 C   0  0  0  0  0  0  0  0  0  0  0  0
   63.3704   31.6063   50.5261 H   0  0  0  0  0  0  0  0  0  0  0  0
   62.4936   31.2252   49.0053 H   0  0  0  0  0  0  0  0  0  0  0  0
   64.2866   31.3331   49.0053 H   0  0  0  0  0  0  0  0  0  0  0  0
   63.5570   33.8498   49.9834 H   0  0  0  0  0  0  0  0  0  0  0  0
   65.0930   33.0840   48.2030 H   0  0  0  0  0  0  0  0  0  0  0  0
   64.4335   32.8421   46.0262 H   0  0  0  0  0  0  0  0  0  0  0  0
   63.3182   31.8709   46.9749 H   0  0  0  0  0  0  0  0  0  0  0  0
   62.9147   34.8501   46.2033 H   0  0  0  0  0  0  0  0  0  0  0  0
   62.0724   33.4689   45.4326 H   0  0  0  0  0  0  0  0  0  0  0  0
   59.9202   35.5578   45.5830 H   0  0  0  0  0  0  0  0  0  0  0  0
   60.3172   33.8386   45.1093 H   0  0  0  0  0  0  0  0  0  0  0  0
   57.6778   34.7732   46.2332 H   0  0  0  0  0  0  0  0  0  0  0  0
   58.0721   34.5108   44.4740 H   0  0  0  0  0  0  0  0  0  0  0  0
   58.7037   32.2319   46.2403 H   0  0  0  0  0  0  0  0  0  0  0  0
   56.9607   32.6260   46.1217 H   0  0  0  0  0  0  0  0  0  0  0  0
   58.4810   32.4860   43.5110 H   0  0  0  0  0  0  0  0  0  0  0  0
   57.6970   29.7920   42.3590 H   0  0  0  0  0  0  0  0  0  0  0  0
   56.2760   30.7820   41.9870 H   0  0  0  0  0  0  0  0  0  0  0  0
   58.2275   34.4269   48.0447 H   0  0  0  0  0  0  0  0  0  0  0  0
   58.9033   33.9205   50.3267 H   0  0  0  0  0  0  0  0  0  0  0  0
   61.2758   33.3666   50.8305 H   0  0  0  0  0  0  0  0  0  0  0  0
  1  2  1  0
  2  3  1  0
  3  4  1  0
  4  5  1  0
  5  6  1  0
  6  7  2  0
  7  8  1  0
  8  9  1  0
  9 10  1  0
 10 11  1  0
 11 12  1  0
 12 13  1  0
 12 14  2  0
  7 15  1  0
 15 16  2  0
 16 17  1  0
 17 18  2  0
 18  2  1  0
 18  6  1  0
  1 19  1  0
  1 20  1  0
  1 21  1  0
  2 22  1  1
  3 23  1  0
  4 24  1  0
  4 25  1  0
  5 26  1  0
  5 27  1  0
  8 28  1  0
  8 29  1  0
  9 30  1  0
  9 31  1  0
 10 32  1  0
 10 33  1  0
 11 34  1  0
 13 35  1  0
 13 36  1  0
 15 37  1  0
 16 38  1  0
 17 39  1  0
M  END
>  <smiles>  (37) 
CC1NCCc2c(CCCNC(N)=O)cccc21

>  <score_type>  (37) 
oracle

>  <origin>  (37) 
adg

>  <m_score__min__energy>  (37) 
-7.7999999999999998

>  <m_primary>  (37) 
energy

$$$$
38:0
     RDKit          3D

 56 59  0  0  0  0  0  0  0  0999 V2000
   55.2020   25.1490   45.6930 C   0  0  0  0  0  0  0  0  0  0  0  0
   55.4320   26.4960   46.0040 O   0  0  0  0  0  0  0  0  0  0  0  0
   56.6710   27.0970   46.0750 C   0  0  0  0  0  0  0  0  0  0  0  0
   57.7100   26.5980   46.8620 C   0  0  0  0  0  0  0  0  0  0  0  0
   58.9310   27.2470   46.8920 C   0  0  0  0  0  0  0  0  0  0  0  0
   59.1470   28.4050   46.1430 C   0  0  0  0  0  0  0  0  0  0  0  0
   58.1210   28.8970   45.3660 C   0  0  0  0  0  0  0  0  0  0  0  0
   58.2410   30.1210   44.5310 C   0  0  0  0  0  0  0  0  0  0  0  0
   57.3730   31.1900   44.9280 N   0  0  0  0  0  0  0  0  0  0  0  0
   57.4010   32.1630   43.8230 C   0  0  0  0  0  0  0  0  0  0  0  0
   58.5350   33.1210   44.1030 C   0  0  0  0  0  0  0  0  0  0  0  0
   58.0000   34.1220   45.1300 C   0  0  0  0  0  0  0  0  0  0  0  0
   59.1270   34.9940   45.6420 C   0  0  0  0  0  0  0  0  0  0  0  0
   60.0530   34.1310   46.3620 N   0  0  0  0  0  0  0  0  0  0  0  0
   60.1220   34.1040   47.7810 C   0  0  0  0  0  0  0  0  0  0  0  0
   59.3990   34.8130   48.5250 O   0  0  0  0  0  0  0  0  0  0  0  0
   61.0910   33.2020   48.3960 C   0  0  0  0  0  0  0  0  0  0  0  0
   62.4100   33.5260   48.5890 C   0  0  0  0  0  0  0  0  0  0  0  0
   63.2210   32.5750   49.1840 C   0  0  0  0  0  0  0  0  0  0  0  0
   64.9110   32.9400   49.4510 Cl  0  0  0  0  0  0  0  0  0  0  0  0
   62.7810   31.3700   49.5750 N   0  0  0  0  0  0  0  0  0  0  0  0
   61.4920   31.0270   49.3980 C   0  0  0  0  0  0  0  0  0  0  0  0
   61.0620   29.7820   49.8090 C   0  0  0  0  0  0  0  0  0  0  0  0
   59.7470   29.4220   49.6340 C   0  0  0  0  0  0  0  0  0  0  0  0
   58.8660   30.3060   49.0480 C   0  0  0  0  0  0  0  0  0  0  0  0
   59.3300   31.5520   48.6450 C   0  0  0  0  0  0  0  0  0  0  0  0
   60.6370   31.9500   48.8040 C   0  0  0  0  0  0  0  0  0  0  0  0
   57.3560   33.3000   46.2140 C   0  0  0  0  0  0  0  0  0  0  0  0
   57.7740   31.8420   46.1500 C   0  0  0  0  0  0  0  0  0  0  0  0
   56.8860   28.2410   45.3370 C   0  0  0  0  0  0  0  0  0  0  0  0
   55.1031   24.5697   46.6229 H   0  0  0  0  0  0  0  0  0  0  0  0
   54.2759   25.0612   45.1060 H   0  0  0  0  0  0  0  0  0  0  0  0
   56.0465   24.7588   45.1060 H   0  0  0  0  0  0  0  0  0  0  0  0
   57.5576   25.6870   47.4594 H   0  0  0  0  0  0  0  0  0  0  0  0
   59.7435   26.8449   47.5150 H   0  0  0  0  0  0  0  0  0  0  0  0
   60.1204   28.9164   46.1726 H   0  0  0  0  0  0  0  0  0  0  0  0
   59.2793   30.4792   44.5911 H   0  0  0  0  0  0  0  0  0  0  0  0
   57.9466   29.8373   43.5098 H   0  0  0  0  0  0  0  0  0  0  0  0
   57.5722   31.6446   42.8681 H   0  0  0  0  0  0  0  0  0  0  0  0
   56.4438   32.7001   43.7501 H   0  0  0  0  0  0  0  0  0  0  0  0
   59.4003   32.5793   44.5126 H   0  0  0  0  0  0  0  0  0  0  0  0
   58.8703   33.6266   43.1854 H   0  0  0  0  0  0  0  0  0  0  0  0
   57.2612   34.8145   44.7002 H   0  0  0  0  0  0  0  0  0  0  0  0
   59.6418   35.4768   44.7983 H   0  0  0  0  0  0  0  0  0  0  0  0
   58.7381   35.7830   46.3025 H   0  0  0  0  0  0  0  0  0  0  0  0
   60.7000   33.4990   45.8160 H   0  0  0  0  0  0  0  0  0  0  0  0
   62.8081   34.5046   48.2825 H   0  0  0  0  0  0  0  0  0  0  0  0
   61.7691   29.0800   50.2751 H   0  0  0  0  0  0  0  0  0  0  0  0
   59.3984   28.4311   49.9606 H   0  0  0  0  0  0  0  0  0  0  0  0
   57.8116   30.0289   48.9018 H   0  0  0  0  0  0  0  0  0  0  0  0
   58.6207   32.2512   48.1781 H   0  0  0  0  0  0  0  0  0  0  0  0
   57.6490   33.7103   47.1916 H   0  0  0  0  0  0  0  0  0  0  0  0
   56.2662   33.3464   46.0719 H   0  0  0  0  0  0  0  0  0  0  0  0
   58.8696   31.7884   46.2318 H   0  0  0  0  0  0  0  0  0  0  0  0
   57.2722   31.3210   46.9787 H   0  0  0  0  0  0  0  0  0  0  0  0
   56.0733   28.6446   44.7152 H   0  0  0  0  0  0  0  0  0  0  0  0
  1  2  1  0
  2  3  1  0
  3  4  2  0
  4  5  1  0
  5  6  2  0
  6  7  1  0
  7  8  1  0
  8  9  1  0
  9 10  1  0
 10 11  1  0
 11 12  1  0
 12 13  1  0
 13 14  1  0
 14 15  1  0
 15 16  2  0
 15 17  1  0
 17 18  2  0
 18 19  1  0
 19 20  1  0
 19 21  2  0
 21 22  1  0
 22 23  2  0
 23 24  1  0
 24 25  2  0
 25 26  1  0
 26 27  2  0
 12 28  1  0
 28 29  1  0
  7 30  2  0
 30  3  1  0
 29  9  1  0
 27 17  1  0
 27 22  1  0
  1 31  1  0
  1 32  1  0
  1 33  1  0
  4 34  1  0
  5 35  1  0
  6 36  1  0
  8 37  1  0
  8 38  1  0
 10 39  1  0
 10 40  1  0
 11 41  1  0
 11 42  1  0
 12 43  1  0
 13 44  1  0
 13 45  1  0
 14 46  1  0
 18 47  1  0
 23 48  1  0
 24 49  1  0
 25 50  1  0
 26 51  1  0
 28 52  1  0
 28 53  1  0
 29 54  1  0
 29 55  1  0
 30 56  1  0
M  END
>  <smiles>  (38) 
COc1cccc(CN2CCC(CNC(=O)c3cc(Cl)nc4ccccc34)CC2)c1

>  <score_type>  (38) 
oracle

>  <origin>  (38) 
adg

>  <m_score__min__energy>  (38) 
-10.289999999999999

>  <m_primary>  (38) 
energy

$$$$
39:0
     RDKit          3D

 52 54  0  0  0  0  0  0  0  0999 V2000
   57.6230   31.8430   51.4380 C   0  0  0  0  0  0  0  0  0  0  0  0
   58.2930   31.8530   50.1040 C   0  0  0  0  0  0  0  0  0  0  0  0
   59.0680   30.7130   49.8620 O   0  0  0  0  0  0  0  0  0  0  0  0
   59.5070   30.3540   48.6160 C   0  0  0  0  0  0  0  0  0  0  0  0
   59.0420   29.2280   47.9920 C   0  0  0  0  0  0  0  0  0  0  0  0
   59.4740   28.8490   46.7290 C   0  0  0  0  0  0  0  0  0  0  0  0
   60.4010   29.6580   46.1170 C   0  0  0  0  0  0  0  0  0  0  0  0
   60.8700   30.8000   46.7570 C   0  0  0  0  0  0  0  0  0  0  0  0
   60.4580   31.1940   48.0020 C   0  0  0  0  0  0  0  0  0  0  0  0
   60.8500   32.2800   48.6990 O   0  0  0  0  0  0  0  0  0  0  0  0
   61.5530   33.4250   48.3770 C   0  0  0  0  0  0  0  0  0  0  0  0
   61.2080   34.0540   47.0590 C   0  0  0  0  0  0  0  0  0  0  0  0
   59.9390   34.7610   47.0740 N   0  0  0  0  0  0  0  0  0  0  0  0
   59.6330   35.2090   45.7600 C   0  0  0  0  0  0  0  0  0  0  0  0
   59.3200   34.1020   44.7950 C   0  0  0  0  0  0  0  0  0  0  0  0
   58.2620   33.2930   45.3930 N   0  0  0  0  0  0  0  0  0  0  0  0
   57.7680   32.2230   44.5980 C   0  0  0  0  0  0  0  0  0  0  0  0
   57.3980   31.0440   45.2130 C   0  0  0  0  0  0  0  0  0  0  0  0
   56.9090   29.9660   44.4660 C   0  0  0  0  0  0  0  0  0  0  0  0
   56.7790   30.0440   43.0970 C   0  0  0  0  0  0  0  0  0  0  0  0
   56.2900   28.9850   42.2880 N   0  0  0  0  0  0  0  0  0  0  0  0
   57.1470   31.2200   42.4820 C   0  0  0  0  0  0  0  0  0  0  0  0
   57.6300   32.2820   43.2300 C   0  0  0  0  0  0  0  0  0  0  0  0
   57.7990   33.6130   46.7090 C   0  0  0  0  0  0  0  0  0  0  0  0
   58.9220   33.9310   47.6650 C   0  0  0  0  0  0  0  0  0  0  0  0
   58.3851   31.8544   52.2312 H   0  0  0  0  0  0  0  0  0  0  0  0
   56.9817   32.7317   51.5329 H   0  0  0  0  0  0  0  0  0  0  0  0
   57.0085   30.9356   51.5329 H   0  0  0  0  0  0  0  0  0  0  0  0
   57.5187   31.9198   49.3256 H   0  0  0  0  0  0  0  0  0  0  0  0
   58.9735   32.7171   50.0892 H   0  0  0  0  0  0  0  0  0  0  0  0
   58.3003   28.6020   48.5096 H   0  0  0  0  0  0  0  0  0  0  0  0
   59.0914   27.9413   46.2394 H   0  0  0  0  0  0  0  0  0  0  0  0
   60.7743   29.4007   45.1148 H   0  0  0  0  0  0  0  0  0  0  0  0
   61.6126   31.4209   46.2345 H   0  0  0  0  0  0  0  0  0  0  0  0
   61.3658   34.1689   49.1653 H   0  0  0  0  0  0  0  0  0  0  0  0
   62.6055   33.1161   48.2943 H   0  0  0  0  0  0  0  0  0  0  0  0
   62.0021   34.7677   46.7943 H   0  0  0  0  0  0  0  0  0  0  0  0
   61.1191   33.2409   46.3235 H   0  0  0  0  0  0  0  0  0  0  0  0
   58.7600   35.8759   45.8164 H   0  0  0  0  0  0  0  0  0  0  0  0
   60.5310   35.7181   45.3800 H   0  0  0  0  0  0  0  0  0  0  0  0
   58.9775   34.5222   43.8379 H   0  0  0  0  0  0  0  0  0  0  0  0
   60.2138   33.4917   44.5983 H   0  0  0  0  0  0  0  0  0  0  0  0
   57.4887   30.9503   46.3052 H   0  0  0  0  0  0  0  0  0  0  0  0
   56.6228   29.0380   44.9826 H   0  0  0  0  0  0  0  0  0  0  0  0
   55.6340   29.2150   41.5100 H   0  0  0  0  0  0  0  0  0  0  0  0
   56.5750   27.9780   42.4570 H   0  0  0  0  0  0  0  0  0  0  0  0
   57.0570   31.3170   41.3900 H   0  0  0  0  0  0  0  0  0  0  0  0
   57.9143   33.2086   42.7098 H   0  0  0  0  0  0  0  0  0  0  0  0
   57.1347   34.4874   46.6445 H   0  0  0  0  0  0  0  0  0  0  0  0
   57.2742   32.7283   47.0986 H   0  0  0  0  0  0  0  0  0  0  0  0
   58.5036   34.4549   48.5370 H   0  0  0  0  0  0  0  0  0  0  0  0
   59.3948   32.9793   47.9492 H   0  0  0  0  0  0  0  0  0  0  0  0
  1  2  1  0
  2  3  1  0
  3  4  1  0
  4  5  2  0
  5  6  1  0
  6  7  2  0
  7  8  1  0
  8  9  2  0
  9 10  1  0
 10 11  1  0
 11 12  1  0
 12 13  1  0
 13 14  1  0
 14 15  1  0
 15 16  1  0
 16 17  1  0
 17 18  2  0
 18 19  1  0
 19 20  2  0
 20 21  1  0
 20 22  1  0
 22 23  2  0
 16 24  1  0
 24 25  1  0
  9  4  1  0
 25 13  1  0
 23 17  1  0
  1 26  1  0
  1 27  1  0
  1 28  1  0
  2 29  1  0
  2 30  1  0
  5 31  1  0
  6 32  1  0
  7 33  1  0
  8 34  1  0
 11 35  1  0
 11 36  1  0
 12 37  1  0
 12 38  1  0
 14 39  1  0
 14 40  1  0
 15 41  1  0
 15 42  1  0
 18 43  1  0
 19 44  1  0
 21 45  1  0
 21 46  1  0
 22 47  1  0
 23 48  1  0
 24 49  1  0
 24 50  1  0
 25 51  1  0
 25 52  1  0
M  END
>  <smiles>  (39) 
CCOc1ccccc1OCCN1CCN(c2ccc(N)cc2)CC1

>  <score_type>  (39) 
oracle

>  <origin>  (39) 
adg

>  <m_score__min__energy>  (39) 
-7.3499999999999996

>  <m_primary>  (39) 
energy

$$$$
40:0
     RDKit          3D

 37 39  0  0  1  0  0  0  0  0999 V2000
   55.1800   29.3390   44.7500 O   0  0  0  0  0  0  0  0  0  0  0  0
   56.3000   29.6450   44.2690 C   0  0  0  0  0  0  0  0  0  0  0  0
   57.3970   28.6300   44.0970 C   0  0  0  0  0  0  0  0  0  0  0  0
   58.4010   28.7330   45.1630 C   0  0  0  0  0  0  0  0  0  0  0  0
   59.6490   29.2510   44.8860 C   0  0  0  0  0  0  0  0  0  0  0  0
   60.6260   29.3720   45.8380 C   0  0  0  0  0  0  0  0  0  0  0  0
   60.3850   28.9640   47.1520 C   0  0  0  0  0  0  0  0  0  0  0  0
   59.1410   28.4430   47.4480 C   0  0  0  0  0  0  0  0  0  0  0  0
   58.1730   28.3310   46.4700 C   0  0  0  0  0  0  0  0  0  0  0  0
   56.5700   30.9800   43.8690 N   0  0  0  0  0  0  0  0  0  0  0  0
   57.2470   31.7290   44.6740 C   0  0  0  0  0  0  0  0  0  0  0  0
   57.4670   31.6950   45.9740 N   0  0  0  0  0  0  0  0  0  0  0  0
   58.1980   32.5960   46.4910 N   0  0  0  0  0  0  0  0  0  0  0  0
   58.7560   33.5460   45.9110 C   0  0  0  0  0  0  0  0  0  0  0  0
   59.6190   34.7060   46.1760 C   0  0  0  0  0  0  0  0  0  0  0  0
   60.7360   34.2700   47.0230 C   0  0  0  0  0  0  0  0  0  0  0  0
   60.6810   34.2690   48.4090 C   0  0  0  0  0  0  0  0  0  0  0  0
   61.7900   33.8380   49.1210 C   0  0  0  0  0  0  0  0  0  0  0  0
   62.9390   33.4110   48.4580 C   0  0  0  0  0  0  0  0  0  0  0  0
   64.0060   32.9950   49.1840 F   0  0  0  0  0  0  0  0  0  0  0  0
   63.0010   33.4080   47.0840 C   0  0  0  0  0  0  0  0  0  0  0  0
   64.0940   33.0030   46.3940 F   0  0  0  0  0  0  0  0  0  0  0  0
   61.8920   33.8400   46.3880 C   0  0  0  0  0  0  0  0  0  0  0  0
   58.1730   33.1900   44.1380 S   0  0  0  0  0  0  0  0  0  0  0  0
   56.9570   27.6220   44.1173 H   0  0  0  0  0  0  0  0  0  0  0  0
   57.8955   28.8220   43.1354 H   0  0  0  0  0  0  0  0  0  0  0  0
   59.8683   29.5800   43.8595 H   0  0  0  0  0  0  0  0  0  0  0  0
   61.6055   29.7926   45.5665 H   0  0  0  0  0  0  0  0  0  0  0  0
   61.1613   29.0548   47.9261 H   0  0  0  0  0  0  0  0  0  0  0  0
   58.9189   28.1137   48.4738 H   0  0  0  0  0  0  0  0  0  0  0  0
   57.1919   27.9104   46.7357 H   0  0  0  0  0  0  0  0  0  0  0  0
   57.0240   30.9060   46.5700 H   0  0  0  0  0  0  0  0  0  0  0  0
   60.0064   35.1051   45.2270 H   0  0  0  0  0  0  0  0  0  0  0  0
   59.0453   35.4950   46.6844 H   0  0  0  0  0  0  0  0  0  0  0  0
   59.7741   34.6040   48.9337 H   0  0  0  0  0  0  0  0  0  0  0  0
   61.7626   33.8331   50.2206 H   0  0  0  0  0  0  0  0  0  0  0  0
   61.9251   33.8438   45.2885 H   0  0  0  0  0  0  0  0  0  0  0  0
  1  2  2  0
  2  3  1  0
  3  4  1  0
  4  5  2  0
  5  6  1  0
  6  7  2  0
  7  8  1  0
  8  9  2  0
  2 10  1  0
 10 11  2  0
 11 12  1  0
 12 13  1  0
 13 14  2  0
 14 15  1  0
 15 16  1  0
 16 17  2  0
 17 18  1  0
 18 19  2  0
 19 20  1  0
 19 21  1  0
 21 22  1  0
 21 23  2  0
 14 24  1  0
  9  4  1  0
 24 11  1  0
 23 16  1  0
  3 25  1  0
  3 26  1  0
  5 27  1  0
  6 28  1  0
  7 29  1  0
  8 30  1  0
  9 31  1  0
 12 32  1  0
 15 33  1  0
 15 34  1  0
 17 35  1  0
 18 36  1  0
 23 37  1  0
M  END
>  <smiles>  (40) 
O=C(Cc1ccccc1)N=c1[nH]nc(Cc2ccc(F)c(F)c2)s1

>  <score_type>  (40) 
oracle

>  <origin>  (40) 
adg

>  <m_score__min__energy>  (40) 
-9.3300000000000001

>  <m_primary>  (40) 
energy

$$$$
41:0
     RDKit          3D

 49 52  0  0  0  0  0  0  0  0999 V2000
   64.2550   31.6020   50.4680 C   0  0  0  0  0  0  0  0  0  0  0  0
   64.5210   32.6660   49.4280 C   0  0  0  0  0  0  0  0  0  0  0  0
   63.4170   32.9680   48.5880 N   0  0  0  0  0  0  0  0  0  0  0  0
   63.6460   32.8200   47.1920 C   0  0  0  0  0  0  0  0  0  0  0  0
   63.0220   33.8560   46.3100 C   0  0  0  0  0  0  0  0  0  0  0  0
   62.5600   34.0350   48.9650 C   0  0  0  0  0  0  0  0  0  0  0  0
   61.7340   33.8370   50.1880 C   0  0  0  0  0  0  0  0  0  0  0  0
   60.3160   34.1430   49.9390 N   0  0  0  0  0  0  0  0  0  0  0  0
   59.7250   33.8590   48.6800 C   0  0  0  0  0  0  0  0  0  0  0  0
   59.4260   34.9020   47.8320 C   0  0  0  0  0  0  0  0  0  0  0  0
   58.8500   34.5990   46.6120 C   0  0  0  0  0  0  0  0  0  0  0  0
   58.5860   33.2850   46.2600 C   0  0  0  0  0  0  0  0  0  0  0  0
   58.8970   32.2460   47.1290 C   0  0  0  0  0  0  0  0  0  0  0  0
   59.4740   32.5460   48.3540 C   0  0  0  0  0  0  0  0  0  0  0  0
   58.6340   30.8530   46.7880 C   0  0  0  0  0  0  0  0  0  0  0  0
   58.9430   29.8700   47.6490 N   0  0  0  0  0  0  0  0  0  0  0  0
   58.7150   28.5530   47.3750 C   0  0  0  0  0  0  0  0  0  0  0  0
   58.1460   28.1680   46.1760 C   0  0  0  0  0  0  0  0  0  0  0  0
   57.8150   29.1790   45.2650 C   0  0  0  0  0  0  0  0  0  0  0  0
   57.2460   28.9070   44.0430 C   0  0  0  0  0  0  0  0  0  0  0  0
   56.9080   29.8810   43.1210 C   0  0  0  0  0  0  0  0  0  0  0  0
   57.1500   31.2170   43.4250 C   0  0  0  0  0  0  0  0  0  0  0  0
   57.7170   31.5120   44.6360 C   0  0  0  0  0  0  0  0  0  0  0  0
   58.0580   30.5200   45.5670 C   0  0  0  0  0  0  0  0  0  0  0  0
   57.9770   32.9280   44.9710 C   0  0  0  0  0  0  0  0  0  0  0  0
   57.6840   33.8420   44.1630 O   0  0  0  0  0  0  0  0  0  0  0  0
   64.3635   32.0362   51.4728 H   0  0  0  0  0  0  0  0  0  0  0  0
   63.2326   31.2156   50.3440 H   0  0  0  0  0  0  0  0  0  0  0  0
   64.9753   30.7799   50.3440 H   0  0  0  0  0  0  0  0  0  0  0  0
   64.8160   33.5883   49.9500 H   0  0  0  0  0  0  0  0  0  0  0  0
   65.3087   32.2671   48.7719 H   0  0  0  0  0  0  0  0  0  0  0  0
   64.7329   32.8464   47.0248 H   0  0  0  0  0  0  0  0  0  0  0  0
   63.1700   31.8683   46.9132 H   0  0  0  0  0  0  0  0  0  0  0  0
   62.5539   34.6332   46.9319 H   0  0  0  0  0  0  0  0  0  0  0  0
   63.7962   34.3114   45.6750 H   0  0  0  0  0  0  0  0  0  0  0  0
   62.2574   33.3846   45.6750 H   0  0  0  0  0  0  0  0  0  0  0  0
   63.1878   34.9233   49.1285 H   0  0  0  0  0  0  0  0  0  0  0  0
   61.8358   34.1250   48.1419 H   0  0  0  0  0  0  0  0  0  0  0  0
   61.8216   32.7896   50.5123 H   0  0  0  0  0  0  0  0  0  0  0  0
   62.1022   34.5212   50.9666 H   0  0  0  0  0  0  0  0  0  0  0  0
   59.7640   34.5770   50.7270 H   0  0  0  0  0  0  0  0  0  0  0  0
   59.6386   35.9432   48.1162 H   0  0  0  0  0  0  0  0  0  0  0  0
   58.5985   35.4102   45.9130 H   0  0  0  0  0  0  0  0  0  0  0  0
   59.7288   31.7410   49.0590 H   0  0  0  0  0  0  0  0  0  0  0  0
   58.9874   27.7885   48.1175 H   0  0  0  0  0  0  0  0  0  0  0  0
   57.9602   27.1085   45.9460 H   0  0  0  0  0  0  0  0  0  0  0  0
   57.0487   27.8562   43.7844 H   0  0  0  0  0  0  0  0  0  0  0  0
   56.4533   29.6027   42.1588 H   0  0  0  0  0  0  0  0  0  0  0  0
   56.8929   32.0143   42.7121 H   0  0  0  0  0  0  0  0  0  0  0  0
  1  2  1  0
  2  3  1  0
  3  4  1  0
  4  5  1  0
  3  6  1  0
  6  7  1  0
  7  8  1  0
  8  9  1  0
  9 10  2  0
 10 11  1  0
 11 12  2  0
 12 13  1  0
 13 14  2  0
 13 15  1  0
 15 16  2  0
 16 17  1  0
 17 18  2  0
 18 19  1  0
 19 20  2  0
 20 21  1  0
 21 22  2  0
 22 23  1  0
 23 24  2  0
 23 25  1  0
 25 26  2  0
 14  9  1  0
 24 15  1  0
 25 12  1  0
 24 19  1  0
  1 27  1  0
  1 28  1  0
  1 29  1  0
  2 30  1  0
  2 31  1  0
  4 32  1  0
  4 33  1  0
  5 34  1  0
  5 35  1  0
  5 36  1  0
  6 37  1  0
  6 38  1  0
  7 39  1  0
  7 40  1  0
  8 41  1  0
 10 42  1  0
 11 43  1  0
 14 44  1  0
 17 45  1  0
 18 46  1  0
 20 47  1  0
 21 48  1  0
 22 49  1  0
M  END
>  <smiles>  (41) 
CCN(CC)CCNc1ccc2c(c1)-c1nccc3cccc(c13)C2=O

>  <score_type>  (41) 
oracle

>  <origin>  (41) 
adg

>  <m_score__min__energy>  (41) 
-8.0999999999999996

>  <m_primary>  (41) 
energy

$$$$
42:0
     RDKit          3D

 50 52  0  0  1  0  0  0  0  0999 V2000
   51.5550   24.1310   44.5530 C   0  0  0  0  0  0  0  0  0  0  0  0
   52.9520   24.1830   45.1330 C   0  0  0  0  0  0  0  0  0  0  0  0
   53.6110   22.9850   44.7650 O   0  0  0  0  0  0  0  0  0  0  0  0
   54.9820   22.9400   44.5810 C   0  0  0  0  0  0  0  0  0  0  0  0
   55.5200   22.5020   43.5360 O   0  0  0  0  0  0  0  0  0  0  0  0
   55.8070   23.4130   45.6250 N   0  0  0  0  0  0  0  0  0  0  0  0
   57.2410   23.4320   45.5840 C   0  0  1  0  0  0  0  0  0  0  0  0
   57.8680   22.1080   45.9300 C   0  0  0  0  0  0  0  0  0  0  0  0
   57.7630   23.9120   44.2290 C   0  0  0  0  0  0  0  0  0  0  0  0
   57.7650   25.3990   44.2080 C   0  0  0  0  0  0  0  0  0  0  0  0
   57.7580   26.0950   45.4120 C   0  0  0  0  0  0  0  0  0  0  0  0
   57.7610   27.4690   45.3820 C   0  0  0  0  0  0  0  0  0  0  0  0
   57.7700   28.1500   44.1830 C   0  0  0  0  0  0  0  0  0  0  0  0
   57.7730   29.6340   44.1610 C   0  0  1  0  0  0  0  0  0  0  0  0
   56.3760   30.1020   44.4270 C   0  0  0  0  0  0  0  0  0  0  0  0
   56.2980   31.5150   44.5600 O   0  0  0  0  0  0  0  0  0  0  0  0
   57.3380   32.1670   45.2120 C   0  0  0  0  0  0  0  0  0  0  0  0
   57.1700   33.4790   45.5290 C   0  0  0  0  0  0  0  0  0  0  0  0
   58.1460   34.2220   46.1790 C   0  0  0  0  0  0  0  0  0  0  0  0
   59.3200   33.5930   46.5060 C   0  0  0  0  0  0  0  0  0  0  0  0
   59.5010   32.2560   46.1850 C   0  0  0  0  0  0  0  0  0  0  0  0
   58.5260   31.5470   45.5460 C   0  0  0  0  0  0  0  0  0  0  0  0
   58.7460   30.1200   45.2150 C   0  0  0  0  0  0  0  0  0  0  0  0
   57.7780   27.4930   42.9760 C   0  0  0  0  0  0  0  0  0  0  0  0
   57.7760   26.1020   43.0050 C   0  0  0  0  0  0  0  0  0  0  0  0
   50.8194   24.1036   45.3704 H   0  0  0  0  0  0  0  0  0  0  0  0
   51.3817   25.0233   43.9335 H   0  0  0  0  0  0  0  0  0  0  0  0
   51.4485   23.2283   43.9335 H   0  0  0  0  0  0  0  0  0  0  0  0
   53.4947   25.0498   44.7279 H   0  0  0  0  0  0  0  0  0  0  0  0
   52.9133   24.2831   46.2278 H   0  0  0  0  0  0  0  0  0  0  0  0
   55.3570   23.7850   46.5110 H   0  0  0  0  0  0  0  0  0  0  0  0
   57.5405   24.1497   46.3619 H   0  0  0  0  0  0  0  0  0  0  0  0
   57.9187   22.0009   47.0236 H   0  0  0  0  0  0  0  0  0  0  0  0
   57.2600   21.2934   45.5096 H   0  0  0  0  0  0  0  0  0  0  0  0
   58.8835   22.0622   45.5096 H   0  0  0  0  0  0  0  0  0  0  0  0
   58.7868   23.5400   44.0757 H   0  0  0  0  0  0  0  0  0  0  0  0
   57.1153   23.5306   43.4258 H   0  0  0  0  0  0  0  0  0  0  0  0
   57.7502   25.5557   46.3707 H   0  0  0  0  0  0  0  0  0  0  0  0
   57.7562   28.0327   46.3266 H   0  0  0  0  0  0  0  0  0  0  0  0
   58.0935   30.0352   43.1882 H   0  0  0  0  0  0  0  0  0  0  0  0
   55.7327   29.7890   43.5914 H   0  0  0  0  0  0  0  0  0  0  0  0
   56.0458   29.6553   45.3764 H   0  0  0  0  0  0  0  0  0  0  0  0
   56.2235   33.9706   45.2597 H   0  0  0  0  0  0  0  0  0  0  0  0
   57.9829   35.2819   46.4241 H   0  0  0  0  0  0  0  0  0  0  0  0
   60.1170   34.1482   47.0222 H   0  0  0  0  0  0  0  0  0  0  0  0
   60.4459   31.7591   46.4499 H   0  0  0  0  0  0  0  0  0  0  0  0
   59.7718   29.9954   44.8380 H   0  0  0  0  0  0  0  0  0  0  0  0
   58.5874   29.5274   46.1280 H   0  0  0  0  0  0  0  0  0  0  0  0
   57.7857   28.0450   42.0246 H   0  0  0  0  0  0  0  0  0  0  0  0
   57.7833   25.5446   42.0567 H   0  0  0  0  0  0  0  0  0  0  0  0
  1  2  1  0
  2  3  1  0
  3  4  1  0
  4  5  2  0
  4  6  1  0
  6  7  1  0
  7  8  1  0
  7  9  1  0
  9 10  1  0
 10 11  2  0
 11 12  1  0
 12 13  2  0
 13 14  1  0
 14 15  1  0
 15 16  1  0
 16 17  1  0
 17 18  2  0
 18 19  1  0
 19 20  2  0
 20 21  1  0
 21 22  2  0
 22 23  1  0
 13 24  1  0
 24 25  2  0
 25 10  1  0
 23 14  1  0
 22 17  1  0
  1 26  1  0
  1 27  1  0
  1 28  1  0
  2 29  1  0
  2 30  1  0
  6 31  1  0
  7 32  1  1
  8 33  1  0
  8 34  1  0
  8 35  1  0
  9 36  1  0
  9 37  1  0
 11 38  1  0
 12 39  1  0
 14 40  1  6
 15 41  1  0
 15 42  1  0
 18 43  1  0
 19 44  1  0
 20 45  1  0
 21 46  1  0
 23 47  1  0
 23 48  1  0
 24 49  1  0
 25 50  1  0
M  END
>  <smiles>  (42) 
CCOC(=O)NC(C)Cc1ccc(C2COc3ccccc3C2)cc1

>  <score_type>  (42) 
oracle

>  <origin>  (42) 
adg

>  <m_score__min__energy>  (42) 
-8.8200000000000003

>  <m_primary>  (42) 
energy

$$$$
43:0
     RDKit          3D

 36 38  0  0  0  0  0  0  0  0999 V2000
   57.7820   26.0410   44.0690 C   0  0  0  0  0  0  0  0  0  0  0  0
   57.5830   26.5420   45.3530 O   0  0  0  0  0  0  0  0  0  0  0  0
   58.3830   27.4190   46.0410 C   0  0  0  0  0  0  0  0  0  0  0  0
   59.0040   27.1290   47.2410 C   0  0  0  0  0  0  0  0  0  0  0  0
   59.8060   28.0430   47.9070 C   0  0  0  0  0  0  0  0  0  0  0  0
   60.0190   29.3020   47.3840 C   0  0  0  0  0  0  0  0  0  0  0  0
   61.1020   30.6090   48.2330 Br  0  0  0  0  0  0  0  0  0  0  0  0
   59.4080   29.6090   46.1860 C   0  0  0  0  0  0  0  0  0  0  0  0
   58.6000   28.6800   45.5230 C   0  0  0  0  0  0  0  0  0  0  0  0
   58.0310   29.1270   44.2970 N   0  0  0  0  0  0  0  0  0  0  0  0
   56.6380   29.3950   44.1830 C   0  0  0  0  0  0  0  0  0  0  0  0
   55.8980   29.2330   45.1920 O   0  0  0  0  0  0  0  0  0  0  0  0
   56.0070   29.8610   42.9180 C   0  0  0  0  0  0  0  0  0  0  0  0
   57.0290   31.2210   42.2850 S   0  0  0  0  0  0  0  0  0  0  0  0
   57.6710   32.1800   43.6450 C   0  0  0  0  0  0  0  0  0  0  0  0
   57.3350   32.0320   44.9480 N   0  0  0  0  0  0  0  0  0  0  0  0
   58.0180   32.9270   45.6900 C   0  0  0  0  0  0  0  0  0  0  0  0
   58.0650   33.2190   47.0470 C   0  0  0  0  0  0  0  0  0  0  0  0
   58.9080   34.2380   47.4770 C   0  0  0  0  0  0  0  0  0  0  0  0
   59.6810   34.9450   46.5770 C   0  0  0  0  0  0  0  0  0  0  0  0
   59.6310   34.6490   45.2200 C   0  0  0  0  0  0  0  0  0  0  0  0
   58.7920   33.6370   44.8010 C   0  0  0  0  0  0  0  0  0  0  0  0
   58.5490   33.1550   43.6070 O   0  0  0  0  0  0  0  0  0  0  0  0
   58.1874   25.0204   44.1324 H   0  0  0  0  0  0  0  0  0  0  0  0
   56.8232   26.0219   43.5302 H   0  0  0  0  0  0  0  0  0  0  0  0
   58.4926   26.6850   43.5302 H   0  0  0  0  0  0  0  0  0  0  0  0
   58.8562   26.1337   47.6853 H   0  0  0  0  0  0  0  0  0  0  0  0
   60.2766   27.7621   48.8607 H   0  0  0  0  0  0  0  0  0  0  0  0
   59.5594   30.6045   45.7433 H   0  0  0  0  0  0  0  0  0  0  0  0
   58.6590   29.2610   43.4510 H   0  0  0  0  0  0  0  0  0  0  0  0
   55.9756   29.0399   42.1866 H   0  0  0  0  0  0  0  0  0  0  0  0
   54.9740   30.1954   43.0945 H   0  0  0  0  0  0  0  0  0  0  0  0
   57.4496   32.6572   47.7651 H   0  0  0  0  0  0  0  0  0  0  0  0
   58.9598   34.4841   48.5479 H   0  0  0  0  0  0  0  0  0  0  0  0
   60.3410   35.7481   46.9368 H   0  0  0  0  0  0  0  0  0  0  0  0
   60.2449   35.2075   44.4981 H   0  0  0  0  0  0  0  0  0  0  0  0
  1  2  1  0
  2  3  1  0
  3  4  2  0
  4  5  1  0
  5  6  2  0
  6  7  1  0
  6  8  1  0
  8  9  2  0
  9 10  1  0
 10 11  1  0
 11 12  2  0
 11 13  1  0
 13 14  1  0
 14 15  1  0
 15 16  2  0
 16 17  1  0
 17 18  2  0
 18 19  1  0
 19 20  2  0
 20 21  1  0
 21 22  2  0
 22 23  1  0
  9  3  1  0
 23 15  1  0
 22 17  1  0
  1 24  1  0
  1 25  1  0
  1 26  1  0
  4 27  1  0
  5 28  1  0
  8 29  1  0
 10 30  1  0
 13 31  1  0
 13 32  1  0
 18 33  1  0
 19 34  1  0
 20 35  1  0
 21 36  1  0
M  END
>  <smiles>  (43) 
COc1ccc(Br)cc1NC(=O)CSc1nc2ccccc2o1

>  <score_type>  (43) 
oracle

>  <origin>  (43) 
adg

>  <m_score__min__energy>  (43) 
-8.1099999999999994

>  <m_primary>  (43) 
energy

$$$$
44:0
     RDKit          3D

 51 53  0  0  1  0  0  0  0  0999 V2000
   54.4130   23.6880   44.6590 C   0  0  0  0  0  0  0  0  0  0  0  0
   54.1250   24.8200   45.5750 C   0  0  0  0  0  0  0  0  0  0  0  0
   55.1870   25.5060   46.0460 O   0  0  0  0  0  0  0  0  0  0  0  0
   56.4020   24.9230   46.1350 C   0  0  0  0  0  0  0  0  0  0  0  0
   57.3660   25.5390   45.1880 C   0  0  0  0  0  0  0  0  0  0  0  0
   58.1410   26.5350   45.7770 N   0  0  0  0  0  0  0  0  0  0  0  0
   57.8070   27.1340   46.9960 C   0  0  0  0  0  0  0  0  0  0  0  0
   59.1500   27.2660   47.7320 C   0  0  0  0  0  0  0  0  0  0  0  0
   60.0390   28.1140   47.0030 N   0  0  0  0  0  0  0  0  0  0  0  0
   60.3590   29.2630   47.8240 C   0  0  0  0  0  0  0  0  0  0  0  0
   59.9010   30.5120   47.2410 C   0  0  0  0  0  0  0  0  0  0  0  0
   58.9040   31.0370   46.7170 N   0  0  0  0  0  0  0  0  0  0  0  0
   58.7710   32.2460   46.2620 C   0  0  0  0  0  0  0  0  0  0  0  0
   57.6620   32.8620   45.6680 C   0  0  0  0  0  0  0  0  0  0  0  0
   57.7610   34.1600   45.2620 C   0  0  0  0  0  0  0  0  0  0  0  0
   58.8800   34.9510   45.3810 C   0  0  0  0  0  0  0  0  0  0  0  0
   59.9920   34.3760   45.9610 C   0  0  0  0  0  0  0  0  0  0  0  0
   59.8930   33.0620   46.3720 C   0  0  0  0  0  0  0  0  0  0  0  0
   61.1280   31.9550   47.1750 S   0  0  0  0  0  0  0  0  0  0  0  0
   59.6330   28.4590   45.6810 C   0  0  0  0  0  0  0  0  0  0  0  0
   58.9080   27.3790   44.9370 C   0  0  2  0  0  0  0  0  0  0  0  0
   57.9410   28.0170   43.9610 C   0  0  0  0  0  0  0  0  0  0  0  0
   56.9360   28.9170   44.5980 C   0  0  0  0  0  0  0  0  0  0  0  0
   55.8980   28.2860   45.2330 O   0  0  0  0  0  0  0  0  0  0  0  0
   54.6419   22.7882   45.2488 H   0  0  0  0  0  0  0  0  0  0  0  0
   53.5348   23.4970   44.0247 H   0  0  0  0  0  0  0  0  0  0  0  0
   55.2757   23.9399   44.0247 H   0  0  0  0  0  0  0  0  0  0  0  0
   53.4828   25.5307   45.0342 H   0  0  0  0  0  0  0  0  0  0  0  0
   53.6613   24.3626   46.4614 H   0  0  0  0  0  0  0  0  0  0  0  0
   56.7819   25.0409   47.1606 H   0  0  0  0  0  0  0  0  0  0  0  0
   56.2961   23.8583   45.8796 H   0  0  0  0  0  0  0  0  0  0  0  0
   58.0346   24.7532   44.8066 H   0  0  0  0  0  0  0  0  0  0  0  0
   56.7835   26.0071   44.3808 H   0  0  0  0  0  0  0  0  0  0  0  0
   57.3525   28.1224   46.8334 H   0  0  0  0  0  0  0  0  0  0  0  0
   57.0704   26.5482   47.5654 H   0  0  0  0  0  0  0  0  0  0  0  0
   58.9755   27.6964   48.7292 H   0  0  0  0  0  0  0  0  0  0  0  0
   59.6049   26.2687   47.8236 H   0  0  0  0  0  0  0  0  0  0  0  0
   59.8817   29.1373   48.8070 H   0  0  0  0  0  0  0  0  0  0  0  0
   61.4544   29.3170   47.9084 H   0  0  0  0  0  0  0  0  0  0  0  0
   56.7230   32.3056   45.5308 H   0  0  0  0  0  0  0  0  0  0  0  0
   56.8710   34.6126   44.8004 H   0  0  0  0  0  0  0  0  0  0  0  0
   58.8879   35.9935   45.0301 H   0  0  0  0  0  0  0  0  0  0  0  0
   60.9246   34.9446   46.0913 H   0  0  0  0  0  0  0  0  0  0  0  0
   58.9687   29.3333   45.7457 H   0  0  0  0  0  0  0  0  0  0  0  0
   60.5574   28.6523   45.1170 H   0  0  0  0  0  0  0  0  0  0  0  0
   59.6811   26.7726   44.4425 H   0  0  0  0  0  0  0  0  0  0  0  0
   58.5211   28.6061   43.2354 H   0  0  0  0  0  0  0  0  0  0  0  0
   57.3786   27.1970   43.4906 H   0  0  0  0  0  0  0  0  0  0  0  0
   57.4594   29.5386   45.3394 H   0  0  0  0  0  0  0  0  0  0  0  0
   56.4830   29.4929   43.7775 H   0  0  0  0  0  0  0  0  0  0  0  0
   56.0650   27.3080   45.2500 H   0  0  0  0  0  0  0  0  0  0  0  0
  1  2  1  0
  2  3  1  0
  3  4  1  0
  4  5  1  0
  5  6  1  0
  6  7  1  0
  7  8  1  0
  8  9  1  0
  9 10  1  0
 10 11  1  0
 11 12  2  0
 12 13  1  0
 13 14  2  0
 14 15  1  0
 15 16  2  0
 16 17  1  0
 17 18  2  0
 18 19  1  0
  9 20  1  0
 20 21  1  0
 21 22  1  0
 22 23  1  0
 23 24  1  0
 21  6  1  0
 19 11  1  0
 18 13  1  0
  1 25  1  0
  1 26  1  0
  1 27  1  0
  2 28  1  0
  2 29  1  0
  4 30  1  0
  4 31  1  0
  5 32  1  0
  5 33  1  0
  7 34  1  0
  7 35  1  0
  8 36  1  0
  8 37  1  0
 10 38  1  0
 10 39  1  0
 14 40  1  0
 15 41  1  0
 16 42  1  0
 17 43  1  0
 20 44  1  0
 20 45  1  0
 21 46  1  6
 22 47  1  0
 22 48  1  0
 23 49  1  0
 23 50  1  0
 24 51  1  0
M  END
>  <smiles>  (44) 
CCOCCN1CCN(Cc2nc3ccccc3s2)CC1CCO

>  <score_type>  (44) 
oracle

>  <origin>  (44) 
adg

>  <m_score__min__energy>  (44) 
-7.7800000000000002

>  <m_primary>  (44) 
energy

$$$$
45:0
     RDKit          3D

 49 51  0  0  1  0  0  0  0  0999 V2000
   56.6110   21.8720   42.6190 C   0  0  0  0  0  0  0  0  0  0  0  0
   56.6670   23.2900   43.0750 C   0  0  0  0  0  0  0  0  0  0  0  0
   57.1720   23.4380   44.3730 N   0  0  0  0  0  0  0  0  0  0  0  0
   57.9170   22.4350   44.9960 C   0  0  0  0  0  0  0  0  0  0  0  0
   59.3460   22.2510   44.5370 C   0  0  0  0  0  0  0  0  0  0  0  0
   56.6650   24.5190   45.1410 C   0  0  0  0  0  0  0  0  0  0  0  0
   57.4750   25.7750   44.7960 C   0  0  0  0  0  0  0  0  0  0  0  0
   56.7920   27.0780   45.8000 S   0  0  0  0  0  0  0  0  0  0  0  0
   55.1460   26.7140   45.9990 O   0  0  0  0  0  0  0  0  0  0  0  0
   57.0240   28.6540   45.1400 C   0  0  0  0  0  0  0  0  0  0  0  0
   56.5710   29.0620   43.9340 N   0  0  0  0  0  0  0  0  0  0  0  0
   56.7810   30.3120   43.4700 C   0  0  0  0  0  0  0  0  0  0  0  0
   57.4590   31.2370   44.1830 N   0  0  0  0  0  0  0  0  0  0  0  0
   57.9330   30.8840   45.3920 C   0  0  0  0  0  0  0  0  0  0  0  0
   57.7280   29.6020   45.8880 C   0  0  0  0  0  0  0  0  0  0  0  0
   58.3000   29.5470   47.0960 N   0  0  0  0  0  0  0  0  0  0  0  0
   58.8380   30.7380   47.3470 C   0  0  0  0  0  0  0  0  0  0  0  0
   58.6320   31.5980   46.3120 N   0  0  0  0  0  0  0  0  0  0  0  0
   59.0710   32.9550   46.2130 C   0  0  1  0  0  0  0  0  0  0  0  0
   58.1710   33.8060   45.3460 C   0  0  0  0  0  0  0  0  0  0  0  0
   59.0050   34.9940   44.9160 C   0  0  0  0  0  0  0  0  0  0  0  0
   60.0210   35.2860   46.0140 C   0  0  0  0  0  0  0  0  0  0  0  0
   59.3590   34.9420   47.3370 C   0  0  0  0  0  0  0  0  0  0  0  0
   59.2810   33.5460   47.4370 O   0  0  0  0  0  0  0  0  0  0  0  0
   56.5847   21.2062   43.4942 H   0  0  0  0  0  0  0  0  0  0  0  0
   55.7060   21.7171   42.0131 H   0  0  0  0  0  0  0  0  0  0  0  0
   57.5009   21.6463   42.0131 H   0  0  0  0  0  0  0  0  0  0  0  0
   57.3114   23.8532   42.3840 H   0  0  0  0  0  0  0  0  0  0  0  0
   55.6344   23.6691   43.0834 H   0  0  0  0  0  0  0  0  0  0  0  0
   57.9414   22.6607   46.0723 H   0  0  0  0  0  0  0  0  0  0  0  0
   57.4096   21.4964   44.7283 H   0  0  0  0  0  0  0  0  0  0  0  0
   60.0047   22.1662   45.4139 H   0  0  0  0  0  0  0  0  0  0  0  0
   59.4217   21.3357   43.9316 H   0  0  0  0  0  0  0  0  0  0  0  0
   59.6511   23.1173   43.9316 H   0  0  0  0  0  0  0  0  0  0  0  0
   55.6044   24.6821   44.8992 H   0  0  0  0  0  0  0  0  0  0  0  0
   56.7510   24.2950   46.2145 H   0  0  0  0  0  0  0  0  0  0  0  0
   58.5380   25.6237   45.0348 H   0  0  0  0  0  0  0  0  0  0  0  0
   57.4165   26.0147   43.7240 H   0  0  0  0  0  0  0  0  0  0  0  0
   56.3875   30.5858   42.4800 H   0  0  0  0  0  0  0  0  0  0  0  0
   59.3785   30.9941   48.2702 H   0  0  0  0  0  0  0  0  0  0  0  0
   60.0478   32.8984   45.7103 H   0  0  0  0  0  0  0  0  0  0  0  0
   57.8370   33.2356   44.4668 H   0  0  0  0  0  0  0  0  0  0  0  0
   57.2699   34.1233   45.8913 H   0  0  0  0  0  0  0  0  0  0  0  0
   59.5284   34.7610   43.9770 H   0  0  0  0  0  0  0  0  0  0  0  0
   58.3610   35.8705   44.7518 H   0  0  0  0  0  0  0  0  0  0  0  0
   60.9201   34.6688   45.8701 H   0  0  0  0  0  0  0  0  0  0  0  0
   60.3284   36.3419   45.9926 H   0  0  0  0  0  0  0  0  0  0  0  0
   59.9579   35.3421   48.1684 H   0  0  0  0  0  0  0  0  0  0  0  0
   58.3526   35.3835   47.3848 H   0  0  0  0  0  0  0  0  0  0  0  0
  1  2  1  0
  2  3  1  0
  3  4  1  0
  4  5  1  0
  3  6  1  0
  6  7  1  0
  7  8  1  0
  8  9  1  6
  8 10  1  0
 10 11  2  0
 11 12  1  0
 12 13  2  0
 13 14  1  0
 14 15  2  0
 15 16  1  0
 16 17  2  0
 17 18  1  0
 18 19  1  0
 19 20  1  0
 20 21  1  0
 21 22  1  0
 22 23  1  0
 23 24  1  0
 15 10  1  0
 24 19  1  0
 18 14  1  0
  1 25  1  0
  1 26  1  0
  1 27  1  0
  2 28  1  0
  2 29  1  0
  4 30  1  0
  4 31  1  0
  5 32  1  0
  5 33  1  0
  5 34  1  0
  6 35  1  0
  6 36  1  0
  7 37  1  0
  7 38  1  0
 12 39  1  0
 17 40  1  0
 19 41  1  6
 20 42  1  0
 20 43  1  0
 21 44  1  0
 21 45  1  0
 22 46  1  0
 22 47  1  0
 23 48  1  0
 23 49  1  0
M  CHG  2   8   1   9  -1
M  END
>  <smiles>  (45) 
CCN(CC)CC[S+]([O-])c1ncnc2c1ncn2C1CCCCO1

>  <score_type>  (45) 
oracle

>  <origin>  (45) 
adg

>  <m_score__min__energy>  (45) 
-8.5399999999999991

>  <m_primary>  (45) 
energy

$$$$
