0:0
     RDKit          3D

 44 47  0  0  0  0  0  0  0  0999 V2000
   59.9150   33.4800   51.1220 C   0  0  0  0  0  0  0  0  0  0  0  0
   60.6010   32.6620   50.0320 C   0  0  0  0  0  0  0  0  0  0  0  0
   60.2130   33.1350   48.6880 N   0  0  0  0  0  0  0  0  0  0  0  0
   61.1380   33.7200   47.8360 C   0  0  0  0  0  0  0  0  0  0  0  0
   62.8890   33.8340   48.2490 S   0  0  0  0  0  0  0  0  0  0  0  0
   63.1650   32.0260   48.2420 C   0  0  0  0  0  0  0  0  0  0  0  0
   62.3570   31.3650   47.1240 C   0  0  0  0  0  0  0  0  0  0  0  0
   61.4150   30.4380   47.6670 O   0  0  0  0  0  0  0  0  0  0  0  0
   60.2210   30.0350   47.0460 C   0  0  0  0  0  0  0  0  0  0  0  0
   59.4380   28.9650   47.5220 C   0  0  0  0  0  0  0  0  0  0  0  0
   58.2590   28.6010   46.8670 C   0  0  0  0  0  0  0  0  0  0  0  0
   57.8400   29.3010   45.7280 C   0  0  0  0  0  0  0  0  0  0  0  0
   56.6560   28.9440   45.0620 C   0  0  0  0  0  0  0  0  0  0  0  0
   56.2490   29.6520   43.9290 C   0  0  0  0  0  0  0  0  0  0  0  0
   57.0160   30.7180   43.4510 C   0  0  0  0  0  0  0  0  0  0  0  0
   58.1970   31.0830   44.1050 C   0  0  0  0  0  0  0  0  0  0  0  0
   58.6170   30.3800   45.2440 C   0  0  0  0  0  0  0  0  0  0  0  0
   59.8000   30.7370   45.9090 C   0  0  0  0  0  0  0  0  0  0  0  0
   60.7490   34.2090   46.6220 N   0  0  0  0  0  0  0  0  0  0  0  0
   59.4640   34.0890   46.2210 C   0  0  0  0  0  0  0  0  0  0  0  0
   58.9590   34.5230   44.9950 C   0  0  0  0  0  0  0  0  0  0  0  0
   57.6010   34.2370   44.8530 C   0  0  0  0  0  0  0  0  0  0  0  0
   57.0510   33.4480   46.2480 S   0  0  0  0  0  0  0  0  0  0  0  0
   58.5390   33.4740   47.0260 C   0  0  0  0  0  0  0  0  0  0  0  0
   58.9070   32.9900   48.2730 C   0  0  0  0  0  0  0  0  0  0  0  0
   58.0440   32.4300   49.0060 O   0  0  0  0  0  0  0  0  0  0  0  0
   60.2262   33.1089   52.1096 H   0  0  0  0  0  0  0  0  0  0  0  0
   60.2003   34.5376   51.0211 H   0  0  0  0  0  0  0  0  0  0  0  0
   58.8239   33.3833   51.0211 H   0  0  0  0  0  0  0  0  0  0  0  0
   61.6912   32.7559   50.1449 H   0  0  0  0  0  0  0  0  0  0  0  0
   60.2903   31.6119   50.1358 H   0  0  0  0  0  0  0  0  0  0  0  0
   64.2346   31.8237   48.0838 H   0  0  0  0  0  0  0  0  0  0  0  0
   62.8397   31.6127   49.2081 H   0  0  0  0  0  0  0  0  0  0  0  0
   61.8177   32.1405   46.5602 H   0  0  0  0  0  0  0  0  0  0  0  0
   63.0465   30.8231   46.4599 H   0  0  0  0  0  0  0  0  0  0  0  0
   59.7577   28.4114   48.4171 H   0  0  0  0  0  0  0  0  0  0  0  0
   57.6576   27.7619   47.2468 H   0  0  0  0  0  0  0  0  0  0  0  0
   56.0484   28.1056   45.4333 H   0  0  0  0  0  0  0  0  0  0  0  0
   55.3208   29.3694   43.4107 H   0  0  0  0  0  0  0  0  0  0  0  0
   56.6899   31.2714   42.5580 H   0  0  0  0  0  0  0  0  0  0  0  0
   58.7977   31.9228   43.7256 H   0  0  0  0  0  0  0  0  0  0  0  0
   60.4031   31.5768   45.5336 H   0  0  0  0  0  0  0  0  0  0  0  0
   59.5621   35.0320   44.2287 H   0  0  0  0  0  0  0  0  0  0  0  0
   56.9855   34.4842   43.9755 H   0  0  0  0  0  0  0  0  0  0  0  0
  1  2  1  0
  2  3  1  0
  3  4  1  0
  4  5  1  0
  5  6  1  0
  6  7  1  0
  7  8  1  0
  8  9  1  0
  9 10  2  0
 10 11  1  0
 11 12  2  0
 12 13  1  0
 13 14  2  0
 14 15  1  0
 15 16  2  0
 16 17  1  0
 17 18  2  0
  4 19  2  0
 19 20  1  0
 20 21  1  0
 21 22  2  0
 22 23  1  0
 23 24  1  0
 24 25  1  0
 25 26  2  0
 25  3  1  0
 18  9  1  0
 24 20  2  0
 17 12  1  0
  1 27  1  0
  1 28  1  0
  1 29  1  0
  2 30  1  0
  2 31  1  0
  6 32  1  0
  6 33  1  0
  7 34  1  0
  7 35  1  0
 10 36  1  0
 11 37  1  0
 13 38  1  0
 14 39  1  0
 15 40  1  0
 16 41  1  0
 18 42  1  0
 21 43  1  0
 22 44  1  0
M  END
>  <UniqueID>  (1) 
1

>  <SMILES>  (1) 
CCn1c(SCCOc2ccc3ccccc3c2)nc2ccsc2c1=O

>  <Energy>  (1) 
79.63494876459616

>  <Genealogy>  (1) 
CCn1c(SCCOc2ccc3ccccc3c2)nc2ccsc2c1=O (3D coordinates assigned)
CCn1c(SCCOc2ccc3ccccc3c2)nc2ccsc2c1=O (optimized conformer: 79.63494876459616 kcal/mol)

>  <smiles>  (1) 
CCn1c(SCCOc2ccc3ccccc3c2)nc2ccsc2c1=O

>  <score_type>  (1) 
oracle

>  <origin>  (1) 
adg

>  <m_score__min__energy>  (1) 
-7.8600000000000003

>  <m_primary>  (1) 
energy

$$$$
1:0
     RDKit          3D

 30 32  0  0  0  0  0  0  0  0999 V2000
   60.2960   30.4320   46.6440 C   0  0  0  0  0  0  0  0  0  0  0  0
   61.1050   30.8870   47.8540 C   0  0  0  0  0  0  0  0  0  0  0  0
   62.1210   31.8650   47.4650 N   0  0  0  0  0  0  0  0  0  0  0  0
   63.3600   31.5690   47.1150 N   0  0  0  0  0  0  0  0  0  0  0  0
   64.0300   32.7020   46.9710 N   0  0  0  0  0  0  0  0  0  0  0  0
   63.2630   33.7470   47.2470 N   0  0  0  0  0  0  0  0  0  0  0  0
   62.0700   33.2090   47.5580 C   0  0  0  0  0  0  0  0  0  0  0  0
   60.6440   34.1690   48.0810 S   0  0  0  0  0  0  0  0  0  0  0  0
   60.1280   34.6150   46.3890 C   0  0  0  0  0  0  0  0  0  0  0  0
   58.8810   33.8890   46.0040 C   0  0  0  0  0  0  0  0  0  0  0  0
   57.6500   34.2170   46.4410 N   0  0  0  0  0  0  0  0  0  0  0  0
   56.8170   33.3560   45.8780 N   0  0  0  0  0  0  0  0  0  0  0  0
   57.5740   32.5400   45.1190 C   0  0  0  0  0  0  0  0  0  0  0  0
   57.0480   31.4470   44.2990 C   0  0  0  0  0  0  0  0  0  0  0  0
   57.3670   31.1960   42.9800 C   0  0  0  0  0  0  0  0  0  0  0  0
   56.6450   30.0740   42.6330 C   0  0  0  0  0  0  0  0  0  0  0  0
   55.9340   29.7110   43.7610 C   0  0  0  0  0  0  0  0  0  0  0  0
   56.1960   30.5490   44.7370 O   0  0  0  0  0  0  0  0  0  0  0  0
   58.8430   32.8580   45.1950 O   0  0  0  0  0  0  0  0  0  0  0  0
   59.3843   29.9192   46.9843 H   0  0  0  0  0  0  0  0  0  0  0  0
   60.0198   31.3071   46.0375 H   0  0  0  0  0  0  0  0  0  0  0  0
   60.9004   29.7415   46.0375 H   0  0  0  0  0  0  0  0  0  0  0  0
   60.4269   31.3452   48.5890 H   0  0  0  0  0  0  0  0  0  0  0  0
   61.6086   30.0114   48.2894 H   0  0  0  0  0  0  0  0  0  0  0  0
   65.0350   32.7630   46.6950 H   0  0  0  0  0  0  0  0  0  0  0  0
   59.9431   35.6983   46.3425 H   0  0  0  0  0  0  0  0  0  0  0  0
   60.9295   34.3321   45.6908 H   0  0  0  0  0  0  0  0  0  0  0  0
   58.0530   31.7704   42.3401 H   0  0  0  0  0  0  0  0  0  0  0  0
   56.6366   29.5695   41.6555 H   0  0  0  0  0  0  0  0  0  0  0  0
   55.2521   28.8506   43.8305 H   0  0  0  0  0  0  0  0  0  0  0  0
  1  2  1  0
  2  3  1  0
  3  4  1  0
  4  5  2  0
  5  6  1  0
  6  7  2  0
  7  8  1  0
  8  9  1  0
  9 10  1  0
 10 11  2  0
 11 12  1  0
 12 13  2  0
 13 14  1  0
 14 15  2  0
 15 16  1  0
 16 17  2  0
 17 18  1  0
 13 19  1  0
  7  3  1  0
 19 10  1  0
 18 14  1  0
  1 20  1  0
  1 21  1  0
  1 22  1  0
  2 23  1  0
  2 24  1  0
  5 25  1  0
  9 26  1  0
  9 27  1  0
 15 28  1  0
 16 29  1  0
 17 30  1  0
M  CHG  1   5   1
M  END
>  <UniqueID>  (2) 
2

>  <SMILES>  (2) 
CCn1n[nH+]nc1SCc1nnc(-c2ccco2)o1

>  <Energy>  (2) 
122.44787765142719

>  <Genealogy>  (2) 
CCn1n[nH+]nc1SCc1nnc(-c2ccco2)o1 (protonated)
CCn1n[nH+]nc1SCc1nnc(-c2ccco2)o1 (3D coordinates assigned)
CCn1n[nH+]nc1SCc1nnc(-c2ccco2)o1 (optimized conformer: 122.44787765142719 kcal/mol)

>  <smiles>  (2) 
CCn1nnnc1SCc1nnc(-c2ccco2)o1

>  <score_type>  (2) 
oracle

>  <origin>  (2) 
adg

>  <m_score__min__energy>  (2) 
-6.4100000000000001

>  <m_primary>  (2) 
energy

$$$$
2:0
     RDKit          3D

 49 51  0  0  0  0  0  0  0  0999 V2000
   60.3640   26.0930   46.3970 C   0  0  0  0  0  0  0  0  0  0  0  0
   59.9280   26.8390   47.6510 C   0  0  0  0  0  0  0  0  0  0  0  0
   60.0220   28.3180   47.4430 C   0  0  0  0  0  0  0  0  0  0  0  0
   59.4520   28.9690   46.4020 N   0  0  0  0  0  0  0  0  0  0  0  0
   59.6230   30.3180   46.4850 C   0  0  0  0  0  0  0  0  0  0  0  0
   59.1350   31.2480   45.5640 C   0  0  0  0  0  0  0  0  0  0  0  0
   58.5160   30.8130   44.3420 N   0  0  0  0  0  0  0  0  0  0  0  0
   57.0620   30.7120   44.2000 C   0  0  0  0  0  0  0  0  0  0  0  0
   56.6250   29.2810   43.8340 C   0  0  0  0  0  0  0  0  0  0  0  0
   57.4750   28.2770   44.5100 N   0  0  0  0  0  0  0  0  0  0  0  0
   58.1000   27.3520   43.5500 C   0  0  0  0  0  0  0  0  0  0  0  0
   56.7930   27.5750   45.6230 C   0  0  0  0  0  0  0  0  0  0  0  0
   56.9930   26.0510   45.6350 C   0  0  0  0  0  0  0  0  0  0  0  0
   59.2730   32.6220   45.8680 C   0  0  0  0  0  0  0  0  0  0  0  0
   58.7320   33.6050   45.0170 C   0  0  0  0  0  0  0  0  0  0  0  0
   58.8830   34.9590   45.3050 C   0  0  0  0  0  0  0  0  0  0  0  0
   59.5690   35.3580   46.4480 C   0  0  0  0  0  0  0  0  0  0  0  0
   60.1060   34.4070   47.3160 C   0  0  0  0  0  0  0  0  0  0  0  0
   59.9760   33.0230   47.0510 C   0  0  0  0  0  0  0  0  0  0  0  0
   60.5030   32.0700   47.9070 N   0  0  0  0  0  0  0  0  0  0  0  0
   61.2440   32.4590   49.1200 C   0  0  0  0  0  0  0  0  0  0  0  0
   60.2960   30.7480   47.6170 C   0  0  0  0  0  0  0  0  0  0  0  0
   60.7230   29.3960   48.5380 S   0  0  0  0  0  0  0  0  0  0  0  0
   60.8999   25.1761   46.6835 H   0  0  0  0  0  0  0  0  0  0  0  0
   59.4781   25.8288   45.8008 H   0  0  0  0  0  0  0  0  0  0  0  0
   61.0289   26.7352   45.8008 H   0  0  0  0  0  0  0  0  0  0  0  0
   58.8872   26.5725   47.8868 H   0  0  0  0  0  0  0  0  0  0  0  0
   60.5909   26.5547   48.4815 H   0  0  0  0  0  0  0  0  0  0  0  0
   58.9080   28.4820   45.6560 H   0  0  0  0  0  0  0  0  0  0  0  0
   59.1240   30.5070   43.5490 H   0  0  0  0  0  0  0  0  0  0  0  0
   56.5899   30.9968   45.1519 H   0  0  0  0  0  0  0  0  0  0  0  0
   56.7484   31.3852   43.3885 H   0  0  0  0  0  0  0  0  0  0  0  0
   55.5797   29.1340   44.1435 H   0  0  0  0  0  0  0  0  0  0  0  0
   56.7274   29.1511   42.7465 H   0  0  0  0  0  0  0  0  0  0  0  0
   58.6342   26.5614   44.0973 H   0  0  0  0  0  0  0  0  0  0  0  0
   57.3222   26.8990   42.9178 H   0  0  0  0  0  0  0  0  0  0  0  0
   58.8106   27.9046   42.9178 H   0  0  0  0  0  0  0  0  0  0  0  0
   57.1778   27.9792   46.5709 H   0  0  0  0  0  0  0  0  0  0  0  0
   55.7151   27.7474   45.4870 H   0  0  0  0  0  0  0  0  0  0  0  0
   57.0397   25.6955   46.6749 H   0  0  0  0  0  0  0  0  0  0  0  0
   56.1507   25.5666   45.1193 H   0  0  0  0  0  0  0  0  0  0  0  0
   57.9317   25.8003   45.1193 H   0  0  0  0  0  0  0  0  0  0  0  0
   58.1835   33.2995   44.1138 H   0  0  0  0  0  0  0  0  0  0  0  0
   58.4591   35.7148   44.6275 H   0  0  0  0  0  0  0  0  0  0  0  0
   59.6885   36.4291   46.6683 H   0  0  0  0  0  0  0  0  0  0  0  0
   60.6384   34.7379   48.2199 H   0  0  0  0  0  0  0  0  0  0  0  0
   60.6726   32.1590   50.0108 H   0  0  0  0  0  0  0  0  0  0  0  0
   62.2237   31.9589   49.1273 H   0  0  0  0  0  0  0  0  0  0  0  0
   61.3888   33.5494   49.1273 H   0  0  0  0  0  0  0  0  0  0  0  0
  1  2  1  0
  2  3  1  0
  3  4  2  0
  4  5  1  0
  5  6  2  0
  6  7  1  0
  7  8  1  0
  8  9  1  0
  9 10  1  0
 10 11  1  0
 10 12  1  0
 12 13  1  0
  6 14  1  0
 14 15  2  0
 15 16  1  0
 16 17  2  0
 17 18  1  0
 18 19  2  0
 19 20  1  0
 20 21  1  0
 20 22  2  0
 22 23  1  0
 23  3  1  0
 22  5  1  0
 19 14  1  0
  1 24  1  0
  1 25  1  0
  1 26  1  0
  2 27  1  0
  2 28  1  0
  4 29  1  0
  7 30  1  0
  8 31  1  0
  8 32  1  0
  9 33  1  0
  9 34  1  0
 11 35  1  0
 11 36  1  0
 11 37  1  0
 12 38  1  0
 12 39  1  0
 13 40  1  0
 13 41  1  0
 13 42  1  0
 15 43  1  0
 16 44  1  0
 17 45  1  0
 18 46  1  0
 21 47  1  0
 21 48  1  0
 21 49  1  0
M  CHG  2   4   1  20   1
M  END
>  <UniqueID>  (3) 
3

>  <SMILES>  (3) 
CCc1[nH+]c2c(NCCN(C)CC)c3ccccc3[n+](C)c2s1

>  <Energy>  (3) 
97.97764570914825

>  <Genealogy>  (3) 
CCc1[nH+]c2c(NCCN(C)CC)c3ccccc3[n+](C)c2s1 (protonated)
CCc1[nH+]c2c(NCCN(C)CC)c3ccccc3[n+](C)c2s1 (3D coordinates assigned)
CCc1[nH+]c2c(NCCN(C)CC)c3ccccc3[n+](C)c2s1 (optimized conformer: 97.97764570914825 kcal/mol)

>  <smiles>  (3) 
CCc1nc2c(NCCN(C)CC)c3ccccc3[n+](C)c2s1

>  <score_type>  (3) 
oracle

>  <origin>  (3) 
adg

>  <m_score__min__energy>  (3) 
-4.04

>  <m_primary>  (3) 
energy

$$$$
3:0
     RDKit          3D

 52 54  0  0  0  0  0  0  0  0999 V2000
   65.2360   31.9730   50.1380 C   0  0  0  0  0  0  0  0  0  0  0  0
   64.4460   33.0650   49.3900 C   0  0  0  0  0  0  0  0  0  0  0  0
   63.3960   32.5650   48.4580 N   0  0  2  0  0  0  0  0  0  0  0  0
   63.7600   32.8050   47.0470 C   0  0  0  0  0  0  0  0  0  0  0  0
   62.0420   33.1050   48.7480 C   0  0  0  0  0  0  0  0  0  0  0  0
   61.1700   32.1560   49.6020 C   0  0  0  0  0  0  0  0  0  0  0  0
   60.8640   30.8110   48.9080 C   0  0  0  0  0  0  0  0  0  0  0  0
   60.9170   30.9210   47.4460 N   0  0  0  0  0  0  0  0  0  0  0  0
   59.7300   30.9520   46.6280 C   0  0  0  0  0  0  0  0  0  0  0  0
   59.3150   32.1570   46.0340 C   0  0  0  0  0  0  0  0  0  0  0  0
   59.9260   33.3820   46.3720 C   0  0  0  0  0  0  0  0  0  0  0  0
   59.4930   34.5740   45.8000 C   0  0  0  0  0  0  0  0  0  0  0  0
   58.4370   34.5700   44.8940 C   0  0  0  0  0  0  0  0  0  0  0  0
   57.8220   33.3710   44.5390 C   0  0  0  0  0  0  0  0  0  0  0  0
   58.2630   32.1360   45.0790 C   0  0  0  0  0  0  0  0  0  0  0  0
   57.6910   30.9340   44.7060 N   0  0  0  0  0  0  0  0  0  0  0  0
   56.8360   30.8640   43.5000 C   0  0  0  0  0  0  0  0  0  0  0  0
   57.9240   29.7960   45.4580 C   0  0  0  0  0  0  0  0  0  0  0  0
   57.1340   28.6260   45.3070 C   0  0  0  0  0  0  0  0  0  0  0  0
   57.3780   27.4710   46.0710 C   0  0  0  0  0  0  0  0  0  0  0  0
   56.5780   26.2870   45.8920 N   0  0  0  0  0  0  0  0  0  0  0  0
   57.1140   25.1820   45.6480 O   0  0  0  0  0  0  0  0  0  0  0  0
   55.2080   26.3470   45.9890 O   0  0  0  0  0  0  0  0  0  0  0  0
   58.3960   27.4940   47.0290 C   0  0  0  0  0  0  0  0  0  0  0  0
   59.1630   28.6400   47.2200 C   0  0  0  0  0  0  0  0  0  0  0  0
   58.9580   29.7900   46.4310 C   0  0  0  0  0  0  0  0  0  0  0  0
   65.1289   32.1210   51.2227 H   0  0  0  0  0  0  0  0  0  0  0  0
   64.8437   30.9829   49.8625 H   0  0  0  0  0  0  0  0  0  0  0  0
   66.2991   32.0358   49.8625 H   0  0  0  0  0  0  0  0  0  0  0  0
   63.9582   33.7055   50.1396 H   0  0  0  0  0  0  0  0  0  0  0  0
   65.1788   33.5974   48.7658 H   0  0  0  0  0  0  0  0  0  0  0  0
   63.3610   31.5240   48.5690 H   0  0  0  0  0  0  0  0  0  0  0  0
   64.6776   33.4100   47.0029 H   0  0  0  0  0  0  0  0  0  0  0  0
   63.9312   31.8420   46.5436 H   0  0  0  0  0  0  0  0  0  0  0  0
   62.9424   33.3417   46.5436 H   0  0  0  0  0  0  0  0  0  0  0  0
   62.1549   34.0559   49.2894 H   0  0  0  0  0  0  0  0  0  0  0  0
   61.5309   33.2331   47.7824 H   0  0  0  0  0  0  0  0  0  0  0  0
   61.6994   31.9495   50.5438 H   0  0  0  0  0  0  0  0  0  0  0  0
   60.2072   32.6617   49.7675 H   0  0  0  0  0  0  0  0  0  0  0  0
   61.6047   30.0663   49.2350 H   0  0  0  0  0  0  0  0  0  0  0  0
   59.8443   30.5087   49.1887 H   0  0  0  0  0  0  0  0  0  0  0  0
   61.8530   30.9490   46.9790 H   0  0  0  0  0  0  0  0  0  0  0  0
   60.7541   33.3953   47.0959 H   0  0  0  0  0  0  0  0  0  0  0  0
   59.9862   35.5210   46.0644 H   0  0  0  0  0  0  0  0  0  0  0  0
   58.0865   35.5164   44.4565 H   0  0  0  0  0  0  0  0  0  0  0  0
   56.9817   33.3826   43.8292 H   0  0  0  0  0  0  0  0  0  0  0  0
   55.7819   30.7777   43.8024 H   0  0  0  0  0  0  0  0  0  0  0  0
   56.9720   31.7763   42.9006 H   0  0  0  0  0  0  0  0  0  0  0  0
   57.1186   29.9860   42.9006 H   0  0  0  0  0  0  0  0  0  0  0  0
   56.3123   28.6230   44.5757 H   0  0  0  0  0  0  0  0  0  0  0  0
   58.5926   26.5987   47.6372 H   0  0  0  0  0  0  0  0  0  0  0  0
   59.9405   28.6482   47.9981 H   0  0  0  0  0  0  0  0  0  0  0  0
  1  2  1  0
  2  3  1  0
  3  4  1  0
  3  5  1  0
  5  6  1  0
  6  7  1  0
  7  8  1  0
  8  9  1  0
  9 10  2  0
 10 11  1  0
 11 12  2  0
 12 13  1  0
 13 14  2  0
 14 15  1  0
 15 16  2  0
 16 17  1  0
 16 18  1  0
 18 19  2  0
 19 20  1  0
 20 21  1  0
 21 22  2  0
 21 23  1  0
 20 24  2  0
 24 25  1  0
 25 26  2  0
 26  9  1  0
 15 10  1  0
 26 18  1  0
  1 27  1  0
  1 28  1  0
  1 29  1  0
  2 30  1  0
  2 31  1  0
  3 32  1  6
  4 33  1  0
  4 34  1  0
  4 35  1  0
  5 36  1  0
  5 37  1  0
  6 38  1  0
  6 39  1  0
  7 40  1  0
  7 41  1  0
  8 42  1  0
 11 43  1  0
 12 44  1  0
 13 45  1  0
 14 46  1  0
 17 47  1  0
 17 48  1  0
 17 49  1  0
 19 50  1  0
 24 51  1  0
 25 52  1  0
M  CHG  4   3   1  16   1  21   1  23  -1
M  END
>  <UniqueID>  (4) 
4

>  <SMILES>  (4) 
CC[N@H+](C)CCCNc1c2ccccc2[n+](C)c2cc([N+](=O)[O-])ccc12

>  <Energy>  (4) 
84.68212066678738

>  <Genealogy>  (4) 
CC[NH+](C)CCCNc1c2ccccc2[n+](C)c2cc([N+](=O)[O-])ccc12 (protonated)
CC[N@H+](C)CCCNc1c2ccccc2[n+](C)c2cc([N+](=O)[O-])ccc12 (chirality)
CC[N@H+](C)CCCNc1c2ccccc2[n+](C)c2cc([N+](=O)[O-])ccc12 (3D coordinates assigned)
CC[N@H+](C)CCCNc1c2ccccc2[n+](C)c2cc([N+](=O)[O-])ccc12 (optimized conformer: 84.68212066678738 kcal/mol)

>  <smiles>  (4) 
CCN(C)CCCNc1c2ccccc2[n+](C)c2cc([N+](=O)[O-])ccc12

>  <score_type>  (4) 
oracle

>  <origin>  (4) 
adg

>  <m_score__min__energy>  (4) 
-5.2400000000000002

>  <m_primary>  (4) 
energy

$$$$
4:0
     RDKit          3D

 63 64  0  0  0  0  0  0  0  0999 V2000
   59.1940   27.1400   45.3260 C   0  0  0  0  0  0  0  0  0  0  0  0
   57.7780   27.3480   44.7850 C   0  0  0  0  0  0  0  0  0  0  0  0
   57.7360   28.2460   43.5350 C   0  0  0  0  0  0  0  0  0  0  0  0
   56.6190   29.3110   43.5270 C   0  0  0  0  0  0  0  0  0  0  0  0
   57.1110   30.7720   43.3510 C   0  0  2  0  0  0  0  0  0  0  0  0
   57.0230   31.2650   41.8750 C   0  0  0  0  0  0  0  0  0  0  0  0
   58.0720   32.3270   41.5430 C   0  0  0  0  0  0  0  0  0  0  0  0
   58.5180   31.0220   43.9890 C   0  0  0  0  0  0  0  0  0  0  0  0
   58.6300   32.1530   44.9620 N   0  0  1  0  0  0  0  0  0  0  0  0
   57.3670   32.8980   45.1290 C   0  0  0  0  0  0  0  0  0  0  0  0
   57.5930   34.1980   45.9360 C   0  0  0  0  0  0  0  0  0  0  0  0
   58.6320   34.0800   46.9880 N   0  0  0  0  0  0  0  0  0  0  0  0
   59.9070   34.7520   46.6480 C   0  0  0  0  0  0  0  0  0  0  0  0
   61.0480   34.1330   47.4100 C   0  0  0  0  0  0  0  0  0  0  0  0
   61.1140   34.2330   48.8100 C   0  0  0  0  0  0  0  0  0  0  0  0
   62.1910   33.6790   49.5060 C   0  0  0  0  0  0  0  0  0  0  0  0
   63.2130   33.0220   48.8110 C   0  0  0  0  0  0  0  0  0  0  0  0
   64.5640   32.3280   49.6870 Cl  0  0  0  0  0  0  0  0  0  0  0  0
   63.1560   32.9220   47.4170 C   0  0  0  0  0  0  0  0  0  0  0  0
   62.0800   33.4760   46.7180 C   0  0  0  0  0  0  0  0  0  0  0  0
   58.8090   32.6910   47.4480 C   0  0  0  0  0  0  0  0  0  0  0  0
   59.1740   31.7160   46.2930 C   0  0  1  0  0  0  0  0  0  0  0  0
   58.7640   30.3140   46.7020 C   0  0  0  0  0  0  0  0  0  0  0  0
   57.6260   29.8680   46.3900 O   0  0  0  0  0  0  0  0  0  0  0  0
   59.6680   29.5090   47.4640 N   0  0  0  0  0  0  0  0  0  0  0  0
   60.8870   30.0390   48.0550 C   0  0  0  0  0  0  0  0  0  0  0  0
   60.6210   30.4610   49.4930 C   0  0  0  0  0  0  0  0  0  0  0  0
   59.1705   27.1434   46.4257 H   0  0  0  0  0  0  0  0  0  0  0  0
   59.5842   26.1749   44.9706 H   0  0  0  0  0  0  0  0  0  0  0  0
   59.8453   27.9521   44.9706 H   0  0  0  0  0  0  0  0  0  0  0  0
   57.3544   26.3665   44.5256 H   0  0  0  0  0  0  0  0  0  0  0  0
   57.1968   27.8520   45.5712 H   0  0  0  0  0  0  0  0  0  0  0  0
   58.7022   28.7659   43.4571 H   0  0  0  0  0  0  0  0  0  0  0  0
   57.5263   27.5779   42.6867 H   0  0  0  0  0  0  0  0  0  0  0  0
   55.9322   29.0797   42.6995 H   0  0  0  0  0  0  0  0  0  0  0  0
   56.1403   29.2636   44.5162 H   0  0  0  0  0  0  0  0  0  0  0  0
   56.4070   31.3956   43.9215 H   0  0  0  0  0  0  0  0  0  0  0  0
   57.1709   30.4036   41.2070 H   0  0  0  0  0  0  0  0  0  0  0  0
   56.0323   31.7225   41.7364 H   0  0  0  0  0  0  0  0  0  0  0  0
   58.4817   32.7418   42.4757 H   0  0  0  0  0  0  0  0  0  0  0  0
   58.8834   31.8704   40.9572 H   0  0  0  0  0  0  0  0  0  0  0  0
   57.6054   33.1327   40.9572 H   0  0  0  0  0  0  0  0  0  0  0  0
   58.8127   30.1016   44.5143 H   0  0  0  0  0  0  0  0  0  0  0  0
   59.1681   31.3031   43.1473 H   0  0  0  0  0  0  0  0  0  0  0  0
   59.3300   32.8210   44.5710 H   0  0  0  0  0  0  0  0  0  0  0  0
   56.9672   33.1553   44.1370 H   0  0  0  0  0  0  0  0  0  0  0  0
   56.6558   32.2636   45.6783 H   0  0  0  0  0  0  0  0  0  0  0  0
   57.8966   34.9912   45.2369 H   0  0  0  0  0  0  0  0  0  0  0  0
   56.6458   34.4250   46.4471 H   0  0  0  0  0  0  0  0  0  0  0  0
   60.0941   34.6490   45.5689 H   0  0  0  0  0  0  0  0  0  0  0  0
   59.8326   35.8153   46.9199 H   0  0  0  0  0  0  0  0  0  0  0  0
   60.3140   34.7498   49.3604 H   0  0  0  0  0  0  0  0  0  0  0  0
   62.2360   33.7592   50.6021 H   0  0  0  0  0  0  0  0  0  0  0  0
   63.9592   32.4066   46.8701 H   0  0  0  0  0  0  0  0  0  0  0  0
   62.0406   33.3975   45.6215 H   0  0  0  0  0  0  0  0  0  0  0  0
   59.6158   32.6683   48.1954 H   0  0  0  0  0  0  0  0  0  0  0  0
   57.8504   32.3578   47.8724 H   0  0  0  0  0  0  0  0  0  0  0  0
   60.2624   31.7241   46.1339 H   0  0  0  0  0  0  0  0  0  0  0  0
   61.6672   29.2637   48.0402 H   0  0  0  0  0  0  0  0  0  0  0  0
   61.2217   30.9123   47.4760 H   0  0  0  0  0  0  0  0  0  0  0  0
   61.0794   29.7338   50.1793 H   0  0  0  0  0  0  0  0  0  0  0  0
   61.0555   31.4560   49.6695 H   0  0  0  0  0  0  0  0  0  0  0  0
   59.5359   30.4982   49.6695 H   0  0  0  0  0  0  0  0  0  0  0  0
  1  2  1  0
  2  3  1  0
  3  4  1  0
  4  5  1  0
  5  6  1  0
  6  7  1  0
  5  8  1  0
  8  9  1  0
  9 10  1  0
 10 11  1  0
 11 12  1  0
 12 13  1  0
 13 14  1  0
 14 15  2  0
 15 16  1  0
 16 17  2  0
 17 18  1  0
 17 19  1  0
 19 20  2  0
 12 21  1  0
 21 22  1  0
 22 23  1  0
 23 24  2  0
 23 25  1  0
 25 26  1  0
 26 27  1  0
 22  9  1  0
 20 14  1  0
  1 28  1  0
  1 29  1  0
  1 30  1  0
  2 31  1  0
  2 32  1  0
  3 33  1  0
  3 34  1  0
  4 35  1  0
  4 36  1  0
  5 37  1  1
  6 38  1  0
  6 39  1  0
  7 40  1  0
  7 41  1  0
  7 42  1  0
  8 43  1  0
  8 44  1  0
  9 45  1  6
 10 46  1  0
 10 47  1  0
 11 48  1  0
 11 49  1  0
 13 50  1  0
 13 51  1  0
 15 52  1  0
 16 53  1  0
 19 54  1  0
 20 55  1  0
 21 56  1  0
 21 57  1  0
 22 58  1  6
 26 59  1  0
 26 60  1  0
 27 61  1  0
 27 62  1  0
 27 63  1  0
M  CHG  2   9   1  25  -1
M  END
>  <UniqueID>  (5) 
5

>  <SMILES>  (5) 
CCCC[C@H](CC)C[N@H+]1CCN(Cc2ccc(Cl)cc2)CC1C(=O)[N-]CC

>  <Energy>  (5) 
74.27326429006021

>  <Genealogy>  (5) 
CCCCC(CC)C[NH+]1CCN(Cc2ccc(Cl)cc2)CC1C(=O)[N-]CC (protonated)
CCCC[C@H](CC)C[N@H+]1CCN(Cc2ccc(Cl)cc2)CC1C(=O)[N-]CC (chirality)
CCCC[C@H](CC)C[N@H+]1CCN(Cc2ccc(Cl)cc2)CC1C(=O)[N-]CC (3D coordinates assigned)
CCCC[C@H](CC)C[N@H+]1CCN(Cc2ccc(Cl)cc2)CC1C(=O)[N-]CC (nonaromatic ring conformer: 74.27326429006021 kcal/mol)

>  <smiles>  (5) 
CCCCC(CC)CN1CCN(Cc2ccc(Cl)cc2)CC1C(=O)NCC

>  <score_type>  (5) 
oracle

>  <origin>  (5) 
adg

>  <m_score__min__energy>  (5) 
-7.0599999999999996

>  <m_primary>  (5) 
energy

$$$$
5:0
     RDKit          3D

 57 59  0  0  0  0  0  0  0  0999 V2000
   63.2820   34.1540   46.3290 C   0  0  0  0  0  0  0  0  0  0  0  0
   63.5520   33.8080   47.7980 C   0  0  0  0  0  0  0  0  0  0  0  0
   63.6860   32.3340   48.0080 N   0  0  0  0  0  0  0  0  0  0  0  0
   63.8770   32.0020   49.4420 C   0  0  0  0  0  0  0  0  0  0  0  0
   65.0480   32.7690   50.0670 C   0  0  0  0  0  0  0  0  0  0  0  0
   62.5040   31.6020   47.4780 C   0  0  0  0  0  0  0  0  0  0  0  0
   61.6140   31.0230   48.5970 C   0  0  0  0  0  0  0  0  0  0  0  0
   60.2320   31.4920   48.4750 N   0  0  0  0  0  0  0  0  0  0  0  0
   59.5660   31.6000   47.2010 C   0  0  0  0  0  0  0  0  0  0  0  0
   59.4170   32.8550   46.5810 C   0  0  0  0  0  0  0  0  0  0  0  0
   59.8250   34.0400   47.2320 C   0  0  0  0  0  0  0  0  0  0  0  0
   59.7500   35.2710   46.5850 C   0  0  0  0  0  0  0  0  0  0  0  0
   59.2690   35.3430   45.2840 C   0  0  0  0  0  0  0  0  0  0  0  0
   58.8150   34.1940   44.6400 C   0  0  0  0  0  0  0  0  0  0  0  0
   58.8290   32.9340   45.2910 C   0  0  0  0  0  0  0  0  0  0  0  0
   58.2980   31.8030   44.6990 N   0  0  0  0  0  0  0  0  0  0  0  0
   57.4410   31.9320   43.4980 C   0  0  0  0  0  0  0  0  0  0  0  0
   58.5310   30.5560   45.2490 C   0  0  0  0  0  0  0  0  0  0  0  0
   58.2250   29.3650   44.5480 C   0  0  0  0  0  0  0  0  0  0  0  0
   58.4240   28.1140   45.1270 C   0  0  0  0  0  0  0  0  0  0  0  0
   58.9400   27.9980   46.4140 C   0  0  0  0  0  0  0  0  0  0  0  0
   59.1140   26.7020   46.9340 O   0  0  0  0  0  0  0  0  0  0  0  0
   58.8440   25.4680   46.2650 C   0  0  0  0  0  0  0  0  0  0  0  0
   57.4990   24.8860   46.7030 C   0  0  0  0  0  0  0  0  0  0  0  0
   56.1230   25.7710   45.9980 Cl  0  0  0  0  0  0  0  0  0  0  0  0
   59.2910   29.1620   47.1130 C   0  0  0  0  0  0  0  0  0  0  0  0
   59.1190   30.4410   46.5360 C   0  0  0  0  0  0  0  0  0  0  0  0
   62.6061   35.0201   46.2746 H   0  0  0  0  0  0  0  0  0  0  0  0
   64.2312   34.3976   45.8292 H   0  0  0  0  0  0  0  0  0  0  0  0
   62.8150   33.2925   45.8292 H   0  0  0  0  0  0  0  0  0  0  0  0
   64.4848   34.2984   48.1132 H   0  0  0  0  0  0  0  0  0  0  0  0
   62.6975   34.1609   48.3940 H   0  0  0  0  0  0  0  0  0  0  0  0
   64.5270   31.9770   47.5020 H   0  0  0  0  0  0  0  0  0  0  0  0
   62.9567   32.2547   49.9890 H   0  0  0  0  0  0  0  0  0  0  0  0
   64.1039   30.9279   49.5109 H   0  0  0  0  0  0  0  0  0  0  0  0
   64.9744   32.7208   51.1635 H   0  0  0  0  0  0  0  0  0  0  0  0
   65.9970   32.3170   49.7430 H   0  0  0  0  0  0  0  0  0  0  0  0
   65.0128   33.8196   49.7430 H   0  0  0  0  0  0  0  0  0  0  0  0
   61.9022   32.2959   46.8728 H   0  0  0  0  0  0  0  0  0  0  0  0
   62.8761   30.7583   46.8782 H   0  0  0  0  0  0  0  0  0  0  0  0
   61.6266   29.9250   48.5326 H   0  0  0  0  0  0  0  0  0  0  0  0
   62.0108   31.3610   49.5657 H   0  0  0  0  0  0  0  0  0  0  0  0
   59.6550   31.5440   49.3460 H   0  0  0  0  0  0  0  0  0  0  0  0
   60.2066   33.9901   48.2625 H   0  0  0  0  0  0  0  0  0  0  0  0
   60.0716   36.1859   47.1041 H   0  0  0  0  0  0  0  0  0  0  0  0
   59.2464   36.3102   44.7605 H   0  0  0  0  0  0  0  0  0  0  0  0
   58.4391   34.2653   43.6087 H   0  0  0  0  0  0  0  0  0  0  0  0
   56.3972   32.0891   43.8075 H   0  0  0  0  0  0  0  0  0  0  0  0
   57.7783   32.7895   42.8972 H   0  0  0  0  0  0  0  0  0  0  0  0
   57.5110   31.0132   42.8972 H   0  0  0  0  0  0  0  0  0  0  0  0
   57.8223   29.4287   43.5263 H   0  0  0  0  0  0  0  0  0  0  0  0
   58.1701   27.2064   44.5598 H   0  0  0  0  0  0  0  0  0  0  0  0
   58.8222   25.6452   45.1796 H   0  0  0  0  0  0  0  0  0  0  0  0
   59.6360   24.7500   46.5241 H   0  0  0  0  0  0  0  0  0  0  0  0
   57.4462   23.8351   46.3825 H   0  0  0  0  0  0  0  0  0  0  0  0
   57.4327   24.9738   47.7975 H   0  0  0  0  0  0  0  0  0  0  0  0
   59.7073   29.0783   48.1277 H   0  0  0  0  0  0  0  0  0  0  0  0
  1  2  1  0
  2  3  1  0
  3  4  1  0
  4  5  1  0
  3  6  1  0
  6  7  1  0
  7  8  1  0
  8  9  1  0
  9 10  2  0
 10 11  1  0
 11 12  2  0
 12 13  1  0
 13 14  2  0
 14 15  1  0
 15 16  2  0
 16 17  1  0
 16 18  1  0
 18 19  2  0
 19 20  1  0
 20 21  2  0
 21 22  1  0
 22 23  1  0
 23 24  1  0
 24 25  1  0
 21 26  1  0
 26 27  2  0
 27  9  1  0
 15 10  1  0
 27 18  1  0
  1 28  1  0
  1 29  1  0
  1 30  1  0
  2 31  1  0
  2 32  1  0
  3 33  1  0
  4 34  1  0
  4 35  1  0
  5 36  1  0
  5 37  1  0
  5 38  1  0
  6 39  1  0
  6 40  1  0
  7 41  1  0
  7 42  1  0
  8 43  1  0
 11 44  1  0
 12 45  1  0
 13 46  1  0
 14 47  1  0
 17 48  1  0
 17 49  1  0
 17 50  1  0
 19 51  1  0
 20 52  1  0
 23 53  1  0
 23 54  1  0
 24 55  1  0
 24 56  1  0
 26 57  1  0
M  CHG  2   3   1  16   1
M  END
>  <UniqueID>  (6) 
6

>  <SMILES>  (6) 
CC[NH+](CC)CCNc1c2ccccc2[n+](C)c2ccc(OCCCl)cc12

>  <Energy>  (6) 
82.96789009783997

>  <Genealogy>  (6) 
CC[NH+](CC)CCNc1c2ccccc2[n+](C)c2ccc(OCCCl)cc12 (protonated)
CC[NH+](CC)CCNc1c2ccccc2[n+](C)c2ccc(OCCCl)cc12 (3D coordinates assigned)
CC[NH+](CC)CCNc1c2ccccc2[n+](C)c2ccc(OCCCl)cc12 (optimized conformer: 82.96789009783997 kcal/mol)

>  <smiles>  (6) 
CCN(CC)CCNc1c2ccccc2[n+](C)c2ccc(OCCCl)cc12

>  <score_type>  (6) 
oracle

>  <origin>  (6) 
adg

>  <m_score__min__energy>  (6) 
-4.5300000000000002

>  <m_primary>  (6) 
energy

$$$$
6:0
     RDKit          3D

 34 35  0  0  0  0  0  0  0  0999 V2000
   58.0370   26.4070   44.1840 C   0  0  0  0  0  0  0  0  0  0  0  0
   57.9140   27.3480   42.9830 C   0  0  0  0  0  0  0  0  0  0  0  0
   57.7470   28.7560   43.3840 N   0  0  0  0  0  0  0  0  0  0  0  0
   56.5220   29.3520   42.8230 C   0  0  0  0  0  0  0  0  0  0  0  0
   55.9310   30.4030   43.7730 C   0  0  0  0  0  0  0  0  0  0  0  0
   56.6660   30.4670   44.9960 O   0  0  0  0  0  0  0  0  0  0  0  0
   57.6350   31.4310   45.3250 C   0  0  0  0  0  0  0  0  0  0  0  0
   57.5130   32.7760   44.9320 C   0  0  0  0  0  0  0  0  0  0  0  0
   58.4930   33.7070   45.2770 C   0  0  0  0  0  0  0  0  0  0  0  0
   59.6140   33.3150   46.0150 C   0  0  0  0  0  0  0  0  0  0  0  0
   60.5950   34.2580   46.3590 C   0  0  0  0  0  0  0  0  0  0  0  0
   61.7160   33.8700   47.0950 C   0  0  0  0  0  0  0  0  0  0  0  0
   61.8670   32.5420   47.4930 C   0  0  0  0  0  0  0  0  0  0  0  0
   60.8990   31.5920   47.1590 C   0  0  0  0  0  0  0  0  0  0  0  0
   59.7590   31.9610   46.4160 C   0  0  0  0  0  0  0  0  0  0  0  0
   58.7610   31.0220   46.0620 C   0  0  0  0  0  0  0  0  0  0  0  0
   58.8810   29.1700   46.5770 Br  0  0  0  0  0  0  0  0  0  0  0  0
   57.9610   26.9884   45.1147 H   0  0  0  0  0  0  0  0  0  0  0  0
   57.2286   25.6618   44.1502 H   0  0  0  0  0  0  0  0  0  0  0  0
   59.0098   25.8946   44.1502 H   0  0  0  0  0  0  0  0  0  0  0  0
   58.8245   27.2609   42.3719 H   0  0  0  0  0  0  0  0  0  0  0  0
   57.0177   27.0530   42.4177 H   0  0  0  0  0  0  0  0  0  0  0  0
   58.5740   29.2920   43.0290 H   0  0  0  0  0  0  0  0  0  0  0  0
   57.7370   28.8270   44.4290 H   0  0  0  0  0  0  0  0  0  0  0  0
   56.7634   29.8315   41.8629 H   0  0  0  0  0  0  0  0  0  0  0  0
   55.7791   28.5532   42.6815 H   0  0  0  0  0  0  0  0  0  0  0  0
   55.9633   31.3875   43.2833 H   0  0  0  0  0  0  0  0  0  0  0  0
   54.8941   30.1182   44.0049 H   0  0  0  0  0  0  0  0  0  0  0  0
   56.6377   33.0964   44.3478 H   0  0  0  0  0  0  0  0  0  0  0  0
   58.3831   34.7565   44.9664 H   0  0  0  0  0  0  0  0  0  0  0  0
   60.4801   35.3067   46.0475 H   0  0  0  0  0  0  0  0  0  0  0  0
   62.4818   34.6133   47.3616 H   0  0  0  0  0  0  0  0  0  0  0  0
   62.7523   32.2413   48.0725 H   0  0  0  0  0  0  0  0  0  0  0  0
   61.0272   30.5472   47.4783 H   0  0  0  0  0  0  0  0  0  0  0  0
  1  2  1  0
  2  3  1  0
  3  4  1  0
  4  5  1  0
  5  6  1  0
  6  7  1  0
  7  8  2  0
  8  9  1  0
  9 10  2  0
 10 11  1  0
 11 12  2  0
 12 13  1  0
 13 14  2  0
 14 15  1  0
 15 16  2  0
 16 17  1  0
 16  7  1  0
 15 10  1  0
  1 18  1  0
  1 19  1  0
  1 20  1  0
  2 21  1  0
  2 22  1  0
  3 23  1  0
  3 24  1  0
  4 25  1  0
  4 26  1  0
  5 27  1  0
  5 28  1  0
  8 29  1  0
  9 30  1  0
 11 31  1  0
 12 32  1  0
 13 33  1  0
 14 34  1  0
M  CHG  1   3   1
M  END
>  <UniqueID>  (7) 
7

>  <SMILES>  (7) 
CC[NH2+]CCOc1ccc2ccccc2c1Br

>  <Energy>  (7) 
36.001884615918186

>  <Genealogy>  (7) 
CC[NH2+]CCOc1ccc2ccccc2c1Br (protonated)
CC[NH2+]CCOc1ccc2ccccc2c1Br (3D coordinates assigned)
CC[NH2+]CCOc1ccc2ccccc2c1Br (optimized conformer: 36.001884615918186 kcal/mol)

>  <smiles>  (7) 
CCNCCOc1ccc2ccccc2c1Br

>  <score_type>  (7) 
oracle

>  <origin>  (7) 
adg

>  <m_score__min__energy>  (7) 
-5.29

>  <m_primary>  (7) 
energy

$$$$
7:0
     RDKit          3D

 48 51  0  0  0  0  0  0  0  0999 V2000
   62.3445   34.5514   46.9299 H   0  0  0  0  0  0  0  0  0  0  0  0
   61.5780   33.7890   46.7270 C   0  0  0  0  0  0  0  0  0  0  0  0
   60.3830   34.1490   46.1000 C   0  0  0  0  0  0  0  0  0  0  0  0
   60.2103   35.1945   45.8050 H   0  0  0  0  0  0  0  0  0  0  0  0
   59.4060   33.1810   45.8470 C   0  0  0  0  0  0  0  0  0  0  0  0
   58.4693   33.4698   45.3478 H   0  0  0  0  0  0  0  0  0  0  0  0
   59.6100   31.8410   46.2250 C   0  0  0  0  0  0  0  0  0  0  0  0
   58.5630   30.8260   45.9400 C   0  0  0  0  0  0  0  0  0  0  0  0
   58.6780   29.5780   46.4910 N   0  0  0  0  0  0  0  0  0  0  0  0
   57.7290   28.6470   46.2310 C   0  0  0  0  0  0  0  0  0  0  0  0
   57.6540   27.3520   46.6800 C   0  0  0  0  0  0  0  0  0  0  0  0
   58.5680   26.6550   47.5450 C   0  0  0  0  0  0  0  0  0  0  0  0
   59.3040   26.0940   48.2400 N   0  0  0  0  0  0  0  0  0  0  0  0
   56.4820   26.8830   46.0980 C   0  0  0  0  0  0  0  0  0  0  0  0
   56.0080   25.6810   46.2500 N   0  0  0  0  0  0  0  0  0  0  0  0
   54.7800   25.1990   45.6220 C   0  0  0  0  0  0  0  0  0  0  0  0
   53.9376   25.3485   46.3134 H   0  0  0  0  0  0  0  0  0  0  0  0
   54.6131   25.7616   44.6916 H   0  0  0  0  0  0  0  0  0  0  0  0
   54.8960   23.7080   45.2840 C   0  0  0  0  0  0  0  0  0  0  0  0
   54.0834   23.1623   45.7858 H   0  0  0  0  0  0  0  0  0  0  0  0
   54.8254   23.5922   44.1924 H   0  0  0  0  0  0  0  0  0  0  0  0
   56.2410   23.1370   45.7460 C   0  0  0  0  0  0  0  0  0  0  0  0
   56.5424   23.6270   46.6836 H   0  0  0  0  0  0  0  0  0  0  0  0
   56.1376   22.0540   45.9085 H   0  0  0  0  0  0  0  0  0  0  0  0
   57.2740   23.3780   44.7120 N   0  0  0  0  0  0  0  0  0  0  0  0
   56.6900   23.8410   43.4380 C   0  0  0  0  0  0  0  0  0  0  0  0
   55.9991   24.6720   43.6435 H   0  0  0  0  0  0  0  0  0  0  0  0
   57.5112   24.1648   42.7816 H   0  0  0  0  0  0  0  0  0  0  0  0
   55.9150   22.7100   42.7200 C   0  0  0  0  0  0  0  0  0  0  0  0
   54.8374   22.8824   42.8576 H   0  0  0  0  0  0  0  0  0  0  0  0
   56.2051   22.7368   41.6593 H   0  0  0  0  0  0  0  0  0  0  0  0
   56.2310   21.4190   43.2110 O   0  0  0  0  0  0  0  0  0  0  0  0
   57.6280   21.2850   43.3610 C   0  0  0  0  0  0  0  0  0  0  0  0
   57.8669   20.2385   43.6014 H   0  0  0  0  0  0  0  0  0  0  0  0
   58.1154   21.5804   42.4202 H   0  0  0  0  0  0  0  0  0  0  0  0
   58.1430   22.1960   44.4950 C   0  0  0  0  0  0  0  0  0  0  0  0
   58.1832   21.6118   45.4262 H   0  0  0  0  0  0  0  0  0  0  0  0
   59.1388   22.5618   44.2041 H   0  0  0  0  0  0  0  0  0  0  0  0
   55.8970   27.8470   45.3440 N   0  0  0  0  0  0  0  0  0  0  0  0
   56.6790   28.9110   45.4450 N   0  0  0  0  0  0  0  0  0  0  0  0
   56.5020   30.1200   44.8580 C   0  0  0  0  0  0  0  0  0  0  0  0
   55.5090   30.3400   44.1140 O   0  0  0  0  0  0  0  0  0  0  0  0
   57.4590   31.1170   45.0960 C   0  0  0  0  0  0  0  0  0  0  0  0
   57.3558   32.1105   44.6353 H   0  0  0  0  0  0  0  0  0  0  0  0
   60.8260   31.4890   46.8460 C   0  0  0  0  0  0  0  0  0  0  0  0
   61.0100   30.4438   47.1353 H   0  0  0  0  0  0  0  0  0  0  0  0
   61.7990   32.4610   47.0960 C   0  0  0  0  0  0  0  0  0  0  0  0
   62.7426   32.1783   47.5855 H   0  0  0  0  0  0  0  0  0  0  0  0
  1  2  1  0
  2  3  2  0
  3  4  1  0
  3  5  1  0
  5  6  1  0
  5  7  2  0
  7  8  1  0
  8  9  1  0
  9 10  1  0
 10 11  2  0
 11 12  1  0
 12 13  3  0
 11 14  1  0
 14 15  2  0
 15 16  1  0
 16 17  1  0
 16 18  1  0
 16 19  1  0
 19 20  1  0
 19 21  1  0
 19 22  1  0
 22 23  1  0
 22 24  1  0
 22 25  1  0
 25 26  1  0
 26 27  1  0
 26 28  1  0
 26 29  1  0
 29 30  1  0
 29 31  1  0
 29 32  1  0
 32 33  1  0
 33 34  1  0
 33 35  1  0
 33 36  1  0
 36 37  1  0
 36 38  1  0
 14 39  1  0
 39 40  1  0
 40 41  1  0
 41 42  2  0
 41 43  1  0
 43 44  1  0
  7 45  1  0
 45 46  1  0
 45 47  2  0
 47 48  1  0
 47  2  1  0
 43  8  2  0
 40 10  1  0
 36 25  1  0
M  CHG  2   9  -1  39  -1
M  END
>  <UniqueID>  (8) 
8

>  <SMILES>  (8) 
N#Cc1/c(=N/CCCN2CCOCC2)[n-]n2c(=O)cc(-c3ccccc3)[n-]c12

>  <Energy>  (8) 
102.3217441218174

>  <Genealogy>  (8) 
N#Cc1c(=NCCCN2CCOCC2)[n-]n2c(=O)cc(-c3ccccc3)[n-]c12 (protonated)
N#Cc1/c(=N/CCCN2CCOCC2)[n-]n2c(=O)cc(-c3ccccc3)[n-]c12 (cis-trans isomerization)
N#Cc1/c(=N/CCCN2CCOCC2)[n-]n2c(=O)cc(-c3ccccc3)[n-]c12 (3D coordinates assigned)
N#Cc1/c(=N/CCCN2CCOCC2)[n-]n2c(=O)cc(-c3ccccc3)[n-]c12 (nonaromatic ring conformer: 102.3217441218174 kcal/mol)

>  <smiles>  (8) 
N#Cc1c(=NCCCN2CCOCC2)[nH]n2c(=O)cc(-c3ccccc3)[nH]c12

>  <score_type>  (8) 
oracle

>  <origin>  (8) 
adg

>  <m_score__min__energy>  (8) 
-11.48

>  <m_primary>  (8) 
energy

$$$$
8:0
     RDKit          3D

 27 28  0  0  0  0  0  0  0  0999 V2000
   57.0150   27.5460   45.5400 C   0  0  0  0  0  0  0  0  0  0  0  0
   55.9400   28.4270   45.2420 O   0  0  0  0  0  0  0  0  0  0  0  0
   56.1320   29.6700   44.6300 C   0  0  0  0  0  0  0  0  0  0  0  0
   55.1670   30.4700   44.4860 O   0  0  0  0  0  0  0  0  0  0  0  0
   57.4860   30.0350   44.1030 C   0  0  0  0  0  0  0  0  0  0  0  0
   57.9780   31.3220   44.7240 C   0  0  0  0  0  0  0  0  0  0  0  0
   57.6350   32.5380   44.1060 C   0  0  0  0  0  0  0  0  0  0  0  0
   58.0270   33.7550   44.6620 C   0  0  0  0  0  0  0  0  0  0  0  0
   58.7680   33.7780   45.8430 C   0  0  0  0  0  0  0  0  0  0  0  0
   59.1290   32.5830   46.4670 C   0  0  0  0  0  0  0  0  0  0  0  0
   59.8730   32.6320   47.6010 F   0  0  0  0  0  0  0  0  0  0  0  0
   58.7560   31.3440   45.9120 C   0  0  0  0  0  0  0  0  0  0  0  0
   59.1660   30.1320   46.5660 N   0  0  0  0  0  0  0  0  0  0  0  0
   58.6100   29.6590   47.6710 N   0  0  0  0  0  0  0  0  0  0  0  0
   59.2330   28.4990   47.9360 C   0  0  0  0  0  0  0  0  0  0  0  0
   60.1720   28.2890   46.9490 C   0  0  0  0  0  0  0  0  0  0  0  0
   60.1070   29.3260   46.0960 N   0  0  0  0  0  0  0  0  0  0  0  0
   57.1241   27.4566   46.6309 H   0  0  0  0  0  0  0  0  0  0  0  0
   56.8071   26.5552   45.1098 H   0  0  0  0  0  0  0  0  0  0  0  0
   57.9457   27.9445   45.1098 H   0  0  0  0  0  0  0  0  0  0  0  0
   58.1942   29.2273   44.3396 H   0  0  0  0  0  0  0  0  0  0  0  0
   57.4130   30.1757   43.0145 H   0  0  0  0  0  0  0  0  0  0  0  0
   57.0511   32.5287   43.1738 H   0  0  0  0  0  0  0  0  0  0  0  0
   57.7513   34.6985   44.1682 H   0  0  0  0  0  0  0  0  0  0  0  0
   59.0686   34.7400   46.2837 H   0  0  0  0  0  0  0  0  0  0  0  0
   59.0300   27.8347   48.7890 H   0  0  0  0  0  0  0  0  0  0  0  0
   60.8522   27.4278   46.8730 H   0  0  0  0  0  0  0  0  0  0  0  0
  1  2  1  0
  2  3  1  0
  3  4  2  0
  3  5  1  0
  5  6  1  0
  6  7  2  0
  7  8  1  0
  8  9  2  0
  9 10  1  0
 10 11  1  0
 10 12  2  0
 12 13  1  0
 13 14  1  0
 14 15  2  0
 15 16  1  0
 16 17  2  0
 12  6  1  0
 17 13  1  0
  1 18  1  0
  1 19  1  0
  1 20  1  0
  5 21  1  0
  5 22  1  0
  7 23  1  0
  8 24  1  0
  9 25  1  0
 15 26  1  0
 16 27  1  0
M  END
>  <UniqueID>  (9) 
9

>  <SMILES>  (9) 
COC(=O)Cc1cccc(F)c1-n1nccn1

>  <Energy>  (9) 
63.4022115653716

>  <Genealogy>  (9) 
COC(=O)Cc1cccc(F)c1-n1nccn1 (3D coordinates assigned)
COC(=O)Cc1cccc(F)c1-n1nccn1 (optimized conformer: 63.4022115653716 kcal/mol)

>  <smiles>  (9) 
COC(=O)Cc1cccc(F)c1-n1nccn1

>  <score_type>  (9) 
oracle

>  <origin>  (9) 
adg

>  <m_score__min__energy>  (9) 
-5.8200000000000003

>  <m_primary>  (9) 
energy

$$$$
9:0
     RDKit          3D

 50 50  0  0  0  0  0  0  0  0999 V2000
   58.0970   32.5530   43.6470 C   0  0  0  0  0  0  0  0  0  0  0  0
   57.7130   33.2180   44.7430 C   0  0  0  0  0  0  0  0  0  0  0  0
   58.5200   34.3610   45.2920 C   0  0  0  0  0  0  0  0  0  0  0  0
   58.7320   34.1560   46.6730 O   0  0  0  0  0  0  0  0  0  0  0  0
   60.0160   34.6280   47.0360 C   0  0  0  0  0  0  0  0  0  0  0  0
   61.0760   33.5790   46.6180 C   0  0  0  0  0  0  0  0  0  0  0  0
   61.9250   33.0110   47.7240 N   0  0  0  0  0  0  0  0  0  0  0  0
   63.2520   32.6850   47.1380 C   0  0  0  0  0  0  0  0  0  0  0  0
   62.1690   33.9940   48.8120 C   0  0  0  0  0  0  0  0  0  0  0  0
   61.3700   31.7250   48.2690 C   0  0  0  0  0  0  0  0  0  0  0  0
   60.4430   30.9740   47.3350 C   0  0  0  0  0  0  0  0  0  0  0  0
   60.9560   30.0890   46.3770 C   0  0  0  0  0  0  0  0  0  0  0  0
   60.0950   29.3350   45.5770 C   0  0  0  0  0  0  0  0  0  0  0  0
   58.6910   29.4490   45.7030 C   0  0  0  0  0  0  0  0  0  0  0  0
   57.7750   28.5590   44.8400 C   0  0  0  0  0  0  0  0  0  0  0  0
   58.5440   27.7780   43.7450 C   0  0  0  0  0  0  0  0  0  0  0  0
   57.0630   27.5250   45.7410 C   0  0  0  0  0  0  0  0  0  0  0  0
   56.7200   29.4410   44.1350 C   0  0  0  0  0  0  0  0  0  0  0  0
   58.1870   30.3780   46.6440 C   0  0  0  0  0  0  0  0  0  0  0  0
   59.0500   31.1380   47.4360 C   0  0  0  0  0  0  0  0  0  0  0  0
   57.4870   31.7202   43.2670 H   0  0  0  0  0  0  0  0  0  0  0  0
   59.0226   32.8392   43.1261 H   0  0  0  0  0  0  0  0  0  0  0  0
   56.7852   32.9212   45.2540 H   0  0  0  0  0  0  0  0  0  0  0  0
   59.4891   34.4099   44.7739 H   0  0  0  0  0  0  0  0  0  0  0  0
   57.9780   35.3055   45.1366 H   0  0  0  0  0  0  0  0  0  0  0  0
   60.2174   35.5802   46.5233 H   0  0  0  0  0  0  0  0  0  0  0  0
   60.0595   34.7871   48.1236 H   0  0  0  0  0  0  0  0  0  0  0  0
   60.5480   32.7422   46.1374 H   0  0  0  0  0  0  0  0  0  0  0  0
   61.7742   34.1147   45.9580 H   0  0  0  0  0  0  0  0  0  0  0  0
   63.9762   32.5071   47.9466 H   0  0  0  0  0  0  0  0  0  0  0  0
   63.1665   31.7812   46.5169 H   0  0  0  0  0  0  0  0  0  0  0  0
   63.5951   33.5256   46.5169 H   0  0  0  0  0  0  0  0  0  0  0  0
   62.0463   33.4997   49.7870 H   0  0  0  0  0  0  0  0  0  0  0  0
   63.1923   34.3885   48.7271 H   0  0  0  0  0  0  0  0  0  0  0  0
   61.4489   34.8212   48.7271 H   0  0  0  0  0  0  0  0  0  0  0  0
   62.2161   31.0652   48.5115 H   0  0  0  0  0  0  0  0  0  0  0  0
   60.7629   32.0015   49.1436 H   0  0  0  0  0  0  0  0  0  0  0  0
   62.0444   29.9876   46.2544 H   0  0  0  0  0  0  0  0  0  0  0  0
   60.5162   28.6400   44.8357 H   0  0  0  0  0  0  0  0  0  0  0  0
   59.2403   27.0709   44.2195 H   0  0  0  0  0  0  0  0  0  0  0  0
   57.8289   27.2242   43.1190 H   0  0  0  0  0  0  0  0  0  0  0  0
   59.1088   28.4845   43.1190 H   0  0  0  0  0  0  0  0  0  0  0  0
   57.2370   27.7777   46.7973 H   0  0  0  0  0  0  0  0  0  0  0  0
   55.9828   27.5400   45.5335 H   0  0  0  0  0  0  0  0  0  0  0  0
   57.4623   26.5213   45.5335 H   0  0  0  0  0  0  0  0  0  0  0  0
   56.1067   29.9537   44.8906 H   0  0  0  0  0  0  0  0  0  0  0  0
   57.2272   30.1876   43.5063 H   0  0  0  0  0  0  0  0  0  0  0  0
   56.0751   28.8095   43.5063 H   0  0  0  0  0  0  0  0  0  0  0  0
   57.0996   30.5032   46.7531 H   0  0  0  0  0  0  0  0  0  0  0  0
   58.6369   31.8709   48.1447 H   0  0  0  0  0  0  0  0  0  0  0  0
  1  2  2  0
  2  3  1  0
  3  4  1  0
  4  5  1  0
  5  6  1  0
  6  7  1  0
  7  8  1  0
  7  9  1  0
  7 10  1  0
 10 11  1  0
 11 12  2  0
 12 13  1  0
 13 14  2  0
 14 15  1  0
 15 16  1  0
 15 17  1  0
 15 18  1  0
 14 19  1  0
 19 20  2  0
 20 11  1  0
  1 21  1  0
  1 22  1  0
  2 23  1  0
  3 24  1  0
  3 25  1  0
  5 26  1  0
  5 27  1  0
  6 28  1  0
  6 29  1  0
  8 30  1  0
  8 31  1  0
  8 32  1  0
  9 33  1  0
  9 34  1  0
  9 35  1  0
 10 36  1  0
 10 37  1  0
 12 38  1  0
 13 39  1  0
 16 40  1  0
 16 41  1  0
 16 42  1  0
 17 43  1  0
 17 44  1  0
 17 45  1  0
 18 46  1  0
 18 47  1  0
 18 48  1  0
 19 49  1  0
 20 50  1  0
M  CHG  1   7   1
M  END
>  <UniqueID>  (10) 
10

>  <SMILES>  (10) 
C=CCOCC[N+](C)(C)Cc1ccc(C(C)(C)C)cc1

>  <Energy>  (10) 
58.10532811542032

>  <Genealogy>  (10) 
C=CCOCC[N+](C)(C)Cc1ccc(C(C)(C)C)cc1 (3D coordinates assigned)
C=CCOCC[N+](C)(C)Cc1ccc(C(C)(C)C)cc1 (optimized conformer: 58.10532811542032 kcal/mol)

>  <smiles>  (10) 
C=CCOCC[N+](C)(C)Cc1ccc(C(C)(C)C)cc1

>  <score_type>  (10) 
oracle

>  <origin>  (10) 
adg

>  <m_score__min__energy>  (10) 
-5.0899999999999999

>  <m_primary>  (10) 
energy

$$$$
10:0
     RDKit          3D

 53 55  0  0  0  0  0  0  0  0999 V2000
   55.9480   29.7030   43.0170 C   0  0  0  0  0  0  0  0  0  0  0  0
   57.0100   30.2390   43.9320 C   0  0  0  0  0  0  0  0  0  0  0  0
   57.9950   29.3820   44.4350 C   0  0  0  0  0  0  0  0  0  0  0  0
   59.0020   29.8640   45.2880 C   0  0  0  0  0  0  0  0  0  0  0  0
   59.9680   28.9420   45.8500 N   0  0  0  0  0  0  0  0  0  0  0  0
   59.3410   27.9330   46.7260 C   0  0  0  0  0  0  0  0  0  0  0  0
   59.4250   28.2890   48.2250 C   0  0  0  0  0  0  0  0  0  0  0  0
   59.9060   29.6740   48.4310 N   0  0  0  0  0  0  0  0  0  0  0  0
   61.1300   29.7020   49.2500 C   0  0  0  0  0  0  0  0  0  0  0  0
   58.8650   30.4910   49.0750 C   0  0  0  0  0  0  0  0  0  0  0  0
   59.0400   31.2410   45.6010 C   0  0  0  0  0  0  0  0  0  0  0  0
   60.0190   31.7250   46.4090 N   0  0  0  0  0  0  0  0  0  0  0  0
   60.1190   33.0350   46.7580 C   0  0  0  0  0  0  0  0  0  0  0  0
   61.1980   33.4580   47.6280 N   0  0  0  0  0  0  0  0  0  0  0  0
   60.9120   34.1850   48.8780 C   0  0  0  0  0  0  0  0  0  0  0  0
   62.1180   34.1980   49.8220 C   0  0  0  0  0  0  0  0  0  0  0  0
   63.2950   34.5440   49.1270 O   0  0  0  0  0  0  0  0  0  0  0  0
   63.6150   33.5030   48.2270 C   0  0  0  0  0  0  0  0  0  0  0  0
   62.5750   33.4150   47.1040 C   0  0  0  0  0  0  0  0  0  0  0  0
   59.1720   33.9440   46.2500 C   0  0  0  0  0  0  0  0  0  0  0  0
   58.1420   33.4960   45.4060 C   0  0  0  0  0  0  0  0  0  0  0  0
   57.1450   34.4990   44.8810 C   0  0  0  0  0  0  0  0  0  0  0  0
   58.0640   32.1220   45.0760 C   0  0  0  0  0  0  0  0  0  0  0  0
   57.0540   31.6040   44.2410 C   0  0  0  0  0  0  0  0  0  0  0  0
   55.1241   29.2872   43.6155 H   0  0  0  0  0  0  0  0  0  0  0  0
   55.5661   30.5163   42.3824 H   0  0  0  0  0  0  0  0  0  0  0  0
   56.3755   28.9127   42.3824 H   0  0  0  0  0  0  0  0  0  0  0  0
   57.9808   28.3173   44.1591 H   0  0  0  0  0  0  0  0  0  0  0  0
   60.6660   29.4840   46.4090 H   0  0  0  0  0  0  0  0  0  0  0  0
   60.5060   28.4590   45.0920 H   0  0  0  0  0  0  0  0  0  0  0  0
   58.2807   27.8400   46.4482 H   0  0  0  0  0  0  0  0  0  0  0  0
   59.8911   26.9911   46.5836 H   0  0  0  0  0  0  0  0  0  0  0  0
   58.4251   28.1883   48.6722 H   0  0  0  0  0  0  0  0  0  0  0  0
   60.1400   27.6024   48.7018 H   0  0  0  0  0  0  0  0  0  0  0  0
   60.8582   29.6958   50.3159 H   0  0  0  0  0  0  0  0  0  0  0  0
   61.7435   28.8177   49.0229 H   0  0  0  0  0  0  0  0  0  0  0  0
   61.7024   30.6135   49.0229 H   0  0  0  0  0  0  0  0  0  0  0  0
   58.9626   30.4144   50.1680 H   0  0  0  0  0  0  0  0  0  0  0  0
   58.9816   31.5412   48.7692 H   0  0  0  0  0  0  0  0  0  0  0  0
   57.8726   30.1281   48.7692 H   0  0  0  0  0  0  0  0  0  0  0  0
   60.6423   35.2226   48.6318 H   0  0  0  0  0  0  0  0  0  0  0  0
   60.0853   33.6701   49.3894 H   0  0  0  0  0  0  0  0  0  0  0  0
   61.9422   34.9329   50.6214 H   0  0  0  0  0  0  0  0  0  0  0  0
   62.2432   33.1914   50.2475 H   0  0  0  0  0  0  0  0  0  0  0  0
   64.6045   33.6976   47.7877 H   0  0  0  0  0  0  0  0  0  0  0  0
   63.6209   32.5506   48.7774 H   0  0  0  0  0  0  0  0  0  0  0  0
   62.7209   34.2613   46.4166 H   0  0  0  0  0  0  0  0  0  0  0  0
   62.7132   32.4552   46.5847 H   0  0  0  0  0  0  0  0  0  0  0  0
   59.2386   35.0096   46.5149 H   0  0  0  0  0  0  0  0  0  0  0  0
   56.6482   34.9988   45.7257 H   0  0  0  0  0  0  0  0  0  0  0  0
   57.6669   35.2480   44.2673 H   0  0  0  0  0  0  0  0  0  0  0  0
   56.3929   33.9816   44.2673 H   0  0  0  0  0  0  0  0  0  0  0  0
   56.2912   32.2799   43.8271 H   0  0  0  0  0  0  0  0  0  0  0  0
  1  2  1  0
  2  3  2  0
  3  4  1  0
  4  5  1  0
  5  6  1  0
  6  7  1  0
  7  8  1  0
  8  9  1  0
  8 10  1  0
  4 11  2  0
 11 12  1  0
 12 13  2  0
 13 14  1  0
 14 15  1  0
 15 16  1  0
 16 17  1  0
 17 18  1  0
 18 19  1  0
 13 20  1  0
 20 21  2  0
 21 22  1  0
 21 23  1  0
 23 24  2  0
 24  2  1  0
 23 11  1  0
 19 14  1  0
  1 25  1  0
  1 26  1  0
  1 27  1  0
  3 28  1  0
  5 29  1  0
  5 30  1  0
  6 31  1  0
  6 32  1  0
  7 33  1  0
  7 34  1  0
  9 35  1  0
  9 36  1  0
  9 37  1  0
 10 38  1  0
 10 39  1  0
 10 40  1  0
 15 41  1  0
 15 42  1  0
 16 43  1  0
 16 44  1  0
 18 45  1  0
 18 46  1  0
 19 47  1  0
 19 48  1  0
 20 49  1  0
 22 50  1  0
 22 51  1  0
 22 52  1  0
 24 53  1  0
M  CHG  1   5   1
M  END
>  <UniqueID>  (11) 
11

>  <SMILES>  (11) 
Cc1cc([NH2+]CCN(C)C)c2nc(N3CCOCC3)cc(C)c2c1

>  <Energy>  (11) 
61.63462278787274

>  <Genealogy>  (11) 
Cc1cc([NH2+]CCN(C)C)c2nc(N3CCOCC3)cc(C)c2c1 (protonated)
Cc1cc([NH2+]CCN(C)C)c2nc(N3CCOCC3)cc(C)c2c1 (3D coordinates assigned)
Cc1cc([NH2+]CCN(C)C)c2nc(N3CCOCC3)cc(C)c2c1 (nonaromatic ring conformer: 61.63462278787274 kcal/mol)

>  <smiles>  (11) 
Cc1cc(NCCN(C)C)c2nc(N3CCOCC3)cc(C)c2c1

>  <score_type>  (11) 
oracle

>  <origin>  (11) 
adg

>  <m_score__min__energy>  (11) 
-5.4299999999999997

>  <m_primary>  (11) 
energy

$$$$
11:0
     RDKit          3D

 48 48  0  0  0  0  0  0  0  0999 V2000
   60.0140   35.3280   46.4110 C   0  0  0  0  0  0  0  0  0  0  0  0
   59.2120   34.7560   45.5110 C   0  0  0  0  0  0  0  0  0  0  0  0
   57.8880   34.1730   45.9170 C   0  0  0  0  0  0  0  0  0  0  0  0
   57.9120   32.6680   45.8160 C   0  0  0  0  0  0  0  0  0  0  0  0
   57.3640   32.0380   44.6870 C   0  0  0  0  0  0  0  0  0  0  0  0
   57.3860   30.6450   44.5740 C   0  0  0  0  0  0  0  0  0  0  0  0
   56.6160   29.7990   43.0460 Br  0  0  0  0  0  0  0  0  0  0  0  0
   57.9650   29.8720   45.5820 C   0  0  0  0  0  0  0  0  0  0  0  0
   58.5230   30.4870   46.7060 C   0  0  0  0  0  0  0  0  0  0  0  0
   58.5000   31.8880   46.8350 C   0  0  0  0  0  0  0  0  0  0  0  0
   59.0820   32.5330   47.9370 O   0  0  0  0  0  0  0  0  0  0  0  0
   58.6980   32.3360   49.2980 C   0  0  0  0  0  0  0  0  0  0  0  0
   59.3050   33.4220   50.1810 C   0  0  0  0  0  0  0  0  0  0  0  0
   60.3070   34.1180   49.4690 O   0  0  0  0  0  0  0  0  0  0  0  0
   61.5690   33.8350   50.0360 C   0  0  0  0  0  0  0  0  0  0  0  0
   62.3050   32.7260   49.2480 C   0  0  0  0  0  0  0  0  0  0  0  0
   61.7430   32.3650   47.9100 N   0  0  0  0  0  0  0  0  0  0  0  0
   62.3580   33.1040   46.7770 C   0  0  0  0  0  0  0  0  0  0  0  0
   63.7720   33.6070   47.0960 C   0  0  0  0  0  0  0  0  0  0  0  0
   61.7680   30.8990   47.6570 C   0  0  0  0  0  0  0  0  0  0  0  0
   61.1430   30.0850   48.7980 C   0  0  0  0  0  0  0  0  0  0  0  0
   60.9801   35.7501   46.0972 H   0  0  0  0  0  0  0  0  0  0  0  0
   59.7090   35.3775   47.4667 H   0  0  0  0  0  0  0  0  0  0  0  0
   59.5244   34.7106   44.4573 H   0  0  0  0  0  0  0  0  0  0  0  0
   57.6703   34.4613   46.9560 H   0  0  0  0  0  0  0  0  0  0  0  0
   57.1105   34.5594   45.2416 H   0  0  0  0  0  0  0  0  0  0  0  0
   56.9147   32.6444   43.8867 H   0  0  0  0  0  0  0  0  0  0  0  0
   57.9821   28.7759   45.4913 H   0  0  0  0  0  0  0  0  0  0  0  0
   58.9827   29.8726   47.4941 H   0  0  0  0  0  0  0  0  0  0  0  0
   57.6015   32.3761   49.3753 H   0  0  0  0  0  0  0  0  0  0  0  0
   59.0635   31.3547   49.6348 H   0  0  0  0  0  0  0  0  0  0  0  0
   58.5174   34.1271   50.4850 H   0  0  0  0  0  0  0  0  0  0  0  0
   59.7518   32.9561   51.0717 H   0  0  0  0  0  0  0  0  0  0  0  0
   62.1805   34.7493   50.0231 H   0  0  0  0  0  0  0  0  0  0  0  0
   61.4148   33.4835   51.0669 H   0  0  0  0  0  0  0  0  0  0  0  0
   63.3422   33.0587   49.0948 H   0  0  0  0  0  0  0  0  0  0  0  0
   62.1985   31.8182   49.8600 H   0  0  0  0  0  0  0  0  0  0  0  0
   60.7340   32.6480   47.9240 H   0  0  0  0  0  0  0  0  0  0  0  0
   62.4111   32.4332   45.9068 H   0  0  0  0  0  0  0  0  0  0  0  0
   61.7301   33.9842   46.5745 H   0  0  0  0  0  0  0  0  0  0  0  0
   63.9068   33.6549   48.1867 H   0  0  0  0  0  0  0  0  0  0  0  0
   64.5125   32.9171   46.6650 H   0  0  0  0  0  0  0  0  0  0  0  0
   63.9105   34.6095   46.6650 H   0  0  0  0  0  0  0  0  0  0  0  0
   61.2094   30.6929   46.7320 H   0  0  0  0  0  0  0  0  0  0  0  0
   62.8223   30.5963   47.5748 H   0  0  0  0  0  0  0  0  0  0  0  0
   61.4633   30.5021   49.7642 H   0  0  0  0  0  0  0  0  0  0  0  0
   60.0465   30.1317   48.7238 H   0  0  0  0  0  0  0  0  0  0  0  0
   61.4713   29.0377   48.7238 H   0  0  0  0  0  0  0  0  0  0  0  0
  1  2  2  0
  2  3  1  0
  3  4  1  0
  4  5  2  0
  5  6  1  0
  6  7  1  0
  6  8  2  0
  8  9  1  0
  9 10  2  0
 10 11  1  0
 11 12  1  0
 12 13  1  0
 13 14  1  0
 14 15  1  0
 15 16  1  0
 16 17  1  0
 17 18  1  0
 18 19  1  0
 17 20  1  0
 20 21  1  0
 10  4  1  0
  1 22  1  0
  1 23  1  0
  2 24  1  0
  3 25  1  0
  3 26  1  0
  5 27  1  0
  8 28  1  0
  9 29  1  0
 12 30  1  0
 12 31  1  0
 13 32  1  0
 13 33  1  0
 15 34  1  0
 15 35  1  0
 16 36  1  0
 16 37  1  0
 17 38  1  0
 18 39  1  0
 18 40  1  0
 19 41  1  0
 19 42  1  0
 19 43  1  0
 20 44  1  0
 20 45  1  0
 21 46  1  0
 21 47  1  0
 21 48  1  0
M  CHG  1  17   1
M  END
>  <UniqueID>  (12) 
12

>  <SMILES>  (12) 
C=CCc1cc(Br)ccc1OCCOCC[NH+](CC)CC

>  <Energy>  (12) 
44.258121917174506

>  <Genealogy>  (12) 
C=CCc1cc(Br)ccc1OCCOCC[NH+](CC)CC (protonated)
C=CCc1cc(Br)ccc1OCCOCC[NH+](CC)CC (3D coordinates assigned)
C=CCc1cc(Br)ccc1OCCOCC[NH+](CC)CC (optimized conformer: 44.258121917174506 kcal/mol)

>  <smiles>  (12) 
C=CCc1cc(Br)ccc1OCCOCCN(CC)CC

>  <score_type>  (12) 
oracle

>  <origin>  (12) 
adg

>  <m_score__min__energy>  (12) 
-3.6800000000000002

>  <m_primary>  (12) 
energy

$$$$
12:0
     RDKit          3D

 50 51  0  0  0  0  0  0  0  0999 V2000
   60.3670   30.6220   47.8480 C   0  0  0  0  0  0  0  0  0  0  0  0
   61.2300   30.7330   49.0980 C   0  0  0  0  0  0  0  0  0  0  0  0
   61.5850   32.1380   49.3330 N   0  0  0  0  0  0  0  0  0  0  0  0
   62.9860   32.3010   49.7570 C   0  0  0  0  0  0  0  0  0  0  0  0
   63.9480   32.5570   48.5880 C   0  0  0  0  0  0  0  0  0  0  0  0
   63.2490   32.4690   47.3630 O   0  0  0  0  0  0  0  0  0  0  0  0
   62.7550   33.7380   46.9780 C   0  0  0  0  0  0  0  0  0  0  0  0
   61.3440   33.6140   46.3970 C   0  0  0  0  0  0  0  0  0  0  0  0
   60.4350   34.5890   47.0440 N   0  0  0  0  0  0  0  0  0  0  0  0
   59.4730   33.9450   47.9720 C   0  0  0  0  0  0  0  0  0  0  0  0
   58.1380   33.5690   47.2950 C   0  0  0  0  0  0  0  0  0  0  0  0
   58.3380   33.3880   45.8470 N   0  0  0  0  0  0  0  0  0  0  0  0
   57.1350   32.8280   45.2000 C   0  0  0  0  0  0  0  0  0  0  0  0
   57.3860   31.4050   44.7750 C   0  0  0  0  0  0  0  0  0  0  0  0
   56.4040   30.7080   44.0550 C   0  0  0  0  0  0  0  0  0  0  0  0
   56.6360   29.3950   43.6380 C   0  0  0  0  0  0  0  0  0  0  0  0
   57.8510   28.7650   43.9340 C   0  0  0  0  0  0  0  0  0  0  0  0
   58.1070   27.1120   43.3900 Cl  0  0  0  0  0  0  0  0  0  0  0  0
   58.8400   29.4580   44.6520 C   0  0  0  0  0  0  0  0  0  0  0  0
   60.3810   28.7050   45.0380 Cl  0  0  0  0  0  0  0  0  0  0  0  0
   58.6050   30.7740   45.0690 C   0  0  0  0  0  0  0  0  0  0  0  0
   58.7200   34.6690   45.2160 C   0  0  0  0  0  0  0  0  0  0  0  0
   59.7450   35.4520   46.0660 C   0  0  0  0  0  0  0  0  0  0  0  0
   59.3150   30.4867   48.1396 H   0  0  0  0  0  0  0  0  0  0  0  0
   60.4668   31.5404   47.2508 H   0  0  0  0  0  0  0  0  0  0  0  0
   60.6959   29.7588   47.2508 H   0  0  0  0  0  0  0  0  0  0  0  0
   60.6708   30.3478   49.9634 H   0  0  0  0  0  0  0  0  0  0  0  0
   62.1487   30.1442   48.9590 H   0  0  0  0  0  0  0  0  0  0  0  0
   61.4140   32.6880   48.4590 H   0  0  0  0  0  0  0  0  0  0  0  0
   63.0442   33.1531   50.4502 H   0  0  0  0  0  0  0  0  0  0  0  0
   63.2945   31.3583   50.2326 H   0  0  0  0  0  0  0  0  0  0  0  0
   64.3843   33.5618   48.6878 H   0  0  0  0  0  0  0  0  0  0  0  0
   64.7475   31.8017   48.6043 H   0  0  0  0  0  0  0  0  0  0  0  0
   62.7268   34.3971   47.8582 H   0  0  0  0  0  0  0  0  0  0  0  0
   63.4194   34.1584   46.2087 H   0  0  0  0  0  0  0  0  0  0  0  0
   61.3780   33.8117   45.3154 H   0  0  0  0  0  0  0  0  0  0  0  0
   60.9685   32.5968   46.5820 H   0  0  0  0  0  0  0  0  0  0  0  0
   59.9325   33.0294   48.3726 H   0  0  0  0  0  0  0  0  0  0  0  0
   59.2452   34.6724   48.7651 H   0  0  0  0  0  0  0  0  0  0  0  0
   57.7607   32.6318   47.7301 H   0  0  0  0  0  0  0  0  0  0  0  0
   57.4106   34.3776   47.4596 H   0  0  0  0  0  0  0  0  0  0  0  0
   56.2959   32.8520   45.9109 H   0  0  0  0  0  0  0  0  0  0  0  0
   56.8928   33.4299   44.3117 H   0  0  0  0  0  0  0  0  0  0  0  0
   55.4477   31.1973   43.8179 H   0  0  0  0  0  0  0  0  0  0  0  0
   55.8612   28.8540   43.0750 H   0  0  0  0  0  0  0  0  0  0  0  0
   59.3801   31.3164   45.6302 H   0  0  0  0  0  0  0  0  0  0  0  0
   59.1616   34.4611   44.2302 H   0  0  0  0  0  0  0  0  0  0  0  0
   57.8136   35.2856   45.1250 H   0  0  0  0  0  0  0  0  0  0  0  0
   60.4949   35.8968   45.3953 H   0  0  0  0  0  0  0  0  0  0  0  0
   59.1984   36.2254   46.6255 H   0  0  0  0  0  0  0  0  0  0  0  0
  1  2  1  0
  2  3  1  0
  3  4  1  0
  4  5  1  0
  5  6  1  0
  6  7  1  0
  7  8  1  0
  8  9  1  0
  9 10  1  0
 10 11  1  0
 11 12  1  0
 12 13  1  0
 13 14  1  0
 14 15  2  0
 15 16  1  0
 16 17  2  0
 17 18  1  0
 17 19  1  0
 19 20  1  0
 19 21  2  0
 12 22  1  0
 22 23  1  0
 23  9  1  0
 21 14  1  0
  1 24  1  0
  1 25  1  0
  1 26  1  0
  2 27  1  0
  2 28  1  0
  3 29  1  0
  4 30  1  0
  4 31  1  0
  5 32  1  0
  5 33  1  0
  7 34  1  0
  7 35  1  0
  8 36  1  0
  8 37  1  0
 10 38  1  0
 10 39  1  0
 11 40  1  0
 11 41  1  0
 13 42  1  0
 13 43  1  0
 15 44  1  0
 16 45  1  0
 21 46  1  0
 22 47  1  0
 22 48  1  0
 23 49  1  0
 23 50  1  0
M  END
>  <UniqueID>  (13) 
13

>  <SMILES>  (13) 
CCNCCOCCN1CCN(Cc2ccc(Cl)c(Cl)c2)CC1

>  <Energy>  (13) 
56.663431645507

>  <Genealogy>  (13) 
CCNCCOCCN1CCN(Cc2ccc(Cl)c(Cl)c2)CC1 (3D coordinates assigned)
CCNCCOCCN1CCN(Cc2ccc(Cl)c(Cl)c2)CC1 (nonaromatic ring conformer: 56.663431645507 kcal/mol)

>  <smiles>  (13) 
CCNCCOCCN1CCN(Cc2ccc(Cl)c(Cl)c2)CC1

>  <score_type>  (13) 
oracle

>  <origin>  (13) 
adg

>  <m_score__min__energy>  (13) 
-7.2599999999999998

>  <m_primary>  (13) 
energy

$$$$
13:0
     RDKit          3D

 51 54  0  0  0  0  0  0  0  0999 V2000
   57.4240   31.9860   41.8340 C   0  0  0  0  0  0  0  0  0  0  0  0
   57.7900   32.0690   43.2920 C   0  0  0  0  0  0  0  0  0  0  0  0
   58.5370   33.1700   43.7430 C   0  0  0  0  0  0  0  0  0  0  0  0
   58.8970   33.2870   45.0850 C   0  0  0  0  0  0  0  0  0  0  0  0
   58.5210   32.3030   46.0090 C   0  0  0  0  0  0  0  0  0  0  0  0
   58.9010   32.4230   47.4360 C   0  0  0  0  0  0  0  0  0  0  0  0
   58.1710   33.0910   48.2200 O   0  0  0  0  0  0  0  0  0  0  0  0
   60.0780   31.7720   47.9540 N   0  0  0  0  0  0  0  0  0  0  0  0
   59.9220   30.5820   48.8030 C   0  0  0  0  0  0  0  0  0  0  0  0
   60.7640   30.7340   50.0680 C   0  0  0  0  0  0  0  0  0  0  0  0
   62.2410   30.9170   49.7090 C   0  0  0  0  0  0  0  0  0  0  0  0
   62.4450   31.9750   48.6510 C   0  0  0  0  0  0  0  0  0  0  0  0
   63.7230   32.5330   48.4810 C   0  0  0  0  0  0  0  0  0  0  0  0
   63.9610   33.4570   47.4650 C   0  0  0  0  0  0  0  0  0  0  0  0
   62.9320   33.8210   46.5960 C   0  0  0  0  0  0  0  0  0  0  0  0
   61.6580   33.2660   46.7440 C   0  0  0  0  0  0  0  0  0  0  0  0
   61.3960   32.3450   47.7790 C   0  0  0  0  0  0  0  0  0  0  0  0
   57.7600   31.2080   45.5690 C   0  0  0  0  0  0  0  0  0  0  0  0
   57.3900   31.0770   44.2200 C   0  0  0  0  0  0  0  0  0  0  0  0
   56.4400   29.6650   43.7260 S   0  0  0  0  0  0  0  0  0  0  0  0
   56.0210   29.8270   42.2930 O   0  0  0  0  0  0  0  0  0  0  0  0
   55.2000   29.5500   44.5690 O   0  0  0  0  0  0  0  0  0  0  0  0
   57.3880   28.2270   43.9550 N   0  0  0  0  0  0  0  0  0  0  0  0
   58.3630   28.0840   44.9960 C   0  0  0  0  0  0  0  0  0  0  0  0
   57.9740   27.5500   46.2350 C   0  0  0  0  0  0  0  0  0  0  0  0
   58.9020   27.4220   47.2720 C   0  0  0  0  0  0  0  0  0  0  0  0
   60.2220   27.8410   47.0870 C   0  0  0  0  0  0  0  0  0  0  0  0
   61.1200   27.7170   48.0930 F   0  0  0  0  0  0  0  0  0  0  0  0
   60.6110   28.4000   45.8670 C   0  0  0  0  0  0  0  0  0  0  0  0
   59.6850   28.5290   44.8260 C   0  0  0  0  0  0  0  0  0  0  0  0
   56.3554   31.7437   41.7374 H   0  0  0  0  0  0  0  0  0  0  0  0
   57.6260   32.9528   41.3496 H   0  0  0  0  0  0  0  0  0  0  0  0
   58.0232   31.2009   41.3496 H   0  0  0  0  0  0  0  0  0  0  0  0
   58.8416   33.9492   43.0288 H   0  0  0  0  0  0  0  0  0  0  0  0
   59.4799   34.1574   45.4205 H   0  0  0  0  0  0  0  0  0  0  0  0
   58.8637   30.4677   49.0805 H   0  0  0  0  0  0  0  0  0  0  0  0
   60.2581   29.6937   48.2480 H   0  0  0  0  0  0  0  0  0  0  0  0
   60.4165   31.6128   50.6309 H   0  0  0  0  0  0  0  0  0  0  0  0
   60.6559   29.8258   50.6791 H   0  0  0  0  0  0  0  0  0  0  0  0
   62.7917   31.2111   50.6147 H   0  0  0  0  0  0  0  0  0  0  0  0
   62.6112   29.9623   49.3071 H   0  0  0  0  0  0  0  0  0  0  0  0
   64.5415   32.2387   49.1544 H   0  0  0  0  0  0  0  0  0  0  0  0
   64.9612   33.8997   47.3482 H   0  0  0  0  0  0  0  0  0  0  0  0
   63.1240   34.5469   45.7921 H   0  0  0  0  0  0  0  0  0  0  0  0
   60.8543   33.5495   46.0485 H   0  0  0  0  0  0  0  0  0  0  0  0
   57.4484   30.4402   46.2924 H   0  0  0  0  0  0  0  0  0  0  0  0
   57.4280   27.5680   43.1440 H   0  0  0  0  0  0  0  0  0  0  0  0
   56.9329   27.2306   46.3903 H   0  0  0  0  0  0  0  0  0  0  0  0
   58.5927   26.9907   48.2355 H   0  0  0  0  0  0  0  0  0  0  0  0
   61.6476   28.7394   45.7246 H   0  0  0  0  0  0  0  0  0  0  0  0
   59.9929   28.9803   43.8713 H   0  0  0  0  0  0  0  0  0  0  0  0
  1  2  1  0
  2  3  2  0
  3  4  1  0
  4  5  2  0
  5  6  1  0
  6  7  2  0
  6  8  1  0
  8  9  1  0
  9 10  1  0
 10 11  1  0
 11 12  1  0
 12 13  2  0
 13 14  1  0
 14 15  2  0
 15 16  1  0
 16 17  2  0
  5 18  1  0
 18 19  2  0
 19 20  1  0
 20 21  2  0
 20 22  2  0
 20 23  1  0
 23 24  1  0
 24 25  2  0
 25 26  1  0
 26 27  2  0
 27 28  1  0
 27 29  1  0
 29 30  2  0
 19  2  1  0
 30 24  1  0
 17  8  1  0
 17 12  1  0
  1 31  1  0
  1 32  1  0
  1 33  1  0
  3 34  1  0
  4 35  1  0
  9 36  1  0
  9 37  1  0
 10 38  1  0
 10 39  1  0
 11 40  1  0
 11 41  1  0
 13 42  1  0
 14 43  1  0
 15 44  1  0
 16 45  1  0
 18 46  1  0
 23 47  1  0
 25 48  1  0
 26 49  1  0
 29 50  1  0
 30 51  1  0
M  END
>  <UniqueID>  (14) 
14

>  <SMILES>  (14) 
Cc1ccc(C(=O)N2CCCc3ccccc32)cc1S(=O)(=O)Nc1ccc(F)cc1

>  <Energy>  (14) 
70.56742981510708

>  <Genealogy>  (14) 
Cc1ccc(C(=O)N2CCCc3ccccc32)cc1S(=O)(=O)Nc1ccc(F)cc1 (3D coordinates assigned)
Cc1ccc(C(=O)N2CCCc3ccccc32)cc1S(=O)(=O)Nc1ccc(F)cc1 (nonaromatic ring conformer: 70.56742981510708 kcal/mol)

>  <smiles>  (14) 
Cc1ccc(C(=O)N2CCCc3ccccc32)cc1S(=O)(=O)Nc1ccc(F)cc1

>  <score_type>  (14) 
oracle

>  <origin>  (14) 
adg

>  <m_score__min__energy>  (14) 
-10.140000000000001

>  <m_primary>  (14) 
energy

$$$$
14:0
     RDKit          3D

 42 42  0  0  0  0  0  0  0  0999 V2000
   59.6500   33.6560   49.2650 C   0  0  0  0  0  0  0  0  0  0  0  0
   60.8060   34.2570   48.4650 C   0  0  0  0  0  0  0  0  0  0  0  0
   60.6330   34.0150   47.0150 N   0  0  0  0  0  0  0  0  0  0  0  0
   59.8310   35.0850   46.3680 C   0  0  0  0  0  0  0  0  0  0  0  0
   59.0070   34.4900   45.2330 C   0  0  0  0  0  0  0  0  0  0  0  0
   61.9500   33.8410   46.3570 C   0  0  0  0  0  0  0  0  0  0  0  0
   63.0670   33.6720   47.4060 C   0  0  0  0  0  0  0  0  0  0  0  0
   63.4930   32.2680   47.5570 N   0  0  0  0  0  0  0  0  0  0  0  0
   62.9580   31.6530   48.7850 C   0  0  0  0  0  0  0  0  0  0  0  0
   61.7190   30.8070   48.4850 C   0  0  0  0  0  0  0  0  0  0  0  0
   61.6200   30.5680   47.0830 O   0  0  0  0  0  0  0  0  0  0  0  0
   60.4100   30.4210   46.3880 C   0  0  0  0  0  0  0  0  0  0  0  0
   59.3330   31.3150   46.5480 C   0  0  0  0  0  0  0  0  0  0  0  0
   58.1480   31.1250   45.8300 C   0  0  0  0  0  0  0  0  0  0  0  0
   58.0260   30.0450   44.9500 C   0  0  0  0  0  0  0  0  0  0  0  0
   56.4060   29.7870   43.9710 Br  0  0  0  0  0  0  0  0  0  0  0  0
   59.0910   29.1550   44.7870 C   0  0  0  0  0  0  0  0  0  0  0  0
   60.2770   29.3430   45.5040 C   0  0  0  0  0  0  0  0  0  0  0  0
   59.8542   33.7622   50.3406 H   0  0  0  0  0  0  0  0  0  0  0  0
   58.7177   34.1836   49.0150 H   0  0  0  0  0  0  0  0  0  0  0  0
   59.5463   32.5898   49.0150 H   0  0  0  0  0  0  0  0  0  0  0  0
   60.8430   35.3413   48.6464 H   0  0  0  0  0  0  0  0  0  0  0  0
   61.7417   33.7786   48.7899 H   0  0  0  0  0  0  0  0  0  0  0  0
   59.1579   35.5379   47.1108 H   0  0  0  0  0  0  0  0  0  0  0  0
   60.5058   35.8547   45.9652 H   0  0  0  0  0  0  0  0  0  0  0  0
   58.1823   33.8945   45.6517 H   0  0  0  0  0  0  0  0  0  0  0  0
   58.5961   35.3011   44.6139 H   0  0  0  0  0  0  0  0  0  0  0  0
   59.6477   33.8448   44.6139 H   0  0  0  0  0  0  0  0  0  0  0  0
   61.9181   32.9471   45.7167 H   0  0  0  0  0  0  0  0  0  0  0  0
   62.1644   34.7358   45.7542 H   0  0  0  0  0  0  0  0  0  0  0  0
   63.9351   34.2726   47.0967 H   0  0  0  0  0  0  0  0  0  0  0  0
   62.6683   34.0062   48.3752 H   0  0  0  0  0  0  0  0  0  0  0  0
   64.5400   32.2590   47.6000 H   0  0  0  0  0  0  0  0  0  0  0  0
   63.1990   31.7120   46.7210 H   0  0  0  0  0  0  0  0  0  0  0  0
   63.7316   31.0108   49.2312 H   0  0  0  0  0  0  0  0  0  0  0  0
   62.6719   32.4556   49.4807 H   0  0  0  0  0  0  0  0  0  0  0  0
   61.7975   29.8457   49.0138 H   0  0  0  0  0  0  0  0  0  0  0  0
   60.8224   31.3468   48.8236 H   0  0  0  0  0  0  0  0  0  0  0  0
   59.4244   32.1652   47.2399 H   0  0  0  0  0  0  0  0  0  0  0  0
   57.3103   31.8264   45.9577 H   0  0  0  0  0  0  0  0  0  0  0  0
   58.9964   28.3059   44.0942 H   0  0  0  0  0  0  0  0  0  0  0  0
   61.1117   28.6387   45.3726 H   0  0  0  0  0  0  0  0  0  0  0  0
  1  2  1  0
  2  3  1  0
  3  4  1  0
  4  5  1  0
  3  6  1  0
  6  7  1  0
  7  8  1  0
  8  9  1  0
  9 10  1  0
 10 11  1  0
 11 12  1  0
 12 13  2  0
 13 14  1  0
 14 15  2  0
 15 16  1  0
 15 17  1  0
 17 18  2  0
 18 12  1  0
  1 19  1  0
  1 20  1  0
  1 21  1  0
  2 22  1  0
  2 23  1  0
  4 24  1  0
  4 25  1  0
  5 26  1  0
  5 27  1  0
  5 28  1  0
  6 29  1  0
  6 30  1  0
  7 31  1  0
  7 32  1  0
  8 33  1  0
  8 34  1  0
  9 35  1  0
  9 36  1  0
 10 37  1  0
 10 38  1  0
 13 39  1  0
 14 40  1  0
 17 41  1  0
 18 42  1  0
M  CHG  1   8   1
M  END
>  <UniqueID>  (15) 
15

>  <SMILES>  (15) 
CCN(CC)CC[NH2+]CCOc1ccc(Br)cc1

>  <Energy>  (15) 
35.60157622423474

>  <Genealogy>  (15) 
CCN(CC)CC[NH2+]CCOc1ccc(Br)cc1 (protonated)
CCN(CC)CC[NH2+]CCOc1ccc(Br)cc1 (3D coordinates assigned)
CCN(CC)CC[NH2+]CCOc1ccc(Br)cc1 (optimized conformer: 35.60157622423474 kcal/mol)

>  <smiles>  (15) 
CCN(CC)CCNCCOc1ccc(Br)cc1

>  <score_type>  (15) 
oracle

>  <origin>  (15) 
adg

>  <m_score__min__energy>  (15) 
-3.8399999999999999

>  <m_primary>  (15) 
energy

$$$$
15:0
     RDKit          3D

 49 50  0  0  0  0  0  0  0  0999 V2000
   57.9622   33.9930   43.1074 H   0  0  0  0  0  0  0  0  0  0  0  0
   58.0510   33.2180   43.8830 C   0  0  0  0  0  0  0  0  0  0  0  0
   58.2440   32.0030   43.4750 N   0  0  0  0  0  0  0  0  0  0  0  0
   57.3600   31.1840   42.6650 C   0  0  0  0  0  0  0  0  0  0  0  0
   57.9588   30.6458   41.9155 H   0  0  0  0  0  0  0  0  0  0  0  0
   56.6263   31.8447   42.1801 H   0  0  0  0  0  0  0  0  0  0  0  0
   56.5980   30.1650   43.5180 C   0  0  0  0  0  0  0  0  0  0  0  0
   55.6520   29.9184   43.0137 H   0  0  0  0  0  0  0  0  0  0  0  0
   56.4209   30.6174   44.5049 H   0  0  0  0  0  0  0  0  0  0  0  0
   57.4010   28.8630   43.7320 C   0  0  0  0  0  0  0  0  0  0  0  0
   58.1176   28.7589   42.9040 H   0  0  0  0  0  0  0  0  0  0  0  0
   56.6704   28.0414   43.7668 H   0  0  0  0  0  0  0  0  0  0  0  0
   58.1560   28.8200   45.0110 N   0  0  0  0  0  0  0  0  0  0  0  0
   58.2940   27.4430   45.5400 C   0  0  0  0  0  0  0  0  0  0  0  0
   58.9657   27.4512   46.4111 H   0  0  0  0  0  0  0  0  0  0  0  0
   58.7121   26.7919   44.7582 H   0  0  0  0  0  0  0  0  0  0  0  0
   56.9270   26.9160   45.9590 C   0  0  0  0  0  0  0  0  0  0  0  0
   56.8641   26.8918   47.0569 H   0  0  0  0  0  0  0  0  0  0  0  0
   56.1419   27.5759   45.5613 H   0  0  0  0  0  0  0  0  0  0  0  0
   56.7881   25.8999   45.5613 H   0  0  0  0  0  0  0  0  0  0  0  0
   59.4440   29.5480   45.0000 C   0  0  0  0  0  0  0  0  0  0  0  0
   59.4556   30.2371   44.1426 H   0  0  0  0  0  0  0  0  0  0  0  0
   59.5343   30.0951   45.9500 H   0  0  0  0  0  0  0  0  0  0  0  0
   60.6360   28.5970   44.8860 C   0  0  0  0  0  0  0  0  0  0  0  0
   60.9823   28.3207   45.8929 H   0  0  0  0  0  0  0  0  0  0  0  0
   60.3315   27.6910   44.3416 H   0  0  0  0  0  0  0  0  0  0  0  0
   61.4517   29.0952   44.3416 H   0  0  0  0  0  0  0  0  0  0  0  0
   57.9350   33.6790   45.3300 C   0  0  2  0  0  0  0  0  0  0  0  0
   56.9549   34.1747   45.3910 H   0  0  0  0  0  0  0  0  0  0  0  0
   58.9520   34.7340   45.7170 C   0  0  0  0  0  0  0  0  0  0  0  0
   59.4150   35.4820   44.8690 O   0  0  0  0  0  0  0  0  0  0  0  0
   59.2720   34.9800   47.1700 C   0  0  0  0  0  0  0  0  0  0  0  0
   58.4476   35.5488   47.6248 H   0  0  0  0  0  0  0  0  0  0  0  0
   60.2160   35.5423   47.2219 H   0  0  0  0  0  0  0  0  0  0  0  0
   59.4570   33.6570   47.9490 C   0  0  2  0  0  0  0  0  0  0  0  0
   59.5615   33.8861   49.0198 H   0  0  0  0  0  0  0  0  0  0  0  0
   60.7480   32.9420   47.5840 C   0  0  0  0  0  0  0  0  0  0  0  0
   62.2150   33.6980   47.2330 S   0  0  0  0  0  0  0  0  0  0  0  0
   63.1530   32.3100   47.1460 C   0  0  0  0  0  0  0  0  0  0  0  0
   64.2258   32.2673   46.9069 H   0  0  0  0  0  0  0  0  0  0  0  0
   62.3360   31.2260   47.4290 C   0  0  0  0  0  0  0  0  0  0  0  0
   62.7004   30.1883   47.4475 H   0  0  0  0  0  0  0  0  0  0  0  0
   61.0050   31.5730   47.6890 C   0  0  0  0  0  0  0  0  0  0  0  0
   60.2325   30.8354   47.9518 H   0  0  0  0  0  0  0  0  0  0  0  0
   58.2010   32.7780   47.7680 C   0  0  0  0  0  0  0  0  0  0  0  0
   57.3406   33.2865   48.2276 H   0  0  0  0  0  0  0  0  0  0  0  0
   58.3888   31.8075   48.2507 H   0  0  0  0  0  0  0  0  0  0  0  0
   57.9010   32.5290   46.3130 C   0  0  0  0  0  0  0  0  0  0  0  0
   57.4480   31.4450   45.9760 O   0  0  0  0  0  0  0  0  0  0  0  0
  1  2  1  0
  2  3  2  0
  3  4  1  0
  4  5  1  0
  4  6  1  0
  4  7  1  0
  7  8  1  0
  7  9  1  0
  7 10  1  0
 10 11  1  0
 10 12  1  0
 10 13  1  0
 13 14  1  0
 14 15  1  0
 14 16  1  0
 14 17  1  0
 17 18  1  0
 17 19  1  0
 17 20  1  0
 13 21  1  0
 21 22  1  0
 21 23  1  0
 21 24  1  0
 24 25  1  0
 24 26  1  0
 24 27  1  0
  2 28  1  0
 28 29  1  6
 28 30  1  0
 30 31  2  0
 30 32  1  0
 32 33  1  0
 32 34  1  0
 32 35  1  0
 35 36  1  1
 35 37  1  0
 37 38  1  0
 38 39  1  0
 39 40  1  0
 39 41  2  0
 41 42  1  0
 41 43  1  0
 43 44  1  0
 35 45  1  0
 45 46  1  0
 45 47  1  0
 45 48  1  0
 48 49  2  0
 48 28  1  0
 43 37  2  0
M  END
>  <UniqueID>  (16) 
16

>  <SMILES>  (16) 
CCN(CC)CCC/N=C\C1C(=O)CC(c2cccs2)CC1=O

>  <Energy>  (16) 
77.50624537656294

>  <Genealogy>  (16) 
CCN(CC)CCC/N=C\C1C(=O)CC(c2cccs2)CC1=O (cis-trans isomerization)
CCN(CC)CCC/N=C\C1C(=O)CC(c2cccs2)CC1=O (3D coordinates assigned)
CCN(CC)CCC/N=C\C1C(=O)CC(c2cccs2)CC1=O (nonaromatic ring conformer: 77.50624537656294 kcal/mol)

>  <smiles>  (16) 
CCN(CC)CCCN=CC1C(=O)CC(c2cccs2)CC1=O

>  <score_type>  (16) 
oracle

>  <origin>  (16) 
adg

>  <m_score__min__energy>  (16) 
-7.4400000000000004

>  <m_primary>  (16) 
energy

$$$$
16:0
     RDKit          3D

 41 44  0  0  0  0  0  0  0  0999 V2000
   57.4030   32.3370   41.1030 C   0  0  0  0  0  0  0  0  0  0  0  0
   57.3560   31.5720   42.4290 C   0  0  0  0  0  0  0  0  0  0  0  0
   56.2880   30.5610   42.4630 N   0  0  0  0  0  0  0  0  0  0  0  0
   56.7510   29.2820   43.0170 C   0  0  0  0  0  0  0  0  0  0  0  0
   56.3260   29.1700   44.4810 C   0  0  0  0  0  0  0  0  0  0  0  0
   57.5010   29.2180   45.3520 N   0  0  0  0  0  0  0  0  0  0  0  0
   58.2730   28.1820   45.7790 C   0  0  0  0  0  0  0  0  0  0  0  0
   58.0940   26.8180   45.5320 C   0  0  0  0  0  0  0  0  0  0  0  0
   59.0370   25.9200   46.0660 C   0  0  0  0  0  0  0  0  0  0  0  0
   60.1330   26.3910   46.8230 C   0  0  0  0  0  0  0  0  0  0  0  0
   60.3030   27.7680   47.0550 C   0  0  0  0  0  0  0  0  0  0  0  0
   59.3540   28.6340   46.5200 C   0  0  0  0  0  0  0  0  0  0  0  0
   59.2460   30.0040   46.5380 C   0  0  0  0  0  0  0  0  0  0  0  0
   60.0450   30.9510   47.0870 N   0  0  0  0  0  0  0  0  0  0  0  0
   59.7010   32.2660   46.9110 C   0  0  0  0  0  0  0  0  0  0  0  0
   60.4860   33.2920   47.4550 C   0  0  0  0  0  0  0  0  0  0  0  0
   60.1220   34.6290   47.2640 C   0  0  0  0  0  0  0  0  0  0  0  0
   58.9770   34.9530   46.5280 C   0  0  0  0  0  0  0  0  0  0  0  0
   58.1830   33.9430   45.9770 C   0  0  0  0  0  0  0  0  0  0  0  0
   58.5300   32.6010   46.1590 C   0  0  0  0  0  0  0  0  0  0  0  0
   57.7560   31.6110   45.6190 N   0  0  0  0  0  0  0  0  0  0  0  0
   58.1240   30.3220   45.8200 C   0  0  0  0  0  0  0  0  0  0  0  0
   57.4693   33.4163   41.3045 H   0  0  0  0  0  0  0  0  0  0  0  0
   58.2832   32.0170   40.5261 H   0  0  0  0  0  0  0  0  0  0  0  0
   56.4903   32.1271   40.5261 H   0  0  0  0  0  0  0  0  0  0  0  0
   58.3223   31.0684   42.5793 H   0  0  0  0  0  0  0  0  0  0  0  0
   57.1492   32.3011   43.2263 H   0  0  0  0  0  0  0  0  0  0  0  0
   55.9290   30.4040   41.4920 H   0  0  0  0  0  0  0  0  0  0  0  0
   56.3089   28.4539   42.4436 H   0  0  0  0  0  0  0  0  0  0  0  0
   57.8479   29.2327   42.9516 H   0  0  0  0  0  0  0  0  0  0  0  0
   55.6547   30.0052   44.7297 H   0  0  0  0  0  0  0  0  0  0  0  0
   55.8054   28.2129   44.6320 H   0  0  0  0  0  0  0  0  0  0  0  0
   57.2415   26.4571   44.9379 H   0  0  0  0  0  0  0  0  0  0  0  0
   58.9195   24.8402   45.8922 H   0  0  0  0  0  0  0  0  0  0  0  0
   60.8595   25.6749   47.2345 H   0  0  0  0  0  0  0  0  0  0  0  0
   61.1553   28.1466   47.6383 H   0  0  0  0  0  0  0  0  0  0  0  0
   60.9010   30.6780   47.6240 H   0  0  0  0  0  0  0  0  0  0  0  0
   61.3891   33.0455   48.0326 H   0  0  0  0  0  0  0  0  0  0  0  0
   60.7397   35.4306   47.6951 H   0  0  0  0  0  0  0  0  0  0  0  0
   58.7003   36.0076   46.3822 H   0  0  0  0  0  0  0  0  0  0  0  0
   57.2840   34.2045   45.3995 H   0  0  0  0  0  0  0  0  0  0  0  0
  1  2  1  0
  2  3  1  0
  3  4  1  0
  4  5  1  0
  5  6  1  0
  6  7  1  0
  7  8  2  0
  8  9  1  0
  9 10  2  0
 10 11  1  0
 11 12  2  0
 12 13  1  0
 13 14  2  0
 14 15  1  0
 15 16  2  0
 16 17  1  0
 17 18  2  0
 18 19  1  0
 19 20  2  0
 20 21  1  0
 21 22  2  0
 22  6  1  0
 12  7  1  0
 22 13  1  0
 20 15  1  0
  1 23  1  0
  1 24  1  0
  1 25  1  0
  2 26  1  0
  2 27  1  0
  3 28  1  0
  4 29  1  0
  4 30  1  0
  5 31  1  0
  5 32  1  0
  8 33  1  0
  9 34  1  0
 10 35  1  0
 11 36  1  0
 14 37  1  0
 16 38  1  0
 17 39  1  0
 18 40  1  0
 19 41  1  0
M  CHG  1  14   1
M  END
>  <UniqueID>  (17) 
17

>  <SMILES>  (17) 
CCNCCn1c2ccccc2c2[nH+]c3ccccc3nc21

>  <Energy>  (17) 
87.70484714047792

>  <Genealogy>  (17) 
CCNCCn1c2ccccc2c2[nH+]c3ccccc3nc21 (protonated)
CCNCCn1c2ccccc2c2[nH+]c3ccccc3nc21 (3D coordinates assigned)
CCNCCn1c2ccccc2c2[nH+]c3ccccc3nc21 (optimized conformer: 87.70484714047792 kcal/mol)

>  <smiles>  (17) 
CCNCCn1c2ccccc2c2nc3ccccc3nc21

>  <score_type>  (17) 
oracle

>  <origin>  (17) 
adg

>  <m_score__min__energy>  (17) 
-5.9400000000000004

>  <m_primary>  (17) 
energy

$$$$
17:0
     RDKit          3D

 47 49  0  0  0  0  0  0  0  0999 V2000
   57.4600   23.9650   44.1440 C   0  0  0  0  0  0  0  0  0  0  0  0
   58.0020   24.6360   45.2780 O   0  0  0  0  0  0  0  0  0  0  0  0
   58.0870   26.0290   45.4070 C   0  0  0  0  0  0  0  0  0  0  0  0
   57.8510   26.6910   46.6290 C   0  0  0  0  0  0  0  0  0  0  0  0
   57.9490   28.0840   46.7060 C   0  0  0  0  0  0  0  0  0  0  0  0
   58.2890   28.8320   45.5700 C   0  0  0  0  0  0  0  0  0  0  0  0
   58.3890   30.3070   45.6500 C   0  0  0  0  0  0  0  0  0  0  0  0
   57.3550   31.0860   45.1020 C   0  0  0  0  0  0  0  0  0  0  0  0
   56.2660   30.4330   44.4970 O   0  0  0  0  0  0  0  0  0  0  0  0
   56.2170   30.0320   43.1300 C   0  0  0  0  0  0  0  0  0  0  0  0
   57.4280   32.4860   45.1770 C   0  0  0  0  0  0  0  0  0  0  0  0
   58.5170   33.1190   45.7990 C   0  0  0  0  0  0  0  0  0  0  0  0
   58.6100   34.5200   45.8670 O   0  0  0  0  0  0  0  0  0  0  0  0
   59.2670   35.3410   44.9070 C   0  0  0  0  0  0  0  0  0  0  0  0
   59.5460   32.3410   46.3640 C   0  0  0  0  0  0  0  0  0  0  0  0
   59.5040   30.9310   46.2620 C   0  0  0  0  0  0  0  0  0  0  0  0
   60.6130   30.0860   46.8560 C   0  0  0  0  0  0  0  0  0  0  0  0
   61.8660   30.8970   47.2020 C   0  0  0  0  0  0  0  0  0  0  0  0
   61.5420   32.1750   47.8650 N   0  0  2  0  0  0  0  0  0  0  0  0
   60.8870   31.9840   49.1750 C   0  0  0  0  0  0  0  0  0  0  0  0
   60.7460   33.0430   46.9740 C   0  0  0  0  0  0  0  0  0  0  0  0
   58.5180   28.1760   44.3530 C   0  0  0  0  0  0  0  0  0  0  0  0
   58.4180   26.7840   44.2760 C   0  0  0  0  0  0  0  0  0  0  0  0
   56.8018   23.1502   44.4800 H   0  0  0  0  0  0  0  0  0  0  0  0
   56.8812   24.6777   43.5382 H   0  0  0  0  0  0  0  0  0  0  0  0
   58.2785   23.5490   43.5382 H   0  0  0  0  0  0  0  0  0  0  0  0
   57.5888   26.1098   47.5253 H   0  0  0  0  0  0  0  0  0  0  0  0
   57.7586   28.5947   47.6615 H   0  0  0  0  0  0  0  0  0  0  0  0
   56.0838   28.9416   43.0723 H   0  0  0  0  0  0  0  0  0  0  0  0
   55.3732   30.5314   42.6314 H   0  0  0  0  0  0  0  0  0  0  0  0
   57.1562   30.3135   42.6314 H   0  0  0  0  0  0  0  0  0  0  0  0
   56.6217   33.0954   44.7429 H   0  0  0  0  0  0  0  0  0  0  0  0
   59.8731   36.0984   45.4257 H   0  0  0  0  0  0  0  0  0  0  0  0
   59.9190   34.7183   44.2768 H   0  0  0  0  0  0  0  0  0  0  0  0
   58.5165   35.8406   44.2768 H   0  0  0  0  0  0  0  0  0  0  0  0
   60.2380   29.6117   47.7749 H   0  0  0  0  0  0  0  0  0  0  0  0
   60.9017   29.3432   46.0978 H   0  0  0  0  0  0  0  0  0  0  0  0
   62.4988   30.3000   47.8752 H   0  0  0  0  0  0  0  0  0  0  0  0
   62.3864   31.1291   46.2611 H   0  0  0  0  0  0  0  0  0  0  0  0
   62.4490   32.6660   48.0490 H   0  0  0  0  0  0  0  0  0  0  0  0
   61.6074   32.1941   49.9793 H   0  0  0  0  0  0  0  0  0  0  0  0
   60.0314   32.6701   49.2607 H   0  0  0  0  0  0  0  0  0  0  0  0
   60.5343   30.9456   49.2607 H   0  0  0  0  0  0  0  0  0  0  0  0
   60.3873   33.9048   47.5559 H   0  0  0  0  0  0  0  0  0  0  0  0
   61.4018   33.3458   46.1444 H   0  0  0  0  0  0  0  0  0  0  0  0
   58.7771   28.7580   43.4562 H   0  0  0  0  0  0  0  0  0  0  0  0
   58.6012   26.2770   43.3172 H   0  0  0  0  0  0  0  0  0  0  0  0
  1  2  1  0
  2  3  1  0
  3  4  2  0
  4  5  1  0
  5  6  2  0
  6  7  1  0
  7  8  2  0
  8  9  1  0
  9 10  1  0
  8 11  1  0
 11 12  2  0
 12 13  1  0
 13 14  1  0
 12 15  1  0
 15 16  2  0
 16 17  1  0
 17 18  1  0
 18 19  1  0
 19 20  1  0
 19 21  1  0
  6 22  1  0
 22 23  2  0
 23  3  1  0
 16  7  1  0
 21 15  1  0
  1 24  1  0
  1 25  1  0
  1 26  1  0
  4 27  1  0
  5 28  1  0
 10 29  1  0
 10 30  1  0
 10 31  1  0
 11 32  1  0
 14 33  1  0
 14 34  1  0
 14 35  1  0
 17 36  1  0
 17 37  1  0
 18 38  1  0
 18 39  1  0
 19 40  1  1
 20 41  1  0
 20 42  1  0
 20 43  1  0
 21 44  1  0
 21 45  1  0
 22 46  1  0
 23 47  1  0
M  CHG  1  19   1
M  END
>  <UniqueID>  (18) 
18

>  <SMILES>  (18) 
COc1ccc(-c2c(OC)cc(OC)c3c2CC[N@H+](C)C3)cc1

>  <Energy>  (18) 
60.97052126504843

>  <Genealogy>  (18) 
COc1ccc(-c2c(OC)cc(OC)c3c2CC[NH+](C)C3)cc1 (protonated)
COc1ccc(-c2c(OC)cc(OC)c3c2CC[N@H+](C)C3)cc1 (chirality)
COc1ccc(-c2c(OC)cc(OC)c3c2CC[N@H+](C)C3)cc1 (3D coordinates assigned)
COc1ccc(-c2c(OC)cc(OC)c3c2CC[N@H+](C)C3)cc1 (nonaromatic ring conformer: 60.97052126504843 kcal/mol)

>  <smiles>  (18) 
COc1ccc(-c2c(OC)cc(OC)c3c2CCN(C)C3)cc1

>  <score_type>  (18) 
oracle

>  <origin>  (18) 
adg

>  <m_score__min__energy>  (18) 
-4.9000000000000004

>  <m_primary>  (18) 
energy

$$$$
18:0
     RDKit          3D

 72 75  0  0  0  0  0  0  0  0999 V2000
   59.2891   32.5701   46.5277 H   0  0  0  0  0  0  0  0  0  0  0  0
   59.0450   31.4980   46.4970 C   0  0  0  0  0  0  0  0  0  0  0  0
   58.8680   30.7850   47.6990 C   0  0  0  0  0  0  0  0  0  0  0  0
   58.9810   31.3950   48.9570 O   0  0  0  0  0  0  0  0  0  0  0  0
   59.4510   30.7380   50.1320 C   0  0  0  0  0  0  0  0  0  0  0  0
   58.8247   29.8570   50.3358 H   0  0  0  0  0  0  0  0  0  0  0  0
   59.3979   31.4287   50.9865 H   0  0  0  0  0  0  0  0  0  0  0  0
   60.9020   30.2960   49.9190 C   0  0  0  0  0  0  0  0  0  0  0  0
   60.9047   29.2782   49.5017 H   0  0  0  0  0  0  0  0  0  0  0  0
   61.4121   30.3305   50.8930 H   0  0  0  0  0  0  0  0  0  0  0  0
   61.6260   31.1890   48.9970 N   0  0  0  0  0  0  0  0  0  0  0  0
   60.9610   31.5850   48.2920 H   0  0  0  0  0  0  0  0  0  0  0  0
   62.3060   32.2910   49.6940 C   0  0  0  0  0  0  0  0  0  0  0  0
   63.3934   32.1469   49.6122 H   0  0  0  0  0  0  0  0  0  0  0  0
   61.9839   32.2809   50.7457 H   0  0  0  0  0  0  0  0  0  0  0  0
   61.9370   33.6650   49.0920 C   0  0  0  0  0  0  0  0  0  0  0  0
   62.8719   34.2023   48.8747 H   0  0  0  0  0  0  0  0  0  0  0  0
   61.3041   34.1636   49.8408 H   0  0  0  0  0  0  0  0  0  0  0  0
   61.1340   33.6190   47.8430 N   0  0  0  0  0  0  0  0  0  0  0  0
   61.9120   33.7980   46.5960 C   0  0  0  0  0  0  0  0  0  0  0  0
   61.8413   34.8495   46.2807 H   0  0  0  0  0  0  0  0  0  0  0  0
   61.4922   33.1258   45.8331 H   0  0  0  0  0  0  0  0  0  0  0  0
   63.3860   33.4370   46.7860 C   0  0  0  0  0  0  0  0  0  0  0  0
   63.6142   33.3811   47.8606 H   0  0  0  0  0  0  0  0  0  0  0  0
   63.5883   32.4628   46.3170 H   0  0  0  0  0  0  0  0  0  0  0  0
   64.0156   34.2075   46.3170 H   0  0  0  0  0  0  0  0  0  0  0  0
   59.9460   34.5000   47.8840 C   0  0  0  0  0  0  0  0  0  0  0  0
   59.1047   33.9549   48.3369 H   0  0  0  0  0  0  0  0  0  0  0  0
   60.1808   35.3922   48.4830 H   0  0  0  0  0  0  0  0  0  0  0  0
   59.5640   34.9340   46.4720 C   0  0  0  0  0  0  0  0  0  0  0  0
   58.8381   35.7587   46.5257 H   0  0  0  0  0  0  0  0  0  0  0  0
   60.4634   35.2715   45.9362 H   0  0  0  0  0  0  0  0  0  0  0  0
   59.1151   34.0847   45.9362 H   0  0  0  0  0  0  0  0  0  0  0  0
   58.5600   29.4200   47.6490 C   0  0  0  0  0  0  0  0  0  0  0  0
   58.4299   28.8553   48.5840 H   0  0  0  0  0  0  0  0  0  0  0  0
   58.4160   28.7670   46.4160 C   0  0  0  0  0  0  0  0  0  0  0  0
   58.0850   27.4070   46.3590 C   0  0  0  0  0  0  0  0  0  0  0  0
   57.9480   26.8338   47.2878 H   0  0  0  0  0  0  0  0  0  0  0  0
   57.9290   26.7790   45.1180 C   0  0  0  0  0  0  0  0  0  0  0  0
   57.5770   25.4260   45.0300 C   0  0  0  0  0  0  0  0  0  0  0  0
   57.4258   24.8323   45.9436 H   0  0  0  0  0  0  0  0  0  0  0  0
   57.4180   24.8310   43.7620 C   0  0  0  0  0  0  0  0  0  0  0  0
   57.0720   23.5840   43.6150 N   0  0  0  0  0  0  0  0  0  0  0  0
   55.7230   23.0370   43.7480 C   0  0  0  0  0  0  0  0  0  0  0  0
   54.9882   23.8340   43.5614 H   0  0  0  0  0  0  0  0  0  0  0  0
   55.5923   22.2254   43.0171 H   0  0  0  0  0  0  0  0  0  0  0  0
   55.5140   22.4780   45.1540 C   0  0  0  0  0  0  0  0  0  0  0  0
   54.8727   21.5859   45.0990 H   0  0  0  0  0  0  0  0  0  0  0  0
   56.4909   22.2116   45.5838 H   0  0  0  0  0  0  0  0  0  0  0  0
   54.8660   23.4950   46.0170 N   0  0  0  0  0  0  0  0  0  0  0  0
   54.0700   22.8940   47.1110 C   0  0  0  0  0  0  0  0  0  0  0  0
   54.5522   21.9566   47.4253 H   0  0  0  0  0  0  0  0  0  0  0  0
   54.0288   23.6213   47.9352 H   0  0  0  0  0  0  0  0  0  0  0  0
   52.6200   22.5860   46.6810 C   0  0  0  0  0  0  0  0  0  0  0  0
   52.3121   21.6240   47.1167 H   0  0  0  0  0  0  0  0  0  0  0  0
   51.9683   23.3968   47.0386 H   0  0  0  0  0  0  0  0  0  0  0  0
   52.5150   22.5110   45.2750 O   0  0  0  0  0  0  0  0  0  0  0  0
   52.7560   23.7850   44.7050 C   0  0  0  0  0  0  0  0  0  0  0  0
   52.8493   23.6705   43.6150 H   0  0  0  0  0  0  0  0  0  0  0  0
   51.9106   24.4345   44.9760 H   0  0  0  0  0  0  0  0  0  0  0  0
   54.0440   24.4480   45.2440 C   0  0  0  0  0  0  0  0  0  0  0  0
   54.6350   24.8216   44.3948 H   0  0  0  0  0  0  0  0  0  0  0  0
   53.7522   25.2709   45.9131 H   0  0  0  0  0  0  0  0  0  0  0  0
   57.6180   25.5820   42.6450 N   0  0  0  0  0  0  0  0  0  0  0  0
   57.9650   26.8950   42.7010 C   0  0  0  0  0  0  0  0  0  0  0  0
   58.1230   27.4605   41.7708 H   0  0  0  0  0  0  0  0  0  0  0  0
   58.1220   27.5300   43.9390 C   0  0  0  0  0  0  0  0  0  0  0  0
   58.4510   28.8520   44.0110 N   0  0  0  0  0  0  0  0  0  0  0  0
   58.5870   29.3950   43.1260 H   0  0  0  0  0  0  0  0  0  0  0  0
   58.5950   29.4850   45.2120 C   0  0  0  0  0  0  0  0  0  0  0  0
   58.9120   30.8500   45.2650 C   0  0  0  0  0  0  0  0  0  0  0  0
   59.0569   31.4143   44.3320 H   0  0  0  0  0  0  0  0  0  0  0  0
  1  2  1  0
  2  3  1  0
  3  4  1  0
  4  5  1  0
  5  6  1  0
  5  7  1  0
  5  8  1  0
  8  9  1  0
  8 10  1  0
  8 11  1  0
 11 12  1  0
 11 13  1  0
 13 14  1  0
 13 15  1  0
 13 16  1  0
 16 17  1  0
 16 18  1  0
 16 19  1  0
 19 20  1  0
 20 21  1  0
 20 22  1  0
 20 23  1  0
 23 24  1  0
 23 25  1  0
 23 26  1  0
 19 27  1  0
 27 28  1  0
 27 29  1  0
 27 30  1  0
 30 31  1  0
 30 32  1  0
 30 33  1  0
  3 34  2  0
 34 35  1  0
 34 36  1  0
 36 37  2  0
 37 38  1  0
 37 39  1  0
 39 40  2  0
 40 41  1  0
 40 42  1  0
 42 43  2  0
 43 44  1  0
 44 45  1  0
 44 46  1  0
 44 47  1  0
 47 48  1  0
 47 49  1  0
 47 50  1  0
 50 51  1  0
 51 52  1  0
 51 53  1  0
 51 54  1  0
 54 55  1  0
 54 56  1  0
 54 57  1  0
 57 58  1  0
 58 59  1  0
 58 60  1  0
 58 61  1  0
 61 62  1  0
 61 63  1  0
 42 64  1  0
 64 65  1  0
 65 66  1  0
 65 67  2  0
 67 68  1  0
 68 69  1  0
 68 70  2  0
 70 71  1  0
 71 72  1  0
 71  2  2  0
 70 36  1  0
 67 39  1  0
 61 50  1  0
M  CHG  2  64  -1  68   1
M  END
>  <UniqueID>  (19) 
19

>  <SMILES>  (19) 
CCN(CC)CCNCCOc1ccc2[nH+]c3c[n-]/c(=N/CCN4CCOCC4)cc3cc2c1

>  <Energy>  (19) 
94.05649563479702

>  <Genealogy>  (19) 
CCN(CC)CCNCCOc1ccc2[nH+]c3c[n-]c(=NCCN4CCOCC4)cc3cc2c1 (protonated)
CCN(CC)CCNCCOc1ccc2[nH+]c3c[n-]/c(=N/CCN4CCOCC4)cc3cc2c1 (cis-trans isomerization)
CCN(CC)CCNCCOc1ccc2[nH+]c3c[n-]/c(=N/CCN4CCOCC4)cc3cc2c1 (3D coordinates assigned)
CCN(CC)CCNCCOc1ccc2[nH+]c3c[n-]/c(=N/CCN4CCOCC4)cc3cc2c1 (nonaromatic ring conformer: 94.05649563479702 kcal/mol)

>  <smiles>  (19) 
CCN(CC)CCNCCOc1ccc2nc3c[nH]c(=NCCN4CCOCC4)cc3cc2c1

>  <score_type>  (19) 
oracle

>  <origin>  (19) 
adg

>  <m_score__min__energy>  (19) 
-7.8099999999999996

>  <m_primary>  (19) 
energy

$$$$
19:0
     RDKit          3D

 69 71  0  0  0  0  0  0  0  0999 V2000
   63.3600   33.5250   46.7360 C   0  0  0  0  0  0  0  0  0  0  0  0
   62.5960   33.8190   48.0210 C   0  0  0  0  0  0  0  0  0  0  0  0
   61.1400   33.7230   47.7620 N   0  0  0  0  0  0  0  0  0  0  0  0
   60.7600   34.0790   46.3770 C   0  0  0  0  0  0  0  0  0  0  0  0
   59.3200   34.5830   46.3230 C   0  0  0  0  0  0  0  0  0  0  0  0
   60.3220   34.4210   48.7810 C   0  0  0  0  0  0  0  0  0  0  0  0
   59.6220   33.4710   49.7740 C   0  0  0  0  0  0  0  0  0  0  0  0
   60.3130   32.1750   49.7790 N   0  0  0  0  0  0  0  0  0  0  0  0
   59.4920   31.0990   49.2020 C   0  0  0  0  0  0  0  0  0  0  0  0
   59.1630   31.3380   47.7170 C   0  0  0  0  0  0  0  0  0  0  0  0
   58.9410   30.0240   46.9960 C   0  0  0  0  0  0  0  0  0  0  0  0
   59.4680   28.8640   47.5780 C   0  0  0  0  0  0  0  0  0  0  0  0
   59.3040   27.6220   46.9780 C   0  0  0  0  0  0  0  0  0  0  0  0
   58.6030   27.4880   45.7730 C   0  0  0  0  0  0  0  0  0  0  0  0
   58.4760   26.0980   45.1810 C   0  0  0  0  0  0  0  0  0  0  0  0
   57.4500   25.2620   45.9630 C   0  0  0  0  0  0  0  0  0  0  0  0
   56.4270   24.6750   45.0680 N   0  0  0  0  0  0  0  0  0  0  0  0
   55.8010   23.4750   45.6820 C   0  0  0  0  0  0  0  0  0  0  0  0
   56.4420   22.1720   45.1820 C   0  0  0  0  0  0  0  0  0  0  0  0
   56.2690   22.0100   43.7190 N   0  0  0  0  0  0  0  0  0  0  0  0
   57.3140   21.1290   43.1720 C   0  0  0  0  0  0  0  0  0  0  0  0
   56.2100   23.2980   42.9850 C   0  0  0  0  0  0  0  0  0  0  0  0
   56.9760   24.4140   43.7110 C   0  0  0  0  0  0  0  0  0  0  0  0
   58.0890   28.6510   45.1350 C   0  0  0  0  0  0  0  0  0  0  0  0
   57.4120   28.5750   43.8960 C   0  0  0  0  0  0  0  0  0  0  0  0
   56.9260   29.7250   43.2750 C   0  0  0  0  0  0  0  0  0  0  0  0
   57.1060   30.9690   43.8670 C   0  0  0  0  0  0  0  0  0  0  0  0
   57.7680   31.0770   45.0880 C   0  0  0  0  0  0  0  0  0  0  0  0
   58.2650   29.9290   45.7490 C   0  0  0  0  0  0  0  0  0  0  0  0
   64.3602   33.1401   46.9840 H   0  0  0  0  0  0  0  0  0  0  0  0
   62.8131   32.7731   46.1481 H   0  0  0  0  0  0  0  0  0  0  0  0
   63.4583   34.4495   46.1481 H   0  0  0  0  0  0  0  0  0  0  0  0
   62.8804   33.0880   48.7923 H   0  0  0  0  0  0  0  0  0  0  0  0
   62.8407   34.8332   48.3696 H   0  0  0  0  0  0  0  0  0  0  0  0
   61.4325   34.8684   46.0100 H   0  0  0  0  0  0  0  0  0  0  0  0
   60.8435   33.1815   45.7465 H   0  0  0  0  0  0  0  0  0  0  0  0
   58.9395   34.7162   47.3465 H   0  0  0  0  0  0  0  0  0  0  0  0
   59.2881   35.5457   45.7918 H   0  0  0  0  0  0  0  0  0  0  0  0
   58.6947   33.8503   45.7918 H   0  0  0  0  0  0  0  0  0  0  0  0
   60.9785   35.0955   49.3503 H   0  0  0  0  0  0  0  0  0  0  0  0
   59.5300   34.9610   48.2414 H   0  0  0  0  0  0  0  0  0  0  0  0
   59.6530   33.9073   50.7833 H   0  0  0  0  0  0  0  0  0  0  0  0
   58.5748   33.3278   49.4694 H   0  0  0  0  0  0  0  0  0  0  0  0
   61.2040   32.2590   49.2360 H   0  0  0  0  0  0  0  0  0  0  0  0
   60.0403   30.1498   49.2932 H   0  0  0  0  0  0  0  0  0  0  0  0
   58.5410   31.0724   49.7542 H   0  0  0  0  0  0  0  0  0  0  0  0
   58.2506   31.9481   47.6436 H   0  0  0  0  0  0  0  0  0  0  0  0
   60.0109   31.8584   47.2477 H   0  0  0  0  0  0  0  0  0  0  0  0
   60.0210   28.9378   48.5260 H   0  0  0  0  0  0  0  0  0  0  0  0
   59.7318   26.7290   47.4572 H   0  0  0  0  0  0  0  0  0  0  0  0
   58.1503   26.1807   44.1336 H   0  0  0  0  0  0  0  0  0  0  0  0
   59.4547   25.5994   45.2400 H   0  0  0  0  0  0  0  0  0  0  0  0
   57.9759   24.4491   46.4850 H   0  0  0  0  0  0  0  0  0  0  0  0
   56.9408   25.9247   46.6783 H   0  0  0  0  0  0  0  0  0  0  0  0
   55.9189   23.5325   46.7741 H   0  0  0  0  0  0  0  0  0  0  0  0
   54.7388   23.4624   45.3965 H   0  0  0  0  0  0  0  0  0  0  0  0
   57.5168   22.1895   45.4154 H   0  0  0  0  0  0  0  0  0  0  0  0
   55.9468   21.3280   45.6844 H   0  0  0  0  0  0  0  0  0  0  0  0
   57.8689   20.6612   43.9986 H   0  0  0  0  0  0  0  0  0  0  0  0
   56.8481   20.3471   42.5543 H   0  0  0  0  0  0  0  0  0  0  0  0
   58.0059   21.7204   42.5543 H   0  0  0  0  0  0  0  0  0  0  0  0
   56.6501   23.1575   41.9867 H   0  0  0  0  0  0  0  0  0  0  0  0
   55.1546   23.6008   42.9177 H   0  0  0  0  0  0  0  0  0  0  0  0
   58.0309   24.1170   43.8058 H   0  0  0  0  0  0  0  0  0  0  0  0
   56.8737   25.3361   43.1201 H   0  0  0  0  0  0  0  0  0  0  0  0
   57.2668   27.5961   43.4158 H   0  0  0  0  0  0  0  0  0  0  0  0
   56.3982   29.6470   42.3130 H   0  0  0  0  0  0  0  0  0  0  0  0
   56.7241   31.8726   43.3694 H   0  0  0  0  0  0  0  0  0  0  0  0
   57.9062   32.0683   45.5444 H   0  0  0  0  0  0  0  0  0  0  0  0
  1  2  1  0
  2  3  1  0
  3  4  1  0
  4  5  1  0
  3  6  1  0
  6  7  1  0
  7  8  1  0
  8  9  1  0
  9 10  1  0
 10 11  1  0
 11 12  2  0
 12 13  1  0
 13 14  2  0
 14 15  1  0
 15 16  1  0
 16 17  1  0
 17 18  1  0
 18 19  1  0
 19 20  1  0
 20 21  1  0
 20 22  1  0
 22 23  1  0
 14 24  1  0
 24 25  2  0
 25 26  1  0
 26 27  2  0
 27 28  1  0
 28 29  2  0
 29 11  1  0
 23 17  1  0
 29 24  1  0
  1 30  1  0
  1 31  1  0
  1 32  1  0
  2 33  1  0
  2 34  1  0
  4 35  1  0
  4 36  1  0
  5 37  1  0
  5 38  1  0
  5 39  1  0
  6 40  1  0
  6 41  1  0
  7 42  1  0
  7 43  1  0
  8 44  1  0
  9 45  1  0
  9 46  1  0
 10 47  1  0
 10 48  1  0
 12 49  1  0
 13 50  1  0
 15 51  1  0
 15 52  1  0
 16 53  1  0
 16 54  1  0
 18 55  1  0
 18 56  1  0
 19 57  1  0
 19 58  1  0
 21 59  1  0
 21 60  1  0
 21 61  1  0
 22 62  1  0
 22 63  1  0
 23 64  1  0
 23 65  1  0
 25 66  1  0
 26 67  1  0
 27 68  1  0
 28 69  1  0
M  END
>  <UniqueID>  (20) 
20

>  <SMILES>  (20) 
CCN(CC)CCNCCc1ccc(CCN2CCN(C)CC2)c2ccccc12

>  <Energy>  (20) 
86.321976442328

>  <Genealogy>  (20) 
CCN(CC)CCNCCc1ccc(CCN2CCN(C)CC2)c2ccccc12 (3D coordinates assigned)
CCN(CC)CCNCCc1ccc(CCN2CCN(C)CC2)c2ccccc12 (nonaromatic ring conformer: 86.321976442328 kcal/mol)

>  <smiles>  (20) 
CCN(CC)CCNCCc1ccc(CCN2CCN(C)CC2)c2ccccc12

>  <score_type>  (20) 
oracle

>  <origin>  (20) 
adg

>  <m_score__min__energy>  (20) 
-8.3599999999999994

>  <m_primary>  (20) 
energy

$$$$
20:0
     RDKit          3D

 47 48  0  0  0  0  0  0  0  0999 V2000
   63.7730   32.9750   46.8320 C   0  0  0  0  0  0  0  0  0  0  0  0
   63.6170   33.9110   48.0270 C   0  0  0  0  0  0  0  0  0  0  0  0
   62.8320   33.2550   49.0940 N   0  0  0  0  0  0  0  0  0  0  0  0
   63.4460   31.9660   49.4630 C   0  0  0  0  0  0  0  0  0  0  0  0
   62.6860   34.1220   50.2870 C   0  0  0  0  0  0  0  0  0  0  0  0
   61.5050   33.6550   51.1320 C   0  0  0  0  0  0  0  0  0  0  0  0
   60.5150   33.0860   50.2940 O   0  0  0  0  0  0  0  0  0  0  0  0
   59.8500   34.0650   49.5190 C   0  0  0  0  0  0  0  0  0  0  0  0
   59.8350   33.6980   48.0230 C   0  0  0  0  0  0  0  0  0  0  0  0
   60.7580   32.5980   47.6920 N   0  0  0  0  0  0  0  0  0  0  0  0
   60.1360   31.6050   46.8450 C   0  0  0  0  0  0  0  0  0  0  0  0
   60.8420   30.4520   46.4650 C   0  0  0  0  0  0  0  0  0  0  0  0
   60.2370   29.4740   45.6720 C   0  0  0  0  0  0  0  0  0  0  0  0
   58.9100   29.6360   45.2310 C   0  0  0  0  0  0  0  0  0  0  0  0
   58.2470   28.6790   44.4300 C   0  0  0  0  0  0  0  0  0  0  0  0
   58.9140   27.4000   43.9930 C   0  0  0  0  0  0  0  0  0  0  0  0
   56.9270   28.9330   44.0330 C   0  0  0  0  0  0  0  0  0  0  0  0
   56.3030   30.1150   44.4360 C   0  0  0  0  0  0  0  0  0  0  0  0
   55.1200   30.3550   44.0830 O   0  0  0  0  0  0  0  0  0  0  0  0
   56.9520   30.9940   45.1930 O   0  0  0  0  0  0  0  0  0  0  0  0
   58.2030   30.8060   45.5990 C   0  0  0  0  0  0  0  0  0  0  0  0
   58.8160   31.7790   46.3950 C   0  0  0  0  0  0  0  0  0  0  0  0
   63.9440   31.9490   47.1898 H   0  0  0  0  0  0  0  0  0  0  0  0
   62.8578   33.0030   46.2224 H   0  0  0  0  0  0  0  0  0  0  0  0
   64.6296   33.2983   46.2224 H   0  0  0  0  0  0  0  0  0  0  0  0
   64.6123   34.1710   48.4165 H   0  0  0  0  0  0  0  0  0  0  0  0
   63.0897   34.8202   47.7026 H   0  0  0  0  0  0  0  0  0  0  0  0
   63.4871   31.8798   50.5588 H   0  0  0  0  0  0  0  0  0  0  0  0
   62.8436   31.1421   49.0527 H   0  0  0  0  0  0  0  0  0  0  0  0
   64.4653   31.9146   49.0527 H   0  0  0  0  0  0  0  0  0  0  0  0
   63.6059   34.0720   50.8880 H   0  0  0  0  0  0  0  0  0  0  0  0
   62.5085   35.1573   49.9605 H   0  0  0  0  0  0  0  0  0  0  0  0
   61.8485   32.9015   51.8561 H   0  0  0  0  0  0  0  0  0  0  0  0
   61.0781   34.5149   51.6689 H   0  0  0  0  0  0  0  0  0  0  0  0
   58.8127   34.1555   49.8737 H   0  0  0  0  0  0  0  0  0  0  0  0
   60.3913   35.0159   49.6321 H   0  0  0  0  0  0  0  0  0  0  0  0
   58.8144   33.3948   47.7464 H   0  0  0  0  0  0  0  0  0  0  0  0
   60.1651   34.5852   47.4627 H   0  0  0  0  0  0  0  0  0  0  0  0
   61.0550   32.1330   48.5810 H   0  0  0  0  0  0  0  0  0  0  0  0
   61.6260   32.9800   47.2470 H   0  0  0  0  0  0  0  0  0  0  0  0
   61.8826   30.3176   46.7954 H   0  0  0  0  0  0  0  0  0  0  0  0
   60.8007   28.5723   45.3906 H   0  0  0  0  0  0  0  0  0  0  0  0
   59.2153   26.8222   44.8792 H   0  0  0  0  0  0  0  0  0  0  0  0
   58.2104   26.8069   43.3904 H   0  0  0  0  0  0  0  0  0  0  0  0
   59.8031   27.6375   43.3904 H   0  0  0  0  0  0  0  0  0  0  0  0
   56.3867   28.2063   43.4085 H   0  0  0  0  0  0  0  0  0  0  0  0
   58.2606   32.6875   46.6710 H   0  0  0  0  0  0  0  0  0  0  0  0
  1  2  1  0
  2  3  1  0
  3  4  1  0
  3  5  1  0
  5  6  1  0
  6  7  1  0
  7  8  1  0
  8  9  1  0
  9 10  1  0
 10 11  1  0
 11 12  2  0
 12 13  1  0
 13 14  2  0
 14 15  1  0
 15 16  1  0
 15 17  2  0
 17 18  1  0
 18 19  2  0
 18 20  1  0
 20 21  1  0
 21 22  2  0
 22 11  1  0
 21 14  1  0
  1 23  1  0
  1 24  1  0
  1 25  1  0
  2 26  1  0
  2 27  1  0
  4 28  1  0
  4 29  1  0
  4 30  1  0
  5 31  1  0
  5 32  1  0
  6 33  1  0
  6 34  1  0
  8 35  1  0
  8 36  1  0
  9 37  1  0
  9 38  1  0
 10 39  1  0
 10 40  1  0
 12 41  1  0
 13 42  1  0
 16 43  1  0
 16 44  1  0
 16 45  1  0
 17 46  1  0
 22 47  1  0
M  CHG  1  10   1
M  END
>  <UniqueID>  (21) 
21

>  <SMILES>  (21) 
CCN(C)CCOCC[NH2+]c1ccc2c(C)cc(=O)oc2c1

>  <Energy>  (21) 
52.558176085657394

>  <Genealogy>  (21) 
CCN(C)CCOCC[NH2+]c1ccc2c(C)cc(=O)oc2c1 (protonated)
CCN(C)CCOCC[NH2+]c1ccc2c(C)cc(=O)oc2c1 (3D coordinates assigned)
CCN(C)CCOCC[NH2+]c1ccc2c(C)cc(=O)oc2c1 (optimized conformer: 52.558176085657394 kcal/mol)

>  <smiles>  (21) 
CCN(C)CCOCCNc1ccc2c(C)cc(=O)oc2c1

>  <score_type>  (21) 
oracle

>  <origin>  (21) 
adg

>  <m_score__min__energy>  (21) 
-5.3099999999999996

>  <m_primary>  (21) 
energy

$$$$
21:0
     RDKit          3D

 50 54  0  0  0  0  0  0  0  0999 V2000
   61.4700   30.7630   49.6840 C   0  0  0  0  0  0  0  0  0  0  0  0
   60.1050   31.4330   49.4710 C   0  0  1  0  0  0  0  0  0  0  0  0
   59.3780   31.8430   50.7450 C   0  0  0  0  0  0  0  0  0  0  0  0
   58.0310   31.4740   50.8930 C   0  0  0  0  0  0  0  0  0  0  0  0
   57.3260   31.8640   52.0310 C   0  0  0  0  0  0  0  0  0  0  0  0
   57.9630   32.6110   53.0190 C   0  0  0  0  0  0  0  0  0  0  0  0
   59.3050   32.9560   52.8540 C   0  0  0  0  0  0  0  0  0  0  0  0
   59.9840   32.5680   51.7400 N   0  0  0  0  0  0  0  0  0  0  0  0
   60.2510   32.5860   48.5590 N   0  0  0  0  0  0  0  0  0  0  0  0
   61.0500   33.6860   48.7060 C   0  0  0  0  0  0  0  0  0  0  0  0
   62.0800   33.8560   49.7510 C   0  0  0  0  0  0  0  0  0  0  0  0
   61.8110   34.1890   51.0280 N   0  0  0  0  0  0  0  0  0  0  0  0
   62.9600   34.1660   51.6880 N   0  0  0  0  0  0  0  0  0  0  0  0
   63.9160   33.8100   50.8080 C   0  0  0  0  0  0  0  0  0  0  0  0
   63.3950   33.6090   49.5860 N   0  0  0  0  0  0  0  0  0  0  0  0
   64.1050   33.1790   48.3850 C   0  0  0  0  0  0  0  0  0  0  0  0
   60.8360   34.6360   47.7590 N   0  0  0  0  0  0  0  0  0  0  0  0
   59.8660   34.1050   47.0000 C   0  0  0  0  0  0  0  0  0  0  0  0
   59.2630   34.6710   45.8800 C   0  0  0  0  0  0  0  0  0  0  0  0
   58.2560   33.9340   45.2320 C   0  0  0  0  0  0  0  0  0  0  0  0
   57.8700   32.6610   45.7120 C   0  0  0  0  0  0  0  0  0  0  0  0
   56.8770   31.9500   45.0210 O   0  0  0  0  0  0  0  0  0  0  0  0
   57.1100   30.7120   44.4180 C   0  0  0  0  0  0  0  0  0  0  0  0
   56.4410   30.3600   43.2420 C   0  0  0  0  0  0  0  0  0  0  0  0
   56.6460   29.0990   42.6790 C   0  0  0  0  0  0  0  0  0  0  0  0
   57.5300   28.2090   43.2970 C   0  0  0  0  0  0  0  0  0  0  0  0
   57.8020   26.6190   42.6150 Cl  0  0  0  0  0  0  0  0  0  0  0  0
   58.1810   28.5760   44.4330 N   0  0  0  0  0  0  0  0  0  0  0  0
   57.9930   29.7980   45.0010 C   0  0  0  0  0  0  0  0  0  0  0  0
   58.4950   32.1320   46.8660 C   0  0  0  0  0  0  0  0  0  0  0  0
   59.5040   32.8810   47.4760 C   0  0  0  0  0  0  0  0  0  0  0  0
   61.6668   30.6664   50.7619 H   0  0  0  0  0  0  0  0  0  0  0  0
   61.4648   29.7650   49.2213 H   0  0  0  0  0  0  0  0  0  0  0  0
   62.2563   31.3776   49.2213 H   0  0  0  0  0  0  0  0  0  0  0  0
   59.4629   30.6616   49.0209 H   0  0  0  0  0  0  0  0  0  0  0  0
   57.5334   30.8788   50.1131 H   0  0  0  0  0  0  0  0  0  0  0  0
   56.2691   31.5824   52.1482 H   0  0  0  0  0  0  0  0  0  0  0  0
   57.4144   32.9254   53.9191 H   0  0  0  0  0  0  0  0  0  0  0  0
   59.8172   33.5451   53.6289 H   0  0  0  0  0  0  0  0  0  0  0  0
   60.9790   32.8670   51.6650 H   0  0  0  0  0  0  0  0  0  0  0  0
   64.9817   33.6987   51.0569 H   0  0  0  0  0  0  0  0  0  0  0  0
   65.0131   32.6290   48.6730 H   0  0  0  0  0  0  0  0  0  0  0  0
   63.4532   32.5237   47.7885 H   0  0  0  0  0  0  0  0  0  0  0  0
   64.3837   34.0602   47.7885 H   0  0  0  0  0  0  0  0  0  0  0  0
   59.5648   35.6633   45.5136 H   0  0  0  0  0  0  0  0  0  0  0  0
   57.7631   34.3522   44.3420 H   0  0  0  0  0  0  0  0  0  0  0  0
   55.7556   31.0740   42.7620 H   0  0  0  0  0  0  0  0  0  0  0  0
   56.1177   28.8086   41.7589 H   0  0  0  0  0  0  0  0  0  0  0  0
   58.5358   30.0670   45.9191 H   0  0  0  0  0  0  0  0  0  0  0  0
   58.1938   31.1553   47.2726 H   0  0  0  0  0  0  0  0  0  0  0  0
  1  2  1  0
  2  3  1  0
  3  4  2  0
  4  5  1  0
  5  6  2  0
  6  7  1  0
  7  8  2  0
  2  9  1  0
  9 10  1  0
 10 11  1  0
 11 12  2  0
 12 13  1  0
 13 14  2  0
 14 15  1  0
 15 16  1  0
 10 17  2  0
 17 18  1  0
 18 19  2  0
 19 20  1  0
 20 21  2  0
 21 22  1  0
 22 23  1  0
 23 24  2  0
 24 25  1  0
 25 26  2  0
 26 27  1  0
 26 28  1  0
 28 29  2  0
 21 30  1  0
 30 31  2  0
  8  3  1  0
 31  9  1  0
 15 11  1  0
 31 18  1  0
 29 23  1  0
  1 32  1  0
  1 33  1  0
  1 34  1  0
  2 35  1  6
  4 36  1  0
  5 37  1  0
  6 38  1  0
  7 39  1  0
  8 40  1  0
 14 41  1  0
 16 42  1  0
 16 43  1  0
 16 44  1  0
 19 45  1  0
 20 46  1  0
 24 47  1  0
 25 48  1  0
 29 49  1  0
 30 50  1  0
M  CHG  1   8   1
M  END
>  <UniqueID>  (22) 
22

>  <SMILES>  (22) 
C[C@@H](c1cccc[nH+]1)n1c(-c2nncn2C)nc2ccc(Oc3ccc(Cl)nc3)cc21

>  <Energy>  (22) 
140.58203776135602

>  <Genealogy>  (22) 
CC(c1cccc[nH+]1)n1c(-c2nncn2C)nc2ccc(Oc3ccc(Cl)nc3)cc21 (protonated)
C[C@@H](c1cccc[nH+]1)n1c(-c2nncn2C)nc2ccc(Oc3ccc(Cl)nc3)cc21 (chirality)
C[C@@H](c1cccc[nH+]1)n1c(-c2nncn2C)nc2ccc(Oc3ccc(Cl)nc3)cc21 (3D coordinates assigned)
C[C@@H](c1cccc[nH+]1)n1c(-c2nncn2C)nc2ccc(Oc3ccc(Cl)nc3)cc21 (optimized conformer: 140.58203776135602 kcal/mol)

>  <smiles>  (22) 
CC(c1ccccn1)n1c(-c2nncn2C)nc2ccc(Oc3ccc(Cl)nc3)cc21

>  <score_type>  (22) 
oracle

>  <origin>  (22) 
adg

>  <m_score__min__energy>  (22) 
-7.0999999999999996

>  <m_primary>  (22) 
energy

$$$$
22:0
     RDKit          3D

 49 50  0  0  0  0  0  0  0  0999 V2000
   63.2980   33.8320   46.3540 C   0  0  0  0  0  0  0  0  0  0  0  0
   63.1630   33.8060   47.8750 C   0  0  0  0  0  0  0  0  0  0  0  0
   61.9000   33.1400   48.2680 N   0  0  0  0  0  0  0  0  0  0  0  0
   61.0670   34.0330   49.1090 C   0  0  0  0  0  0  0  0  0  0  0  0
   59.6440   33.4870   49.2280 C   0  0  0  0  0  0  0  0  0  0  0  0
   62.1640   31.8590   48.9660 C   0  0  0  0  0  0  0  0  0  0  0  0
   61.4810   30.7020   48.2150 C   0  0  0  0  0  0  0  0  0  0  0  0
   60.7450   31.1640   47.0260 N   0  0  0  0  0  0  0  0  0  0  0  0
   59.7030   30.2380   46.6480 C   0  0  0  0  0  0  0  0  0  0  0  0
   59.8470   28.9540   46.9710 O   0  0  0  0  0  0  0  0  0  0  0  0
   58.9560   28.0200   46.6590 C   0  0  0  0  0  0  0  0  0  0  0  0
   59.1860   26.6930   47.0350 C   0  0  0  0  0  0  0  0  0  0  0  0
   58.2570   25.7010   46.7160 C   0  0  0  0  0  0  0  0  0  0  0  0
   57.0900   26.0290   46.0170 C   0  0  0  0  0  0  0  0  0  0  0  0
   55.9240   24.7780   45.6230 Cl  0  0  0  0  0  0  0  0  0  0  0  0
   56.8500   27.3530   45.6340 C   0  0  0  0  0  0  0  0  0  0  0  0
   57.7810   28.3600   45.9510 C   0  0  0  0  0  0  0  0  0  0  0  0
   57.5880   29.7020   45.5870 C   0  0  0  0  0  0  0  0  0  0  0  0
   56.5530   30.0510   44.9530 O   0  0  0  0  0  0  0  0  0  0  0  0
   58.5570   30.6580   45.9350 C   0  0  0  0  0  0  0  0  0  0  0  0
   58.3740   32.0400   45.5550 C   0  0  0  0  0  0  0  0  0  0  0  0
   58.2330   33.1950   45.2410 C   0  0  0  0  0  0  0  0  0  0  0  0
   58.0760   34.6060   44.8690 C   0  0  0  0  0  0  0  0  0  0  0  0
   59.2950   35.3000   45.0490 O   0  0  0  0  0  0  0  0  0  0  0  0
   59.6490   35.3210   46.4150 C   0  0  0  0  0  0  0  0  0  0  0  0
   64.3447   34.0336   46.0822 H   0  0  0  0  0  0  0  0  0  0  0  0
   62.9932   32.8586   45.9421 H   0  0  0  0  0  0  0  0  0  0  0  0
   62.6534   34.6225   45.9421 H   0  0  0  0  0  0  0  0  0  0  0  0
   64.0126   33.2555   48.3053 H   0  0  0  0  0  0  0  0  0  0  0  0
   63.1542   34.8397   48.2510 H   0  0  0  0  0  0  0  0  0  0  0  0
   61.5122   34.1036   50.1124 H   0  0  0  0  0  0  0  0  0  0  0  0
   61.0273   35.0270   48.6395 H   0  0  0  0  0  0  0  0  0  0  0  0
   59.3781   33.3850   50.2905 H   0  0  0  0  0  0  0  0  0  0  0  0
   58.9433   34.1801   48.7396 H   0  0  0  0  0  0  0  0  0  0  0  0
   59.5868   32.5030   48.7396 H   0  0  0  0  0  0  0  0  0  0  0  0
   63.2488   31.6803   49.0021 H   0  0  0  0  0  0  0  0  0  0  0  0
   61.7617   31.9143   49.9883 H   0  0  0  0  0  0  0  0  0  0  0  0
   62.2508   29.9834   47.8973 H   0  0  0  0  0  0  0  0  0  0  0  0
   60.7561   30.2380   48.9000 H   0  0  0  0  0  0  0  0  0  0  0  0
   61.4160   31.2940   46.2340 H   0  0  0  0  0  0  0  0  0  0  0  0
   60.3210   32.1010   47.2220 H   0  0  0  0  0  0  0  0  0  0  0  0
   60.1021   26.4298   47.5841 H   0  0  0  0  0  0  0  0  0  0  0  0
   58.4428   24.6588   47.0149 H   0  0  0  0  0  0  0  0  0  0  0  0
   55.9320   27.6076   45.0841 H   0  0  0  0  0  0  0  0  0  0  0  0
   57.7737   34.6714   43.8134 H   0  0  0  0  0  0  0  0  0  0  0  0
   57.3071   35.0615   45.5103 H   0  0  0  0  0  0  0  0  0  0  0  0
   58.7389   35.2670   47.0305 H   0  0  0  0  0  0  0  0  0  0  0  0
   60.2952   34.4596   46.6396 H   0  0  0  0  0  0  0  0  0  0  0  0
   60.1888   36.2527   46.6396 H   0  0  0  0  0  0  0  0  0  0  0  0
  1  2  1  0
  2  3  1  0
  3  4  1  0
  4  5  1  0
  3  6  1  0
  6  7  1  0
  7  8  1  0
  8  9  1  0
  9 10  1  0
 10 11  1  0
 11 12  2  0
 12 13  1  0
 13 14  2  0
 14 15  1  0
 14 16  1  0
 16 17  2  0
 17 18  1  0
 18 19  2  0
 18 20  1  0
 20 21  1  0
 21 22  3  0
 22 23  1  0
 23 24  1  0
 24 25  1  0
 20  9  2  0
 17 11  1  0
  1 26  1  0
  1 27  1  0
  1 28  1  0
  2 29  1  0
  2 30  1  0
  4 31  1  0
  4 32  1  0
  5 33  1  0
  5 34  1  0
  5 35  1  0
  6 36  1  0
  6 37  1  0
  7 38  1  0
  7 39  1  0
  8 40  1  0
  8 41  1  0
 12 42  1  0
 13 43  1  0
 16 44  1  0
 23 45  1  0
 23 46  1  0
 25 47  1  0
 25 48  1  0
 25 49  1  0
M  CHG  1   8   1
M  END
>  <UniqueID>  (23) 
23

>  <SMILES>  (23) 
CCN(CC)CC[NH2+]c1oc2ccc(Cl)cc2c(=O)c1C#CCOC

>  <Energy>  (23) 
50.58004848586599

>  <Genealogy>  (23) 
CCN(CC)CC[NH2+]c1oc2ccc(Cl)cc2c(=O)c1C#CCOC (protonated)
CCN(CC)CC[NH2+]c1oc2ccc(Cl)cc2c(=O)c1C#CCOC (3D coordinates assigned)
CCN(CC)CC[NH2+]c1oc2ccc(Cl)cc2c(=O)c1C#CCOC (optimized conformer: 50.58004848586599 kcal/mol)

>  <smiles>  (23) 
CCN(CC)CCNc1oc2ccc(Cl)cc2c(=O)c1C#CCOC

>  <score_type>  (23) 
oracle

>  <origin>  (23) 
adg

>  <m_score__min__energy>  (23) 
-4.6100000000000003

>  <m_primary>  (23) 
energy

$$$$
23:0
     RDKit          3D

 47 49  0  0  0  0  0  0  0  0999 V2000
   57.9080   34.1130   45.9300 C   0  0  0  0  0  0  0  0  0  0  0  0
   57.3980   33.2940   44.7570 C   0  0  0  0  0  0  0  0  0  0  0  0
   56.9090   32.0460   45.2350 O   0  0  0  0  0  0  0  0  0  0  0  0
   57.5960   30.8410   45.1700 N   0  0  0  0  0  0  0  0  0  0  0  0
   57.5420   29.8310   44.2520 C   0  0  0  0  0  0  0  0  0  0  0  0
   56.6780   29.8060   43.0220 C   0  0  0  0  0  0  0  0  0  0  0  0
   58.4490   28.8210   44.6090 C   0  0  0  0  0  0  0  0  0  0  0  0
   58.6850   27.5030   43.9170 C   0  0  0  0  0  0  0  0  0  0  0  0
   57.4020   26.8760   43.5600 N   0  0  0  0  0  0  0  0  0  0  0  0
   57.5680   25.5030   43.0450 C   0  0  0  0  0  0  0  0  0  0  0  0
   56.7180   24.4600   43.7920 C   0  0  0  0  0  0  0  0  0  0  0  0
   56.8390   24.6060   45.2430 N   0  0  0  0  0  0  0  0  0  0  0  0
   57.6650   23.7770   46.1100 C   0  0  0  0  0  0  0  0  0  0  0  0
   57.3190   24.2160   47.5540 C   0  0  0  0  0  0  0  0  0  0  0  0
   56.2510   25.2030   47.4440 N   0  0  0  0  0  0  0  0  0  0  0  0
   56.0090   25.3940   46.0690 C   0  0  0  0  0  0  0  0  0  0  0  0
   55.1330   26.1850   45.6300 O   0  0  0  0  0  0  0  0  0  0  0  0
   59.0350   29.2420   45.7890 C   0  0  0  0  0  0  0  0  0  0  0  0
   59.9810   28.6310   46.6150 C   0  0  0  0  0  0  0  0  0  0  0  0
   60.3880   29.3190   47.7730 C   0  0  0  0  0  0  0  0  0  0  0  0
   59.8460   30.5850   48.0790 C   0  0  0  0  0  0  0  0  0  0  0  0
   58.8890   31.1740   47.2330 C   0  0  0  0  0  0  0  0  0  0  0  0
   58.5040   30.4700   46.0900 C   0  0  0  0  0  0  0  0  0  0  0  0
   57.6077   33.6308   46.8720 H   0  0  0  0  0  0  0  0  0  0  0  0
   59.0052   34.1759   45.8838 H   0  0  0  0  0  0  0  0  0  0  0  0
   57.4804   35.1254   45.8838 H   0  0  0  0  0  0  0  0  0  0  0  0
   56.5859   33.8388   44.2534 H   0  0  0  0  0  0  0  0  0  0  0  0
   58.2169   33.1211   44.0432 H   0  0  0  0  0  0  0  0  0  0  0  0
   55.6191   29.7754   43.3183 H   0  0  0  0  0  0  0  0  0  0  0  0
   56.8654   30.7099   42.4239 H   0  0  0  0  0  0  0  0  0  0  0  0
   56.9173   28.9144   42.4239 H   0  0  0  0  0  0  0  0  0  0  0  0
   59.2724   27.6734   43.0027 H   0  0  0  0  0  0  0  0  0  0  0  0
   59.2325   26.8346   44.5978 H   0  0  0  0  0  0  0  0  0  0  0  0
   56.8060   26.8190   44.4190 H   0  0  0  0  0  0  0  0  0  0  0  0
   56.8970   27.4660   42.8590 H   0  0  0  0  0  0  0  0  0  0  0  0
   57.2791   25.4920   41.9837 H   0  0  0  0  0  0  0  0  0  0  0  0
   58.6225   25.2272   43.1933 H   0  0  0  0  0  0  0  0  0  0  0  0
   55.6634   24.5886   43.5070 H   0  0  0  0  0  0  0  0  0  0  0  0
   57.0804   23.4589   43.5155 H   0  0  0  0  0  0  0  0  0  0  0  0
   57.4277   22.7128   45.9644 H   0  0  0  0  0  0  0  0  0  0  0  0
   58.7362   23.8991   45.8919 H   0  0  0  0  0  0  0  0  0  0  0  0
   56.9778   23.3514   48.1422 H   0  0  0  0  0  0  0  0  0  0  0  0
   58.1986   24.6378   48.0623 H   0  0  0  0  0  0  0  0  0  0  0  0
   60.3952   27.6424   46.3679 H   0  0  0  0  0  0  0  0  0  0  0  0
   61.1334   28.8669   48.4438 H   0  0  0  0  0  0  0  0  0  0  0  0
   60.1740   31.1151   48.9853 H   0  0  0  0  0  0  0  0  0  0  0  0
   58.4571   32.1588   47.4646 H   0  0  0  0  0  0  0  0  0  0  0  0
  1  2  1  0
  2  3  1  0
  3  4  1  0
  4  5  1  0
  5  6  1  0
  5  7  2  0
  7  8  1  0
  8  9  1  0
  9 10  1  0
 10 11  1  0
 11 12  1  0
 12 13  1  0
 13 14  1  0
 14 15  1  0
 15 16  1  0
 16 17  2  0
  7 18  1  0
 18 19  2  0
 19 20  1  0
 20 21  2  0
 21 22  1  0
 22 23  2  0
 23  4  1  0
 16 12  1  0
 23 18  1  0
  1 24  1  0
  1 25  1  0
  1 26  1  0
  2 27  1  0
  2 28  1  0
  6 29  1  0
  6 30  1  0
  6 31  1  0
  8 32  1  0
  8 33  1  0
  9 34  1  0
  9 35  1  0
 10 36  1  0
 10 37  1  0
 11 38  1  0
 11 39  1  0
 13 40  1  0
 13 41  1  0
 14 42  1  0
 14 43  1  0
 19 44  1  0
 20 45  1  0
 21 46  1  0
 22 47  1  0
M  CHG  2   9   1  15  -1
M  END
>  <UniqueID>  (24) 
24

>  <SMILES>  (24) 
CCOn1c(C)c(C[NH2+]CCN2CC[N-]C2=O)c2ccccc21

>  <Energy>  (24) 
91.33362852167137

>  <Genealogy>  (24) 
CCOn1c(C)c(C[NH2+]CCN2CC[N-]C2=O)c2ccccc21 (protonated)
CCOn1c(C)c(C[NH2+]CCN2CC[N-]C2=O)c2ccccc21 (3D coordinates assigned)
CCOn1c(C)c(C[NH2+]CCN2CC[N-]C2=O)c2ccccc21 (nonaromatic ring conformer: 91.33362852167137 kcal/mol)

>  <smiles>  (24) 
CCOn1c(C)c(CNCCN2CCNC2=O)c2ccccc21

>  <score_type>  (24) 
oracle

>  <origin>  (24) 
adg

>  <m_score__min__energy>  (24) 
-7.8300000000000001

>  <m_primary>  (24) 
energy

$$$$
24:0
     RDKit          3D

 50 52  0  0  0  0  0  0  0  0999 V2000
   64.6890   33.1330   49.5820 C   0  0  0  0  0  0  0  0  0  0  0  0
   63.4160   33.4110   48.8380 C   0  0  0  0  0  0  0  0  0  0  0  0
   63.4100   33.4550   47.4360 C   0  0  0  0  0  0  0  0  0  0  0  0
   62.2320   33.7510   46.7440 C   0  0  0  0  0  0  0  0  0  0  0  0
   61.0480   34.0420   47.4440 C   0  0  0  0  0  0  0  0  0  0  0  0
   59.7660   34.3620   46.6970 C   0  0  0  0  0  0  0  0  0  0  0  0
   59.4320   33.4160   45.6000 N   0  0  0  0  0  0  0  0  0  0  0  0
   59.5120   31.9950   46.0250 C   0  0  0  0  0  0  0  0  0  0  0  0
   58.7760   31.0870   45.0340 C   0  0  0  0  0  0  0  0  0  0  0  0
   57.3240   31.3830   45.0200 N   0  0  0  0  0  0  0  0  0  0  0  0
   56.6920   30.8750   43.7840 C   0  0  0  0  0  0  0  0  0  0  0  0
   55.3960   30.1330   44.1100 C   0  0  0  0  0  0  0  0  0  0  0  0
   55.6880   28.9810   44.8980 O   0  0  0  0  0  0  0  0  0  0  0  0
   56.9640   28.4160   45.0370 C   0  0  0  0  0  0  0  0  0  0  0  0
   57.4650   28.2150   46.3290 C   0  0  0  0  0  0  0  0  0  0  0  0
   58.7320   27.6530   46.5190 C   0  0  0  0  0  0  0  0  0  0  0  0
   59.5070   27.2870   45.4170 C   0  0  0  0  0  0  0  0  0  0  0  0
   59.0180   27.4840   44.1230 C   0  0  0  0  0  0  0  0  0  0  0  0
   57.7520   28.0470   43.9290 C   0  0  0  0  0  0  0  0  0  0  0  0
   57.0080   32.8150   45.2740 C   0  0  0  0  0  0  0  0  0  0  0  0
   58.1680   33.7510   44.8880 C   0  0  0  0  0  0  0  0  0  0  0  0
   61.0560   33.9790   48.8480 C   0  0  0  0  0  0  0  0  0  0  0  0
   62.2340   33.6820   49.5400 C   0  0  0  0  0  0  0  0  0  0  0  0
   64.4977   33.1748   50.6644 H   0  0  0  0  0  0  0  0  0  0  0  0
   65.0597   32.1327   49.3135 H   0  0  0  0  0  0  0  0  0  0  0  0
   65.4429   33.8877   49.3135 H   0  0  0  0  0  0  0  0  0  0  0  0
   64.3369   33.2556   46.8783 H   0  0  0  0  0  0  0  0  0  0  0  0
   62.2314   33.7563   45.6440 H   0  0  0  0  0  0  0  0  0  0  0  0
   58.9372   34.3539   47.4202 H   0  0  0  0  0  0  0  0  0  0  0  0
   59.9193   35.3433   46.2242 H   0  0  0  0  0  0  0  0  0  0  0  0
   60.1970   33.5420   44.8930 H   0  0  0  0  0  0  0  0  0  0  0  0
   60.5685   31.6926   46.0747 H   0  0  0  0  0  0  0  0  0  0  0  0
   59.0378   31.8957   47.0125 H   0  0  0  0  0  0  0  0  0  0  0  0
   59.1857   31.2481   44.0259 H   0  0  0  0  0  0  0  0  0  0  0  0
   58.9175   30.0414   45.3450 H   0  0  0  0  0  0  0  0  0  0  0  0
   56.4667   31.7215   43.1186 H   0  0  0  0  0  0  0  0  0  0  0  0
   57.3858   30.1784   43.2907 H   0  0  0  0  0  0  0  0  0  0  0  0
   54.7242   30.7993   44.6710 H   0  0  0  0  0  0  0  0  0  0  0  0
   54.9092   29.8209   43.1743 H   0  0  0  0  0  0  0  0  0  0  0  0
   56.8581   28.5010   47.2007 H   0  0  0  0  0  0  0  0  0  0  0  0
   59.1179   27.4994   47.5376 H   0  0  0  0  0  0  0  0  0  0  0  0
   60.5024   26.8436   45.5674 H   0  0  0  0  0  0  0  0  0  0  0  0
   59.6295   27.1959   43.2552 H   0  0  0  0  0  0  0  0  0  0  0  0
   57.3709   28.2019   42.9088 H   0  0  0  0  0  0  0  0  0  0  0  0
   56.1210   33.0906   44.6847 H   0  0  0  0  0  0  0  0  0  0  0  0
   56.8284   32.9319   46.3529 H   0  0  0  0  0  0  0  0  0  0  0  0
   58.3412   33.6700   43.8047 H   0  0  0  0  0  0  0  0  0  0  0  0
   57.8827   34.7734   45.1766 H   0  0  0  0  0  0  0  0  0  0  0  0
   60.1273   34.1650   49.4074 H   0  0  0  0  0  0  0  0  0  0  0  0
   62.2329   33.6610   50.6398 H   0  0  0  0  0  0  0  0  0  0  0  0
  1  2  1  0
  2  3  2  0
  3  4  1  0
  4  5  2  0
  5  6  1  0
  6  7  1  0
  7  8  1  0
  8  9  1  0
  9 10  1  0
 10 11  1  0
 11 12  1  0
 12 13  1  0
 13 14  1  0
 14 15  2  0
 15 16  1  0
 16 17  2  0
 17 18  1  0
 18 19  2  0
 10 20  1  0
 20 21  1  0
  5 22  1  0
 22 23  2  0
 23  2  1  0
 21  7  1  0
 19 14  1  0
  1 24  1  0
  1 25  1  0
  1 26  1  0
  3 27  1  0
  4 28  1  0
  6 29  1  0
  6 30  1  0
  7 31  1  0
  8 32  1  0
  8 33  1  0
  9 34  1  0
  9 35  1  0
 11 36  1  0
 11 37  1  0
 12 38  1  0
 12 39  1  0
 15 40  1  0
 16 41  1  0
 17 42  1  0
 18 43  1  0
 19 44  1  0
 20 45  1  0
 20 46  1  0
 21 47  1  0
 21 48  1  0
 22 49  1  0
 23 50  1  0
M  CHG  1   7   1
M  END
>  <UniqueID>  (25) 
25

>  <SMILES>  (25) 
Cc1ccc(C[NH+]2CCN(CCOc3ccccc3)CC2)cc1

>  <Energy>  (25) 
64.81825496757175

>  <Genealogy>  (25) 
Cc1ccc(C[NH+]2CCN(CCOc3ccccc3)CC2)cc1 (protonated)
Cc1ccc(C[NH+]2CCN(CCOc3ccccc3)CC2)cc1 (3D coordinates assigned)
Cc1ccc(C[NH+]2CCN(CCOc3ccccc3)CC2)cc1 (nonaromatic ring conformer: 64.81825496757175 kcal/mol)

>  <smiles>  (25) 
Cc1ccc(CN2CCN(CCOc3ccccc3)CC2)cc1

>  <score_type>  (25) 
oracle

>  <origin>  (25) 
adg

>  <m_score__min__energy>  (25) 
-6.6600000000000001

>  <m_primary>  (25) 
energy

$$$$
25:0
     RDKit          3D

 37 38  0  0  0  0  0  0  0  0999 V2000
   58.1410   27.0100   43.0050 C   0  0  0  0  0  0  0  0  0  0  0  0
   57.8980   28.1650   43.9760 C   0  0  0  0  0  0  0  0  0  0  0  0
   56.9970   29.2520   43.3780 C   0  0  0  0  0  0  0  0  0  0  0  0
   56.1770   29.9390   44.4390 C   0  0  0  0  0  0  0  0  0  0  0  0
   55.1440   29.3660   44.8760 O   0  0  0  0  0  0  0  0  0  0  0  0
   56.4560   31.2780   44.8670 N   0  0  0  0  0  0  0  0  0  0  0  0
   57.6540   31.7210   45.5130 C   0  0  0  0  0  0  0  0  0  0  0  0
   58.1380   33.0440   45.3300 C   0  0  0  0  0  0  0  0  0  0  0  0
   59.3360   33.4600   45.9370 C   0  0  0  0  0  0  0  0  0  0  0  0
   60.0310   32.5280   46.7100 C   0  0  0  0  0  0  0  0  0  0  0  0
   59.5800   31.2440   46.8670 C   0  0  0  0  0  0  0  0  0  0  0  0
   58.4010   30.7980   46.2690 C   0  0  0  0  0  0  0  0  0  0  0  0
   60.4620   30.5500   47.6160 N   0  0  0  0  0  0  0  0  0  0  0  0
   60.4320   29.1280   47.9460 C   0  0  0  0  0  0  0  0  0  0  0  0
   61.4510   31.4420   47.8740 C   0  0  0  0  0  0  0  0  0  0  0  0
   62.4980   31.1530   48.5150 O   0  0  0  0  0  0  0  0  0  0  0  0
   61.2080   32.6710   47.3540 N   0  0  0  0  0  0  0  0  0  0  0  0
   62.0930   33.8380   47.3740 C   0  0  0  0  0  0  0  0  0  0  0  0
   63.4460   33.4860   46.7680 C   0  0  0  0  0  0  0  0  0  0  0  0
   58.3349   26.0881   43.5729 H   0  0  0  0  0  0  0  0  0  0  0  0
   57.2526   26.8704   42.3716 H   0  0  0  0  0  0  0  0  0  0  0  0
   59.0104   27.2402   42.3716 H   0  0  0  0  0  0  0  0  0  0  0  0
   57.4188   27.7687   44.8834 H   0  0  0  0  0  0  0  0  0  0  0  0
   58.8720   28.6237   44.2019 H   0  0  0  0  0  0  0  0  0  0  0  0
   57.6266   29.9998   42.8736 H   0  0  0  0  0  0  0  0  0  0  0  0
   56.3077   28.7741   42.6664 H   0  0  0  0  0  0  0  0  0  0  0  0
   57.5696   33.7502   44.7070 H   0  0  0  0  0  0  0  0  0  0  0  0
   59.7130   34.4852   45.8072 H   0  0  0  0  0  0  0  0  0  0  0  0
   58.0654   29.7569   46.3848 H   0  0  0  0  0  0  0  0  0  0  0  0
   60.4294   29.0052   49.0391 H   0  0  0  0  0  0  0  0  0  0  0  0
   59.5240   28.6727   47.5237 H   0  0  0  0  0  0  0  0  0  0  0  0
   61.3199   28.6348   47.5237 H   0  0  0  0  0  0  0  0  0  0  0  0
   61.6349   34.6509   46.7914 H   0  0  0  0  0  0  0  0  0  0  0  0
   62.2400   34.1578   48.4162 H   0  0  0  0  0  0  0  0  0  0  0  0
   64.1708   33.2974   47.5737 H   0  0  0  0  0  0  0  0  0  0  0  0
   63.3459   32.5840   46.1464 H   0  0  0  0  0  0  0  0  0  0  0  0
   63.7981   34.3224   46.1464 H   0  0  0  0  0  0  0  0  0  0  0  0
  1  2  1  0
  2  3  1  0
  3  4  1  0
  4  5  2  0
  4  6  1  0
  6  7  1  0
  7  8  2  0
  8  9  1  0
  9 10  2  0
 10 11  1  0
 11 12  2  0
 11 13  1  0
 13 14  1  0
 13 15  1  0
 15 16  2  0
 15 17  1  0
 17 18  1  0
 18 19  1  0
 12  7  1  0
 17 10  1  0
  1 20  1  0
  1 21  1  0
  1 22  1  0
  2 23  1  0
  2 24  1  0
  3 25  1  0
  3 26  1  0
  8 27  1  0
  9 28  1  0
 12 29  1  0
 14 30  1  0
 14 31  1  0
 14 32  1  0
 18 33  1  0
 18 34  1  0
 19 35  1  0
 19 36  1  0
 19 37  1  0
M  CHG  1   6  -1
M  END
>  <UniqueID>  (26) 
26

>  <SMILES>  (26) 
CCCC(=O)[N-]c1ccc2c(c1)n(C)c(=O)n2CC

>  <Energy>  (26) 
73.94811471026259

>  <Genealogy>  (26) 
CCCC(=O)[N-]c1ccc2c(c1)n(C)c(=O)n2CC (protonated)
CCCC(=O)[N-]c1ccc2c(c1)n(C)c(=O)n2CC (3D coordinates assigned)
CCCC(=O)[N-]c1ccc2c(c1)n(C)c(=O)n2CC (optimized conformer: 73.94811471026259 kcal/mol)

>  <smiles>  (26) 
CCCC(=O)Nc1ccc2c(c1)n(C)c(=O)n2CC

>  <score_type>  (26) 
oracle

>  <origin>  (26) 
adg

>  <m_score__min__energy>  (26) 
-8.1899999999999995

>  <m_primary>  (26) 
energy

$$$$
26:0
     RDKit          3D

 28 29  0  0  0  0  0  0  0  0999 V2000
   53.7980   23.9960   45.3320 C   0  0  0  0  0  0  0  0  0  0  0  0
   54.9100   24.9420   45.6310 C   0  0  0  0  0  0  0  0  0  0  0  0
   56.2530   24.6190   45.7220 C   0  0  0  0  0  0  0  0  0  0  0  0
   56.8530   25.8420   45.9810 C   0  0  0  0  0  0  0  0  0  0  0  0
   58.1230   26.0920   46.1120 N   0  0  0  0  0  0  0  0  0  0  0  0
   58.7760   27.3610   45.9570 C   0  0  0  0  0  0  0  0  0  0  0  0
   59.5720   27.7470   46.8530 O   0  0  0  0  0  0  0  0  0  0  0  0
   58.5980   28.2080   44.7260 C   0  0  0  0  0  0  0  0  0  0  0  0
   57.2210   28.2860   44.3650 O   0  0  0  0  0  0  0  0  0  0  0  0
   56.4510   29.4430   44.5310 C   0  0  0  0  0  0  0  0  0  0  0  0
   55.2410   29.3670   44.8790 O   0  0  0  0  0  0  0  0  0  0  0  0
   57.0670   30.7540   44.2960 C   0  0  0  0  0  0  0  0  0  0  0  0
   57.4330   31.2740   43.0690 C   0  0  0  0  0  0  0  0  0  0  0  0
   57.9660   32.5170   43.3360 C   0  0  0  0  0  0  0  0  0  0  0  0
   57.8900   32.6730   44.7040 C   0  0  0  0  0  0  0  0  0  0  0  0
   58.4760   34.2000   45.6810 Br  0  0  0  0  0  0  0  0  0  0  0  0
   57.3520   31.6080   45.2510 O   0  0  0  0  0  0  0  0  0  0  0  0
   55.9120   26.8010   46.0170 N   0  0  0  0  0  0  0  0  0  0  0  0
   54.7610   26.2360   45.8070 O   0  0  0  0  0  0  0  0  0  0  0  0
   53.3659   23.6284   46.2744 H   0  0  0  0  0  0  0  0  0  0  0  0
   53.0217   24.5147   44.7504 H   0  0  0  0  0  0  0  0  0  0  0  0
   54.1856   23.1466   44.7504 H   0  0  0  0  0  0  0  0  0  0  0  0
   56.7283   23.6328   45.6150 H   0  0  0  0  0  0  0  0  0  0  0  0
   58.9771   29.2210   44.9263 H   0  0  0  0  0  0  0  0  0  0  0  0
   59.1565   27.7497   43.8965 H   0  0  0  0  0  0  0  0  0  0  0  0
   57.3221   30.7958   42.0846 H   0  0  0  0  0  0  0  0  0  0  0  0
   58.3689   33.2363   42.6078 H   0  0  0  0  0  0  0  0  0  0  0  0
   56.0590   27.8230   46.1750 H   0  0  0  0  0  0  0  0  0  0  0  0
  1  2  1  0
  2  3  2  0
  3  4  1  0
  4  5  2  3
  5  6  1  0
  6  7  2  0
  6  8  1  0
  8  9  1  0
  9 10  1  0
 10 11  2  0
 10 12  1  0
 12 13  2  0
 13 14  1  0
 14 15  2  0
 15 16  1  0
 15 17  1  0
  4 18  1  0
 18 19  1  0
 19  2  1  0
 17 12  1  0
  1 20  1  0
  1 21  1  0
  1 22  1  0
  3 23  1  0
  8 24  1  0
  8 25  1  0
 13 26  1  0
 14 27  1  0
 18 28  1  0
M  END
>  <UniqueID>  (27) 
27

>  <SMILES>  (27) 
Cc1cc(=NC(=O)COC(=O)c2ccc(Br)o2)[nH]o1

>  <Energy>  (27) 
88.03587293109923

>  <Genealogy>  (27) 
Cc1cc(=NC(=O)COC(=O)c2ccc(Br)o2)[nH]o1 (3D coordinates assigned)
Cc1cc(=NC(=O)COC(=O)c2ccc(Br)o2)[nH]o1 (optimized conformer: 88.03587293109923 kcal/mol)

>  <smiles>  (27) 
Cc1cc(=NC(=O)COC(=O)c2ccc(Br)o2)[nH]o1

>  <score_type>  (27) 
oracle

>  <origin>  (27) 
adg

>  <m_score__min__energy>  (27) 
-7.0800000000000001

>  <m_primary>  (27) 
energy

$$$$
27:0
     RDKit          3D

 45 46  0  0  0  0  0  0  0  0999 V2000
   63.6390   32.6950   48.2170 C   0  0  0  0  0  0  0  0  0  0  0  0
   62.2080   32.7940   47.1620 S   0  0  0  0  0  0  0  0  0  0  0  0
   61.4820   31.1820   46.9100 C   0  0  0  0  0  0  0  0  0  0  0  0
   61.1890   30.5040   48.2550 C   0  0  0  0  0  0  0  0  0  0  0  0
   60.4340   29.2470   48.0850 N   0  0  0  0  0  0  0  0  0  0  0  0
   59.8470   29.1010   46.7340 C   0  0  0  0  0  0  0  0  0  0  0  0
   58.3100   29.2140   46.7330 C   0  0  0  0  0  0  0  0  0  0  0  0
   57.7840   29.8000   45.4500 C   0  0  0  0  0  0  0  0  0  0  0  0
   56.6040   29.3030   44.8710 C   0  0  0  0  0  0  0  0  0  0  0  0
   56.1440   29.8220   43.6550 C   0  0  0  0  0  0  0  0  0  0  0  0
   56.8580   30.8350   43.0110 C   0  0  0  0  0  0  0  0  0  0  0  0
   58.0340   31.3320   43.5790 C   0  0  0  0  0  0  0  0  0  0  0  0
   58.4980   30.8170   44.7940 C   0  0  0  0  0  0  0  0  0  0  0  0
   61.0120   33.9570   47.8040 C   0  0  0  0  0  0  0  0  0  0  0  0
   59.7340   33.9200   47.0020 C   0  0  0  0  0  0  0  0  0  0  0  0
   59.6890   34.5850   45.7640 C   0  0  0  0  0  0  0  0  0  0  0  0
   58.5150   34.6040   45.0090 C   0  0  0  0  0  0  0  0  0  0  0  0
   57.3710   33.9580   45.4780 C   0  0  0  0  0  0  0  0  0  0  0  0
   57.4000   33.2900   46.7040 C   0  0  0  0  0  0  0  0  0  0  0  0
   58.5710   33.2640   47.4710 C   0  0  0  0  0  0  0  0  0  0  0  0
   58.5370   32.3900   48.9990 Cl  0  0  0  0  0  0  0  0  0  0  0  0
   63.3207   32.7170   49.2697 H   0  0  0  0  0  0  0  0  0  0  0  0
   64.1782   31.7574   48.0165 H   0  0  0  0  0  0  0  0  0  0  0  0
   64.3022   33.5494   48.0165 H   0  0  0  0  0  0  0  0  0  0  0  0
   60.5423   31.2927   46.3489 H   0  0  0  0  0  0  0  0  0  0  0  0
   62.1914   30.5584   46.3462 H   0  0  0  0  0  0  0  0  0  0  0  0
   62.1426   30.2811   48.7560 H   0  0  0  0  0  0  0  0  0  0  0  0
   60.5759   31.1911   48.8567 H   0  0  0  0  0  0  0  0  0  0  0  0
   59.6680   29.2060   48.7980 H   0  0  0  0  0  0  0  0  0  0  0  0
   61.0700   28.4430   48.2950 H   0  0  0  0  0  0  0  0  0  0  0  0
   60.2574   29.8893   46.0858 H   0  0  0  0  0  0  0  0  0  0  0  0
   60.1045   28.0958   46.3689 H   0  0  0  0  0  0  0  0  0  0  0  0
   57.8808   28.2099   46.8661 H   0  0  0  0  0  0  0  0  0  0  0  0
   58.0201   29.8853   47.5548 H   0  0  0  0  0  0  0  0  0  0  0  0
   56.0402   28.5039   45.3747 H   0  0  0  0  0  0  0  0  0  0  0  0
   55.2189   29.4314   43.2060 H   0  0  0  0  0  0  0  0  0  0  0  0
   56.4943   31.2419   42.0559 H   0  0  0  0  0  0  0  0  0  0  0  0
   58.5956   32.1292   43.0700 H   0  0  0  0  0  0  0  0  0  0  0  0
   59.4250   31.2095   45.2374 H   0  0  0  0  0  0  0  0  0  0  0  0
   60.7874   33.7009   48.8499 H   0  0  0  0  0  0  0  0  0  0  0  0
   61.4377   34.9691   47.7368 H   0  0  0  0  0  0  0  0  0  0  0  0
   60.5875   35.0952   45.3868 H   0  0  0  0  0  0  0  0  0  0  0  0
   58.4919   35.1292   44.0427 H   0  0  0  0  0  0  0  0  0  0  0  0
   56.4464   33.9748   44.8823 H   0  0  0  0  0  0  0  0  0  0  0  0
   56.4963   32.7806   47.0697 H   0  0  0  0  0  0  0  0  0  0  0  0
  2  1  1  1
  2  3  1  0
  3  4  1  0
  4  5  1  0
  5  6  1  0
  6  7  1  0
  7  8  1  0
  8  9  2  0
  9 10  1  0
 10 11  2  0
 11 12  1  0
 12 13  2  0
  2 14  1  0
 14 15  1  0
 15 16  2  0
 16 17  1  0
 17 18  2  0
 18 19  1  0
 19 20  2  0
 20 21  1  0
 13  8  1  0
 20 15  1  0
  1 22  1  0
  1 23  1  0
  1 24  1  0
  3 25  1  0
  3 26  1  0
  4 27  1  0
  4 28  1  0
  5 29  1  0
  5 30  1  0
  6 31  1  0
  6 32  1  0
  7 33  1  0
  7 34  1  0
  9 35  1  0
 10 36  1  0
 11 37  1  0
 12 38  1  0
 13 39  1  0
 14 40  1  0
 14 41  1  0
 16 42  1  0
 17 43  1  0
 18 44  1  0
 19 45  1  0
M  CHG  2   2   1   5   1
M  END
>  <UniqueID>  (28) 
28

>  <SMILES>  (28) 
C[S@@+](CC[NH2+]CCc1ccccc1)Cc1ccccc1Cl

>  <Energy>  (28) 
33.398905979347894

>  <Genealogy>  (28) 
C[S+](CC[NH2+]CCc1ccccc1)Cc1ccccc1Cl (protonated)
C[S@@+](CC[NH2+]CCc1ccccc1)Cc1ccccc1Cl (chirality)
C[S@@+](CC[NH2+]CCc1ccccc1)Cc1ccccc1Cl (3D coordinates assigned)
C[S@@+](CC[NH2+]CCc1ccccc1)Cc1ccccc1Cl (optimized conformer: 33.398905979347894 kcal/mol)

>  <smiles>  (28) 
C[S+](CCNCCc1ccccc1)Cc1ccccc1Cl

>  <score_type>  (28) 
oracle

>  <origin>  (28) 
adg

>  <m_score__min__energy>  (28) 
-4.46

>  <m_primary>  (28) 
energy

$$$$
28:0
     RDKit          3D

 68 72  0  0  0  0  0  0  0  0999 V2000
   56.1980   31.0840   51.9400 C   0  0  0  0  0  0  0  0  0  0  0  0
   57.3210   32.1140   52.0450 C   0  0  0  0  0  0  0  0  0  0  0  0
   58.2430   32.0120   50.8860 N   0  0  0  0  0  0  0  0  0  0  0  0
   59.1020   33.2190   50.7610 C   0  0  0  0  0  0  0  0  0  0  0  0
   60.4850   33.0780   51.4110 C   0  0  0  0  0  0  0  0  0  0  0  0
   58.9920   30.7290   50.9140 C   0  0  0  0  0  0  0  0  0  0  0  0
   58.8780   29.9220   49.6090 C   0  0  0  0  0  0  0  0  0  0  0  0
   60.1800   29.7800   48.9560 N   0  0  0  0  0  0  0  0  0  0  0  0
   60.9710   30.9100   48.5480 C   0  0  0  0  0  0  0  0  0  0  0  0
   60.5670   31.8020   47.5240 C   0  0  0  0  0  0  0  0  0  0  0  0
   61.4540   32.8070   47.0880 C   0  0  0  0  0  0  0  0  0  0  0  0
   62.7190   32.9270   47.6320 N   0  0  0  0  0  0  0  0  0  0  0  0
   63.7490   33.7550   46.9870 C   0  0  0  0  0  0  0  0  0  0  0  0
   63.0010   32.1950   48.7560 C   0  0  0  0  0  0  0  0  0  0  0  0
   62.1780   31.1760   49.1890 C   0  0  0  0  0  0  0  0  0  0  0  0
   62.8270   30.4100   50.3030 C   0  0  0  0  0  0  0  0  0  0  0  0
   64.0820   31.1360   50.4960 N   0  0  0  0  0  0  0  0  0  0  0  0
   64.1780   32.1660   49.6280 C   0  0  0  0  0  0  0  0  0  0  0  0
   65.1690   33.0920   49.7480 N   0  0  0  0  0  0  0  0  0  0  0  0
   66.1490   32.9130   50.6820 C   0  0  0  0  0  0  0  0  0  0  0  0
   67.1990   33.8370   50.7940 C   0  0  0  0  0  0  0  0  0  0  0  0
   68.2030   33.6520   51.7490 C   0  0  0  0  0  0  0  0  0  0  0  0
   68.1650   32.5480   52.6050 C   0  0  0  0  0  0  0  0  0  0  0  0
   67.1210   31.6220   52.5160 C   0  0  0  0  0  0  0  0  0  0  0  0
   66.1060   31.7950   51.5580 C   0  0  0  0  0  0  0  0  0  0  0  0
   65.0190   30.9070   51.4530 C   0  0  0  0  0  0  0  0  0  0  0  0
   64.9010   29.9240   52.2360 O   0  0  0  0  0  0  0  0  0  0  0  0
   60.9180   33.7310   46.0200 C   0  0  0  0  0  0  0  0  0  0  0  0
   59.6160   34.1530   46.3730 O   0  0  0  0  0  0  0  0  0  0  0  0
   58.6580   33.0930   46.4240 C   0  0  0  0  0  0  0  0  0  0  0  0
   57.9470   33.0110   45.0610 C   0  0  0  0  0  0  0  0  0  0  0  0
   57.6230   33.4940   47.4890 C   0  0  0  0  0  0  0  0  0  0  0  0
   59.2480   31.6880   46.8040 C   0  0  0  0  0  0  0  0  0  0  0  0
   55.8759   30.7886   52.9494 H   0  0  0  0  0  0  0  0  0  0  0  0
   55.3476   31.5227   51.3975 H   0  0  0  0  0  0  0  0  0  0  0  0
   56.5618   30.1989   51.3975 H   0  0  0  0  0  0  0  0  0  0  0  0
   56.8833   33.1229   52.0694 H   0  0  0  0  0  0  0  0  0  0  0  0
   57.8909   31.9202   52.9657 H   0  0  0  0  0  0  0  0  0  0  0  0
   59.2439   33.4319   49.6912 H   0  0  0  0  0  0  0  0  0  0  0  0
   58.5846   34.0312   51.2927 H   0  0  0  0  0  0  0  0  0  0  0  0
   60.3784   33.0889   52.5058 H   0  0  0  0  0  0  0  0  0  0  0  0
   60.9428   32.1285   51.0966 H   0  0  0  0  0  0  0  0  0  0  0  0
   61.1250   33.9155   51.0966 H   0  0  0  0  0  0  0  0  0  0  0  0
   60.0543   30.9501   51.0948 H   0  0  0  0  0  0  0  0  0  0  0  0
   58.5513   30.1149   51.7132 H   0  0  0  0  0  0  0  0  0  0  0  0
   58.4818   28.9220   49.8395 H   0  0  0  0  0  0  0  0  0  0  0  0
   58.2039   30.4598   48.9260 H   0  0  0  0  0  0  0  0  0  0  0  0
   60.4000   28.8480   48.5400 H   0  0  0  0  0  0  0  0  0  0  0  0
   64.3603   34.2465   47.7582 H   0  0  0  0  0  0  0  0  0  0  0  0
   64.3913   33.1190   46.3602 H   0  0  0  0  0  0  0  0  0  0  0  0
   63.2658   34.5190   46.3602 H   0  0  0  0  0  0  0  0  0  0  0  0
   62.2102   30.4330   51.2135 H   0  0  0  0  0  0  0  0  0  0  0  0
   62.9677   29.3425   50.0778 H   0  0  0  0  0  0  0  0  0  0  0  0
   65.1690   33.9570   49.1670 H   0  0  0  0  0  0  0  0  0  0  0  0
   67.2323   34.7112   50.1271 H   0  0  0  0  0  0  0  0  0  0  0  0
   69.0258   34.3779   51.8270 H   0  0  0  0  0  0  0  0  0  0  0  0
   68.9599   32.4068   53.3521 H   0  0  0  0  0  0  0  0  0  0  0  0
   67.0936   30.7576   53.1958 H   0  0  0  0  0  0  0  0  0  0  0  0
   61.5759   34.6079   45.9297 H   0  0  0  0  0  0  0  0  0  0  0  0
   60.8830   33.1987   45.0580 H   0  0  0  0  0  0  0  0  0  0  0  0
   56.8655   32.8863   45.2185 H   0  0  0  0  0  0  0  0  0  0  0  0
   58.1308   33.9363   44.4953 H   0  0  0  0  0  0  0  0  0  0  0  0
   58.3366   32.1518   44.4953 H   0  0  0  0  0  0  0  0  0  0  0  0
   58.0458   33.3302   48.4912 H   0  0  0  0  0  0  0  0  0  0  0  0
   57.3660   34.5568   47.3687 H   0  0  0  0  0  0  0  0  0  0  0  0
   56.7171   32.8818   47.3687 H   0  0  0  0  0  0  0  0  0  0  0  0
   58.5317   31.1674   47.4566 H   0  0  0  0  0  0  0  0  0  0  0  0
   59.4185   31.1293   45.8719 H   0  0  0  0  0  0  0  0  0  0  0  0
  1  2  1  0
  2  3  1  0
  3  4  1  0
  4  5  1  0
  3  6  1  0
  6  7  1  0
  7  8  1  0
  8  9  1  0
  9 10  2  0
 10 11  1  0
 11 12  2  0
 12 13  1  0
 12 14  1  0
 14 15  2  0
 15 16  1  0
 16 17  1  0
 17 18  1  0
 18 19  2  0
 19 20  1  0
 20 21  2  0
 21 22  1  0
 22 23  2  0
 23 24  1  0
 24 25  2  0
 25 26  1  0
 26 27  2  0
 11 28  1  0
 28 29  1  0
 29 30  1  0
 30 31  1  0
 30 32  1  0
 30 33  1  0
 15  9  1  0
 26 17  1  0
 33 10  1  0
 18 14  1  0
 25 20  1  0
  1 34  1  0
  1 35  1  0
  1 36  1  0
  2 37  1  0
  2 38  1  0
  4 39  1  0
  4 40  1  0
  5 41  1  0
  5 42  1  0
  5 43  1  0
  6 44  1  0
  6 45  1  0
  7 46  1  0
  7 47  1  0
  8 48  1  0
 13 49  1  0
 13 50  1  0
 13 51  1  0
 16 52  1  0
 16 53  1  0
 19 54  1  0
 21 55  1  0
 22 56  1  0
 23 57  1  0
 24 58  1  0
 28 59  1  0
 28 60  1  0
 31 61  1  0
 31 62  1  0
 31 63  1  0
 32 64  1  0
 32 65  1  0
 32 66  1  0
 33 67  1  0
 33 68  1  0
M  CHG  2  12   1  19   1
M  END
>  <UniqueID>  (29) 
29

>  <SMILES>  (29) 
CCN(CC)CCNc1c2c([n+](C)c3c1Cn1c-3[nH+]c3ccccc3c1=O)COC(C)(C)C2

>  <Energy>  (29) 
124.29233552122236

>  <Genealogy>  (29) 
CCN(CC)CCNc1c2c([n+](C)c3c1Cn1c-3[nH+]c3ccccc3c1=O)COC(C)(C)C2 (protonated)
CCN(CC)CCNc1c2c([n+](C)c3c1Cn1c-3[nH+]c3ccccc3c1=O)COC(C)(C)C2 (3D coordinates assigned)
CCN(CC)CCNc1c2c([n+](C)c3c1Cn1c-3[nH+]c3ccccc3c1=O)COC(C)(C)C2 (nonaromatic ring conformer: 124.29233552122236 kcal/mol)

>  <smiles>  (29) 
CCN(CC)CCNc1c2c([n+](C)c3c1Cn1c-3nc3ccccc3c1=O)COC(C)(C)C2

>  <score_type>  (29) 
oracle

>  <origin>  (29) 
adg

>  <m_score__min__energy>  (29) 
-5.2800000000000002

>  <m_primary>  (29) 
energy

$$$$
29:0
     RDKit          3D

 49 50  0  0  0  0  0  0  0  0999 V2000
   57.0840   32.7600   40.2950 C   0  0  0  0  0  0  0  0  0  0  0  0
   58.1840   32.5900   41.3390 C   0  0  0  0  0  0  0  0  0  0  0  0
   57.6360   31.9750   42.6080 C   0  0  0  0  0  0  0  0  0  0  0  0
   56.7530   30.8910   42.4980 C   0  0  0  0  0  0  0  0  0  0  0  0
   56.2430   30.2970   43.6530 C   0  0  0  0  0  0  0  0  0  0  0  0
   55.4430   29.3280   43.5600 O   0  0  0  0  0  0  0  0  0  0  0  0
   56.5960   30.7430   44.8510 O   0  0  0  0  0  0  0  0  0  0  0  0
   57.4390   31.7560   45.0210 C   0  0  0  0  0  0  0  0  0  0  0  0
   57.7660   32.1610   46.3190 C   0  0  0  0  0  0  0  0  0  0  0  0
   58.6570   33.2160   46.5350 C   0  0  0  0  0  0  0  0  0  0  0  0
   58.9460   33.5790   47.8570 O   0  0  0  0  0  0  0  0  0  0  0  0
   60.0380   34.4060   48.2500 C   0  0  0  0  0  0  0  0  0  0  0  0
   60.2610   34.2860   49.7550 C   0  0  0  0  0  0  0  0  0  0  0  0
   60.6100   32.9540   50.0900 O   0  0  0  0  0  0  0  0  0  0  0  0
   61.9880   32.7290   49.8790 C   0  0  0  0  0  0  0  0  0  0  0  0
   62.1590   31.5540   48.9080 C   0  0  0  0  0  0  0  0  0  0  0  0
   60.8750   31.1250   48.2990 N   0  0  1  0  0  0  0  0  0  0  0  0
   61.0870   30.8540   46.8640 C   0  0  0  0  0  0  0  0  0  0  0  0
   60.3050   29.9210   48.9730 C   0  0  0  0  0  0  0  0  0  0  0  0
   58.9430   29.5290   48.3900 C   0  0  0  0  0  0  0  0  0  0  0  0
   59.2290   33.8700   45.4300 C   0  0  0  0  0  0  0  0  0  0  0  0
   58.9080   33.4760   44.1280 C   0  0  0  0  0  0  0  0  0  0  0  0
   58.0060   32.4170   43.9040 C   0  0  0  0  0  0  0  0  0  0  0  0
   56.1185   32.9092   40.8006 H   0  0  0  0  0  0  0  0  0  0  0  0
   57.3075   33.6343   39.6659 H   0  0  0  0  0  0  0  0  0  0  0  0
   57.0331   31.8591   39.6659 H   0  0  0  0  0  0  0  0  0  0  0  0
   58.9686   31.9355   40.9317 H   0  0  0  0  0  0  0  0  0  0  0  0
   58.5958   33.5813   41.5792 H   0  0  0  0  0  0  0  0  0  0  0  0
   56.4641   30.5112   41.5069 H   0  0  0  0  0  0  0  0  0  0  0  0
   57.3170   31.6435   47.1796 H   0  0  0  0  0  0  0  0  0  0  0  0
   60.9472   34.0870   47.7194 H   0  0  0  0  0  0  0  0  0  0  0  0
   59.8104   35.4524   47.9986 H   0  0  0  0  0  0  0  0  0  0  0  0
   61.0740   34.9624   50.0576 H   0  0  0  0  0  0  0  0  0  0  0  0
   59.3334   34.5584   50.2797 H   0  0  0  0  0  0  0  0  0  0  0  0
   62.4477   33.6317   49.4503 H   0  0  0  0  0  0  0  0  0  0  0  0
   62.4772   32.4946   50.8360 H   0  0  0  0  0  0  0  0  0  0  0  0
   62.8458   31.8582   48.1044 H   0  0  0  0  0  0  0  0  0  0  0  0
   62.5564   30.7034   49.4811 H   0  0  0  0  0  0  0  0  0  0  0  0
   60.2030   31.9290   48.3490 H   0  0  0  0  0  0  0  0  0  0  0  0
   61.7611   29.9923   46.7493 H   0  0  0  0  0  0  0  0  0  0  0  0
   60.1216   30.6304   46.3865 H   0  0  0  0  0  0  0  0  0  0  0  0
   61.5364   31.7372   46.3865 H   0  0  0  0  0  0  0  0  0  0  0  0
   61.0016   29.0793   48.8456 H   0  0  0  0  0  0  0  0  0  0  0  0
   60.1631   30.1618   50.0369 H   0  0  0  0  0  0  0  0  0  0  0  0
   58.2380   29.3261   49.2096 H   0  0  0  0  0  0  0  0  0  0  0  0
   58.5583   30.3529   47.7710 H   0  0  0  0  0  0  0  0  0  0  0  0
   59.0551   28.6267   47.7710 H   0  0  0  0  0  0  0  0  0  0  0  0
   59.9347   34.6983   45.5912 H   0  0  0  0  0  0  0  0  0  0  0  0
   59.3628   33.9963   43.2722 H   0  0  0  0  0  0  0  0  0  0  0  0
  1  2  1  0
  2  3  1  0
  3  4  2  0
  4  5  1  0
  5  6  2  0
  5  7  1  0
  7  8  1  0
  8  9  2  0
  9 10  1  0
 10 11  1  0
 11 12  1  0
 12 13  1  0
 13 14  1  0
 14 15  1  0
 15 16  1  0
 16 17  1  0
 17 18  1  0
 17 19  1  0
 19 20  1  0
 10 21  2  0
 21 22  1  0
 22 23  2  0
 23  3  1  0
 23  8  1  0
  1 24  1  0
  1 25  1  0
  1 26  1  0
  2 27  1  0
  2 28  1  0
  4 29  1  0
  9 30  1  0
 12 31  1  0
 12 32  1  0
 13 33  1  0
 13 34  1  0
 15 35  1  0
 15 36  1  0
 16 37  1  0
 16 38  1  0
 17 39  1  6
 18 40  1  0
 18 41  1  0
 18 42  1  0
 19 43  1  0
 19 44  1  0
 20 45  1  0
 20 46  1  0
 20 47  1  0
 21 48  1  0
 22 49  1  0
M  CHG  1  17   1
M  END
>  <UniqueID>  (30) 
30

>  <SMILES>  (30) 
CCc1cc(=O)oc2cc(OCCOCC[N@@H+](C)CC)ccc12

>  <Energy>  (30) 
52.314575317388076

>  <Genealogy>  (30) 
CCc1cc(=O)oc2cc(OCCOCC[NH+](C)CC)ccc12 (protonated)
CCc1cc(=O)oc2cc(OCCOCC[N@@H+](C)CC)ccc12 (chirality)
CCc1cc(=O)oc2cc(OCCOCC[N@@H+](C)CC)ccc12 (3D coordinates assigned)
CCc1cc(=O)oc2cc(OCCOCC[N@@H+](C)CC)ccc12 (optimized conformer: 52.314575317388076 kcal/mol)

>  <smiles>  (30) 
CCc1cc(=O)oc2cc(OCCOCCN(C)CC)ccc12

>  <score_type>  (30) 
oracle

>  <origin>  (30) 
adg

>  <m_score__min__energy>  (30) 
-6.4400000000000004

>  <m_primary>  (30) 
energy

$$$$
30:0
     RDKit          3D

 34 36  0  0  0  0  0  0  0  0999 V2000
   62.7740   33.8390   46.7550 C   0  0  0  0  0  0  0  0  0  0  0  0
   62.2360   33.5910   47.8050 C   0  0  0  0  0  0  0  0  0  0  0  0
   61.5820   33.2930   49.0820 C   0  0  0  0  0  0  0  0  0  0  0  0
   60.0170   34.2210   49.2270 S   0  0  0  0  0  0  0  0  0  0  0  0
   59.5320   33.9640   47.5160 C   0  0  0  0  0  0  0  0  0  0  0  0
   59.3450   35.0250   46.6720 N   0  0  0  0  0  0  0  0  0  0  0  0
   58.9640   34.8350   45.3670 C   0  0  0  0  0  0  0  0  0  0  0  0
   58.7660   33.5740   44.8780 N   0  0  0  0  0  0  0  0  0  0  0  0
   58.9580   32.5250   45.7130 C   0  0  0  0  0  0  0  0  0  0  0  0
   59.3360   32.6870   47.0010 C   0  0  0  0  0  0  0  0  0  0  0  0
   59.4510   31.4970   47.6150 N   0  0  0  0  0  0  0  0  0  0  0  0
   59.1230   30.6190   46.6290 C   0  0  0  0  0  0  0  0  0  0  0  0
   58.8250   31.2150   45.4430 N   0  0  0  0  0  0  0  0  0  0  0  0
   58.3440   30.5260   44.2330 C   0  0  0  0  0  0  0  0  0  0  0  0
   58.2810   29.0050   44.4610 C   0  0  0  0  0  0  0  0  0  0  0  0
   57.0040   28.5650   45.2150 C   0  0  0  0  0  0  0  0  0  0  0  0
   55.9190   29.4770   45.1420 O   0  0  0  0  0  0  0  0  0  0  0  0
   55.8500   30.0950   43.8770 C   0  0  0  0  0  0  0  0  0  0  0  0
   57.0020   31.0960   43.7130 C   0  0  0  0  0  0  0  0  0  0  0  0
   63.2649   34.0653   45.7970 H   0  0  0  0  0  0  0  0  0  0  0  0
   61.3707   32.2149   49.1381 H   0  0  0  0  0  0  0  0  0  0  0  0
   62.2506   33.5903   49.9033 H   0  0  0  0  0  0  0  0  0  0  0  0
   59.4880   35.9970   47.0250 H   0  0  0  0  0  0  0  0  0  0  0  0
   58.8168   35.7045   44.7095 H   0  0  0  0  0  0  0  0  0  0  0  0
   59.1008   29.5292   46.7769 H   0  0  0  0  0  0  0  0  0  0  0  0
   59.0763   30.7177   43.4349 H   0  0  0  0  0  0  0  0  0  0  0  0
   58.3029   28.5017   43.4831 H   0  0  0  0  0  0  0  0  0  0  0  0
   59.1452   28.7268   45.0822 H   0  0  0  0  0  0  0  0  0  0  0  0
   56.6719   27.6053   44.7922 H   0  0  0  0  0  0  0  0  0  0  0  0
   57.2812   28.5022   46.2776 H   0  0  0  0  0  0  0  0  0  0  0  0
   55.9216   29.3269   43.0929 H   0  0  0  0  0  0  0  0  0  0  0  0
   54.8934   30.6312   43.7910 H   0  0  0  0  0  0  0  0  0  0  0  0
   57.1100   31.3415   42.6462 H   0  0  0  0  0  0  0  0  0  0  0  0
   56.7610   31.9913   44.3049 H   0  0  0  0  0  0  0  0  0  0  0  0
  1  2  3  0
  2  3  1  0
  3  4  1  0
  4  5  1  0
  5  6  2  0
  6  7  1  0
  7  8  2  0
  8  9  1  0
  9 10  2  0
 10 11  1  0
 11 12  2  0
 12 13  1  0
 13 14  1  0
 14 15  1  0
 15 16  1  0
 16 17  1  0
 17 18  1  0
 18 19  1  0
 10  5  1  0
 19 14  1  0
 13  9  1  0
  1 20  1  0
  3 21  1  0
  3 22  1  0
  6 23  1  0
  7 24  1  0
 12 25  1  0
 14 26  1  0
 15 27  1  0
 15 28  1  0
 16 29  1  0
 16 30  1  0
 18 31  1  0
 18 32  1  0
 19 33  1  0
 19 34  1  0
M  CHG  1   6   1
M  END
>  <UniqueID>  (31) 
31

>  <SMILES>  (31) 
C#CCSc1[nH+]cnc2c1ncn2C1CCOCC1

>  <Energy>  (31) 
78.20662164719566

>  <Genealogy>  (31) 
C#CCSc1[nH+]cnc2c1ncn2C1CCOCC1 (protonated)
C#CCSc1[nH+]cnc2c1ncn2C1CCOCC1 (3D coordinates assigned)
C#CCSc1[nH+]cnc2c1ncn2C1CCOCC1 (nonaromatic ring conformer: 78.20662164719566 kcal/mol)

>  <smiles>  (31) 
C#CCSc1ncnc2c1ncn2C1CCOCC1

>  <score_type>  (31) 
oracle

>  <origin>  (31) 
adg

>  <m_score__min__energy>  (31) 
-5.4800000000000004

>  <m_primary>  (31) 
energy

$$$$
31:0
     RDKit          3D

 59 61  0  0  0  0  0  0  0  0999 V2000
   61.1840   30.2260   47.6210 C   0  0  0  0  0  0  0  0  0  0  0  0
   60.8340   30.0480   46.1470 C   0  0  0  0  0  0  0  0  0  0  0  0
   60.0420   28.7550   45.9160 C   0  0  0  0  0  0  0  0  0  0  0  0
   58.9110   28.9880   44.9940 N   0  0  0  0  0  0  0  0  0  0  0  0
   57.5990   28.5370   45.5280 C   0  0  0  0  0  0  0  0  0  0  0  0
   56.3790   28.8790   44.6420 C   0  0  0  0  0  0  0  0  0  0  0  0
   55.8090   30.1730   44.7980 O   0  0  0  0  0  0  0  0  0  0  0  0
   56.5420   31.2310   44.2080 C   0  0  0  0  0  0  0  0  0  0  0  0
   57.9790   31.4030   44.7800 C   0  0  0  0  0  0  0  0  0  0  0  0
   58.5500   32.7910   44.3220 C   0  0  0  0  0  0  0  0  0  0  0  0
   58.1770   33.9260   45.2880 C   0  0  0  0  0  0  0  0  0  0  0  0
   58.6940   33.6910   46.6580 N   0  0  0  0  0  0  0  0  0  0  0  0
   59.7920   34.5970   47.0700 C   0  0  0  0  0  0  0  0  0  0  0  0
   60.4220   34.2350   48.4040 C   0  0  0  0  0  0  0  0  0  0  0  0
   59.6040   34.0470   49.5330 C   0  0  0  0  0  0  0  0  0  0  0  0
   60.1650   33.7380   50.7740 C   0  0  0  0  0  0  0  0  0  0  0  0
   59.0380   33.5080   52.2990 Br  0  0  0  0  0  0  0  0  0  0  0  0
   61.5460   33.5950   50.9000 C   0  0  0  0  0  0  0  0  0  0  0  0
   62.3700   33.7500   49.7850 C   0  0  0  0  0  0  0  0  0  0  0  0
   61.8190   34.0630   48.5270 C   0  0  0  0  0  0  0  0  0  0  0  0
   62.6260   34.2130   47.3860 O   0  0  0  0  0  0  0  0  0  0  0  0
   63.8830   33.5710   47.1900 C   0  0  0  0  0  0  0  0  0  0  0  0
   63.6700   32.0710   47.0770 C   0  0  0  0  0  0  0  0  0  0  0  0
   58.9340   32.2700   47.0020 C   0  0  0  0  0  0  0  0  0  0  0  0
   57.8830   31.3660   46.3460 C   0  0  0  0  0  0  0  0  0  0  0  0
   58.9590   30.2840   44.2730 C   0  0  0  0  0  0  0  0  0  0  0  0
   60.3749   29.8145   48.2423 H   0  0  0  0  0  0  0  0  0  0  0  0
   62.1219   29.6954   47.8418 H   0  0  0  0  0  0  0  0  0  0  0  0
   61.3076   31.2965   47.8418 H   0  0  0  0  0  0  0  0  0  0  0  0
   60.2273   30.9040   45.8166 H   0  0  0  0  0  0  0  0  0  0  0  0
   61.7699   29.9901   45.5718 H   0  0  0  0  0  0  0  0  0  0  0  0
   60.7098   27.9960   45.4825 H   0  0  0  0  0  0  0  0  0  0  0  0
   59.6436   28.4093   46.8813 H   0  0  0  0  0  0  0  0  0  0  0  0
   57.6373   27.4443   45.6485 H   0  0  0  0  0  0  0  0  0  0  0  0
   57.4513   29.0766   46.4751 H   0  0  0  0  0  0  0  0  0  0  0  0
   56.6929   28.7792   43.5925 H   0  0  0  0  0  0  0  0  0  0  0  0
   55.5911   28.1801   44.9594 H   0  0  0  0  0  0  0  0  0  0  0  0
   56.6207   31.0369   43.1281 H   0  0  0  0  0  0  0  0  0  0  0  0
   55.9970   32.1595   44.4334 H   0  0  0  0  0  0  0  0  0  0  0  0
   59.6463   32.7208   44.2661 H   0  0  0  0  0  0  0  0  0  0  0  0
   58.1105   33.0272   43.3417 H   0  0  0  0  0  0  0  0  0  0  0  0
   58.5990   34.8678   44.9072 H   0  0  0  0  0  0  0  0  0  0  0  0
   57.0795   33.9722   45.3455 H   0  0  0  0  0  0  0  0  0  0  0  0
   60.5747   34.5659   46.2977 H   0  0  0  0  0  0  0  0  0  0  0  0
   59.3524   35.5986   47.1863 H   0  0  0  0  0  0  0  0  0  0  0  0
   58.5125   34.1443   49.4374 H   0  0  0  0  0  0  0  0  0  0  0  0
   61.9866   33.3596   51.8800 H   0  0  0  0  0  0  0  0  0  0  0  0
   63.4581   33.6269   49.8890 H   0  0  0  0  0  0  0  0  0  0  0  0
   64.3471   33.9466   46.2661 H   0  0  0  0  0  0  0  0  0  0  0  0
   64.5428   33.7856   48.0436 H   0  0  0  0  0  0  0  0  0  0  0  0
   63.6077   31.6326   48.0839 H   0  0  0  0  0  0  0  0  0  0  0  0
   62.7348   31.8734   46.5326 H   0  0  0  0  0  0  0  0  0  0  0  0
   64.5132   31.6209   46.5326 H   0  0  0  0  0  0  0  0  0  0  0  0
   59.9334   31.9770   46.6478 H   0  0  0  0  0  0  0  0  0  0  0  0
   58.8659   32.1551   48.0939 H   0  0  0  0  0  0  0  0  0  0  0  0
   58.0389   30.3322   46.6881 H   0  0  0  0  0  0  0  0  0  0  0  0
   56.8873   31.7323   46.6365 H   0  0  0  0  0  0  0  0  0  0  0  0
   58.7248   30.0878   43.2163 H   0  0  0  0  0  0  0  0  0  0  0  0
   59.9701   30.6793   44.4500 H   0  0  0  0  0  0  0  0  0  0  0  0
  1  2  1  0
  2  3  1  0
  3  4  1  0
  4  5  1  0
  5  6  1  0
  6  7  1  0
  7  8  1  0
  8  9  1  0
  9 10  1  0
 10 11  1  0
 11 12  1  0
 12 13  1  0
 13 14  1  0
 14 15  2  0
 15 16  1  0
 16 17  1  0
 16 18  2  0
 18 19  1  0
 19 20  2  0
 20 21  1  0
 21 22  1  0
 22 23  1  0
 12 24  1  0
 24 25  1  0
  9 26  1  0
 26  4  1  0
 25  9  1  0
 20 14  1  0
  1 27  1  0
  1 28  1  0
  1 29  1  0
  2 30  1  0
  2 31  1  0
  3 32  1  0
  3 33  1  0
  5 34  1  0
  5 35  1  0
  6 36  1  0
  6 37  1  0
  8 38  1  0
  8 39  1  0
 10 40  1  0
 10 41  1  0
 11 42  1  0
 11 43  1  0
 13 44  1  0
 13 45  1  0
 15 46  1  0
 18 47  1  0
 19 48  1  0
 22 49  1  0
 22 50  1  0
 23 51  1  0
 23 52  1  0
 23 53  1  0
 24 54  1  0
 24 55  1  0
 25 56  1  0
 25 57  1  0
 26 58  1  0
 26 59  1  0
M  END
>  <UniqueID>  (32) 
32

>  <SMILES>  (32) 
CCCN1CCOCC2(CCN(Cc3cc(Br)ccc3OCC)CC2)C1

>  <Energy>  (32) 
92.78147494260558

>  <Genealogy>  (32) 
CCCN1CCOCC2(CCN(Cc3cc(Br)ccc3OCC)CC2)C1 (3D coordinates assigned)
CCCN1CCOCC2(CCN(Cc3cc(Br)ccc3OCC)CC2)C1 (nonaromatic ring conformer: 92.78147494260558 kcal/mol)

>  <smiles>  (32) 
CCCN1CCOCC2(CCN(Cc3cc(Br)ccc3OCC)CC2)C1

>  <score_type>  (32) 
oracle

>  <origin>  (32) 
adg

>  <m_score__min__energy>  (32) 
-5.8499999999999996

>  <m_primary>  (32) 
energy

$$$$
32:0
     RDKit          3D

 64 66  0  0  0  0  0  0  0  0999 V2000
   63.3180   33.7500   46.5940 C   0  0  0  0  0  0  0  0  0  0  0  0
   63.0220   32.3710   47.1870 C   0  0  0  0  0  0  0  0  0  0  0  0
   62.7310   32.4320   48.6390 N   0  0  0  0  0  0  0  0  0  0  0  0
   62.5320   33.8280   49.0920 C   0  0  0  0  0  0  0  0  0  0  0  0
   61.4740   33.8860   50.1910 C   0  0  0  0  0  0  0  0  0  0  0  0
   63.7110   31.7060   49.4880 C   0  0  0  0  0  0  0  0  0  0  0  0
   63.0750   30.8310   50.5820 C   0  0  0  0  0  0  0  0  0  0  0  0
   61.7730   30.4670   50.1710 O   0  0  0  0  0  0  0  0  0  0  0  0
   61.5180   29.1050   50.4630 C   0  0  0  0  0  0  0  0  0  0  0  0
   60.1830   28.9760   51.1920 C   0  0  0  0  0  0  0  0  0  0  0  0
   59.1440   29.4380   50.3490 O   0  0  0  0  0  0  0  0  0  0  0  0
   58.7100   30.7310   50.7430 C   0  0  0  0  0  0  0  0  0  0  0  0
   58.9180   31.7400   49.5980 C   0  0  0  0  0  0  0  0  0  0  0  0
   59.9480   31.2980   48.6340 N   0  0  0  0  0  0  0  0  0  0  0  0
   59.4670   31.3770   47.2580 C   0  0  0  0  0  0  0  0  0  0  0  0
   59.3660   32.6240   46.5710 C   0  0  0  0  0  0  0  0  0  0  0  0
   59.7500   33.8550   47.1680 C   0  0  0  0  0  0  0  0  0  0  0  0
   59.6890   35.0530   46.4590 C   0  0  0  0  0  0  0  0  0  0  0  0
   59.2700   35.0640   45.1410 C   0  0  0  0  0  0  0  0  0  0  0  0
   58.8800   33.8790   44.5260 C   0  0  0  0  0  0  0  0  0  0  0  0
   58.8690   32.6480   45.2340 C   0  0  0  0  0  0  0  0  0  0  0  0
   58.3970   31.4950   44.6420 N   0  0  0  0  0  0  0  0  0  0  0  0
   57.5960   31.5760   43.3960 C   0  0  0  0  0  0  0  0  0  0  0  0
   58.6350   30.2660   45.2240 C   0  0  0  0  0  0  0  0  0  0  0  0
   58.4130   29.0600   44.5120 C   0  0  0  0  0  0  0  0  0  0  0  0
   58.5640   27.8190   45.1250 C   0  0  0  0  0  0  0  0  0  0  0  0
   58.9410   27.7440   46.4570 C   0  0  0  0  0  0  0  0  0  0  0  0
   59.2170   28.9070   47.1690 C   0  0  0  0  0  0  0  0  0  0  0  0
   59.1110   30.1870   46.5620 C   0  0  0  0  0  0  0  0  0  0  0  0
   63.4733   34.4735   47.4079 H   0  0  0  0  0  0  0  0  0  0  0  0
   64.2249   33.6955   45.9739 H   0  0  0  0  0  0  0  0  0  0  0  0
   62.4686   34.0725   45.9739 H   0  0  0  0  0  0  0  0  0  0  0  0
   62.1506   31.9434   46.6695 H   0  0  0  0  0  0  0  0  0  0  0  0
   63.9176   31.7472   47.0499 H   0  0  0  0  0  0  0  0  0  0  0  0
   63.4822   34.2210   49.4827 H   0  0  0  0  0  0  0  0  0  0  0  0
   62.1937   34.4347   48.2391 H   0  0  0  0  0  0  0  0  0  0  0  0
   61.9654   33.8591   51.1748 H   0  0  0  0  0  0  0  0  0  0  0  0
   60.8963   34.8172   50.0951 H   0  0  0  0  0  0  0  0  0  0  0  0
   60.7980   33.0236   50.0951 H   0  0  0  0  0  0  0  0  0  0  0  0
   64.3169   31.0581   48.8375 H   0  0  0  0  0  0  0  0  0  0  0  0
   64.3083   32.4717   50.0047 H   0  0  0  0  0  0  0  0  0  0  0  0
   63.6823   29.9262   50.7320 H   0  0  0  0  0  0  0  0  0  0  0  0
   63.0268   31.3900   51.5282 H   0  0  0  0  0  0  0  0  0  0  0  0
   61.4795   28.5311   49.5254 H   0  0  0  0  0  0  0  0  0  0  0  0
   62.3220   28.7131   51.1034 H   0  0  0  0  0  0  0  0  0  0  0  0
   60.0055   27.9215   51.4501 H   0  0  0  0  0  0  0  0  0  0  0  0
   60.2059   29.5774   52.1127 H   0  0  0  0  0  0  0  0  0  0  0  0
   57.6415   30.6914   51.0014 H   0  0  0  0  0  0  0  0  0  0  0  0
   59.2983   31.0544   51.6144 H   0  0  0  0  0  0  0  0  0  0  0  0
   57.9655   31.8675   49.0628 H   0  0  0  0  0  0  0  0  0  0  0  0
   59.2611   32.6853   50.0438 H   0  0  0  0  0  0  0  0  0  0  0  0
   60.2310   30.3140   48.8480 H   0  0  0  0  0  0  0  0  0  0  0  0
   60.8450   31.8040   48.7950 H   0  0  0  0  0  0  0  0  0  0  0  0
   60.1022   33.8623   48.2101 H   0  0  0  0  0  0  0  0  0  0  0  0
   59.9755   35.9947   46.9500 H   0  0  0  0  0  0  0  0  0  0  0  0
   59.2452   36.0095   44.5794 H   0  0  0  0  0  0  0  0  0  0  0  0
   58.5738   33.8957   43.4696 H   0  0  0  0  0  0  0  0  0  0  0  0
   56.5314   31.6837   43.6509 H   0  0  0  0  0  0  0  0  0  0  0  0
   57.9217   32.4458   42.8066 H   0  0  0  0  0  0  0  0  0  0  0  0
   57.7410   30.6586   42.8066 H   0  0  0  0  0  0  0  0  0  0  0  0
   58.1155   29.1058   43.4540 H   0  0  0  0  0  0  0  0  0  0  0  0
   58.3840   26.8974   44.5520 H   0  0  0  0  0  0  0  0  0  0  0  0
   59.0220   26.7646   46.9511 H   0  0  0  0  0  0  0  0  0  0  0  0
   59.5234   28.8339   48.2229 H   0  0  0  0  0  0  0  0  0  0  0  0
  1  2  1  0
  2  3  1  0
  3  4  1  0
  4  5  1  0
  3  6  1  0
  6  7  1  0
  7  8  1  0
  8  9  1  0
  9 10  1  0
 10 11  1  0
 11 12  1  0
 12 13  1  0
 13 14  1  0
 14 15  1  0
 15 16  2  0
 16 17  1  0
 17 18  2  0
 18 19  1  0
 19 20  2  0
 20 21  1  0
 21 22  2  0
 22 23  1  0
 22 24  1  0
 24 25  2  0
 25 26  1  0
 26 27  2  0
 27 28  1  0
 28 29  2  0
 29 15  1  0
 21 16  1  0
 29 24  1  0
  1 30  1  0
  1 31  1  0
  1 32  1  0
  2 33  1  0
  2 34  1  0
  4 35  1  0
  4 36  1  0
  5 37  1  0
  5 38  1  0
  5 39  1  0
  6 40  1  0
  6 41  1  0
  7 42  1  0
  7 43  1  0
  9 44  1  0
  9 45  1  0
 10 46  1  0
 10 47  1  0
 12 48  1  0
 12 49  1  0
 13 50  1  0
 13 51  1  0
 14 52  1  0
 14 53  1  0
 17 54  1  0
 18 55  1  0
 19 56  1  0
 20 57  1  0
 23 58  1  0
 23 59  1  0
 23 60  1  0
 25 61  1  0
 26 62  1  0
 27 63  1  0
 28 64  1  0
M  CHG  2  14   1  22   1
M  END
>  <UniqueID>  (33) 
33

>  <SMILES>  (33) 
CCN(CC)CCOCCOCC[NH2+]c1c2ccccc2[n+](C)c2ccccc12

>  <Energy>  (33) 
98.3016317801832

>  <Genealogy>  (33) 
CCN(CC)CCOCCOCC[NH2+]c1c2ccccc2[n+](C)c2ccccc12 (protonated)
CCN(CC)CCOCCOCC[NH2+]c1c2ccccc2[n+](C)c2ccccc12 (3D coordinates assigned)
CCN(CC)CCOCCOCC[NH2+]c1c2ccccc2[n+](C)c2ccccc12 (optimized conformer: 98.3016317801832 kcal/mol)

>  <smiles>  (33) 
CCN(CC)CCOCCOCCNc1c2ccccc2[n+](C)c2ccccc12

>  <score_type>  (33) 
oracle

>  <origin>  (33) 
adg

>  <m_score__min__energy>  (33) 
-3.8199999999999998

>  <m_primary>  (33) 
energy

$$$$
33:0
     RDKit          3D

 45 47  0  0  0  0  0  0  0  0999 V2000
   56.1501   29.5314   41.9452 H   0  0  0  0  0  0  0  0  0  0  0  0
   56.6510   30.2420   42.6190 C   0  0  0  0  0  0  0  0  0  0  0  0
   57.0340   31.4970   42.1490 C   0  0  0  0  0  0  0  0  0  0  0  0
   56.8354   31.7730   41.1029 H   0  0  0  0  0  0  0  0  0  0  0  0
   57.6690   32.4070   42.9990 C   0  0  0  0  0  0  0  0  0  0  0  0
   57.9639   33.3950   42.6158 H   0  0  0  0  0  0  0  0  0  0  0  0
   57.9370   32.0700   44.3500 C   0  0  0  0  0  0  0  0  0  0  0  0
   57.5390   30.7890   44.8070 C   0  0  0  0  0  0  0  0  0  0  0  0
   57.7690   30.4130   46.0870 N   0  0  0  0  0  0  0  0  0  0  0  0
   58.3780   31.2190   46.9940 C   0  0  0  0  0  0  0  0  0  0  0  0
   58.5730   30.7950   48.2100 N   0  0  0  0  0  0  0  0  0  0  0  0
   59.8620   30.3340   48.7230 C   0  0  0  0  0  0  0  0  0  0  0  0
   59.8558   30.4058   49.8206 H   0  0  0  0  0  0  0  0  0  0  0  0
   60.6507   30.9685   48.2925 H   0  0  0  0  0  0  0  0  0  0  0  0
   60.1440   28.8710   48.3180 C   0  0  0  0  0  0  0  0  0  0  0  0
   59.8633   28.2257   49.1634 H   0  0  0  0  0  0  0  0  0  0  0  0
   61.2133   28.8300   48.0632 H   0  0  0  0  0  0  0  0  0  0  0  0
   59.4180   28.3860   47.1100 N   0  0  0  0  0  0  0  0  0  0  0  0
   58.8980   29.2280   46.7600 H   0  0  0  0  0  0  0  0  0  0  0  0
   60.3610   27.9830   46.0340 C   0  0  0  0  0  0  0  0  0  0  0  0
   60.0727   26.9860   45.6695 H   0  0  0  0  0  0  0  0  0  0  0  0
   61.3734   27.9839   46.4642 H   0  0  0  0  0  0  0  0  0  0  0  0
   60.3630   28.9540   44.8510 C   0  0  0  0  0  0  0  0  0  0  0  0
   60.3651   29.9883   45.2256 H   0  0  0  0  0  0  0  0  0  0  0  0
   61.2608   28.7840   44.2386 H   0  0  0  0  0  0  0  0  0  0  0  0
   59.4645   28.7877   44.2386 H   0  0  0  0  0  0  0  0  0  0  0  0
   58.4290   27.3160   47.4420 C   0  0  0  0  0  0  0  0  0  0  0  0
   58.9713   26.3739   47.6103 H   0  0  0  0  0  0  0  0  0  0  0  0
   57.8820   27.6330   48.3421 H   0  0  0  0  0  0  0  0  0  0  0  0
   57.4020   27.1000   46.3230 C   0  0  0  0  0  0  0  0  0  0  0  0
   56.4163   26.8927   46.7650 H   0  0  0  0  0  0  0  0  0  0  0  0
   57.3418   28.0051   45.7008 H   0  0  0  0  0  0  0  0  0  0  0  0
   57.7115   26.2473   45.7008 H   0  0  0  0  0  0  0  0  0  0  0  0
   58.7990   32.5100   46.6080 C   0  0  0  0  0  0  0  0  0  0  0  0
   59.4330   33.3710   47.5300 C   0  0  0  0  0  0  0  0  0  0  0  0
   59.5992   33.0346   48.5640 H   0  0  0  0  0  0  0  0  0  0  0  0
   59.8500   34.6420   47.1430 C   0  0  0  0  0  0  0  0  0  0  0  0
   60.3450   35.3025   47.8701 H   0  0  0  0  0  0  0  0  0  0  0  0
   59.6420   35.0770   45.8410 C   0  0  0  0  0  0  0  0  0  0  0  0
   59.9731   36.0823   45.5415 H   0  0  0  0  0  0  0  0  0  0  0  0
   59.0160   34.2480   44.9100 C   0  0  0  0  0  0  0  0  0  0  0  0
   58.8587   34.6081   43.8826 H   0  0  0  0  0  0  0  0  0  0  0  0
   58.5800   32.9490   45.2690 C   0  0  0  0  0  0  0  0  0  0  0  0
   56.9030   29.8880   43.9430 C   0  0  0  0  0  0  0  0  0  0  0  0
   56.6012   28.8965   44.3115 H   0  0  0  0  0  0  0  0  0  0  0  0
  1  2  1  0
  2  3  2  0
  3  4  1  0
  3  5  1  0
  5  6  1  0
  5  7  2  0
  7  8  1  0
  8  9  1  0
  9 10  1  0
 10 11  2  0
 11 12  1  0
 12 13  1  0
 12 14  1  0
 12 15  1  0
 15 16  1  0
 15 17  1  0
 15 18  1  0
 18 19  1  0
 18 20  1  0
 20 21  1  0
 20 22  1  0
 20 23  1  0
 23 24  1  0
 23 25  1  0
 23 26  1  0
 18 27  1  0
 27 28  1  0
 27 29  1  0
 27 30  1  0
 30 31  1  0
 30 32  1  0
 30 33  1  0
 10 34  1  0
 34 35  2  0
 35 36  1  0
 35 37  1  0
 37 38  1  0
 37 39  2  0
 39 40  1  0
 39 41  1  0
 41 42  1  0
 41 43  2  0
  8 44  2  0
 44 45  1  0
 44  2  1  0
 43  7  1  0
 43 34  1  0
M  CHG  2   9  -1  18   1
M  END
>  <UniqueID>  (34) 
34

>  <SMILES>  (34) 
CC[NH+](CC)CC/N=c1\[n-]c2ccccc2c2ccccc12

>  <Energy>  (34) 
62.32070908614012

>  <Genealogy>  (34) 
CC[NH+](CC)CCN=c1[n-]c2ccccc2c2ccccc12 (protonated)
CC[NH+](CC)CC/N=c1\[n-]c2ccccc2c2ccccc12 (cis-trans isomerization)
CC[NH+](CC)CC/N=c1\[n-]c2ccccc2c2ccccc12 (3D coordinates assigned)
CC[NH+](CC)CC/N=c1\[n-]c2ccccc2c2ccccc12 (optimized conformer: 62.32070908614012 kcal/mol)

>  <smiles>  (34) 
CCN(CC)CCN=c1[nH]c2ccccc2c2ccccc12

>  <score_type>  (34) 
oracle

>  <origin>  (34) 
adg

>  <m_score__min__energy>  (34) 
-6.29

>  <m_primary>  (34) 
energy

$$$$
34:0
     RDKit          3D

 69 72  0  0  0  0  0  0  0  0999 V2000
   61.0230   30.0440   49.3020 C   0  0  0  0  0  0  0  0  0  0  0  0
   62.2080   30.8960   49.5440 N   0  0  0  0  0  0  0  0  0  0  0  0
   63.0290   30.6450   50.6270 C   0  0  0  0  0  0  0  0  0  0  0  0
   62.6270   29.7910   51.6870 C   0  0  0  0  0  0  0  0  0  0  0  0
   63.4760   29.5260   52.7590 C   0  0  0  0  0  0  0  0  0  0  0  0
   64.7330   30.1170   52.8190 C   0  0  0  0  0  0  0  0  0  0  0  0
   65.1440   30.9860   51.8140 C   0  0  0  0  0  0  0  0  0  0  0  0
   64.3060   31.2620   50.7110 C   0  0  0  0  0  0  0  0  0  0  0  0
   64.7040   32.1700   49.7120 C   0  0  0  0  0  0  0  0  0  0  0  0
   66.0330   32.7230   49.7210 N   0  0  0  0  0  0  0  0  0  0  0  0
   66.4880   33.5820   50.8130 C   0  0  0  0  0  0  0  0  0  0  0  0
   68.0080   33.5050   50.9980 C   0  0  0  0  0  0  0  0  0  0  0  0
   68.5420   33.7450   52.4370 C   0  0  0  0  0  0  0  0  0  0  0  0
   68.4150   32.6200   53.4090 N   0  0  0  0  0  0  0  0  0  0  0  0
   67.2190   32.7330   54.2630 C   0  0  0  0  0  0  0  0  0  0  0  0
   68.5150   31.2820   52.8020 C   0  0  0  0  0  0  0  0  0  0  0  0
   63.7770   32.5610   48.7290 C   0  0  0  0  0  0  0  0  0  0  0  0
   64.0960   33.5650   47.7930 C   0  0  0  0  0  0  0  0  0  0  0  0
   63.1610   33.9870   46.8510 C   0  0  0  0  0  0  0  0  0  0  0  0
   61.8820   33.4190   46.8230 C   0  0  0  0  0  0  0  0  0  0  0  0
   60.8970   33.8320   45.9140 O   0  0  0  0  0  0  0  0  0  0  0  0
   59.6950   34.5070   46.2750 C   0  0  0  0  0  0  0  0  0  0  0  0
   58.6240   34.3290   45.1830 C   0  0  0  0  0  0  0  0  0  0  0  0
   57.9030   33.0220   45.2360 N   0  0  0  0  0  0  0  0  0  0  0  0
   56.6370   33.2110   45.7270 O   0  0  0  0  0  0  0  0  0  0  0  0
   57.8130   32.4520   43.8670 C   0  0  0  0  0  0  0  0  0  0  0  0
   57.0880   31.0830   43.8690 C   0  0  0  0  0  0  0  0  0  0  0  0
   56.9900   30.5120   45.1630 O   0  0  0  0  0  0  0  0  0  0  0  0
   58.2380   30.5910   45.8170 C   0  0  0  0  0  0  0  0  0  0  0  0
   58.5990   32.0570   46.1340 C   0  0  0  0  0  0  0  0  0  0  0  0
   61.5630   32.4060   47.7300 C   0  0  0  0  0  0  0  0  0  0  0  0
   62.5060   31.9320   48.6770 C   0  0  0  0  0  0  0  0  0  0  0  0
   60.5916   29.7338   50.2651 H   0  0  0  0  0  0  0  0  0  0  0  0
   60.2739   30.6116   48.7305 H   0  0  0  0  0  0  0  0  0  0  0  0
   61.3225   29.1531   48.7305 H   0  0  0  0  0  0  0  0  0  0  0  0
   61.6283   29.3307   51.6615 H   0  0  0  0  0  0  0  0  0  0  0  0
   63.1508   28.8468   53.5608 H   0  0  0  0  0  0  0  0  0  0  0  0
   65.4035   29.8969   53.6628 H   0  0  0  0  0  0  0  0  0  0  0  0
   66.1327   31.4637   51.8788 H   0  0  0  0  0  0  0  0  0  0  0  0
   66.7170   32.4140   48.9940 H   0  0  0  0  0  0  0  0  0  0  0  0
   66.2082   34.6220   50.5890 H   0  0  0  0  0  0  0  0  0  0  0  0
   66.0111   33.2374   51.7424 H   0  0  0  0  0  0  0  0  0  0  0  0
   68.3330   32.5023   50.6834 H   0  0  0  0  0  0  0  0  0  0  0  0
   68.4179   34.3275   50.3934 H   0  0  0  0  0  0  0  0  0  0  0  0
   69.6106   33.9931   52.3561 H   0  0  0  0  0  0  0  0  0  0  0  0
   67.9065   34.5448   52.8451 H   0  0  0  0  0  0  0  0  0  0  0  0
   69.2320   32.7050   54.0600 H   0  0  0  0  0  0  0  0  0  0  0  0
   67.5197   32.7046   55.3207 H   0  0  0  0  0  0  0  0  0  0  0  0
   66.7068   33.6835   54.0528 H   0  0  0  0  0  0  0  0  0  0  0  0
   66.5379   31.8952   54.0528 H   0  0  0  0  0  0  0  0  0  0  0  0
   68.5718   30.5226   53.5958 H   0  0  0  0  0  0  0  0  0  0  0  0
   67.6283   31.0951   52.1784 H   0  0  0  0  0  0  0  0  0  0  0  0
   69.4196   31.2289   52.1784 H   0  0  0  0  0  0  0  0  0  0  0  0
   65.0967   34.0214   47.8066 H   0  0  0  0  0  0  0  0  0  0  0  0
   63.4287   34.7698   46.1261 H   0  0  0  0  0  0  0  0  0  0  0  0
   59.3182   34.0927   47.2218 H   0  0  0  0  0  0  0  0  0  0  0  0
   59.9111   35.5796   46.3880 H   0  0  0  0  0  0  0  0  0  0  0  0
   57.8838   35.1354   45.2918 H   0  0  0  0  0  0  0  0  0  0  0  0
   59.1505   34.3592   44.2177 H   0  0  0  0  0  0  0  0  0  0  0  0
   56.2610   32.3240   45.9780 H   0  0  0  0  0  0  0  0  0  0  0  0
   57.2564   33.1504   43.2248 H   0  0  0  0  0  0  0  0  0  0  0  0
   58.8345   32.3012   43.4879 H   0  0  0  0  0  0  0  0  0  0  0  0
   56.0727   31.2230   43.4694 H   0  0  0  0  0  0  0  0  0  0  0  0
   57.6810   30.3948   43.2488 H   0  0  0  0  0  0  0  0  0  0  0  0
   58.1896   30.0204   46.7562 H   0  0  0  0  0  0  0  0  0  0  0  0
   59.0102   30.1733   45.1543 H   0  0  0  0  0  0  0  0  0  0  0  0
   58.3138   32.2738   47.1740 H   0  0  0  0  0  0  0  0  0  0  0  0
   59.6815   32.1763   45.9789 H   0  0  0  0  0  0  0  0  0  0  0  0
   60.5555   31.9650   47.7092 H   0  0  0  0  0  0  0  0  0  0  0  0
  1  2  1  0
  2  3  2  0
  3  4  1  0
  4  5  2  0
  5  6  1  0
  6  7  2  0
  7  8  1  0
  8  9  2  0
  9 10  1  0
 10 11  1  0
 11 12  1  0
 12 13  1  0
 13 14  1  0
 14 15  1  0
 14 16  1  0
  9 17  1  0
 17 18  2  0
 18 19  1  0
 19 20  2  0
 20 21  1  0
 21 22  1  0
 22 23  1  0
 23 24  1  0
 24 25  1  0
 24 26  1  0
 26 27  1  0
 27 28  1  0
 28 29  1  0
 29 30  1  0
 20 31  1  0
 31 32  2  0
 32  2  1  0
  8  3  1  0
 32 17  1  0
 30 24  1  0
  1 33  1  0
  1 34  1  0
  1 35  1  0
  4 36  1  0
  5 37  1  0
  6 38  1  0
  7 39  1  0
 10 40  1  0
 11 41  1  0
 11 42  1  0
 12 43  1  0
 12 44  1  0
 13 45  1  0
 13 46  1  0
 14 47  1  0
 15 48  1  0
 15 49  1  0
 15 50  1  0
 16 51  1  0
 16 52  1  0
 16 53  1  0
 18 54  1  0
 19 55  1  0
 22 56  1  0
 22 57  1  0
 23 58  1  0
 23 59  1  0
 25 60  1  0
 26 61  1  0
 26 62  1  0
 27 63  1  0
 27 64  1  0
 29 65  1  0
 29 66  1  0
 30 67  1  0
 30 68  1  0
 31 69  1  0
M  CHG  3   2   1  14   1  24   1
M  END
>  <UniqueID>  (35) 
35

>  <SMILES>  (35) 
C[n+]1c2ccccc2c(NCCC[NH+](C)C)c2ccc(OCC[N+]3(O)CCOCC3)cc21

>  <Energy>  (35) 
117.46612594133045

>  <Genealogy>  (35) 
C[n+]1c2ccccc2c(NCCC[NH+](C)C)c2ccc(OCC[N+]3(O)CCOCC3)cc21 (protonated)
C[n+]1c2ccccc2c(NCCC[NH+](C)C)c2ccc(OCC[N+]3(O)CCOCC3)cc21 (3D coordinates assigned)
C[n+]1c2ccccc2c(NCCC[NH+](C)C)c2ccc(OCC[N+]3(O)CCOCC3)cc21 (nonaromatic ring conformer: 117.46612594133045 kcal/mol)

>  <smiles>  (35) 
CN(C)CCCNc1c2ccccc2[n+](C)c2cc(OCC[N+]3([O-])CCOCC3)ccc12

>  <score_type>  (35) 
oracle

>  <origin>  (35) 
adg

>  <m_score__min__energy>  (35) 
-4.4699999999999998

>  <m_primary>  (35) 
energy

$$$$
35:0
     RDKit          3D

 41 43  0  0  0  0  0  0  0  0999 V2000
   58.8830   31.1280   49.2950 C   0  0  0  0  0  0  0  0  0  0  0  0
   59.3910   30.4860   48.0090 C   0  0  0  0  0  0  0  0  0  0  0  0
   58.3100   29.9270   47.2610 O   0  0  0  0  0  0  0  0  0  0  0  0
   58.3480   28.7290   46.5270 C   0  0  0  0  0  0  0  0  0  0  0  0
   59.3110   27.7290   46.7760 C   0  0  0  0  0  0  0  0  0  0  0  0
   59.3260   26.5570   46.0170 C   0  0  0  0  0  0  0  0  0  0  0  0
   58.3850   26.3650   45.0080 C   0  0  0  0  0  0  0  0  0  0  0  0
   57.4220   27.3420   44.7530 C   0  0  0  0  0  0  0  0  0  0  0  0
   57.3950   28.5320   45.5070 C   0  0  0  0  0  0  0  0  0  0  0  0
   56.4100   29.5520   45.2430 N   0  0  0  0  0  0  0  0  0  0  0  0
   56.5560   30.5750   44.2070 C   0  0  0  0  0  0  0  0  0  0  0  0
   57.3770   31.7260   44.7170 C   0  0  0  0  0  0  0  0  0  0  0  0
   57.4580   32.0470   46.0330 N   0  0  0  0  0  0  0  0  0  0  0  0
   58.1940   33.1700   46.0560 C   0  0  0  0  0  0  0  0  0  0  0  0
   58.5420   33.9460   47.1590 C   0  0  0  0  0  0  0  0  0  0  0  0
   59.2880   35.1160   46.9240 C   0  0  0  0  0  0  0  0  0  0  0  0
   59.6540   35.4790   45.6080 C   0  0  0  0  0  0  0  0  0  0  0  0
   59.2800   34.6760   44.5140 C   0  0  0  0  0  0  0  0  0  0  0  0
   58.5500   33.5150   44.7830 C   0  0  0  0  0  0  0  0  0  0  0  0
   58.0560   32.6010   43.9250 N   0  0  0  0  0  0  0  0  0  0  0  0
   58.1000   32.6410   42.4630 C   0  0  0  0  0  0  0  0  0  0  0  0
   59.3037   30.5964   50.1612 H   0  0  0  0  0  0  0  0  0  0  0  0
   59.1937   32.1828   49.3258 H   0  0  0  0  0  0  0  0  0  0  0  0
   57.7851   31.0681   49.3258 H   0  0  0  0  0  0  0  0  0  0  0  0
   59.8949   31.2501   47.3989 H   0  0  0  0  0  0  0  0  0  0  0  0
   60.0934   29.6807   48.2699 H   0  0  0  0  0  0  0  0  0  0  0  0
   60.0550   27.8733   47.5732 H   0  0  0  0  0  0  0  0  0  0  0  0
   60.0825   25.7837   46.2163 H   0  0  0  0  0  0  0  0  0  0  0  0
   58.4011   25.4412   44.4110 H   0  0  0  0  0  0  0  0  0  0  0  0
   56.6788   27.1821   43.9579 H   0  0  0  0  0  0  0  0  0  0  0  0
   55.5930   29.6460   45.8870 H   0  0  0  0  0  0  0  0  0  0  0  0
   57.0546   30.1346   43.3309 H   0  0  0  0  0  0  0  0  0  0  0  0
   55.5582   30.9450   43.9287 H   0  0  0  0  0  0  0  0  0  0  0  0
   57.0150   31.5560   46.8420 H   0  0  0  0  0  0  0  0  0  0  0  0
   58.2445   33.6549   48.1772 H   0  0  0  0  0  0  0  0  0  0  0  0
   59.5881   35.7520   47.7699 H   0  0  0  0  0  0  0  0  0  0  0  0
   60.2360   36.3967   45.4372 H   0  0  0  0  0  0  0  0  0  0  0  0
   59.5524   34.9523   43.4847 H   0  0  0  0  0  0  0  0  0  0  0  0
   58.8778   33.3481   42.1388 H   0  0  0  0  0  0  0  0  0  0  0  0
   58.3318   31.6379   42.0756 H   0  0  0  0  0  0  0  0  0  0  0  0
   57.1235   32.9671   42.0756 H   0  0  0  0  0  0  0  0  0  0  0  0
  1  2  1  0
  2  3  1  0
  3  4  1  0
  4  5  2  0
  5  6  1  0
  6  7  2  0
  7  8  1  0
  8  9  2  0
  9 10  1  0
 10 11  1  0
 11 12  1  0
 12 13  2  0
 13 14  1  0
 14 15  2  0
 15 16  1  0
 16 17  2  0
 17 18  1  0
 18 19  2  0
 19 20  1  0
 20 21  1  0
  9  4  1  0
 20 12  1  0
 19 14  1  0
  1 22  1  0
  1 23  1  0
  1 24  1  0
  2 25  1  0
  2 26  1  0
  5 27  1  0
  6 28  1  0
  7 29  1  0
  8 30  1  0
 10 31  1  0
 11 32  1  0
 11 33  1  0
 13 34  1  0
 15 35  1  0
 16 36  1  0
 17 37  1  0
 18 38  1  0
 21 39  1  0
 21 40  1  0
 21 41  1  0
M  CHG  1  13   1
M  END
>  <UniqueID>  (36) 
36

>  <SMILES>  (36) 
CCOc1ccccc1NCc1[nH+]c2ccccc2n1C

>  <Energy>  (36) 
78.0530087585726

>  <Genealogy>  (36) 
CCOc1ccccc1NCc1[nH+]c2ccccc2n1C (protonated)
CCOc1ccccc1NCc1[nH+]c2ccccc2n1C (3D coordinates assigned)
CCOc1ccccc1NCc1[nH+]c2ccccc2n1C (optimized conformer: 78.0530087585726 kcal/mol)

>  <smiles>  (36) 
CCOc1ccccc1NCc1nc2ccccc2n1C

>  <score_type>  (36) 
oracle

>  <origin>  (36) 
adg

>  <m_score__min__energy>  (36) 
-6.1799999999999997

>  <m_primary>  (36) 
energy

$$$$
