0:0
     RDKit          3D

 40 42  0  0  0  0  0  0  0  0999 V2000
   57.0030   31.2500   42.3050 C   0  0  0  0  0  0  0  0  0  0  0  0
   57.9040   32.3440   42.8370 C   0  0  0  0  0  0  0  0  0  0  0  0
   57.4040   32.9290   44.1320 C   0  0  0  0  0  0  0  0  0  0  0  0
   58.4520   33.2530   45.1070 C   0  0  0  0  0  0  0  0  0  0  0  0
   58.8470   34.5930   45.1710 C   0  0  0  0  0  0  0  0  0  0  0  0
   59.8040   35.0430   46.0450 C   0  0  0  0  0  0  0  0  0  0  0  0
   60.3760   34.1240   46.8720 C   0  0  0  0  0  0  0  0  0  0  0  0
   59.9880   32.7890   46.8130 C   0  0  0  0  0  0  0  0  0  0  0  0
   59.0360   32.2880   45.9560 C   0  0  0  0  0  0  0  0  0  0  0  0
   58.6170   31.0280   45.8270 O   0  0  0  0  0  0  0  0  0  0  0  0
   58.9530   29.8760   46.4120 C   0  0  0  0  0  0  0  0  0  0  0  0
   60.0830   29.5900   47.1530 C   0  0  0  0  0  0  0  0  0  0  0  0
   60.3280   28.3360   47.7300 C   0  0  0  0  0  0  0  0  0  0  0  0
   59.4380   27.3130   47.5840 C   0  0  0  0  0  0  0  0  0  0  0  0
   58.3100   27.5590   46.8560 C   0  0  0  0  0  0  0  0  0  0  0  0
   57.4390   26.5220   46.7250 N   0  0  0  0  0  0  0  0  0  0  0  0
   56.3110   26.6520   46.0400 C   0  0  0  0  0  0  0  0  0  0  0  0
   55.4840   25.6920   45.9070 N   0  0  0  0  0  0  0  0  0  0  0  0
   56.0430   27.8380   45.4740 N   0  0  0  0  0  0  0  0  0  0  0  0
   56.8820   28.8890   45.5820 C   0  0  0  0  0  0  0  0  0  0  0  0
   56.5310   29.9710   45.0100 N   0  0  0  0  0  0  0  0  0  0  0  0
   58.0600   28.7940   46.2820 C   0  0  0  0  0  0  0  0  0  0  0  0
   56.5531   30.7037   43.1471 H   0  0  0  0  0  0  0  0  0  0  0  0
   56.2073   31.6967   41.6907 H   0  0  0  0  0  0  0  0  0  0  0  0
   57.5939   30.5547   41.6907 H   0  0  0  0  0  0  0  0  0  0  0  0
   58.9068   31.9240   43.0043 H   0  0  0  0  0  0  0  0  0  0  0  0
   57.9215   33.1526   42.0914 H   0  0  0  0  0  0  0  0  0  0  0  0
   56.8548   33.8535   43.9002 H   0  0  0  0  0  0  0  0  0  0  0  0
   56.7758   32.1559   44.5985 H   0  0  0  0  0  0  0  0  0  0  0  0
   58.3707   35.3161   44.4926 H   0  0  0  0  0  0  0  0  0  0  0  0
   60.0974   36.1027   46.0767 H   0  0  0  0  0  0  0  0  0  0  0  0
   61.1480   34.4386   47.5896 H   0  0  0  0  0  0  0  0  0  0  0  0
   60.4776   32.0840   47.5009 H   0  0  0  0  0  0  0  0  0  0  0  0
   60.8281   30.3861   47.2977 H   0  0  0  0  0  0  0  0  0  0  0  0
   61.2500   28.1751   48.3080 H   0  0  0  0  0  0  0  0  0  0  0  0
   59.6222   26.3271   48.0358 H   0  0  0  0  0  0  0  0  0  0  0  0
   57.6580   25.5890   47.1750 H   0  0  0  0  0  0  0  0  0  0  0  0
   54.5420   25.6720   46.3470 H   0  0  0  0  0  0  0  0  0  0  0  0
   55.1410   27.9470   44.9250 H   0  0  0  0  0  0  0  0  0  0  0  0
   57.1090   30.8310   45.0340 H   0  0  0  0  0  0  0  0  0  0  0  0
  1  2  1  0
  2  3  1  0
  3  4  1  0
  4  5  2  0
  5  6  1  0
  6  7  2  0
  7  8  1  0
  8  9  2  0
  9 10  1  0
 10 11  1  0
 11 12  2  0
 12 13  1  0
 13 14  2  0
 14 15  1  0
 15 16  1  0
 16 17  1  0
 17 18  2  3
 17 19  1  0
 19 20  1  0
 20 21  2  3
 20 22  1  0
  9  4  1  0
 22 11  1  0
 22 15  2  0
  1 23  1  0
  1 24  1  0
  1 25  1  0
  2 26  1  0
  2 27  1  0
  3 28  1  0
  3 29  1  0
  5 30  1  0
  6 31  1  0
  7 32  1  0
  8 33  1  0
 12 34  1  0
 13 35  1  0
 14 36  1  0
 16 37  1  0
 18 38  1  0
 19 39  1  0
 21 40  1  0
M  END
>  <smiles>  (1) 
CCCc1ccccc1Oc1cccc2[nH]c(=N)[nH]c(=N)c12

>  <score_type>  (1) 
oracle

>  <origin>  (1) 
adg

>  <m_score__min__energy>  (1) 
-8.1300000000000008

>  <m_primary>  (1) 
energy

$$$$
1:0
     RDKit          3D

 33 34  0  0  0  0  0  0  0  0999 V2000
   59.6833   35.9079   46.9812 H   0  0  0  0  0  0  0  0  0  0  0  0
   59.6400   34.8750   47.3570 C   0  0  0  0  0  0  0  0  0  0  0  0
   60.3110   34.5870   48.4790 C   0  0  0  0  0  0  0  0  0  0  0  0
   59.8593   34.8342   49.4510 H   0  0  0  0  0  0  0  0  0  0  0  0
   61.6440   33.9450   48.4470 C   0  0  0  0  0  0  0  0  0  0  0  0
   62.2550   33.7880   47.1940 C   0  0  0  0  0  0  0  0  0  0  0  0
   61.7573   34.1621   46.2872 H   0  0  0  0  0  0  0  0  0  0  0  0
   63.4920   33.1580   47.1010 C   0  0  0  0  0  0  0  0  0  0  0  0
   63.9743   33.0308   46.1206 H   0  0  0  0  0  0  0  0  0  0  0  0
   64.1160   32.6900   48.2510 C   0  0  0  0  0  0  0  0  0  0  0  0
   65.0845   32.1727   48.1852 H   0  0  0  0  0  0  0  0  0  0  0  0
   63.5030   32.8820   49.4910 C   0  0  0  0  0  0  0  0  0  0  0  0
   63.9941   32.5100   50.4023 H   0  0  0  0  0  0  0  0  0  0  0  0
   62.2990   33.5270   49.5880 N   0  0  0  0  0  0  0  0  0  0  0  0
   61.7440   33.7490   50.9310 C   0  0  0  0  0  0  0  0  0  0  0  0
   62.4853   33.4525   51.6877 H   0  0  0  0  0  0  0  0  0  0  0  0
   61.4993   34.8142   51.0551 H   0  0  0  0  0  0  0  0  0  0  0  0
   60.8321   33.1464   51.0551 H   0  0  0  0  0  0  0  0  0  0  0  0
   58.8420   33.8890   46.5890 C   0  0  0  0  0  0  0  0  0  0  0  0
   58.0800   34.2400   45.4570 C   0  0  0  0  0  0  0  0  0  0  0  0
   58.0583   35.2858   45.1165 H   0  0  0  0  0  0  0  0  0  0  0  0
   57.3510   33.2690   44.7630 C   0  0  0  0  0  0  0  0  0  0  0  0
   56.7553   33.5569   43.8843 H   0  0  0  0  0  0  0  0  0  0  0  0
   57.3750   31.9260   45.1820 C   0  0  0  0  0  0  0  0  0  0  0  0
   56.6590   30.9180   44.5210 O   0  0  0  0  0  0  0  0  0  0  0  0
   56.9700   30.4340   43.2180 C   0  0  0  0  0  0  0  0  0  0  0  0
   57.5629   29.5112   43.3015 H   0  0  0  0  0  0  0  0  0  0  0  0
   56.0380   30.2230   42.6731 H   0  0  0  0  0  0  0  0  0  0  0  0
   57.5492   31.1940   42.6731 H   0  0  0  0  0  0  0  0  0  0  0  0
   58.1420   31.5760   46.2980 C   0  0  0  0  0  0  0  0  0  0  0  0
   58.1707   30.5285   46.6324 H   0  0  0  0  0  0  0  0  0  0  0  0
   58.8720   32.5440   46.9920 C   0  0  0  0  0  0  0  0  0  0  0  0
   59.4763   32.2498   47.8628 H   0  0  0  0  0  0  0  0  0  0  0  0
  1  2  1  0
  2  3  2  0
  3  4  1  0
  3  5  1  0
  5  6  2  0
  6  7  1  0
  6  8  1  0
  8  9  1  0
  8 10  2  0
 10 11  1  0
 10 12  1  0
 12 13  1  0
 12 14  2  0
 14 15  1  0
 15 16  1  0
 15 17  1  0
 15 18  1  0
  2 19  1  0
 19 20  2  0
 20 21  1  0
 20 22  1  0
 22 23  1  0
 22 24  2  0
 24 25  1  0
 25 26  1  0
 26 27  1  0
 26 28  1  0
 26 29  1  0
 24 30  1  0
 30 31  1  0
 30 32  2  0
 32 33  1  0
 14  5  1  0
 32 19  1  0
M  CHG  1  14   1
M  END
>  <UniqueID>  (2) 
1

>  <SMILES>  (2) 
COc1ccc(/C=C/c2cccc[n+]2C)cc1

>  <Energy>  (2) 
43.24961766263151

>  <Genealogy>  (2) 
COc1ccc(/C=C/c2cccc[n+]2C)cc1 (cis-trans isomerization)
COc1ccc(/C=C/c2cccc[n+]2C)cc1 (3D coordinates assigned)
COc1ccc(/C=C/c2cccc[n+]2C)cc1 (optimized conformer: 43.24961766263151 kcal/mol)

>  <smiles>  (2) 
COc1ccc(C=Cc2cccc[n+]2C)cc1

>  <score_type>  (2) 
oracle

>  <origin>  (2) 
adg

>  <m_score__min__energy>  (2) 
-5.1399999999999997

>  <m_primary>  (2) 
energy

$$$$
2:0
     RDKit          3D

 57 60  0  0  0  0  0  0  0  0999 V2000
   63.3720   32.5600   47.1000 C   0  0  0  0  0  0  0  0  0  0  0  0
   62.4630   32.4120   48.6700 S   0  0  0  0  0  0  0  0  0  0  0  0
   61.5020   31.0060   48.1100 C   0  0  0  0  0  0  0  0  0  0  0  0
   60.7340   30.2740   49.0230 C   0  0  0  0  0  0  0  0  0  0  0  0
   59.9400   29.2130   48.5780 C   0  0  0  0  0  0  0  0  0  0  0  0
   59.8930   28.8940   47.2130 C   0  0  0  0  0  0  0  0  0  0  0  0
   58.9980   27.8340   46.7210 C   0  0  0  0  0  0  0  0  0  0  0  0
   58.9490   26.6470   47.4700 C   0  0  0  0  0  0  0  0  0  0  0  0
   58.1330   25.5880   47.0740 C   0  0  0  0  0  0  0  0  0  0  0  0
   57.3540   25.7000   45.9280 C   0  0  0  0  0  0  0  0  0  0  0  0
   57.3930   26.8680   45.1660 C   0  0  0  0  0  0  0  0  0  0  0  0
   58.2230   27.9520   45.5270 C   0  0  0  0  0  0  0  0  0  0  0  0
   58.1580   29.2000   44.6370 C   0  0  1  0  0  0  0  0  0  0  0  0
   57.1870   29.0140   43.4520 C   0  0  0  0  0  0  0  0  0  0  0  0
   56.6410   30.3550   42.9310 C   0  0  0  0  0  0  0  0  0  0  0  0
   57.6890   31.4730   43.0670 C   0  0  0  0  0  0  0  0  0  0  0  0
   58.1410   31.6970   44.4770 N   0  0  1  0  0  0  0  0  0  0  0  0
   57.5220   32.9110   45.0660 C   0  0  0  0  0  0  0  0  0  0  0  0
   58.3500   33.4830   46.1880 C   0  0  0  0  0  0  0  0  0  0  0  0
   59.1710   34.5990   45.9750 C   0  0  0  0  0  0  0  0  0  0  0  0
   59.9140   35.1140   47.0380 C   0  0  0  0  0  0  0  0  0  0  0  0
   59.8380   34.5160   48.2960 C   0  0  0  0  0  0  0  0  0  0  0  0
   59.0160   33.3960   48.4740 C   0  0  0  0  0  0  0  0  0  0  0  0
   58.8990   32.7490   49.8170 C   0  0  0  0  0  0  0  0  0  0  0  0
   58.2940   32.9150   47.4250 N   0  0  0  0  0  0  0  0  0  0  0  0
   57.8870   30.5330   45.3680 C   0  0  0  0  0  0  0  0  0  0  0  0
   60.7130   29.5890   46.3100 C   0  0  0  0  0  0  0  0  0  0  0  0
   61.5080   30.6480   46.7570 C   0  0  0  0  0  0  0  0  0  0  0  0
   64.4380   32.7336   47.3085 H   0  0  0  0  0  0  0  0  0  0  0  0
   63.2580   31.6315   46.5214 H   0  0  0  0  0  0  0  0  0  0  0  0
   62.9693   33.4044   46.5214 H   0  0  0  0  0  0  0  0  0  0  0  0
   60.7553   30.5339   50.0917 H   0  0  0  0  0  0  0  0  0  0  0  0
   59.3512   28.6274   49.2994 H   0  0  0  0  0  0  0  0  0  0  0  0
   59.5611   26.5517   48.3790 H   0  0  0  0  0  0  0  0  0  0  0  0
   58.1056   24.6631   47.6689 H   0  0  0  0  0  0  0  0  0  0  0  0
   56.7056   24.8660   45.6214 H   0  0  0  0  0  0  0  0  0  0  0  0
   56.7649   26.9461   44.2663 H   0  0  0  0  0  0  0  0  0  0  0  0
   59.1842   29.2953   44.2525 H   0  0  0  0  0  0  0  0  0  0  0  0
   57.7196   28.5067   42.6341 H   0  0  0  0  0  0  0  0  0  0  0  0
   56.3336   28.4168   43.8056 H   0  0  0  0  0  0  0  0  0  0  0  0
   56.3699   30.2444   41.8707 H   0  0  0  0  0  0  0  0  0  0  0  0
   55.7600   30.6287   43.5301 H   0  0  0  0  0  0  0  0  0  0  0  0
   58.5653   31.2052   42.4584 H   0  0  0  0  0  0  0  0  0  0  0  0
   57.2149   32.4053   42.7263 H   0  0  0  0  0  0  0  0  0  0  0  0
   59.1790   31.8390   44.4600 H   0  0  0  0  0  0  0  0  0  0  0  0
   57.4166   33.6725   44.2793 H   0  0  0  0  0  0  0  0  0  0  0  0
   56.5434   32.6254   45.4792 H   0  0  0  0  0  0  0  0  0  0  0  0
   59.2290   35.0641   44.9799 H   0  0  0  0  0  0  0  0  0  0  0  0
   60.5595   35.9913   46.8840 H   0  0  0  0  0  0  0  0  0  0  0  0
   60.4175   34.9198   49.1393 H   0  0  0  0  0  0  0  0  0  0  0  0
   59.0361   33.5069   50.6023 H   0  0  0  0  0  0  0  0  0  0  0  0
   57.9036   32.2919   49.9183 H   0  0  0  0  0  0  0  0  0  0  0  0
   59.6712   31.9722   49.9183 H   0  0  0  0  0  0  0  0  0  0  0  0
   58.5473   30.6018   46.2451 H   0  0  0  0  0  0  0  0  0  0  0  0
   56.8308   30.5533   45.6748 H   0  0  0  0  0  0  0  0  0  0  0  0
   60.7298   29.2996   45.2489 H   0  0  0  0  0  0  0  0  0  0  0  0
   62.1388   31.2004   46.0450 H   0  0  0  0  0  0  0  0  0  0  0  0
  1  2  1  0
  2  3  1  0
  3  4  2  0
  4  5  1  0
  5  6  2  0
  6  7  1  0
  7  8  2  0
  8  9  1  0
  9 10  2  0
 10 11  1  0
 11 12  2  0
 12 13  1  0
 13 14  1  0
 14 15  1  0
 15 16  1  0
 16 17  1  0
 17 18  1  0
 18 19  1  0
 19 20  2  0
 20 21  1  0
 21 22  2  0
 22 23  1  0
 23 24  1  0
 23 25  2  0
 17 26  1  0
  6 27  1  0
 27 28  2  0
 28  3  1  0
 12  7  1  0
 26 13  1  0
 25 19  1  0
  1 29  1  0
  1 30  1  0
  1 31  1  0
  4 32  1  0
  5 33  1  0
  8 34  1  0
  9 35  1  0
 10 36  1  0
 11 37  1  0
 13 38  1  6
 14 39  1  0
 14 40  1  0
 15 41  1  0
 15 42  1  0
 16 43  1  0
 16 44  1  0
 17 45  1  6
 18 46  1  0
 18 47  1  0
 20 48  1  0
 21 49  1  0
 22 50  1  0
 24 51  1  0
 24 52  1  0
 24 53  1  0
 26 54  1  0
 26 55  1  0
 27 56  1  0
 28 57  1  0
M  CHG  1  17   1
M  END
>  <UniqueID>  (3) 
2

>  <SMILES>  (3) 
CSc1ccc(-c2ccccc2[C@H]2CCC[N@@H+](Cc3cccc(C)n3)C2)cc1

>  <Energy>  (3) 
76.0503053431774

>  <Genealogy>  (3) 
CSc1ccc(-c2ccccc2C2CCC[NH+](Cc3cccc(C)n3)C2)cc1 (protonated)
CSc1ccc(-c2ccccc2[C@H]2CCC[N@@H+](Cc3cccc(C)n3)C2)cc1 (chirality)
CSc1ccc(-c2ccccc2[C@H]2CCC[N@@H+](Cc3cccc(C)n3)C2)cc1 (3D coordinates assigned)
CSc1ccc(-c2ccccc2[C@H]2CCC[N@@H+](Cc3cccc(C)n3)C2)cc1 (nonaromatic ring conformer: 76.0503053431774 kcal/mol)

>  <smiles>  (3) 
CSc1ccc(-c2ccccc2C2CCCN(Cc3cccc(C)n3)C2)cc1

>  <score_type>  (3) 
oracle

>  <origin>  (3) 
adg

>  <m_score__min__energy>  (3) 
-7.5099999999999998

>  <m_primary>  (3) 
energy

$$$$
3:0
     RDKit          3D

 37 39  0  0  0  0  0  0  0  0999 V2000
   59.2650   35.3770   44.9590 C   0  0  0  0  0  0  0  0  0  0  0  0
   59.6450   34.9550   46.6900 S   0  0  0  0  0  0  0  0  0  0  0  0
   59.2430   33.2090   46.5010 C   0  0  0  0  0  0  0  0  0  0  0  0
   57.9670   32.8480   46.0640 C   0  0  0  0  0  0  0  0  0  0  0  0
   57.6170   31.5390   45.9630 N   0  0  0  0  0  0  0  0  0  0  0  0
   58.4940   30.5530   46.3070 C   0  0  0  0  0  0  0  0  0  0  0  0
   58.1250   29.1640   46.2140 N   0  0  0  0  0  0  0  0  0  0  0  0
   58.4790   28.1510   47.1950 C   0  0  0  0  0  0  0  0  0  0  0  0
   58.0240   26.8260   46.5990 C   0  0  0  0  0  0  0  0  0  0  0  0
   57.0440   27.1820   45.4840 C   0  0  1  0  0  0  0  0  0  0  0  0
   55.7450   27.0910   45.9570 F   0  0  0  0  0  0  0  0  0  0  0  0
   57.3570   28.6250   45.1050 C   0  0  0  0  0  0  0  0  0  0  0  0
   59.7330   30.8880   46.7560 N   0  0  0  0  0  0  0  0  0  0  0  0
   60.1390   32.1810   46.8550 C   0  0  0  0  0  0  0  0  0  0  0  0
   61.4770   32.4520   47.4190 C   0  0  0  0  0  0  0  0  0  0  0  0
   61.8620   31.8310   48.6190 C   0  0  0  0  0  0  0  0  0  0  0  0
   63.1320   32.0590   49.1570 C   0  0  0  0  0  0  0  0  0  0  0  0
   64.0320   32.8980   48.4950 C   0  0  0  0  0  0  0  0  0  0  0  0
   63.6650   33.5040   47.2900 C   0  0  0  0  0  0  0  0  0  0  0  0
   62.3960   33.2780   46.7490 C   0  0  0  0  0  0  0  0  0  0  0  0
   58.5291   36.1942   44.9339 H   0  0  0  0  0  0  0  0  0  0  0  0
   60.1856   35.6968   44.4490 H   0  0  0  0  0  0  0  0  0  0  0  0
   58.8508   34.4948   44.4490 H   0  0  0  0  0  0  0  0  0  0  0  0
   57.2394   33.6294   45.7994 H   0  0  0  0  0  0  0  0  0  0  0  0
   56.6590   31.3100   45.6190 H   0  0  0  0  0  0  0  0  0  0  0  0
   59.5660   28.1430   47.3634 H   0  0  0  0  0  0  0  0  0  0  0  0
   58.0038   28.3437   48.1682 H   0  0  0  0  0  0  0  0  0  0  0  0
   58.8840   26.2749   46.1907 H   0  0  0  0  0  0  0  0  0  0  0  0
   57.5552   26.1822   47.3578 H   0  0  0  0  0  0  0  0  0  0  0  0
   57.1385   26.5043   44.6227 H   0  0  0  0  0  0  0  0  0  0  0  0
   57.9472   28.6587   44.1773 H   0  0  0  0  0  0  0  0  0  0  0  0
   56.4404   29.2059   44.9252 H   0  0  0  0  0  0  0  0  0  0  0  0
   61.1602   31.1617   49.1381 H   0  0  0  0  0  0  0  0  0  0  0  0
   63.4230   31.5775   50.1022 H   0  0  0  0  0  0  0  0  0  0  0  0
   65.0290   33.0816   48.9219 H   0  0  0  0  0  0  0  0  0  0  0  0
   64.3761   34.1599   46.7665 H   0  0  0  0  0  0  0  0  0  0  0  0
   62.1155   33.7485   45.7951 H   0  0  0  0  0  0  0  0  0  0  0  0
  1  2  1  0
  2  3  1  0
  3  4  2  0
  4  5  1  0
  5  6  2  0
  6  7  1  0
  7  8  1  0
  8  9  1  0
  9 10  1  0
 10 11  1  0
 10 12  1  0
  6 13  1  0
 13 14  2  0
 14 15  1  0
 15 16  2  0
 16 17  1  0
 17 18  2  0
 18 19  1  0
 19 20  2  0
 14  3  1  0
 20 15  1  0
 12  7  1  0
  1 21  1  0
  1 22  1  0
  1 23  1  0
  4 24  1  0
  5 25  1  0
  8 26  1  0
  8 27  1  0
  9 28  1  0
  9 29  1  0
 10 30  1  6
 12 31  1  0
 12 32  1  0
 16 33  1  0
 17 34  1  0
 18 35  1  0
 19 36  1  0
 20 37  1  0
M  CHG  1   5   1
M  END
>  <UniqueID>  (4) 
3

>  <SMILES>  (4) 
CSc1c[nH+]c(N2CC[C@@H](F)C2)nc1-c1ccccc1

>  <Energy>  (4) 
42.27527313566407

>  <Genealogy>  (4) 
CSc1c[nH+]c(N2CCC(F)C2)nc1-c1ccccc1 (protonated)
CSc1c[nH+]c(N2CC[C@@H](F)C2)nc1-c1ccccc1 (chirality)
CSc1c[nH+]c(N2CC[C@@H](F)C2)nc1-c1ccccc1 (3D coordinates assigned)
CSc1c[nH+]c(N2CC[C@@H](F)C2)nc1-c1ccccc1 (nonaromatic ring conformer: 42.27527313566407 kcal/mol)

>  <smiles>  (4) 
CSc1cnc(N2CCC(F)C2)nc1-c1ccccc1

>  <score_type>  (4) 
oracle

>  <origin>  (4) 
adg

>  <m_score__min__energy>  (4) 
-5.1900000000000004

>  <m_primary>  (4) 
energy

$$$$
4:0
     RDKit          3D

 56 59  0  0  0  0  0  0  0  0999 V2000
   65.1470   32.6100   49.8990 C   0  0  0  0  0  0  0  0  0  0  0  0
   64.5610   33.7190   49.2260 O   0  0  0  0  0  0  0  0  0  0  0  0
   63.3420   33.6700   48.5340 C   0  0  0  0  0  0  0  0  0  0  0  0
   62.1550   33.7790   49.2670 C   0  0  0  0  0  0  0  0  0  0  0  0
   60.9150   33.7350   48.6240 C   0  0  0  0  0  0  0  0  0  0  0  0
   60.8430   33.5680   47.2320 C   0  0  0  0  0  0  0  0  0  0  0  0
   59.5270   33.5370   46.5570 C   0  0  0  0  0  0  0  0  0  0  0  0
   58.8240   34.6550   46.1490 C   0  0  0  0  0  0  0  0  0  0  0  0
   57.7340   34.1420   45.4730 C   0  0  0  0  0  0  0  0  0  0  0  0
   56.6540   34.9450   44.8290 C   0  0  0  0  0  0  0  0  0  0  0  0
   57.7690   32.7970   45.4870 N   0  0  0  0  0  0  0  0  0  0  0  0
   58.8570   32.4310   46.1480 N   0  0  0  0  0  0  0  0  0  0  0  0
   59.1670   31.0560   46.4240 C   0  0  0  0  0  0  0  0  0  0  0  0
   59.2080   30.0970   45.3780 C   0  0  0  0  0  0  0  0  0  0  0  0
   59.5310   28.7550   45.6440 C   0  0  0  0  0  0  0  0  0  0  0  0
   59.8220   28.4070   46.9640 C   0  0  0  0  0  0  0  0  0  0  0  0
   59.7990   29.3260   47.9710 C   0  0  0  0  0  0  0  0  0  0  0  0
   59.4840   30.6630   47.7430 C   0  0  0  0  0  0  0  0  0  0  0  0
   60.1300   28.7550   49.1440 N   0  0  0  0  0  0  0  0  0  0  0  0
   60.3520   27.4600   48.8000 C   0  0  0  0  0  0  0  0  0  0  0  0
   60.7710   26.4280   49.8000 C   0  0  0  0  0  0  0  0  0  0  0  0
   60.1710   27.2120   47.4730 N   0  0  0  0  0  0  0  0  0  0  0  0
   60.4120   25.9580   46.7490 C   0  0  0  0  0  0  0  0  0  0  0  0
   59.1290   25.4680   46.0690 C   0  0  0  0  0  0  0  0  0  0  0  0
   57.9380   25.8820   46.8430 N   0  0  0  0  0  0  0  0  0  0  0  0
   57.2940   24.7210   47.4810 C   0  0  0  0  0  0  0  0  0  0  0  0
   56.9660   26.5720   45.9790 C   0  0  0  0  0  0  0  0  0  0  0  0
   62.0330   33.4760   46.4920 C   0  0  0  0  0  0  0  0  0  0  0  0
   63.2730   33.5190   47.1360 C   0  0  0  0  0  0  0  0  0  0  0  0
   65.0689   32.7579   50.9862 H   0  0  0  0  0  0  0  0  0  0  0  0
   64.6184   31.6880   49.6154 H   0  0  0  0  0  0  0  0  0  0  0  0
   66.2066   32.5272   49.6154 H   0  0  0  0  0  0  0  0  0  0  0  0
   62.1983   33.9004   50.3594 H   0  0  0  0  0  0  0  0  0  0  0  0
   59.9903   33.8318   49.2118 H   0  0  0  0  0  0  0  0  0  0  0  0
   59.0751   35.7117   46.3229 H   0  0  0  0  0  0  0  0  0  0  0  0
   56.0293   35.4094   45.6062 H   0  0  0  0  0  0  0  0  0  0  0  0
   57.1041   35.7295   44.2030 H   0  0  0  0  0  0  0  0  0  0  0  0
   56.0323   34.2880   44.2030 H   0  0  0  0  0  0  0  0  0  0  0  0
   58.9843   30.4079   44.3468 H   0  0  0  0  0  0  0  0  0  0  0  0
   59.5536   28.0050   44.8396 H   0  0  0  0  0  0  0  0  0  0  0  0
   59.4821   31.3922   48.5665 H   0  0  0  0  0  0  0  0  0  0  0  0
   60.6130   26.8172   50.8167 H   0  0  0  0  0  0  0  0  0  0  0  0
   60.1718   25.5164   49.6591 H   0  0  0  0  0  0  0  0  0  0  0  0
   61.8361   26.1921   49.6591 H   0  0  0  0  0  0  0  0  0  0  0  0
   61.1843   26.1258   45.9839 H   0  0  0  0  0  0  0  0  0  0  0  0
   60.7447   25.1941   47.4672 H   0  0  0  0  0  0  0  0  0  0  0  0
   59.0697   25.8965   45.0576 H   0  0  0  0  0  0  0  0  0  0  0  0
   59.1532   24.3695   46.0163 H   0  0  0  0  0  0  0  0  0  0  0  0
   57.3516   24.8248   48.5746 H   0  0  0  0  0  0  0  0  0  0  0  0
   56.2393   24.6713   47.1724 H   0  0  0  0  0  0  0  0  0  0  0  0
   57.8101   23.7999   47.1724 H   0  0  0  0  0  0  0  0  0  0  0  0
   56.2276   27.0962   46.6035 H   0  0  0  0  0  0  0  0  0  0  0  0
   57.4920   27.3001   45.3440 H   0  0  0  0  0  0  0  0  0  0  0  0
   56.4522   25.8353   45.3440 H   0  0  0  0  0  0  0  0  0  0  0  0
   61.9891   33.3694   45.3981 H   0  0  0  0  0  0  0  0  0  0  0  0
   64.1988   33.4345   46.5479 H   0  0  0  0  0  0  0  0  0  0  0  0
  1  2  1  0
  2  3  1  0
  3  4  2  0
  4  5  1  0
  5  6  2  0
  6  7  1  0
  7  8  2  0
  8  9  1  0
  9 10  1  0
  9 11  2  0
 11 12  1  0
 12 13  1  0
 13 14  2  0
 14 15  1  0
 15 16  2  0
 16 17  1  0
 17 18  2  0
 17 19  1  0
 19 20  2  0
 20 21  1  0
 20 22  1  0
 22 23  1  0
 23 24  1  0
 24 25  1  0
 25 26  1  0
 25 27  1  0
  6 28  1  0
 28 29  2  0
 29  3  1  0
 12  7  1  0
 18 13  1  0
 22 16  1  0
  1 30  1  0
  1 31  1  0
  1 32  1  0
  4 33  1  0
  5 34  1  0
  8 35  1  0
 10 36  1  0
 10 37  1  0
 10 38  1  0
 14 39  1  0
 15 40  1  0
 18 41  1  0
 21 42  1  0
 21 43  1  0
 21 44  1  0
 23 45  1  0
 23 46  1  0
 24 47  1  0
 24 48  1  0
 26 49  1  0
 26 50  1  0
 26 51  1  0
 27 52  1  0
 27 53  1  0
 27 54  1  0
 28 55  1  0
 29 56  1  0
M  END
>  <UniqueID>  (5) 
4

>  <SMILES>  (5) 
COc1ccc(-c2cc(C)nn2-c2ccc3c(c2)nc(C)n3CCN(C)C)cc1

>  <Energy>  (5) 
129.90593236258437

>  <Genealogy>  (5) 
COc1ccc(-c2cc(C)nn2-c2ccc3c(c2)nc(C)n3CCN(C)C)cc1 (3D coordinates assigned)
COc1ccc(-c2cc(C)nn2-c2ccc3c(c2)nc(C)n3CCN(C)C)cc1 (optimized conformer: 129.90593236258437 kcal/mol)

>  <smiles>  (5) 
COc1ccc(-c2cc(C)nn2-c2ccc3c(c2)nc(C)n3CCN(C)C)cc1

>  <score_type>  (5) 
oracle

>  <origin>  (5) 
adg

>  <m_score__min__energy>  (5) 
-7.8200000000000003

>  <m_primary>  (5) 
energy

$$$$
5:0
     RDKit          3D

 42 44  0  0  0  0  0  0  0  0999 V2000
   59.3132   34.6201   50.1312 H   0  0  0  0  0  0  0  0  0  0  0  0
   59.7550   33.6440   49.8820 C   0  0  0  0  0  0  0  0  0  0  0  0
   60.7371   33.5945   49.3890 H   0  0  0  0  0  0  0  0  0  0  0  0
   59.0990   32.5190   50.1780 C   0  0  0  0  0  0  0  0  0  0  0  0
   58.1174   32.5780   50.6710 H   0  0  0  0  0  0  0  0  0  0  0  0
   59.6810   31.1750   49.8480 C   0  0  0  0  0  0  0  0  0  0  0  0
   60.7500   31.1688   50.1073 H   0  0  0  0  0  0  0  0  0  0  0  0
   59.1492   30.4034   50.4240 H   0  0  0  0  0  0  0  0  0  0  0  0
   59.5290   30.8930   48.4210 N   0  0  0  0  0  0  0  0  0  0  0  0
   58.5120   30.1960   47.9380 N   0  0  0  0  0  0  0  0  0  0  0  0
   58.7000   30.0750   46.6100 C   0  0  0  0  0  0  0  0  0  0  0  0
   57.8840   29.4070   45.8480 N   0  0  0  0  0  0  0  0  0  0  0  0
   57.0420   29.9440   44.8180 C   0  0  0  0  0  0  0  0  0  0  0  0
   55.8020   29.7270   44.8790 O   0  0  0  0  0  0  0  0  0  0  0  0
   57.5880   30.8220   43.7610 C   0  0  0  0  0  0  0  0  0  0  0  0
   58.1720   30.3724   42.9444 H   0  0  0  0  0  0  0  0  0  0  0  0
   57.3940   32.1490   43.7660 C   0  0  0  0  0  0  0  0  0  0  0  0
   56.8283   32.5935   42.9339 H   0  0  0  0  0  0  0  0  0  0  0  0
   57.8990   33.0520   44.8300 C   0  0  0  0  0  0  0  0  0  0  0  0
   57.3860   33.0540   46.1420 C   0  0  0  0  0  0  0  0  0  0  0  0
   56.5806   32.3567   46.4161 H   0  0  0  0  0  0  0  0  0  0  0  0
   57.8820   33.9140   47.0710 N   0  0  0  0  0  0  0  0  0  0  0  0
   58.8740   34.7940   46.7750 C   0  0  0  0  0  0  0  0  0  0  0  0
   59.2596   35.4697   47.5527 H   0  0  0  0  0  0  0  0  0  0  0  0
   59.4030   34.8410   45.4870 C   0  0  0  0  0  0  0  0  0  0  0  0
   60.2020   35.5558   45.2409 H   0  0  0  0  0  0  0  0  0  0  0  0
   58.9100   33.9730   44.5120 C   0  0  0  0  0  0  0  0  0  0  0  0
   59.3151   34.0104   43.4900 H   0  0  0  0  0  0  0  0  0  0  0  0
   59.8820   30.6950   46.2320 C   0  0  0  0  0  0  0  0  0  0  0  0
   60.3252   30.7540   45.2270 H   0  0  0  0  0  0  0  0  0  0  0  0
   60.3730   31.2210   47.4110 C   0  0  0  0  0  0  0  0  0  0  0  0
   61.6400   31.9730   47.5370 C   0  0  0  0  0  0  0  0  0  0  0  0
   62.6060   31.6080   48.4910 C   0  0  0  0  0  0  0  0  0  0  0  0
   62.4286   30.7420   49.1456 H   0  0  0  0  0  0  0  0  0  0  0  0
   63.7910   32.3400   48.6120 C   0  0  0  0  0  0  0  0  0  0  0  0
   64.5466   32.0429   49.3542 H   0  0  0  0  0  0  0  0  0  0  0  0
   64.0170   33.4480   47.7920 C   0  0  0  0  0  0  0  0  0  0  0  0
   64.9521   34.0198   47.8853 H   0  0  0  0  0  0  0  0  0  0  0  0
   63.0550   33.8300   46.8530 C   0  0  0  0  0  0  0  0  0  0  0  0
   63.2314   34.7051   46.2103 H   0  0  0  0  0  0  0  0  0  0  0  0
   61.8690   33.1010   46.7300 C   0  0  0  0  0  0  0  0  0  0  0  0
   61.1099   33.4119   45.9971 H   0  0  0  0  0  0  0  0  0  0  0  0
  1  2  1  0
  2  3  1  0
  2  4  2  0
  4  5  1  0
  4  6  1  0
  6  7  1  0
  6  8  1  0
  6  9  1  0
  9 10  1  0
 10 11  1  0
 11 12  2  3
 12 13  1  0
 13 14  2  0
 13 15  1  0
 15 16  1  0
 15 17  2  0
 17 18  1  0
 17 19  1  0
 19 20  2  0
 20 21  1  0
 20 22  1  0
 22 23  2  0
 23 24  1  0
 23 25  1  0
 25 26  1  0
 25 27  2  0
 27 28  1  0
 11 29  1  0
 29 30  1  0
 29 31  2  0
 31 32  1  0
 32 33  2  0
 33 34  1  0
 33 35  1  0
 35 36  1  0
 35 37  2  0
 37 38  1  0
 37 39  1  0
 39 40  1  0
 39 41  2  0
 41 42  1  0
 31  9  1  0
 41 32  1  0
 27 19  1  0
M  CHG  1  10  -1
M  END
>  <UniqueID>  (6) 
5

>  <SMILES>  (6) 
C=CCn1[n-]c(=NC(=O)/C=C/c2cccnc2)cc1-c1ccccc1

>  <Energy>  (6) 
85.81163666299172

>  <Genealogy>  (6) 
C=CCn1[n-]c(=NC(=O)C=Cc2cccnc2)cc1-c1ccccc1 (protonated)
C=CCn1[n-]c(=NC(=O)/C=C/c2cccnc2)cc1-c1ccccc1 (cis-trans isomerization)
C=CCn1[n-]c(=NC(=O)/C=C/c2cccnc2)cc1-c1ccccc1 (3D coordinates assigned)
C=CCn1[n-]c(=NC(=O)/C=C/c2cccnc2)cc1-c1ccccc1 (optimized conformer: 85.81163666299172 kcal/mol)

>  <smiles>  (6) 
C=CCn1[nH]c(=NC(=O)C=Cc2cccnc2)cc1-c1ccccc1

>  <score_type>  (6) 
oracle

>  <origin>  (6) 
adg

>  <m_score__min__energy>  (6) 
-10.31

>  <m_primary>  (6) 
energy

$$$$
6:0
     RDKit          3D

 33 34  0  0  0  0  0  0  0  0999 V2000
   60.4990   27.0390   48.6210 C   0  0  0  0  0  0  0  0  0  0  0  0
   60.1580   26.7230   47.2750 O   0  0  0  0  0  0  0  0  0  0  0  0
   59.3830   27.5440   46.4430 C   0  0  0  0  0  0  0  0  0  0  0  0
   60.0250   28.5580   45.7220 C   0  0  0  0  0  0  0  0  0  0  0  0
   59.2930   29.4140   44.8940 C   0  0  0  0  0  0  0  0  0  0  0  0
   57.9060   29.2640   44.7770 C   0  0  0  0  0  0  0  0  0  0  0  0
   56.9850   30.4030   43.7970 S   0  0  0  0  0  0  0  0  0  0  0  0
   56.6260   29.7290   42.5030 O   0  0  0  0  0  0  0  0  0  0  0  0
   55.7170   30.8030   44.4960 O   0  0  0  0  0  0  0  0  0  0  0  0
   57.9380   31.8480   43.4450 C   0  0  0  0  0  0  0  0  0  0  0  0
   57.7730   33.0280   44.0550 C   0  0  0  0  0  0  0  0  0  0  0  0
   58.3230   33.3500   45.3840 C   0  0  0  0  0  0  0  0  0  0  0  0
   58.1340   32.4500   46.4440 C   0  0  0  0  0  0  0  0  0  0  0  0
   58.6230   32.7520   47.7180 C   0  0  0  0  0  0  0  0  0  0  0  0
   59.3210   33.9430   47.9360 C   0  0  0  0  0  0  0  0  0  0  0  0
   59.5400   34.8290   46.8780 C   0  0  0  0  0  0  0  0  0  0  0  0
   59.0500   34.5340   45.6010 C   0  0  0  0  0  0  0  0  0  0  0  0
   59.2960   35.3910   44.5780 F   0  0  0  0  0  0  0  0  0  0  0  0
   57.2580   28.2400   45.4820 C   0  0  0  0  0  0  0  0  0  0  0  0
   57.9890   27.3860   46.3110 C   0  0  0  0  0  0  0  0  0  0  0  0
   59.8678   26.4541   49.3062 H   0  0  0  0  0  0  0  0  0  0  0  0
   61.5568   26.7947   48.7983 H   0  0  0  0  0  0  0  0  0  0  0  0
   60.3358   28.1123   48.7983 H   0  0  0  0  0  0  0  0  0  0  0  0
   61.1146   28.6821   45.8078 H   0  0  0  0  0  0  0  0  0  0  0  0
   59.8082   30.2076   44.3329 H   0  0  0  0  0  0  0  0  0  0  0  0
   58.7186   31.7732   42.6736 H   0  0  0  0  0  0  0  0  0  0  0  0
   57.1925   33.8033   43.5335 H   0  0  0  0  0  0  0  0  0  0  0  0
   57.5995   31.5042   46.2717 H   0  0  0  0  0  0  0  0  0  0  0  0
   58.4583   32.0515   48.5500 H   0  0  0  0  0  0  0  0  0  0  0  0
   59.6982   34.1830   48.9411 H   0  0  0  0  0  0  0  0  0  0  0  0
   60.0990   35.7607   47.0494 H   0  0  0  0  0  0  0  0  0  0  0  0
   56.1705   28.1087   45.3820 H   0  0  0  0  0  0  0  0  0  0  0  0
   57.4740   26.5863   46.8635 H   0  0  0  0  0  0  0  0  0  0  0  0
  1  2  1  0
  2  3  1  0
  3  4  2  0
  4  5  1  0
  5  6  2  0
  6  7  1  0
  7  8  2  0
  7  9  2  0
  7 10  1  0
 10 11  2  3
 11 12  1  0
 12 13  2  0
 13 14  1  0
 14 15  2  0
 15 16  1  0
 16 17  2  0
 17 18  1  0
  6 19  1  0
 19 20  2  0
 20  3  1  0
 17 12  1  0
  1 21  1  0
  1 22  1  0
  1 23  1  0
  4 24  1  0
  5 25  1  0
 10 26  1  0
 11 27  1  0
 13 28  1  0
 14 29  1  0
 15 30  1  0
 16 31  1  0
 19 32  1  0
 20 33  1  0
M  END
>  <UniqueID>  (7) 
6

>  <SMILES>  (7) 
COc1ccc(S(=O)(=O)C=Cc2ccccc2F)cc1

>  <Energy>  (7) 
39.273007005284065

>  <Genealogy>  (7) 
COc1ccc(S(=O)(=O)C=Cc2ccccc2F)cc1 (3D coordinates assigned)
COc1ccc(S(=O)(=O)C=Cc2ccccc2F)cc1 (optimized conformer: 39.273007005284065 kcal/mol)

>  <smiles>  (7) 
COc1ccc(S(=O)(=O)C=Cc2ccccc2F)cc1

>  <score_type>  (7) 
oracle

>  <origin>  (7) 
adg

>  <m_score__min__energy>  (7) 
-7.2800000000000002

>  <m_primary>  (7) 
energy

$$$$
7:0
     RDKit          3D

 44 47  0  0  0  0  0  0  0  0999 V2000
   59.9430   33.8940   49.5040 C   0  0  0  0  0  0  0  0  0  0  0  0
   61.2450   33.6650   48.7820 C   0  0  0  0  0  0  0  0  0  0  0  0
   62.4170   33.5020   49.5420 C   0  0  0  0  0  0  0  0  0  0  0  0
   63.6530   33.3210   48.9150 C   0  0  0  0  0  0  0  0  0  0  0  0
   65.1070   33.1330   49.8770 Cl  0  0  0  0  0  0  0  0  0  0  0  0
   63.7310   33.2990   47.5200 C   0  0  0  0  0  0  0  0  0  0  0  0
   62.5750   33.4390   46.7510 C   0  0  0  0  0  0  0  0  0  0  0  0
   61.3240   33.5980   47.3690 C   0  0  0  0  0  0  0  0  0  0  0  0
   60.1270   33.7080   46.5130 C   0  0  0  0  0  0  0  0  0  0  0  0
   59.5760   34.8750   46.0040 C   0  0  0  0  0  0  0  0  0  0  0  0
   58.4780   34.5820   45.2620 N   0  0  0  0  0  0  0  0  0  0  0  0
   58.4010   33.2360   45.3330 C   0  0  0  0  0  0  0  0  0  0  0  0
   57.4580   32.4310   44.7110 C   0  0  0  0  0  0  0  0  0  0  0  0
   57.5820   31.0450   44.8790 C   0  0  0  0  0  0  0  0  0  0  0  0
   58.6480   30.5150   45.6470 C   0  0  0  0  0  0  0  0  0  0  0  0
   58.7970   29.0490   45.8260 C   0  0  0  0  0  0  0  0  0  0  0  0
   60.0750   28.4750   45.9390 C   0  0  0  0  0  0  0  0  0  0  0  0
   60.2200   27.0970   46.1110 C   0  0  0  0  0  0  0  0  0  0  0  0
   59.0930   26.2750   46.1670 C   0  0  0  0  0  0  0  0  0  0  0  0
   57.8120   26.8270   46.0450 C   0  0  0  0  0  0  0  0  0  0  0  0
   56.3890   25.7950   46.1260 S   0  0  0  0  0  0  0  0  0  0  0  0
   56.4430   24.6120   44.8000 C   0  0  0  0  0  0  0  0  0  0  0  0
   55.1430   26.6270   46.0040 O   0  0  0  0  0  0  0  0  0  0  0  0
   56.3590   25.0730   47.4440 O   0  0  0  0  0  0  0  0  0  0  0  0
   57.6670   28.2120   45.8810 C   0  0  0  0  0  0  0  0  0  0  0  0
   59.5410   31.3760   46.2260 N   0  0  0  0  0  0  0  0  0  0  0  0
   59.3740   32.6900   46.0700 N   0  0  0  0  0  0  0  0  0  0  0  0
   60.1157   33.8636   50.5899 H   0  0  0  0  0  0  0  0  0  0  0  0
   59.5369   34.8774   49.2247 H   0  0  0  0  0  0  0  0  0  0  0  0
   59.2257   33.1082   49.2247 H   0  0  0  0  0  0  0  0  0  0  0  0
   62.3604   33.5171   50.6404 H   0  0  0  0  0  0  0  0  0  0  0  0
   64.7059   33.1710   47.0269 H   0  0  0  0  0  0  0  0  0  0  0  0
   62.6441   33.4247   45.6533 H   0  0  0  0  0  0  0  0  0  0  0  0
   59.9704   35.8873   46.1762 H   0  0  0  0  0  0  0  0  0  0  0  0
   56.6448   32.8634   44.1095 H   0  0  0  0  0  0  0  0  0  0  0  0
   56.8505   30.3678   44.4139 H   0  0  0  0  0  0  0  0  0  0  0  0
   60.9676   29.1162   45.8916 H   0  0  0  0  0  0  0  0  0  0  0  0
   61.2245   26.6581   46.2026 H   0  0  0  0  0  0  0  0  0  0  0  0
   59.2117   25.1905   46.3074 H   0  0  0  0  0  0  0  0  0  0  0  0
   56.4894   23.5953   45.2173 H   0  0  0  0  0  0  0  0  0  0  0  0
   55.5393   24.7134   44.1811 H   0  0  0  0  0  0  0  0  0  0  0  0
   57.3337   24.7953   44.1811 H   0  0  0  0  0  0  0  0  0  0  0  0
   56.6609   28.6482   45.7946 H   0  0  0  0  0  0  0  0  0  0  0  0
   60.3650   31.0130   46.7550 H   0  0  0  0  0  0  0  0  0  0  0  0
  1  2  1  0
  2  3  2  0
  3  4  1  0
  4  5  1  0
  4  6  2  0
  6  7  1  0
  7  8  2  0
  8  9  1  0
  9 10  2  0
 10 11  1  0
 11 12  2  0
 12 13  1  0
 13 14  2  0
 14 15  1  0
 15 16  1  0
 16 17  2  0
 17 18  1  0
 18 19  2  0
 19 20  1  0
 20 21  1  0
 21 22  1  0
 21 23  2  0
 21 24  2  0
 20 25  2  0
 15 26  2  0
 26 27  1  0
  8  2  1  0
 27  9  1  0
 27 12  1  0
 25 16  1  0
  1 28  1  0
  1 29  1  0
  1 30  1  0
  3 31  1  0
  6 32  1  0
  7 33  1  0
 10 34  1  0
 13 35  1  0
 14 36  1  0
 17 37  1  0
 18 38  1  0
 19 39  1  0
 22 40  1  0
 22 41  1  0
 22 42  1  0
 25 43  1  0
 26 44  1  0
M  CHG  1  26   1
M  END
>  <UniqueID>  (8) 
7

>  <SMILES>  (8) 
Cc1cc(Cl)ccc1-c1cnc2ccc(-c3cccc(S(C)(=O)=O)c3)[nH+]n12

>  <Energy>  (8) 
92.96697577580085

>  <Genealogy>  (8) 
Cc1cc(Cl)ccc1-c1cnc2ccc(-c3cccc(S(C)(=O)=O)c3)[nH+]n12 (protonated)
Cc1cc(Cl)ccc1-c1cnc2ccc(-c3cccc(S(C)(=O)=O)c3)[nH+]n12 (3D coordinates assigned)
Cc1cc(Cl)ccc1-c1cnc2ccc(-c3cccc(S(C)(=O)=O)c3)[nH+]n12 (optimized conformer: 92.96697577580085 kcal/mol)

>  <smiles>  (8) 
Cc1cc(Cl)ccc1-c1cnc2ccc(-c3cccc(S(C)(=O)=O)c3)nn12

>  <score_type>  (8) 
oracle

>  <origin>  (8) 
adg

>  <m_score__min__energy>  (8) 
-9.2799999999999994

>  <m_primary>  (8) 
energy

$$$$
8:0
     RDKit          3D

 47 49  0  0  0  0  0  0  0  0999 V2000
   56.8120   30.6810   44.0010 C   0  0  0  0  0  0  0  0  0  0  0  0
   57.0700   31.2300   45.2910 O   0  0  0  0  0  0  0  0  0  0  0  0
   57.8320   32.3800   45.5500 C   0  0  0  0  0  0  0  0  0  0  0  0
   57.7890   33.4610   44.6430 C   0  0  0  0  0  0  0  0  0  0  0  0
   58.5310   34.6150   44.8640 C   0  0  0  0  0  0  0  0  0  0  0  0
   59.3290   34.7200   45.9910 C   0  0  0  0  0  0  0  0  0  0  0  0
   59.3920   33.6720   46.9060 C   0  0  0  0  0  0  0  0  0  0  0  0
   58.6540   32.4700   46.7240 C   0  0  0  0  0  0  0  0  0  0  0  0
   58.7550   31.3920   47.7250 N   0  0  0  0  0  0  0  0  0  0  0  0
   58.9140   30.0000   47.2410 C   0  0  0  0  0  0  0  0  0  0  0  0
   58.9430   28.9320   48.3390 C   0  0  0  0  0  0  0  0  0  0  0  0
   59.6970   29.3670   49.5240 N   0  0  0  0  0  0  0  0  0  0  0  0
   61.1320   29.6450   49.2220 C   0  0  0  0  0  0  0  0  0  0  0  0
   61.7100   30.8120   50.0480 C   0  0  0  0  0  0  0  0  0  0  0  0
   62.3130   31.8910   49.1890 C   0  0  0  0  0  0  0  0  0  0  0  0
   62.3860   33.2150   49.6550 C   0  0  0  0  0  0  0  0  0  0  0  0
   62.9200   34.2190   48.8410 C   0  0  0  0  0  0  0  0  0  0  0  0
   63.3850   33.9090   47.5600 C   0  0  0  0  0  0  0  0  0  0  0  0
   63.3150   32.5940   47.0900 C   0  0  0  0  0  0  0  0  0  0  0  0
   62.7830   31.5870   47.9000 C   0  0  0  0  0  0  0  0  0  0  0  0
   58.9850   30.5100   50.1230 C   0  0  0  0  0  0  0  0  0  0  0  0
   58.8170   31.7090   49.1700 C   0  0  0  0  0  0  0  0  0  0  0  0
   56.3465   29.6904   44.1105 H   0  0  0  0  0  0  0  0  0  0  0  0
   56.1324   31.3465   43.4485 H   0  0  0  0  0  0  0  0  0  0  0  0
   57.7581   30.5825   43.4485 H   0  0  0  0  0  0  0  0  0  0  0  0
   57.1570   33.3885   43.7456 H   0  0  0  0  0  0  0  0  0  0  0  0
   58.4845   35.4451   44.1437 H   0  0  0  0  0  0  0  0  0  0  0  0
   59.9152   35.6345   46.1641 H   0  0  0  0  0  0  0  0  0  0  0  0
   60.0310   33.7770   47.7952 H   0  0  0  0  0  0  0  0  0  0  0  0
   58.0736   29.7747   46.5679 H   0  0  0  0  0  0  0  0  0  0  0  0
   59.8947   29.9573   46.7447 H   0  0  0  0  0  0  0  0  0  0  0  0
   57.9093   28.7074   48.6408 H   0  0  0  0  0  0  0  0  0  0  0  0
   59.4453   28.0433   47.9294 H   0  0  0  0  0  0  0  0  0  0  0  0
   59.6410   28.5770   50.2100 H   0  0  0  0  0  0  0  0  0  0  0  0
   61.7171   28.7392   49.4391 H   0  0  0  0  0  0  0  0  0  0  0  0
   61.1940   29.9318   48.1619 H   0  0  0  0  0  0  0  0  0  0  0  0
   60.9006   31.2522   50.6489 H   0  0  0  0  0  0  0  0  0  0  0  0
   62.5123   30.4049   50.6808 H   0  0  0  0  0  0  0  0  0  0  0  0
   62.0220   33.4623   50.6631 H   0  0  0  0  0  0  0  0  0  0  0  0
   62.9741   35.2540   49.2094 H   0  0  0  0  0  0  0  0  0  0  0  0
   63.8061   34.6996   46.9215 H   0  0  0  0  0  0  0  0  0  0  0  0
   63.6793   32.3516   46.0808 H   0  0  0  0  0  0  0  0  0  0  0  0
   62.7320   30.5533   47.5274 H   0  0  0  0  0  0  0  0  0  0  0  0
   57.9855   30.1715   50.4334 H   0  0  0  0  0  0  0  0  0  0  0  0
   59.5946   30.8579   50.9700 H   0  0  0  0  0  0  0  0  0  0  0  0
   57.8839   32.2247   49.4408 H   0  0  0  0  0  0  0  0  0  0  0  0
   59.7245   32.3171   49.2992 H   0  0  0  0  0  0  0  0  0  0  0  0
  1  2  1  0
  2  3  1  0
  3  4  2  0
  4  5  1  0
  5  6  2  0
  6  7  1  0
  7  8  2  0
  8  9  1  0
  9 10  1  0
 10 11  1  0
 11 12  1  0
 12 13  1  0
 13 14  1  0
 14 15  1  0
 15 16  2  0
 16 17  1  0
 17 18  2  0
 18 19  1  0
 19 20  2  0
 12 21  1  0
 21 22  1  0
  8  3  1  0
 22  9  1  0
 20 15  1  0
  1 23  1  0
  1 24  1  0
  1 25  1  0
  4 26  1  0
  5 27  1  0
  6 28  1  0
  7 29  1  0
 10 30  1  0
 10 31  1  0
 11 32  1  0
 11 33  1  0
 12 34  1  0
 13 35  1  0
 13 36  1  0
 14 37  1  0
 14 38  1  0
 16 39  1  0
 17 40  1  0
 18 41  1  0
 19 42  1  0
 20 43  1  0
 21 44  1  0
 21 45  1  0
 22 46  1  0
 22 47  1  0
M  CHG  1  12   1
M  END
>  <UniqueID>  (9) 
8

>  <SMILES>  (9) 
COc1ccccc1N1CC[NH+](CCc2ccccc2)CC1

>  <Energy>  (9) 
65.5076625966307

>  <Genealogy>  (9) 
COc1ccccc1N1CC[NH+](CCc2ccccc2)CC1 (protonated)
COc1ccccc1N1CC[NH+](CCc2ccccc2)CC1 (3D coordinates assigned)
COc1ccccc1N1CC[NH+](CCc2ccccc2)CC1 (nonaromatic ring conformer: 65.5076625966307 kcal/mol)

>  <smiles>  (9) 
COc1ccccc1N1CCN(CCc2ccccc2)CC1

>  <score_type>  (9) 
oracle

>  <origin>  (9) 
adg

>  <m_score__min__energy>  (9) 
-5.9800000000000004

>  <m_primary>  (9) 
energy

$$$$
9:0
     RDKit          3D

 63 62  0  0  0  0  0  0  0  0999 V2000
   57.4836   31.0042   42.0325 H   0  0  0  0  0  0  0  0  0  0  0  0
   57.2550   31.0610   43.1070 C   0  0  0  0  0  0  0  0  0  0  0  0
   57.7340   32.0800   43.8280 C   0  0  0  0  0  0  0  0  0  0  0  0
   58.5386   32.7038   43.4115 H   0  0  0  0  0  0  0  0  0  0  0  0
   61.6320   33.7650   47.1380 C   0  0  0  0  0  0  0  0  0  0  0  0
   61.9396   34.7997   47.3495 H   0  0  0  0  0  0  0  0  0  0  0  0
   62.5014   33.1816   46.8006 H   0  0  0  0  0  0  0  0  0  0  0  0
   61.0900   33.1640   48.3500 N   0  0  0  0  0  0  0  0  0  0  0  0
   61.3580   32.1780   48.5650 H   0  0  0  0  0  0  0  0  0  0  0  0
   60.0330   33.7610   49.1170 C   0  0  0  0  0  0  0  0  0  0  0  0
   59.6230   34.9230   48.8520 O   0  0  0  0  0  0  0  0  0  0  0  0
   59.3910   32.9850   50.2260 C   0  0  0  0  0  0  0  0  0  0  0  0
   58.3631   32.7232   49.9346 H   0  0  0  0  0  0  0  0  0  0  0  0
   59.3858   33.6066   51.1335 H   0  0  0  0  0  0  0  0  0  0  0  0
   60.1750   31.6970   50.5170 C   0  0  0  0  0  0  0  0  0  0  0  0
   60.2153   31.5462   51.6059 H   0  0  0  0  0  0  0  0  0  0  0  0
   61.1817   31.8128   50.0890 H   0  0  0  0  0  0  0  0  0  0  0  0
   59.5300   30.4610   49.8710 C   0  0  0  0  0  0  0  0  0  0  0  0
   60.1929   29.5970   50.0259 H   0  0  0  0  0  0  0  0  0  0  0  0
   59.3896   30.6807   48.8023 H   0  0  0  0  0  0  0  0  0  0  0  0
   58.1490   30.1330   50.4620 C   0  0  0  0  0  0  0  0  0  0  0  0
   57.8894   29.0972   50.1979 H   0  0  0  0  0  0  0  0  0  0  0  0
   57.4277   30.8504   50.0435 H   0  0  0  0  0  0  0  0  0  0  0  0
   58.1140   30.2750   51.9930 C   0  0  0  0  0  0  0  0  0  0  0  0
   58.4575   31.2851   52.2608 H   0  0  0  0  0  0  0  0  0  0  0  0
   58.7690   29.4980   52.4141 H   0  0  0  0  0  0  0  0  0  0  0  0
   56.7070   30.0630   52.5760 C   0  0  0  0  0  0  0  0  0  0  0  0
   56.7576   30.1413   53.6720 H   0  0  0  0  0  0  0  0  0  0  0  0
   56.3519   29.0669   52.2734 H   0  0  0  0  0  0  0  0  0  0  0  0
   55.7210   31.1110   52.0450 C   0  0  0  0  0  0  0  0  0  0  0  0
   55.8011   31.1583   50.9489 H   0  0  0  0  0  0  0  0  0  0  0  0
   55.9697   32.0856   52.4904 H   0  0  0  0  0  0  0  0  0  0  0  0
   54.2780   30.7490   52.4290 C   0  0  0  0  0  0  0  0  0  0  0  0
   53.9397   31.4425   53.2129 H   0  0  0  0  0  0  0  0  0  0  0  0
   54.2827   29.7055   52.7770 H   0  0  0  0  0  0  0  0  0  0  0  0
   53.2980   30.8340   51.2420 C   0  0  0  0  0  0  0  0  0  0  0  0
   53.4470   29.9494   50.6055 H   0  0  0  0  0  0  0  0  0  0  0  0
   53.5153   31.7744   50.7144 H   0  0  0  0  0  0  0  0  0  0  0  0
   51.8170   30.8870   51.6600 C   0  0  0  0  0  0  0  0  0  0  0  0
   51.7559   30.7842   52.7535 H   0  0  0  0  0  0  0  0  0  0  0  0
   51.2965   30.0662   51.1449 H   0  0  0  0  0  0  0  0  0  0  0  0
   51.1500   32.1670   51.2610 C   0  0  0  0  0  0  0  0  0  0  0  0
   50.3640   32.7450   52.0570 O   0  0  0  0  0  0  0  0  0  0  0  0
   51.3930   32.7190   50.0100 O   0  0  0  0  0  0  0  0  0  0  0  0
   56.4270   30.0140   43.7270 C   0  0  0  0  0  0  0  0  0  0  0  0
   55.3462   29.9842   43.5246 H   0  0  0  0  0  0  0  0  0  0  0  0
   56.9750   29.0970   44.5350 C   0  0  0  0  0  0  0  0  0  0  0  0
   56.3232   28.5138   45.2021 H   0  0  0  0  0  0  0  0  0  0  0  0
   57.1950   32.3900   45.1960 C   0  0  0  0  0  0  0  0  0  0  0  0
   57.7087   31.7599   45.9370 H   0  0  0  0  0  0  0  0  0  0  0  0
   56.1140   32.1865   45.2026 H   0  0  0  0  0  0  0  0  0  0  0  0
   60.5850   33.7660   46.0580 C   0  0  0  0  0  0  0  0  0  0  0  0
   60.5275   32.8738   45.4171 H   0  0  0  0  0  0  0  0  0  0  0  0
   59.7160   34.7540   45.8050 C   0  0  0  0  0  0  0  0  0  0  0  0
   59.9757   35.7636   46.1560 H   0  0  0  0  0  0  0  0  0  0  0  0
   58.4290   34.5860   45.0860 C   0  0  0  0  0  0  0  0  0  0  0  0
   58.2995   35.1050   44.1248 H   0  0  0  0  0  0  0  0  0  0  0  0
   57.4140   33.8360   45.5430 C   0  0  0  0  0  0  0  0  0  0  0  0
   56.6906   34.3138   46.2200 H   0  0  0  0  0  0  0  0  0  0  0  0
   58.4510   28.8440   44.5550 C   0  0  0  0  0  0  0  0  0  0  0  0
   58.6372   27.7607   44.5126 H   0  0  0  0  0  0  0  0  0  0  0  0
   58.9169   29.3323   43.6864 H   0  0  0  0  0  0  0  0  0  0  0  0
   59.2130   29.5660   46.1840 Br  0  0  0  0  0  0  0  0  0  0  0  0
  1  2  1  0
  2  3  2  0
  3  4  1  0
  3  5  1  0
  5  6  1  0
  5  7  1  0
  5  8  1  0
  8  9  1  0
  8 10  1  0
 10 11  2  0
 10 12  1  0
 12 13  1  0
 12 14  1  0
 12 15  1  0
 15 16  1  0
 15 17  1  0
 15 18  1  0
 18 19  1  0
 18 20  1  0
 18 21  1  0
 21 22  1  0
 21 23  1  0
 21 24  1  0
 24 25  1  0
 24 26  1  0
 24 27  1  0
 27 28  1  0
 27 29  1  0
 27 30  1  0
 30 31  1  0
 30 32  1  0
 30 33  1  0
 33 34  1  0
 33 35  1  0
 33 36  1  0
 36 37  1  0
 36 38  1  0
 36 39  1  0
 39 40  1  0
 39 41  1  0
 39 42  1  0
 42 43  2  0
 42 44  1  0
  2 45  1  0
 45 46  1  0
 45 47  2  0
 47 48  1  0
 47 49  1  0
 49 50  1  0
 49 51  1  0
 49 52  1  0
 52 53  1  0
 52 54  2  0
 54 55  1  0
 54 56  1  0
 56 57  1  0
 56 58  2  0
 58 59  1  0
 58 60  1  0
 60 61  1  0
 60 62  1  0
 60 63  1  0
M  CHG  1  44  -1
M  END
>  <UniqueID>  (10) 
9

>  <SMILES>  (10) 
O=C([O-])CCCCCCCCCCC(=O)NCC=C/C=C\CC=C/C=C/CBr

>  <Energy>  (10) 
32.75901944161664

>  <Genealogy>  (10) 
O=C([O-])CCCCCCCCCCC(=O)NCC=CC=CCC=CC=CCBr (protonated)
O=C([O-])CCCCCCCCCCC(=O)NCC=C/C=C\CC=C/C=C/CBr (cis-trans isomerization)
O=C([O-])CCCCCCCCCCC(=O)NCC=C/C=C\CC=C/C=C/CBr (3D coordinates assigned)
O=C([O-])CCCCCCCCCCC(=O)NCC=C/C=C\CC=C/C=C/CBr (optimized conformer: 32.75901944161664 kcal/mol)

>  <smiles>  (10) 
O=C(O)CCCCCCCCCCC(=O)NCC=CC=CCC=CC=CCBr

>  <score_type>  (10) 
oracle

>  <origin>  (10) 
adg

>  <m_score__min__energy>  (10) 
-11.34

>  <m_primary>  (10) 
energy

$$$$
10:0
     RDKit          3D

 51 53  0  0  0  0  0  0  0  0999 V2000
   55.1310   24.9650   45.6190 C   0  0  0  0  0  0  0  0  0  0  0  0
   55.2820   26.3480   45.9240 O   0  0  0  0  0  0  0  0  0  0  0  0
   56.5160   27.0050   46.0460 C   0  0  0  0  0  0  0  0  0  0  0  0
   57.6200   26.4080   46.6850 C   0  0  0  0  0  0  0  0  0  0  0  0
   58.8190   27.1100   46.8270 C   0  0  0  0  0  0  0  0  0  0  0  0
   58.9370   28.4140   46.3310 C   0  0  0  0  0  0  0  0  0  0  0  0
   60.1970   29.2080   46.5550 C   0  0  0  0  0  0  0  0  0  0  0  0
   59.9430   30.3690   47.4360 N   0  0  0  0  0  0  0  0  0  0  0  0
   60.7660   31.5230   47.0260 C   0  0  0  0  0  0  0  0  0  0  0  0
   59.9020   32.5910   46.4060 C   0  0  0  0  0  0  0  0  0  0  0  0
   58.6460   32.2680   45.8640 C   0  0  0  0  0  0  0  0  0  0  0  0
   57.8450   33.2650   45.2980 C   0  0  0  0  0  0  0  0  0  0  0  0
   58.2860   34.5900   45.2790 C   0  0  0  0  0  0  0  0  0  0  0  0
   59.5260   34.9220   45.8290 C   0  0  0  0  0  0  0  0  0  0  0  0
   60.3310   33.9290   46.3970 C   0  0  0  0  0  0  0  0  0  0  0  0
   60.2560   29.9630   49.1170 S   0  0  0  0  0  0  0  0  0  0  0  0
   61.7230   29.7320   49.3470 O   0  0  0  0  0  0  0  0  0  0  0  0
   59.5080   28.7130   49.4930 O   0  0  0  0  0  0  0  0  0  0  0  0
   59.7550   31.3050   50.1420 C   0  0  0  0  0  0  0  0  0  0  0  0
   60.6040   32.4000   50.3630 C   0  0  0  0  0  0  0  0  0  0  0  0
   60.2220   33.4190   51.2410 C   0  0  0  0  0  0  0  0  0  0  0  0
   58.9870   33.3550   51.8940 C   0  0  0  0  0  0  0  0  0  0  0  0
   58.5260   34.6140   53.0250 Cl  0  0  0  0  0  0  0  0  0  0  0  0
   58.1270   32.2770   51.6570 C   0  0  0  0  0  0  0  0  0  0  0  0
   58.5070   31.2580   50.7810 C   0  0  0  0  0  0  0  0  0  0  0  0
   57.8550   28.9960   45.6550 C   0  0  0  0  0  0  0  0  0  0  0  0
   56.6360   28.3020   45.5230 C   0  0  0  0  0  0  0  0  0  0  0  0
   55.5180   28.8740   44.8980 O   0  0  0  0  0  0  0  0  0  0  0  0
   55.5830   29.7660   43.7900 C   0  0  0  0  0  0  0  0  0  0  0  0
   55.0680   24.3882   46.5535 H   0  0  0  0  0  0  0  0  0  0  0  0
   54.2113   24.8168   45.0340 H   0  0  0  0  0  0  0  0  0  0  0  0
   55.9970   24.6219   45.0340 H   0  0  0  0  0  0  0  0  0  0  0  0
   57.5374   25.3826   47.0746 H   0  0  0  0  0  0  0  0  0  0  0  0
   59.6745   26.6363   47.3308 H   0  0  0  0  0  0  0  0  0  0  0  0
   60.9522   28.5596   47.0233 H   0  0  0  0  0  0  0  0  0  0  0  0
   60.5555   29.5777   45.5830 H   0  0  0  0  0  0  0  0  0  0  0  0
   61.2758   31.9364   47.9087 H   0  0  0  0  0  0  0  0  0  0  0  0
   61.5061   31.1878   46.2844 H   0  0  0  0  0  0  0  0  0  0  0  0
   58.2916   31.2269   45.8851 H   0  0  0  0  0  0  0  0  0  0  0  0
   56.8667   33.0053   44.8674 H   0  0  0  0  0  0  0  0  0  0  0  0
   57.6563   35.3725   44.8306 H   0  0  0  0  0  0  0  0  0  0  0  0
   59.8704   35.9666   45.8155 H   0  0  0  0  0  0  0  0  0  0  0  0
   61.3027   34.1964   46.8379 H   0  0  0  0  0  0  0  0  0  0  0  0
   61.5724   32.4570   49.8443 H   0  0  0  0  0  0  0  0  0  0  0  0
   60.8936   34.2719   51.4183 H   0  0  0  0  0  0  0  0  0  0  0  0
   57.1504   32.2321   52.1613 H   0  0  0  0  0  0  0  0  0  0  0  0
   57.8255   30.4156   50.5914 H   0  0  0  0  0  0  0  0  0  0  0  0
   57.9588   30.0028   45.2242 H   0  0  0  0  0  0  0  0  0  0  0  0
   55.6584   30.8006   44.1561 H   0  0  0  0  0  0  0  0  0  0  0  0
   56.4662   29.5280   43.1790 H   0  0  0  0  0  0  0  0  0  0  0  0
   54.6746   29.6585   43.1790 H   0  0  0  0  0  0  0  0  0  0  0  0
  1  2  1  0
  2  3  1  0
  3  4  2  0
  4  5  1  0
  5  6  2  0
  6  7  1  0
  7  8  1  0
  8  9  1  0
  9 10  1  0
 10 11  2  0
 11 12  1  0
 12 13  2  0
 13 14  1  0
 14 15  2  0
  8 16  1  0
 16 17  2  0
 16 18  2  0
 16 19  1  0
 19 20  2  0
 20 21  1  0
 21 22  2  0
 22 23  1  0
 22 24  1  0
 24 25  2  0
  6 26  1  0
 26 27  2  0
 27 28  1  0
 28 29  1  0
 27  3  1  0
 15 10  1  0
 25 19  1  0
  1 30  1  0
  1 31  1  0
  1 32  1  0
  4 33  1  0
  5 34  1  0
  7 35  1  0
  7 36  1  0
  9 37  1  0
  9 38  1  0
 11 39  1  0
 12 40  1  0
 13 41  1  0
 14 42  1  0
 15 43  1  0
 20 44  1  0
 21 45  1  0
 24 46  1  0
 25 47  1  0
 26 48  1  0
 29 49  1  0
 29 50  1  0
 29 51  1  0
M  END
>  <UniqueID>  (11) 
10

>  <SMILES>  (11) 
COc1ccc(CN(Cc2ccccc2)S(=O)(=O)c2ccc(Cl)cc2)cc1OC

>  <Energy>  (11) 
46.86912677400074

>  <Genealogy>  (11) 
COc1ccc(CN(Cc2ccccc2)S(=O)(=O)c2ccc(Cl)cc2)cc1OC (3D coordinates assigned)
COc1ccc(CN(Cc2ccccc2)S(=O)(=O)c2ccc(Cl)cc2)cc1OC (optimized conformer: 46.86912677400074 kcal/mol)

>  <smiles>  (11) 
COc1ccc(CN(Cc2ccccc2)S(=O)(=O)c2ccc(Cl)cc2)cc1OC

>  <score_type>  (11) 
oracle

>  <origin>  (11) 
adg

>  <m_score__min__energy>  (11) 
-8.8399999999999999

>  <m_primary>  (11) 
energy

$$$$
11:0
     RDKit          3D

 60 64  0  0  0  0  0  0  0  0999 V2000
   63.6820   33.1010   47.0960 C   0  0  0  0  0  0  0  0  0  0  0  0
   63.2810   34.0430   48.0850 O   0  0  0  0  0  0  0  0  0  0  0  0
   62.0830   33.9690   48.8130 C   0  0  0  0  0  0  0  0  0  0  0  0
   62.0650   33.7130   50.1990 C   0  0  0  0  0  0  0  0  0  0  0  0
   60.8520   33.6530   50.8890 C   0  0  0  0  0  0  0  0  0  0  0  0
   59.6490   33.8310   50.2070 C   0  0  0  0  0  0  0  0  0  0  0  0
   59.6540   34.0790   48.8340 C   0  0  0  0  0  0  0  0  0  0  0  0
   60.8700   34.1730   48.1330 C   0  0  0  0  0  0  0  0  0  0  0  0
   60.9000   34.4520   46.7240 N   0  0  0  0  0  0  0  0  0  0  0  0
   59.7660   34.5020   45.8480 C   0  0  0  0  0  0  0  0  0  0  0  0
   59.4940   35.5850   45.2680 O   0  0  0  0  0  0  0  0  0  0  0  0
   58.9050   33.3270   45.6080 C   0  0  0  0  0  0  0  0  0  0  0  0
   57.3890   33.4340   44.8700 S   0  0  0  0  0  0  0  0  0  0  0  0
   57.1140   31.7860   44.8800 C   0  0  0  0  0  0  0  0  0  0  0  0
   56.0110   31.1540   44.4160 N   0  0  0  0  0  0  0  0  0  0  0  0
   55.9460   29.7980   44.4970 C   0  0  0  0  0  0  0  0  0  0  0  0
   56.9880   29.0900   45.0170 N   0  0  0  0  0  0  0  0  0  0  0  0
   58.1140   29.7030   45.4890 C   0  0  0  0  0  0  0  0  0  0  0  0
   59.2210   28.8960   45.9160 N   0  0  0  0  0  0  0  0  0  0  0  0
   59.4270   28.6700   47.3470 C   0  0  0  0  0  0  0  0  0  0  0  0
   58.8440   27.3010   47.7590 C   0  0  0  0  0  0  0  0  0  0  0  0
   58.2610   26.5890   46.5990 N   0  0  0  0  0  0  0  0  0  0  0  0
   57.7450   25.2670   47.0080 C   0  0  0  0  0  0  0  0  0  0  0  0
   57.4760   24.4160   45.7960 C   0  0  0  0  0  0  0  0  0  0  0  0
   56.4930   24.8040   44.8700 C   0  0  0  0  0  0  0  0  0  0  0  0
   56.2550   24.0320   43.7310 C   0  0  0  0  0  0  0  0  0  0  0  0
   56.9940   22.8670   43.5070 C   0  0  0  0  0  0  0  0  0  0  0  0
   57.9760   22.4750   44.4210 C   0  0  0  0  0  0  0  0  0  0  0  0
   58.2180   23.2460   45.5630 C   0  0  0  0  0  0  0  0  0  0  0  0
   59.2610   26.4600   45.5160 C   0  0  0  0  0  0  0  0  0  0  0  0
   59.7180   27.8470   45.0190 C   0  0  0  0  0  0  0  0  0  0  0  0
   58.1810   31.1080   45.4450 C   0  0  0  0  0  0  0  0  0  0  0  0
   59.1920   31.9820   45.9130 C   0  0  0  0  0  0  0  0  0  0  0  0
   60.3750   31.5540   46.7370 C   0  0  0  0  0  0  0  0  0  0  0  0
   64.0675   32.1954   47.5872 H   0  0  0  0  0  0  0  0  0  0  0  0
   62.8178   32.8381   46.4683 H   0  0  0  0  0  0  0  0  0  0  0  0
   64.4706   33.5416   46.4683 H   0  0  0  0  0  0  0  0  0  0  0  0
   63.0106   33.5598   50.7397 H   0  0  0  0  0  0  0  0  0  0  0  0
   60.8458   33.4649   51.9728 H   0  0  0  0  0  0  0  0  0  0  0  0
   58.6951   33.7759   50.7519 H   0  0  0  0  0  0  0  0  0  0  0  0
   58.7020   34.2017   48.2968 H   0  0  0  0  0  0  0  0  0  0  0  0
   55.0487   29.2705   44.1413 H   0  0  0  0  0  0  0  0  0  0  0  0
   60.5048   28.6870   47.5663 H   0  0  0  0  0  0  0  0  0  0  0  0
   58.9165   29.4630   47.9132 H   0  0  0  0  0  0  0  0  0  0  0  0
   59.6473   26.6852   48.1896 H   0  0  0  0  0  0  0  0  0  0  0  0
   58.0454   27.4732   48.4956 H   0  0  0  0  0  0  0  0  0  0  0  0
   58.4900   24.7673   47.6447 H   0  0  0  0  0  0  0  0  0  0  0  0
   56.8066   25.4048   47.5651 H   0  0  0  0  0  0  0  0  0  0  0  0
   55.9085   25.7197   45.0430 H   0  0  0  0  0  0  0  0  0  0  0  0
   55.4848   24.3412   43.0090 H   0  0  0  0  0  0  0  0  0  0  0  0
   56.8026   22.2584   42.6109 H   0  0  0  0  0  0  0  0  0  0  0  0
   58.5591   21.5595   44.2423 H   0  0  0  0  0  0  0  0  0  0  0  0
   58.9916   22.9352   46.2806 H   0  0  0  0  0  0  0  0  0  0  0  0
   60.1336   25.9082   45.8957 H   0  0  0  0  0  0  0  0  0  0  0  0
   58.8004   25.9203   44.6755 H   0  0  0  0  0  0  0  0  0  0  0  0
   60.8172   27.8803   44.9950 H   0  0  0  0  0  0  0  0  0  0  0  0
   59.3148   28.0172   44.0098 H   0  0  0  0  0  0  0  0  0  0  0  0
   60.1291   31.6430   47.8055 H   0  0  0  0  0  0  0  0  0  0  0  0
   60.6250   30.5084   46.5041 H   0  0  0  0  0  0  0  0  0  0  0  0
   61.2362   32.1976   46.5041 H   0  0  0  0  0  0  0  0  0  0  0  0
  1  2  1  0
  2  3  1  0
  3  4  2  0
  4  5  1  0
  5  6  2  0
  6  7  1  0
  7  8  2  0
  8  9  1  0
  9 10  1  0
 10 11  2  0
 10 12  1  0
 12 13  1  0
 13 14  1  0
 14 15  2  0
 15 16  1  0
 16 17  2  0
 17 18  1  0
 18 19  1  0
 19 20  1  0
 20 21  1  0
 21 22  1  0
 22 23  1  0
 23 24  1  0
 24 25  2  0
 25 26  1  0
 26 27  2  0
 27 28  1  0
 28 29  2  0
 22 30  1  0
 30 31  1  0
 18 32  2  0
 32 33  1  0
 33 34  1  0
  8  3  1  0
 33 12  2  0
 32 14  1  0
 31 19  1  0
 29 24  1  0
  1 35  1  0
  1 36  1  0
  1 37  1  0
  4 38  1  0
  5 39  1  0
  6 40  1  0
  7 41  1  0
 16 42  1  0
 20 43  1  0
 20 44  1  0
 21 45  1  0
 21 46  1  0
 23 47  1  0
 23 48  1  0
 25 49  1  0
 26 50  1  0
 27 51  1  0
 28 52  1  0
 29 53  1  0
 30 54  1  0
 30 55  1  0
 31 56  1  0
 31 57  1  0
 34 58  1  0
 34 59  1  0
 34 60  1  0
M  CHG  1   9  -1
M  END
>  <UniqueID>  (12) 
11

>  <SMILES>  (12) 
COc1ccccc1[N-]C(=O)c1sc2ncnc(N3CCN(Cc4ccccc4)CC3)c2c1C

>  <Energy>  (12) 
118.3921802878917

>  <Genealogy>  (12) 
COc1ccccc1[N-]C(=O)c1sc2ncnc(N3CCN(Cc4ccccc4)CC3)c2c1C (protonated)
COc1ccccc1[N-]C(=O)c1sc2ncnc(N3CCN(Cc4ccccc4)CC3)c2c1C (3D coordinates assigned)
COc1ccccc1[N-]C(=O)c1sc2ncnc(N3CCN(Cc4ccccc4)CC3)c2c1C (nonaromatic ring conformer: 118.3921802878917 kcal/mol)

>  <smiles>  (12) 
COc1ccccc1NC(=O)c1sc2ncnc(N3CCN(Cc4ccccc4)CC3)c2c1C

>  <score_type>  (12) 
oracle

>  <origin>  (12) 
adg

>  <m_score__min__energy>  (12) 
-11.449999999999999

>  <m_primary>  (12) 
energy

$$$$
12:0
     RDKit          3D

 47 51  0  0  0  0  0  0  0  0999 V2000
   59.0640   33.0270   49.1760 C   0  0  0  0  0  0  0  0  0  0  0  0
   58.3400   32.4010   48.1220 O   0  0  0  0  0  0  0  0  0  0  0  0
   58.4050   32.7840   46.7720 C   0  0  0  0  0  0  0  0  0  0  0  0
   58.4350   34.1380   46.3840 C   0  0  0  0  0  0  0  0  0  0  0  0
   58.4640   34.4850   45.0310 C   0  0  0  0  0  0  0  0  0  0  0  0
   58.4630   33.4910   44.0530 C   0  0  0  0  0  0  0  0  0  0  0  0
   58.4410   32.1450   44.4240 C   0  0  0  0  0  0  0  0  0  0  0  0
   58.4200   31.7830   45.7800 C   0  0  0  0  0  0  0  0  0  0  0  0
   58.3990   30.3530   46.1490 C   0  0  0  0  0  0  0  0  0  0  0  0
   57.4550   29.4210   45.7640 C   0  0  0  0  0  0  0  0  0  0  0  0
   56.3040   29.1720   45.0590 C   0  0  0  0  0  0  0  0  0  0  0  0
   55.5380   30.1180   44.1980 C   0  0  0  0  0  0  0  0  0  0  0  0
   55.9880   27.8600   45.2480 N   0  0  0  0  0  0  0  0  0  0  0  0
   56.8860   27.2970   46.0620 N   0  0  0  0  0  0  0  0  0  0  0  0
   57.7510   28.2770   46.3520 C   0  0  0  0  0  0  0  0  0  0  0  0
   58.8690   28.4370   47.1210 C   0  0  0  0  0  0  0  0  0  0  0  0
   59.4990   27.4420   47.8660 O   0  0  0  0  0  0  0  0  0  0  0  0
   59.2750   29.7350   47.0040 N   0  0  0  0  0  0  0  0  0  0  0  0
   60.4170   30.3330   47.6380 C   0  0  0  0  0  0  0  0  0  0  0  0
   61.3510   31.0530   46.8820 C   0  0  0  0  0  0  0  0  0  0  0  0
   62.4780   31.6090   47.4930 C   0  0  0  0  0  0  0  0  0  0  0  0
   62.6940   31.4530   48.8750 C   0  0  0  0  0  0  0  0  0  0  0  0
   63.8930   32.0410   49.5270 C   0  0  0  0  0  0  0  0  0  0  0  0
   64.6090   31.5150   50.5880 C   0  0  0  0  0  0  0  0  0  0  0  0
   65.6290   32.4080   50.8370 C   0  0  0  0  0  0  0  0  0  0  0  0
   65.5530   33.4140   49.9970 O   0  0  0  0  0  0  0  0  0  0  0  0
   64.5270   33.2280   49.1980 C   0  0  0  0  0  0  0  0  0  0  0  0
   61.7540   30.7250   49.6280 C   0  0  0  0  0  0  0  0  0  0  0  0
   60.6270   30.1700   49.0140 C   0  0  0  0  0  0  0  0  0  0  0  0
   58.6697   32.6861   50.1446 H   0  0  0  0  0  0  0  0  0  0  0  0
   60.1283   32.7599   49.0989 H   0  0  0  0  0  0  0  0  0  0  0  0
   58.9534   34.1187   49.0989 H   0  0  0  0  0  0  0  0  0  0  0  0
   58.4356   34.9266   47.1508 H   0  0  0  0  0  0  0  0  0  0  0  0
   58.4877   35.5446   44.7366 H   0  0  0  0  0  0  0  0  0  0  0  0
   58.4796   33.7674   42.9884 H   0  0  0  0  0  0  0  0  0  0  0  0
   58.4401   31.3641   43.6493 H   0  0  0  0  0  0  0  0  0  0  0  0
   54.9727   30.8161   44.8330 H   0  0  0  0  0  0  0  0  0  0  0  0
   56.2361   30.6831   43.5629 H   0  0  0  0  0  0  0  0  0  0  0  0
   54.8400   29.5527   43.5629 H   0  0  0  0  0  0  0  0  0  0  0  0
   59.1680   26.4860   47.8620 H   0  0  0  0  0  0  0  0  0  0  0  0
   61.1963   31.1815   45.8005 H   0  0  0  0  0  0  0  0  0  0  0  0
   63.2029   32.1737   46.8884 H   0  0  0  0  0  0  0  0  0  0  0  0
   64.4056   30.5759   51.1234 H   0  0  0  0  0  0  0  0  0  0  0  0
   66.3918   32.2948   51.6214 H   0  0  0  0  0  0  0  0  0  0  0  0
   64.2187   33.9099   48.3918 H   0  0  0  0  0  0  0  0  0  0  0  0
   61.9072   30.5914   50.7091 H   0  0  0  0  0  0  0  0  0  0  0  0
   59.9010   29.6022   49.6145 H   0  0  0  0  0  0  0  0  0  0  0  0
  1  2  1  0
  2  3  1  0
  3  4  2  0
  4  5  1  0
  5  6  2  0
  6  7  1  0
  7  8  2  0
  8  9  1  0
  9 10  2  0
 10 11  1  0
 11 12  1  0
 11 13  2  0
 13 14  1  0
 14 15  1  0
 15 16  2  0
 16 17  1  0
 16 18  1  0
 18 19  1  0
 19 20  2  0
 20 21  1  0
 21 22  2  0
 22 23  1  0
 23 24  1  0
 24 25  2  0
 25 26  1  0
 26 27  1  0
 22 28  1  0
 28 29  2  0
  8  3  1  0
 18  9  1  0
 29 19  1  0
 15 10  1  0
 27 23  2  0
  1 30  1  0
  1 31  1  0
  1 32  1  0
  4 33  1  0
  5 34  1  0
  6 35  1  0
  7 36  1  0
 12 37  1  0
 12 38  1  0
 12 39  1  0
 17 40  1  0
 20 41  1  0
 21 42  1  0
 24 43  1  0
 25 44  1  0
 27 45  1  0
 28 46  1  0
 29 47  1  0
M  CHG  1  14  -1
M  END
>  <UniqueID>  (13) 
12

>  <SMILES>  (13) 
COc1ccccc1-c1c2c(C)n[n-]c2c(O)n1-c1ccc(-c2ccoc2)cc1

>  <Energy>  (13) 
182.10058892668349

>  <Genealogy>  (13) 
COc1ccccc1-c1c2c(C)n[n-]c2c(O)n1-c1ccc(-c2ccoc2)cc1 (protonated)
COc1ccccc1-c1c2c(C)n[n-]c2c(O)n1-c1ccc(-c2ccoc2)cc1 (3D coordinates assigned)
COc1ccccc1-c1c2c(C)n[n-]c2c(O)n1-c1ccc(-c2ccoc2)cc1 (optimized conformer: 182.10058892668349 kcal/mol)

>  <smiles>  (13) 
COc1ccccc1-c1c2c(C)n[nH]c2c(O)n1-c1ccc(-c2ccoc2)cc1

>  <score_type>  (13) 
oracle

>  <origin>  (13) 
adg

>  <m_score__min__energy>  (13) 
-8.6099999999999994

>  <m_primary>  (13) 
energy

$$$$
13:0
     RDKit          3D

 41 44  0  0  0  0  0  0  0  0999 V2000
   56.6090   22.2740   43.5690 C   0  0  0  0  0  0  0  0  0  0  0  0
   56.3570   23.5310   44.3320 C   0  0  0  0  0  0  0  0  0  0  0  0
   55.1160   24.0130   44.7050 C   0  0  0  0  0  0  0  0  0  0  0  0
   55.4070   25.2080   45.3260 C   0  0  0  0  0  0  0  0  0  0  0  0
   54.4770   26.0520   45.9250 O   0  0  0  0  0  0  0  0  0  0  0  0
   56.7400   25.4240   45.2950 N   0  0  0  0  0  0  0  0  0  0  0  0
   57.4640   26.5450   45.8340 C   0  0  0  0  0  0  0  0  0  0  0  0
   58.5010   26.3620   46.7650 C   0  0  0  0  0  0  0  0  0  0  0  0
   59.1890   27.4610   47.2890 C   0  0  0  0  0  0  0  0  0  0  0  0
   58.8440   28.7650   46.8930 C   0  0  0  0  0  0  0  0  0  0  0  0
   59.5030   29.9020   47.3920 C   0  0  0  0  0  0  0  0  0  0  0  0
   60.4420   29.7680   48.2270 O   0  0  0  0  0  0  0  0  0  0  0  0
   59.1230   31.1540   46.9790 N   0  0  0  0  0  0  0  0  0  0  0  0
   59.8060   32.3080   47.5040 C   0  0  0  0  0  0  0  0  0  0  0  0
   61.0680   32.6660   47.0070 C   0  0  0  0  0  0  0  0  0  0  0  0
   61.7320   33.7850   47.5190 C   0  0  0  0  0  0  0  0  0  0  0  0
   61.1410   34.5470   48.5300 C   0  0  0  0  0  0  0  0  0  0  0  0
   59.8860   34.1910   49.0330 C   0  0  0  0  0  0  0  0  0  0  0  0
   59.2190   33.0730   48.5230 C   0  0  0  0  0  0  0  0  0  0  0  0
   58.1020   31.3010   46.0700 C   0  0  0  0  0  0  0  0  0  0  0  0
   57.6640   32.6550   45.5840 C   0  0  0  0  0  0  0  0  0  0  0  0
   57.4580   30.2060   45.5880 N   0  0  0  0  0  0  0  0  0  0  0  0
   57.7990   28.9540   45.9730 C   0  0  0  0  0  0  0  0  0  0  0  0
   57.1120   27.8510   45.4530 C   0  0  0  0  0  0  0  0  0  0  0  0
   57.3240   24.4000   44.6900 N   0  0  0  0  0  0  0  0  0  0  0  0
   56.7752   21.4450   44.2727 H   0  0  0  0  0  0  0  0  0  0  0  0
   55.7382   22.0485   42.9359 H   0  0  0  0  0  0  0  0  0  0  0  0
   57.4994   22.4016   42.9359 H   0  0  0  0  0  0  0  0  0  0  0  0
   54.1303   23.5519   44.5442 H   0  0  0  0  0  0  0  0  0  0  0  0
   53.6460   25.6790   46.3690 H   0  0  0  0  0  0  0  0  0  0  0  0
   58.7738   25.3453   47.0843 H   0  0  0  0  0  0  0  0  0  0  0  0
   60.0023   27.3047   48.0130 H   0  0  0  0  0  0  0  0  0  0  0  0
   61.5360   32.0654   46.2131 H   0  0  0  0  0  0  0  0  0  0  0  0
   62.7202   34.0655   47.1256 H   0  0  0  0  0  0  0  0  0  0  0  0
   61.6637   35.4280   48.9307 H   0  0  0  0  0  0  0  0  0  0  0  0
   59.4231   34.7908   49.8304 H   0  0  0  0  0  0  0  0  0  0  0  0
   58.2326   32.7929   48.9213 H   0  0  0  0  0  0  0  0  0  0  0  0
   57.4540   33.3040   46.4469 H   0  0  0  0  0  0  0  0  0  0  0  0
   58.4633   33.1021   44.9748 H   0  0  0  0  0  0  0  0  0  0  0  0
   56.7542   32.5493   44.9748 H   0  0  0  0  0  0  0  0  0  0  0  0
   56.2893   28.0078   44.7398 H   0  0  0  0  0  0  0  0  0  0  0  0
  1  2  1  0
  2  3  1  0
  3  4  2  0
  4  5  1  0
  4  6  1  0
  6  7  1  0
  7  8  2  0
  8  9  1  0
  9 10  2  0
 10 11  1  0
 11 12  2  0
 11 13  1  0
 13 14  1  0
 14 15  2  0
 15 16  1  0
 16 17  2  0
 17 18  1  0
 18 19  2  0
 13 20  1  0
 20 21  1  0
 20 22  2  0
 22 23  1  0
 23 24  2  0
  6 25  1  0
 25  2  2  0
 24  7  1  0
 23 10  1  0
 19 14  1  0
  1 26  1  0
  1 27  1  0
  1 28  1  0
  3 29  1  0
  5 30  1  0
  8 31  1  0
  9 32  1  0
 15 33  1  0
 16 34  1  0
 17 35  1  0
 18 36  1  0
 19 37  1  0
 21 38  1  0
 21 39  1  0
 21 40  1  0
 24 41  1  0
M  END
>  <UniqueID>  (14) 
13

>  <SMILES>  (14) 
Cc1cc(O)n(-c2ccc3c(=O)n(-c4ccccc4)c(C)nc3c2)n1

>  <Energy>  (14) 
92.36918195729342

>  <Genealogy>  (14) 
Cc1cc(O)n(-c2ccc3c(=O)n(-c4ccccc4)c(C)nc3c2)n1 (3D coordinates assigned)
Cc1cc(O)n(-c2ccc3c(=O)n(-c4ccccc4)c(C)nc3c2)n1 (optimized conformer: 92.36918195729342 kcal/mol)

>  <smiles>  (14) 
Cc1cc(O)n(-c2ccc3c(=O)n(-c4ccccc4)c(C)nc3c2)n1

>  <score_type>  (14) 
oracle

>  <origin>  (14) 
adg

>  <m_score__min__energy>  (14) 
-8.75

>  <m_primary>  (14) 
energy

$$$$
14:0
     RDKit          3D

 48 49  0  0  0  0  0  0  0  0999 V2000
   58.8790   32.6550   49.0650 C   0  0  0  0  0  0  0  0  0  0  0  0
   58.0290   32.7480   47.7930 C   0  0  0  0  0  0  0  0  0  0  0  0
   58.7310   33.4970   46.7040 N   0  0  0  0  0  0  0  0  0  0  0  0
   59.3800   34.7290   47.2260 C   0  0  0  0  0  0  0  0  0  0  0  0
   59.8240   35.6790   46.1070 C   0  0  0  0  0  0  0  0  0  0  0  0
   57.7660   33.8240   45.6180 C   0  0  0  0  0  0  0  0  0  0  0  0
   57.9820   33.0260   44.3140 C   0  0  0  0  0  0  0  0  0  0  0  0
   58.7770   31.8600   44.5290 O   0  0  0  0  0  0  0  0  0  0  0  0
   58.2900   30.5820   44.8560 C   0  0  0  0  0  0  0  0  0  0  0  0
   56.9920   30.1660   44.4970 C   0  0  0  0  0  0  0  0  0  0  0  0
   56.5330   28.8960   44.8490 C   0  0  0  0  0  0  0  0  0  0  0  0
   57.3570   28.0250   45.5620 C   0  0  0  0  0  0  0  0  0  0  0  0
   56.7200   26.2910   46.0490 Br  0  0  0  0  0  0  0  0  0  0  0  0
   58.6460   28.4210   45.9190 C   0  0  0  0  0  0  0  0  0  0  0  0
   59.1300   29.6900   45.5590 C   0  0  0  0  0  0  0  0  0  0  0  0
   60.5190   30.0960   45.9920 C   0  0  0  0  0  0  0  0  0  0  0  0
   60.4880   31.3290   46.7110 O   0  0  0  0  0  0  0  0  0  0  0  0
   61.6110   31.9840   47.2420 C   0  0  0  0  0  0  0  0  0  0  0  0
   62.1200   33.1810   46.6990 C   0  0  0  0  0  0  0  0  0  0  0  0
   63.2460   33.7880   47.2650 C   0  0  0  0  0  0  0  0  0  0  0  0
   63.8690   33.2120   48.3750 C   0  0  0  0  0  0  0  0  0  0  0  0
   63.3670   32.0280   48.9220 C   0  0  0  0  0  0  0  0  0  0  0  0
   62.2430   31.4190   48.3570 C   0  0  0  0  0  0  0  0  0  0  0  0
   58.2268   32.7264   49.9479 H   0  0  0  0  0  0  0  0  0  0  0  0
   59.4125   31.6931   49.0800 H   0  0  0  0  0  0  0  0  0  0  0  0
   59.6078   33.4788   49.0800 H   0  0  0  0  0  0  0  0  0  0  0  0
   57.8074   31.7305   47.4386 H   0  0  0  0  0  0  0  0  0  0  0  0
   57.1058   33.2928   48.0399 H   0  0  0  0  0  0  0  0  0  0  0  0
   59.4770   32.8900   46.2900 H   0  0  0  0  0  0  0  0  0  0  0  0
   58.6647   35.2570   47.8737 H   0  0  0  0  0  0  0  0  0  0  0  0
   60.2793   34.4232   47.7809 H   0  0  0  0  0  0  0  0  0  0  0  0
   60.2506   36.5917   46.5486 H   0  0  0  0  0  0  0  0  0  0  0  0
   60.5836   35.1831   45.4849 H   0  0  0  0  0  0  0  0  0  0  0  0
   58.9563   35.9436   45.4849 H   0  0  0  0  0  0  0  0  0  0  0  0
   56.7504   33.6152   45.9853 H   0  0  0  0  0  0  0  0  0  0  0  0
   57.9209   34.8839   45.3678 H   0  0  0  0  0  0  0  0  0  0  0  0
   57.0024   32.7204   43.9177 H   0  0  0  0  0  0  0  0  0  0  0  0
   58.5133   33.6743   43.6016 H   0  0  0  0  0  0  0  0  0  0  0  0
   56.3361   30.8474   43.9353 H   0  0  0  0  0  0  0  0  0  0  0  0
   55.5185   28.5809   44.5634 H   0  0  0  0  0  0  0  0  0  0  0  0
   59.2895   27.7335   46.4876 H   0  0  0  0  0  0  0  0  0  0  0  0
   60.9381   29.3118   46.6396 H   0  0  0  0  0  0  0  0  0  0  0  0
   61.1425   30.2274   45.0954 H   0  0  0  0  0  0  0  0  0  0  0  0
   61.6301   33.6393   45.8272 H   0  0  0  0  0  0  0  0  0  0  0  0
   63.6416   34.7202   46.8355 H   0  0  0  0  0  0  0  0  0  0  0  0
   64.7547   33.6905   48.8184 H   0  0  0  0  0  0  0  0  0  0  0  0
   63.8564   31.5755   49.7970 H   0  0  0  0  0  0  0  0  0  0  0  0
   61.8512   30.4877   48.7919 H   0  0  0  0  0  0  0  0  0  0  0  0
  1  2  1  0
  2  3  1  0
  3  4  1  0
  4  5  1  0
  3  6  1  0
  6  7  1  0
  7  8  1  0
  8  9  1  0
  9 10  2  0
 10 11  1  0
 11 12  2  0
 12 13  1  0
 12 14  1  0
 14 15  2  0
 15 16  1  0
 16 17  1  0
 17 18  1  0
 18 19  2  0
 19 20  1  0
 20 21  2  0
 21 22  1  0
 22 23  2  0
 15  9  1  0
 23 18  1  0
  1 24  1  0
  1 25  1  0
  1 26  1  0
  2 27  1  0
  2 28  1  0
  3 29  1  0
  4 30  1  0
  4 31  1  0
  5 32  1  0
  5 33  1  0
  5 34  1  0
  6 35  1  0
  6 36  1  0
  7 37  1  0
  7 38  1  0
 10 39  1  0
 11 40  1  0
 14 41  1  0
 16 42  1  0
 16 43  1  0
 19 44  1  0
 20 45  1  0
 21 46  1  0
 22 47  1  0
 23 48  1  0
M  CHG  1   3   1
M  END
>  <UniqueID>  (15) 
14

>  <SMILES>  (15) 
CC[NH+](CC)CCOc1ccc(Br)cc1COc1ccccc1

>  <Energy>  (15) 
50.84658321007937

>  <Genealogy>  (15) 
CC[NH+](CC)CCOc1ccc(Br)cc1COc1ccccc1 (protonated)
CC[NH+](CC)CCOc1ccc(Br)cc1COc1ccccc1 (3D coordinates assigned)
CC[NH+](CC)CCOc1ccc(Br)cc1COc1ccccc1 (optimized conformer: 50.84658321007937 kcal/mol)

>  <smiles>  (15) 
CCN(CC)CCOc1ccc(Br)cc1COc1ccccc1

>  <score_type>  (15) 
oracle

>  <origin>  (15) 
adg

>  <m_score__min__energy>  (15) 
-4.6200000000000001

>  <m_primary>  (15) 
energy

$$$$
15:0
     RDKit          3D

 37 40  0  0  0  0  0  0  0  0999 V2000
   57.7580   32.1130   42.5640 C   0  0  0  0  0  0  0  0  0  0  0  0
   57.9530   32.4180   44.0250 C   0  0  0  0  0  0  0  0  0  0  0  0
   57.7540   33.7250   44.4960 C   0  0  0  0  0  0  0  0  0  0  0  0
   57.9130   34.0170   45.8500 C   0  0  0  0  0  0  0  0  0  0  0  0
   58.2790   33.0160   46.7500 C   0  0  0  0  0  0  0  0  0  0  0  0
   58.5010   31.6970   46.3050 C   0  0  0  0  0  0  0  0  0  0  0  0
   58.8940   30.6600   47.1870 C   0  0  0  0  0  0  0  0  0  0  0  0
   59.2780   31.0230   48.9230 S   0  0  0  0  0  0  0  0  0  0  0  0
   60.7450   31.9790   48.5160 C   0  0  0  0  0  0  0  0  0  0  0  0
   60.8610   33.3090   48.9430 C   0  0  0  0  0  0  0  0  0  0  0  0
   62.0000   34.0540   48.6220 C   0  0  0  0  0  0  0  0  0  0  0  0
   63.0320   33.4700   47.8800 C   0  0  0  0  0  0  0  0  0  0  0  0
   64.1350   34.1930   47.5700 F   0  0  0  0  0  0  0  0  0  0  0  0
   62.9280   32.1390   47.4670 C   0  0  0  0  0  0  0  0  0  0  0  0
   61.7900   31.3930   47.7870 C   0  0  0  0  0  0  0  0  0  0  0  0
   59.0120   29.3380   46.6910 C   0  0  0  0  0  0  0  0  0  0  0  0
   59.3160   28.2390   47.5230 C   0  0  0  0  0  0  0  0  0  0  0  0
   59.4440   26.9550   46.9850 C   0  0  0  0  0  0  0  0  0  0  0  0
   59.2650   26.7450   45.6170 C   0  0  0  0  0  0  0  0  0  0  0  0
   58.9460   27.8160   44.7810 C   0  0  0  0  0  0  0  0  0  0  0  0
   58.8120   29.1060   45.3090 C   0  0  0  0  0  0  0  0  0  0  0  0
   58.4820   30.1300   44.4860 N   0  0  0  0  0  0  0  0  0  0  0  0
   58.3160   31.4020   44.9310 C   0  0  0  0  0  0  0  0  0  0  0  0
   57.1683   31.1906   42.4575 H   0  0  0  0  0  0  0  0  0  0  0  0
   57.2249   32.9466   42.0834 H   0  0  0  0  0  0  0  0  0  0  0  0
   58.7383   31.9790   42.0834 H   0  0  0  0  0  0  0  0  0  0  0  0
   57.4712   34.5228   43.7935 H   0  0  0  0  0  0  0  0  0  0  0  0
   57.7488   35.0431   46.2108 H   0  0  0  0  0  0  0  0  0  0  0  0
   58.3954   33.2582   47.8167 H   0  0  0  0  0  0  0  0  0  0  0  0
   60.0536   33.7681   49.5324 H   0  0  0  0  0  0  0  0  0  0  0  0
   62.0845   35.0996   48.9531 H   0  0  0  0  0  0  0  0  0  0  0  0
   63.7427   31.6778   46.8894 H   0  0  0  0  0  0  0  0  0  0  0  0
   61.7139   30.3436   47.4662 H   0  0  0  0  0  0  0  0  0  0  0  0
   59.4533   28.3941   48.6033 H   0  0  0  0  0  0  0  0  0  0  0  0
   59.6867   26.1071   47.6424 H   0  0  0  0  0  0  0  0  0  0  0  0
   59.3755   25.7343   45.1972 H   0  0  0  0  0  0  0  0  0  0  0  0
   58.7994   27.6463   43.7041 H   0  0  0  0  0  0  0  0  0  0  0  0
  1  2  1  0
  2  3  2  0
  3  4  1  0
  4  5  2  0
  5  6  1  0
  6  7  2  0
  7  8  1  0
  8  9  1  0
  9 10  2  0
 10 11  1  0
 11 12  2  0
 12 13  1  0
 12 14  1  0
 14 15  2  0
  7 16  1  0
 16 17  2  0
 17 18  1  0
 18 19  2  0
 19 20  1  0
 20 21  2  0
 21 22  1  0
 22 23  2  0
 23  2  1  0
 23  6  1  0
 15  9  1  0
 21 16  1  0
  1 24  1  0
  1 25  1  0
  1 26  1  0
  3 27  1  0
  4 28  1  0
  5 29  1  0
 10 30  1  0
 11 31  1  0
 14 32  1  0
 15 33  1  0
 17 34  1  0
 18 35  1  0
 19 36  1  0
 20 37  1  0
M  END
>  <UniqueID>  (16) 
15

>  <SMILES>  (16) 
Cc1cccc2c(Sc3ccc(F)cc3)c3ccccc3nc12

>  <Energy>  (16) 
47.3229997471066

>  <Genealogy>  (16) 
Cc1cccc2c(Sc3ccc(F)cc3)c3ccccc3nc12 (3D coordinates assigned)
Cc1cccc2c(Sc3ccc(F)cc3)c3ccccc3nc12 (optimized conformer: 47.3229997471066 kcal/mol)

>  <smiles>  (16) 
Cc1cccc2c(Sc3ccc(F)cc3)c3ccccc3nc12

>  <score_type>  (16) 
oracle

>  <origin>  (16) 
adg

>  <m_score__min__energy>  (16) 
-7.8600000000000003

>  <m_primary>  (16) 
energy

$$$$
16:0
     RDKit          3D

 41 43  0  0  0  0  0  0  0  0999 V2000
   56.1280   30.0720   43.8860 C   0  0  0  0  0  0  0  0  0  0  0  0
   56.9920   28.9830   43.7910 C   0  0  0  0  0  0  0  0  0  0  0  0
   58.2780   29.0990   44.3320 C   0  0  0  0  0  0  0  0  0  0  0  0
   59.2620   27.9520   44.2550 C   0  0  0  0  0  0  0  0  0  0  0  0
   58.8300   26.7470   45.0000 N   0  0  0  0  0  0  0  0  0  0  0  0
   58.5470   26.9790   46.4330 C   0  0  0  0  0  0  0  0  0  0  0  0
   57.0380   26.9110   46.7270 C   0  0  0  0  0  0  0  0  0  0  0  0
   56.4390   25.6720   46.3680 O   0  0  0  0  0  0  0  0  0  0  0  0
   57.0790   25.0160   45.2780 C   0  0  0  0  0  0  0  0  0  0  0  0
   57.7800   25.9740   44.3030 C   0  0  0  0  0  0  0  0  0  0  0  0
   58.6380   30.2570   44.9460 N   0  0  0  0  0  0  0  0  0  0  0  0
   57.7870   31.3160   45.0300 C   0  0  0  0  0  0  0  0  0  0  0  0
   58.2120   32.5340   45.6760 N   0  0  0  0  0  0  0  0  0  0  0  0
   58.8850   32.4570   46.9830 C   0  0  0  0  0  0  0  0  0  0  0  0
   59.0290   33.8400   47.6280 C   0  0  0  0  0  0  0  0  0  0  0  0
   59.6850   34.8420   46.6670 C   0  0  0  0  0  0  0  0  0  0  0  0
   59.1380   34.7710   45.2250 C   0  0  0  0  0  0  0  0  0  0  0  0
   57.9220   33.8480   45.0810 C   0  0  0  0  0  0  0  0  0  0  0  0
   56.5380   31.2120   44.4980 N   0  0  0  0  0  0  0  0  0  0  0  0
   55.1138   30.0078   43.4651 H   0  0  0  0  0  0  0  0  0  0  0  0
   56.6705   28.0519   43.3013 H   0  0  0  0  0  0  0  0  0  0  0  0
   59.3943   27.6781   43.1979 H   0  0  0  0  0  0  0  0  0  0  0  0
   60.1974   28.2988   44.7184 H   0  0  0  0  0  0  0  0  0  0  0  0
   59.0623   26.2108   47.0282 H   0  0  0  0  0  0  0  0  0  0  0  0
   58.9057   27.9846   46.6977 H   0  0  0  0  0  0  0  0  0  0  0  0
   56.8871   27.0698   47.8050 H   0  0  0  0  0  0  0  0  0  0  0  0
   56.5569   27.6887   46.1157 H   0  0  0  0  0  0  0  0  0  0  0  0
   57.8305   24.3226   45.6835 H   0  0  0  0  0  0  0  0  0  0  0  0
   56.2925   24.4987   44.7090 H   0  0  0  0  0  0  0  0  0  0  0  0
   58.2388   25.3915   43.4905 H   0  0  0  0  0  0  0  0  0  0  0  0
   57.0354   26.6735   43.8952 H   0  0  0  0  0  0  0  0  0  0  0  0
   58.2949   31.8119   47.6505 H   0  0  0  0  0  0  0  0  0  0  0  0
   59.8927   32.0447   46.8264 H   0  0  0  0  0  0  0  0  0  0  0  0
   58.0313   34.2110   47.9053 H   0  0  0  0  0  0  0  0  0  0  0  0
   59.6704   33.7421   48.5163 H   0  0  0  0  0  0  0  0  0  0  0  0
   59.5129   35.8573   47.0538 H   0  0  0  0  0  0  0  0  0  0  0  0
   60.7537   34.5863   46.6175 H   0  0  0  0  0  0  0  0  0  0  0  0
   58.8458   35.7844   44.9124 H   0  0  0  0  0  0  0  0  0  0  0  0
   59.9377   34.3562   44.5938 H   0  0  0  0  0  0  0  0  0  0  0  0
   57.0603   34.2983   45.5956 H   0  0  0  0  0  0  0  0  0  0  0  0
   57.6934   33.7173   44.0130 H   0  0  0  0  0  0  0  0  0  0  0  0
  1  2  2  0
  2  3  1  0
  3  4  1  0
  4  5  1  0
  5  6  1  0
  6  7  1  0
  7  8  1  0
  8  9  1  0
  9 10  1  0
  3 11  2  0
 11 12  1  0
 12 13  1  0
 13 14  1  0
 14 15  1  0
 15 16  1  0
 16 17  1  0
 17 18  1  0
 12 19  2  0
 19  1  1  0
 10  5  1  0
 18 13  1  0
  1 20  1  0
  2 21  1  0
  4 22  1  0
  4 23  1  0
  6 24  1  0
  6 25  1  0
  7 26  1  0
  7 27  1  0
  9 28  1  0
  9 29  1  0
 10 30  1  0
 10 31  1  0
 14 32  1  0
 14 33  1  0
 15 34  1  0
 15 35  1  0
 16 36  1  0
 16 37  1  0
 17 38  1  0
 17 39  1  0
 18 40  1  0
 18 41  1  0
M  END
>  <UniqueID>  (17) 
16

>  <SMILES>  (17) 
c1cc(CN2CCOCC2)nc(N2CCCCC2)n1

>  <Energy>  (17) 
58.562416933928176

>  <Genealogy>  (17) 
c1cc(CN2CCOCC2)nc(N2CCCCC2)n1 (3D coordinates assigned)
c1cc(CN2CCOCC2)nc(N2CCCCC2)n1 (nonaromatic ring conformer: 58.562416933928176 kcal/mol)

>  <smiles>  (17) 
c1cc(CN2CCOCC2)nc(N2CCCCC2)n1

>  <score_type>  (17) 
oracle

>  <origin>  (17) 
adg

>  <m_score__min__energy>  (17) 
-6.9400000000000004

>  <m_primary>  (17) 
energy

$$$$
17:0
     RDKit          3D

 33 34  0  0  0  0  0  0  0  0999 V2000
   62.8820   33.9420   50.3130 C   0  0  0  0  0  0  0  0  0  0  0  0
   61.4960   33.9080   50.0290 O   0  0  0  0  0  0  0  0  0  0  0  0
   60.9840   34.0100   48.7460 C   0  0  0  0  0  0  0  0  0  0  0  0
   59.6760   34.4520   48.5850 C   0  0  0  0  0  0  0  0  0  0  0  0
   59.1010   34.5780   47.3350 C   0  0  0  0  0  0  0  0  0  0  0  0
   59.8250   34.2600   46.1890 C   0  0  0  0  0  0  0  0  0  0  0  0
   59.1570   34.4130   44.8730 C   0  0  0  0  0  0  0  0  0  0  0  0
   57.5250   33.6410   44.9930 S   0  0  0  0  0  0  0  0  0  0  0  0
   57.6450   31.8560   45.0070 C   0  0  0  0  0  0  0  0  0  0  0  0
   56.5250   31.0950   44.8700 N   0  0  0  0  0  0  0  0  0  0  0  0
   56.5570   29.7480   44.8750 C   0  0  0  0  0  0  0  0  0  0  0  0
   55.5060   29.0920   44.7460 O   0  0  0  0  0  0  0  0  0  0  0  0
   57.8050   29.1670   45.0280 C   0  0  0  0  0  0  0  0  0  0  0  0
   57.9020   27.7370   45.0410 C   0  0  0  0  0  0  0  0  0  0  0  0
   57.9850   26.5730   45.0420 N   0  0  0  0  0  0  0  0  0  0  0  0
   58.9560   29.9440   45.1700 C   0  0  0  0  0  0  0  0  0  0  0  0
   60.2880   29.2640   45.3310 C   0  0  0  0  0  0  0  0  0  0  0  0
   58.8450   31.2650   45.1550 N   0  0  0  0  0  0  0  0  0  0  0  0
   61.1080   33.8280   46.3650 C   0  0  0  0  0  0  0  0  0  0  0  0
   61.6950   33.6970   47.6090 C   0  0  0  0  0  0  0  0  0  0  0  0
   63.0330   33.9457   51.4026 H   0  0  0  0  0  0  0  0  0  0  0  0
   63.3672   33.0555   49.8786 H   0  0  0  0  0  0  0  0  0  0  0  0
   63.3231   34.8512   49.8786 H   0  0  0  0  0  0  0  0  0  0  0  0
   59.0834   34.7081   49.4757 H   0  0  0  0  0  0  0  0  0  0  0  0
   58.0635   34.9322   47.2445 H   0  0  0  0  0  0  0  0  0  0  0  0
   59.0498   35.4802   44.6289 H   0  0  0  0  0  0  0  0  0  0  0  0
   59.7521   33.9358   44.0805 H   0  0  0  0  0  0  0  0  0  0  0  0
   60.5138   29.1487   46.4014 H   0  0  0  0  0  0  0  0  0  0  0  0
   60.2538   28.2731   44.8547 H   0  0  0  0  0  0  0  0  0  0  0  0
   61.0705   29.8729   44.8547 H   0  0  0  0  0  0  0  0  0  0  0  0
   59.6680   31.8830   45.2560 H   0  0  0  0  0  0  0  0  0  0  0  0
   61.7021   33.5723   45.4752 H   0  0  0  0  0  0  0  0  0  0  0  0
   62.7328   33.3418   47.6913 H   0  0  0  0  0  0  0  0  0  0  0  0
  1  2  1  0
  2  3  1  0
  3  4  2  0
  4  5  1  0
  5  6  2  0
  6  7  1  0
  7  8  1  0
  8  9  1  0
  9 10  2  0
 10 11  1  0
 11 12  2  0
 11 13  1  0
 13 14  1  0
 14 15  3  0
 13 16  2  0
 16 17  1  0
 16 18  1  0
  6 19  1  0
 19 20  2  0
 20  3  1  0
 18  9  1  0
  1 21  1  0
  1 22  1  0
  1 23  1  0
  4 24  1  0
  5 25  1  0
  7 26  1  0
  7 27  1  0
 17 28  1  0
 17 29  1  0
 17 30  1  0
 18 31  1  0
 19 32  1  0
 20 33  1  0
M  END
>  <smiles>  (18) 
COc1ccc(CSc2nc(=O)c(C#N)c(C)[nH]2)cc1

>  <score_type>  (18) 
oracle

>  <origin>  (18) 
adg

>  <m_score__min__energy>  (18) 
-7.04

>  <m_primary>  (18) 
energy

$$$$
18:0
     RDKit          3D

 57 60  0  0  0  0  0  0  0  0999 V2000
   59.6500   35.4010   45.9940 C   0  0  0  0  0  0  0  0  0  0  0  0
   58.4810   34.6160   46.1950 O   0  0  0  0  0  0  0  0  0  0  0  0
   58.2130   33.4080   45.5340 C   0  0  0  0  0  0  0  0  0  0  0  0
   58.1180   33.4220   44.1380 C   0  0  0  0  0  0  0  0  0  0  0  0
   57.8300   32.2500   43.4360 C   0  0  0  0  0  0  0  0  0  0  0  0
   57.6490   31.0480   44.1220 C   0  0  0  0  0  0  0  0  0  0  0  0
   57.7710   31.0080   45.5210 C   0  0  0  0  0  0  0  0  0  0  0  0
   57.5900   29.8250   46.2510 O   0  0  0  0  0  0  0  0  0  0  0  0
   58.5730   28.8510   46.4900 C   0  0  0  0  0  0  0  0  0  0  0  0
   59.0830   28.0520   45.4490 C   0  0  0  0  0  0  0  0  0  0  0  0
   60.0730   27.1020   45.7080 C   0  0  0  0  0  0  0  0  0  0  0  0
   60.5710   26.9460   47.0030 C   0  0  0  0  0  0  0  0  0  0  0  0
   60.0910   27.7470   48.0410 C   0  0  0  0  0  0  0  0  0  0  0  0
   59.0970   28.7100   47.7920 C   0  0  0  0  0  0  0  0  0  0  0  0
   58.5990   29.5880   48.9160 C   0  0  0  0  0  0  0  0  0  0  0  0
   59.1810   30.9400   48.8110 N   0  0  0  0  0  0  0  0  0  0  0  0
   60.6570   30.9340   48.9900 C   0  0  0  0  0  0  0  0  0  0  0  0
   61.0840   31.4030   50.3910 C   0  0  0  0  0  0  0  0  0  0  0  0
   60.5850   32.7660   50.7100 N   0  0  0  0  0  0  0  0  0  0  0  0
   61.6180   33.8010   50.5020 C   0  0  0  0  0  0  0  0  0  0  0  0
   62.3040   33.6060   49.1760 C   0  0  0  0  0  0  0  0  0  0  0  0
   61.6080   33.8300   47.9800 C   0  0  0  0  0  0  0  0  0  0  0  0
   62.2510   33.6510   46.7540 C   0  0  0  0  0  0  0  0  0  0  0  0
   63.5890   33.2500   46.7350 C   0  0  0  0  0  0  0  0  0  0  0  0
   64.2550   33.0370   47.9020 N   0  0  0  0  0  0  0  0  0  0  0  0
   63.6470   33.2040   49.1090 C   0  0  0  0  0  0  0  0  0  0  0  0
   59.3390   33.1190   49.9900 C   0  0  0  0  0  0  0  0  0  0  0  0
   58.4820   31.8810   49.7160 C   0  0  0  0  0  0  0  0  0  0  0  0
   58.0330   32.1930   46.2230 C   0  0  0  0  0  0  0  0  0  0  0  0
   60.0730   35.6851   46.9689 H   0  0  0  0  0  0  0  0  0  0  0  0
   60.3912   34.8169   45.4288 H   0  0  0  0  0  0  0  0  0  0  0  0
   59.3898   36.3081   45.4288 H   0  0  0  0  0  0  0  0  0  0  0  0
   58.2713   34.3632   43.5897 H   0  0  0  0  0  0  0  0  0  0  0  0
   57.7455   32.2740   42.3395 H   0  0  0  0  0  0  0  0  0  0  0  0
   57.4102   30.1296   43.5657 H   0  0  0  0  0  0  0  0  0  0  0  0
   58.6993   28.1769   44.4257 H   0  0  0  0  0  0  0  0  0  0  0  0
   60.4609   26.4759   44.8910 H   0  0  0  0  0  0  0  0  0  0  0  0
   61.3437   26.1899   47.2061 H   0  0  0  0  0  0  0  0  0  0  0  0
   60.4921   27.6242   49.0579 H   0  0  0  0  0  0  0  0  0  0  0  0
   57.5028   29.6603   48.8607 H   0  0  0  0  0  0  0  0  0  0  0  0
   58.9012   29.1436   49.8758 H   0  0  0  0  0  0  0  0  0  0  0  0
   61.0269   29.9100   48.8332 H   0  0  0  0  0  0  0  0  0  0  0  0
   61.0845   31.6358   48.2587 H   0  0  0  0  0  0  0  0  0  0  0  0
   60.6860   30.6981   51.1358 H   0  0  0  0  0  0  0  0  0  0  0  0
   62.1833   31.4353   50.4127 H   0  0  0  0  0  0  0  0  0  0  0  0
   61.1443   34.7936   50.5215 H   0  0  0  0  0  0  0  0  0  0  0  0
   62.3668   33.7209   51.3038 H   0  0  0  0  0  0  0  0  0  0  0  0
   60.5550   34.1469   48.0076 H   0  0  0  0  0  0  0  0  0  0  0  0
   61.7095   33.8240   45.8123 H   0  0  0  0  0  0  0  0  0  0  0  0
   64.1052   33.1061   45.7744 H   0  0  0  0  0  0  0  0  0  0  0  0
   65.2550   32.7380   47.8720 H   0  0  0  0  0  0  0  0  0  0  0  0
   64.2111   33.0230   50.0358 H   0  0  0  0  0  0  0  0  0  0  0  0
   58.7603   33.8265   50.6020 H   0  0  0  0  0  0  0  0  0  0  0  0
   59.6130   33.5706   49.0251 H   0  0  0  0  0  0  0  0  0  0  0  0
   58.2693   31.3730   50.6682 H   0  0  0  0  0  0  0  0  0  0  0  0
   57.5475   32.2022   49.2328 H   0  0  0  0  0  0  0  0  0  0  0  0
   58.0985   32.1736   47.3209 H   0  0  0  0  0  0  0  0  0  0  0  0
  1  2  1  0
  2  3  1  0
  3  4  2  0
  4  5  1  0
  5  6  2  0
  6  7  1  0
  7  8  1  0
  8  9  1  0
  9 10  2  0
 10 11  1  0
 11 12  2  0
 12 13  1  0
 13 14  2  0
 14 15  1  0
 15 16  1  0
 16 17  1  0
 17 18  1  0
 18 19  1  0
 19 20  1  0
 20 21  1  0
 21 22  2  0
 22 23  1  0
 23 24  2  0
 24 25  1  0
 25 26  2  0
 19 27  1  0
 27 28  1  0
  7 29  2  0
 29  3  1  0
 14  9  1  0
 28 16  1  0
 26 21  1  0
  1 30  1  0
  1 31  1  0
  1 32  1  0
  4 33  1  0
  5 34  1  0
  6 35  1  0
 10 36  1  0
 11 37  1  0
 12 38  1  0
 13 39  1  0
 15 40  1  0
 15 41  1  0
 17 42  1  0
 17 43  1  0
 18 44  1  0
 18 45  1  0
 20 46  1  0
 20 47  1  0
 22 48  1  0
 23 49  1  0
 24 50  1  0
 25 51  1  0
 26 52  1  0
 27 53  1  0
 27 54  1  0
 28 55  1  0
 28 56  1  0
 29 57  1  0
M  CHG  1  25   1
M  END
>  <UniqueID>  (19) 
17

>  <SMILES>  (19) 
COc1cccc(Oc2ccccc2CN2CCN(Cc3ccc[nH+]c3)CC2)c1

>  <Energy>  (19) 
78.58343456445068

>  <Genealogy>  (19) 
COc1cccc(Oc2ccccc2CN2CCN(Cc3ccc[nH+]c3)CC2)c1 (protonated)
COc1cccc(Oc2ccccc2CN2CCN(Cc3ccc[nH+]c3)CC2)c1 (3D coordinates assigned)
COc1cccc(Oc2ccccc2CN2CCN(Cc3ccc[nH+]c3)CC2)c1 (nonaromatic ring conformer: 78.58343456445068 kcal/mol)

>  <smiles>  (19) 
COc1cccc(Oc2ccccc2CN2CCN(Cc3cccnc3)CC2)c1

>  <score_type>  (19) 
oracle

>  <origin>  (19) 
adg

>  <m_score__min__energy>  (19) 
-7.5199999999999996

>  <m_primary>  (19) 
energy

$$$$
19:0
     RDKit          3D

 29 30  0  0  0  0  0  0  0  0999 V2000
   57.5830   24.8850   46.4890 C   0  0  0  0  0  0  0  0  0  0  0  0
   57.7620   26.2300   45.8460 C   0  0  0  0  0  0  0  0  0  0  0  0
   59.0420   26.6810   45.4920 C   0  0  0  0  0  0  0  0  0  0  0  0
   59.2120   27.9440   44.9190 C   0  0  0  0  0  0  0  0  0  0  0  0
   58.1070   28.7750   44.6870 C   0  0  0  0  0  0  0  0  0  0  0  0
   58.3140   30.0790   44.1170 N   0  0  0  0  0  0  0  0  0  0  0  0
   57.4110   31.1830   44.2830 C   0  0  0  0  0  0  0  0  0  0  0  0
   56.2620   31.0070   44.7710 O   0  0  0  0  0  0  0  0  0  0  0  0
   57.7930   32.5430   43.7840 C   0  0  0  0  0  0  0  0  0  0  0  0
   58.3710   33.3530   44.8990 C   0  0  0  0  0  0  0  0  0  0  0  0
   59.3550   34.3260   44.7730 C   0  0  0  0  0  0  0  0  0  0  0  0
   59.6450   34.9740   45.9790 C   0  0  0  0  0  0  0  0  0  0  0  0
   58.8840   34.5240   47.0510 C   0  0  0  0  0  0  0  0  0  0  0  0
   57.8470   33.3220   46.4960 S   0  0  0  0  0  0  0  0  0  0  0  0
   56.8290   28.3390   45.0760 C   0  0  0  0  0  0  0  0  0  0  0  0
   56.6560   27.0750   45.6510 C   0  0  0  0  0  0  0  0  0  0  0  0
   55.4140   26.6800   46.0260 F   0  0  0  0  0  0  0  0  0  0  0  0
   57.5979   24.9968   47.5832 H   0  0  0  0  0  0  0  0  0  0  0  0
   56.6197   24.4549   46.1774 H   0  0  0  0  0  0  0  0  0  0  0  0
   58.4003   24.2179   46.1774 H   0  0  0  0  0  0  0  0  0  0  0  0
   59.9166   26.0371   45.6664 H   0  0  0  0  0  0  0  0  0  0  0  0
   60.2207   28.2889   44.6478 H   0  0  0  0  0  0  0  0  0  0  0  0
   59.1230   30.2070   43.4680 H   0  0  0  0  0  0  0  0  0  0  0  0
   58.5399   32.4406   42.9830 H   0  0  0  0  0  0  0  0  0  0  0  0
   56.8972   33.0500   43.3962 H   0  0  0  0  0  0  0  0  0  0  0  0
   59.8550   34.5628   43.8223 H   0  0  0  0  0  0  0  0  0  0  0  0
   60.4039   35.7651   46.0698 H   0  0  0  0  0  0  0  0  0  0  0  0
   58.9488   34.8912   48.0859 H   0  0  0  0  0  0  0  0  0  0  0  0
   55.9590   28.9955   44.9276 H   0  0  0  0  0  0  0  0  0  0  0  0
  1  2  1  0
  2  3  2  0
  3  4  1  0
  4  5  2  0
  5  6  1  0
  6  7  1  0
  7  8  2  0
  7  9  1  0
  9 10  1  0
 10 11  2  0
 11 12  1  0
 12 13  2  0
 13 14  1  0
  5 15  1  0
 15 16  2  0
 16 17  1  0
 16  2  1  0
 14 10  1  0
  1 18  1  0
  1 19  1  0
  1 20  1  0
  3 21  1  0
  4 22  1  0
  6 23  1  0
  9 24  1  0
  9 25  1  0
 11 26  1  0
 12 27  1  0
 13 28  1  0
 15 29  1  0
M  END
>  <UniqueID>  (20) 
18

>  <SMILES>  (20) 
Cc1ccc(NC(=O)Cc2cccs2)cc1F

>  <Energy>  (20) 
55.168130253651675

>  <Genealogy>  (20) 
Cc1ccc(NC(=O)Cc2cccs2)cc1F (3D coordinates assigned)
Cc1ccc(NC(=O)Cc2cccs2)cc1F (optimized conformer: 55.168130253651675 kcal/mol)

>  <smiles>  (20) 
Cc1ccc(NC(=O)Cc2cccs2)cc1F

>  <score_type>  (20) 
oracle

>  <origin>  (20) 
adg

>  <m_score__min__energy>  (20) 
-7.1500000000000004

>  <m_primary>  (20) 
energy

$$$$
20:0
     RDKit          3D

 37 39  0  0  0  0  0  0  0  0999 V2000
   59.6460   34.1720   48.2220 C   0  0  0  0  0  0  0  0  0  0  0  0
   59.4260   34.9550   46.9340 C   0  0  0  0  0  0  0  0  0  0  0  0
   58.6920   34.1220   45.9330 C   0  0  0  0  0  0  0  0  0  0  0  0
   58.8530   32.7980   45.7780 N   0  0  0  0  0  0  0  0  0  0  0  0
   58.0180   32.5170   44.7620 C   0  0  0  0  0  0  0  0  0  0  0  0
   57.8730   31.1560   44.1450 C   0  0  2  0  0  0  0  0  0  0  0  0
   57.2610   31.2450   42.7460 C   0  0  0  0  0  0  0  0  0  0  0  0
   56.2880   30.0920   42.6780 C   0  0  0  0  0  0  0  0  0  0  0  0
   55.8660   29.8780   44.1180 C   0  0  0  0  0  0  0  0  0  0  0  0
   56.9780   30.3230   44.9730 N   0  0  0  0  0  0  0  0  0  0  0  0
   57.6710   29.2170   45.6740 C   0  0  0  0  0  0  0  0  0  0  0  0
   58.8180   29.6680   46.5410 C   0  0  0  0  0  0  0  0  0  0  0  0
   59.9360   30.2490   46.0590 N   0  0  0  0  0  0  0  0  0  0  0  0
   60.6700   30.4740   47.1060 O   0  0  0  0  0  0  0  0  0  0  0  0
   60.0440   30.0600   48.1790 C   0  0  0  0  0  0  0  0  0  0  0  0
   60.5930   30.1550   49.5610 C   0  0  0  0  0  0  0  0  0  0  0  0
   58.8420   29.5310   47.8830 N   0  0  0  0  0  0  0  0  0  0  0  0
   57.3950   33.6250   44.3070 N   0  0  0  0  0  0  0  0  0  0  0  0
   57.8350   34.5930   45.0580 O   0  0  0  0  0  0  0  0  0  0  0  0
   59.4618   34.8277   49.0858 H   0  0  0  0  0  0  0  0  0  0  0  0
   58.9529   33.3185   48.2552 H   0  0  0  0  0  0  0  0  0  0  0  0
   60.6822   33.8044   48.2552 H   0  0  0  0  0  0  0  0  0  0  0  0
   58.8372   35.8574   47.1552 H   0  0  0  0  0  0  0  0  0  0  0  0
   60.4045   35.2334   46.5157 H   0  0  0  0  0  0  0  0  0  0  0  0
   59.4830   32.1510   46.3040 H   0  0  0  0  0  0  0  0  0  0  0  0
   58.8780   30.7134   44.0819 H   0  0  0  0  0  0  0  0  0  0  0  0
   56.7371   32.2029   42.6122 H   0  0  0  0  0  0  0  0  0  0  0  0
   58.0233   31.1930   41.9546 H   0  0  0  0  0  0  0  0  0  0  0  0
   55.4213   30.3491   42.0513 H   0  0  0  0  0  0  0  0  0  0  0  0
   56.7323   29.1909   42.2302 H   0  0  0  0  0  0  0  0  0  0  0  0
   54.9638   30.4680   44.3371 H   0  0  0  0  0  0  0  0  0  0  0  0
   55.6347   28.8184   44.3017 H   0  0  0  0  0  0  0  0  0  0  0  0
   56.9392   28.6976   46.3102 H   0  0  0  0  0  0  0  0  0  0  0  0
   58.0950   28.5628   44.8980 H   0  0  0  0  0  0  0  0  0  0  0  0
   59.7803   30.0144   50.2888 H   0  0  0  0  0  0  0  0  0  0  0  0
   61.3551   29.3754   49.7072 H   0  0  0  0  0  0  0  0  0  0  0  0
   61.0488   31.1454   49.7072 H   0  0  0  0  0  0  0  0  0  0  0  0
  1  2  1  0
  2  3  1  0
  3  4  2  0
  4  5  1  0
  5  6  1  0
  6  7  1  0
  7  8  1  0
  8  9  1  0
  9 10  1  0
 10 11  1  0
 11 12  1  0
 12 13  2  0
 13 14  1  0
 14 15  1  0
 15 16  1  0
 15 17  2  0
  5 18  2  0
 18 19  1  0
 19  3  1  0
 10  6  1  0
 17 12  1  0
  1 20  1  0
  1 21  1  0
  1 22  1  0
  2 23  1  0
  2 24  1  0
  4 25  1  0
  6 26  1  6
  7 27  1  0
  7 28  1  0
  8 29  1  0
  8 30  1  0
  9 31  1  0
  9 32  1  0
 11 33  1  0
 11 34  1  0
 16 35  1  0
 16 36  1  0
 16 37  1  0
M  CHG  1   4   1
M  END
>  <UniqueID>  (21) 
19

>  <SMILES>  (21) 
CCc1[nH+]c([C@@H]2CCCN2Cc2noc(C)n2)no1

>  <Energy>  (21) 
103.4869323525539

>  <Genealogy>  (21) 
CCc1[nH+]c(C2CCCN2Cc2noc(C)n2)no1 (protonated)
CCc1[nH+]c([C@@H]2CCCN2Cc2noc(C)n2)no1 (chirality)
CCc1[nH+]c([C@@H]2CCCN2Cc2noc(C)n2)no1 (3D coordinates assigned)
CCc1[nH+]c([C@@H]2CCCN2Cc2noc(C)n2)no1 (nonaromatic ring conformer: 103.4869323525539 kcal/mol)

>  <smiles>  (21) 
CCc1nc(C2CCCN2Cc2noc(C)n2)no1

>  <score_type>  (21) 
oracle

>  <origin>  (21) 
adg

>  <m_score__min__energy>  (21) 
-4.9400000000000004

>  <m_primary>  (21) 
energy

$$$$
21:0
     RDKit          3D

 31 33  0  0  0  0  0  0  0  0999 V2000
   56.5150   23.8310   43.0650 C   0  0  0  0  0  0  0  0  0  0  0  0
   57.2460   25.0180   43.5140 N   0  0  0  0  0  0  0  0  0  0  0  0
   57.5350   24.9390   44.9530 C   0  0  0  0  0  0  0  0  0  0  0  0
   57.8620   26.2970   45.4960 C   0  0  0  0  0  0  0  0  0  0  0  0
   58.1640   26.5880   46.8230 C   0  0  0  0  0  0  0  0  0  0  0  0
   58.3530   27.9540   47.0600 C   0  0  0  0  0  0  0  0  0  0  0  0
   58.1830   28.7300   45.9170 C   0  0  0  0  0  0  0  0  0  0  0  0
   58.2990   30.1570   45.8420 N   0  0  0  0  0  0  0  0  0  0  0  0
   59.3120   30.9100   46.3410 C   0  0  0  0  0  0  0  0  0  0  0  0
   59.0230   32.2210   46.0460 C   0  0  0  0  0  0  0  0  0  0  0  0
   59.7000   33.4080   46.3120 C   0  0  0  0  0  0  0  0  0  0  0  0
   59.1120   34.6050   45.8610 C   0  0  0  0  0  0  0  0  0  0  0  0
   57.8800   34.5810   45.1650 C   0  0  0  0  0  0  0  0  0  0  0  0
   57.2240   33.3600   44.9160 C   0  0  0  0  0  0  0  0  0  0  0  0
   57.8320   32.1950   45.3750 C   0  0  0  0  0  0  0  0  0  0  0  0
   57.3920   30.9310   45.2520 N   0  0  0  0  0  0  0  0  0  0  0  0
   57.7970   27.7320   44.6190 S   0  0  0  0  0  0  0  0  0  0  0  0
   56.1653   23.2631   43.9397 H   0  0  0  0  0  0  0  0  0  0  0  0
   55.6506   24.1402   42.4590 H   0  0  0  0  0  0  0  0  0  0  0  0
   57.1801   23.1982   42.4590 H   0  0  0  0  0  0  0  0  0  0  0  0
   58.1430   25.0830   42.9760 H   0  0  0  0  0  0  0  0  0  0  0  0
   56.6630   25.8660   43.3170 H   0  0  0  0  0  0  0  0  0  0  0  0
   56.6541   24.5412   45.4782 H   0  0  0  0  0  0  0  0  0  0  0  0
   58.3989   24.2757   45.1073 H   0  0  0  0  0  0  0  0  0  0  0  0
   58.2459   25.8209   47.6071 H   0  0  0  0  0  0  0  0  0  0  0  0
   58.6089   28.3706   48.0454 H   0  0  0  0  0  0  0  0  0  0  0  0
   60.1971   30.5408   46.8798 H   0  0  0  0  0  0  0  0  0  0  0  0
   60.6574   33.4105   46.8537 H   0  0  0  0  0  0  0  0  0  0  0  0
   59.6135   35.5654   46.0509 H   0  0  0  0  0  0  0  0  0  0  0  0
   57.4316   35.5229   44.8160 H   0  0  0  0  0  0  0  0  0  0  0  0
   56.2651   33.3280   44.3779 H   0  0  0  0  0  0  0  0  0  0  0  0
  1  2  1  0
  2  3  1  0
  3  4  1  0
  4  5  2  0
  5  6  1  0
  6  7  2  0
  7  8  1  0
  8  9  1  0
  9 10  2  0
 10 11  1  0
 11 12  2  0
 12 13  1  0
 13 14  2  0
 14 15  1  0
 15 16  2  0
  7 17  1  0
 17  4  1  0
 16  8  1  0
 15 10  1  0
  1 18  1  0
  1 19  1  0
  1 20  1  0
  2 21  1  0
  2 22  1  0
  3 23  1  0
  3 24  1  0
  5 25  1  0
  6 26  1  0
  9 27  1  0
 11 28  1  0
 12 29  1  0
 13 30  1  0
 14 31  1  0
M  CHG  1   2   1
M  END
>  <UniqueID>  (22) 
20

>  <SMILES>  (22) 
C[NH2+]Cc1ccc(-n2cc3ccccc3n2)s1

>  <Energy>  (22) 
95.28661611451086

>  <Genealogy>  (22) 
C[NH2+]Cc1ccc(-n2cc3ccccc3n2)s1 (protonated)
C[NH2+]Cc1ccc(-n2cc3ccccc3n2)s1 (3D coordinates assigned)
C[NH2+]Cc1ccc(-n2cc3ccccc3n2)s1 (optimized conformer: 95.28661611451086 kcal/mol)

>  <smiles>  (22) 
CNCc1ccc(-n2cc3ccccc3n2)s1

>  <score_type>  (22) 
oracle

>  <origin>  (22) 
adg

>  <m_score__min__energy>  (22) 
-4.9000000000000004

>  <m_primary>  (22) 
energy

$$$$
22:0
     RDKit          3D

 46 48  0  0  0  0  0  0  0  0999 V2000
   57.0180   34.5570   44.8630 C   0  0  0  0  0  0  0  0  0  0  0  0
   57.1720   33.8130   46.1850 C   0  0  0  0  0  0  0  0  0  0  0  0
   58.6120   33.4580   46.4280 C   0  0  0  0  0  0  0  0  0  0  0  0
   59.4750   34.2710   47.0730 N   0  0  0  0  0  0  0  0  0  0  0  0
   60.5940   33.5910   47.2670 N   0  0  0  0  0  0  0  0  0  0  0  0
   61.7620   34.1040   47.9960 C   0  0  0  0  0  0  0  0  0  0  0  0
   63.0840   33.5350   47.4130 C   0  0  0  0  0  0  0  0  0  0  0  0
   63.8760   32.6840   48.4140 C   0  0  0  0  0  0  0  0  0  0  0  0
   64.0370   33.4040   49.6880 N   0  0  0  0  0  0  0  0  0  0  0  0
   65.2630   33.3290   50.4470 C   0  0  0  0  0  0  0  0  0  0  0  0
   66.3350   32.3310   50.1230 C   0  0  0  0  0  0  0  0  0  0  0  0
   65.4560   34.1280   51.4050 O   0  0  0  0  0  0  0  0  0  0  0  0
   62.8980   34.1420   50.2590 C   0  0  0  0  0  0  0  0  0  0  0  0
   61.5970   33.8480   49.5060 C   0  0  0  0  0  0  0  0  0  0  0  0
   60.3960   32.3570   46.7570 C   0  0  0  0  0  0  0  0  0  0  0  0
   61.2470   31.4290   46.7870 O   0  0  0  0  0  0  0  0  0  0  0  0
   59.1670   32.2390   46.2150 N   0  0  0  0  0  0  0  0  0  0  0  0
   58.5720   31.0630   45.6440 C   0  0  0  0  0  0  0  0  0  0  0  0
   57.8800   31.1440   44.4250 C   0  0  0  0  0  0  0  0  0  0  0  0
   57.2960   30.0020   43.8690 C   0  0  0  0  0  0  0  0  0  0  0  0
   57.3930   28.7740   44.5310 C   0  0  0  0  0  0  0  0  0  0  0  0
   58.0690   28.6890   45.7510 C   0  0  0  0  0  0  0  0  0  0  0  0
   58.6530   29.8300   46.3090 C   0  0  0  0  0  0  0  0  0  0  0  0
   56.7987   35.6164   45.0619 H   0  0  0  0  0  0  0  0  0  0  0  0
   57.9516   34.4777   44.2867 H   0  0  0  0  0  0  0  0  0  0  0  0
   56.1926   34.1136   44.2867 H   0  0  0  0  0  0  0  0  0  0  0  0
   56.8146   34.4541   47.0043 H   0  0  0  0  0  0  0  0  0  0  0  0
   56.5810   32.8863   46.1411 H   0  0  0  0  0  0  0  0  0  0  0  0
   59.2910   35.2430   47.4090 H   0  0  0  0  0  0  0  0  0  0  0  0
   61.8247   35.1940   47.8617 H   0  0  0  0  0  0  0  0  0  0  0  0
   62.8400   32.9104   46.5410 H   0  0  0  0  0  0  0  0  0  0  0  0
   63.7168   34.3941   47.1457 H   0  0  0  0  0  0  0  0  0  0  0  0
   63.3365   31.7428   48.5957 H   0  0  0  0  0  0  0  0  0  0  0  0
   64.8713   32.4753   47.9947 H   0  0  0  0  0  0  0  0  0  0  0  0
   66.7610   31.9344   51.0564 H   0  0  0  0  0  0  0  0  0  0  0  0
   65.9031   31.5060   49.5375 H   0  0  0  0  0  0  0  0  0  0  0  0
   67.1270   32.8207   49.5375 H   0  0  0  0  0  0  0  0  0  0  0  0
   62.7746   33.8481   51.3118 H   0  0  0  0  0  0  0  0  0  0  0  0
   63.1086   35.2181   50.1720 H   0  0  0  0  0  0  0  0  0  0  0  0
   61.3202   32.7952   49.6640 H   0  0  0  0  0  0  0  0  0  0  0  0
   60.8116   34.5154   49.8904 H   0  0  0  0  0  0  0  0  0  0  0  0
   57.7970   32.1100   43.9054 H   0  0  0  0  0  0  0  0  0  0  0  0
   56.7601   30.0694   42.9107 H   0  0  0  0  0  0  0  0  0  0  0  0
   56.9370   27.8747   44.0912 H   0  0  0  0  0  0  0  0  0  0  0  0
   58.1417   27.7234   46.2728 H   0  0  0  0  0  0  0  0  0  0  0  0
   59.1781   29.7610   47.2731 H   0  0  0  0  0  0  0  0  0  0  0  0
  1  2  1  0
  2  3  1  0
  3  4  2  0
  4  5  1  0
  5  6  1  0
  6  7  1  0
  7  8  1  0
  8  9  1  0
  9 10  1  0
 10 11  1  0
 10 12  2  0
  9 13  1  0
 13 14  1  0
  5 15  1  0
 15 16  2  0
 15 17  1  0
 17 18  1  0
 18 19  2  0
 19 20  1  0
 20 21  2  0
 21 22  1  0
 22 23  2  0
 17  3  1  0
 23 18  1  0
 14  6  1  0
  1 24  1  0
  1 25  1  0
  1 26  1  0
  2 27  1  0
  2 28  1  0
  4 29  1  0
  6 30  1  0
  7 31  1  0
  7 32  1  0
  8 33  1  0
  8 34  1  0
 11 35  1  0
 11 36  1  0
 11 37  1  0
 13 38  1  0
 13 39  1  0
 14 40  1  0
 14 41  1  0
 19 42  1  0
 20 43  1  0
 21 44  1  0
 22 45  1  0
 23 46  1  0
M  CHG  1   4   1
M  END
>  <UniqueID>  (23) 
21

>  <SMILES>  (23) 
CCc1[nH+]n(C2CCN(C(C)=O)CC2)c(=O)n1-c1ccccc1

>  <Energy>  (23) 
88.87523830063022

>  <Genealogy>  (23) 
CCc1[nH+]n(C2CCN(C(C)=O)CC2)c(=O)n1-c1ccccc1 (protonated)
CCc1[nH+]n(C2CCN(C(C)=O)CC2)c(=O)n1-c1ccccc1 (3D coordinates assigned)
CCc1[nH+]n(C2CCN(C(C)=O)CC2)c(=O)n1-c1ccccc1 (nonaromatic ring conformer: 88.87523830063022 kcal/mol)

>  <smiles>  (23) 
CCc1nn(C2CCN(C(C)=O)CC2)c(=O)n1-c1ccccc1

>  <score_type>  (23) 
oracle

>  <origin>  (23) 
adg

>  <m_score__min__energy>  (23) 
-6.4000000000000004

>  <m_primary>  (23) 
energy

$$$$
23:0
     RDKit          3D

 46 49  0  0  0  0  0  0  0  0999 V2000
   58.5060   31.3140   48.3410 O   0  0  0  0  0  0  0  0  0  0  0  0
   58.8110   32.5080   48.0680 C   0  0  0  0  0  0  0  0  0  0  0  0
   58.6830   32.9900   46.7600 C   0  0  0  0  0  0  0  0  0  0  0  0
   58.1970   32.3330   45.6130 C   0  0  0  0  0  0  0  0  0  0  0  0
   58.2770   33.1370   44.4720 C   0  0  0  0  0  0  0  0  0  0  0  0
   58.8670   34.6680   44.8770 S   0  0  0  0  0  0  0  0  0  0  0  0
   59.0720   34.2890   46.5020 C   0  0  0  0  0  0  0  0  0  0  0  0
   59.5480   35.1060   47.4680 N   0  0  0  0  0  0  0  0  0  0  0  0
   59.6460   34.6390   48.7430 C   0  0  0  0  0  0  0  0  0  0  0  0
   59.2770   33.3520   49.0520 N   0  0  0  0  0  0  0  0  0  0  0  0
   59.3520   32.9010   50.4520 C   0  0  0  0  0  0  0  0  0  0  0  0
   60.6800   32.1770   50.7490 C   0  0  0  0  0  0  0  0  0  0  0  0
   60.7270   30.7980   50.2260 N   0  0  0  0  0  0  0  0  0  0  0  0
   61.9910   30.4700   49.5510 C   0  0  0  0  0  0  0  0  0  0  0  0
   62.4870   31.6290   48.7270 C   0  0  0  0  0  0  0  0  0  0  0  0
   61.8550   31.9530   47.5150 C   0  0  0  0  0  0  0  0  0  0  0  0
   62.3210   33.0220   46.7430 C   0  0  0  0  0  0  0  0  0  0  0  0
   63.4180   33.7730   47.1740 C   0  0  0  0  0  0  0  0  0  0  0  0
   64.0520   33.4560   48.3780 C   0  0  0  0  0  0  0  0  0  0  0  0
   63.5900   32.3890   49.1540 C   0  0  0  0  0  0  0  0  0  0  0  0
   57.7900   32.7270   43.1170 C   0  0  0  0  0  0  0  0  0  0  0  0
   57.6810   31.1990   43.0180 C   0  0  0  0  0  0  0  0  0  0  0  0
   56.9500   30.6180   44.2400 C   0  0  0  0  0  0  0  0  0  0  0  0
   57.7140   30.9050   45.5460 C   0  0  0  0  0  0  0  0  0  0  0  0
   59.8310   36.0870   47.2430 H   0  0  0  0  0  0  0  0  0  0  0  0
   60.0254   35.3004   49.5359 H   0  0  0  0  0  0  0  0  0  0  0  0
   59.2678   33.7761   51.1131 H   0  0  0  0  0  0  0  0  0  0  0  0
   58.5292   32.1925   50.6279 H   0  0  0  0  0  0  0  0  0  0  0  0
   61.4995   32.7510   50.2920 H   0  0  0  0  0  0  0  0  0  0  0  0
   60.7762   32.1122   51.8429 H   0  0  0  0  0  0  0  0  0  0  0  0
   59.9360   30.6370   49.5590 H   0  0  0  0  0  0  0  0  0  0  0  0
   62.7477   30.2192   50.3090 H   0  0  0  0  0  0  0  0  0  0  0  0
   61.8154   29.6163   48.8799 H   0  0  0  0  0  0  0  0  0  0  0  0
   60.9913   31.3643   47.1722 H   0  0  0  0  0  0  0  0  0  0  0  0
   61.8231   33.2722   45.7946 H   0  0  0  0  0  0  0  0  0  0  0  0
   63.7823   34.6137   46.5653 H   0  0  0  0  0  0  0  0  0  0  0  0
   64.9161   34.0470   48.7158 H   0  0  0  0  0  0  0  0  0  0  0  0
   64.0911   32.1432   50.1019 H   0  0  0  0  0  0  0  0  0  0  0  0
   56.7997   33.1717   42.9396 H   0  0  0  0  0  0  0  0  0  0  0  0
   58.5080   33.0796   42.3619 H   0  0  0  0  0  0  0  0  0  0  0  0
   57.1233   30.9365   42.1069 H   0  0  0  0  0  0  0  0  0  0  0  0
   58.6962   30.7768   42.9837 H   0  0  0  0  0  0  0  0  0  0  0  0
   55.9490   31.0694   44.3053 H   0  0  0  0  0  0  0  0  0  0  0  0
   56.8813   29.5274   44.1138 H   0  0  0  0  0  0  0  0  0  0  0  0
   57.0450   30.7155   46.3984 H   0  0  0  0  0  0  0  0  0  0  0  0
   58.5939   30.2456   45.5783 H   0  0  0  0  0  0  0  0  0  0  0  0
  1  2  2  0
  2  3  1  0
  3  4  1  0
  4  5  2  0
  5  6  1  0
  6  7  1  0
  7  8  1  0
  8  9  2  0
  9 10  1  0
 10 11  1  0
 11 12  1  0
 12 13  1  0
 13 14  1  0
 14 15  1  0
 15 16  2  0
 16 17  1  0
 17 18  2  0
 18 19  1  0
 19 20  2  0
  5 21  1  0
 21 22  1  0
 22 23  1  0
 23 24  1  0
 10  2  1  0
 20 15  1  0
  7  3  2  0
 24  4  1  0
  8 25  1  0
  9 26  1  0
 11 27  1  0
 11 28  1  0
 12 29  1  0
 12 30  1  0
 13 31  1  0
 14 32  1  0
 14 33  1  0
 16 34  1  0
 17 35  1  0
 18 36  1  0
 19 37  1  0
 20 38  1  0
 21 39  1  0
 21 40  1  0
 22 41  1  0
 22 42  1  0
 23 43  1  0
 23 44  1  0
 24 45  1  0
 24 46  1  0
M  CHG  1   8   1
M  END
>  <UniqueID>  (24) 
22

>  <SMILES>  (24) 
O=c1c2c3c(sc2[nH+]cn1CCNCc1ccccc1)CCCC3

>  <Energy>  (24) 
81.65487720036211

>  <Genealogy>  (24) 
O=c1c2c3c(sc2[nH+]cn1CCNCc1ccccc1)CCCC3 (protonated)
O=c1c2c3c(sc2[nH+]cn1CCNCc1ccccc1)CCCC3 (3D coordinates assigned)
O=c1c2c3c(sc2[nH+]cn1CCNCc1ccccc1)CCCC3 (nonaromatic ring conformer: 81.65487720036211 kcal/mol)

>  <smiles>  (24) 
O=c1c2c3c(sc2ncn1CCNCc1ccccc1)CCCC3

>  <score_type>  (24) 
oracle

>  <origin>  (24) 
adg

>  <m_score__min__energy>  (24) 
-5.96

>  <m_primary>  (24) 
energy

$$$$
24:0
     RDKit          3D

 32 32  0  0  0  0  0  0  0  0999 V2000
   61.1790   33.8330   46.4420 C   0  0  0  0  0  0  0  0  0  0  0  0
   60.0500   34.8040   46.0940 C   0  0  0  0  0  0  0  0  0  0  0  0
   58.7910   34.5800   46.9450 C   0  0  0  0  0  0  0  0  0  0  0  0
   57.7120   33.7900   46.2010 C   0  0  0  0  0  0  0  0  0  0  0  0
   58.1440   32.4090   46.0360 N   0  0  0  0  0  0  0  0  0  0  0  0
   57.4130   31.5690   45.4220 C   0  0  0  0  0  0  0  0  0  0  0  0
   56.6670   30.7410   44.8100 N   0  0  0  0  0  0  0  0  0  0  0  0
   56.9910   30.1980   43.5240 C   0  0  0  0  0  0  0  0  0  0  0  0
   57.0230   31.2160   42.2390 S   0  0  0  0  0  0  0  0  0  0  0  0
   57.3600   28.8110   43.3540 N   0  0  0  0  0  0  0  0  0  0  0  0
   58.0780   28.3160   44.5060 C   0  0  0  0  0  0  0  0  0  0  0  0
   57.4310   27.5160   45.4660 C   0  0  0  0  0  0  0  0  0  0  0  0
   58.1320   27.0390   46.5780 C   0  0  0  0  0  0  0  0  0  0  0  0
   59.4890   27.3370   46.7340 C   0  0  0  0  0  0  0  0  0  0  0  0
   60.3640   26.7470   48.1340 Cl  0  0  0  0  0  0  0  0  0  0  0  0
   60.1490   28.1040   45.7700 C   0  0  0  0  0  0  0  0  0  0  0  0
   59.4510   28.5870   44.6590 C   0  0  0  0  0  0  0  0  0  0  0  0
   61.2708   33.7541   47.5353 H   0  0  0  0  0  0  0  0  0  0  0  0
   60.9535   32.8423   46.0205 H   0  0  0  0  0  0  0  0  0  0  0  0
   62.1248   34.2042   46.0205 H   0  0  0  0  0  0  0  0  0  0  0  0
   60.4069   35.8316   46.2575 H   0  0  0  0  0  0  0  0  0  0  0  0
   59.7754   34.6307   45.0430 H   0  0  0  0  0  0  0  0  0  0  0  0
   59.0726   34.0244   47.8516 H   0  0  0  0  0  0  0  0  0  0  0  0
   58.3729   35.5678   47.1887 H   0  0  0  0  0  0  0  0  0  0  0  0
   56.7764   33.8143   46.7790 H   0  0  0  0  0  0  0  0  0  0  0  0
   57.5455   34.2414   45.2118 H   0  0  0  0  0  0  0  0  0  0  0  0
   56.5080   28.2180   43.2180 H   0  0  0  0  0  0  0  0  0  0  0  0
   57.9370   28.7300   42.4850 H   0  0  0  0  0  0  0  0  0  0  0  0
   56.3675   27.2644   45.3410 H   0  0  0  0  0  0  0  0  0  0  0  0
   57.6144   26.4277   47.3319 H   0  0  0  0  0  0  0  0  0  0  0  0
   61.2197   28.3281   45.8856 H   0  0  0  0  0  0  0  0  0  0  0  0
   59.9782   29.1828   43.8993 H   0  0  0  0  0  0  0  0  0  0  0  0
  1  2  1  0
  2  3  1  0
  3  4  1  0
  4  5  1  0
  5  6  2  0
  6  7  2  0
  7  8  1  0
  8  9  2  0
  8 10  1  0
 10 11  1  0
 11 12  2  0
 12 13  1  0
 13 14  2  0
 14 15  1  0
 14 16  1  0
 16 17  2  0
 17 11  1  0
  1 18  1  0
  1 19  1  0
  1 20  1  0
  2 21  1  0
  2 22  1  0
  3 23  1  0
  3 24  1  0
  4 25  1  0
  4 26  1  0
 10 27  1  0
 10 28  1  0
 12 29  1  0
 13 30  1  0
 16 31  1  0
 17 32  1  0
M  CHG  1  10   1
M  END
>  <UniqueID>  (25) 
23

>  <SMILES>  (25) 
CCCCN=C=NC(=S)[NH2+]c1ccc(Cl)cc1

>  <Energy>  (25) 
19.768596528952365

>  <Genealogy>  (25) 
CCCCN=C=NC(=S)[NH2+]c1ccc(Cl)cc1 (protonated)
CCCCN=C=NC(=S)[NH2+]c1ccc(Cl)cc1 (3D coordinates assigned)
CCCCN=C=NC(=S)[NH2+]c1ccc(Cl)cc1 (optimized conformer: 19.768596528952365 kcal/mol)

>  <smiles>  (25) 
CCCCN=C=NC(=S)Nc1ccc(Cl)cc1

>  <score_type>  (25) 
oracle

>  <origin>  (25) 
adg

>  <m_score__min__energy>  (25) 
-5.1699999999999999

>  <m_primary>  (25) 
energy

$$$$
25:0
     RDKit          3D

 35 37  0  0  0  0  0  0  0  0999 V2000
   54.7900   26.7130   46.0080 O   0  0  0  0  0  0  0  0  0  0  0  0
   55.4720   25.5020   45.9520 C   0  0  0  0  0  0  0  0  0  0  0  0
   54.9500   24.3330   45.4380 C   0  0  0  0  0  0  0  0  0  0  0  0
   55.9180   23.3660   45.6320 C   0  0  0  0  0  0  0  0  0  0  0  0
   56.9740   24.0000   46.2540 C   0  0  0  0  0  0  0  0  0  0  0  0
   58.1300   23.3600   46.6840 O   0  0  0  0  0  0  0  0  0  0  0  0
   56.7250   25.3170   46.4170 N   0  0  0  0  0  0  0  0  0  0  0  0
   57.5540   26.3130   47.1050 C   0  0  0  0  0  0  0  0  0  0  0  0
   58.6150   26.9520   46.1900 C   0  0  0  0  0  0  0  0  0  0  0  0
   58.8520   28.4530   46.4370 C   0  0  0  0  0  0  0  0  0  0  0  0
   58.1400   29.3380   45.4270 C   0  0  0  0  0  0  0  0  0  0  0  0
   57.4360   28.6870   44.3960 C   0  0  0  0  0  0  0  0  0  0  0  0
   56.7190   29.4070   43.4460 C   0  0  0  0  0  0  0  0  0  0  0  0
   56.6930   30.7960   43.4910 C   0  0  0  0  0  0  0  0  0  0  0  0
   57.3960   31.4840   44.4890 C   0  0  0  0  0  0  0  0  0  0  0  0
   57.3590   32.8870   44.5160 C   0  0  0  0  0  0  0  0  0  0  0  0
   58.0500   33.5900   45.5000 C   0  0  0  0  0  0  0  0  0  0  0  0
   58.7830   32.9030   46.4640 C   0  0  0  0  0  0  0  0  0  0  0  0
   58.8300   31.5070   46.4560 C   0  0  0  0  0  0  0  0  0  0  0  0
   58.1380   30.7640   45.4710 C   0  0  0  0  0  0  0  0  0  0  0  0
   53.9641   24.1981   44.9692 H   0  0  0  0  0  0  0  0  0  0  0  0
   55.8587   22.3050   45.3479 H   0  0  0  0  0  0  0  0  0  0  0  0
   56.8987   27.1084   47.4897 H   0  0  0  0  0  0  0  0  0  0  0  0
   58.0886   25.7927   47.9134 H   0  0  0  0  0  0  0  0  0  0  0  0
   59.5670   26.4237   46.3470 H   0  0  0  0  0  0  0  0  0  0  0  0
   58.2363   26.8606   45.1613 H   0  0  0  0  0  0  0  0  0  0  0  0
   58.4869   28.7051   47.4435 H   0  0  0  0  0  0  0  0  0  0  0  0
   59.9315   28.6380   46.3351 H   0  0  0  0  0  0  0  0  0  0  0  0
   57.4533   27.5885   44.3407 H   0  0  0  0  0  0  0  0  0  0  0  0
   56.1700   28.8746   42.6554 H   0  0  0  0  0  0  0  0  0  0  0  0
   56.1181   31.3576   42.7399 H   0  0  0  0  0  0  0  0  0  0  0  0
   56.7814   33.4339   43.7562 H   0  0  0  0  0  0  0  0  0  0  0  0
   58.0166   34.6894   45.5155 H   0  0  0  0  0  0  0  0  0  0  0  0
   59.3289   33.4635   47.2372 H   0  0  0  0  0  0  0  0  0  0  0  0
   59.4124   30.9788   47.2253 H   0  0  0  0  0  0  0  0  0  0  0  0
  1  2  1  0
  2  3  2  0
  3  4  1  0
  4  5  2  0
  5  6  1  0
  5  7  1  0
  7  8  1  0
  8  9  1  0
  9 10  1  0
 10 11  1  0
 11 12  2  0
 12 13  1  0
 13 14  2  0
 14 15  1  0
 15 16  2  0
 16 17  1  0
 17 18  2  0
 18 19  1  0
 19 20  2  0
  7  2  1  0
 20 11  1  0
 20 15  1  0
  3 21  1  0
  4 22  1  0
  8 23  1  0
  8 24  1  0
  9 25  1  0
  9 26  1  0
 10 27  1  0
 10 28  1  0
 12 29  1  0
 13 30  1  0
 14 31  1  0
 16 32  1  0
 17 33  1  0
 18 34  1  0
 19 35  1  0
M  CHG  2   1  -1   6  -1
M  END
>  <UniqueID>  (26) 
24

>  <SMILES>  (26) 
[O-]c1ccc([O-])n1CCCc1cccc2ccccc12

>  <Energy>  (26) 
67.49274057084426

>  <Genealogy>  (26) 
[O-]c1ccc([O-])n1CCCc1cccc2ccccc12 (protonated)
[O-]c1ccc([O-])n1CCCc1cccc2ccccc12 (3D coordinates assigned)
[O-]c1ccc([O-])n1CCCc1cccc2ccccc12 (optimized conformer: 67.49274057084426 kcal/mol)

>  <smiles>  (26) 
Oc1ccc(O)n1CCCc1cccc2ccccc12

>  <score_type>  (26) 
oracle

>  <origin>  (26) 
adg

>  <m_score__min__energy>  (26) 
-12.67

>  <m_primary>  (26) 
energy

$$$$
26:0
     RDKit          3D

 60 62  0  0  0  0  0  0  0  0999 V2000
   57.3970   31.2070   51.6940 C   0  0  0  0  0  0  0  0  0  0  0  0
   57.7820   30.1310   50.8420 O   0  0  0  0  0  0  0  0  0  0  0  0
   58.8720   30.1700   49.9560 C   0  0  0  0  0  0  0  0  0  0  0  0
   59.1340   29.1370   49.0330 C   0  0  0  0  0  0  0  0  0  0  0  0
   60.2310   29.2220   48.1750 C   0  0  0  0  0  0  0  0  0  0  0  0
   61.0730   30.3360   48.2220 C   0  0  0  0  0  0  0  0  0  0  0  0
   60.8300   31.3700   49.1400 C   0  0  0  0  0  0  0  0  0  0  0  0
   61.7110   32.5940   49.1550 C   0  0  0  0  0  0  0  0  0  0  0  0
   60.8780   33.8770   49.0540 C   0  0  0  0  0  0  0  0  0  0  0  0
   59.7510   33.6900   48.1260 N   0  0  0  0  0  0  0  0  0  0  0  0
   59.2700   34.9660   47.5710 C   0  0  0  0  0  0  0  0  0  0  0  0
   59.7120   35.1200   46.1080 C   0  0  0  0  0  0  0  0  0  0  0  0
   59.5580   33.8290   45.2780 C   0  0  0  0  0  0  0  0  0  0  0  0
   58.4980   32.9540   45.8250 N   0  0  0  0  0  0  0  0  0  0  0  0
   59.0030   31.5740   46.0090 C   0  0  0  0  0  0  0  0  0  0  0  0
   57.8470   30.5660   46.1140 C   0  0  0  0  0  0  0  0  0  0  0  0
   57.0130   30.5370   44.8820 N   0  0  0  0  0  0  0  0  0  0  0  0
   57.3520   29.3810   44.0220 C   0  0  0  0  0  0  0  0  0  0  0  0
   57.8990   28.2380   44.8430 C   0  0  0  0  0  0  0  0  0  0  0  0
   57.0350   27.4360   45.6070 C   0  0  0  0  0  0  0  0  0  0  0  0
   57.5510   26.4110   46.4070 C   0  0  0  0  0  0  0  0  0  0  0  0
   58.9260   26.1800   46.4500 C   0  0  0  0  0  0  0  0  0  0  0  0
   59.7920   26.9760   45.6950 C   0  0  0  0  0  0  0  0  0  0  0  0
   59.2840   28.0080   44.9000 C   0  0  0  0  0  0  0  0  0  0  0  0
   57.0650   31.8090   44.1150 C   0  0  0  0  0  0  0  0  0  0  0  0
   57.2390   33.0210   45.0390 C   0  0  0  0  0  0  0  0  0  0  0  0
   59.7240   31.2810   50.0010 C   0  0  0  0  0  0  0  0  0  0  0  0
   57.5068   30.9001   52.7446 H   0  0  0  0  0  0  0  0  0  0  0  0
   58.0392   32.0782   51.4974 H   0  0  0  0  0  0  0  0  0  0  0  0
   56.3479   31.4730   51.4974 H   0  0  0  0  0  0  0  0  0  0  0  0
   58.4709   28.2604   48.9891 H   0  0  0  0  0  0  0  0  0  0  0  0
   60.4333   28.4106   47.4604 H   0  0  0  0  0  0  0  0  0  0  0  0
   61.9305   30.4032   47.5363 H   0  0  0  0  0  0  0  0  0  0  0  0
   62.2850   32.6116   50.0932 H   0  0  0  0  0  0  0  0  0  0  0  0
   62.3867   32.5479   48.2882 H   0  0  0  0  0  0  0  0  0  0  0  0
   60.4878   34.1342   50.0498 H   0  0  0  0  0  0  0  0  0  0  0  0
   61.5186   34.6874   48.6759 H   0  0  0  0  0  0  0  0  0  0  0  0
   60.0940   33.1000   47.3280 H   0  0  0  0  0  0  0  0  0  0  0  0
   58.1714   34.9909   47.6213 H   0  0  0  0  0  0  0  0  0  0  0  0
   59.6966   35.7919   48.1592 H   0  0  0  0  0  0  0  0  0  0  0  0
   59.1027   35.9082   45.6416 H   0  0  0  0  0  0  0  0  0  0  0  0
   60.7829   35.3710   46.1190 H   0  0  0  0  0  0  0  0  0  0  0  0
   59.3000   34.0984   44.2432 H   0  0  0  0  0  0  0  0  0  0  0  0
   60.5106   33.2802   45.3148 H   0  0  0  0  0  0  0  0  0  0  0  0
   59.6352   31.3061   45.1496 H   0  0  0  0  0  0  0  0  0  0  0  0
   59.5816   31.5376   46.9438 H   0  0  0  0  0  0  0  0  0  0  0  0
   58.2659   29.5628   46.2819 H   0  0  0  0  0  0  0  0  0  0  0  0
   57.2033   30.8762   46.9503 H   0  0  0  0  0  0  0  0  0  0  0  0
   56.4456   29.0453   43.4969 H   0  0  0  0  0  0  0  0  0  0  0  0
   58.1214   29.6943   43.3009 H   0  0  0  0  0  0  0  0  0  0  0  0
   55.9500   27.6144   45.5761 H   0  0  0  0  0  0  0  0  0  0  0  0
   56.8707   25.7856   47.0037 H   0  0  0  0  0  0  0  0  0  0  0  0
   59.3286   25.3716   47.0780 H   0  0  0  0  0  0  0  0  0  0  0  0
   60.8757   26.7901   45.7263 H   0  0  0  0  0  0  0  0  0  0  0  0
   59.9700   28.6411   44.3180 H   0  0  0  0  0  0  0  0  0  0  0  0
   57.9130   31.7692   43.4154 H   0  0  0  0  0  0  0  0  0  0  0  0
   56.1137   31.9231   43.5746 H   0  0  0  0  0  0  0  0  0  0  0  0
   57.2528   33.9342   44.4260 H   0  0  0  0  0  0  0  0  0  0  0  0
   56.3987   33.0266   45.7489 H   0  0  0  0  0  0  0  0  0  0  0  0
   59.5249   32.0915   50.7176 H   0  0  0  0  0  0  0  0  0  0  0  0
  1  2  1  0
  2  3  1  0
  3  4  2  0
  4  5  1  0
  5  6  2  0
  6  7  1  0
  7  8  1  0
  8  9  1  0
  9 10  1  0
 10 11  1  0
 11 12  1  0
 12 13  1  0
 13 14  1  0
 14 15  1  0
 15 16  1  0
 16 17  1  0
 17 18  1  0
 18 19  1  0
 19 20  2  0
 20 21  1  0
 21 22  2  0
 22 23  1  0
 23 24  2  0
 17 25  1  0
 25 26  1  0
  7 27  2  0
 27  3  1  0
 26 14  1  0
 24 19  1  0
  1 28  1  0
  1 29  1  0
  1 30  1  0
  4 31  1  0
  5 32  1  0
  6 33  1  0
  8 34  1  0
  8 35  1  0
  9 36  1  0
  9 37  1  0
 10 38  1  0
 11 39  1  0
 11 40  1  0
 12 41  1  0
 12 42  1  0
 13 43  1  0
 13 44  1  0
 15 45  1  0
 15 46  1  0
 16 47  1  0
 16 48  1  0
 18 49  1  0
 18 50  1  0
 20 51  1  0
 21 52  1  0
 22 53  1  0
 23 54  1  0
 24 55  1  0
 25 56  1  0
 25 57  1  0
 26 58  1  0
 26 59  1  0
 27 60  1  0
M  END
>  <UniqueID>  (27) 
25

>  <SMILES>  (27) 
COc1cccc(CCNCCCN2CCN(Cc3ccccc3)CC2)c1

>  <Energy>  (27) 
65.52316082332061

>  <Genealogy>  (27) 
COc1cccc(CCNCCCN2CCN(Cc3ccccc3)CC2)c1 (3D coordinates assigned)
COc1cccc(CCNCCCN2CCN(Cc3ccccc3)CC2)c1 (nonaromatic ring conformer: 65.52316082332061 kcal/mol)

>  <smiles>  (27) 
COc1cccc(CCNCCCN2CCN(Cc3ccccc3)CC2)c1

>  <score_type>  (27) 
oracle

>  <origin>  (27) 
adg

>  <m_score__min__energy>  (27) 
-8.4900000000000002

>  <m_primary>  (27) 
energy

$$$$
27:0
     RDKit          3D

 43 46  0  0  0  0  0  0  0  0999 V2000
   58.5280   34.2520   46.2200 C   0  0  0  0  0  0  0  0  0  0  0  0
   58.2970   34.2370   44.8440 C   0  0  0  0  0  0  0  0  0  0  0  0
   58.0010   33.0350   44.1930 C   0  0  0  0  0  0  0  0  0  0  0  0
   57.9310   31.8300   44.9190 C   0  0  0  0  0  0  0  0  0  0  0  0
   57.6190   30.5430   44.2500 C   0  0  0  0  0  0  0  0  0  0  0  0
   56.6700   30.3240   43.2600 C   0  0  0  0  0  0  0  0  0  0  0  0
   56.7600   28.9770   42.9810 C   0  0  0  0  0  0  0  0  0  0  0  0
   57.7130   28.4450   43.7680 N   0  0  0  0  0  0  0  0  0  0  0  0
   58.1020   27.0380   43.8100 C   0  0  0  0  0  0  0  0  0  0  0  0
   57.7050   26.4000   45.1570 C   0  0  2  0  0  0  0  0  0  0  0  0
   58.1800   27.2390   46.3470 C   0  0  0  0  0  0  0  0  0  0  0  0
   59.4740   26.5860   46.8180 C   0  0  0  0  0  0  0  0  0  0  0  0
   59.3990   25.1410   46.3450 C   0  0  0  0  0  0  0  0  0  0  0  0
   58.3690   25.1100   45.3170 N   0  0  0  0  0  0  0  0  0  0  0  0
   58.0080   23.8920   44.6320 C   0  0  0  0  0  0  0  0  0  0  0  0
   56.9410   23.8380   43.7220 C   0  0  0  0  0  0  0  0  0  0  0  0
   56.6390   22.6330   43.0940 C   0  0  0  0  0  0  0  0  0  0  0  0
   57.3990   21.5040   43.3850 C   0  0  0  0  0  0  0  0  0  0  0  0
   58.4210   21.5960   44.2740 N   0  0  0  0  0  0  0  0  0  0  0  0
   58.7130   22.7510   44.8760 N   0  0  0  0  0  0  0  0  0  0  0  0
   58.2370   29.3800   44.5420 N   0  0  0  0  0  0  0  0  0  0  0  0
   58.1660   31.8590   46.3070 C   0  0  0  0  0  0  0  0  0  0  0  0
   58.4630   33.0640   46.9510 C   0  0  0  0  0  0  0  0  0  0  0  0
   58.7612   35.1991   46.7286 H   0  0  0  0  0  0  0  0  0  0  0  0
   58.3479   35.1736   44.2694 H   0  0  0  0  0  0  0  0  0  0  0  0
   57.8218   33.0307   43.1077 H   0  0  0  0  0  0  0  0  0  0  0  0
   55.9959   31.0618   42.8004 H   0  0  0  0  0  0  0  0  0  0  0  0
   56.1561   28.4306   42.2416 H   0  0  0  0  0  0  0  0  0  0  0  0
   57.5980   26.5000   42.9936 H   0  0  0  0  0  0  0  0  0  0  0  0
   59.1940   26.9705   43.6961 H   0  0  0  0  0  0  0  0  0  0  0  0
   56.6083   26.3167   45.1427 H   0  0  0  0  0  0  0  0  0  0  0  0
   58.3653   28.2775   46.0351 H   0  0  0  0  0  0  0  0  0  0  0  0
   57.4264   27.2733   47.1476 H   0  0  0  0  0  0  0  0  0  0  0  0
   60.3435   27.0913   46.3723 H   0  0  0  0  0  0  0  0  0  0  0  0
   59.5889   26.6514   47.9100 H   0  0  0  0  0  0  0  0  0  0  0  0
   60.3661   24.8246   45.9271 H   0  0  0  0  0  0  0  0  0  0  0  0
   59.1631   24.4569   47.1735 H   0  0  0  0  0  0  0  0  0  0  0  0
   56.3487   24.7397   43.5070 H   0  0  0  0  0  0  0  0  0  0  0  0
   55.8084   22.5737   42.3753 H   0  0  0  0  0  0  0  0  0  0  0  0
   57.1732   20.5438   42.8981 H   0  0  0  0  0  0  0  0  0  0  0  0
   58.9900   20.7490   44.4930 H   0  0  0  0  0  0  0  0  0  0  0  0
   58.1156   30.9269   46.8889 H   0  0  0  0  0  0  0  0  0  0  0  0
   58.6458   33.0762   48.0356 H   0  0  0  0  0  0  0  0  0  0  0  0
  1  2  2  0
  2  3  1  0
  3  4  2  0
  4  5  1  0
  5  6  1  0
  6  7  2  0
  7  8  1  0
  8  9  1  0
  9 10  1  0
 10 11  1  0
 11 12  1  0
 12 13  1  0
 13 14  1  0
 14 15  1  0
 15 16  2  0
 16 17  1  0
 17 18  2  0
 18 19  1  0
 19 20  2  0
  8 21  1  0
  4 22  1  0
 22 23  2  0
 23  1  1  0
 21  5  2  0
 14 10  1  0
 20 15  1  0
  1 24  1  0
  2 25  1  0
  3 26  1  0
  6 27  1  0
  7 28  1  0
  9 29  1  0
  9 30  1  0
 10 31  1  6
 11 32  1  0
 11 33  1  0
 12 34  1  0
 12 35  1  0
 13 36  1  0
 13 37  1  0
 16 38  1  0
 17 39  1  0
 18 40  1  0
 19 41  1  0
 22 42  1  0
 23 43  1  0
M  CHG  1  19   1
M  END
>  <UniqueID>  (28) 
26

>  <SMILES>  (28) 
c1ccc(-c2ccn(C[C@@H]3CCCN3c3ccc[nH+]n3)n2)cc1

>  <Energy>  (28) 
75.95539999092173

>  <Genealogy>  (28) 
c1ccc(-c2ccn(CC3CCCN3c3ccc[nH+]n3)n2)cc1 (protonated)
c1ccc(-c2ccn(C[C@@H]3CCCN3c3ccc[nH+]n3)n2)cc1 (chirality)
c1ccc(-c2ccn(C[C@@H]3CCCN3c3ccc[nH+]n3)n2)cc1 (3D coordinates assigned)
c1ccc(-c2ccn(C[C@@H]3CCCN3c3ccc[nH+]n3)n2)cc1 (nonaromatic ring conformer: 75.95539999092173 kcal/mol)

>  <smiles>  (28) 
c1ccc(-c2ccn(CC3CCCN3c3cccnn3)n2)cc1

>  <score_type>  (28) 
oracle

>  <origin>  (28) 
adg

>  <m_score__min__energy>  (28) 
-7.2699999999999996

>  <m_primary>  (28) 
energy

$$$$
28:0
     RDKit          3D

 46 49  0  0  0  0  0  0  0  0999 V2000
   57.4040   25.0920   44.0580 C   0  0  0  0  0  0  0  0  0  0  0  0
   56.8830   25.8310   45.2860 C   0  0  0  0  0  0  0  0  0  0  0  0
   57.8830   26.8530   45.7550 C   0  0  0  0  0  0  0  0  0  0  0  0
   59.0810   26.4360   46.3950 C   0  0  0  0  0  0  0  0  0  0  0  0
   60.0130   27.3800   46.8680 C   0  0  0  0  0  0  0  0  0  0  0  0
   59.7190   28.7290   46.6980 C   0  0  0  0  0  0  0  0  0  0  0  0
   60.4510   29.7660   47.0650 O   0  0  0  0  0  0  0  0  0  0  0  0
   59.7770   30.8430   46.7080 C   0  0  0  0  0  0  0  0  0  0  0  0
   60.1110   32.1900   46.8570 C   0  0  0  0  0  0  0  0  0  0  0  0
   61.3420   32.6030   47.4870 N   0  0  0  0  0  0  0  0  0  0  0  0
   61.6740   32.1800   48.8530 C   0  0  0  0  0  0  0  0  0  0  0  0
   62.5320   33.2490   49.5440 C   0  0  0  0  0  0  0  0  0  0  0  0
   63.7460   33.6250   48.7720 N   0  0  0  0  0  0  0  0  0  0  0  0
   64.9660   33.0930   49.3970 C   0  0  0  0  0  0  0  0  0  0  0  0
   63.7070   33.2640   47.3370 C   0  0  0  0  0  0  0  0  0  0  0  0
   62.3030   33.4300   46.7470 C   0  0  0  0  0  0  0  0  0  0  0  0
   59.2240   33.1150   46.3640 N   0  0  0  0  0  0  0  0  0  0  0  0
   58.0510   32.7380   45.7520 C   0  0  0  0  0  0  0  0  0  0  0  0
   57.1020   33.7790   45.2470 C   0  0  0  0  0  0  0  0  0  0  0  0
   57.7320   31.4160   45.6200 N   0  0  0  0  0  0  0  0  0  0  0  0
   58.6020   30.5000   46.1010 C   0  0  0  0  0  0  0  0  0  0  0  0
   58.5500   29.1330   46.0880 C   0  0  0  0  0  0  0  0  0  0  0  0
   57.6070   28.2310   45.6060 C   0  0  0  0  0  0  0  0  0  0  0  0
   58.0105   24.2318   44.3777 H   0  0  0  0  0  0  0  0  0  0  0  0
   56.5546   24.7381   43.4553 H   0  0  0  0  0  0  0  0  0  0  0  0
   58.0227   25.7731   43.4553 H   0  0  0  0  0  0  0  0  0  0  0  0
   55.9412   26.3383   45.0297 H   0  0  0  0  0  0  0  0  0  0  0  0
   56.7163   25.1025   46.0932 H   0  0  0  0  0  0  0  0  0  0  0  0
   59.2831   25.3623   46.5227 H   0  0  0  0  0  0  0  0  0  0  0  0
   60.9450   27.0603   47.3570 H   0  0  0  0  0  0  0  0  0  0  0  0
   60.7453   32.0341   49.4242 H   0  0  0  0  0  0  0  0  0  0  0  0
   62.2398   31.2376   48.8099 H   0  0  0  0  0  0  0  0  0  0  0  0
   61.9173   34.1500   49.6870 H   0  0  0  0  0  0  0  0  0  0  0  0
   62.8745   32.8221   50.4982 H   0  0  0  0  0  0  0  0  0  0  0  0
   64.8662   33.1365   50.4916 H   0  0  0  0  0  0  0  0  0  0  0  0
   65.1133   32.0490   49.0835 H   0  0  0  0  0  0  0  0  0  0  0  0
   65.8313   33.6955   49.0835 H   0  0  0  0  0  0  0  0  0  0  0  0
   64.4035   33.9141   46.7872 H   0  0  0  0  0  0  0  0  0  0  0  0
   63.9951   32.2066   47.2423 H   0  0  0  0  0  0  0  0  0  0  0  0
   62.0024   34.4859   46.8156 H   0  0  0  0  0  0  0  0  0  0  0  0
   62.3156   33.1111   45.6943 H   0  0  0  0  0  0  0  0  0  0  0  0
   59.4300   34.1330   46.4680 H   0  0  0  0  0  0  0  0  0  0  0  0
   56.6337   34.2927   46.0995 H   0  0  0  0  0  0  0  0  0  0  0  0
   57.6511   34.5098   44.6351 H   0  0  0  0  0  0  0  0  0  0  0  0
   56.3236   33.2997   44.6351 H   0  0  0  0  0  0  0  0  0  0  0  0
   56.6799   28.5778   45.1262 H   0  0  0  0  0  0  0  0  0  0  0  0
  1  2  1  0
  2  3  1  0
  3  4  2  0
  4  5  1  0
  5  6  2  0
  6  7  1  0
  7  8  1  0
  8  9  2  0
  9 10  1  0
 10 11  1  0
 11 12  1  0
 12 13  1  0
 13 14  1  0
 13 15  1  0
 15 16  1  0
  9 17  1  0
 17 18  2  0
 18 19  1  0
 18 20  1  0
 20 21  2  0
 21 22  1  0
 22 23  2  0
 23  3  1  0
 22  6  1  0
 21  8  1  0
 16 10  1  0
  1 24  1  0
  1 25  1  0
  1 26  1  0
  2 27  1  0
  2 28  1  0
  4 29  1  0
  5 30  1  0
 11 31  1  0
 11 32  1  0
 12 33  1  0
 12 34  1  0
 14 35  1  0
 14 36  1  0
 14 37  1  0
 15 38  1  0
 15 39  1  0
 16 40  1  0
 16 41  1  0
 17 42  1  0
 19 43  1  0
 19 44  1  0
 19 45  1  0
 23 46  1  0
M  CHG  1  17   1
M  END
>  <UniqueID>  (29) 
27

>  <SMILES>  (29) 
CCc1ccc2oc3c(N4CCN(C)CC4)[nH+]c(C)nc3c2c1

>  <Energy>  (29) 
97.74930461273627

>  <Genealogy>  (29) 
CCc1ccc2oc3c(N4CCN(C)CC4)[nH+]c(C)nc3c2c1 (protonated)
CCc1ccc2oc3c(N4CCN(C)CC4)[nH+]c(C)nc3c2c1 (3D coordinates assigned)
CCc1ccc2oc3c(N4CCN(C)CC4)[nH+]c(C)nc3c2c1 (nonaromatic ring conformer: 97.74930461273627 kcal/mol)

>  <smiles>  (29) 
CCc1ccc2oc3c(N4CCN(C)CC4)nc(C)nc3c2c1

>  <score_type>  (29) 
oracle

>  <origin>  (29) 
adg

>  <m_score__min__energy>  (29) 
-5.4000000000000004

>  <m_primary>  (29) 
energy

$$$$
29:0
     RDKit          3D

 49 52  0  0  0  0  0  0  0  0999 V2000
   61.0990   27.4730   50.7320 C   0  0  0  0  0  0  0  0  0  0  0  0
   60.7310   26.6540   49.6270 O   0  0  0  0  0  0  0  0  0  0  0  0
   60.1210   27.1290   48.4570 C   0  0  0  0  0  0  0  0  0  0  0  0
   60.4830   28.3680   47.8640 C   0  0  0  0  0  0  0  0  0  0  0  0
   59.8430   28.8180   46.6960 C   0  0  0  0  0  0  0  0  0  0  0  0
   58.8510   28.0090   46.1280 C   0  0  0  0  0  0  0  0  0  0  0  0
   58.5210   26.7990   46.6890 C   0  0  0  0  0  0  0  0  0  0  0  0
   59.1190   26.3410   47.8630 C   0  0  0  0  0  0  0  0  0  0  0  0
   57.5220   26.2480   45.9070 C   0  0  0  0  0  0  0  0  0  0  0  0
   56.8200   24.9700   46.1020 C   0  0  0  0  0  0  0  0  0  0  0  0
   55.9820   24.8760   47.0400 O   0  0  0  0  0  0  0  0  0  0  0  0
   57.0640   23.8380   45.2470 N   0  0  0  0  0  0  0  0  0  0  0  0
   57.0690   22.4920   45.8310 C   0  0  0  0  0  0  0  0  0  0  0  0
   57.1830   21.4280   44.7420 C   0  0  0  0  0  0  0  0  0  0  0  0
   56.2560   21.7620   43.6600 N   0  0  0  0  0  0  0  0  0  0  0  0
   56.6770   22.9700   42.9300 C   0  0  0  0  0  0  0  0  0  0  0  0
   57.3730   24.0290   43.8170 C   0  0  0  0  0  0  0  0  0  0  0  0
   57.2740   27.1720   44.9030 C   0  0  0  0  0  0  0  0  0  0  0  0
   58.0880   28.2520   45.0340 N   0  0  0  0  0  0  0  0  0  0  0  0
   58.1440   29.4150   44.1320 C   0  0  0  0  0  0  0  0  0  0  0  0
   57.0180   29.3940   43.1000 C   0  0  0  0  0  0  0  0  0  0  0  0
   56.6650   30.8560   42.8270 C   0  0  0  0  0  0  0  0  0  0  0  0
   57.4280   31.7040   43.8450 C   0  0  0  0  0  0  0  0  0  0  0  0
   57.9840   30.7360   44.8790 C   0  0  0  0  0  0  0  0  0  0  0  0
   60.8639   26.9497   51.6706 H   0  0  0  0  0  0  0  0  0  0  0  0
   62.1780   27.6829   50.6896 H   0  0  0  0  0  0  0  0  0  0  0  0
   60.5395   28.4191   50.6896 H   0  0  0  0  0  0  0  0  0  0  0  0
   61.2721   28.9815   48.3233 H   0  0  0  0  0  0  0  0  0  0  0  0
   60.1146   29.7813   46.2397 H   0  0  0  0  0  0  0  0  0  0  0  0
   58.8138   25.3852   48.3139 H   0  0  0  0  0  0  0  0  0  0  0  0
   57.9245   22.3996   46.5163 H   0  0  0  0  0  0  0  0  0  0  0  0
   56.1246   22.3402   46.3742 H   0  0  0  0  0  0  0  0  0  0  0  0
   58.2119   21.4046   44.3537 H   0  0  0  0  0  0  0  0  0  0  0  0
   56.9345   20.4398   45.1564 H   0  0  0  0  0  0  0  0  0  0  0  0
   56.2420   20.9610   42.9850 H   0  0  0  0  0  0  0  0  0  0  0  0
   57.3770   22.6687   42.1368 H   0  0  0  0  0  0  0  0  0  0  0  0
   55.7637   23.4371   42.5330 H   0  0  0  0  0  0  0  0  0  0  0  0
   58.4611   23.9523   43.6750 H   0  0  0  0  0  0  0  0  0  0  0  0
   57.0030   25.0207   43.5178 H   0  0  0  0  0  0  0  0  0  0  0  0
   56.5220   27.0477   44.1099 H   0  0  0  0  0  0  0  0  0  0  0  0
   59.1319   29.3451   43.6534 H   0  0  0  0  0  0  0  0  0  0  0  0
   57.3569   28.9041   42.1753 H   0  0  0  0  0  0  0  0  0  0  0  0
   56.1466   28.8324   43.4677 H   0  0  0  0  0  0  0  0  0  0  0  0
   56.9662   31.1319   41.8056 H   0  0  0  0  0  0  0  0  0  0  0  0
   55.5810   31.0191   42.9178 H   0  0  0  0  0  0  0  0  0  0  0  0
   58.2482   32.2454   43.3508 H   0  0  0  0  0  0  0  0  0  0  0  0
   56.7718   32.4532   44.3120 H   0  0  0  0  0  0  0  0  0  0  0  0
   58.9557   31.0879   45.2559 H   0  0  0  0  0  0  0  0  0  0  0  0
   57.3245   30.6402   45.7542 H   0  0  0  0  0  0  0  0  0  0  0  0
  1  2  1  0
  2  3  1  0
  3  4  2  0
  4  5  1  0
  5  6  2  0
  6  7  1  0
  7  8  2  0
  7  9  1  0
  9 10  1  0
 10 11  2  0
 10 12  1  0
 12 13  1  0
 13 14  1  0
 14 15  1  0
 15 16  1  0
 16 17  1  0
  9 18  2  0
 18 19  1  0
 19 20  1  0
 20 21  1  0
 21 22  1  0
 22 23  1  0
 23 24  1  0
  8  3  1  0
 17 12  1  0
 24 20  1  0
 19  6  1  0
  1 25  1  0
  1 26  1  0
  1 27  1  0
  4 28  1  0
  5 29  1  0
  8 30  1  0
 13 31  1  0
 13 32  1  0
 14 33  1  0
 14 34  1  0
 15 35  1  0
 16 36  1  0
 16 37  1  0
 17 38  1  0
 17 39  1  0
 18 40  1  0
 20 41  1  0
 21 42  1  0
 21 43  1  0
 22 44  1  0
 22 45  1  0
 23 46  1  0
 23 47  1  0
 24 48  1  0
 24 49  1  0
M  END
>  <UniqueID>  (30) 
28

>  <SMILES>  (30) 
COc1ccc2c(c1)c(C(=O)N1CCNCC1)cn2C1CCCC1

>  <Energy>  (30) 
93.83567076300119

>  <Genealogy>  (30) 
COc1ccc2c(c1)c(C(=O)N1CCNCC1)cn2C1CCCC1 (3D coordinates assigned)
COc1ccc2c(c1)c(C(=O)N1CCNCC1)cn2C1CCCC1 (nonaromatic ring conformer: 93.83567076300119 kcal/mol)

>  <smiles>  (30) 
COc1ccc2c(c1)c(C(=O)N1CCNCC1)cn2C1CCCC1

>  <score_type>  (30) 
oracle

>  <origin>  (30) 
adg

>  <m_score__min__energy>  (30) 
-7.29

>  <m_primary>  (30) 
energy

$$$$
30:0
     RDKit          3D

 41 43  0  0  0  0  0  0  0  0999 V2000
   64.1190   33.0640   48.6260 C   0  0  0  0  0  0  0  0  0  0  0  0
   62.7620   33.4840   48.1440 C   0  0  0  0  0  0  0  0  0  0  0  0
   61.7540   33.8070   49.0650 C   0  0  0  0  0  0  0  0  0  0  0  0
   60.4770   34.1610   48.6170 C   0  0  0  0  0  0  0  0  0  0  0  0
   60.1920   34.1940   47.2440 C   0  0  0  0  0  0  0  0  0  0  0  0
   58.8070   34.5380   46.7640 C   0  0  0  0  0  0  0  0  0  0  0  0
   58.7170   34.4060   45.2390 C   0  0  0  0  0  0  0  0  0  0  0  0
   57.5120   33.6520   44.8500 N   0  0  0  0  0  0  0  0  0  0  0  0
   57.7840   32.7110   43.7510 C   0  0  0  0  0  0  0  0  0  0  0  0
   57.5160   31.2870   44.1530 C   0  0  0  0  0  0  0  0  0  0  0  0
   56.6860   30.3810   43.5010 C   0  0  0  0  0  0  0  0  0  0  0  0
   56.7320   29.1740   44.1110 N   0  0  0  0  0  0  0  0  0  0  0  0
   57.5900   29.3090   45.1360 C   0  0  0  0  0  0  0  0  0  0  0  0
   57.9750   28.3290   46.0510 C   0  0  0  0  0  0  0  0  0  0  0  0
   58.9030   28.6880   47.0470 C   0  0  0  0  0  0  0  0  0  0  0  0
   59.4200   30.0010   47.1040 C   0  0  0  0  0  0  0  0  0  0  0  0
   59.0140   30.9690   46.1670 C   0  0  0  0  0  0  0  0  0  0  0  0
   58.0920   30.5840   45.1930 C   0  0  0  0  0  0  0  0  0  0  0  0
   61.1920   33.8390   46.3240 C   0  0  0  0  0  0  0  0  0  0  0  0
   62.4680   33.4850   46.7720 C   0  0  0  0  0  0  0  0  0  0  0  0
   64.1324   33.0599   49.7259 H   0  0  0  0  0  0  0  0  0  0  0  0
   64.3443   32.0541   48.2528 H   0  0  0  0  0  0  0  0  0  0  0  0
   64.8754   33.7701   48.2528 H   0  0  0  0  0  0  0  0  0  0  0  0
   61.9688   33.7818   50.1435 H   0  0  0  0  0  0  0  0  0  0  0  0
   59.6924   34.4147   49.3451 H   0  0  0  0  0  0  0  0  0  0  0  0
   58.0825   33.8537   47.2296 H   0  0  0  0  0  0  0  0  0  0  0  0
   58.5822   35.5777   47.0442 H   0  0  0  0  0  0  0  0  0  0  0  0
   58.6743   35.4101   44.7918 H   0  0  0  0  0  0  0  0  0  0  0  0
   59.6039   33.8643   44.8787 H   0  0  0  0  0  0  0  0  0  0  0  0
   57.1350   33.1330   45.6780 H   0  0  0  0  0  0  0  0  0  0  0  0
   56.7810   34.3270   44.5240 H   0  0  0  0  0  0  0  0  0  0  0  0
   57.1402   32.9665   42.8965 H   0  0  0  0  0  0  0  0  0  0  0  0
   58.8480   32.7957   43.4851 H   0  0  0  0  0  0  0  0  0  0  0  0
   56.0778   30.6131   42.6143 H   0  0  0  0  0  0  0  0  0  0  0  0
   56.2140   28.3130   43.8310 H   0  0  0  0  0  0  0  0  0  0  0  0
   57.5668   27.3090   45.9961 H   0  0  0  0  0  0  0  0  0  0  0  0
   59.2276   27.9406   47.7859 H   0  0  0  0  0  0  0  0  0  0  0  0
   60.1452   30.2688   47.8865 H   0  0  0  0  0  0  0  0  0  0  0  0
   59.4101   31.9946   46.2012 H   0  0  0  0  0  0  0  0  0  0  0  0
   60.9703   33.8395   45.2466 H   0  0  0  0  0  0  0  0  0  0  0  0
   63.2453   33.2059   46.0454 H   0  0  0  0  0  0  0  0  0  0  0  0
  1  2  1  0
  2  3  2  0
  3  4  1  0
  4  5  2  0
  5  6  1  0
  6  7  1  0
  7  8  1  0
  8  9  1  0
  9 10  1  0
 10 11  2  0
 11 12  1  0
 12 13  1  0
 13 14  2  0
 14 15  1  0
 15 16  2  0
 16 17  1  0
 17 18  2  0
  5 19  1  0
 19 20  2  0
 20  2  1  0
 18 10  1  0
 18 13  1  0
  1 21  1  0
  1 22  1  0
  1 23  1  0
  3 24  1  0
  4 25  1  0
  6 26  1  0
  6 27  1  0
  7 28  1  0
  7 29  1  0
  8 30  1  0
  8 31  1  0
  9 32  1  0
  9 33  1  0
 11 34  1  0
 12 35  1  0
 14 36  1  0
 15 37  1  0
 16 38  1  0
 17 39  1  0
 19 40  1  0
 20 41  1  0
M  CHG  1   8   1
M  END
>  <UniqueID>  (31) 
29

>  <SMILES>  (31) 
Cc1ccc(CC[NH2+]Cc2c[nH]c3ccccc23)cc1

>  <Energy>  (31) 
71.16677829652953

>  <Genealogy>  (31) 
Cc1ccc(CC[NH2+]Cc2c[nH]c3ccccc23)cc1 (protonated)
Cc1ccc(CC[NH2+]Cc2c[nH]c3ccccc23)cc1 (3D coordinates assigned)
Cc1ccc(CC[NH2+]Cc2c[nH]c3ccccc23)cc1 (optimized conformer: 71.16677829652953 kcal/mol)

>  <smiles>  (31) 
Cc1ccc(CCNCc2c[nH]c3ccccc23)cc1

>  <score_type>  (31) 
oracle

>  <origin>  (31) 
adg

>  <m_score__min__energy>  (31) 
-6.0199999999999996

>  <m_primary>  (31) 
energy

$$$$
31:0
     RDKit          3D

 46 49  0  0  0  0  0  0  0  0999 V2000
   57.4100   32.3420   41.1710 C   0  0  0  0  0  0  0  0  0  0  0  0
   57.0420   31.5670   42.3080 O   0  0  0  0  0  0  0  0  0  0  0  0
   57.7240   31.5830   43.5340 C   0  0  0  0  0  0  0  0  0  0  0  0
   58.0340   30.3570   44.1340 C   0  0  0  0  0  0  0  0  0  0  0  0
   58.7110   30.2880   45.3760 C   0  0  0  0  0  0  0  0  0  0  0  0
   59.0200   29.0030   46.0040 N   0  0  0  0  0  0  0  0  0  0  0  0
   58.9460   27.7700   45.1870 C   0  0  0  0  0  0  0  0  0  0  0  0
   59.2080   26.4730   45.9610 C   0  0  0  0  0  0  0  0  0  0  0  0
   60.2410   26.6480   46.9770 N   0  0  0  0  0  0  0  0  0  0  0  0
   59.7560   27.5930   47.9790 C   0  0  0  0  0  0  0  0  0  0  0  0
   59.5510   28.9910   47.3860 C   0  0  0  0  0  0  0  0  0  0  0  0
   59.0850   31.5110   45.9820 C   0  0  0  0  0  0  0  0  0  0  0  0
   58.7870   32.7400   45.3840 C   0  0  0  0  0  0  0  0  0  0  0  0
   59.2410   34.2380   46.1900 S   0  0  0  0  0  0  0  0  0  0  0  0
   58.1630   34.6610   47.1480 O   0  0  0  0  0  0  0  0  0  0  0  0
   59.4170   35.3300   45.1720 O   0  0  0  0  0  0  0  0  0  0  0  0
   60.7450   33.9790   47.0620 C   0  0  0  0  0  0  0  0  0  0  0  0
   61.9170   33.6010   46.3620 C   0  0  0  0  0  0  0  0  0  0  0  0
   63.1300   33.4160   47.0510 C   0  0  0  0  0  0  0  0  0  0  0  0
   63.1330   33.6250   48.4270 C   0  0  0  0  0  0  0  0  0  0  0  0
   62.0150   33.9940   49.1000 C   0  0  0  0  0  0  0  0  0  0  0  0
   60.7950   34.1860   48.4580 C   0  0  0  0  0  0  0  0  0  0  0  0
   62.3100   34.1320   50.4430 O   0  0  0  0  0  0  0  0  0  0  0  0
   63.7010   33.8290   50.6230 C   0  0  0  0  0  0  0  0  0  0  0  0
   64.1880   33.5110   49.3120 O   0  0  0  0  0  0  0  0  0  0  0  0
   58.1000   32.7760   44.1680 C   0  0  0  0  0  0  0  0  0  0  0  0
   57.8598   33.2893   41.5030 H   0  0  0  0  0  0  0  0  0  0  0  0
   58.1385   31.7823   40.5660 H   0  0  0  0  0  0  0  0  0  0  0  0
   56.5159   32.5528   40.5660 H   0  0  0  0  0  0  0  0  0  0  0  0
   57.7446   29.4240   43.6283 H   0  0  0  0  0  0  0  0  0  0  0  0
   57.9393   27.7097   44.7478 H   0  0  0  0  0  0  0  0  0  0  0  0
   59.7428   27.8484   44.4327 H   0  0  0  0  0  0  0  0  0  0  0  0
   58.2758   26.1566   46.4517 H   0  0  0  0  0  0  0  0  0  0  0  0
   59.5562   25.7126   45.2465 H   0  0  0  0  0  0  0  0  0  0  0  0
   61.1090   27.0290   46.5300 H   0  0  0  0  0  0  0  0  0  0  0  0
   58.7967   27.2301   48.3767 H   0  0  0  0  0  0  0  0  0  0  0  0
   60.5106   27.6655   48.7761 H   0  0  0  0  0  0  0  0  0  0  0  0
   58.8450   29.5364   48.0295 H   0  0  0  0  0  0  0  0  0  0  0  0
   60.5453   29.4595   47.3418 H   0  0  0  0  0  0  0  0  0  0  0  0
   59.6208   31.4949   46.9426 H   0  0  0  0  0  0  0  0  0  0  0  0
   61.8787   33.4511   45.2729 H   0  0  0  0  0  0  0  0  0  0  0  0
   64.0453   33.1162   46.5197 H   0  0  0  0  0  0  0  0  0  0  0  0
   59.8991   34.4891   49.0197 H   0  0  0  0  0  0  0  0  0  0  0  0
   64.2356   34.6986   51.0329 H   0  0  0  0  0  0  0  0  0  0  0  0
   63.8537   33.0010   51.3309 H   0  0  0  0  0  0  0  0  0  0  0  0
   57.8532   33.7434   43.7063 H   0  0  0  0  0  0  0  0  0  0  0  0
  1  2  1  0
  2  3  1  0
  3  4  2  0
  4  5  1  0
  5  6  1  0
  6  7  1  0
  7  8  1  0
  8  9  1  0
  9 10  1  0
 10 11  1  0
  5 12  2  0
 12 13  1  0
 13 14  1  0
 14 15  2  0
 14 16  2  0
 14 17  1  0
 17 18  2  0
 18 19  1  0
 19 20  2  0
 20 21  1  0
 21 22  2  0
 21 23  1  0
 23 24  1  0
 24 25  1  0
 13 26  2  0
 26  3  1  0
 11  6  1  0
 22 17  1  0
 25 20  1  0
  1 27  1  0
  1 28  1  0
  1 29  1  0
  4 30  1  0
  7 31  1  0
  7 32  1  0
  8 33  1  0
  8 34  1  0
  9 35  1  0
 10 36  1  0
 10 37  1  0
 11 38  1  0
 11 39  1  0
 12 40  1  0
 18 41  1  0
 19 42  1  0
 22 43  1  0
 24 44  1  0
 24 45  1  0
 26 46  1  0
M  END
>  <UniqueID>  (32) 
30

>  <SMILES>  (32) 
COc1cc(N2CCNCC2)cc(S(=O)(=O)c2ccc3c(c2)OCO3)c1

>  <Energy>  (32) 
84.82579122195179

>  <Genealogy>  (32) 
COc1cc(N2CCNCC2)cc(S(=O)(=O)c2ccc3c(c2)OCO3)c1 (3D coordinates assigned)
COc1cc(N2CCNCC2)cc(S(=O)(=O)c2ccc3c(c2)OCO3)c1 (nonaromatic ring conformer: 84.82579122195179 kcal/mol)

>  <smiles>  (32) 
COc1cc(N2CCNCC2)cc(S(=O)(=O)c2ccc3c(c2)OCO3)c1

>  <score_type>  (32) 
oracle

>  <origin>  (32) 
adg

>  <m_score__min__energy>  (32) 
-7.7400000000000002

>  <m_primary>  (32) 
energy

$$$$
32:0
     RDKit          3D

 45 47  0  0  0  0  0  0  0  0999 V2000
   57.7856   21.3920   44.6603 H   0  0  0  0  0  0  0  0  0  0  0  0
   57.7860   22.4830   44.8010 C   0  0  0  0  0  0  0  0  0  0  0  0
   56.6670   23.2350   44.4350 C   0  0  0  0  0  0  0  0  0  0  0  0
   55.7846   22.7349   44.0093 H   0  0  0  0  0  0  0  0  0  0  0  0
   56.6670   24.6220   44.6090 C   0  0  0  0  0  0  0  0  0  0  0  0
   55.7809   25.2092   44.3260 H   0  0  0  0  0  0  0  0  0  0  0  0
   57.7940   25.2700   45.1440 C   0  0  0  0  0  0  0  0  0  0  0  0
   57.7740   26.7420   45.3280 C   0  0  0  0  0  0  0  0  0  0  0  0
   58.1990   27.3350   46.5350 C   0  0  0  0  0  0  0  0  0  0  0  0
   58.6440   26.6060   47.4660 O   0  0  0  0  0  0  0  0  0  0  0  0
   58.1520   28.6990   46.6860 N   0  0  0  0  0  0  0  0  0  0  0  0
   58.6060   29.3230   47.9410 C   0  0  0  0  0  0  0  0  0  0  0  0
   58.1992   28.7639   48.7966 H   0  0  0  0  0  0  0  0  0  0  0  0
   59.7051   29.3071   47.9817 H   0  0  0  0  0  0  0  0  0  0  0  0
   58.2526   30.3639   47.9817 H   0  0  0  0  0  0  0  0  0  0  0  0
   57.7540   29.4880   45.6370 C   0  0  0  0  0  0  0  0  0  0  0  0
   57.7480   30.8470   45.7450 N   0  0  0  0  0  0  0  0  0  0  0  0
   57.3570   31.6600   44.7220 C   0  0  0  0  0  0  0  0  0  0  0  0
   57.3610   32.9520   44.8600 N   0  0  0  0  0  0  0  0  0  0  0  0
   58.4980   33.8060   44.5260 C   0  0  0  0  0  0  0  0  0  0  0  0
   58.1714   34.5961   43.8339 H   0  0  0  0  0  0  0  0  0  0  0  0
   59.2823   33.1996   44.0495 H   0  0  0  0  0  0  0  0  0  0  0  0
   59.0530   34.4430   45.7990 C   0  0  0  0  0  0  0  0  0  0  0  0
   58.6230   35.4484   45.9184 H   0  0  0  0  0  0  0  0  0  0  0  0
   60.1481   34.5076   45.7176 H   0  0  0  0  0  0  0  0  0  0  0  0
   58.7090   33.6260   46.9730 N   0  0  0  0  0  0  0  0  0  0  0  0
   58.2090   32.7720   46.6280 H   0  0  0  0  0  0  0  0  0  0  0  0
   59.9120   33.1750   47.6830 C   0  0  0  0  0  0  0  0  0  0  0  0
   59.9085   32.0767   47.7445 H   0  0  0  0  0  0  0  0  0  0  0  0
   59.9165   33.6052   48.6954 H   0  0  0  0  0  0  0  0  0  0  0  0
   61.1600   33.6350   46.9380 C   0  0  0  0  0  0  0  0  0  0  0  0
   61.9357   33.9209   47.6636 H   0  0  0  0  0  0  0  0  0  0  0  0
   61.5330   32.8153   46.3064 H   0  0  0  0  0  0  0  0  0  0  0  0
   60.9118   34.5007   46.3064 H   0  0  0  0  0  0  0  0  0  0  0  0
   56.9450   31.0960   43.5100 C   0  0  0  0  0  0  0  0  0  0  0  0
   56.6249   31.7417   42.6790 H   0  0  0  0  0  0  0  0  0  0  0  0
   56.9430   29.7100   43.3630 C   0  0  0  0  0  0  0  0  0  0  0  0
   56.6211   29.2579   42.4133 H   0  0  0  0  0  0  0  0  0  0  0  0
   57.3510   28.8930   44.4250 C   0  0  0  0  0  0  0  0  0  0  0  0
   57.3670   27.5390   44.3010 N   0  0  0  0  0  0  0  0  0  0  0  0
   57.0550   27.1000   43.4030 H   0  0  0  0  0  0  0  0  0  0  0  0
   58.9130   24.5050   45.5220 C   0  0  0  0  0  0  0  0  0  0  0  0
   59.9960   25.0920   46.0910 F   0  0  0  0  0  0  0  0  0  0  0  0
   58.9060   23.1170   45.3460 C   0  0  0  0  0  0  0  0  0  0  0  0
   59.7847   22.5229   45.6375 H   0  0  0  0  0  0  0  0  0  0  0  0
  1  2  1  0
  2  3  2  0
  3  4  1  0
  3  5  1  0
  5  6  1  0
  5  7  2  0
  7  8  1  0
  8  9  1  0
  9 10  2  0
  9 11  1  0
 11 12  1  0
 12 13  1  0
 12 14  1  0
 12 15  1  0
 11 16  1  0
 16 17  1  0
 17 18  1  0
 18 19  2  0
 19 20  1  0
 20 21  1  0
 20 22  1  0
 20 23  1  0
 23 24  1  0
 23 25  1  0
 23 26  1  0
 26 27  1  0
 26 28  1  0
 28 29  1  0
 28 30  1  0
 28 31  1  0
 31 32  1  0
 31 33  1  0
 31 34  1  0
 18 35  1  0
 35 36  1  0
 35 37  2  0
 37 38  1  0
 37 39  1  0
 39 40  1  0
 40 41  1  0
  7 42  1  0
 42 43  1  0
 42 44  2  0
 44 45  1  0
 44  2  1  0
 40  8  2  0
 39 16  2  0
M  CHG  2  17  -1  40   1
M  END
>  <UniqueID>  (33) 
31

>  <SMILES>  (33) 
CCNCC/N=c1/ccc2[nH+]c(-c3ccccc3F)c(=O)n(C)c2[n-]1

>  <Energy>  (33) 
55.55361235358838

>  <Genealogy>  (33) 
CCNCCN=c1ccc2[nH+]c(-c3ccccc3F)c(=O)n(C)c2[n-]1 (protonated)
CCNCC/N=c1/ccc2[nH+]c(-c3ccccc3F)c(=O)n(C)c2[n-]1 (cis-trans isomerization)
CCNCC/N=c1/ccc2[nH+]c(-c3ccccc3F)c(=O)n(C)c2[n-]1 (3D coordinates assigned)
CCNCC/N=c1/ccc2[nH+]c(-c3ccccc3F)c(=O)n(C)c2[n-]1 (optimized conformer: 55.55361235358838 kcal/mol)

>  <smiles>  (33) 
CCNCCN=c1ccc2nc(-c3ccccc3F)c(=O)n(C)c2[nH]1

>  <score_type>  (33) 
oracle

>  <origin>  (33) 
adg

>  <m_score__min__energy>  (33) 
-7.7000000000000002

>  <m_primary>  (33) 
energy

$$$$
33:0
     RDKit          3D

 48 52  0  0  0  0  0  0  0  0999 V2000
   56.2880   31.5450   52.5180 C   0  0  0  0  0  0  0  0  0  0  0  0
   57.3850   32.4480   52.4170 O   0  0  0  0  0  0  0  0  0  0  0  0
   58.4560   32.2950   51.5250 C   0  0  0  0  0  0  0  0  0  0  0  0
   58.7260   31.0770   50.8720 C   0  0  0  0  0  0  0  0  0  0  0  0
   59.8070   30.9740   49.9920 C   0  0  0  0  0  0  0  0  0  0  0  0
   60.6410   32.0780   49.7620 C   0  0  0  0  0  0  0  0  0  0  0  0
   61.7470   31.9800   48.8520 N   0  0  0  0  0  0  0  0  0  0  0  0
   63.0160   32.0210   49.2190 N   0  0  0  0  0  0  0  0  0  0  0  0
   63.7610   31.9580   48.1280 N   0  0  0  0  0  0  0  0  0  0  0  0
   63.0090   31.8670   47.0420 N   0  0  0  0  0  0  0  0  0  0  0  0
   61.7430   31.8850   47.5030 C   0  0  0  0  0  0  0  0  0  0  0  0
   60.5550   31.6760   46.6550 C   0  0  0  0  0  0  0  0  0  0  0  0
   60.2910   30.5220   45.9980 N   0  0  0  0  0  0  0  0  0  0  0  0
   59.1760   30.6800   45.2930 N   0  0  0  0  0  0  0  0  0  0  0  0
   58.5370   29.6150   44.5160 C   0  0  0  0  0  0  0  0  0  0  0  0
   58.3590   28.3730   45.3530 C   0  0  0  0  0  0  0  0  0  0  0  0
   59.4810   27.6400   45.7770 C   0  0  0  0  0  0  0  0  0  0  0  0
   59.3160   26.4570   46.5020 C   0  0  0  0  0  0  0  0  0  0  0  0
   58.0340   25.9870   46.7950 C   0  0  0  0  0  0  0  0  0  0  0  0
   56.9130   26.7000   46.3630 C   0  0  0  0  0  0  0  0  0  0  0  0
   57.0700   27.8870   45.6400 C   0  0  0  0  0  0  0  0  0  0  0  0
   55.9700   28.5550   45.2110 F   0  0  0  0  0  0  0  0  0  0  0  0
   58.7090   31.9250   45.5060 C   0  0  0  0  0  0  0  0  0  0  0  0
   57.5520   32.5260   45.0060 C   0  0  0  0  0  0  0  0  0  0  0  0
   57.2850   33.8520   45.3920 C   0  0  0  0  0  0  0  0  0  0  0  0
   58.1640   34.5370   46.2630 C   0  0  0  0  0  0  0  0  0  0  0  0
   59.3190   33.9030   46.7560 C   0  0  0  0  0  0  0  0  0  0  0  0
   59.5600   32.5890   46.3510 C   0  0  0  0  0  0  0  0  0  0  0  0
   60.3610   33.2960   50.3950 C   0  0  0  0  0  0  0  0  0  0  0  0
   59.2820   33.3990   51.2780 C   0  0  0  0  0  0  0  0  0  0  0  0
   56.0624   31.3593   53.5785 H   0  0  0  0  0  0  0  0  0  0  0  0
   55.4064   31.9826   52.0268 H   0  0  0  0  0  0  0  0  0  0  0  0
   56.5480   30.5958   52.0268 H   0  0  0  0  0  0  0  0  0  0  0  0
   58.0836   30.2031   51.0552 H   0  0  0  0  0  0  0  0  0  0  0  0
   60.0047   30.0222   49.4772 H   0  0  0  0  0  0  0  0  0  0  0  0
   64.8050   31.9710   48.1240 H   0  0  0  0  0  0  0  0  0  0  0  0
   57.5516   29.9618   44.1715 H   0  0  0  0  0  0  0  0  0  0  0  0
   59.1796   29.3717   43.6570 H   0  0  0  0  0  0  0  0  0  0  0  0
   60.4927   27.9991   45.5371 H   0  0  0  0  0  0  0  0  0  0  0  0
   60.1979   25.8946   46.8427 H   0  0  0  0  0  0  0  0  0  0  0  0
   57.9069   25.0554   47.3659 H   0  0  0  0  0  0  0  0  0  0  0  0
   55.9039   26.3268   46.5921 H   0  0  0  0  0  0  0  0  0  0  0  0
   56.8729   31.9814   44.3336 H   0  0  0  0  0  0  0  0  0  0  0  0
   56.3857   34.3601   45.0136 H   0  0  0  0  0  0  0  0  0  0  0  0
   57.9428   35.5736   46.5572 H   0  0  0  0  0  0  0  0  0  0  0  0
   60.0080   34.4244   47.4367 H   0  0  0  0  0  0  0  0  0  0  0  0
   60.9924   34.1746   50.1965 H   0  0  0  0  0  0  0  0  0  0  0  0
   59.0800   34.3551   51.7831 H   0  0  0  0  0  0  0  0  0  0  0  0
  1  2  1  0
  2  3  1  0
  3  4  2  0
  4  5  1  0
  5  6  2  0
  6  7  1  0
  7  8  1  0
  8  9  2  0
  9 10  1  0
 10 11  2  0
 11 12  1  0
 12 13  2  0
 13 14  1  0
 14 15  1  0
 15 16  1  0
 16 17  2  0
 17 18  1  0
 18 19  2  0
 19 20  1  0
 20 21  2  0
 21 22  1  0
 14 23  1  0
 23 24  2  0
 24 25  1  0
 25 26  2  0
 26 27  1  0
 27 28  2  0
  6 29  1  0
 29 30  2  0
 30  3  1  0
 11  7  1  0
 28 12  1  0
 21 16  1  0
 28 23  1  0
  1 31  1  0
  1 32  1  0
  1 33  1  0
  4 34  1  0
  5 35  1  0
  9 36  1  0
 15 37  1  0
 15 38  1  0
 17 39  1  0
 18 40  1  0
 19 41  1  0
 20 42  1  0
 24 43  1  0
 25 44  1  0
 26 45  1  0
 27 46  1  0
 29 47  1  0
 30 48  1  0
M  CHG  1   9   1
M  END
>  <UniqueID>  (34) 
32

>  <SMILES>  (34) 
COc1ccc(-n2n[nH+]nc2-c2nn(Cc3ccccc3F)c3ccccc23)cc1

>  <Energy>  (34) 
136.78151923456406

>  <Genealogy>  (34) 
COc1ccc(-n2n[nH+]nc2-c2nn(Cc3ccccc3F)c3ccccc23)cc1 (protonated)
COc1ccc(-n2n[nH+]nc2-c2nn(Cc3ccccc3F)c3ccccc23)cc1 (3D coordinates assigned)
COc1ccc(-n2n[nH+]nc2-c2nn(Cc3ccccc3F)c3ccccc23)cc1 (optimized conformer: 136.78151923456406 kcal/mol)

>  <smiles>  (34) 
COc1ccc(-n2nnnc2-c2nn(Cc3ccccc3F)c3ccccc23)cc1

>  <score_type>  (34) 
oracle

>  <origin>  (34) 
adg

>  <m_score__min__energy>  (34) 
-7.6799999999999997

>  <m_primary>  (34) 
energy

$$$$
34:0
     RDKit          3D

 45 46  0  0  0  0  0  0  0  0999 V2000
   59.0650   33.0560   51.1990 C   0  0  0  0  0  0  0  0  0  0  0  0
   58.1480   32.0970   50.4450 C   0  0  0  0  0  0  0  0  0  0  0  0
   58.9470   31.2300   49.4560 C   0  0  0  0  0  0  0  0  0  0  0  0
   59.2110   31.9360   48.1920 N   0  0  0  0  0  0  0  0  0  0  0  0
   58.6080   31.2520   47.0820 C   0  0  0  0  0  0  0  0  0  0  0  0
   58.7310   29.9700   46.8470 O   0  0  0  0  0  0  0  0  0  0  0  0
   58.0350   29.7190   45.7560 C   0  0  0  0  0  0  0  0  0  0  0  0
   57.9320   28.3810   45.1430 C   0  0  0  0  0  0  0  0  0  0  0  0
   58.2290   28.1930   43.7810 C   0  0  0  0  0  0  0  0  0  0  0  0
   58.1380   26.9210   43.2090 C   0  0  0  0  0  0  0  0  0  0  0  0
   57.7500   25.8270   43.9880 C   0  0  0  0  0  0  0  0  0  0  0  0
   57.4540   26.0050   45.3420 C   0  0  0  0  0  0  0  0  0  0  0  0
   57.5450   27.2750   45.9190 C   0  0  0  0  0  0  0  0  0  0  0  0
   57.4330   30.8220   45.2530 N   0  0  0  0  0  0  0  0  0  0  0  0
   57.8090   31.7960   46.1010 C   0  0  0  0  0  0  0  0  0  0  0  0
   57.3170   33.5130   45.9360 S   0  0  0  0  0  0  0  0  0  0  0  0
   58.9880   34.1230   45.5020 C   0  0  0  0  0  0  0  0  0  0  0  0
   59.6440   34.8690   46.6710 C   0  0  0  0  0  0  0  0  0  0  0  0
   60.5710   33.9990   47.4270 N   0  0  0  0  0  0  0  0  0  0  0  0
   60.8740   34.5680   48.7530 C   0  0  0  0  0  0  0  0  0  0  0  0
   61.8240   33.8190   46.6770 C   0  0  0  0  0  0  0  0  0  0  0  0
   58.9312   32.9161   52.2818 H   0  0  0  0  0  0  0  0  0  0  0  0
   60.1115   32.8509   50.9293 H   0  0  0  0  0  0  0  0  0  0  0  0
   58.8132   34.0923   50.9293 H   0  0  0  0  0  0  0  0  0  0  0  0
   57.6403   31.4419   51.1683 H   0  0  0  0  0  0  0  0  0  0  0  0
   57.4141   32.6883   49.8778 H   0  0  0  0  0  0  0  0  0  0  0  0
   59.9075   30.9579   49.9180 H   0  0  0  0  0  0  0  0  0  0  0  0
   58.3480   30.3363   49.2271 H   0  0  0  0  0  0  0  0  0  0  0  0
   60.2440   31.9600   48.0310 H   0  0  0  0  0  0  0  0  0  0  0  0
   58.8700   32.9230   48.2490 H   0  0  0  0  0  0  0  0  0  0  0  0
   58.5341   29.0507   43.1635 H   0  0  0  0  0  0  0  0  0  0  0  0
   58.3722   26.7804   42.1435 H   0  0  0  0  0  0  0  0  0  0  0  0
   57.6778   24.8270   43.5355 H   0  0  0  0  0  0  0  0  0  0  0  0
   57.1488   25.1441   45.9550 H   0  0  0  0  0  0  0  0  0  0  0  0
   57.3125   27.4094   46.9857 H   0  0  0  0  0  0  0  0  0  0  0  0
   59.6198   33.2654   45.2275 H   0  0  0  0  0  0  0  0  0  0  0  0
   58.8877   34.8255   44.6615 H   0  0  0  0  0  0  0  0  0  0  0  0
   60.2052   35.7282   46.2750 H   0  0  0  0  0  0  0  0  0  0  0  0
   58.8487   35.1980   47.3560 H   0  0  0  0  0  0  0  0  0  0  0  0
   60.5110   33.8862   49.5362 H   0  0  0  0  0  0  0  0  0  0  0  0
   61.9613   34.6990   48.8560 H   0  0  0  0  0  0  0  0  0  0  0  0
   60.3758   35.5433   48.8560 H   0  0  0  0  0  0  0  0  0  0  0  0
   62.6595   33.6990   47.3823 H   0  0  0  0  0  0  0  0  0  0  0  0
   61.7469   32.9227   46.0440 H   0  0  0  0  0  0  0  0  0  0  0  0
   62.0023   34.7007   46.0440 H   0  0  0  0  0  0  0  0  0  0  0  0
  1  2  1  0
  2  3  1  0
  3  4  1  0
  4  5  1  0
  5  6  1  0
  6  7  1  0
  7  8  1  0
  8  9  2  0
  9 10  1  0
 10 11  2  0
 11 12  1  0
 12 13  2  0
  7 14  2  0
 14 15  1  0
 15 16  1  0
 16 17  1  0
 17 18  1  0
 18 19  1  0
 19 20  1  0
 19 21  1  0
 15  5  2  0
 13  8  1  0
  1 22  1  0
  1 23  1  0
  1 24  1  0
  2 25  1  0
  2 26  1  0
  3 27  1  0
  3 28  1  0
  4 29  1  0
  4 30  1  0
  9 31  1  0
 10 32  1  0
 11 33  1  0
 12 34  1  0
 13 35  1  0
 17 36  1  0
 17 37  1  0
 18 38  1  0
 18 39  1  0
 20 40  1  0
 20 41  1  0
 20 42  1  0
 21 43  1  0
 21 44  1  0
 21 45  1  0
M  CHG  1   4   1
M  END
>  <UniqueID>  (35) 
33

>  <SMILES>  (35) 
CCC[NH2+]c1oc(-c2ccccc2)nc1SCCN(C)C

>  <Energy>  (35) 
65.00346106783267

>  <Genealogy>  (35) 
CCC[NH2+]c1oc(-c2ccccc2)nc1SCCN(C)C (protonated)
CCC[NH2+]c1oc(-c2ccccc2)nc1SCCN(C)C (3D coordinates assigned)
CCC[NH2+]c1oc(-c2ccccc2)nc1SCCN(C)C (optimized conformer: 65.00346106783267 kcal/mol)

>  <smiles>  (35) 
CCCNc1oc(-c2ccccc2)nc1SCCN(C)C

>  <score_type>  (35) 
oracle

>  <origin>  (35) 
adg

>  <m_score__min__energy>  (35) 
-4.1200000000000001

>  <m_primary>  (35) 
energy

$$$$
35:0
     RDKit          3D

 51 53  0  0  0  0  0  0  0  0999 V2000
   59.1140   33.4860   48.5040 C   0  0  0  0  0  0  0  0  0  0  0  0
   58.9310   33.5090   47.0150 C   0  0  0  0  0  0  0  0  0  0  0  0
   59.4760   34.5530   46.2550 C   0  0  0  0  0  0  0  0  0  0  0  0
   59.2720   34.5990   44.8740 C   0  0  0  0  0  0  0  0  0  0  0  0
   58.5120   33.6110   44.2430 C   0  0  0  0  0  0  0  0  0  0  0  0
   57.9510   32.5650   44.9930 C   0  0  0  0  0  0  0  0  0  0  0  0
   57.1050   31.5230   44.3120 C   0  0  0  0  0  0  0  0  0  0  0  0
   56.7760   30.4510   45.2440 N   0  0  0  0  0  0  0  0  0  0  0  0
   57.4530   29.1880   45.2760 C   0  0  0  0  0  0  0  0  0  0  0  0
   57.5570   28.5060   44.2200 O   0  0  0  0  0  0  0  0  0  0  0  0
   58.0810   28.6730   46.5530 C   0  0  1  0  0  0  0  0  0  0  0  0
   58.9600   27.4200   46.3460 C   0  0  0  0  0  0  0  0  0  0  0  0
   60.2850   27.7020   45.6010 C   0  0  0  0  0  0  0  0  0  0  0  0
   60.6550   29.1910   45.5410 C   0  0  0  0  0  0  0  0  0  0  0  0
   60.2710   29.8700   46.7840 N   0  0  0  0  0  0  0  0  0  0  0  0
   61.1960   30.7330   47.4730 C   0  0  0  0  0  0  0  0  0  0  0  0
   61.7040   31.8210   46.8320 N   0  0  0  0  0  0  0  0  0  0  0  0
   62.5770   32.6600   47.4450 C   0  0  0  0  0  0  0  0  0  0  0  0
   63.1040   33.8520   46.7110 C   0  0  0  0  0  0  0  0  0  0  0  0
   62.9480   32.4230   48.7690 C   0  0  0  0  0  0  0  0  0  0  0  0
   62.3980   31.3220   49.4340 C   0  0  0  0  0  0  0  0  0  0  0  0
   62.7900   31.0240   50.8510 C   0  0  0  0  0  0  0  0  0  0  0  0
   61.5420   30.4930   48.7720 N   0  0  0  0  0  0  0  0  0  0  0  0
   58.8910   29.7690   47.2820 C   0  0  0  0  0  0  0  0  0  0  0  0
   58.1540   32.5240   46.3820 C   0  0  0  0  0  0  0  0  0  0  0  0
   58.1375   33.6087   48.9954 H   0  0  0  0  0  0  0  0  0  0  0  0
   59.5573   32.5251   48.8041 H   0  0  0  0  0  0  0  0  0  0  0  0
   59.7813   34.3073   48.8041 H   0  0  0  0  0  0  0  0  0  0  0  0
   60.0667   35.3391   46.7481 H   0  0  0  0  0  0  0  0  0  0  0  0
   59.7109   35.4153   44.2816 H   0  0  0  0  0  0  0  0  0  0  0  0
   58.3527   33.6527   43.1554 H   0  0  0  0  0  0  0  0  0  0  0  0
   56.1758   31.9886   43.9516 H   0  0  0  0  0  0  0  0  0  0  0  0
   57.6678   31.1018   43.4659 H   0  0  0  0  0  0  0  0  0  0  0  0
   57.2324   28.3750   47.1863 H   0  0  0  0  0  0  0  0  0  0  0  0
   59.2004   26.9983   47.3331 H   0  0  0  0  0  0  0  0  0  0  0  0
   58.3826   26.7242   45.7195 H   0  0  0  0  0  0  0  0  0  0  0  0
   61.0943   27.1636   46.1160 H   0  0  0  0  0  0  0  0  0  0  0  0
   60.1488   27.3627   44.5635 H   0  0  0  0  0  0  0  0  0  0  0  0
   61.7412   29.2879   45.3970 H   0  0  0  0  0  0  0  0  0  0  0  0
   60.1165   29.6563   44.7022 H   0  0  0  0  0  0  0  0  0  0  0  0
   63.4390   34.6097   47.4347 H   0  0  0  0  0  0  0  0  0  0  0  0
   63.9517   33.5483   46.0792 H   0  0  0  0  0  0  0  0  0  0  0  0
   62.3089   34.2746   46.0792 H   0  0  0  0  0  0  0  0  0  0  0  0
   63.6591   33.0889   49.2799 H   0  0  0  0  0  0  0  0  0  0  0  0
   62.1059   31.5440   51.5378 H   0  0  0  0  0  0  0  0  0  0  0  0
   62.7322   29.9397   51.0271 H   0  0  0  0  0  0  0  0  0  0  0  0
   63.8193   31.3697   51.0271 H   0  0  0  0  0  0  0  0  0  0  0  0
   61.1200   29.6850   49.2820 H   0  0  0  0  0  0  0  0  0  0  0  0
   58.9193   29.5322   48.3558 H   0  0  0  0  0  0  0  0  0  0  0  0
   58.3953   30.7330   47.0951 H   0  0  0  0  0  0  0  0  0  0  0  0
   57.7025   31.7168   46.9774 H   0  0  0  0  0  0  0  0  0  0  0  0
  1  2  1  0
  2  3  2  0
  3  4  1  0
  4  5  2  0
  5  6  1  0
  6  7  1  0
  7  8  1  0
  8  9  1  0
  9 10  2  0
  9 11  1  0
 11 12  1  0
 12 13  1  0
 13 14  1  0
 14 15  1  0
 15 16  1  0
 16 17  2  0
 17 18  1  0
 18 19  1  0
 18 20  2  0
 20 21  1  0
 21 22  1  0
 21 23  2  0
 15 24  1  0
  6 25  2  0
 25  2  1  0
 24 11  1  0
 23 16  1  0
  1 26  1  0
  1 27  1  0
  1 28  1  0
  3 29  1  0
  4 30  1  0
  5 31  1  0
  7 32  1  0
  7 33  1  0
 11 34  1  1
 12 35  1  0
 12 36  1  0
 13 37  1  0
 13 38  1  0
 14 39  1  0
 14 40  1  0
 19 41  1  0
 19 42  1  0
 19 43  1  0
 20 44  1  0
 22 45  1  0
 22 46  1  0
 22 47  1  0
 23 48  1  0
 24 49  1  0
 24 50  1  0
 25 51  1  0
M  CHG  2   8  -1  23   1
M  END
>  <UniqueID>  (36) 
34

>  <SMILES>  (36) 
Cc1cccc(C[N-]C(=O)[C@H]2CCCN(c3nc(C)cc(C)[nH+]3)C2)c1

>  <Energy>  (36) 
53.521797345894875

>  <Genealogy>  (36) 
Cc1cccc(C[N-]C(=O)C2CCCN(c3nc(C)cc(C)[nH+]3)C2)c1 (protonated)
Cc1cccc(C[N-]C(=O)[C@H]2CCCN(c3nc(C)cc(C)[nH+]3)C2)c1 (chirality)
Cc1cccc(C[N-]C(=O)[C@H]2CCCN(c3nc(C)cc(C)[nH+]3)C2)c1 (3D coordinates assigned)
Cc1cccc(C[N-]C(=O)[C@H]2CCCN(c3nc(C)cc(C)[nH+]3)C2)c1 (nonaromatic ring conformer: 53.521797345894875 kcal/mol)

>  <smiles>  (36) 
Cc1cccc(CNC(=O)C2CCCN(c3nc(C)cc(C)n3)C2)c1

>  <score_type>  (36) 
oracle

>  <origin>  (36) 
adg

>  <m_score__min__energy>  (36) 
-8.9100000000000001

>  <m_primary>  (36) 
energy

$$$$
36:0
     RDKit          3D

 61 63  0  0  0  0  0  0  0  0999 V2000
   59.7960   30.0410   48.3160 C   0  0  0  0  0  0  0  0  0  0  0  0
   60.5600   30.7920   47.2240 C   0  0  0  0  0  0  0  0  0  0  0  0
   59.6130   31.4770   46.1890 C   0  0  2  0  0  0  0  0  0  0  0  0
   58.7860   32.5590   46.8500 C   0  0  0  0  0  0  0  0  0  0  0  0
   57.9790   32.2580   47.7720 O   0  0  0  0  0  0  0  0  0  0  0  0
   58.7650   33.8870   46.3020 N   0  0  0  0  0  0  0  0  0  0  0  0
   59.4760   34.9720   46.9930 C   0  0  0  0  0  0  0  0  0  0  0  0
   60.2260   34.4350   48.1800 C   0  0  0  0  0  0  0  0  0  0  0  0
   59.7000   34.1130   49.4140 C   0  0  0  0  0  0  0  0  0  0  0  0
   60.7190   33.6330   50.1460 N   0  0  0  0  0  0  0  0  0  0  0  0
   60.6580   33.1960   51.5380 C   0  0  0  0  0  0  0  0  0  0  0  0
   59.8890   31.8810   51.6660 C   0  0  0  0  0  0  0  0  0  0  0  0
   58.5240   32.1430   51.9340 O   0  0  0  0  0  0  0  0  0  0  0  0
   57.6820   31.5430   50.9680 C   0  0  0  0  0  0  0  0  0  0  0  0
   57.0690   30.4200   51.5580 O   0  0  0  0  0  0  0  0  0  0  0  0
   55.8310   30.8000   52.1170 C   0  0  0  0  0  0  0  0  0  0  0  0
   61.8190   33.6630   49.4100 N   0  0  0  0  0  0  0  0  0  0  0  0
   61.5360   34.1460   48.2070 N   0  0  0  0  0  0  0  0  0  0  0  0
   57.8660   34.1990   45.1870 C   0  0  0  0  0  0  0  0  0  0  0  0
   58.0560   33.2230   44.0270 C   0  0  0  0  0  0  0  0  0  0  0  0
   57.6640   31.4860   44.3390 S   0  0  0  0  0  0  0  0  0  0  0  0
   56.2490   31.5060   44.8440 O   0  0  0  0  0  0  0  0  0  0  0  0
   57.6800   30.7750   43.0140 O   0  0  0  0  0  0  0  0  0  0  0  0
   58.6410   30.5810   45.5050 N   0  0  0  0  0  0  0  0  0  0  0  0
   59.2240   29.3810   44.8570 C   0  0  0  0  0  0  0  0  0  0  0  0
   58.8180   28.1170   45.5700 C   0  0  0  0  0  0  0  0  0  0  0  0
   57.4490   27.7990   45.7070 C   0  0  0  0  0  0  0  0  0  0  0  0
   57.0680   26.6080   46.3310 C   0  0  0  0  0  0  0  0  0  0  0  0
   58.0350   25.7420   46.8400 C   0  0  0  0  0  0  0  0  0  0  0  0
   57.6640   24.5870   47.4440 F   0  0  0  0  0  0  0  0  0  0  0  0
   59.3950   26.0630   46.7280 C   0  0  0  0  0  0  0  0  0  0  0  0
   59.7840   27.2500   46.1000 C   0  0  0  0  0  0  0  0  0  0  0  0
   60.1408   30.3800   49.3040 H   0  0  0  0  0  0  0  0  0  0  0  0
   58.7193   30.2420   48.2146 H   0  0  0  0  0  0  0  0  0  0  0  0
   59.9785   28.9610   48.2146 H   0  0  0  0  0  0  0  0  0  0  0  0
   61.1818   31.5657   47.6981 H   0  0  0  0  0  0  0  0  0  0  0  0
   61.1707   30.0565   46.6798 H   0  0  0  0  0  0  0  0  0  0  0  0
   60.3131   31.8620   45.4330 H   0  0  0  0  0  0  0  0  0  0  0  0
   60.1871   35.4404   46.2966 H   0  0  0  0  0  0  0  0  0  0  0  0
   58.7425   35.7144   47.3406 H   0  0  0  0  0  0  0  0  0  0  0  0
   58.6540   34.2267   49.7348 H   0  0  0  0  0  0  0  0  0  0  0  0
   61.6813   33.0525   51.9152 H   0  0  0  0  0  0  0  0  0  0  0  0
   60.1356   33.9661   52.1246 H   0  0  0  0  0  0  0  0  0  0  0  0
   59.9739   31.3163   50.7258 H   0  0  0  0  0  0  0  0  0  0  0  0
   60.3133   31.2934   52.4935 H   0  0  0  0  0  0  0  0  0  0  0  0
   56.9134   32.2610   50.6460 H   0  0  0  0  0  0  0  0  0  0  0  0
   58.2681   31.2387   50.0883 H   0  0  0  0  0  0  0  0  0  0  0  0
   55.9021   30.7782   53.2145 H   0  0  0  0  0  0  0  0  0  0  0  0
   55.5763   31.8177   51.7862 H   0  0  0  0  0  0  0  0  0  0  0  0
   55.0492   30.1005   51.7862 H   0  0  0  0  0  0  0  0  0  0  0  0
   62.2250   34.2750   47.4350 H   0  0  0  0  0  0  0  0  0  0  0  0
   56.8255   34.1385   45.5387 H   0  0  0  0  0  0  0  0  0  0  0  0
   58.0988   35.2124   44.8281 H   0  0  0  0  0  0  0  0  0  0  0  0
   57.4163   33.5635   43.1994 H   0  0  0  0  0  0  0  0  0  0  0  0
   59.1357   33.2376   43.8170 H   0  0  0  0  0  0  0  0  0  0  0  0
   58.8745   29.3319   43.8152 H   0  0  0  0  0  0  0  0  0  0  0  0
   60.3201   29.4642   44.8985 H   0  0  0  0  0  0  0  0  0  0  0  0
   56.6828   28.4884   45.3227 H   0  0  0  0  0  0  0  0  0  0  0  0
   56.0018   26.3529   46.4209 H   0  0  0  0  0  0  0  0  0  0  0  0
   60.1563   25.3808   47.1343 H   0  0  0  0  0  0  0  0  0  0  0  0
   60.8513   27.5045   46.0215 H   0  0  0  0  0  0  0  0  0  0  0  0
  1  2  1  0
  2  3  1  0
  3  4  1  0
  4  5  2  0
  4  6  1  0
  6  7  1  0
  7  8  1  0
  8  9  2  0
  9 10  1  0
 10 11  1  0
 11 12  1  0
 12 13  1  0
 13 14  1  0
 14 15  1  0
 15 16  1  0
 10 17  1  0
 17 18  2  0
  6 19  1  0
 19 20  1  0
 20 21  1  0
 21 22  2  0
 21 23  2  0
 21 24  1  0
 24 25  1  0
 25 26  1  0
 26 27  2  0
 27 28  1  0
 28 29  2  0
 29 30  1  0
 29 31  1  0
 31 32  2  0
 24  3  1  0
 32 26  1  0
 18  8  1  0
  1 33  1  0
  1 34  1  0
  1 35  1  0
  2 36  1  0
  2 37  1  0
  3 38  1  6
  7 39  1  0
  7 40  1  0
  9 41  1  0
 11 42  1  0
 11 43  1  0
 12 44  1  0
 12 45  1  0
 14 46  1  0
 14 47  1  0
 16 48  1  0
 16 49  1  0
 16 50  1  0
 18 51  1  0
 19 52  1  0
 19 53  1  0
 20 54  1  0
 20 55  1  0
 25 56  1  0
 25 57  1  0
 27 58  1  0
 28 59  1  0
 31 60  1  0
 32 61  1  0
M  CHG  1  18   1
M  END
>  <UniqueID>  (37) 
35

>  <SMILES>  (37) 
CC[C@@H]1C(=O)N(Cc2cn(CCOCOC)n[nH+]2)CCS(=O)(=O)N1Cc1ccc(F)cc1

>  <Energy>  (37) 
105.80988597842718

>  <Genealogy>  (37) 
CCC1C(=O)N(Cc2cn(CCOCOC)n[nH+]2)CCS(=O)(=O)N1Cc1ccc(F)cc1 (protonated)
CC[C@@H]1C(=O)N(Cc2cn(CCOCOC)n[nH+]2)CCS(=O)(=O)N1Cc1ccc(F)cc1 (chirality)
CC[C@@H]1C(=O)N(Cc2cn(CCOCOC)n[nH+]2)CCS(=O)(=O)N1Cc1ccc(F)cc1 (3D coordinates assigned)
CC[C@@H]1C(=O)N(Cc2cn(CCOCOC)n[nH+]2)CCS(=O)(=O)N1Cc1ccc(F)cc1 (nonaromatic ring conformer: 105.80988597842718 kcal/mol)

>  <smiles>  (37) 
CCC1C(=O)N(Cc2cn(CCOCOC)nn2)CCS(=O)(=O)N1Cc1ccc(F)cc1

>  <score_type>  (37) 
oracle

>  <origin>  (37) 
adg

>  <m_score__min__energy>  (37) 
-4.8399999999999999

>  <m_primary>  (37) 
energy

$$$$
37:0
     RDKit          3D

 52 55  0  0  0  0  0  0  0  0999 V2000
   56.1170   23.3710   44.0260 C   0  0  0  0  0  0  0  0  0  0  0  0
   55.1120   23.4130   45.1720 C   0  0  0  0  0  0  0  0  0  0  0  0
   55.7850   23.8170   46.4880 C   0  0  0  0  0  0  0  0  0  0  0  0
   56.6080   25.0260   46.2920 N   0  0  0  0  0  0  0  0  0  0  0  0
   56.0020   26.2290   46.0100 C   0  0  0  0  0  0  0  0  0  0  0  0
   54.7460   26.3330   45.9330 O   0  0  0  0  0  0  0  0  0  0  0  0
   56.8040   27.3360   45.8010 C   0  0  0  0  0  0  0  0  0  0  0  0
   56.4410   28.5940   45.5030 N   0  0  0  0  0  0  0  0  0  0  0  0
   57.6430   29.2200   45.3960 C   0  0  0  0  0  0  0  0  0  0  0  0
   57.7690   30.6460   45.0730 C   0  0  0  0  0  0  0  0  0  0  0  0
   56.9210   31.4070   44.2890 C   0  0  0  0  0  0  0  0  0  0  0  0
   57.3730   32.6760   44.2550 N   0  0  0  0  0  0  0  0  0  0  0  0
   58.4800   32.7270   44.9810 N   0  0  0  0  0  0  0  0  0  0  0  0
   59.2270   33.9530   45.2390 C   0  0  0  0  0  0  0  0  0  0  0  0
   59.9420   33.8450   46.5570 C   0  0  0  0  0  0  0  0  0  0  0  0
   59.2340   33.9910   47.7600 C   0  0  0  0  0  0  0  0  0  0  0  0
   59.8910   33.8490   48.9860 C   0  0  0  0  0  0  0  0  0  0  0  0
   61.2560   33.5510   49.0180 C   0  0  0  0  0  0  0  0  0  0  0  0
   61.9650   33.3870   47.8240 C   0  0  0  0  0  0  0  0  0  0  0  0
   63.2870   33.0880   47.8560 F   0  0  0  0  0  0  0  0  0  0  0  0
   61.3100   33.5290   46.5960 C   0  0  0  0  0  0  0  0  0  0  0  0
   58.7480   31.5150   45.5040 C   0  0  0  0  0  0  0  0  0  0  0  0
   58.7200   28.4180   45.6070 N   0  0  0  0  0  0  0  0  0  0  0  0
   58.1450   27.2330   45.8640 C   0  0  0  0  0  0  0  0  0  0  0  0
   58.7750   26.0570   46.1340 N   0  0  0  0  0  0  0  0  0  0  0  0
   60.2450   25.9830   46.1450 C   0  0  0  0  0  0  0  0  0  0  0  0
   60.8140   26.9120   47.2220 C   0  0  0  0  0  0  0  0  0  0  0  0
   60.0330   26.7900   48.5270 C   0  0  0  0  0  0  0  0  0  0  0  0
   57.9920   24.9380   46.3300 C   0  0  0  0  0  0  0  0  0  0  0  0
   58.5440   23.8210   46.5390 O   0  0  0  0  0  0  0  0  0  0  0  0
   57.1374   23.3284   44.4346 H   0  0  0  0  0  0  0  0  0  0  0  0
   55.9318   22.4798   43.4084 H   0  0  0  0  0  0  0  0  0  0  0  0
   56.0068   24.2745   43.4084 H   0  0  0  0  0  0  0  0  0  0  0  0
   54.3257   24.1440   44.9325 H   0  0  0  0  0  0  0  0  0  0  0  0
   54.6838   22.4073   45.2954 H   0  0  0  0  0  0  0  0  0  0  0  0
   55.0118   24.0228   47.2428 H   0  0  0  0  0  0  0  0  0  0  0  0
   56.4322   22.9944   46.8263 H   0  0  0  0  0  0  0  0  0  0  0  0
   56.0218   31.0359   43.7755 H   0  0  0  0  0  0  0  0  0  0  0  0
   59.9626   34.1084   44.4360 H   0  0  0  0  0  0  0  0  0  0  0  0
   58.5299   34.8032   45.2722 H   0  0  0  0  0  0  0  0  0  0  0  0
   58.1579   34.2181   47.7382 H   0  0  0  0  0  0  0  0  0  0  0  0
   59.3331   33.9719   49.9260 H   0  0  0  0  0  0  0  0  0  0  0  0
   61.7730   33.4454   49.9832 H   0  0  0  0  0  0  0  0  0  0  0  0
   61.8681   33.3927   45.6580 H   0  0  0  0  0  0  0  0  0  0  0  0
   59.5962   31.2639   46.1579 H   0  0  0  0  0  0  0  0  0  0  0  0
   60.5551   24.9490   46.3564 H   0  0  0  0  0  0  0  0  0  0  0  0
   60.6273   26.2966   45.1624 H   0  0  0  0  0  0  0  0  0  0  0  0
   61.8650   26.6451   47.4069 H   0  0  0  0  0  0  0  0  0  0  0  0
   60.7335   27.9491   46.8644 H   0  0  0  0  0  0  0  0  0  0  0  0
   60.7217   26.8976   49.3779 H   0  0  0  0  0  0  0  0  0  0  0  0
   59.2685   27.5796   48.5720 H   0  0  0  0  0  0  0  0  0  0  0  0
   59.5457   25.8048   48.5720 H   0  0  0  0  0  0  0  0  0  0  0  0
  1  2  1  0
  2  3  1  0
  3  4  1  0
  4  5  1  0
  5  6  2  0
  5  7  1  0
  7  8  1  0
  8  9  1  0
  9 10  1  0
 10 11  1  0
 11 12  2  0
 12 13  1  0
 13 14  1  0
 14 15  1  0
 15 16  2  0
 16 17  1  0
 17 18  2  0
 18 19  1  0
 19 20  1  0
 19 21  2  0
 13 22  1  0
  9 23  2  0
 23 24  1  0
 24 25  1  0
 25 26  1  0
 26 27  1  0
 27 28  1  0
 25 29  1  0
 29 30  2  0
 29  4  1  0
 24  7  2  0
 22 10  2  0
 21 15  1  0
  1 31  1  0
  1 32  1  0
  1 33  1  0
  2 34  1  0
  2 35  1  0
  3 36  1  0
  3 37  1  0
 11 38  1  0
 14 39  1  0
 14 40  1  0
 16 41  1  0
 17 42  1  0
 18 43  1  0
 21 44  1  0
 22 45  1  0
 26 46  1  0
 26 47  1  0
 27 48  1  0
 27 49  1  0
 28 50  1  0
 28 51  1  0
 28 52  1  0
M  CHG  1   8  -1
M  END
>  <UniqueID>  (38) 
36

>  <SMILES>  (38) 
CCCn1c(=O)c2[n-]c(-c3cnn(Cc4cccc(F)c4)c3)nc2n(CCC)c1=O

>  <Energy>  (38) 
115.36287194223755

>  <Genealogy>  (38) 
CCCn1c(=O)c2[n-]c(-c3cnn(Cc4cccc(F)c4)c3)nc2n(CCC)c1=O (protonated)
CCCn1c(=O)c2[n-]c(-c3cnn(Cc4cccc(F)c4)c3)nc2n(CCC)c1=O (3D coordinates assigned)
CCCn1c(=O)c2[n-]c(-c3cnn(Cc4cccc(F)c4)c3)nc2n(CCC)c1=O (optimized conformer: 115.36287194223755 kcal/mol)

>  <smiles>  (38) 
CCCn1c(=O)c2[nH]c(-c3cnn(Cc4cccc(F)c4)c3)nc2n(CCC)c1=O

>  <score_type>  (38) 
oracle

>  <origin>  (38) 
adg

>  <m_score__min__energy>  (38) 
-9.6999999999999993

>  <m_primary>  (38) 
energy

$$$$
38:0
     RDKit          3D

 49 51  0  0  0  0  0  0  0  0999 V2000
   54.1130   25.1390   45.6190 C   0  0  0  0  0  0  0  0  0  0  0  0
   54.8930   26.3000   45.8890 O   0  0  0  0  0  0  0  0  0  0  0  0
   56.2610   26.2850   46.2090 C   0  0  0  0  0  0  0  0  0  0  0  0
   56.8690   25.1680   46.8190 C   0  0  0  0  0  0  0  0  0  0  0  0
   58.2360   25.1770   47.1070 C   0  0  0  0  0  0  0  0  0  0  0  0
   59.0110   26.2910   46.7890 C   0  0  0  0  0  0  0  0  0  0  0  0
   58.4230   27.4060   46.1880 C   0  0  0  0  0  0  0  0  0  0  0  0
   57.0460   27.4180   45.9090 C   0  0  0  0  0  0  0  0  0  0  0  0
   56.4350   28.6150   45.2320 C   0  0  0  0  0  0  0  0  0  0  0  0
   57.4340   29.6680   45.1240 N   0  0  0  0  0  0  0  0  0  0  0  0
   57.1110   31.0100   44.7520 C   0  0  0  0  0  0  0  0  0  0  0  0
   55.9180   31.3360   44.5080 O   0  0  0  0  0  0  0  0  0  0  0  0
   58.2000   32.0300   44.6520 C   0  0  0  0  0  0  0  0  0  0  0  0
   58.3020   32.7820   45.9120 N   0  0  0  0  0  0  0  0  0  0  0  0
   58.1360   32.0640   47.1870 C   0  0  0  0  0  0  0  0  0  0  0  0
   59.2540   31.0880   47.3860 C   0  0  0  0  0  0  0  0  0  0  0  0
   59.2880   30.0820   48.3310 C   0  0  0  0  0  0  0  0  0  0  0  0
   60.4940   29.4410   48.1420 C   0  0  0  0  0  0  0  0  0  0  0  0
   61.1140   30.0910   47.0930 C   0  0  0  0  0  0  0  0  0  0  0  0
   60.3480   31.0670   46.6620 O   0  0  0  0  0  0  0  0  0  0  0  0
   58.5340   34.2120   45.8650 C   0  0  0  0  0  0  0  0  0  0  0  0
   58.2520   34.8490   44.8110 O   0  0  0  0  0  0  0  0  0  0  0  0
   59.1740   34.9540   47.0150 C   0  0  0  0  0  0  0  0  0  0  0  0
   60.4680   34.3240   47.4360 C   0  0  0  0  0  0  0  0  0  0  0  0
   60.8850   34.1250   48.7460 C   0  0  0  0  0  0  0  0  0  0  0  0
   62.1690   33.5730   48.8360 C   0  0  0  0  0  0  0  0  0  0  0  0
   62.7670   33.3490   47.6020 C   0  0  0  0  0  0  0  0  0  0  0  0
   61.6990   33.8400   46.3990 S   0  0  0  0  0  0  0  0  0  0  0  0
   53.8026   24.6770   46.5678 H   0  0  0  0  0  0  0  0  0  0  0  0
   53.2215   25.4226   45.0404 H   0  0  0  0  0  0  0  0  0  0  0  0
   54.7126   24.4209   45.0404 H   0  0  0  0  0  0  0  0  0  0  0  0
   56.2633   24.2846   47.0694 H   0  0  0  0  0  0  0  0  0  0  0  0
   58.7017   24.3030   47.5858 H   0  0  0  0  0  0  0  0  0  0  0  0
   60.0882   26.2919   47.0119 H   0  0  0  0  0  0  0  0  0  0  0  0
   59.0409   28.2792   45.9318 H   0  0  0  0  0  0  0  0  0  0  0  0
   56.0891   28.3320   44.2269 H   0  0  0  0  0  0  0  0  0  0  0  0
   55.5806   28.9766   45.8229 H   0  0  0  0  0  0  0  0  0  0  0  0
   59.1558   31.5239   44.4514 H   0  0  0  0  0  0  0  0  0  0  0  0
   57.9679   32.7270   43.8332 H   0  0  0  0  0  0  0  0  0  0  0  0
   58.1365   32.7892   48.0141 H   0  0  0  0  0  0  0  0  0  0  0  0
   57.1829   31.5152   47.1659 H   0  0  0  0  0  0  0  0  0  0  0  0
   58.5160   29.8425   49.0771 H   0  0  0  0  0  0  0  0  0  0  0  0
   60.8837   28.5846   48.7118 H   0  0  0  0  0  0  0  0  0  0  0  0
   62.1001   29.8307   46.6808 H   0  0  0  0  0  0  0  0  0  0  0  0
   59.3679   35.9914   46.7049 H   0  0  0  0  0  0  0  0  0  0  0  0
   58.4833   34.9182   47.8703 H   0  0  0  0  0  0  0  0  0  0  0  0
   60.2698   34.3753   49.6228 H   0  0  0  0  0  0  0  0  0  0  0  0
   62.6579   33.3389   49.7932 H   0  0  0  0  0  0  0  0  0  0  0  0
   63.7681   32.9232   47.4395 H   0  0  0  0  0  0  0  0  0  0  0  0
  1  2  1  0
  2  3  1  0
  3  4  2  0
  4  5  1  0
  5  6  2  0
  6  7  1  0
  7  8  2  0
  8  9  1  0
  9 10  1  0
 10 11  1  0
 11 12  2  0
 11 13  1  0
 13 14  1  0
 14 15  1  0
 15 16  1  0
 16 17  2  0
 17 18  1  0
 18 19  2  0
 19 20  1  0
 14 21  1  0
 21 22  2  0
 21 23  1  0
 23 24  1  0
 24 25  2  0
 25 26  1  0
 26 27  2  0
 27 28  1  0
  8  3  1  0
 20 16  1  0
 28 24  1  0
  1 29  1  0
  1 30  1  0
  1 31  1  0
  4 32  1  0
  5 33  1  0
  6 34  1  0
  7 35  1  0
  9 36  1  0
  9 37  1  0
 13 38  1  0
 13 39  1  0
 15 40  1  0
 15 41  1  0
 17 42  1  0
 18 43  1  0
 19 44  1  0
 23 45  1  0
 23 46  1  0
 25 47  1  0
 26 48  1  0
 27 49  1  0
M  CHG  1  10  -1
M  END
>  <UniqueID>  (39) 
37

>  <SMILES>  (39) 
COc1ccccc1C[N-]C(=O)CN(Cc1ccco1)C(=O)Cc1cccs1

>  <Energy>  (39) 
95.26658036813261

>  <Genealogy>  (39) 
COc1ccccc1C[N-]C(=O)CN(Cc1ccco1)C(=O)Cc1cccs1 (protonated)
COc1ccccc1C[N-]C(=O)CN(Cc1ccco1)C(=O)Cc1cccs1 (3D coordinates assigned)
COc1ccccc1C[N-]C(=O)CN(Cc1ccco1)C(=O)Cc1cccs1 (optimized conformer: 95.26658036813261 kcal/mol)

>  <smiles>  (39) 
COc1ccccc1CNC(=O)CN(Cc1ccco1)C(=O)Cc1cccs1

>  <score_type>  (39) 
oracle

>  <origin>  (39) 
adg

>  <m_score__min__energy>  (39) 
-9.5299999999999994

>  <m_primary>  (39) 
energy

$$$$
39:0
     RDKit          3D

 35 37  0  0  0  0  0  0  0  0999 V2000
   56.2920   24.9830   45.0860 C   0  0  0  0  0  0  0  0  0  0  0  0
   55.6180   26.4040   46.0030 S   0  0  0  0  0  0  0  0  0  0  0  0
   57.0600   27.4320   45.6900 C   0  0  0  0  0  0  0  0  0  0  0  0
   57.1010   28.7320   45.1760 C   0  0  0  0  0  0  0  0  0  0  0  0
   55.9070   29.5290   44.7920 C   0  0  0  0  0  0  0  0  0  0  0  0
   54.8270   28.9670   44.4770 O   0  0  0  0  0  0  0  0  0  0  0  0
   55.9620   30.9170   44.7790 O   0  0  0  0  0  0  0  0  0  0  0  0
   58.4000   29.1470   45.0730 N   0  0  0  0  0  0  0  0  0  0  0  0
   58.8950   30.4350   44.5630 C   0  0  0  0  0  0  0  0  0  0  0  0
   58.8890   31.4870   45.6440 C   0  0  0  0  0  0  0  0  0  0  0  0
   59.9940   31.6390   46.4960 C   0  0  0  0  0  0  0  0  0  0  0  0
   59.9620   32.6070   47.5010 C   0  0  0  0  0  0  0  0  0  0  0  0
   58.8290   33.4040   47.6600 C   0  0  0  0  0  0  0  0  0  0  0  0
   57.7380   33.2170   46.8100 C   0  0  0  0  0  0  0  0  0  0  0  0
   57.7840   32.2690   45.8330 N   0  0  0  0  0  0  0  0  0  0  0  0
   59.1570   28.1130   45.5120 C   0  0  0  0  0  0  0  0  0  0  0  0
   60.5550   28.0250   45.5810 C   0  0  0  0  0  0  0  0  0  0  0  0
   61.1240   26.8330   46.0630 C   0  0  0  0  0  0  0  0  0  0  0  0
   60.3020   25.7580   46.4610 C   0  0  0  0  0  0  0  0  0  0  0  0
   58.9040   25.8650   46.3760 C   0  0  0  0  0  0  0  0  0  0  0  0
   58.3670   27.0600   45.8970 C   0  0  0  0  0  0  0  0  0  0  0  0
   56.6516   24.2248   45.7972 H   0  0  0  0  0  0  0  0  0  0  0  0
   55.5043   24.5479   44.4533 H   0  0  0  0  0  0  0  0  0  0  0  0
   57.1273   25.3177   44.4533 H   0  0  0  0  0  0  0  0  0  0  0  0
   59.9234   30.3042   44.1951 H   0  0  0  0  0  0  0  0  0  0  0  0
   58.2321   30.7663   43.7501 H   0  0  0  0  0  0  0  0  0  0  0  0
   60.8800   30.9990   46.3724 H   0  0  0  0  0  0  0  0  0  0  0  0
   60.8282   32.7408   48.1657 H   0  0  0  0  0  0  0  0  0  0  0  0
   58.7954   34.1719   48.4469 H   0  0  0  0  0  0  0  0  0  0  0  0
   56.8376   33.8375   46.9295 H   0  0  0  0  0  0  0  0  0  0  0  0
   56.9470   32.1490   45.2210 H   0  0  0  0  0  0  0  0  0  0  0  0
   61.1897   28.8665   45.2663 H   0  0  0  0  0  0  0  0  0  0  0  0
   62.2178   26.7381   46.1302 H   0  0  0  0  0  0  0  0  0  0  0  0
   60.7580   24.8314   46.8398 H   0  0  0  0  0  0  0  0  0  0  0  0
   58.2525   25.0318   46.6780 H   0  0  0  0  0  0  0  0  0  0  0  0
  1  2  1  0
  2  3  1  0
  3  4  2  0
  4  5  1  0
  5  6  2  0
  5  7  1  0
  4  8  1  0
  8  9  1  0
  9 10  1  0
 10 11  2  0
 11 12  1  0
 12 13  2  0
 13 14  1  0
 14 15  2  0
  8 16  1  0
 16 17  2  0
 17 18  1  0
 18 19  2  0
 19 20  1  0
 20 21  2  0
 21  3  1  0
 15 10  1  0
 21 16  1  0
  1 22  1  0
  1 23  1  0
  1 24  1  0
  9 25  1  0
  9 26  1  0
 11 27  1  0
 12 28  1  0
 13 29  1  0
 14 30  1  0
 15 31  1  0
 17 32  1  0
 18 33  1  0
 19 34  1  0
 20 35  1  0
M  CHG  2   7  -1  15   1
M  END
>  <UniqueID>  (40) 
38

>  <SMILES>  (40) 
CSc1c(C(=O)[O-])n(Cc2cccc[nH+]2)c2ccccc12

>  <Energy>  (40) 
70.0553428993853

>  <Genealogy>  (40) 
CSc1c(C(=O)[O-])n(Cc2cccc[nH+]2)c2ccccc12 (protonated)
CSc1c(C(=O)[O-])n(Cc2cccc[nH+]2)c2ccccc12 (3D coordinates assigned)
CSc1c(C(=O)[O-])n(Cc2cccc[nH+]2)c2ccccc12 (optimized conformer: 70.0553428993853 kcal/mol)

>  <smiles>  (40) 
CSc1c(C(=O)O)n(Cc2ccccn2)c2ccccc12

>  <score_type>  (40) 
oracle

>  <origin>  (40) 
adg

>  <m_score__min__energy>  (40) 
-6.8300000000000001

>  <m_primary>  (40) 
energy

$$$$
40:0
     RDKit          3D

 52 55  0  0  0  0  0  0  0  0999 V2000
   55.8480   28.5450   45.2470 O   0  0  0  0  0  0  0  0  0  0  0  0
   56.7020   29.4630   45.1400 C   0  0  0  0  0  0  0  0  0  0  0  0
   56.2840   30.7320   44.6180 N   0  0  0  0  0  0  0  0  0  0  0  0
   57.0650   31.6070   43.7440 C   0  0  0  0  0  0  0  0  0  0  0  0
   57.4060   32.9410   44.4330 C   0  0  0  0  0  0  0  0  0  0  0  0
   58.3920   32.7900   45.6180 C   0  0  1  0  0  0  0  0  0  0  0  0
   59.6540   33.6780   45.4480 C   0  0  0  0  0  0  0  0  0  0  0  0
   59.6260   34.9000   46.3650 C   0  0  0  0  0  0  0  0  0  0  0  0
   59.4910   34.4830   47.8440 C   0  0  0  0  0  0  0  0  0  0  0  0
   58.5970   33.3170   48.0670 N   0  0  0  0  0  0  0  0  0  0  0  0
   59.3320   32.0910   48.4480 C   0  0  0  0  0  0  0  0  0  0  0  0
   60.7980   32.3960   48.6060 C   0  0  0  0  0  0  0  0  0  0  0  0
   61.6810   32.2630   47.5200 C   0  0  0  0  0  0  0  0  0  0  0  0
   63.0400   32.5580   47.6740 C   0  0  0  0  0  0  0  0  0  0  0  0
   63.5230   32.9860   48.9130 C   0  0  0  0  0  0  0  0  0  0  0  0
   62.6440   33.1510   49.9910 C   0  0  0  0  0  0  0  0  0  0  0  0
   61.2890   32.8430   49.8450 C   0  0  0  0  0  0  0  0  0  0  0  0
   63.1430   33.6250   51.2080 O   0  0  0  0  0  0  0  0  0  0  0  0
   64.4500   34.2000   51.2960 C   0  0  0  0  0  0  0  0  0  0  0  0
   65.4310   33.4240   50.4070 C   0  0  0  0  0  0  0  0  0  0  0  0
   64.8830   33.2540   49.0980 O   0  0  0  0  0  0  0  0  0  0  0  0
   57.6580   33.0840   46.9510 C   0  0  0  0  0  0  0  0  0  0  0  0
   58.0970   29.1890   45.5270 C   0  0  0  0  0  0  0  0  0  0  0  0
   59.1320   28.9410   44.6100 C   0  0  0  0  0  0  0  0  0  0  0  0
   60.3660   28.7300   45.2090 C   0  0  0  0  0  0  0  0  0  0  0  0
   60.1700   28.8740   46.8710 S   0  0  0  0  0  0  0  0  0  0  0  0
   58.5220   29.2020   46.8510 C   0  0  0  0  0  0  0  0  0  0  0  0
   58.0007   31.0965   43.4722 H   0  0  0  0  0  0  0  0  0  0  0  0
   56.4623   31.8263   42.8504 H   0  0  0  0  0  0  0  0  0  0  0  0
   57.8575   33.6124   43.6877 H   0  0  0  0  0  0  0  0  0  0  0  0
   56.4674   33.3430   44.8422 H   0  0  0  0  0  0  0  0  0  0  0  0
   58.7516   31.7506   45.6355 H   0  0  0  0  0  0  0  0  0  0  0  0
   60.5446   33.0774   45.6848 H   0  0  0  0  0  0  0  0  0  0  0  0
   59.6783   34.0359   44.4081 H   0  0  0  0  0  0  0  0  0  0  0  0
   60.5595   35.4674   46.2357 H   0  0  0  0  0  0  0  0  0  0  0  0
   58.7567   35.5181   46.0961 H   0  0  0  0  0  0  0  0  0  0  0  0
   60.4915   34.2287   48.2238 H   0  0  0  0  0  0  0  0  0  0  0  0
   59.0391   35.3347   48.3735 H   0  0  0  0  0  0  0  0  0  0  0  0
   58.9348   31.7096   49.4002 H   0  0  0  0  0  0  0  0  0  0  0  0
   59.2041   31.3344   47.6599 H   0  0  0  0  0  0  0  0  0  0  0  0
   61.3015   31.9253   46.5443 H   0  0  0  0  0  0  0  0  0  0  0  0
   63.7268   32.4531   46.8212 H   0  0  0  0  0  0  0  0  0  0  0  0
   60.6058   32.9504   50.7004 H   0  0  0  0  0  0  0  0  0  0  0  0
   64.4092   35.2478   50.9636 H   0  0  0  0  0  0  0  0  0  0  0  0
   64.7946   34.1503   52.3394 H   0  0  0  0  0  0  0  0  0  0  0  0
   66.3761   33.9823   50.3355 H   0  0  0  0  0  0  0  0  0  0  0  0
   65.6120   32.4342   50.8515 H   0  0  0  0  0  0  0  0  0  0  0  0
   57.0185   32.2243   47.2001 H   0  0  0  0  0  0  0  0  0  0  0  0
   57.0638   33.9995   46.8138 H   0  0  0  0  0  0  0  0  0  0  0  0
   58.9789   28.9164   43.5210 H   0  0  0  0  0  0  0  0  0  0  0  0
   61.3080   28.5073   44.6865 H   0  0  0  0  0  0  0  0  0  0  0  0
   57.8902   29.3934   47.7309 H   0  0  0  0  0  0  0  0  0  0  0  0
  1  2  2  0
  2  3  1  0
  3  4  1  0
  4  5  1  0
  5  6  1  0
  6  7  1  0
  7  8  1  0
  8  9  1  0
  9 10  1  0
 10 11  1  0
 11 12  1  0
 12 13  2  0
 13 14  1  0
 14 15  2  0
 15 16  1  0
 16 17  2  0
 16 18  1  0
 18 19  1  0
 19 20  1  0
 20 21  1  0
 10 22  1  0
  2 23  1  0
 23 24  1  0
 24 25  2  0
 25 26  1  0
 26 27  1  0
 22  6  1  0
 27 23  2  0
 17 12  1  0
 21 15  1  0
  4 28  1  0
  4 29  1  0
  5 30  1  0
  5 31  1  0
  6 32  1  1
  7 33  1  0
  7 34  1  0
  8 35  1  0
  8 36  1  0
  9 37  1  0
  9 38  1  0
 11 39  1  0
 11 40  1  0
 13 41  1  0
 14 42  1  0
 17 43  1  0
 19 44  1  0
 19 45  1  0
 20 46  1  0
 20 47  1  0
 22 48  1  0
 22 49  1  0
 24 50  1  0
 25 51  1  0
 27 52  1  0
M  CHG  1   3  -1
M  END
>  <UniqueID>  (41) 
39

>  <SMILES>  (41) 
O=C([N-]CC[C@H]1CCCN(Cc2ccc3c(c2)OCCO3)C1)c1ccsc1

>  <Energy>  (41) 
90.86902862705608

>  <Genealogy>  (41) 
O=C([N-]CCC1CCCN(Cc2ccc3c(c2)OCCO3)C1)c1ccsc1 (protonated)
O=C([N-]CC[C@H]1CCCN(Cc2ccc3c(c2)OCCO3)C1)c1ccsc1 (chirality)
O=C([N-]CC[C@H]1CCCN(Cc2ccc3c(c2)OCCO3)C1)c1ccsc1 (3D coordinates assigned)
O=C([N-]CC[C@H]1CCCN(Cc2ccc3c(c2)OCCO3)C1)c1ccsc1 (nonaromatic ring conformer: 90.86902862705608 kcal/mol)

>  <smiles>  (41) 
O=C(NCCC1CCCN(Cc2ccc3c(c2)OCCO3)C1)c1ccsc1

>  <score_type>  (41) 
oracle

>  <origin>  (41) 
adg

>  <m_score__min__energy>  (41) 
-10.25

>  <m_primary>  (41) 
energy

$$$$
41:0
     RDKit          3D

 48 49  0  0  0  0  0  0  0  0999 V2000
   57.5100   30.0050   44.9260 C   0  0  0  0  0  0  0  0  0  0  0  0
   58.8480   30.6940   45.1880 C   0  0  0  0  0  0  0  0  0  0  0  0
   59.6090   30.0390   46.2800 N   0  0  0  0  0  0  0  0  0  0  0  0
   60.7580   29.2970   45.7070 C   0  0  0  0  0  0  0  0  0  0  0  0
   60.4640   27.8000   45.6380 C   0  0  0  0  0  0  0  0  0  0  0  0
   58.7450   29.1430   47.0950 C   0  0  0  0  0  0  0  0  0  0  0  0
   58.8870   29.4500   48.5890 C   0  0  0  0  0  0  0  0  0  0  0  0
   59.6680   30.6250   48.8020 O   0  0  0  0  0  0  0  0  0  0  0  0
   59.1230   31.8760   49.1160 C   0  0  0  0  0  0  0  0  0  0  0  0
   58.1690   31.9700   49.9360 O   0  0  0  0  0  0  0  0  0  0  0  0
   59.7130   33.1330   48.5250 C   0  0  2  0  0  0  0  0  0  0  0  0
   59.0120   33.5410   47.2420 C   0  0  0  0  0  0  0  0  0  0  0  0
   59.6810   34.2810   46.2470 C   0  0  0  0  0  0  0  0  0  0  0  0
   59.0260   34.6310   45.0630 C   0  0  0  0  0  0  0  0  0  0  0  0
   57.6980   34.2510   44.8570 C   0  0  0  0  0  0  0  0  0  0  0  0
   57.0230   33.5200   45.8360 C   0  0  0  0  0  0  0  0  0  0  0  0
   57.6730   33.1670   47.0230 C   0  0  0  0  0  0  0  0  0  0  0  0
   61.2150   33.0420   48.3210 C   0  0  0  0  0  0  0  0  0  0  0  0
   62.0960   34.0120   48.8410 C   0  0  0  0  0  0  0  0  0  0  0  0
   63.4710   33.8610   48.6610 C   0  0  0  0  0  0  0  0  0  0  0  0
   63.9660   32.7510   47.9810 C   0  0  0  0  0  0  0  0  0  0  0  0
   63.0730   31.7960   47.4920 C   0  0  0  0  0  0  0  0  0  0  0  0
   61.7330   31.9540   47.6760 N   0  0  0  0  0  0  0  0  0  0  0  0
   57.0307   29.7582   45.8848 H   0  0  0  0  0  0  0  0  0  0  0  0
   56.8567   30.6788   44.3522 H   0  0  0  0  0  0  0  0  0  0  0  0
   57.6791   29.0818   44.3522 H   0  0  0  0  0  0  0  0  0  0  0  0
   59.4497   30.6618   44.2677 H   0  0  0  0  0  0  0  0  0  0  0  0
   58.6411   31.7302   45.4938 H   0  0  0  0  0  0  0  0  0  0  0  0
   60.9578   29.6714   44.6922 H   0  0  0  0  0  0  0  0  0  0  0  0
   61.6334   29.4525   46.3547 H   0  0  0  0  0  0  0  0  0  0  0  0
   60.3844   27.3946   46.6575 H   0  0  0  0  0  0  0  0  0  0  0  0
   59.5166   27.6366   45.1034 H   0  0  0  0  0  0  0  0  0  0  0  0
   61.2792   27.2905   45.1034 H   0  0  0  0  0  0  0  0  0  0  0  0
   57.6960   29.2866   46.7968 H   0  0  0  0  0  0  0  0  0  0  0  0
   59.0574   28.1028   46.9207 H   0  0  0  0  0  0  0  0  0  0  0  0
   57.8867   29.6008   49.0211 H   0  0  0  0  0  0  0  0  0  0  0  0
   59.3943   28.6020   49.0723 H   0  0  0  0  0  0  0  0  0  0  0  0
   59.5403   33.9237   49.2700 H   0  0  0  0  0  0  0  0  0  0  0  0
   60.7264   34.5855   46.4032 H   0  0  0  0  0  0  0  0  0  0  0  0
   59.5578   35.2072   44.2915 H   0  0  0  0  0  0  0  0  0  0  0  0
   57.1845   34.5274   43.9243 H   0  0  0  0  0  0  0  0  0  0  0  0
   55.9770   33.2208   45.6735 H   0  0  0  0  0  0  0  0  0  0  0  0
   57.1338   32.5929   47.7909 H   0  0  0  0  0  0  0  0  0  0  0  0
   61.7015   34.8827   49.3854 H   0  0  0  0  0  0  0  0  0  0  0  0
   64.1641   34.6184   49.0560 H   0  0  0  0  0  0  0  0  0  0  0  0
   65.0488   32.6282   47.8309 H   0  0  0  0  0  0  0  0  0  0  0  0
   63.4528   30.9134   46.9565 H   0  0  0  0  0  0  0  0  0  0  0  0
   61.0940   31.2130   47.3080 H   0  0  0  0  0  0  0  0  0  0  0  0
  1  2  1  0
  2  3  1  0
  3  4  1  0
  4  5  1  0
  3  6  1  0
  6  7  1  0
  7  8  1  0
  8  9  1  0
  9 10  2  0
  9 11  1  0
 11 12  1  0
 12 13  2  0
 13 14  1  0
 14 15  2  0
 15 16  1  0
 16 17  2  0
 11 18  1  0
 18 19  2  0
 19 20  1  0
 20 21  2  0
 21 22  1  0
 22 23  2  0
 17 12  1  0
 23 18  1  0
  1 24  1  0
  1 25  1  0
  1 26  1  0
  2 27  1  0
  2 28  1  0
  4 29  1  0
  4 30  1  0
  5 31  1  0
  5 32  1  0
  5 33  1  0
  6 34  1  0
  6 35  1  0
  7 36  1  0
  7 37  1  0
 11 38  1  1
 13 39  1  0
 14 40  1  0
 15 41  1  0
 16 42  1  0
 17 43  1  0
 19 44  1  0
 20 45  1  0
 21 46  1  0
 22 47  1  0
 23 48  1  0
M  CHG  1  23   1
M  END
>  <UniqueID>  (42) 
40

>  <SMILES>  (42) 
CCN(CC)CCOC(=O)[C@H](c1ccccc1)c1cccc[nH+]1

>  <Energy>  (42) 
45.22121075503735

>  <Genealogy>  (42) 
CCN(CC)CCOC(=O)C(c1ccccc1)c1cccc[nH+]1 (protonated)
CCN(CC)CCOC(=O)[C@H](c1ccccc1)c1cccc[nH+]1 (chirality)
CCN(CC)CCOC(=O)[C@H](c1ccccc1)c1cccc[nH+]1 (3D coordinates assigned)
CCN(CC)CCOC(=O)[C@H](c1ccccc1)c1cccc[nH+]1 (optimized conformer: 45.22121075503735 kcal/mol)

>  <smiles>  (42) 
CCN(CC)CCOC(=O)C(c1ccccc1)c1ccccn1

>  <score_type>  (42) 
oracle

>  <origin>  (42) 
adg

>  <m_score__min__energy>  (42) 
-5.2699999999999996

>  <m_primary>  (42) 
energy

$$$$
42:0
     RDKit          3D

 48 51  0  0  0  0  0  0  0  0999 V2000
   55.5060   24.1370   44.9680 C   0  0  0  0  0  0  0  0  0  0  0  0
   54.5920   25.1680   45.6190 C   0  0  0  0  0  0  0  0  0  0  0  0
   55.3250   26.3410   45.9670 O   0  0  0  0  0  0  0  0  0  0  0  0
   56.6320   26.3120   46.4650 C   0  0  0  0  0  0  0  0  0  0  0  0
   56.9140   25.6360   47.4930 O   0  0  0  0  0  0  0  0  0  0  0  0
   57.7090   27.0830   45.7520 C   0  0  2  0  0  0  0  0  0  0  0  0
   59.0890   26.3900   45.9060 C   0  0  0  0  0  0  0  0  0  0  0  0
   60.2670   27.3770   46.0220 C   0  0  0  0  0  0  0  0  0  0  0  0
   60.0560   28.6290   45.1620 C   0  0  0  0  0  0  0  0  0  0  0  0
   58.7690   29.2760   45.4690 N   0  0  0  0  0  0  0  0  0  0  0  0
   58.4000   30.4690   44.7560 C   0  0  0  0  0  0  0  0  0  0  0  0
   57.9240   30.3640   43.4780 N   0  0  0  0  0  0  0  0  0  0  0  0
   57.4450   31.4470   42.7990 C   0  0  0  0  0  0  0  0  0  0  0  0
   57.4110   32.6710   43.3900 N   0  0  0  0  0  0  0  0  0  0  0  0
   57.8810   32.8010   44.6500 C   0  0  0  0  0  0  0  0  0  0  0  0
   57.9080   34.2100   45.5540 S   0  0  0  0  0  0  0  0  0  0  0  0
   58.6210   33.4920   46.9060 C   0  0  0  0  0  0  0  0  0  0  0  0
   58.8570   32.1380   46.6490 C   0  0  0  0  0  0  0  0  0  0  0  0
   59.5940   31.3000   47.6090 C   0  0  0  0  0  0  0  0  0  0  0  0
   58.8970   30.4800   48.5110 C   0  0  0  0  0  0  0  0  0  0  0  0
   59.5960   29.6970   49.4340 C   0  0  0  0  0  0  0  0  0  0  0  0
   60.9930   29.7450   49.4780 C   0  0  0  0  0  0  0  0  0  0  0  0
   61.6910   30.5850   48.6050 C   0  0  0  0  0  0  0  0  0  0  0  0
   60.9940   31.3680   47.6800 C   0  0  0  0  0  0  0  0  0  0  0  0
   58.4080   31.7400   45.3660 C   0  0  0  0  0  0  0  0  0  0  0  0
   57.7450   28.5430   46.2270 C   0  0  0  0  0  0  0  0  0  0  0  0
   56.0198   23.5574   45.7491 H   0  0  0  0  0  0  0  0  0  0  0  0
   54.9069   23.4589   44.3425 H   0  0  0  0  0  0  0  0  0  0  0  0
   56.2510   24.6505   44.3425 H   0  0  0  0  0  0  0  0  0  0  0  0
   53.7917   25.4378   44.9141 H   0  0  0  0  0  0  0  0  0  0  0  0
   54.1631   24.7337   46.5341 H   0  0  0  0  0  0  0  0  0  0  0  0
   57.4697   27.0933   44.6784 H   0  0  0  0  0  0  0  0  0  0  0  0
   59.0662   25.7680   46.8129 H   0  0  0  0  0  0  0  0  0  0  0  0
   59.2547   25.7965   44.9948 H   0  0  0  0  0  0  0  0  0  0  0  0
   60.3719   27.6823   47.0736 H   0  0  0  0  0  0  0  0  0  0  0  0
   61.1732   26.8674   45.6626 H   0  0  0  0  0  0  0  0  0  0  0  0
   60.8713   29.3408   45.3586 H   0  0  0  0  0  0  0  0  0  0  0  0
   60.0505   28.3277   44.1041 H   0  0  0  0  0  0  0  0  0  0  0  0
   57.8840   29.4310   43.0120 H   0  0  0  0  0  0  0  0  0  0  0  0
   57.0841   31.3286   41.7667 H   0  0  0  0  0  0  0  0  0  0  0  0
   58.8629   34.0104   47.8455 H   0  0  0  0  0  0  0  0  0  0  0  0
   57.7975   30.4538   48.4911 H   0  0  0  0  0  0  0  0  0  0  0  0
   59.0467   29.0423   50.1266 H   0  0  0  0  0  0  0  0  0  0  0  0
   61.5425   29.1221   50.1992 H   0  0  0  0  0  0  0  0  0  0  0  0
   62.7893   30.6298   48.6460 H   0  0  0  0  0  0  0  0  0  0  0  0
   61.5449   32.0398   47.0054 H   0  0  0  0  0  0  0  0  0  0  0  0
   57.9888   28.5745   47.2992 H   0  0  0  0  0  0  0  0  0  0  0  0
   56.7618   29.0081   46.0625 H   0  0  0  0  0  0  0  0  0  0  0  0
  1  2  1  0
  2  3  1  0
  3  4  1  0
  4  5  2  0
  4  6  1  0
  6  7  1  0
  7  8  1  0
  8  9  1  0
  9 10  1  0
 10 11  1  0
 11 12  2  0
 12 13  1  0
 13 14  2  0
 14 15  1  0
 15 16  1  0
 16 17  1  0
 17 18  2  0
 18 19  1  0
 19 20  2  0
 20 21  1  0
 21 22  2  0
 22 23  1  0
 23 24  2  0
 18 25  1  0
 10 26  1  0
 26  6  1  0
 25 11  1  0
 25 15  2  0
 24 19  1  0
  1 27  1  0
  1 28  1  0
  1 29  1  0
  2 30  1  0
  2 31  1  0
  6 32  1  6
  7 33  1  0
  7 34  1  0
  8 35  1  0
  8 36  1  0
  9 37  1  0
  9 38  1  0
 12 39  1  0
 13 40  1  0
 17 41  1  0
 20 42  1  0
 21 43  1  0
 22 44  1  0
 23 45  1  0
 24 46  1  0
 26 47  1  0
 26 48  1  0
M  CHG  1  12   1
M  END
>  <UniqueID>  (43) 
41

>  <SMILES>  (43) 
CCOC(=O)[C@@H]1CCCN(c2[nH+]cnc3scc(-c4ccccc4)c23)C1

>  <Energy>  (43) 
92.49111749815157

>  <Genealogy>  (43) 
CCOC(=O)C1CCCN(c2[nH+]cnc3scc(-c4ccccc4)c23)C1 (protonated)
CCOC(=O)[C@@H]1CCCN(c2[nH+]cnc3scc(-c4ccccc4)c23)C1 (chirality)
CCOC(=O)[C@@H]1CCCN(c2[nH+]cnc3scc(-c4ccccc4)c23)C1 (3D coordinates assigned)
CCOC(=O)[C@@H]1CCCN(c2[nH+]cnc3scc(-c4ccccc4)c23)C1 (nonaromatic ring conformer: 92.49111749815157 kcal/mol)

>  <smiles>  (43) 
CCOC(=O)C1CCCN(c2ncnc3scc(-c4ccccc4)c23)C1

>  <score_type>  (43) 
oracle

>  <origin>  (43) 
adg

>  <m_score__min__energy>  (43) 
-6.7000000000000002

>  <m_primary>  (43) 
energy

$$$$
43:0
     RDKit          3D

 44 44  0  0  0  0  0  0  0  0999 V2000
   62.9650   33.8280   46.7310 C   0  0  0  0  0  0  0  0  0  0  0  0
   61.7110   33.8370   47.1910 C   0  0  0  0  0  0  0  0  0  0  0  0
   60.6030   34.5360   46.4510 C   0  0  0  0  0  0  0  0  0  0  0  0
   59.5670   33.5460   45.9880 C   0  0  0  0  0  0  0  0  0  0  0  0
   58.7500   33.8400   44.8890 C   0  0  0  0  0  0  0  0  0  0  0  0
   57.7490   32.9500   44.4970 C   0  0  0  0  0  0  0  0  0  0  0  0
   57.5390   31.7530   45.2080 C   0  0  0  0  0  0  0  0  0  0  0  0
   56.5250   30.8420   44.8680 O   0  0  0  0  0  0  0  0  0  0  0  0
   56.3010   30.2830   43.5710 C   0  0  0  0  0  0  0  0  0  0  0  0
   57.1230   29.0070   43.3710 C   0  0  0  0  0  0  0  0  0  0  0  0
   57.8250   28.6460   44.6250 N   0  0  0  0  0  0  0  0  0  0  0  0
   56.9670   27.8830   45.5650 C   0  0  0  0  0  0  0  0  0  0  0  0
   57.7100   26.7800   46.3320 C   0  0  0  0  0  0  0  0  0  0  0  0
   59.1610   28.0580   44.3760 C   0  0  0  0  0  0  0  0  0  0  0  0
   60.2850   28.9520   44.9010 C   0  0  0  0  0  0  0  0  0  0  0  0
   58.3650   31.4450   46.3010 C   0  0  0  0  0  0  0  0  0  0  0  0
   58.1390   30.2400   46.9850 O   0  0  0  0  0  0  0  0  0  0  0  0
   58.9740   29.7330   48.0210 C   0  0  0  0  0  0  0  0  0  0  0  0
   59.3730   32.3480   46.6910 C   0  0  0  0  0  0  0  0  0  0  0  0
   63.7538   33.3082   47.2945 H   0  0  0  0  0  0  0  0  0  0  0  0
   63.2088   34.3404   45.7886 H   0  0  0  0  0  0  0  0  0  0  0  0
   61.4825   33.3203   48.1348 H   0  0  0  0  0  0  0  0  0  0  0  0
   60.1286   35.2695   47.1195 H   0  0  0  0  0  0  0  0  0  0  0  0
   61.0282   35.0414   45.5714 H   0  0  0  0  0  0  0  0  0  0  0  0
   58.8980   34.7770   44.3321 H   0  0  0  0  0  0  0  0  0  0  0  0
   57.1195   33.1854   43.6262 H   0  0  0  0  0  0  0  0  0  0  0  0
   55.2330   30.0429   43.4629 H   0  0  0  0  0  0  0  0  0  0  0  0
   56.6102   31.0198   42.8150 H   0  0  0  0  0  0  0  0  0  0  0  0
   56.4522   28.1849   43.0810 H   0  0  0  0  0  0  0  0  0  0  0  0
   57.8683   29.1815   42.5810 H   0  0  0  0  0  0  0  0  0  0  0  0
   56.5429   28.5872   46.2959 H   0  0  0  0  0  0  0  0  0  0  0  0
   56.1949   27.3856   44.9596 H   0  0  0  0  0  0  0  0  0  0  0  0
   57.5980   26.9463   47.4136 H   0  0  0  0  0  0  0  0  0  0  0  0
   57.2873   25.7999   46.0660 H   0  0  0  0  0  0  0  0  0  0  0  0
   58.7771   26.8035   46.0660 H   0  0  0  0  0  0  0  0  0  0  0  0
   59.2190   27.0815   44.8791 H   0  0  0  0  0  0  0  0  0  0  0  0
   59.2894   27.9525   43.2886 H   0  0  0  0  0  0  0  0  0  0  0  0
   60.2758   28.9447   46.0009 H   0  0  0  0  0  0  0  0  0  0  0  0
   61.2529   28.5743   44.5399 H   0  0  0  0  0  0  0  0  0  0  0  0
   60.1348   29.9801   44.5399 H   0  0  0  0  0  0  0  0  0  0  0  0
   58.5440   29.9941   48.9993 H   0  0  0  0  0  0  0  0  0  0  0  0
   59.0454   28.6389   47.9320 H   0  0  0  0  0  0  0  0  0  0  0  0
   59.9776   30.1743   47.9320 H   0  0  0  0  0  0  0  0  0  0  0  0
   60.0132   32.1118   47.5538 H   0  0  0  0  0  0  0  0  0  0  0  0
  1  2  2  0
  2  3  1  0
  3  4  1  0
  4  5  2  0
  5  6  1  0
  6  7  2  0
  7  8  1  0
  8  9  1  0
  9 10  1  0
 10 11  1  0
 11 12  1  0
 12 13  1  0
 11 14  1  0
 14 15  1  0
  7 16  1  0
 16 17  1  0
 17 18  1  0
 16 19  2  0
 19  4  1  0
  1 20  1  0
  1 21  1  0
  2 22  1  0
  3 23  1  0
  3 24  1  0
  5 25  1  0
  6 26  1  0
  9 27  1  0
  9 28  1  0
 10 29  1  0
 10 30  1  0
 12 31  1  0
 12 32  1  0
 13 33  1  0
 13 34  1  0
 13 35  1  0
 14 36  1  0
 14 37  1  0
 15 38  1  0
 15 39  1  0
 15 40  1  0
 18 41  1  0
 18 42  1  0
 18 43  1  0
 19 44  1  0
M  END
>  <UniqueID>  (44) 
42

>  <SMILES>  (44) 
C=CCc1ccc(OCCN(CC)CC)c(OC)c1

>  <Energy>  (44) 
37.447437210459626

>  <Genealogy>  (44) 
C=CCc1ccc(OCCN(CC)CC)c(OC)c1 (3D coordinates assigned)
C=CCc1ccc(OCCN(CC)CC)c(OC)c1 (optimized conformer: 37.447437210459626 kcal/mol)

>  <smiles>  (44) 
C=CCc1ccc(OCCN(CC)CC)c(OC)c1

>  <score_type>  (44) 
oracle

>  <origin>  (44) 
adg

>  <m_score__min__energy>  (44) 
-6.4900000000000002

>  <m_primary>  (44) 
energy

$$$$
44:0
     RDKit          3D

 62 64  0  0  0  0  0  0  0  0999 V2000
   56.5690   30.2350   42.6100 C   0  0  0  0  0  0  0  0  0  0  0  0
   56.3740   30.4560   44.0810 C   0  0  0  0  0  0  0  0  0  0  0  0
   55.3600   29.9480   44.6330 O   0  0  0  0  0  0  0  0  0  0  0  0
   57.3340   31.2540   44.8910 C   0  0  0  0  0  0  0  0  0  0  0  0
   57.1020   32.6140   45.1750 C   0  0  0  0  0  0  0  0  0  0  0  0
   58.0140   33.3480   45.9390 C   0  0  0  0  0  0  0  0  0  0  0  0
   59.1740   32.7380   46.4320 C   0  0  0  0  0  0  0  0  0  0  0  0
   60.3420   33.6540   47.3830 S   0  0  0  0  0  0  0  0  0  0  0  0
   59.9310   33.6070   48.8280 O   0  0  0  0  0  0  0  0  0  0  0  0
   60.3690   35.0910   46.9390 O   0  0  0  0  0  0  0  0  0  0  0  0
   61.9280   32.9550   47.2210 N   0  0  0  0  0  0  0  0  0  0  0  0
   62.9710   33.8620   47.7160 C   0  0  0  0  0  0  0  0  0  0  0  0
   62.6130   34.4240   49.0980 C   0  0  0  0  0  0  0  0  0  0  0  0
   63.6600   34.0920   50.0950 N   0  0  0  0  0  0  0  0  0  0  0  0
   63.1180   33.9040   51.4570 C   0  0  0  0  0  0  0  0  0  0  0  0
   62.3120   32.5920   51.6020 C   0  0  0  0  0  0  0  0  0  0  0  0
   62.5300   31.6790   50.4600 N   0  0  0  0  0  0  0  0  0  0  0  0
   61.9280   30.3490   50.7090 C   0  0  0  0  0  0  0  0  0  0  0  0
   60.8390   30.0590   49.6600 C   0  0  1  0  0  0  0  0  0  0  0  0
   60.9550   30.9130   48.5500 O   0  0  0  0  0  0  0  0  0  0  0  0
   60.8100   28.5850   49.2080 C   0  0  0  0  0  0  0  0  0  0  0  0
   59.5150   28.1940   48.7440 O   0  0  0  0  0  0  0  0  0  0  0  0
   59.1490   27.9130   47.4160 C   0  0  0  0  0  0  0  0  0  0  0  0
   57.8500   27.5150   47.0390 C   0  0  0  0  0  0  0  0  0  0  0  0
   57.5550   27.2470   45.6980 C   0  0  0  0  0  0  0  0  0  0  0  0
   58.5460   27.3810   44.7210 C   0  0  0  0  0  0  0  0  0  0  0  0
   58.1400   27.0190   42.8900 Br  0  0  0  0  0  0  0  0  0  0  0  0
   59.8330   27.7860   45.0860 C   0  0  0  0  0  0  0  0  0  0  0  0
   60.1300   28.0520   46.4260 C   0  0  0  0  0  0  0  0  0  0  0  0
   63.9700   31.5850   50.1610 C   0  0  0  0  0  0  0  0  0  0  0  0
   64.5150   32.9500   49.6930 C   0  0  0  0  0  0  0  0  0  0  0  0
   59.4150   31.3880   46.1550 C   0  0  0  0  0  0  0  0  0  0  0  0
   58.5040   30.6510   45.3920 C   0  0  0  0  0  0  0  0  0  0  0  0
   57.2895   29.4185   42.4542 H   0  0  0  0  0  0  0  0  0  0  0  0
   55.6068   29.9680   42.1486 H   0  0  0  0  0  0  0  0  0  0  0  0
   56.9537   31.1565   42.1486 H   0  0  0  0  0  0  0  0  0  0  0  0
   56.1943   33.1033   44.7919 H   0  0  0  0  0  0  0  0  0  0  0  0
   57.8196   34.4092   46.1538 H   0  0  0  0  0  0  0  0  0  0  0  0
   63.9201   33.3106   47.7885 H   0  0  0  0  0  0  0  0  0  0  0  0
   63.0614   34.7029   47.0127 H   0  0  0  0  0  0  0  0  0  0  0  0
   62.5172   35.5176   49.0277 H   0  0  0  0  0  0  0  0  0  0  0  0
   61.6637   33.9739   49.4239 H   0  0  0  0  0  0  0  0  0  0  0  0
   63.9558   33.8831   52.1695 H   0  0  0  0  0  0  0  0  0  0  0  0
   62.4323   34.7398   51.6604 H   0  0  0  0  0  0  0  0  0  0  0  0
   62.6232   32.0844   52.5269 H   0  0  0  0  0  0  0  0  0  0  0  0
   61.2433   32.8512   51.6306 H   0  0  0  0  0  0  0  0  0  0  0  0
   62.7097   29.5777   50.6454 H   0  0  0  0  0  0  0  0  0  0  0  0
   61.4753   30.3396   51.7115 H   0  0  0  0  0  0  0  0  0  0  0  0
   59.8795   30.2579   50.1598 H   0  0  0  0  0  0  0  0  0  0  0  0
   61.1550   31.8240   48.8910 H   0  0  0  0  0  0  0  0  0  0  0  0
   61.5358   28.4489   48.3927 H   0  0  0  0  0  0  0  0  0  0  0  0
   61.0647   27.9579   50.0751 H   0  0  0  0  0  0  0  0  0  0  0  0
   57.0648   27.4147   47.8029 H   0  0  0  0  0  0  0  0  0  0  0  0
   56.5413   26.9302   45.4117 H   0  0  0  0  0  0  0  0  0  0  0  0
   60.6130   27.8956   44.3181 H   0  0  0  0  0  0  0  0  0  0  0  0
   61.1441   28.3736   46.7056 H   0  0  0  0  0  0  0  0  0  0  0  0
   64.5083   31.2720   51.0678 H   0  0  0  0  0  0  0  0  0  0  0  0
   64.1192   30.8482   49.3580 H   0  0  0  0  0  0  0  0  0  0  0  0
   65.5157   33.0936   50.1265 H   0  0  0  0  0  0  0  0  0  0  0  0
   64.5382   32.9318   48.5934 H   0  0  0  0  0  0  0  0  0  0  0  0
   60.3252   30.9042   46.5391 H   0  0  0  0  0  0  0  0  0  0  0  0
   58.7031   29.5899   45.1810 H   0  0  0  0  0  0  0  0  0  0  0  0
  1  2  1  0
  2  3  2  0
  2  4  1  0
  4  5  2  0
  5  6  1  0
  6  7  2  0
  7  8  1  0
  8  9  2  0
  8 10  2  0
  8 11  1  0
 11 12  1  0
 12 13  1  0
 13 14  1  0
 14 15  1  0
 15 16  1  0
 16 17  1  0
 17 18  1  0
 18 19  1  0
 19 20  1  0
 19 21  1  0
 21 22  1  0
 22 23  1  0
 23 24  2  0
 24 25  1  0
 25 26  2  0
 26 27  1  0
 26 28  1  0
 28 29  2  0
 17 30  1  0
 30 31  1  0
  7 32  1  0
 32 33  2  0
 33  4  1  0
 31 14  1  0
 29 23  1  0
  1 34  1  0
  1 35  1  0
  1 36  1  0
  5 37  1  0
  6 38  1  0
 12 39  1  0
 12 40  1  0
 13 41  1  0
 13 42  1  0
 15 43  1  0
 15 44  1  0
 16 45  1  0
 16 46  1  0
 18 47  1  0
 18 48  1  0
 19 49  1  1
 20 50  1  0
 21 51  1  0
 21 52  1  0
 24 53  1  0
 25 54  1  0
 28 55  1  0
 29 56  1  0
 30 57  1  0
 30 58  1  0
 31 59  1  0
 31 60  1  0
 32 61  1  0
 33 62  1  0
M  CHG  1  11  -1
M  END
>  <UniqueID>  (45) 
43

>  <SMILES>  (45) 
CC(=O)c1ccc(S(=O)(=O)[N-]CCN2CCN(C[C@@H](O)COc3ccc(Br)cc3)CC2)cc1

>  <Energy>  (45) 
75.99394586339996

>  <Genealogy>  (45) 
CC(=O)c1ccc(S(=O)(=O)[N-]CCN2CCN(CC(O)COc3ccc(Br)cc3)CC2)cc1 (protonated)
CC(=O)c1ccc(S(=O)(=O)[N-]CCN2CCN(C[C@@H](O)COc3ccc(Br)cc3)CC2)cc1 (chirality)
CC(=O)c1ccc(S(=O)(=O)[N-]CCN2CCN(C[C@@H](O)COc3ccc(Br)cc3)CC2)cc1 (3D coordinates assigned)
CC(=O)c1ccc(S(=O)(=O)[N-]CCN2CCN(C[C@@H](O)COc3ccc(Br)cc3)CC2)cc1 (nonaromatic ring conformer: 75.99394586339996 kcal/mol)

>  <smiles>  (45) 
CC(=O)c1ccc(S(=O)(=O)NCCN2CCN(CC(O)COc3ccc(Br)cc3)CC2)cc1

>  <score_type>  (45) 
oracle

>  <origin>  (45) 
adg

>  <m_score__min__energy>  (45) 
-10.26

>  <m_primary>  (45) 
energy

$$$$
45:0
     RDKit          3D

 38 40  0  0  1  0  0  0  0  0999 V2000
   62.2850   34.2000   49.9470 C   0  0  0  0  0  0  0  0  0  0  0  0
   63.6640   34.1460   49.7670 O   0  0  0  0  0  0  0  0  0  0  0  0
   64.0150   33.1690   48.8280 C   0  0  0  0  0  0  0  0  0  0  0  0
   63.3490   33.5440   47.5320 C   0  0  0  0  0  0  0  0  0  0  0  0
   62.1600   32.7670   47.2480 N   0  0  0  0  0  0  0  0  0  0  0  0
   61.9990   31.4360   47.3380 C   0  0  0  0  0  0  0  0  0  0  0  0
   60.6890   31.0910   46.9720 C   0  0  0  0  0  0  0  0  0  0  0  0
   60.0910   32.2620   46.6640 C   0  0  0  0  0  0  0  0  0  0  0  0
   58.8380   32.5710   46.2460 C   0  0  0  0  0  0  0  0  0  0  0  0
   57.9900   31.6560   46.0820 N   0  0  0  0  0  0  0  0  0  0  0  0
   57.4380   31.1160   44.9380 C   0  0  0  0  0  0  0  0  0  0  0  0
   57.8040   31.6790   43.7040 C   0  0  0  0  0  0  0  0  0  0  0  0
   57.2220   31.1630   42.5660 C   0  0  0  0  0  0  0  0  0  0  0  0
   56.3080   30.1260   42.6330 C   0  0  0  0  0  0  0  0  0  0  0  0
   55.9930   29.6190   43.8780 C   0  0  0  0  0  0  0  0  0  0  0  0
   56.5440   30.1010   45.0070 N   0  0  0  0  0  0  0  0  0  0  0  0
   58.5030   33.8510   46.0080 N   0  0  0  0  0  0  0  0  0  0  0  0
   57.1580   34.2170   45.5560 C   0  0  0  0  0  0  0  0  0  0  0  0
   59.3980   34.8410   46.1790 C   0  0  0  0  0  0  0  0  0  0  0  0
   60.6490   34.5840   46.5910 N   0  0  0  0  0  0  0  0  0  0  0  0
   60.9920   33.2890   46.8330 C   0  0  0  0  0  0  0  0  0  0  0  0
   62.0557   34.2090   51.0228 H   0  0  0  0  0  0  0  0  0  0  0  0
   61.8898   35.1143   49.4802 H   0  0  0  0  0  0  0  0  0  0  0  0
   61.8195   33.3194   49.4802 H   0  0  0  0  0  0  0  0  0  0  0  0
   65.1071   33.1450   48.6983 H   0  0  0  0  0  0  0  0  0  0  0  0
   63.6922   32.1714   49.1606 H   0  0  0  0  0  0  0  0  0  0  0  0
   63.0677   34.6063   47.5796 H   0  0  0  0  0  0  0  0  0  0  0  0
   64.0696   33.3393   46.7265 H   0  0  0  0  0  0  0  0  0  0  0  0
   62.7769   30.7242   47.6514 H   0  0  0  0  0  0  0  0  0  0  0  0
   60.2454   30.0849   46.9424 H   0  0  0  0  0  0  0  0  0  0  0  0
   58.5301   32.5034   43.6479 H   0  0  0  0  0  0  0  0  0  0  0  0
   57.4893   31.5837   41.5854 H   0  0  0  0  0  0  0  0  0  0  0  0
   55.8464   29.7179   41.7217 H   0  0  0  0  0  0  0  0  0  0  0  0
   55.2683   28.7945   43.9492 H   0  0  0  0  0  0  0  0  0  0  0  0
   56.5128   34.3926   46.4294 H   0  0  0  0  0  0  0  0  0  0  0  0
   57.2116   35.1332   44.9496 H   0  0  0  0  0  0  0  0  0  0  0  0
   56.7400   33.4000   44.9496 H   0  0  0  0  0  0  0  0  0  0  0  0
   59.0987   35.8801   45.9774 H   0  0  0  0  0  0  0  0  0  0  0  0
  1  2  1  0
  2  3  1  0
  3  4  1  0
  4  5  1  0
  5  6  1  0
  6  7  2  0
  7  8  1  0
  8  9  1  0
  9 10  2  0
 10 11  1  0
 11 12  2  0
 12 13  1  0
 13 14  2  0
 14 15  1  0
 15 16  2  0
  9 17  1  0
 17 18  1  0
 17 19  1  0
 19 20  2  0
 20 21  1  0
 21  5  1  0
 21  8  2  0
 16 11  1  0
  1 22  1  0
  1 23  1  0
  1 24  1  0
  3 25  1  0
  3 26  1  0
  4 27  1  0
  4 28  1  0
  6 29  1  0
  7 30  1  0
 12 31  1  0
 13 32  1  0
 14 33  1  0
 15 34  1  0
 18 35  1  0
 18 36  1  0
 18 37  1  0
 19 38  1  0
M  END
>  <smiles>  (46) 
COCCn1ccc2c(=Nc3ccccn3)n(C)cnc21

>  <score_type>  (46) 
oracle

>  <origin>  (46) 
adg

>  <m_score__min__energy>  (46) 
-6.8200000000000003

>  <m_primary>  (46) 
energy

$$$$
46:0
     RDKit          3D

 22 22  0  0  0  0  0  0  0  0999 V2000
   57.4710   32.3080   41.2730 C   0  0  0  0  0  0  0  0  0  0  0  0
   58.0770   31.9720   42.6330 C   0  0  0  0  0  0  0  0  0  0  0  0
   57.0480   31.3930   43.6170 C   0  0  0  0  0  0  0  0  0  0  0  0
   57.5800   30.1800   44.3490 C   0  0  0  0  0  0  0  0  0  0  0  0
   58.9760   30.0120   44.4300 C   0  0  0  0  0  0  0  0  0  0  0  0
   59.5260   28.9110   45.0870 C   0  0  0  0  0  0  0  0  0  0  0  0
   58.6930   27.9570   45.6700 C   0  0  0  0  0  0  0  0  0  0  0  0
   57.3080   28.0990   45.5900 C   0  0  0  0  0  0  0  0  0  0  0  0
   56.7380   29.1950   44.9310 C   0  0  0  0  0  0  0  0  0  0  0  0
   55.3430   29.2620   44.8740 O   0  0  0  0  0  0  0  0  0  0  0  0
   56.5173   32.8368   41.4171 H   0  0  0  0  0  0  0  0  0  0  0  0
   58.1650   32.9502   40.7109 H   0  0  0  0  0  0  0  0  0  0  0  0
   57.2940   31.3792   40.7109 H   0  0  0  0  0  0  0  0  0  0  0  0
   58.8787   31.2330   42.4876 H   0  0  0  0  0  0  0  0  0  0  0  0
   58.4587   32.9084   43.0659 H   0  0  0  0  0  0  0  0  0  0  0  0
   56.7882   32.1666   44.3546 H   0  0  0  0  0  0  0  0  0  0  0  0
   56.1658   31.0800   43.0393 H   0  0  0  0  0  0  0  0  0  0  0  0
   59.6407   30.7579   43.9697 H   0  0  0  0  0  0  0  0  0  0  0  0
   60.6184   28.7954   45.1451 H   0  0  0  0  0  0  0  0  0  0  0  0
   59.1281   27.0926   46.1929 H   0  0  0  0  0  0  0  0  0  0  0  0
   56.6561   27.3416   46.0497 H   0  0  0  0  0  0  0  0  0  0  0  0
   54.7320   28.9710   45.6220 H   0  0  0  0  0  0  0  0  0  0  0  0
  1  2  1  0
  2  3  1  0
  3  4  1  0
  4  5  2  0
  5  6  1  0
  6  7  2  0
  7  8  1  0
  8  9  2  0
  9 10  1  0
  9  4  1  0
  1 11  1  0
  1 12  1  0
  1 13  1  0
  2 14  1  0
  2 15  1  0
  3 16  1  0
  3 17  1  0
  5 18  1  0
  6 19  1  0
  7 20  1  0
  8 21  1  0
 10 22  1  0
M  END
>  <UniqueID>  (47) 
44

>  <SMILES>  (47) 
CCCc1ccccc1O

>  <Energy>  (47) 
17.79767999324109

>  <Genealogy>  (47) 
CCCc1ccccc1O (3D coordinates assigned)
CCCc1ccccc1O (optimized conformer: 17.79767999324109 kcal/mol)

>  <smiles>  (47) 
CCCc1ccccc1O

>  <score_type>  (47) 
oracle

>  <origin>  (47) 
adg

>  <m_score__min__energy>  (47) 
-5.5800000000000001

>  <m_primary>  (47) 
energy

$$$$
47:0
     RDKit          3D

 46 47  0  0  0  0  0  0  0  0999 V2000
   57.9231   31.4612   42.7170 H   0  0  0  0  0  0  0  0  0  0  0  0
   57.4750   31.5670   43.7160 C   0  0  0  0  0  0  0  0  0  0  0  0
   56.7280   30.4240   44.2920 C   0  0  0  0  0  0  0  0  0  0  0  0
   55.4870   30.5320   44.4970 O   0  0  0  0  0  0  0  0  0  0  0  0
   57.4120   29.1590   44.6610 C   0  0  0  0  0  0  0  0  0  0  0  0
   57.7640   28.2050   43.6880 C   0  0  0  0  0  0  0  0  0  0  0  0
   57.5358   28.3962   42.6291 H   0  0  0  0  0  0  0  0  0  0  0  0
   58.4010   27.0170   44.0560 C   0  0  0  0  0  0  0  0  0  0  0  0
   58.6766   26.2829   43.2846 H   0  0  0  0  0  0  0  0  0  0  0  0
   58.6920   26.7540   45.4070 C   0  0  0  0  0  0  0  0  0  0  0  0
   59.3300   25.5770   45.8250 O   0  0  0  0  0  0  0  0  0  0  0  0
   58.7790   24.2720   45.6890 C   0  0  0  0  0  0  0  0  0  0  0  0
   58.5985   23.8444   46.6863 H   0  0  0  0  0  0  0  0  0  0  0  0
   57.8289   24.3308   45.1378 H   0  0  0  0  0  0  0  0  0  0  0  0
   59.4837   23.6321   45.1378 H   0  0  0  0  0  0  0  0  0  0  0  0
   58.3310   27.6960   46.3750 C   0  0  0  0  0  0  0  0  0  0  0  0
   58.5511   27.4991   47.4346 H   0  0  0  0  0  0  0  0  0  0  0  0
   57.6940   28.8840   46.0110 C   0  0  0  0  0  0  0  0  0  0  0  0
   57.4104   29.6107   46.7865 H   0  0  0  0  0  0  0  0  0  0  0  0
   57.6220   32.7260   44.3740 C   0  0  0  0  0  0  0  0  0  0  0  0
   56.9266   33.5461   44.1419 H   0  0  0  0  0  0  0  0  0  0  0  0
   58.6690   32.9650   45.3970 C   0  0  0  0  0  0  0  0  0  0  0  0
   59.2800   31.9190   46.1160 C   0  0  0  0  0  0  0  0  0  0  0  0
   58.9743   30.8787   45.9310 H   0  0  0  0  0  0  0  0  0  0  0  0
   60.2710   32.1920   47.0620 C   0  0  0  0  0  0  0  0  0  0  0  0
   60.7323   31.3646   47.6211 H   0  0  0  0  0  0  0  0  0  0  0  0
   60.6850   33.5130   47.3070 C   0  0  0  0  0  0  0  0  0  0  0  0
   61.7190   33.7900   48.2810 N   0  0  0  0  0  0  0  0  0  0  0  0
   61.3730   34.2270   49.6440 C   0  0  0  0  0  0  0  0  0  0  0  0
   61.4700   35.3209   49.7073 H   0  0  0  0  0  0  0  0  0  0  0  0
   62.0570   33.7397   50.3544 H   0  0  0  0  0  0  0  0  0  0  0  0
   59.9420   33.8310   49.9940 C   0  0  0  0  0  0  0  0  0  0  0  0
   59.8274   33.7993   51.0876 H   0  0  0  0  0  0  0  0  0  0  0  0
   59.2438   34.5697   49.5734 H   0  0  0  0  0  0  0  0  0  0  0  0
   59.7229   32.8385   49.5734 H   0  0  0  0  0  0  0  0  0  0  0  0
   63.1360   33.6330   47.9200 C   0  0  0  0  0  0  0  0  0  0  0  0
   63.7326   34.3720   48.4750 H   0  0  0  0  0  0  0  0  0  0  0  0
   63.4520   32.6112   48.1770 H   0  0  0  0  0  0  0  0  0  0  0  0
   63.3460   33.8450   46.4220 C   0  0  0  0  0  0  0  0  0  0  0  0
   64.1122   34.6185   46.2650 H   0  0  0  0  0  0  0  0  0  0  0  0
   63.6766   32.9025   45.9611 H   0  0  0  0  0  0  0  0  0  0  0  0
   62.4004   34.1667   45.9611 H   0  0  0  0  0  0  0  0  0  0  0  0
   60.0840   34.5540   46.5790 C   0  0  0  0  0  0  0  0  0  0  0  0
   60.3968   35.5936   46.7564 H   0  0  0  0  0  0  0  0  0  0  0  0
   59.0930   34.2820   45.6320 C   0  0  0  0  0  0  0  0  0  0  0  0
   58.6405   35.1088   45.0648 H   0  0  0  0  0  0  0  0  0  0  0  0
  1  2  1  0
  2  3  1  0
  3  4  2  0
  3  5  1  0
  5  6  2  0
  6  7  1  0
  6  8  1  0
  8  9  1  0
  8 10  2  0
 10 11  1  0
 11 12  1  0
 12 13  1  0
 12 14  1  0
 12 15  1  0
 10 16  1  0
 16 17  1  0
 16 18  2  0
 18 19  1  0
  2 20  2  0
 20 21  1  0
 20 22  1  0
 22 23  2  0
 23 24  1  0
 23 25  1  0
 25 26  1  0
 25 27  2  0
 27 28  1  0
 28 29  1  0
 29 30  1  0
 29 31  1  0
 29 32  1  0
 32 33  1  0
 32 34  1  0
 32 35  1  0
 28 36  1  0
 36 37  1  0
 36 38  1  0
 36 39  1  0
 39 40  1  0
 39 41  1  0
 39 42  1  0
 27 43  1  0
 43 44  1  0
 43 45  2  0
 45 46  1  0
 18  5  1  0
 45 22  1  0
M  END
>  <UniqueID>  (48) 
45

>  <SMILES>  (48) 
CCN(CC)c1ccc(/C=C/C(=O)c2ccc(OC)cc2)cc1

>  <Energy>  (48) 
47.65565212615892

>  <Genealogy>  (48) 
CCN(CC)c1ccc(/C=C/C(=O)c2ccc(OC)cc2)cc1 (cis-trans isomerization)
CCN(CC)c1ccc(/C=C/C(=O)c2ccc(OC)cc2)cc1 (3D coordinates assigned)
CCN(CC)c1ccc(/C=C/C(=O)c2ccc(OC)cc2)cc1 (optimized conformer: 47.65565212615892 kcal/mol)

>  <smiles>  (48) 
CCN(CC)c1ccc(C=CC(=O)c2ccc(OC)cc2)cc1

>  <score_type>  (48) 
oracle

>  <origin>  (48) 
adg

>  <m_score__min__energy>  (48) 
-7.2300000000000004

>  <m_primary>  (48) 
energy

$$$$
48:0
     RDKit          3D

 51 54  0  0  0  0  0  0  0  0999 V2000
   59.5790   33.4650   50.5020 C   0  0  0  0  0  0  0  0  0  0  0  0
   59.8450   33.5070   49.1020 O   0  0  0  0  0  0  0  0  0  0  0  0
   61.0980   33.2550   48.5210 C   0  0  0  0  0  0  0  0  0  0  0  0
   62.1850   34.1380   48.6860 C   0  0  0  0  0  0  0  0  0  0  0  0
   63.4190   33.8620   48.0950 C   0  0  0  0  0  0  0  0  0  0  0  0
   63.5860   32.7060   47.3330 C   0  0  0  0  0  0  0  0  0  0  0  0
   62.5190   31.8210   47.1600 C   0  0  0  0  0  0  0  0  0  0  0  0
   61.2710   32.0860   47.7500 C   0  0  0  0  0  0  0  0  0  0  0  0
   60.1220   31.1310   47.5260 C   0  0  0  0  0  0  0  0  0  0  0  0
   60.3560   30.1880   46.3370 C   0  0  0  0  0  0  0  0  0  0  0  0
   60.2430   28.7670   46.7480 N   0  0  0  0  0  0  0  0  0  0  0  0
   60.4420   27.8170   45.6180 C   0  0  0  0  0  0  0  0  0  0  0  0
   59.2630   26.8480   45.4030 C   0  0  0  0  0  0  0  0  0  0  0  0
   57.9630   27.5500   45.4040 N   0  0  0  0  0  0  0  0  0  0  0  0
   57.7110   28.2300   44.1160 C   0  0  0  0  0  0  0  0  0  0  0  0
   57.3700   29.6720   44.3370 C   0  0  0  0  0  0  0  0  0  0  0  0
   56.1570   30.0990   44.7400 N   0  0  0  0  0  0  0  0  0  0  0  0
   56.2740   31.3890   44.8230 O   0  0  0  0  0  0  0  0  0  0  0  0
   57.4910   31.7440   44.4920 C   0  0  0  0  0  0  0  0  0  0  0  0
   57.9740   33.1580   44.4580 C   0  0  0  0  0  0  0  0  0  0  0  0
   57.1150   34.1260   45.2580 C   0  0  0  0  0  0  0  0  0  0  0  0
   58.4700   33.6960   45.7930 C   0  0  0  0  0  0  0  0  0  0  0  0
   58.2490   30.6810   44.1620 N   0  0  0  0  0  0  0  0  0  0  0  0
   57.7790   28.4530   46.5740 C   0  0  0  0  0  0  0  0  0  0  0  0
   59.0020   28.5060   47.5050 C   0  0  0  0  0  0  0  0  0  0  0  0
   60.5165   33.6130   51.0580 H   0  0  0  0  0  0  0  0  0  0  0  0
   58.8675   34.2619   50.7641 H   0  0  0  0  0  0  0  0  0  0  0  0
   59.1477   32.4876   50.7641 H   0  0  0  0  0  0  0  0  0  0  0  0
   62.0594   35.0518   49.2854 H   0  0  0  0  0  0  0  0  0  0  0  0
   64.2607   34.5571   48.2304 H   0  0  0  0  0  0  0  0  0  0  0  0
   64.5592   32.4908   46.8676 H   0  0  0  0  0  0  0  0  0  0  0  0
   62.6564   30.9106   46.5580 H   0  0  0  0  0  0  0  0  0  0  0  0
   59.9864   30.5250   48.4340 H   0  0  0  0  0  0  0  0  0  0  0  0
   59.2295   31.7333   47.3007 H   0  0  0  0  0  0  0  0  0  0  0  0
   59.6059   30.3974   45.5601 H   0  0  0  0  0  0  0  0  0  0  0  0
   61.3721   30.3591   45.9518 H   0  0  0  0  0  0  0  0  0  0  0  0
   60.5839   28.4000   44.6961 H   0  0  0  0  0  0  0  0  0  0  0  0
   61.3195   27.2024   45.8678 H   0  0  0  0  0  0  0  0  0  0  0  0
   59.3920   26.3407   44.4355 H   0  0  0  0  0  0  0  0  0  0  0  0
   59.2603   26.1263   46.2332 H   0  0  0  0  0  0  0  0  0  0  0  0
   58.6132   28.1640   43.4901 H   0  0  0  0  0  0  0  0  0  0  0  0
   56.8633   27.7384   43.6162 H   0  0  0  0  0  0  0  0  0  0  0  0
   58.3773   33.1268   43.4351 H   0  0  0  0  0  0  0  0  0  0  0  0
   56.9670   35.1553   44.8992 H   0  0  0  0  0  0  0  0  0  0  0  0
   56.0861   34.1133   45.6469 H   0  0  0  0  0  0  0  0  0  0  0  0
   59.3030   34.4138   45.8213 H   0  0  0  0  0  0  0  0  0  0  0  0
   58.8283   33.2430   46.7292 H   0  0  0  0  0  0  0  0  0  0  0  0
   57.5800   29.4689   46.2021 H   0  0  0  0  0  0  0  0  0  0  0  0
   56.9404   28.0533   47.1631 H   0  0  0  0  0  0  0  0  0  0  0  0
   58.8564   29.3094   48.2421 H   0  0  0  0  0  0  0  0  0  0  0  0
   59.0995   27.5312   48.0052 H   0  0  0  0  0  0  0  0  0  0  0  0
  1  2  1  0
  2  3  1  0
  3  4  2  0
  4  5  1  0
  5  6  2  0
  6  7  1  0
  7  8  2  0
  8  9  1  0
  9 10  1  0
 10 11  1  0
 11 12  1  0
 12 13  1  0
 13 14  1  0
 14 15  1  0
 15 16  1  0
 16 17  2  0
 17 18  1  0
 18 19  1  0
 19 20  1  0
 20 21  1  0
 21 22  1  0
 19 23  2  0
 14 24  1  0
 24 25  1  0
  8  3  1  0
 25 11  1  0
 23 16  1  0
 22 20  1  0
  1 26  1  0
  1 27  1  0
  1 28  1  0
  4 29  1  0
  5 30  1  0
  6 31  1  0
  7 32  1  0
  9 33  1  0
  9 34  1  0
 10 35  1  0
 10 36  1  0
 12 37  1  0
 12 38  1  0
 13 39  1  0
 13 40  1  0
 15 41  1  0
 15 42  1  0
 20 43  1  0
 21 44  1  0
 21 45  1  0
 22 46  1  0
 22 47  1  0
 24 48  1  0
 24 49  1  0
 25 50  1  0
 25 51  1  0
M  END
>  <UniqueID>  (49) 
46

>  <SMILES>  (49) 
COc1ccccc1CCN1CCN(Cc2noc(C3CC3)n2)CC1

>  <Energy>  (49) 
361.317095913003

>  <Genealogy>  (49) 
COc1ccccc1CCN1CCN(Cc2noc(C3CC3)n2)CC1 (3D coordinates assigned)
COc1ccccc1CCN1CCN(Cc2noc(C3CC3)n2)CC1 (nonaromatic ring conformer: 361.317095913003 kcal/mol)

>  <smiles>  (49) 
COc1ccccc1CCN1CCN(Cc2noc(C3CC3)n2)CC1

>  <score_type>  (49) 
oracle

>  <origin>  (49) 
adg

>  <m_score__min__energy>  (49) 
-8.5600000000000005

>  <m_primary>  (49) 
energy

$$$$
