0:0
     RDKit          3D

 63 66  0  0  0  0  0  0  0  0999 V2000
   56.6850   22.9840   48.2410 C   0  0  0  0  0  0  0  0  0  0  0  0
   57.5900   23.5240   47.2830 O   0  0  0  0  0  0  0  0  0  0  0  0
   57.5890   24.8540   46.8340 C   0  0  0  0  0  0  0  0  0  0  0  0
   58.7770   25.6080   46.8090 C   0  0  0  0  0  0  0  0  0  0  0  0
   58.7760   26.9320   46.3740 C   0  0  0  0  0  0  0  0  0  0  0  0
   57.5860   27.5400   45.9500 C   0  0  0  0  0  0  0  0  0  0  0  0
   57.5840   28.9500   45.4830 C   0  0  0  0  0  0  0  0  0  0  0  0
   57.0410   29.2890   44.2320 C   0  0  0  0  0  0  0  0  0  0  0  0
   57.0360   30.6160   43.7940 C   0  0  0  0  0  0  0  0  0  0  0  0
   57.5760   31.6350   44.6000 C   0  0  0  0  0  0  0  0  0  0  0  0
   57.5850   33.0140   44.1820 N   0  0  0  0  0  0  0  0  0  0  0  0
   57.5710   34.1570   45.0960 C   0  0  0  0  0  0  0  0  0  0  0  0
   58.7660   34.1200   46.0110 C   0  0  0  0  0  0  0  0  0  0  0  0
   60.0660   34.1020   45.4900 C   0  0  0  0  0  0  0  0  0  0  0  0
   61.1710   34.0730   46.3450 C   0  0  0  0  0  0  0  0  0  0  0  0
   61.0010   34.0690   47.7460 C   0  0  0  0  0  0  0  0  0  0  0  0
   62.1490   34.0400   48.6350 N   0  0  0  0  0  0  0  0  0  0  0  0
   61.9760   34.2230   50.0810 C   0  0  0  0  0  0  0  0  0  0  0  0
   63.5000   33.8320   48.1010 C   0  0  0  0  0  0  0  0  0  0  0  0
   59.6880   34.0960   48.2590 C   0  0  0  0  0  0  0  0  0  0  0  0
   58.5850   34.1230   47.4010 C   0  0  0  0  0  0  0  0  0  0  0  0
   58.1120   31.2970   45.8500 C   0  0  0  0  0  0  0  0  0  0  0  0
   58.1210   29.9690   46.2870 C   0  0  0  0  0  0  0  0  0  0  0  0
   56.3990   26.7920   45.9690 C   0  0  0  0  0  0  0  0  0  0  0  0
   56.3800   25.4590   46.4000 C   0  0  0  0  0  0  0  0  0  0  0  0
   55.1290   24.8110   46.3710 O   0  0  0  0  0  0  0  0  0  0  0  0
   54.5380   24.1020   45.2780 C   0  0  0  0  0  0  0  0  0  0  0  0
   55.5190   24.0720   44.1160 C   0  0  0  0  0  0  0  0  0  0  0  0
   56.3770   22.8280   44.3110 C   0  0  0  0  0  0  0  0  0  0  0  0
   55.6370   21.9320   45.3030 C   0  0  0  0  0  0  0  0  0  0  0  0
   54.3280   22.6340   45.6340 C   0  0  0  0  0  0  0  0  0  0  0  0
   57.0511   23.2024   49.2550 H   0  0  0  0  0  0  0  0  0  0  0  0
   55.6923   23.4375   48.1039 H   0  0  0  0  0  0  0  0  0  0  0  0
   56.6127   21.8950   48.1039 H   0  0  0  0  0  0  0  0  0  0  0  0
   59.7196   25.1458   47.1374 H   0  0  0  0  0  0  0  0  0  0  0  0
   59.7155   27.5040   46.3633 H   0  0  0  0  0  0  0  0  0  0  0  0
   56.6158   28.5023   43.5914 H   0  0  0  0  0  0  0  0  0  0  0  0
   56.6069   30.8656   42.8124 H   0  0  0  0  0  0  0  0  0  0  0  0
   57.5510   33.2240   43.1590 H   0  0  0  0  0  0  0  0  0  0  0  0
   57.5929   35.0880   44.5106 H   0  0  0  0  0  0  0  0  0  0  0  0
   56.6566   34.1116   45.7057 H   0  0  0  0  0  0  0  0  0  0  0  0
   60.2182   34.1108   44.4006 H   0  0  0  0  0  0  0  0  0  0  0  0
   62.1857   34.0530   45.9208 H   0  0  0  0  0  0  0  0  0  0  0  0
   62.6347   33.5262   50.6202 H   0  0  0  0  0  0  0  0  0  0  0  0
   62.2345   35.2569   50.3533 H   0  0  0  0  0  0  0  0  0  0  0  0
   60.9292   34.0230   50.3533 H   0  0  0  0  0  0  0  0  0  0  0  0
   64.2105   33.7226   48.9336 H   0  0  0  0  0  0  0  0  0  0  0  0
   63.5144   32.9211   47.4846 H   0  0  0  0  0  0  0  0  0  0  0  0
   63.7877   34.6964   47.4846 H   0  0  0  0  0  0  0  0  0  0  0  0
   59.5298   34.0958   49.3476 H   0  0  0  0  0  0  0  0  0  0  0  0
   57.5679   34.1468   47.8194 H   0  0  0  0  0  0  0  0  0  0  0  0
   58.5300   32.0848   46.4940 H   0  0  0  0  0  0  0  0  0  0  0  0
   58.5519   29.7202   47.2680 H   0  0  0  0  0  0  0  0  0  0  0  0
   55.4617   27.2630   45.6379 H   0  0  0  0  0  0  0  0  0  0  0  0
   53.5892   24.6038   45.0373 H   0  0  0  0  0  0  0  0  0  0  0  0
   54.9762   24.0142   43.1610 H   0  0  0  0  0  0  0  0  0  0  0  0
   56.1358   24.9825   44.0905 H   0  0  0  0  0  0  0  0  0  0  0  0
   56.5080   22.3043   43.3526 H   0  0  0  0  0  0  0  0  0  0  0  0
   57.3760   23.0928   44.6877 H   0  0  0  0  0  0  0  0  0  0  0  0
   55.4365   20.9498   44.8502 H   0  0  0  0  0  0  0  0  0  0  0  0
   56.2371   21.7656   46.2098 H   0  0  0  0  0  0  0  0  0  0  0  0
   53.5056   22.2101   45.0390 H   0  0  0  0  0  0  0  0  0  0  0  0
   54.0606   22.5102   46.6938 H   0  0  0  0  0  0  0  0  0  0  0  0
  1  2  1  0
  2  3  1  0
  3  4  2  0
  4  5  1  0
  5  6  2  0
  6  7  1  0
  7  8  2  0
  8  9  1  0
  9 10  2  0
 10 11  1  0
 11 12  1  0
 12 13  1  0
 13 14  2  0
 14 15  1  0
 15 16  2  0
 16 17  1  0
 17 18  1  0
 17 19  1  0
 16 20  1  0
 20 21  2  0
 10 22  1  0
 22 23  2  0
  6 24  1  0
 24 25  2  0
 25 26  1  0
 26 27  1  0
 27 28  1  0
 28 29  1  0
 29 30  1  0
 30 31  1  0
 25  3  1  0
 31 27  1  0
 23  7  1  0
 21 13  1  0
  1 32  1  0
  1 33  1  0
  1 34  1  0
  4 35  1  0
  5 36  1  0
  8 37  1  0
  9 38  1  0
 11 39  1  0
 12 40  1  0
 12 41  1  0
 14 42  1  0
 15 43  1  0
 18 44  1  0
 18 45  1  0
 18 46  1  0
 19 47  1  0
 19 48  1  0
 19 49  1  0
 20 50  1  0
 21 51  1  0
 22 52  1  0
 23 53  1  0
 24 54  1  0
 27 55  1  0
 28 56  1  0
 28 57  1  0
 29 58  1  0
 29 59  1  0
 30 60  1  0
 30 61  1  0
 31 62  1  0
 31 63  1  0
M  END
>  <UniqueID>  (1) 
1

>  <SMILES>  (1) 
COc1ccc(-c2ccc(NCc3ccc(N(C)C)cc3)cc2)cc1OC1CCCC1

>  <Energy>  (1) 
74.27865114318507

>  <Genealogy>  (1) 
COc1ccc(-c2ccc(NCc3ccc(N(C)C)cc3)cc2)cc1OC1CCCC1 (3D coordinates assigned)
COc1ccc(-c2ccc(NCc3ccc(N(C)C)cc3)cc2)cc1OC1CCCC1 (nonaromatic ring conformer: 74.27865114318507 kcal/mol)

>  <smiles>  (1) 
COc1ccc(-c2ccc(NCc3ccc(N(C)C)cc3)cc2)cc1OC1CCCC1

>  <score_type>  (1) 
oracle

>  <origin>  (1) 
adg

>  <m_score__min__energy>  (1) 
-8.7699999999999996

>  <m_primary>  (1) 
energy

$$$$
1:0
     RDKit          3D

 55 57  0  0  0  0  0  0  0  0999 V2000
   63.7910   31.9880   46.7400 F   0  0  0  0  0  0  0  0  0  0  0  0
   63.3990   32.7250   47.8120 C   0  0  0  0  0  0  0  0  0  0  0  0
   64.1830   32.7130   48.9710 C   0  0  0  0  0  0  0  0  0  0  0  0
   63.7960   33.4530   50.0900 C   0  0  0  0  0  0  0  0  0  0  0  0
   62.6220   34.2100   50.0570 C   0  0  0  0  0  0  0  0  0  0  0  0
   61.8310   34.2260   48.9030 C   0  0  0  0  0  0  0  0  0  0  0  0
   62.2140   33.4870   47.7700 C   0  0  0  0  0  0  0  0  0  0  0  0
   61.3370   33.5020   46.5410 C   0  0  0  0  0  0  0  0  0  0  0  0
   60.1190   34.3120   46.7750 N   0  0  0  0  0  0  0  0  0  0  0  0
   59.5950   34.9520   45.5380 C   0  0  0  0  0  0  0  0  0  0  0  0
   58.3010   34.3100   44.9920 C   0  0  0  0  0  0  0  0  0  0  0  0
   58.3110   32.7920   45.2110 C   0  0  0  0  0  0  0  0  0  0  0  0
   57.0870   32.1270   44.5360 C   0  0  0  0  0  0  0  0  0  0  0  0
   57.4120   31.5090   43.1560 C   0  0  0  0  0  0  0  0  0  0  0  0
   57.1880   30.0520   43.1390 N   0  0  0  0  0  0  0  0  0  0  0  0
   56.9930   29.5060   44.4940 C   0  0  0  0  0  0  0  0  0  0  0  0
   58.3050   29.3100   45.2200 C   0  0  0  0  0  0  0  0  0  0  0  0
   59.4800   29.0650   44.4960 C   0  0  0  0  0  0  0  0  0  0  0  0
   60.7000   28.9270   45.1630 C   0  0  0  0  0  0  0  0  0  0  0  0
   60.7560   29.0300   46.5550 C   0  0  0  0  0  0  0  0  0  0  0  0
   59.5840   29.2540   47.3000 C   0  0  0  0  0  0  0  0  0  0  0  0
   59.6490   29.4220   48.7970 C   0  0  0  0  0  0  0  0  0  0  0  0
   60.6130   30.3560   49.1400 F   0  0  0  0  0  0  0  0  0  0  0  0
   59.9720   28.2100   49.3780 F   0  0  0  0  0  0  0  0  0  0  0  0
   58.4330   29.8530   49.2980 F   0  0  0  0  0  0  0  0  0  0  0  0
   58.3640   29.4150   46.6190 C   0  0  0  0  0  0  0  0  0  0  0  0
   58.3880   32.4790   46.7240 C   0  0  0  0  0  0  0  0  0  0  0  0
   59.0790   33.5920   47.5410 C   0  0  0  0  0  0  0  0  0  0  0  0
   65.1079   32.1182   49.0006 H   0  0  0  0  0  0  0  0  0  0  0  0
   64.4160   33.4400   50.9985 H   0  0  0  0  0  0  0  0  0  0  0  0
   62.3195   34.7938   50.9389 H   0  0  0  0  0  0  0  0  0  0  0  0
   60.9051   34.8196   48.8821 H   0  0  0  0  0  0  0  0  0  0  0  0
   61.9009   33.9329   45.7006 H   0  0  0  0  0  0  0  0  0  0  0  0
   61.0354   32.4697   46.3099 H   0  0  0  0  0  0  0  0  0  0  0  0
   59.3890   36.0100   45.7577 H   0  0  0  0  0  0  0  0  0  0  0  0
   60.3646   34.8194   44.7634 H   0  0  0  0  0  0  0  0  0  0  0  0
   57.4353   34.7438   45.5139 H   0  0  0  0  0  0  0  0  0  0  0  0
   58.2371   34.5098   43.9122 H   0  0  0  0  0  0  0  0  0  0  0  0
   59.2049   32.3641   44.7336 H   0  0  0  0  0  0  0  0  0  0  0  0
   56.7137   31.3304   45.1964 H   0  0  0  0  0  0  0  0  0  0  0  0
   56.3365   32.9144   44.3725 H   0  0  0  0  0  0  0  0  0  0  0  0
   56.7681   31.9766   42.3965 H   0  0  0  0  0  0  0  0  0  0  0  0
   58.4753   31.6927   42.9424 H   0  0  0  0  0  0  0  0  0  0  0  0
   56.3270   29.8400   42.5880 H   0  0  0  0  0  0  0  0  0  0  0  0
   57.9980   29.5740   42.6780 H   0  0  0  0  0  0  0  0  0  0  0  0
   56.3683   30.2034   45.0714 H   0  0  0  0  0  0  0  0  0  0  0  0
   56.5078   28.5235   44.3978 H   0  0  0  0  0  0  0  0  0  0  0  0
   59.4415   28.9812   43.3999 H   0  0  0  0  0  0  0  0  0  0  0  0
   61.6195   28.7366   44.5900 H   0  0  0  0  0  0  0  0  0  0  0  0
   61.7225   28.9354   47.0717 H   0  0  0  0  0  0  0  0  0  0  0  0
   57.4465   29.6254   47.1882 H   0  0  0  0  0  0  0  0  0  0  0  0
   57.3649   32.3484   47.1065 H   0  0  0  0  0  0  0  0  0  0  0  0
   58.9916   31.5666   46.8387 H   0  0  0  0  0  0  0  0  0  0  0  0
   58.3158   34.3163   47.8617 H   0  0  0  0  0  0  0  0  0  0  0  0
   59.5753   33.1112   48.3969 H   0  0  0  0  0  0  0  0  0  0  0  0
  1  2  1  0
  2  3  2  0
  3  4  1  0
  4  5  2  0
  5  6  1  0
  6  7  2  0
  7  8  1  0
  8  9  1  0
  9 10  1  0
 10 11  1  0
 11 12  1  0
 12 13  1  0
 13 14  1  0
 14 15  1  0
 15 16  1  0
 16 17  1  0
 17 18  2  0
 18 19  1  0
 19 20  2  0
 20 21  1  0
 21 22  1  0
 22 23  1  0
 22 24  1  0
 22 25  1  0
 21 26  2  0
 12 27  1  0
 27 28  1  0
  7  2  1  0
 28  9  1  0
 26 17  1  0
  3 29  1  0
  4 30  1  0
  5 31  1  0
  6 32  1  0
  8 33  1  0
  8 34  1  0
 10 35  1  0
 10 36  1  0
 11 37  1  0
 11 38  1  0
 12 39  1  0
 13 40  1  0
 13 41  1  0
 14 42  1  0
 14 43  1  0
 15 44  1  0
 15 45  1  0
 16 46  1  0
 16 47  1  0
 18 48  1  0
 19 49  1  0
 20 50  1  0
 26 51  1  0
 27 52  1  0
 27 53  1  0
 28 54  1  0
 28 55  1  0
M  CHG  1  15   1
M  END
>  <UniqueID>  (2) 
2

>  <SMILES>  (2) 
Fc1ccccc1CN1CCC(CC[NH2+]Cc2cccc(C(F)(F)F)c2)CC1

>  <Energy>  (2) 
65.73297498949564

>  <Genealogy>  (2) 
Fc1ccccc1CN1CCC(CC[NH2+]Cc2cccc(C(F)(F)F)c2)CC1 (protonated)
Fc1ccccc1CN1CCC(CC[NH2+]Cc2cccc(C(F)(F)F)c2)CC1 (3D coordinates assigned)
Fc1ccccc1CN1CCC(CC[NH2+]Cc2cccc(C(F)(F)F)c2)CC1 (nonaromatic ring conformer: 65.73297498949564 kcal/mol)

>  <smiles>  (2) 
Fc1ccccc1CN1CCC(CCNCc2cccc(C(F)(F)F)c2)CC1

>  <score_type>  (2) 
oracle

>  <origin>  (2) 
adg

>  <m_score__min__energy>  (2) 
-6.8099999999999996

>  <m_primary>  (2) 
energy

$$$$
2:0
     RDKit          3D

 42 44  0  0  0  0  0  0  0  0999 V2000
   57.7820   31.9900   42.0360 C   0  0  0  0  0  0  0  0  0  0  0  0
   56.9640   31.1710   43.0400 C   0  0  0  0  0  0  0  0  0  0  0  0
   57.7250   30.9420   44.3010 N   0  0  0  0  0  0  0  0  0  0  0  0
   58.0070   32.0020   45.1500 C   0  0  0  0  0  0  0  0  0  0  0  0
   57.7830   33.4610   44.7810 C   0  0  0  0  0  0  0  0  0  0  0  0
   59.0540   34.2000   44.7570 N   0  0  0  0  0  0  0  0  0  0  0  0
   59.2680   34.9560   45.9980 C   0  0  0  0  0  0  0  0  0  0  0  0
   60.3660   34.3550   46.8280 C   0  0  0  0  0  0  0  0  0  0  0  0
   60.5230   34.5100   48.1920 C   0  0  0  0  0  0  0  0  0  0  0  0
   61.6800   33.8320   48.5140 C   0  0  0  0  0  0  0  0  0  0  0  0
   62.1480   33.3060   47.3250 C   0  0  0  0  0  0  0  0  0  0  0  0
   63.3980   32.5090   47.1600 C   0  0  0  0  0  0  0  0  0  0  0  0
   61.3490   33.6360   46.3360 O   0  0  0  0  0  0  0  0  0  0  0  0
   58.5230   31.7610   46.4240 C   0  0  0  0  0  0  0  0  0  0  0  0
   58.8370   30.4790   46.8360 C   0  0  0  0  0  0  0  0  0  0  0  0
   59.2890   30.3260   48.0020 O   0  0  0  0  0  0  0  0  0  0  0  0
   58.6610   29.3930   45.9560 C   0  0  0  0  0  0  0  0  0  0  0  0
   59.0170   28.0590   46.3140 C   0  0  0  0  0  0  0  0  0  0  0  0
   59.6910   27.5960   47.8790 Cl  0  0  0  0  0  0  0  0  0  0  0  0
   58.8460   27.0200   45.4010 C   0  0  0  0  0  0  0  0  0  0  0  0
   58.3370   27.2690   44.1360 C   0  0  0  0  0  0  0  0  0  0  0  0
   57.9770   28.5590   43.7650 C   0  0  0  0  0  0  0  0  0  0  0  0
   58.1090   29.6530   44.6610 C   0  0  0  0  0  0  0  0  0  0  0  0
   58.4580   32.6668   42.5792 H   0  0  0  0  0  0  0  0  0  0  0  0
   58.3731   31.3109   41.4040 H   0  0  0  0  0  0  0  0  0  0  0  0
   57.1022   32.5803   41.4040 H   0  0  0  0  0  0  0  0  0  0  0  0
   56.0370   31.7146   43.2748 H   0  0  0  0  0  0  0  0  0  0  0  0
   56.7387   30.1936   42.5885 H   0  0  0  0  0  0  0  0  0  0  0  0
   57.3180   33.5129   43.7855 H   0  0  0  0  0  0  0  0  0  0  0  0
   57.1270   33.9168   45.5372 H   0  0  0  0  0  0  0  0  0  0  0  0
   59.8560   33.5460   44.6140 H   0  0  0  0  0  0  0  0  0  0  0  0
   59.5387   35.9913   45.7433 H   0  0  0  0  0  0  0  0  0  0  0  0
   58.3376   34.9265   46.5841 H   0  0  0  0  0  0  0  0  0  0  0  0
   59.8624   35.0599   48.8784 H   0  0  0  0  0  0  0  0  0  0  0  0
   62.1355   33.7310   49.5101 H   0  0  0  0  0  0  0  0  0  0  0  0
   63.8020   32.2514   48.1502 H   0  0  0  0  0  0  0  0  0  0  0  0
   63.1740   31.5866   46.6041 H   0  0  0  0  0  0  0  0  0  0  0  0
   64.1398   33.1012   46.6041 H   0  0  0  0  0  0  0  0  0  0  0  0
   58.6825   32.6046   47.1116 H   0  0  0  0  0  0  0  0  0  0  0  0
   59.1174   25.9931   45.6869 H   0  0  0  0  0  0  0  0  0  0  0  0
   58.2174   26.4410   43.4218 H   0  0  0  0  0  0  0  0  0  0  0  0
   57.5808   28.7368   42.7544 H   0  0  0  0  0  0  0  0  0  0  0  0
  1  2  1  0
  2  3  1  0
  3  4  1  0
  4  5  1  0
  5  6  1  0
  6  7  1  0
  7  8  1  0
  8  9  2  0
  9 10  1  0
 10 11  2  0
 11 12  1  0
 11 13  1  0
  4 14  2  0
 14 15  1  0
 15 16  2  0
 15 17  1  0
 17 18  2  0
 18 19  1  0
 18 20  1  0
 20 21  2  0
 21 22  1  0
 22 23  2  0
 23  3  1  0
 13  8  1  0
 23 17  1  0
  1 24  1  0
  1 25  1  0
  1 26  1  0
  2 27  1  0
  2 28  1  0
  5 29  1  0
  5 30  1  0
  6 31  1  0
  7 32  1  0
  7 33  1  0
  9 34  1  0
 10 35  1  0
 12 36  1  0
 12 37  1  0
 12 38  1  0
 14 39  1  0
 20 40  1  0
 21 41  1  0
 22 42  1  0
M  END
>  <UniqueID>  (3) 
3

>  <SMILES>  (3) 
CCn1c(CNCc2ccc(C)o2)cc(=O)c2c(Cl)cccc21

>  <Energy>  (3) 
86.54011539096393

>  <Genealogy>  (3) 
CCn1c(CNCc2ccc(C)o2)cc(=O)c2c(Cl)cccc21 (3D coordinates assigned)
CCn1c(CNCc2ccc(C)o2)cc(=O)c2c(Cl)cccc21 (optimized conformer: 86.54011539096393 kcal/mol)

>  <smiles>  (3) 
CCn1c(CNCc2ccc(C)o2)cc(=O)c2c(Cl)cccc21

>  <score_type>  (3) 
oracle

>  <origin>  (3) 
adg

>  <m_score__min__energy>  (3) 
-7.96

>  <m_primary>  (3) 
energy

$$$$
3:0
     RDKit          3D

 37 39  0  0  0  0  0  0  0  0999 V2000
   56.9500   21.2330   46.3140 C   0  0  0  0  0  0  0  0  0  0  0  0
   57.3810   22.3340   47.1080 O   0  0  0  0  0  0  0  0  0  0  0  0
   57.4940   23.6540   46.6450 C   0  0  0  0  0  0  0  0  0  0  0  0
   56.5080   24.6220   46.9050 C   0  0  0  0  0  0  0  0  0  0  0  0
   56.6520   25.9270   46.4290 C   0  0  0  0  0  0  0  0  0  0  0  0
   57.7830   26.2940   45.6790 C   0  0  0  0  0  0  0  0  0  0  0  0
   57.9470   27.6380   45.1810 N   0  0  0  0  0  0  0  0  0  0  0  0
   58.1060   28.7760   45.8910 C   0  0  0  0  0  0  0  0  0  0  0  0
   58.2190   29.8090   44.9770 C   0  0  0  0  0  0  0  0  0  0  0  0
   58.4010   31.2530   45.2650 C   0  0  0  0  0  0  0  0  0  0  0  0
   57.7640   32.2280   44.4750 C   0  0  0  0  0  0  0  0  0  0  0  0
   57.9390   33.5890   44.7480 C   0  0  0  0  0  0  0  0  0  0  0  0
   58.7500   33.9920   45.8100 C   0  0  0  0  0  0  0  0  0  0  0  0
   58.9190   35.3120   46.0730 F   0  0  0  0  0  0  0  0  0  0  0  0
   59.3900   33.0360   46.6010 C   0  0  0  0  0  0  0  0  0  0  0  0
   59.2190   31.6740   46.3320 C   0  0  0  0  0  0  0  0  0  0  0  0
   58.1210   29.2600   43.7490 N   0  0  0  0  0  0  0  0  0  0  0  0
   57.9560   27.9560   43.8940 N   0  0  0  0  0  0  0  0  0  0  0  0
   58.7690   25.3240   45.4240 C   0  0  0  0  0  0  0  0  0  0  0  0
   58.6300   24.0060   45.9030 C   0  0  0  0  0  0  0  0  0  0  0  0
   59.5970   23.0190   45.6600 O   0  0  0  0  0  0  0  0  0  0  0  0
   59.6400   22.1980   44.4960 C   0  0  0  0  0  0  0  0  0  0  0  0
   56.6283   20.4112   46.9706 H   0  0  0  0  0  0  0  0  0  0  0  0
   56.1081   21.5461   45.6791 H   0  0  0  0  0  0  0  0  0  0  0  0
   57.7808   20.8913   45.6791 H   0  0  0  0  0  0  0  0  0  0  0  0
   55.6160   24.3492   47.4880 H   0  0  0  0  0  0  0  0  0  0  0  0
   55.8736   26.6743   46.6428 H   0  0  0  0  0  0  0  0  0  0  0  0
   58.1393   28.8648   46.9869 H   0  0  0  0  0  0  0  0  0  0  0  0
   57.1235   31.9176   43.6363 H   0  0  0  0  0  0  0  0  0  0  0  0
   57.4364   34.3430   44.1244 H   0  0  0  0  0  0  0  0  0  0  0  0
   60.0298   33.3544   47.4372 H   0  0  0  0  0  0  0  0  0  0  0  0
   59.7271   30.9260   46.9583 H   0  0  0  0  0  0  0  0  0  0  0  0
   58.1430   29.7450   42.8260 H   0  0  0  0  0  0  0  0  0  0  0  0
   59.6615   25.5981   44.8423 H   0  0  0  0  0  0  0  0  0  0  0  0
   59.6954   21.1408   44.7948 H   0  0  0  0  0  0  0  0  0  0  0  0
   58.7320   22.3628   43.8973 H   0  0  0  0  0  0  0  0  0  0  0  0
   60.5258   22.4567   43.8973 H   0  0  0  0  0  0  0  0  0  0  0  0
  1  2  1  0
  2  3  1  0
  3  4  2  0
  4  5  1  0
  5  6  2  0
  6  7  1  0
  7  8  1  0
  8  9  2  0
  9 10  1  0
 10 11  2  0
 11 12  1  0
 12 13  2  0
 13 14  1  0
 13 15  1  0
 15 16  2  0
  9 17  1  0
 17 18  2  0
  6 19  1  0
 19 20  2  0
 20 21  1  0
 21 22  1  0
 20  3  1  0
 18  7  1  0
 16 10  1  0
  1 23  1  0
  1 24  1  0
  1 25  1  0
  4 26  1  0
  5 27  1  0
  8 28  1  0
 11 29  1  0
 12 30  1  0
 15 31  1  0
 16 32  1  0
 17 33  1  0
 19 34  1  0
 22 35  1  0
 22 36  1  0
 22 37  1  0
M  CHG  1  17   1
M  END
>  <UniqueID>  (4) 
4

>  <SMILES>  (4) 
COc1ccc(-n2cc(-c3ccc(F)cc3)[nH+]n2)cc1OC

>  <Energy>  (4) 
78.80105171773697

>  <Genealogy>  (4) 
COc1ccc(-n2cc(-c3ccc(F)cc3)[nH+]n2)cc1OC (protonated)
COc1ccc(-n2cc(-c3ccc(F)cc3)[nH+]n2)cc1OC (3D coordinates assigned)
COc1ccc(-n2cc(-c3ccc(F)cc3)[nH+]n2)cc1OC (optimized conformer: 78.80105171773697 kcal/mol)

>  <smiles>  (4) 
COc1ccc(-n2cc(-c3ccc(F)cc3)nn2)cc1OC

>  <score_type>  (4) 
oracle

>  <origin>  (4) 
adg

>  <m_score__min__energy>  (4) 
-5.3399999999999999

>  <m_primary>  (4) 
energy

$$$$
4:0
     RDKit          3D

 39 42  0  0  0  0  0  0  0  0999 V2000
   63.2510   31.7870   48.4340 C   0  0  0  0  0  0  0  0  0  0  0  0
   61.9220   32.3260   47.9850 C   0  0  0  0  0  0  0  0  0  0  0  0
   61.1850   31.6460   47.0560 N   0  0  0  0  0  0  0  0  0  0  0  0
   59.9790   32.1170   46.6300 C   0  0  0  0  0  0  0  0  0  0  0  0
   59.2260   31.4170   45.6770 C   0  0  0  0  0  0  0  0  0  0  0  0
   57.9910   31.9270   45.2360 C   0  0  0  0  0  0  0  0  0  0  0  0
   57.1940   31.2350   44.2630 N   0  0  0  0  0  0  0  0  0  0  0  0
   56.3950   30.0680   44.4990 C   0  0  0  0  0  0  0  0  0  0  0  0
   55.1410   30.1760   44.4480 O   0  0  0  0  0  0  0  0  0  0  0  0
   56.9990   28.7380   44.7490 C   0  0  0  0  0  0  0  0  0  0  0  0
   58.2280   28.3830   44.1620 C   0  0  0  0  0  0  0  0  0  0  0  0
   58.7920   27.1250   44.4020 C   0  0  0  0  0  0  0  0  0  0  0  0
   58.1260   26.2090   45.2180 C   0  0  0  0  0  0  0  0  0  0  0  0
   56.9100   26.5560   45.8170 C   0  0  0  0  0  0  0  0  0  0  0  0
   56.3360   27.8060   45.5680 C   0  0  0  0  0  0  0  0  0  0  0  0
   56.2820   25.6380   46.6640 O   0  0  0  0  0  0  0  0  0  0  0  0
   56.9770   24.4840   47.1460 C   0  0  0  0  0  0  0  0  0  0  0  0
   57.8690   23.9020   46.0430 C   0  0  0  0  0  0  0  0  0  0  0  0
   58.6580   24.9350   45.4470 O   0  0  0  0  0  0  0  0  0  0  0  0
   57.4990   33.1170   45.7890 C   0  0  0  0  0  0  0  0  0  0  0  0
   58.2430   33.8160   46.7440 C   0  0  0  0  0  0  0  0  0  0  0  0
   59.4820   33.3230   47.1620 C   0  0  0  0  0  0  0  0  0  0  0  0
   60.2150   33.9960   48.0850 N   0  0  0  0  0  0  0  0  0  0  0  0
   61.4180   33.5320   48.5090 C   0  0  0  0  0  0  0  0  0  0  0  0
   62.3060   34.4640   49.7070 Cl  0  0  0  0  0  0  0  0  0  0  0  0
   63.2881   31.7719   49.5333 H   0  0  0  0  0  0  0  0  0  0  0  0
   63.3813   30.7650   48.0487 H   0  0  0  0  0  0  0  0  0  0  0  0
   64.0564   32.4296   48.0487 H   0  0  0  0  0  0  0  0  0  0  0  0
   61.5550   30.7510   46.6620 H   0  0  0  0  0  0  0  0  0  0  0  0
   59.6020   30.4657   45.2725 H   0  0  0  0  0  0  0  0  0  0  0  0
   58.7489   29.0996   43.5099 H   0  0  0  0  0  0  0  0  0  0  0  0
   59.7581   26.8585   43.9486 H   0  0  0  0  0  0  0  0  0  0  0  0
   55.3633   28.0616   46.0136 H   0  0  0  0  0  0  0  0  0  0  0  0
   57.6016   24.7690   48.0054 H   0  0  0  0  0  0  0  0  0  0  0  0
   56.2420   23.7243   47.4504 H   0  0  0  0  0  0  0  0  0  0  0  0
   58.5347   23.1419   46.4778 H   0  0  0  0  0  0  0  0  0  0  0  0
   57.2320   23.4469   45.2702 H   0  0  0  0  0  0  0  0  0  0  0  0
   56.5202   33.5039   45.4692 H   0  0  0  0  0  0  0  0  0  0  0  0
   57.8532   34.7539   47.1664 H   0  0  0  0  0  0  0  0  0  0  0  0
  1  2  1  0
  2  3  2  0
  3  4  1  0
  4  5  2  0
  5  6  1  0
  6  7  1  0
  7  8  1  0
  8  9  2  0
  8 10  1  0
 10 11  2  0
 11 12  1  0
 12 13  2  0
 13 14  1  0
 14 15  2  0
 14 16  1  0
 16 17  1  0
 17 18  1  0
 18 19  1  0
  6 20  2  0
 20 21  1  0
 21 22  2  0
 22 23  1  0
 23 24  2  0
 24 25  1  0
 24  2  1  0
 22  4  1  0
 15 10  1  0
 19 13  1  0
  1 26  1  0
  1 27  1  0
  1 28  1  0
  3 29  1  0
  5 30  1  0
 11 31  1  0
 12 32  1  0
 15 33  1  0
 17 34  1  0
 17 35  1  0
 18 36  1  0
 18 37  1  0
 20 38  1  0
 21 39  1  0
M  CHG  2   3   1   7  -1
M  END
>  <UniqueID>  (5) 
5

>  <SMILES>  (5) 
Cc1[nH+]c2cc([N-]C(=O)c3ccc4c(c3)OCCO4)ccc2nc1Cl

>  <Energy>  (5) 
54.409268408101525

>  <Genealogy>  (5) 
Cc1[nH+]c2cc([N-]C(=O)c3ccc4c(c3)OCCO4)ccc2nc1Cl (protonated)
Cc1[nH+]c2cc([N-]C(=O)c3ccc4c(c3)OCCO4)ccc2nc1Cl (3D coordinates assigned)
Cc1[nH+]c2cc([N-]C(=O)c3ccc4c(c3)OCCO4)ccc2nc1Cl (nonaromatic ring conformer: 54.409268408101525 kcal/mol)

>  <smiles>  (5) 
Cc1nc2cc(NC(=O)c3ccc4c(c3)OCCO4)ccc2nc1Cl

>  <score_type>  (5) 
oracle

>  <origin>  (5) 
adg

>  <m_score__min__energy>  (5) 
-7.8700000000000001

>  <m_primary>  (5) 
energy

$$$$
5:0
     RDKit          3D

 49 52  0  0  0  0  0  0  0  0999 V2000
   58.8790   34.6040   46.0710 C   0  0  0  0  0  0  0  0  0  0  0  0
   58.2190   33.5980   45.1890 C   0  0  0  0  0  0  0  0  0  0  0  0
   57.3260   32.6260   45.6020 C   0  0  0  0  0  0  0  0  0  0  0  0
   57.0590   31.9070   44.4530 C   0  0  0  0  0  0  0  0  0  0  0  0
   56.1000   30.7630   44.3430 C   0  0  0  0  0  0  0  0  0  0  0  0
   56.8460   29.5110   44.3380 N   0  0  0  0  0  0  0  0  0  0  0  0
   57.3370   28.8280   45.4990 C   0  0  0  0  0  0  0  0  0  0  0  0
   56.7940   27.7400   45.8290 O   0  0  0  0  0  0  0  0  0  0  0  0
   58.4150   29.3650   46.3500 C   0  0  0  0  0  0  0  0  0  0  0  0
   58.5510   29.1650   47.7390 C   0  0  0  0  0  0  0  0  0  0  0  0
   59.6420   29.8800   48.2100 C   0  0  0  0  0  0  0  0  0  0  0  0
   60.2470   30.1860   49.4090 C   0  0  0  0  0  0  0  0  0  0  0  0
   59.8960   29.6540   50.7580 C   0  0  0  0  0  0  0  0  0  0  0  0
   61.2570   31.0610   49.1470 N   0  0  0  0  0  0  0  0  0  0  0  0
   61.2920   31.3090   47.8350 N   0  0  0  0  0  0  0  0  0  0  0  0
   62.1390   32.2930   47.1430 C   0  0  0  0  0  0  0  0  0  0  0  0
   63.6430   32.0930   47.4460 C   0  0  0  0  0  0  0  0  0  0  0  0
   64.1520   33.0750   48.5150 C   0  0  0  0  0  0  0  0  0  0  0  0
   63.1470   33.3340   49.4730 O   0  0  0  0  0  0  0  0  0  0  0  0
   62.1160   34.1360   48.9170 C   0  0  0  0  0  0  0  0  0  0  0  0
   61.6900   33.7220   47.4880 C   0  0  0  0  0  0  0  0  0  0  0  0
   60.3040   30.5840   47.2890 C   0  0  0  0  0  0  0  0  0  0  0  0
   59.6170   30.4500   45.7700 S   0  0  0  0  0  0  0  0  0  0  0  0
   57.7560   32.4480   43.4310 N   0  0  0  0  0  0  0  0  0  0  0  0
   57.7750   31.9870   42.0470 C   0  0  0  0  0  0  0  0  0  0  0  0
   58.4790   33.4640   43.8730 N   0  0  0  0  0  0  0  0  0  0  0  0
   58.7049   34.3386   47.1242 H   0  0  0  0  0  0  0  0  0  0  0  0
   59.9603   34.6149   45.8696 H   0  0  0  0  0  0  0  0  0  0  0  0
   58.4584   35.6003   45.8696 H   0  0  0  0  0  0  0  0  0  0  0  0
   56.9218   32.4631   46.6120 H   0  0  0  0  0  0  0  0  0  0  0  0
   55.4107   30.7771   45.2001 H   0  0  0  0  0  0  0  0  0  0  0  0
   55.5228   30.8530   43.4109 H   0  0  0  0  0  0  0  0  0  0  0  0
   57.8915   28.5368   48.3558 H   0  0  0  0  0  0  0  0  0  0  0  0
   60.3261   30.3060   51.5326 H   0  0  0  0  0  0  0  0  0  0  0  0
   58.8019   29.6265   50.8680 H   0  0  0  0  0  0  0  0  0  0  0  0
   60.3012   28.6373   50.8680 H   0  0  0  0  0  0  0  0  0  0  0  0
   61.8920   31.4790   49.8610 H   0  0  0  0  0  0  0  0  0  0  0  0
   62.0125   32.1333   46.0620 H   0  0  0  0  0  0  0  0  0  0  0  0
   63.7991   31.0651   47.8052 H   0  0  0  0  0  0  0  0  0  0  0  0
   64.2039   32.2804   46.5185 H   0  0  0  0  0  0  0  0  0  0  0  0
   65.0273   32.6389   49.0186 H   0  0  0  0  0  0  0  0  0  0  0  0
   64.4261   34.0209   48.0249 H   0  0  0  0  0  0  0  0  0  0  0  0
   61.2352   34.0686   49.5725 H   0  0  0  0  0  0  0  0  0  0  0  0
   62.5159   35.1581   48.8436 H   0  0  0  0  0  0  0  0  0  0  0  0
   60.5938   33.7770   47.4145 H   0  0  0  0  0  0  0  0  0  0  0  0
   62.1722   34.4098   46.7777 H   0  0  0  0  0  0  0  0  0  0  0  0
   57.8203   30.8881   42.0272 H   0  0  0  0  0  0  0  0  0  0  0  0
   56.8621   32.3257   41.5352 H   0  0  0  0  0  0  0  0  0  0  0  0
   58.6569   32.3996   41.5352 H   0  0  0  0  0  0  0  0  0  0  0  0
  1  2  1  0
  2  3  1  0
  3  4  2  0
  4  5  1  0
  5  6  1  0
  6  7  1  0
  7  8  2  0
  7  9  1  0
  9 10  2  0
 10 11  1  0
 11 12  1  0
 12 13  1  0
 12 14  2  0
 14 15  1  0
 15 16  1  0
 16 17  1  0
 17 18  1  0
 18 19  1  0
 19 20  1  0
 20 21  1  0
 15 22  1  0
 22 23  1  0
  4 24  1  0
 24 25  1  0
 24 26  1  0
 26  2  2  0
 23  9  1  0
 22 11  2  0
 21 16  1  0
  1 27  1  0
  1 28  1  0
  1 29  1  0
  3 30  1  0
  5 31  1  0
  5 32  1  0
 10 33  1  0
 13 34  1  0
 13 35  1  0
 13 36  1  0
 14 37  1  0
 16 38  1  0
 17 39  1  0
 17 40  1  0
 18 41  1  0
 18 42  1  0
 20 43  1  0
 20 44  1  0
 21 45  1  0
 21 46  1  0
 25 47  1  0
 25 48  1  0
 25 49  1  0
M  CHG  2   6  -1  14   1
M  END
>  <UniqueID>  (6) 
6

>  <SMILES>  (6) 
Cc1cc(C[N-]C(=O)c2cc3c(C)[nH+]n(C4CCOCC4)c3s2)n(C)n1

>  <Energy>  (6) 
168.52237517714389

>  <Genealogy>  (6) 
Cc1cc(C[N-]C(=O)c2cc3c(C)[nH+]n(C4CCOCC4)c3s2)n(C)n1 (protonated)
Cc1cc(C[N-]C(=O)c2cc3c(C)[nH+]n(C4CCOCC4)c3s2)n(C)n1 (3D coordinates assigned)
Cc1cc(C[N-]C(=O)c2cc3c(C)[nH+]n(C4CCOCC4)c3s2)n(C)n1 (nonaromatic ring conformer: 168.52237517714389 kcal/mol)

>  <smiles>  (6) 
Cc1cc(CNC(=O)c2cc3c(C)nn(C4CCOCC4)c3s2)n(C)n1

>  <score_type>  (6) 
oracle

>  <origin>  (6) 
adg

>  <m_score__min__energy>  (6) 
-8.2599999999999998

>  <m_primary>  (6) 
energy

$$$$
6:0
     RDKit          3D

 55 59  0  0  0  0  0  0  0  0999 V2000
   57.0260   31.6210   41.9730 C   0  0  0  0  0  0  0  0  0  0  0  0
   57.5530   31.2370   43.3180 C   0  0  0  0  0  0  0  0  0  0  0  0
   58.0320   32.2290   44.2020 C   0  0  0  0  0  0  0  0  0  0  0  0
   58.5330   31.8370   45.4530 C   0  0  0  0  0  0  0  0  0  0  0  0
   59.0490   32.8020   46.3740 N   0  0  0  0  0  0  0  0  0  0  0  0
   60.1160   33.7120   45.9360 C   0  0  0  0  0  0  0  0  0  0  0  0
   60.6010   34.5850   47.0970 C   0  0  0  0  0  0  0  0  0  0  0  0
   60.7520   33.7590   48.3020 N   0  0  0  0  0  0  0  0  0  0  0  0
   62.0230   33.6580   48.9720 C   0  0  0  0  0  0  0  0  0  0  0  0
   63.1270   33.0860   48.3180 C   0  0  0  0  0  0  0  0  0  0  0  0
   64.3670   33.0080   48.9630 C   0  0  0  0  0  0  0  0  0  0  0  0
   64.5140   33.5020   50.2610 C   0  0  0  0  0  0  0  0  0  0  0  0
   63.4230   34.0780   50.9170 C   0  0  0  0  0  0  0  0  0  0  0  0
   62.1830   34.1590   50.2760 C   0  0  0  0  0  0  0  0  0  0  0  0
   59.6300   32.9210   48.7560 C   0  0  0  0  0  0  0  0  0  0  0  0
   58.4920   32.8930   47.7280 C   0  0  0  0  0  0  0  0  0  0  0  0
   58.5140   30.5140   45.7590 N   0  0  0  0  0  0  0  0  0  0  0  0
   58.9110   29.9310   46.8770 N   0  0  0  0  0  0  0  0  0  0  0  0
   58.7010   28.6000   46.7480 C   0  0  0  0  0  0  0  0  0  0  0  0
   59.0070   27.6100   47.8270 C   0  0  0  0  0  0  0  0  0  0  0  0
   58.1560   28.3330   45.4830 C   0  0  0  0  0  0  0  0  0  0  0  0
   57.7660   27.0330   44.8910 C   0  0  0  0  0  0  0  0  0  0  0  0
   57.0980   26.0650   45.6620 C   0  0  0  0  0  0  0  0  0  0  0  0
   56.7440   24.8350   45.1000 C   0  0  0  0  0  0  0  0  0  0  0  0
   57.0580   24.5570   43.7680 C   0  0  0  0  0  0  0  0  0  0  0  0
   56.7150   23.3630   43.2240 F   0  0  0  0  0  0  0  0  0  0  0  0
   57.7270   25.5100   42.9950 C   0  0  0  0  0  0  0  0  0  0  0  0
   58.0830   26.7410   43.5530 C   0  0  0  0  0  0  0  0  0  0  0  0
   58.0490   29.5880   44.9130 C   0  0  0  0  0  0  0  0  0  0  0  0
   57.5730   29.9210   43.6880 N   0  0  0  0  0  0  0  0  0  0  0  0
   56.1425   32.2648   42.0955 H   0  0  0  0  0  0  0  0  0  0  0  0
   57.8028   32.1663   41.4168 H   0  0  0  0  0  0  0  0  0  0  0  0
   56.7449   30.7145   41.4168 H   0  0  0  0  0  0  0  0  0  0  0  0
   58.0127   33.2907   43.9148 H   0  0  0  0  0  0  0  0  0  0  0  0
   60.9603   33.1194   45.5539 H   0  0  0  0  0  0  0  0  0  0  0  0
   59.7175   34.3666   45.1469 H   0  0  0  0  0  0  0  0  0  0  0  0
   61.5706   35.0348   46.8371 H   0  0  0  0  0  0  0  0  0  0  0  0
   59.8664   35.3811   47.2884 H   0  0  0  0  0  0  0  0  0  0  0  0
   63.0166   32.6978   47.2947 H   0  0  0  0  0  0  0  0  0  0  0  0
   65.2271   32.5568   48.4466 H   0  0  0  0  0  0  0  0  0  0  0  0
   65.4886   33.4376   50.7669 H   0  0  0  0  0  0  0  0  0  0  0  0
   63.5398   34.4682   51.9388 H   0  0  0  0  0  0  0  0  0  0  0  0
   61.3280   34.6172   50.7947 H   0  0  0  0  0  0  0  0  0  0  0  0
   59.9927   31.8947   48.9146 H   0  0  0  0  0  0  0  0  0  0  0  0
   59.2381   33.3489   49.6905 H   0  0  0  0  0  0  0  0  0  0  0  0
   57.8493   32.0208   47.9181 H   0  0  0  0  0  0  0  0  0  0  0  0
   57.8995   33.8156   47.8162 H   0  0  0  0  0  0  0  0  0  0  0  0
   59.2960   30.4240   47.7150 H   0  0  0  0  0  0  0  0  0  0  0  0
   58.8611   28.0820   48.8098 H   0  0  0  0  0  0  0  0  0  0  0  0
   58.3344   26.7448   47.7323 H   0  0  0  0  0  0  0  0  0  0  0  0
   60.0505   27.2752   47.7323 H   0  0  0  0  0  0  0  0  0  0  0  0
   56.8527   26.2769   46.7132 H   0  0  0  0  0  0  0  0  0  0  0  0
   56.2172   24.0848   45.7080 H   0  0  0  0  0  0  0  0  0  0  0  0
   57.9738   25.2909   41.9457 H   0  0  0  0  0  0  0  0  0  0  0  0
   58.6142   27.4855   42.9418 H   0  0  0  0  0  0  0  0  0  0  0  0
  1  2  1  0
  2  3  1  0
  3  4  2  0
  4  5  1  0
  5  6  1  0
  6  7  1  0
  7  8  1  0
  8  9  1  0
  9 10  2  0
 10 11  1  0
 11 12  2  0
 12 13  1  0
 13 14  2  0
  8 15  1  0
 15 16  1  0
  4 17  1  0
 17 18  1  0
 18 19  2  0
 19 20  1  0
 19 21  1  0
 21 22  1  0
 22 23  2  0
 23 24  1  0
 24 25  2  0
 25 26  1  0
 25 27  1  0
 27 28  2  0
 21 29  2  0
 29 30  1  0
 30  2  2  0
 16  5  1  0
 29 17  1  0
 14  9  1  0
 28 22  1  0
  1 31  1  0
  1 32  1  0
  1 33  1  0
  3 34  1  0
  6 35  1  0
  6 36  1  0
  7 37  1  0
  7 38  1  0
 10 39  1  0
 11 40  1  0
 12 41  1  0
 13 42  1  0
 14 43  1  0
 15 44  1  0
 15 45  1  0
 16 46  1  0
 16 47  1  0
 18 48  1  0
 20 49  1  0
 20 50  1  0
 20 51  1  0
 23 52  1  0
 24 53  1  0
 27 54  1  0
 28 55  1  0
M  CHG  1  18   1
M  END
>  <UniqueID>  (7) 
7

>  <SMILES>  (7) 
Cc1cc(N2CCN(c3ccccc3)CC2)n2[nH+]c(C)c(-c3ccc(F)cc3)c2n1

>  <Energy>  (7) 
110.09839153457564

>  <Genealogy>  (7) 
Cc1cc(N2CCN(c3ccccc3)CC2)n2[nH+]c(C)c(-c3ccc(F)cc3)c2n1 (protonated)
Cc1cc(N2CCN(c3ccccc3)CC2)n2[nH+]c(C)c(-c3ccc(F)cc3)c2n1 (3D coordinates assigned)
Cc1cc(N2CCN(c3ccccc3)CC2)n2[nH+]c(C)c(-c3ccc(F)cc3)c2n1 (nonaromatic ring conformer: 110.09839153457564 kcal/mol)

>  <smiles>  (7) 
Cc1cc(N2CCN(c3ccccc3)CC2)n2nc(C)c(-c3ccc(F)cc3)c2n1

>  <score_type>  (7) 
oracle

>  <origin>  (7) 
adg

>  <m_score__min__energy>  (7) 
-7

>  <m_primary>  (7) 
energy

$$$$
7:0
     RDKit          3D

 37 38  0  0  0  0  0  0  0  0999 V2000
   63.3670   33.8390   46.3700 C   0  0  0  0  0  0  0  0  0  0  0  0
   63.7220   32.8290   47.4610 C   0  0  0  0  0  0  0  0  0  0  0  0
   62.5360   32.5280   48.3820 C   0  0  0  0  0  0  0  0  0  0  0  0
   61.4280   31.9340   47.6340 N   0  0  0  0  0  0  0  0  0  0  0  0
   61.4300   30.7070   47.0590 C   0  0  0  0  0  0  0  0  0  0  0  0
   60.2320   30.5740   46.3880 C   0  0  0  0  0  0  0  0  0  0  0  0
   59.6930   29.5720   45.6040 C   0  0  0  0  0  0  0  0  0  0  0  0
   60.3210   28.4910   45.4370 O   0  0  0  0  0  0  0  0  0  0  0  0
   58.4660   29.7920   45.0190 N   0  0  0  0  0  0  0  0  0  0  0  0
   57.8480   28.7390   44.1960 C   0  0  0  0  0  0  0  0  0  0  0  0
   57.7830   30.9760   45.2500 C   0  0  0  0  0  0  0  0  0  0  0  0
   56.6480   31.1550   44.7230 O   0  0  0  0  0  0  0  0  0  0  0  0
   58.3270   31.9640   46.0480 N   0  0  0  0  0  0  0  0  0  0  0  0
   57.6300   33.2430   46.2680 C   0  0  0  0  0  0  0  0  0  0  0  0
   57.9090   34.2050   45.1080 C   0  0  0  0  0  0  0  0  0  0  0  0
   59.2730   34.8720   45.2580 C   0  0  0  0  0  0  0  0  0  0  0  0
   59.5570   31.7340   46.5880 C   0  0  0  0  0  0  0  0  0  0  0  0
   60.2950   32.5660   47.3470 N   0  0  0  0  0  0  0  0  0  0  0  0
   63.0364   34.7796   46.8347 H   0  0  0  0  0  0  0  0  0  0  0  0
   64.2519   34.0299   45.7451 H   0  0  0  0  0  0  0  0  0  0  0  0
   62.5572   33.4343   45.7451 H   0  0  0  0  0  0  0  0  0  0  0  0
   64.0462   31.8923   46.9841 H   0  0  0  0  0  0  0  0  0  0  0  0
   64.5234   33.2650   48.0756 H   0  0  0  0  0  0  0  0  0  0  0  0
   62.8581   31.8262   49.1654 H   0  0  0  0  0  0  0  0  0  0  0  0
   62.1908   33.4723   48.8283 H   0  0  0  0  0  0  0  0  0  0  0  0
   62.2344   29.9589   47.1164 H   0  0  0  0  0  0  0  0  0  0  0  0
   57.4007   27.9769   44.8510 H   0  0  0  0  0  0  0  0  0  0  0  0
   57.0662   29.1814   43.5611 H   0  0  0  0  0  0  0  0  0  0  0  0
   58.6154   28.2721   43.5611 H   0  0  0  0  0  0  0  0  0  0  0  0
   56.5475   33.0598   46.3356 H   0  0  0  0  0  0  0  0  0  0  0  0
   57.9941   33.6936   47.2031 H   0  0  0  0  0  0  0  0  0  0  0  0
   57.8869   33.6428   44.1628 H   0  0  0  0  0  0  0  0  0  0  0  0
   57.1367   34.9883   45.1126 H   0  0  0  0  0  0  0  0  0  0  0  0
   59.5092   34.9875   46.3261 H   0  0  0  0  0  0  0  0  0  0  0  0
   60.0411   34.2478   44.7780 H   0  0  0  0  0  0  0  0  0  0  0  0
   59.2520   35.8615   44.7780 H   0  0  0  0  0  0  0  0  0  0  0  0
   60.0640   33.5400   47.6460 H   0  0  0  0  0  0  0  0  0  0  0  0
  1  2  1  0
  2  3  1  0
  3  4  1  0
  4  5  1  0
  5  6  2  0
  6  7  1  0
  7  8  2  0
  7  9  1  0
  9 10  1  0
  9 11  1  0
 11 12  2  0
 11 13  1  0
 13 14  1  0
 14 15  1  0
 15 16  1  0
 13 17  1  0
 17 18  2  0
 18  4  1  0
 17  6  1  0
  1 19  1  0
  1 20  1  0
  1 21  1  0
  2 22  1  0
  2 23  1  0
  3 24  1  0
  3 25  1  0
  5 26  1  0
 10 27  1  0
 10 28  1  0
 10 29  1  0
 14 30  1  0
 14 31  1  0
 15 32  1  0
 15 33  1  0
 16 34  1  0
 16 35  1  0
 16 36  1  0
 18 37  1  0
M  CHG  1  18   1
M  END
>  <UniqueID>  (8) 
8

>  <SMILES>  (8) 
CCCn1cc2c(=O)n(C)c(=O)n(CCC)c2[nH+]1

>  <Energy>  (8) 
72.47180440987331

>  <Genealogy>  (8) 
CCCn1cc2c(=O)n(C)c(=O)n(CCC)c2[nH+]1 (protonated)
CCCn1cc2c(=O)n(C)c(=O)n(CCC)c2[nH+]1 (3D coordinates assigned)
CCCn1cc2c(=O)n(C)c(=O)n(CCC)c2[nH+]1 (optimized conformer: 72.47180440987331 kcal/mol)

>  <smiles>  (8) 
CCCn1cc2c(=O)n(C)c(=O)n(CCC)c2n1

>  <score_type>  (8) 
oracle

>  <origin>  (8) 
adg

>  <m_score__min__energy>  (8) 
-4.4000000000000004

>  <m_primary>  (8) 
energy

$$$$
8:0
     RDKit          3D

 56 59  0  0  0  0  0  0  0  0999 V2000
   58.9633   27.2170   43.2929 H   0  0  0  0  0  0  0  0  0  0  0  0
   58.5300   27.2170   44.3040 C   0  0  0  0  0  0  0  0  0  0  0  0
   57.3810   26.5380   44.5450 N   0  0  0  0  0  0  0  0  0  0  0  0
   56.8080   26.5090   45.7790 C   0  0  0  0  0  0  0  0  0  0  0  0
   55.7120   25.8420   45.9920 N   0  0  0  0  0  0  0  0  0  0  0  0
   55.3790   24.5440   45.3960 C   0  0  0  0  0  0  0  0  0  0  0  0
   54.7220   24.6978   44.5273 H   0  0  0  0  0  0  0  0  0  0  0  0
   54.6220   23.6690   46.4150 C   0  0  0  0  0  0  0  0  0  0  0  0
   53.7102   24.1989   46.7279 H   0  0  0  0  0  0  0  0  0  0  0  0
   54.3833   22.7130   45.9259 H   0  0  0  0  0  0  0  0  0  0  0  0
   55.4710   23.3600   47.6670 C   0  0  0  0  0  0  0  0  0  0  0  0
   55.2742   24.1362   48.4212 H   0  0  0  0  0  0  0  0  0  0  0  0
   55.1815   22.3572   48.0144 H   0  0  0  0  0  0  0  0  0  0  0  0
   56.9880   23.3230   47.3890 C   0  0  0  0  0  0  0  0  0  0  0  0
   57.4042   24.3286   47.5488 H   0  0  0  0  0  0  0  0  0  0  0  0
   57.4442   22.5937   48.0745 H   0  0  0  0  0  0  0  0  0  0  0  0
   57.2910   22.8830   45.9540 C   0  0  0  0  0  0  0  0  0  0  0  0
   58.3815   22.8582   45.8121 H   0  0  0  0  0  0  0  0  0  0  0  0
   56.8493   21.8872   45.8016 H   0  0  0  0  0  0  0  0  0  0  0  0
   56.6740   23.8450   44.9160 C   0  0  0  0  0  0  0  0  0  0  0  0
   57.4175   24.6200   44.6781 H   0  0  0  0  0  0  0  0  0  0  0  0
   56.4012   23.2364   44.0412 H   0  0  0  0  0  0  0  0  0  0  0  0
   57.4070   27.1990   46.8360 C   0  0  0  0  0  0  0  0  0  0  0  0
   56.9499   27.1792   47.8363 H   0  0  0  0  0  0  0  0  0  0  0  0
   58.5940   27.9180   46.6190 C   0  0  0  0  0  0  0  0  0  0  0  0
   59.2100   28.6540   47.7470 C   0  0  0  0  0  0  0  0  0  0  0  0
   60.1050   27.9990   48.6040 C   0  0  0  0  0  0  0  0  0  0  0  0
   60.3629   26.9434   48.4334 H   0  0  0  0  0  0  0  0  0  0  0  0
   60.6650   28.6930   49.6720 C   0  0  0  0  0  0  0  0  0  0  0  0
   61.3728   28.1875   50.3454 H   0  0  0  0  0  0  0  0  0  0  0  0
   60.3300   30.0270   49.8890 C   0  0  0  0  0  0  0  0  0  0  0  0
   60.7729   30.5788   50.7312 H   0  0  0  0  0  0  0  0  0  0  0  0
   59.4200   30.6660   49.0230 C   0  0  0  0  0  0  0  0  0  0  0  0
   59.0620   31.9110   49.1840 N   0  0  0  0  0  0  0  0  0  0  0  0
   59.6450   33.0940   48.5490 C   0  0  0  0  0  0  0  0  0  0  0  0
   60.7328   32.9572   48.4592 H   0  0  0  0  0  0  0  0  0  0  0  0
   59.4225   33.9753   49.1685 H   0  0  0  0  0  0  0  0  0  0  0  0
   59.0570   33.3030   47.1770 C   0  0  0  0  0  0  0  0  0  0  0  0
   59.4230   34.4170   46.4030 C   0  0  0  0  0  0  0  0  0  0  0  0
   60.1514   35.1423   46.7947 H   0  0  0  0  0  0  0  0  0  0  0  0
   58.8640   34.6050   45.1380 C   0  0  0  0  0  0  0  0  0  0  0  0
   59.1480   35.4825   44.5385 H   0  0  0  0  0  0  0  0  0  0  0  0
   57.9450   33.6830   44.6300 C   0  0  0  0  0  0  0  0  0  0  0  0
   57.5091   33.8396   43.6323 H   0  0  0  0  0  0  0  0  0  0  0  0
   57.5750   32.5610   45.3820 C   0  0  0  0  0  0  0  0  0  0  0  0
   56.6500   31.6640   44.8280 O   0  0  0  0  0  0  0  0  0  0  0  0
   57.0010   30.5320   44.0400 C   0  0  0  0  0  0  0  0  0  0  0  0
   57.2615   29.6919   44.7006 H   0  0  0  0  0  0  0  0  0  0  0  0
   56.1485   30.2486   43.4052 H   0  0  0  0  0  0  0  0  0  0  0  0
   57.8643   30.7806   43.4052 H   0  0  0  0  0  0  0  0  0  0  0  0
   58.1410   32.3710   46.6590 C   0  0  0  0  0  0  0  0  0  0  0  0
   57.8642   31.4880   47.2538 H   0  0  0  0  0  0  0  0  0  0  0  0
   58.8880   29.9600   47.9810 N   0  0  0  0  0  0  0  0  0  0  0  0
   58.1930   30.4310   47.3570 H   0  0  0  0  0  0  0  0  0  0  0  0
   59.1670   27.9170   45.3330 C   0  0  0  0  0  0  0  0  0  0  0  0
   60.7030   28.7090   44.9890 Cl  0  0  0  0  0  0  0  0  0  0  0  0
  1  2  1  0
  2  3  1  0
  3  4  1  0
  4  5  2  0
  5  6  1  0
  6  7  1  0
  6  8  1  0
  8  9  1  0
  8 10  1  0
  8 11  1  0
 11 12  1  0
 11 13  1  0
 11 14  1  0
 14 15  1  0
 14 16  1  0
 14 17  1  0
 17 18  1  0
 17 19  1  0
 17 20  1  0
 20 21  1  0
 20 22  1  0
  4 23  1  0
 23 24  1  0
 23 25  2  0
 25 26  1  0
 26 27  2  0
 27 28  1  0
 27 29  1  0
 29 30  1  0
 29 31  2  0
 31 32  1  0
 31 33  1  0
 33 34  2  0
 34 35  1  0
 35 36  1  0
 35 37  1  0
 35 38  1  0
 38 39  2  0
 39 40  1  0
 39 41  1  0
 41 42  1  0
 41 43  2  0
 43 44  1  0
 43 45  1  0
 45 46  1  0
 46 47  1  0
 47 48  1  0
 47 49  1  0
 47 50  1  0
 45 51  2  0
 51 52  1  0
 33 53  1  0
 53 54  1  0
 25 55  1  0
 55 56  1  0
 55  2  2  0
 20  6  1  0
 53 26  1  0
 51 38  1  0
M  CHG  1   3  -1
M  END
>  <UniqueID>  (9) 
9

>  <SMILES>  (9) 
COc1cccc(C/N=c2\cccc(-c3c/c(=N/C4CCCCC4)[n-]cc3Cl)[nH]2)c1

>  <Energy>  (9) 
70.4084095078993

>  <Genealogy>  (9) 
COc1cccc(CN=c2cccc(-c3cc(=NC4CCCCC4)[n-]cc3Cl)[nH]2)c1 (protonated)
COc1cccc(C/N=c2\cccc(-c3c/c(=N/C4CCCCC4)[n-]cc3Cl)[nH]2)c1 (cis-trans isomerization)
COc1cccc(C/N=c2\cccc(-c3c/c(=N/C4CCCCC4)[n-]cc3Cl)[nH]2)c1 (3D coordinates assigned)
COc1cccc(C/N=c2\cccc(-c3c/c(=N/C4CCCCC4)[n-]cc3Cl)[nH]2)c1 (nonaromatic ring conformer: 70.4084095078993 kcal/mol)

>  <smiles>  (9) 
COc1cccc(CN=c2cccc(-c3cc(=NC4CCCCC4)[nH]cc3Cl)[nH]2)c1

>  <score_type>  (9) 
oracle

>  <origin>  (9) 
adg

>  <m_score__min__energy>  (9) 
-10.73

>  <m_primary>  (9) 
energy

$$$$
9:0
     RDKit          3D

 62 65  0  0  0  0  0  0  0  0999 V2000
   58.5420   33.7780   45.6490 C   0  0  0  0  0  0  0  0  0  0  0  0
   58.8920   32.5020   45.1210 O   0  0  0  0  0  0  0  0  0  0  0  0
   58.1470   31.8000   44.1570 C   0  0  0  0  0  0  0  0  0  0  0  0
   57.7980   32.3950   42.9270 C   0  0  0  0  0  0  0  0  0  0  0  0
   57.0520   31.6900   41.9830 C   0  0  0  0  0  0  0  0  0  0  0  0
   56.7200   32.2760   40.8050 F   0  0  0  0  0  0  0  0  0  0  0  0
   56.6470   30.3830   42.2460 C   0  0  0  0  0  0  0  0  0  0  0  0
   56.9870   29.7760   43.4560 C   0  0  0  0  0  0  0  0  0  0  0  0
   57.7370   30.4700   44.4240 C   0  0  0  0  0  0  0  0  0  0  0  0
   58.0740   29.7890   45.7010 C   0  0  0  0  0  0  0  0  0  0  0  0
   57.6690   28.5400   46.0120 N   0  0  0  0  0  0  0  0  0  0  0  0
   58.1500   28.3120   47.1960 O   0  0  0  0  0  0  0  0  0  0  0  0
   58.8210   29.3580   47.6090 C   0  0  0  0  0  0  0  0  0  0  0  0
   59.4910   29.4530   48.9220 C   0  0  0  0  0  0  0  0  0  0  0  0
   60.0550   28.3110   49.5090 C   0  0  0  0  0  0  0  0  0  0  0  0
   60.6690   28.3890   50.7610 C   0  0  0  0  0  0  0  0  0  0  0  0
   61.4270   26.8070   51.5290 Br  0  0  0  0  0  0  0  0  0  0  0  0
   60.7370   29.6140   51.4400 C   0  0  0  0  0  0  0  0  0  0  0  0
   61.3480   29.6620   52.6960 O   0  0  0  0  0  0  0  0  0  0  0  0
   62.6470   30.2180   52.8970 C   0  0  0  0  0  0  0  0  0  0  0  0
   63.3650   30.3510   51.5890 C   0  0  0  0  0  0  0  0  0  0  0  0
   64.2490   29.5120   51.2610 O   0  0  0  0  0  0  0  0  0  0  0  0
   63.0530   31.4430   50.7160 N   0  0  0  0  0  0  0  0  0  0  0  0
   63.8690   31.7340   49.5370 C   0  0  0  0  0  0  0  0  0  0  0  0
   63.0560   31.5900   48.2470 C   0  0  0  0  0  0  0  0  0  0  0  0
   62.8610   32.9140   47.6080 N   0  0  0  0  0  0  0  0  0  0  0  0
   63.5070   34.0100   48.3700 C   0  0  0  0  0  0  0  0  0  0  0  0
   62.5500   34.6650   49.3890 C   0  0  0  0  0  0  0  0  0  0  0  0
   61.5440   33.7550   49.7810 O   0  0  0  0  0  0  0  0  0  0  0  0
   60.6800   33.4820   48.6920 C   0  0  0  0  0  0  0  0  0  0  0  0
   61.4360   33.2140   47.3690 C   0  0  0  0  0  0  0  0  0  0  0  0
   60.1610   30.7660   50.8730 C   0  0  0  0  0  0  0  0  0  0  0  0
   60.1880   31.9660   51.6010 O   0  0  0  0  0  0  0  0  0  0  0  0
   59.0690   32.8270   51.7840 C   0  0  0  0  0  0  0  0  0  0  0  0
   59.5500   30.6780   49.6060 C   0  0  0  0  0  0  0  0  0  0  0  0
   58.8090   30.3420   46.6890 N   0  0  0  0  0  0  0  0  0  0  0  0
   58.5536   33.7357   46.7481 H   0  0  0  0  0  0  0  0  0  0  0  0
   59.2672   34.5293   45.3033 H   0  0  0  0  0  0  0  0  0  0  0  0
   57.5349   34.0542   45.3033 H   0  0  0  0  0  0  0  0  0  0  0  0
   58.1173   33.4251   42.7101 H   0  0  0  0  0  0  0  0  0  0  0  0
   56.0589   29.8291   41.4995 H   0  0  0  0  0  0  0  0  0  0  0  0
   56.6651   28.7432   43.6554 H   0  0  0  0  0  0  0  0  0  0  0  0
   60.0135   27.3475   48.9799 H   0  0  0  0  0  0  0  0  0  0  0  0
   62.5488   31.2112   53.3594 H   0  0  0  0  0  0  0  0  0  0  0  0
   63.2234   29.5508   53.5547 H   0  0  0  0  0  0  0  0  0  0  0  0
   62.2560   32.0700   50.9690 H   0  0  0  0  0  0  0  0  0  0  0  0
   64.2474   32.7644   49.6087 H   0  0  0  0  0  0  0  0  0  0  0  0
   64.7007   31.0148   49.5048 H   0  0  0  0  0  0  0  0  0  0  0  0
   63.5932   30.9278   47.5521 H   0  0  0  0  0  0  0  0  0  0  0  0
   62.0719   31.1634   48.4913 H   0  0  0  0  0  0  0  0  0  0  0  0
   64.3726   33.6007   48.9115 H   0  0  0  0  0  0  0  0  0  0  0  0
   63.8099   34.7845   47.6500 H   0  0  0  0  0  0  0  0  0  0  0  0
   63.1227   34.9749   50.2755 H   0  0  0  0  0  0  0  0  0  0  0  0
   62.0748   35.5386   48.9189 H   0  0  0  0  0  0  0  0  0  0  0  0
   60.0779   32.5946   48.9369 H   0  0  0  0  0  0  0  0  0  0  0  0
   60.0554   34.3742   48.5376 H   0  0  0  0  0  0  0  0  0  0  0  0
   60.9714   32.3567   46.8598 H   0  0  0  0  0  0  0  0  0  0  0  0
   61.3749   34.1202   46.7485 H   0  0  0  0  0  0  0  0  0  0  0  0
   58.8865   32.9675   52.8596 H   0  0  0  0  0  0  0  0  0  0  0  0
   59.2757   33.8012   51.3169 H   0  0  0  0  0  0  0  0  0  0  0  0
   58.1803   32.3776   51.3169 H   0  0  0  0  0  0  0  0  0  0  0  0
   59.1147   31.5785   49.1481 H   0  0  0  0  0  0  0  0  0  0  0  0
  1  2  1  0
  2  3  1  0
  3  4  2  0
  4  5  1  0
  5  6  1  0
  5  7  2  0
  7  8  1  0
  8  9  2  0
  9 10  1  0
 10 11  2  0
 11 12  1  0
 12 13  1  0
 13 14  1  0
 14 15  2  0
 15 16  1  0
 16 17  1  0
 16 18  2  0
 18 19  1  0
 19 20  1  0
 20 21  1  0
 21 22  2  0
 21 23  1  0
 23 24  1  0
 24 25  1  0
 25 26  1  0
 26 27  1  0
 27 28  1  0
 28 29  1  0
 29 30  1  0
 30 31  1  0
 18 32  1  0
 32 33  1  0
 33 34  1  0
 32 35  2  0
 13 36  2  0
  9  3  1  0
 36 10  1  0
 35 14  1  0
 31 26  1  0
  1 37  1  0
  1 38  1  0
  1 39  1  0
  4 40  1  0
  7 41  1  0
  8 42  1  0
 15 43  1  0
 20 44  1  0
 20 45  1  0
 23 46  1  0
 24 47  1  0
 24 48  1  0
 25 49  1  0
 25 50  1  0
 27 51  1  0
 27 52  1  0
 28 53  1  0
 28 54  1  0
 30 55  1  0
 30 56  1  0
 31 57  1  0
 31 58  1  0
 34 59  1  0
 34 60  1  0
 34 61  1  0
 35 62  1  0
M  END
>  <UniqueID>  (10) 
10

>  <SMILES>  (10) 
COc1cc(F)ccc1-c1noc(-c2cc(Br)c(OCC(=O)NCCN3CCOCC3)c(OC)c2)n1

>  <Energy>  (10) 
112.77132085132575

>  <Genealogy>  (10) 
COc1cc(F)ccc1-c1noc(-c2cc(Br)c(OCC(=O)NCCN3CCOCC3)c(OC)c2)n1 (3D coordinates assigned)
COc1cc(F)ccc1-c1noc(-c2cc(Br)c(OCC(=O)NCCN3CCOCC3)c(OC)c2)n1 (nonaromatic ring conformer: 112.77132085132575 kcal/mol)

>  <smiles>  (10) 
COc1cc(F)ccc1-c1noc(-c2cc(Br)c(OCC(=O)NCCN3CCOCC3)c(OC)c2)n1

>  <score_type>  (10) 
oracle

>  <origin>  (10) 
adg

>  <m_score__min__energy>  (10) 
-9.2599999999999998

>  <m_primary>  (10) 
energy

$$$$
10:0
     RDKit          3D

 34 35  0  0  0  0  0  0  0  0999 V2000
   56.2770   29.7470   42.6300 C   0  0  0  0  0  0  0  0  0  0  0  0
   55.8490   29.8570   44.0930 C   0  0  0  0  0  0  0  0  0  0  0  0
   56.8720   30.5510   44.9030 N   0  0  0  0  0  0  0  0  0  0  0  0
   58.1460   29.8100   44.8650 C   0  0  0  0  0  0  0  0  0  0  0  0
   59.0770   30.3650   45.9440 C   0  0  0  0  0  0  0  0  0  0  0  0
   59.0300   31.8300   45.9660 N   0  0  0  0  0  0  0  0  0  0  0  0
   59.8130   32.5370   46.9430 C   0  0  0  0  0  0  0  0  0  0  0  0
   61.1970   32.5100   46.7480 C   0  0  0  0  0  0  0  0  0  0  0  0
   62.2130   33.0830   47.5010 C   0  0  0  0  0  0  0  0  0  0  0  0
   62.1130   33.8360   48.6590 C   0  0  0  0  0  0  0  0  0  0  0  0
   60.9670   34.2030   49.3440 C   0  0  0  0  0  0  0  0  0  0  0  0
   59.6440   33.9140   49.0390 C   0  0  0  0  0  0  0  0  0  0  0  0
   59.1100   33.1790   47.9780 C   0  0  0  0  0  0  0  0  0  0  0  0
   57.8510   33.0910   47.9530 O   0  0  0  0  0  0  0  0  0  0  0  0
   58.4190   32.5640   44.8550 C   0  0  0  0  0  0  0  0  0  0  0  0
   57.0500   31.9610   44.4660 C   0  0  0  0  0  0  0  0  0  0  0  0
   57.3412   29.4735   42.5789 H   0  0  0  0  0  0  0  0  0  0  0  0
   55.6754   28.9743   42.1291 H   0  0  0  0  0  0  0  0  0  0  0  0
   56.1225   30.7140   42.1291 H   0  0  0  0  0  0  0  0  0  0  0  0
   54.9057   30.4202   44.1486 H   0  0  0  0  0  0  0  0  0  0  0  0
   55.7208   28.8406   44.4937 H   0  0  0  0  0  0  0  0  0  0  0  0
   57.9577   28.7428   45.0536 H   0  0  0  0  0  0  0  0  0  0  0  0
   58.6134   29.9247   43.8759 H   0  0  0  0  0  0  0  0  0  0  0  0
   58.7632   29.9790   46.9251 H   0  0  0  0  0  0  0  0  0  0  0  0
   60.1062   30.0477   45.7202 H   0  0  0  0  0  0  0  0  0  0  0  0
   61.5322   31.9493   45.8630 H   0  0  0  0  0  0  0  0  0  0  0  0
   63.2343   32.9166   47.1278 H   0  0  0  0  0  0  0  0  0  0  0  0
   63.0631   34.1865   49.0884 H   0  0  0  0  0  0  0  0  0  0  0  0
   61.1263   34.8041   50.2514 H   0  0  0  0  0  0  0  0  0  0  0  0
   58.9032   34.3267   49.7396 H   0  0  0  0  0  0  0  0  0  0  0  0
   58.2761   33.6127   45.1545 H   0  0  0  0  0  0  0  0  0  0  0  0
   59.0879   32.4944   43.9845 H   0  0  0  0  0  0  0  0  0  0  0  0
   56.2586   32.5701   44.9272 H   0  0  0  0  0  0  0  0  0  0  0  0
   56.9970   31.9661   43.3673 H   0  0  0  0  0  0  0  0  0  0  0  0
  1  2  1  0
  2  3  1  0
  3  4  1  0
  4  5  1  0
  5  6  1  0
  6  7  1  0
  7  8  2  0
  8  9  1  0
  9 10  2  0
 10 11  1  0
 11 12  2  0
 12 13  1  0
 13 14  2  0
  6 15  1  0
 15 16  1  0
 16  3  1  0
 13  7  1  0
  1 17  1  0
  1 18  1  0
  1 19  1  0
  2 20  1  0
  2 21  1  0
  4 22  1  0
  4 23  1  0
  5 24  1  0
  5 25  1  0
  8 26  1  0
  9 27  1  0
 10 28  1  0
 11 29  1  0
 12 30  1  0
 15 31  1  0
 15 32  1  0
 16 33  1  0
 16 34  1  0
M  END
>  <UniqueID>  (11) 
11

>  <SMILES>  (11) 
CCN1CCN(c2cccccc2=O)CC1

>  <Energy>  (11) 
60.77889732490556

>  <Genealogy>  (11) 
CCN1CCN(c2cccccc2=O)CC1 (3D coordinates assigned)
CCN1CCN(c2cccccc2=O)CC1 (nonaromatic ring conformer: 60.77889732490556 kcal/mol)

>  <smiles>  (11) 
CCN1CCN(c2cccccc2=O)CC1

>  <score_type>  (11) 
oracle

>  <origin>  (11) 
adg

>  <m_score__min__energy>  (11) 
-5.9400000000000004

>  <m_primary>  (11) 
energy

$$$$
11:0
     RDKit          3D

 28 29  0  0  0  0  0  0  0  0999 V2000
   55.4420   30.4300   44.4350 O   0  0  0  0  0  0  0  0  0  0  0  0
   56.2540   29.4960   44.6720 C   0  0  0  0  0  0  0  0  0  0  0  0
   55.8920   28.2990   45.2420 O   0  0  0  0  0  0  0  0  0  0  0  0
   57.0430   27.4720   45.3810 C   0  0  0  0  0  0  0  0  0  0  0  0
   58.2270   28.3050   44.8290 C   0  0  0  0  0  0  0  0  0  0  0  0
   57.6350   29.5610   44.3930 N   0  0  0  0  0  0  0  0  0  0  0  0
   58.3540   30.6860   43.8010 C   0  0  0  0  0  0  0  0  0  0  0  0
   58.2110   31.9040   44.6700 C   0  0  0  0  0  0  0  0  0  0  0  0
   57.7520   33.1090   44.1180 C   0  0  0  0  0  0  0  0  0  0  0  0
   57.5850   34.2360   44.9260 C   0  0  0  0  0  0  0  0  0  0  0  0
   57.8650   34.1650   46.2920 C   0  0  0  0  0  0  0  0  0  0  0  0
   58.3120   32.9700   46.8670 C   0  0  0  0  0  0  0  0  0  0  0  0
   58.5700   32.9550   48.2470 O   0  0  0  0  0  0  0  0  0  0  0  0
   59.6290   33.6570   48.8950 C   0  0  0  0  0  0  0  0  0  0  0  0
   59.3200   33.7950   50.2350 F   0  0  0  0  0  0  0  0  0  0  0  0
   60.8110   32.9470   48.7820 F   0  0  0  0  0  0  0  0  0  0  0  0
   59.7780   34.9150   48.3400 F   0  0  0  0  0  0  0  0  0  0  0  0
   58.4830   31.8350   46.0470 C   0  0  0  0  0  0  0  0  0  0  0  0
   57.2102   27.2222   46.4391 H   0  0  0  0  0  0  0  0  0  0  0  0
   56.9278   26.5216   44.8392 H   0  0  0  0  0  0  0  0  0  0  0  0
   58.9744   28.4829   45.6162 H   0  0  0  0  0  0  0  0  0  0  0  0
   58.7484   27.7883   44.0097 H   0  0  0  0  0  0  0  0  0  0  0  0
   59.4194   30.4285   43.7076 H   0  0  0  0  0  0  0  0  0  0  0  0
   57.9328   30.9004   42.8077 H   0  0  0  0  0  0  0  0  0  0  0  0
   57.5225   33.1667   43.0438 H   0  0  0  0  0  0  0  0  0  0  0  0
   57.2325   35.1804   44.4857 H   0  0  0  0  0  0  0  0  0  0  0  0
   57.7330   35.0568   46.9222 H   0  0  0  0  0  0  0  0  0  0  0  0
   58.8316   30.8896   46.4883 H   0  0  0  0  0  0  0  0  0  0  0  0
  1  2  2  0
  2  3  1  0
  3  4  1  0
  4  5  1  0
  5  6  1  0
  6  7  1  0
  7  8  1  0
  8  9  2  0
  9 10  1  0
 10 11  2  0
 11 12  1  0
 12 13  1  0
 13 14  1  0
 14 15  1  0
 14 16  1  0
 14 17  1  0
 12 18  2  0
  6  2  1  0
 18  8  1  0
  4 19  1  0
  4 20  1  0
  5 21  1  0
  5 22  1  0
  7 23  1  0
  7 24  1  0
  9 25  1  0
 10 26  1  0
 11 27  1  0
 18 28  1  0
M  END
>  <UniqueID>  (12) 
12

>  <SMILES>  (12) 
O=C1OCCN1Cc1cccc(OC(F)(F)F)c1

>  <Energy>  (12) 
39.56634265213943

>  <Genealogy>  (12) 
O=C1OCCN1Cc1cccc(OC(F)(F)F)c1 (3D coordinates assigned)
O=C1OCCN1Cc1cccc(OC(F)(F)F)c1 (nonaromatic ring conformer: 39.56634265213943 kcal/mol)

>  <smiles>  (12) 
O=C1OCCN1Cc1cccc(OC(F)(F)F)c1

>  <score_type>  (12) 
oracle

>  <origin>  (12) 
adg

>  <m_score__min__energy>  (12) 
-5.5800000000000001

>  <m_primary>  (12) 
energy

$$$$
12:0
     RDKit          3D

 55 57  0  0  0  0  0  0  0  0999 V2000
   64.3100   34.1220   51.6850 C   0  0  0  0  0  0  0  0  0  0  0  0
   63.4300   33.9150   50.4880 C   0  0  0  0  0  0  0  0  0  0  0  0
   62.0360   33.9680   50.6180 C   0  0  0  0  0  0  0  0  0  0  0  0
   61.2040   33.7300   49.5140 C   0  0  0  0  0  0  0  0  0  0  0  0
   59.7100   33.7720   49.6970 C   0  0  0  0  0  0  0  0  0  0  0  0
   61.7800   33.4640   48.2510 C   0  0  0  0  0  0  0  0  0  0  0  0
   60.9490   33.2460   47.1020 N   0  0  0  0  0  0  0  0  0  0  0  0
   60.0390   34.2440   46.6190 C   0  0  0  0  0  0  0  0  0  0  0  0
   60.0280   35.3970   47.1310 O   0  0  0  0  0  0  0  0  0  0  0  0
   59.1080   33.9240   45.4890 C   0  0  0  0  0  0  0  0  0  0  0  0
   58.1130   32.9190   45.9120 N   0  0  0  0  0  0  0  0  0  0  0  0
   58.7700   31.6170   46.1620 C   0  0  0  0  0  0  0  0  0  0  0  0
   57.7470   30.4730   46.1790 C   0  0  0  0  0  0  0  0  0  0  0  0
   57.0160   30.3450   44.8910 N   0  0  0  0  0  0  0  0  0  0  0  0
   57.4910   29.1980   44.0890 C   0  0  0  0  0  0  0  0  0  0  0  0
   57.9770   28.0900   44.9910 C   0  0  0  0  0  0  0  0  0  0  0  0
   59.3570   27.8640   45.1250 C   0  0  0  0  0  0  0  0  0  0  0  0
   59.8290   26.8390   45.9510 C   0  0  0  0  0  0  0  0  0  0  0  0
   58.9260   26.0330   46.6510 C   0  0  0  0  0  0  0  0  0  0  0  0
   57.5520   26.2500   46.5230 C   0  0  0  0  0  0  0  0  0  0  0  0
   57.0730   27.2730   45.6980 C   0  0  0  0  0  0  0  0  0  0  0  0
   55.7330   27.4590   45.5890 F   0  0  0  0  0  0  0  0  0  0  0  0
   57.0330   31.5840   44.0800 C   0  0  0  0  0  0  0  0  0  0  0  0
   56.9660   32.8320   44.9700 C   0  0  0  0  0  0  0  0  0  0  0  0
   63.1840   33.3790   48.1250 C   0  0  0  0  0  0  0  0  0  0  0  0
   63.8160   33.0550   46.7980 C   0  0  0  0  0  0  0  0  0  0  0  0
   63.9970   33.5960   49.2480 C   0  0  0  0  0  0  0  0  0  0  0  0
   63.7195   33.9831   52.6026 H   0  0  0  0  0  0  0  0  0  0  0  0
   65.1336   33.3931   51.6651 H   0  0  0  0  0  0  0  0  0  0  0  0
   64.7223   35.1416   51.6651 H   0  0  0  0  0  0  0  0  0  0  0  0
   61.5892   34.1987   51.5963 H   0  0  0  0  0  0  0  0  0  0  0  0
   59.4722   33.7787   50.7710 H   0  0  0  0  0  0  0  0  0  0  0  0
   59.3084   34.6818   49.2269 H   0  0  0  0  0  0  0  0  0  0  0  0
   59.2580   32.8862   49.2269 H   0  0  0  0  0  0  0  0  0  0  0  0
   61.0950   32.3810   46.5340 H   0  0  0  0  0  0  0  0  0  0  0  0
   58.5870   34.8414   45.1776 H   0  0  0  0  0  0  0  0  0  0  0  0
   59.6914   33.5177   44.6496 H   0  0  0  0  0  0  0  0  0  0  0  0
   59.5062   31.4281   45.3668 H   0  0  0  0  0  0  0  0  0  0  0  0
   59.2624   31.6585   47.1448 H   0  0  0  0  0  0  0  0  0  0  0  0
   58.2758   29.5296   46.3799 H   0  0  0  0  0  0  0  0  0  0  0  0
   57.0079   30.6966   46.9624 H   0  0  0  0  0  0  0  0  0  0  0  0
   56.6643   28.8231   43.4677 H   0  0  0  0  0  0  0  0  0  0  0  0
   58.3235   29.5294   43.4509 H   0  0  0  0  0  0  0  0  0  0  0  0
   60.0705   28.4970   44.5770 H   0  0  0  0  0  0  0  0  0  0  0  0
   60.9109   26.6668   46.0500 H   0  0  0  0  0  0  0  0  0  0  0  0
   59.2975   25.2282   47.3024 H   0  0  0  0  0  0  0  0  0  0  0  0
   56.8435   25.6135   47.0735 H   0  0  0  0  0  0  0  0  0  0  0  0
   57.9609   31.6137   43.4900 H   0  0  0  0  0  0  0  0  0  0  0  0
   56.1530   31.5798   43.4200 H   0  0  0  0  0  0  0  0  0  0  0  0
   56.9683   33.7247   44.3273 H   0  0  0  0  0  0  0  0  0  0  0  0
   56.0450   32.7682   45.5681 H   0  0  0  0  0  0  0  0  0  0  0  0
   64.7836   32.5589   46.9641 H   0  0  0  0  0  0  0  0  0  0  0  0
   63.1534   32.3854   46.2300 H   0  0  0  0  0  0  0  0  0  0  0  0
   63.9729   33.9839   46.2300 H   0  0  0  0  0  0  0  0  0  0  0  0
   65.0899   33.5148   49.1533 H   0  0  0  0  0  0  0  0  0  0  0  0
  1  2  1  0
  2  3  2  0
  3  4  1  0
  4  5  1  0
  4  6  2  0
  6  7  1  0
  7  8  1  0
  8  9  2  0
  8 10  1  0
 10 11  1  0
 11 12  1  0
 12 13  1  0
 13 14  1  0
 14 15  1  0
 15 16  1  0
 16 17  2  0
 17 18  1  0
 18 19  2  0
 19 20  1  0
 20 21  2  0
 21 22  1  0
 14 23  1  0
 23 24  1  0
  6 25  1  0
 25 26  1  0
 25 27  2  0
 27  2  1  0
 24 11  1  0
 21 16  1  0
  1 28  1  0
  1 29  1  0
  1 30  1  0
  3 31  1  0
  5 32  1  0
  5 33  1  0
  5 34  1  0
  7 35  1  0
 10 36  1  0
 10 37  1  0
 12 38  1  0
 12 39  1  0
 13 40  1  0
 13 41  1  0
 15 42  1  0
 15 43  1  0
 17 44  1  0
 18 45  1  0
 19 46  1  0
 20 47  1  0
 23 48  1  0
 23 49  1  0
 24 50  1  0
 24 51  1  0
 26 52  1  0
 26 53  1  0
 26 54  1  0
 27 55  1  0
M  END
>  <UniqueID>  (13) 
13

>  <SMILES>  (13) 
Cc1cc(C)c(NC(=O)CN2CCN(Cc3ccccc3F)CC2)c(C)c1

>  <Energy>  (13) 
72.3021812190839

>  <Genealogy>  (13) 
Cc1cc(C)c(NC(=O)CN2CCN(Cc3ccccc3F)CC2)c(C)c1 (3D coordinates assigned)
Cc1cc(C)c(NC(=O)CN2CCN(Cc3ccccc3F)CC2)c(C)c1 (nonaromatic ring conformer: 72.3021812190839 kcal/mol)

>  <smiles>  (13) 
Cc1cc(C)c(NC(=O)CN2CCN(Cc3ccccc3F)CC2)c(C)c1

>  <score_type>  (13) 
oracle

>  <origin>  (13) 
adg

>  <m_score__min__energy>  (13) 
-9.0600000000000005

>  <m_primary>  (13) 
energy

$$$$
14:0
     RDKit          3D

 39 40  0  0  0  0  0  0  0  0999 V2000
   59.9096   35.3722   46.9312 H   0  0  0  0  0  0  0  0  0  0  0  0
   59.4310   34.4830   46.4950 C   0  0  0  0  0  0  0  0  0  0  0  0
   59.0520   33.4200   47.3180 C   0  0  0  0  0  0  0  0  0  0  0  0
   59.2710   33.5030   48.8020 C   0  0  0  0  0  0  0  0  0  0  0  0
   58.3665   33.1602   49.3258 H   0  0  0  0  0  0  0  0  0  0  0  0
   60.1217   32.8649   49.0833 H   0  0  0  0  0  0  0  0  0  0  0  0
   59.4851   34.5446   49.0833 H   0  0  0  0  0  0  0  0  0  0  0  0
   58.4080   32.3030   46.7630 C   0  0  0  0  0  0  0  0  0  0  0  0
   58.0982   31.4787   47.4222 H   0  0  0  0  0  0  0  0  0  0  0  0
   58.1480   32.2130   45.3740 C   0  0  0  0  0  0  0  0  0  0  0  0
   57.5010   31.1160   44.7060 C   0  0  0  0  0  0  0  0  0  0  0  0
   57.0000   30.0360   45.2570 N   0  0  0  0  0  0  0  0  0  0  0  0
   57.0020   28.6130   44.9290 C   0  0  0  0  0  0  0  0  0  0  0  0
   56.3911   28.0755   45.6693 H   0  0  0  0  0  0  0  0  0  0  0  0
   56.5891   28.4935   43.9164 H   0  0  0  0  0  0  0  0  0  0  0  0
   58.4320   28.0270   44.9390 C   0  0  0  0  0  0  0  0  0  0  0  0
   58.3892   27.0055   45.3448 H   0  0  0  0  0  0  0  0  0  0  0  0
   58.8007   28.0427   43.9028 H   0  0  0  0  0  0  0  0  0  0  0  0
   59.3800   28.8220   45.7590 N   0  0  0  0  0  0  0  0  0  0  0  0
   59.0010   29.7900   45.8910 H   0  0  0  0  0  0  0  0  0  0  0  0
   60.7070   28.9170   45.1210 C   0  0  0  0  0  0  0  0  0  0  0  0
   61.4841   28.9726   45.8976 H   0  0  0  0  0  0  0  0  0  0  0  0
   60.8773   28.0287   44.4949 H   0  0  0  0  0  0  0  0  0  0  0  0
   60.7490   29.8204   44.4949 H   0  0  0  0  0  0  0  0  0  0  0  0
   59.5170   28.2110   47.0930 C   0  0  0  0  0  0  0  0  0  0  0  0
   59.3457   28.9750   47.8656 H   0  0  0  0  0  0  0  0  0  0  0  0
   58.7774   27.4044   47.2046 H   0  0  0  0  0  0  0  0  0  0  0  0
   60.5302   27.7974   47.2046 H   0  0  0  0  0  0  0  0  0  0  0  0
   57.3660   31.1800   43.3130 C   0  0  0  0  0  0  0  0  0  0  0  0
   56.8925   30.3469   42.7729 H   0  0  0  0  0  0  0  0  0  0  0  0
   57.8250   32.2870   42.6060 C   0  0  0  0  0  0  0  0  0  0  0  0
   57.6670   32.3530   41.1210 C   0  0  0  0  0  0  0  0  0  0  0  0
   56.6776   32.7663   40.8755 H   0  0  0  0  0  0  0  0  0  0  0  0
   58.4498   32.9994   40.6973 H   0  0  0  0  0  0  0  0  0  0  0  0
   57.7574   31.3419   40.6973 H   0  0  0  0  0  0  0  0  0  0  0  0
   58.4020   33.2920   43.2460 O   0  0  0  0  0  0  0  0  0  0  0  0
   58.5800   33.3040   44.5610 C   0  0  0  0  0  0  0  0  0  0  0  0
   59.2040   34.4180   45.1260 C   0  0  0  0  0  0  0  0  0  0  0  0
   59.5187   35.2518   44.4812 H   0  0  0  0  0  0  0  0  0  0  0  0
  1  2  1  0
  2  3  2  0
  3  4  1  0
  4  5  1  0
  4  6  1  0
  4  7  1  0
  3  8  1  0
  8  9  1  0
  8 10  2  0
 10 11  1  0
 11 12  2  0
 12 13  1  0
 13 14  1  0
 13 15  1  0
 13 16  1  0
 16 17  1  0
 16 18  1  0
 16 19  1  0
 19 20  1  0
 19 21  1  0
 21 22  1  0
 21 23  1  0
 21 24  1  0
 19 25  1  0
 25 26  1  0
 25 27  1  0
 25 28  1  0
 11 29  1  0
 29 30  1  0
 29 31  2  0
 31 32  1  0
 32 33  1  0
 32 34  1  0
 32 35  1  0
 31 36  1  0
 36 37  1  0
 37 38  2  0
 38 39  1  0
 38  2  1  0
 37 10  1  0
M  CHG  1  19   1
M  END
>  <UniqueID>  (14) 
14

>  <SMILES>  (14) 
Cc1ccc2oc(C)c/c(=N/CC[NH+](C)C)c2c1

>  <Energy>  (14) 
57.57349290730681

>  <Genealogy>  (14) 
Cc1ccc2oc(C)cc(=NCC[NH+](C)C)c2c1 (protonated)
Cc1ccc2oc(C)c/c(=N/CC[NH+](C)C)c2c1 (cis-trans isomerization)
Cc1ccc2oc(C)c/c(=N/CC[NH+](C)C)c2c1 (3D coordinates assigned)
Cc1ccc2oc(C)c/c(=N/CC[NH+](C)C)c2c1 (optimized conformer: 57.57349290730681 kcal/mol)

>  <smiles>  (14) 
Cc1ccc2oc(C)cc(=NCCN(C)C)c2c1

>  <score_type>  (14) 
oracle

>  <origin>  (14) 
adg

>  <m_score__min__energy>  (14) 
-5.21

>  <m_primary>  (14) 
energy

$$$$
15:0
     RDKit          3D

 47 49  0  0  0  0  0  0  0  0999 V2000
   58.5860   25.7080   47.8900 C   0  0  0  0  0  0  0  0  0  0  0  0
   58.1640   26.8220   46.9680 C   0  0  0  0  0  0  0  0  0  0  0  0
   57.1010   26.5870   46.0800 C   0  0  0  0  0  0  0  0  0  0  0  0
   56.6400   27.5940   45.2330 C   0  0  0  0  0  0  0  0  0  0  0  0
   57.2370   28.8620   45.2430 C   0  0  0  0  0  0  0  0  0  0  0  0
   56.7290   29.9260   44.3440 C   0  0  0  0  0  0  0  0  0  0  0  0
   55.5640   30.3780   44.5180 O   0  0  0  0  0  0  0  0  0  0  0  0
   57.5340   30.4360   43.2680 N   0  0  0  0  0  0  0  0  0  0  0  0
   57.1470   31.6110   42.4920 C   0  0  0  0  0  0  0  0  0  0  0  0
   58.1820   32.7260   42.6590 C   0  0  0  0  0  0  0  0  0  0  0  0
   58.2160   33.2080   44.0800 C   0  0  0  0  0  0  0  0  0  0  0  0
   59.2700   34.0100   44.5400 C   0  0  0  0  0  0  0  0  0  0  0  0
   59.2890   34.4160   45.8760 C   0  0  0  0  0  0  0  0  0  0  0  0
   58.2680   34.0140   46.7390 C   0  0  0  0  0  0  0  0  0  0  0  0
   57.2400   33.2050   46.2490 C   0  0  0  0  0  0  0  0  0  0  0  0
   57.2370   32.8200   44.9460 N   0  0  0  0  0  0  0  0  0  0  0  0
   58.3020   29.1050   46.1250 C   0  0  0  0  0  0  0  0  0  0  0  0
   58.7910   28.0970   46.9770 C   0  0  0  0  0  0  0  0  0  0  0  0
   59.9430   28.4180   47.8560 C   0  0  0  0  0  0  0  0  0  0  0  0
   60.0320   27.8680   48.9870 O   0  0  0  0  0  0  0  0  0  0  0  0
   60.9520   29.3420   47.4240 N   0  0  0  0  0  0  0  0  0  0  0  0
   61.0820   30.7160   47.8160 C   0  0  0  0  0  0  0  0  0  0  0  0
   60.2510   31.2960   48.7930 C   0  0  0  0  0  0  0  0  0  0  0  0
   60.3970   32.6470   49.1290 C   0  0  0  0  0  0  0  0  0  0  0  0
   59.3610   33.3640   50.3490 Cl  0  0  0  0  0  0  0  0  0  0  0  0
   61.3600   33.4290   48.4820 C   0  0  0  0  0  0  0  0  0  0  0  0
   62.1700   32.8640   47.4930 C   0  0  0  0  0  0  0  0  0  0  0  0
   63.3670   33.8500   46.6710 Cl  0  0  0  0  0  0  0  0  0  0  0  0
   62.0240   31.5150   47.1560 C   0  0  0  0  0  0  0  0  0  0  0  0
   58.4639   26.0304   48.9346 H   0  0  0  0  0  0  0  0  0  0  0  0
   57.9612   24.8219   47.7044 H   0  0  0  0  0  0  0  0  0  0  0  0
   59.6411   25.4582   47.7044 H   0  0  0  0  0  0  0  0  0  0  0  0
   56.6260   25.5952   46.0526 H   0  0  0  0  0  0  0  0  0  0  0  0
   55.8008   27.3916   44.5513 H   0  0  0  0  0  0  0  0  0  0  0  0
   58.3800   29.9060   42.9600 H   0  0  0  0  0  0  0  0  0  0  0  0
   57.0783   31.3366   41.4290 H   0  0  0  0  0  0  0  0  0  0  0  0
   56.1727   31.9719   42.8533 H   0  0  0  0  0  0  0  0  0  0  0  0
   59.1752   32.3412   42.3841 H   0  0  0  0  0  0  0  0  0  0  0  0
   57.9051   33.5670   42.0062 H   0  0  0  0  0  0  0  0  0  0  0  0
   60.0743   34.3165   43.8551 H   0  0  0  0  0  0  0  0  0  0  0  0
   60.1067   35.0512   46.2475 H   0  0  0  0  0  0  0  0  0  0  0  0
   58.2729   34.3306   47.7925 H   0  0  0  0  0  0  0  0  0  0  0  0
   56.4312   32.8790   46.9195 H   0  0  0  0  0  0  0  0  0  0  0  0
   58.7635   30.1032   46.1507 H   0  0  0  0  0  0  0  0  0  0  0  0
   59.4848   30.6859   49.2938 H   0  0  0  0  0  0  0  0  0  0  0  0
   61.4797   34.4887   48.7517 H   0  0  0  0  0  0  0  0  0  0  0  0
   62.6535   31.0781   46.3668 H   0  0  0  0  0  0  0  0  0  0  0  0
  1  2  1  0
  2  3  2  0
  3  4  1  0
  4  5  2  0
  5  6  1  0
  6  7  2  0
  6  8  1  0
  8  9  1  0
  9 10  1  0
 10 11  1  0
 11 12  2  0
 12 13  1  0
 13 14  2  0
 14 15  1  0
 15 16  2  0
  5 17  1  0
 17 18  2  0
 18 19  1  0
 19 20  2  0
 19 21  1  0
 21 22  1  0
 22 23  2  0
 23 24  1  0
 24 25  1  0
 24 26  2  0
 26 27  1  0
 27 28  1  0
 27 29  2  0
 18  2  1  0
 29 22  1  0
 16 11  1  0
  1 30  1  0
  1 31  1  0
  1 32  1  0
  3 33  1  0
  4 34  1  0
  8 35  1  0
  9 36  1  0
  9 37  1  0
 10 38  1  0
 10 39  1  0
 12 40  1  0
 13 41  1  0
 14 42  1  0
 15 43  1  0
 17 44  1  0
 23 45  1  0
 26 46  1  0
 29 47  1  0
M  CHG  1  21  -1
M  END
>  <UniqueID>  (15) 
15

>  <SMILES>  (15) 
Cc1ccc(C(=O)NCCc2ccccn2)cc1C(=O)[N-]c1cc(Cl)cc(Cl)c1

>  <Energy>  (15) 
55.88853132566971

>  <Genealogy>  (15) 
Cc1ccc(C(=O)NCCc2ccccn2)cc1C(=O)[N-]c1cc(Cl)cc(Cl)c1 (protonated)
Cc1ccc(C(=O)NCCc2ccccn2)cc1C(=O)[N-]c1cc(Cl)cc(Cl)c1 (3D coordinates assigned)
Cc1ccc(C(=O)NCCc2ccccn2)cc1C(=O)[N-]c1cc(Cl)cc(Cl)c1 (optimized conformer: 55.88853132566971 kcal/mol)

>  <smiles>  (15) 
Cc1ccc(C(=O)NCCc2ccccn2)cc1C(=O)Nc1cc(Cl)cc(Cl)c1

>  <score_type>  (15) 
oracle

>  <origin>  (15) 
adg

>  <m_score__min__energy>  (15) 
-10.460000000000001

>  <m_primary>  (15) 
energy

$$$$
16:0
     RDKit          3D

 69 72  0  0  0  0  0  0  0  0999 V2000
   63.4270   31.9050   52.2960 C   0  0  0  0  0  0  0  0  0  0  0  0
   62.1210   31.3400   52.2810 O   0  0  0  0  0  0  0  0  0  0  0  0
   60.9320   32.0770   52.1630 C   0  0  0  0  0  0  0  0  0  0  0  0
   60.6130   33.1160   53.0610 C   0  0  0  0  0  0  0  0  0  0  0  0
   59.4100   33.8140   52.9400 C   0  0  0  0  0  0  0  0  0  0  0  0
   58.5100   33.4850   51.9260 C   0  0  0  0  0  0  0  0  0  0  0  0
   58.8130   32.4610   51.0270 C   0  0  0  0  0  0  0  0  0  0  0  0
   60.0240   31.7560   51.1290 C   0  0  0  0  0  0  0  0  0  0  0  0
   60.3260   30.7140   50.1790 N   0  0  0  0  0  0  0  0  0  0  0  0
   59.4220   29.5700   50.0260 C   0  0  0  0  0  0  0  0  0  0  0  0
   60.1550   28.4030   49.3520 C   0  0  0  0  0  0  0  0  0  0  0  0
   60.7500   28.7740   48.0400 N   0  0  0  0  0  0  0  0  0  0  0  0
   59.8650   28.3920   46.9120 C   0  0  0  0  0  0  0  0  0  0  0  0
   58.4290   28.9330   47.0660 C   0  0  1  0  0  0  0  0  0  0  0  0
   58.4570   30.2580   47.5290 O   0  0  0  0  0  0  0  0  0  0  0  0
   57.6420   28.8410   45.7450 C   0  0  0  0  0  0  0  0  0  0  0  0
   57.0040   30.0820   45.4430 O   0  0  0  0  0  0  0  0  0  0  0  0
   57.2210   30.8660   44.2950 C   0  0  0  0  0  0  0  0  0  0  0  0
   56.8020   30.4370   43.0180 C   0  0  0  0  0  0  0  0  0  0  0  0
   57.0560   31.2150   41.8890 C   0  0  0  0  0  0  0  0  0  0  0  0
   57.7300   32.4270   42.0130 C   0  0  0  0  0  0  0  0  0  0  0  0
   58.1490   32.8700   43.2670 C   0  0  0  0  0  0  0  0  0  0  0  0
   57.9000   32.1040   44.4240 C   0  0  0  0  0  0  0  0  0  0  0  0
   58.3340   32.6010   45.7630 C   0  0  0  0  0  0  0  0  0  0  0  0
   57.4970   32.6700   46.7030 O   0  0  0  0  0  0  0  0  0  0  0  0
   59.7510   33.0310   46.0460 C   0  0  0  0  0  0  0  0  0  0  0  0
   59.8180   33.9350   47.2820 C   0  0  0  0  0  0  0  0  0  0  0  0
   61.1840   33.8660   47.9100 C   0  0  0  0  0  0  0  0  0  0  0  0
   61.3650   34.2340   49.2540 C   0  0  0  0  0  0  0  0  0  0  0  0
   62.6270   34.1330   49.8480 C   0  0  0  0  0  0  0  0  0  0  0  0
   63.7130   33.6560   49.1090 C   0  0  0  0  0  0  0  0  0  0  0  0
   63.5380   33.2750   47.7750 C   0  0  0  0  0  0  0  0  0  0  0  0
   62.2780   33.3740   47.1780 C   0  0  0  0  0  0  0  0  0  0  0  0
   61.1900   30.1920   47.9480 C   0  0  0  0  0  0  0  0  0  0  0  0
   61.5080   30.8070   49.3150 C   0  0  0  0  0  0  0  0  0  0  0  0
   63.7535   32.0462   53.3369 H   0  0  0  0  0  0  0  0  0  0  0  0
   64.1251   31.2284   51.7814 H   0  0  0  0  0  0  0  0  0  0  0  0
   63.4119   32.8771   51.7814 H   0  0  0  0  0  0  0  0  0  0  0  0
   61.3178   33.3789   53.8636 H   0  0  0  0  0  0  0  0  0  0  0  0
   59.1715   34.6241   53.6448 H   0  0  0  0  0  0  0  0  0  0  0  0
   57.5606   34.0331   51.8348 H   0  0  0  0  0  0  0  0  0  0  0  0
   58.0976   32.2039   50.2320 H   0  0  0  0  0  0  0  0  0  0  0  0
   59.0669   29.2522   51.0174 H   0  0  0  0  0  0  0  0  0  0  0  0
   58.5684   29.8679   49.3995 H   0  0  0  0  0  0  0  0  0  0  0  0
   60.9606   28.0622   50.0190 H   0  0  0  0  0  0  0  0  0  0  0  0
   59.4146   27.6108   49.1667 H   0  0  0  0  0  0  0  0  0  0  0  0
   60.2922   28.7908   45.9801 H   0  0  0  0  0  0  0  0  0  0  0  0
   59.8042   27.2938   46.8974 H   0  0  0  0  0  0  0  0  0  0  0  0
   57.9105   28.3048   47.8053 H   0  0  0  0  0  0  0  0  0  0  0  0
   57.7720   30.7600   47.0130 H   0  0  0  0  0  0  0  0  0  0  0  0
   58.3352   28.5851   44.9302 H   0  0  0  0  0  0  0  0  0  0  0  0
   56.8689   28.0656   45.8505 H   0  0  0  0  0  0  0  0  0  0  0  0
   56.2701   29.4800   42.9120 H   0  0  0  0  0  0  0  0  0  0  0  0
   56.7233   30.8706   40.8987 H   0  0  0  0  0  0  0  0  0  0  0  0
   57.9324   33.0363   41.1198 H   0  0  0  0  0  0  0  0  0  0  0  0
   58.6804   33.8291   43.3546 H   0  0  0  0  0  0  0  0  0  0  0  0
   60.3692   32.1380   46.2203 H   0  0  0  0  0  0  0  0  0  0  0  0
   60.1237   33.5967   45.1793 H   0  0  0  0  0  0  0  0  0  0  0  0
   59.6084   34.9728   46.9836 H   0  0  0  0  0  0  0  0  0  0  0  0
   59.0714   33.5937   48.0142 H   0  0  0  0  0  0  0  0  0  0  0  0
   60.5110   34.6029   49.8410 H   0  0  0  0  0  0  0  0  0  0  0  0
   62.7650   34.4294   50.8983 H   0  0  0  0  0  0  0  0  0  0  0  0
   64.7057   33.5802   49.5768 H   0  0  0  0  0  0  0  0  0  0  0  0
   64.3927   32.8970   47.1949 H   0  0  0  0  0  0  0  0  0  0  0  0
   62.1422   33.0655   46.1309 H   0  0  0  0  0  0  0  0  0  0  0  0
   62.0939   30.2393   47.3229 H   0  0  0  0  0  0  0  0  0  0  0  0
   60.3604   30.7677   47.5117 H   0  0  0  0  0  0  0  0  0  0  0  0
   62.3440   30.2615   49.7771 H   0  0  0  0  0  0  0  0  0  0  0  0
   61.7865   31.8634   49.1864 H   0  0  0  0  0  0  0  0  0  0  0  0
  1  2  1  0
  2  3  1  0
  3  4  2  0
  4  5  1  0
  5  6  2  0
  6  7  1  0
  7  8  2  0
  8  9  1  0
  9 10  1  0
 10 11  1  0
 11 12  1  0
 12 13  1  0
 13 14  1  0
 14 15  1  0
 14 16  1  0
 16 17  1  0
 17 18  1  0
 18 19  2  0
 19 20  1  0
 20 21  2  0
 21 22  1  0
 22 23  2  0
 23 24  1  0
 24 25  2  0
 24 26  1  0
 26 27  1  0
 27 28  1  0
 28 29  2  0
 29 30  1  0
 30 31  2  0
 31 32  1  0
 32 33  2  0
 12 34  1  0
 34 35  1  0
  8  3  1  0
 35  9  1  0
 23 18  1  0
 33 28  1  0
  1 36  1  0
  1 37  1  0
  1 38  1  0
  4 39  1  0
  5 40  1  0
  6 41  1  0
  7 42  1  0
 10 43  1  0
 10 44  1  0
 11 45  1  0
 11 46  1  0
 13 47  1  0
 13 48  1  0
 14 49  1  1
 15 50  1  0
 16 51  1  0
 16 52  1  0
 19 53  1  0
 20 54  1  0
 21 55  1  0
 22 56  1  0
 26 57  1  0
 26 58  1  0
 27 59  1  0
 27 60  1  0
 29 61  1  0
 30 62  1  0
 31 63  1  0
 32 64  1  0
 33 65  1  0
 34 66  1  0
 34 67  1  0
 35 68  1  0
 35 69  1  0
M  END
>  <UniqueID>  (16) 
16

>  <SMILES>  (16) 
COc1ccccc1N1CCN(C[C@@H](O)COc2ccccc2C(=O)CCc2ccccc2)CC1

>  <Energy>  (16) 
83.96915096997506

>  <Genealogy>  (16) 
COc1ccccc1N1CCN(C[C@@H](O)COc2ccccc2C(=O)CCc2ccccc2)CC1 (chirality)
COc1ccccc1N1CCN(C[C@@H](O)COc2ccccc2C(=O)CCc2ccccc2)CC1 (3D coordinates assigned)
COc1ccccc1N1CCN(C[C@@H](O)COc2ccccc2C(=O)CCc2ccccc2)CC1 (nonaromatic ring conformer: 83.96915096997506 kcal/mol)

>  <smiles>  (16) 
COc1ccccc1N1CCN(CC(O)COc2ccccc2C(=O)CCc2ccccc2)CC1

>  <score_type>  (16) 
oracle

>  <origin>  (16) 
adg

>  <m_score__min__energy>  (16) 
-8.6999999999999993

>  <m_primary>  (16) 
energy

$$$$
17:0
     RDKit          3D

 41 43  0  0  0  0  0  0  0  0999 V2000
   56.7480   21.3030   42.6930 C   0  0  0  0  0  0  0  0  0  0  0  0
   57.3840   22.1510   43.7530 C   0  0  0  0  0  0  0  0  0  0  0  0
   58.7150   21.9240   44.1340 C   0  0  0  0  0  0  0  0  0  0  0  0
   59.2940   22.6840   45.1550 C   0  0  0  0  0  0  0  0  0  0  0  0
   58.5460   23.6670   45.8070 C   0  0  0  0  0  0  0  0  0  0  0  0
   57.2120   23.8950   45.4430 C   0  0  0  0  0  0  0  0  0  0  0  0
   56.2680   25.1170   46.2930 S   0  0  0  0  0  0  0  0  0  0  0  0
   54.8120   24.9000   45.9890 O   0  0  0  0  0  0  0  0  0  0  0  0
   56.4720   24.9800   47.7770 O   0  0  0  0  0  0  0  0  0  0  0  0
   56.7530   26.7080   45.7640 N   0  0  0  0  0  0  0  0  0  0  0  0
   57.5970   26.6070   44.5650 C   0  0  0  0  0  0  0  0  0  0  0  0
   57.7780   28.0040   43.9650 C   0  0  0  0  0  0  0  0  0  0  0  0
   57.9290   29.0130   45.0220 N   0  0  0  0  0  0  0  0  0  0  0  0
   57.9170   30.4070   44.6650 C   0  0  0  0  0  0  0  0  0  0  0  0
   57.7470   31.3500   45.6340 N   0  0  0  0  0  0  0  0  0  0  0  0
   57.7440   32.6740   45.3360 C   0  0  0  0  0  0  0  0  0  0  0  0
   57.9260   33.0900   44.0200 C   0  0  0  0  0  0  0  0  0  0  0  0
   58.1180   32.1190   43.0390 C   0  0  0  0  0  0  0  0  0  0  0  0
   58.1150   30.8010   43.3720 N   0  0  0  0  0  0  0  0  0  0  0  0
   58.3310   28.5800   46.3670 C   0  0  0  0  0  0  0  0  0  0  0  0
   57.4530   27.4100   46.8620 C   0  0  0  0  0  0  0  0  0  0  0  0
   56.6300   23.1280   44.4220 C   0  0  0  0  0  0  0  0  0  0  0  0
   56.1524   20.5089   43.1671 H   0  0  0  0  0  0  0  0  0  0  0  0
   56.0939   21.9278   42.0671 H   0  0  0  0  0  0  0  0  0  0  0  0
   57.5310   20.8500   42.0671 H   0  0  0  0  0  0  0  0  0  0  0  0
   59.3050   21.1457   43.6279 H   0  0  0  0  0  0  0  0  0  0  0  0
   60.3402   22.5074   45.4452 H   0  0  0  0  0  0  0  0  0  0  0  0
   59.0054   24.2640   46.6086 H   0  0  0  0  0  0  0  0  0  0  0  0
   58.5787   26.1929   44.8386 H   0  0  0  0  0  0  0  0  0  0  0  0
   57.1190   25.9447   43.8282 H   0  0  0  0  0  0  0  0  0  0  0  0
   58.6766   28.0098   43.3306 H   0  0  0  0  0  0  0  0  0  0  0  0
   56.8859   28.2492   43.3700 H   0  0  0  0  0  0  0  0  0  0  0  0
   57.5979   33.4176   46.1334 H   0  0  0  0  0  0  0  0  0  0  0  0
   57.9184   34.1590   43.7608 H   0  0  0  0  0  0  0  0  0  0  0  0
   58.2724   32.4199   41.9923 H   0  0  0  0  0  0  0  0  0  0  0  0
   58.3020   30.0980   42.6250 H   0  0  0  0  0  0  0  0  0  0  0  0
   59.3813   28.2542   46.3402 H   0  0  0  0  0  0  0  0  0  0  0  0
   58.2054   29.4267   47.0579 H   0  0  0  0  0  0  0  0  0  0  0  0
   58.0952   26.6874   47.3868 H   0  0  0  0  0  0  0  0  0  0  0  0
   56.6840   27.8332   47.5250 H   0  0  0  0  0  0  0  0  0  0  0  0
   55.5784   23.2931   44.1447 H   0  0  0  0  0  0  0  0  0  0  0  0
  1  2  1  0
  2  3  2  0
  3  4  1  0
  4  5  2  0
  5  6  1  0
  6  7  1  0
  7  8  2  0
  7  9  2  0
  7 10  1  0
 10 11  1  0
 11 12  1  0
 12 13  1  0
 13 14  1  0
 14 15  2  0
 15 16  1  0
 16 17  2  0
 17 18  1  0
 18 19  2  0
 13 20  1  0
 20 21  1  0
  6 22  2  0
 22  2  1  0
 21 10  1  0
 19 14  1  0
  1 23  1  0
  1 24  1  0
  1 25  1  0
  3 26  1  0
  4 27  1  0
  5 28  1  0
 11 29  1  0
 11 30  1  0
 12 31  1  0
 12 32  1  0
 16 33  1  0
 17 34  1  0
 18 35  1  0
 19 36  1  0
 20 37  1  0
 20 38  1  0
 21 39  1  0
 21 40  1  0
 22 41  1  0
M  CHG  1  19   1
M  END
>  <UniqueID>  (17) 
17

>  <SMILES>  (17) 
Cc1cccc(S(=O)(=O)N2CCN(c3nccc[nH+]3)CC2)c1

>  <Energy>  (17) 
48.64546960780214

>  <Genealogy>  (17) 
Cc1cccc(S(=O)(=O)N2CCN(c3nccc[nH+]3)CC2)c1 (protonated)
Cc1cccc(S(=O)(=O)N2CCN(c3nccc[nH+]3)CC2)c1 (3D coordinates assigned)
Cc1cccc(S(=O)(=O)N2CCN(c3nccc[nH+]3)CC2)c1 (nonaromatic ring conformer: 48.64546960780214 kcal/mol)

>  <smiles>  (17) 
Cc1cccc(S(=O)(=O)N2CCN(c3ncccn3)CC2)c1

>  <score_type>  (17) 
oracle

>  <origin>  (17) 
adg

>  <m_score__min__energy>  (17) 
-6.3700000000000001

>  <m_primary>  (17) 
energy

$$$$
18:0
     RDKit          3D

 34 34  0  0  0  0  0  0  0  0999 V2000
   55.6240   23.8350   46.4620 C   0  0  0  0  0  0  0  0  0  0  0  0
   54.9850   24.9260   45.6120 C   0  0  0  0  0  0  0  0  0  0  0  0
   55.4390   26.2020   46.0270 O   0  0  0  0  0  0  0  0  0  0  0  0
   56.6590   26.1110   46.7410 C   0  0  0  0  0  0  0  0  0  0  0  0
   57.8410   26.3650   45.8040 C   0  0  0  0  0  0  0  0  0  0  0  0
   57.3570   26.8400   44.5010 N   0  0  0  0  0  0  0  0  0  0  0  0
   58.1660   27.9580   43.9930 C   0  0  0  0  0  0  0  0  0  0  0  0
   57.7310   29.2770   44.5720 C   0  0  0  0  0  0  0  0  0  0  0  0
   56.5990   29.3650   45.1220 O   0  0  0  0  0  0  0  0  0  0  0  0
   58.6310   30.3950   44.5690 N   0  0  0  0  0  0  0  0  0  0  0  0
   58.3020   31.6740   45.1340 C   0  0  0  0  0  0  0  0  0  0  0  0
   57.7830   32.6990   44.3230 C   0  0  0  0  0  0  0  0  0  0  0  0
   57.4880   33.9520   44.8690 C   0  0  0  0  0  0  0  0  0  0  0  0
   57.7170   34.1950   46.2230 C   0  0  0  0  0  0  0  0  0  0  0  0
   58.2430   33.1890   47.0370 C   0  0  0  0  0  0  0  0  0  0  0  0
   58.5410   31.9310   46.4990 C   0  0  0  0  0  0  0  0  0  0  0  0
   59.2260   30.5750   47.6690 Br  0  0  0  0  0  0  0  0  0  0  0  0
   55.4854   24.0717   47.5272 H   0  0  0  0  0  0  0  0  0  0  0  0
   55.1490   22.8689   46.2362 H   0  0  0  0  0  0  0  0  0  0  0  0
   56.6990   23.7767   46.2362 H   0  0  0  0  0  0  0  0  0  0  0  0
   55.2560   24.7698   44.5574 H   0  0  0  0  0  0  0  0  0  0  0  0
   53.8925   24.8787   45.7314 H   0  0  0  0  0  0  0  0  0  0  0  0
   56.6657   26.8611   47.5456 H   0  0  0  0  0  0  0  0  0  0  0  0
   56.7502   25.1011   47.1675 H   0  0  0  0  0  0  0  0  0  0  0  0
   58.5000   27.1261   46.2472 H   0  0  0  0  0  0  0  0  0  0  0  0
   58.3970   25.4265   45.6621 H   0  0  0  0  0  0  0  0  0  0  0  0
   56.3630   27.1580   44.6040 H   0  0  0  0  0  0  0  0  0  0  0  0
   59.2192   27.7837   44.2584 H   0  0  0  0  0  0  0  0  0  0  0  0
   58.0333   28.0054   42.9021 H   0  0  0  0  0  0  0  0  0  0  0  0
   59.6080   30.2380   44.2330 H   0  0  0  0  0  0  0  0  0  0  0  0
   57.6081   32.5139   43.2529 H   0  0  0  0  0  0  0  0  0  0  0  0
   57.0750   34.7465   44.2301 H   0  0  0  0  0  0  0  0  0  0  0  0
   57.4829   35.1809   46.6509 H   0  0  0  0  0  0  0  0  0  0  0  0
   58.4237   33.3857   48.1041 H   0  0  0  0  0  0  0  0  0  0  0  0
  1  2  1  0
  2  3  1  0
  3  4  1  0
  4  5  1  0
  5  6  1  0
  6  7  1  0
  7  8  1  0
  8  9  2  0
  8 10  1  0
 10 11  1  0
 11 12  2  0
 12 13  1  0
 13 14  2  0
 14 15  1  0
 15 16  2  0
 16 17  1  0
 16 11  1  0
  1 18  1  0
  1 19  1  0
  1 20  1  0
  2 21  1  0
  2 22  1  0
  4 23  1  0
  4 24  1  0
  5 25  1  0
  5 26  1  0
  6 27  1  0
  7 28  1  0
  7 29  1  0
 10 30  1  0
 12 31  1  0
 13 32  1  0
 14 33  1  0
 15 34  1  0
M  END
>  <UniqueID>  (18) 
18

>  <SMILES>  (18) 
CCOCCNCC(=O)Nc1ccccc1Br

>  <Energy>  (18) 
32.70890100775698

>  <Genealogy>  (18) 
CCOCCNCC(=O)Nc1ccccc1Br (3D coordinates assigned)
CCOCCNCC(=O)Nc1ccccc1Br (optimized conformer: 32.70890100775698 kcal/mol)

>  <smiles>  (18) 
CCOCCNCC(=O)Nc1ccccc1Br

>  <score_type>  (18) 
oracle

>  <origin>  (18) 
adg

>  <m_score__min__energy>  (18) 
-6.3499999999999996

>  <m_primary>  (18) 
energy

$$$$
19:0
     RDKit          3D

 50 51  0  0  0  0  0  0  0  0999 V2000
   58.7862   32.3615   42.7808 H   0  0  0  0  0  0  0  0  0  0  0  0
   58.3110   32.4040   43.7720 C   0  0  0  0  0  0  0  0  0  0  0  0
   58.3550   33.5690   44.4320 C   0  0  0  0  0  0  0  0  0  0  0  0
   59.1313   34.2901   44.1363 H   0  0  0  0  0  0  0  0  0  0  0  0
   57.4200   33.9710   45.5530 C   0  0  0  0  0  0  0  0  0  0  0  0
   56.6683   33.1781   45.6806 H   0  0  0  0  0  0  0  0  0  0  0  0
   56.9680   34.9325   45.2682 H   0  0  0  0  0  0  0  0  0  0  0  0
   58.1060   34.1790   46.8480 N   0  0  0  0  0  0  0  0  0  0  0  0
   57.9510   33.0800   47.8330 C   0  0  0  0  0  0  0  0  0  0  0  0
   57.1795   32.3867   47.4667 H   0  0  0  0  0  0  0  0  0  0  0  0
   57.6695   33.5355   48.7939 H   0  0  0  0  0  0  0  0  0  0  0  0
   59.2520   32.2910   48.0600 C   0  0  0  0  0  0  0  0  0  0  0  0
   59.0083   31.2617   48.3620 H   0  0  0  0  0  0  0  0  0  0  0  0
   59.8411   32.7766   48.8520 H   0  0  0  0  0  0  0  0  0  0  0  0
   60.0350   32.2640   46.8140 N   0  0  0  0  0  0  0  0  0  0  0  0
   61.1240   31.2640   46.8560 C   0  0  0  0  0  0  0  0  0  0  0  0
   61.4971   31.0866   45.8365 H   0  0  0  0  0  0  0  0  0  0  0  0
   60.7390   30.3236   47.2773 H   0  0  0  0  0  0  0  0  0  0  0  0
   62.2640   31.7810   47.7310 C   0  0  0  0  0  0  0  0  0  0  0  0
   62.6997   30.9434   48.2954 H   0  0  0  0  0  0  0  0  0  0  0  0
   61.8720   32.5350   48.4294 H   0  0  0  0  0  0  0  0  0  0  0  0
   63.2600   32.3690   46.9220 O   0  0  0  0  0  0  0  0  0  0  0  0
   63.7280   33.5720   47.5020 C   0  0  0  0  0  0  0  0  0  0  0  0
   63.5125   34.4104   46.8233 H   0  0  0  0  0  0  0  0  0  0  0  0
   64.8125   33.4922   47.6679 H   0  0  0  0  0  0  0  0  0  0  0  0
   63.0370   33.8160   48.8390 C   0  0  0  0  0  0  0  0  0  0  0  0
   63.7284   33.5719   49.6590 H   0  0  0  0  0  0  0  0  0  0  0  0
   62.7411   34.8730   48.9113 H   0  0  0  0  0  0  0  0  0  0  0  0
   62.1430   33.1792   48.9113 H   0  0  0  0  0  0  0  0  0  0  0  0
   60.5330   33.6130   46.4790 C   0  0  0  0  0  0  0  0  0  0  0  0
   60.8069   33.6341   45.4139 H   0  0  0  0  0  0  0  0  0  0  0  0
   61.4009   33.8195   47.1224 H   0  0  0  0  0  0  0  0  0  0  0  0
   59.4800   34.7110   46.7420 C   0  0  0  0  0  0  0  0  0  0  0  0
   59.5131   35.4341   45.9137 H   0  0  0  0  0  0  0  0  0  0  0  0
   59.7268   35.1797   47.7061 H   0  0  0  0  0  0  0  0  0  0  0  0
   57.6720   31.1740   44.2770 C   0  0  0  0  0  0  0  0  0  0  0  0
   56.4020   30.7820   43.8310 C   0  0  0  0  0  0  0  0  0  0  0  0
   55.8538   31.4132   43.1161 H   0  0  0  0  0  0  0  0  0  0  0  0
   55.8290   29.5920   44.2910 C   0  0  0  0  0  0  0  0  0  0  0  0
   54.8254   29.3008   43.9475 H   0  0  0  0  0  0  0  0  0  0  0  0
   56.5230   28.7690   45.1850 C   0  0  0  0  0  0  0  0  0  0  0  0
   55.9050   27.5870   45.6190 O   0  0  0  0  0  0  0  0  0  0  0  0
   56.6040   26.4020   45.9870 C   0  0  0  0  0  0  0  0  0  0  0  0
   56.6478   26.3277   47.0836 H   0  0  0  0  0  0  0  0  0  0  0  0
   56.0785   25.5252   45.5808 H   0  0  0  0  0  0  0  0  0  0  0  0
   57.6256   26.4378   45.5808 H   0  0  0  0  0  0  0  0  0  0  0  0
   57.8110   29.1480   45.6100 C   0  0  0  0  0  0  0  0  0  0  0  0
   58.3692   28.5057   46.3071 H   0  0  0  0  0  0  0  0  0  0  0  0
   58.3830   30.3380   45.1490 C   0  0  0  0  0  0  0  0  0  0  0  0
   59.3960   30.6194   45.4724 H   0  0  0  0  0  0  0  0  0  0  0  0
  1  2  1  0
  2  3  2  0
  3  4  1  0
  3  5  1  0
  5  6  1  0
  5  7  1  0
  5  8  1  0
  8  9  1  0
  9 10  1  0
  9 11  1  0
  9 12  1  0
 12 13  1  0
 12 14  1  0
 12 15  1  0
 15 16  1  0
 16 17  1  0
 16 18  1  0
 16 19  1  0
 19 20  1  0
 19 21  1  0
 19 22  1  0
 22 23  1  0
 23 24  1  0
 23 25  1  0
 23 26  1  0
 26 27  1  0
 26 28  1  0
 26 29  1  0
 15 30  1  0
 30 31  1  0
 30 32  1  0
 30 33  1  0
 33 34  1  0
 33 35  1  0
  2 36  1  0
 36 37  2  0
 37 38  1  0
 37 39  1  0
 39 40  1  0
 39 41  2  0
 41 42  1  0
 42 43  1  0
 43 44  1  0
 43 45  1  0
 43 46  1  0
 41 47  1  0
 47 48  1  0
 47 49  2  0
 49 50  1  0
 33  8  1  0
 49 36  1  0
M  END
>  <UniqueID>  (19) 
19

>  <SMILES>  (19) 
CCOCCN1CCN(C/C=C\c2ccc(OC)cc2)CC1

>  <Energy>  (19) 
67.51824574981376

>  <Genealogy>  (19) 
CCOCCN1CCN(C/C=C\c2ccc(OC)cc2)CC1 (cis-trans isomerization)
CCOCCN1CCN(C/C=C\c2ccc(OC)cc2)CC1 (3D coordinates assigned)
CCOCCN1CCN(C/C=C\c2ccc(OC)cc2)CC1 (nonaromatic ring conformer: 67.51824574981376 kcal/mol)

>  <smiles>  (19) 
CCOCCN1CCN(CC=Cc2ccc(OC)cc2)CC1

>  <score_type>  (19) 
oracle

>  <origin>  (19) 
adg

>  <m_score__min__energy>  (19) 
-6.9199999999999999

>  <m_primary>  (19) 
energy

$$$$
20:0
     RDKit          3D

 39 41  0  0  1  0  0  0  0  0999 V2000
   59.2800   34.9930   47.2220 C   0  0  0  0  0  0  0  0  0  0  0  0
   60.0650   34.7220   46.0350 N   0  0  0  0  0  0  0  0  0  0  0  0
   61.2320   33.9850   46.4060 C   0  0  0  0  0  0  0  0  0  0  0  0
   59.2510   34.1160   45.0270 C   0  0  0  0  0  0  0  0  0  0  0  0
   57.9550   33.5340   45.5420 C   0  0  0  0  0  0  0  0  0  0  0  0
   58.1480   32.1630   46.0080 N   0  0  0  0  0  0  0  0  0  0  0  0
   58.9640   31.7310   46.9920 C   0  0  0  0  0  0  0  0  0  0  0  0
   58.8500   30.3970   47.1110 N   0  0  0  0  0  0  0  0  0  0  0  0
   57.9600   29.9470   46.2060 C   0  0  0  0  0  0  0  0  0  0  0  0
   57.4380   28.7210   45.8510 C   0  0  0  0  0  0  0  0  0  0  0  0
   57.8250   27.6790   46.4710 N   0  0  0  0  0  0  0  0  0  0  0  0
   58.0240   26.3780   45.8890 C   0  0  0  0  0  0  0  0  0  0  0  0
   56.7380   25.6540   45.6590 C   0  0  0  0  0  0  0  0  0  0  0  0
   56.5880   24.4030   45.0590 C   0  0  0  0  0  0  0  0  0  0  0  0
   55.2550   24.0950   45.0390 C   0  0  0  0  0  0  0  0  0  0  0  0
   54.6170   25.1740   45.6330 C   0  0  0  0  0  0  0  0  0  0  0  0
   55.5130   26.0440   45.9720 O   0  0  0  0  0  0  0  0  0  0  0  0
   56.5290   28.5740   44.8700 N   0  0  0  0  0  0  0  0  0  0  0  0
   56.1290   29.6950   44.2210 C   0  0  0  0  0  0  0  0  0  0  0  0
   56.6190   30.9080   44.5420 N   0  0  0  0  0  0  0  0  0  0  0  0
   57.5310   31.0730   45.5240 C   0  0  0  0  0  0  0  0  0  0  0  0
   59.8846   34.7843   48.1170 H   0  0  0  0  0  0  0  0  0  0  0  0
   58.9728   36.0492   47.2252 H   0  0  0  0  0  0  0  0  0  0  0  0
   58.3866   34.3513   47.2252 H   0  0  0  0  0  0  0  0  0  0  0  0
   61.3038   33.9397   47.5027 H   0  0  0  0  0  0  0  0  0  0  0  0
   61.1656   32.9647   46.0004 H   0  0  0  0  0  0  0  0  0  0  0  0
   62.1248   34.4834   46.0004 H   0  0  0  0  0  0  0  0  0  0  0  0
   59.0102   34.8800   44.2731 H   0  0  0  0  0  0  0  0  0  0  0  0
   59.8315   33.2774   44.6150 H   0  0  0  0  0  0  0  0  0  0  0  0
   57.5902   34.1502   46.3770 H   0  0  0  0  0  0  0  0  0  0  0  0
   57.2225   33.5264   44.7214 H   0  0  0  0  0  0  0  0  0  0  0  0
   59.6197   32.3703   47.6013 H   0  0  0  0  0  0  0  0  0  0  0  0
   58.5394   26.4976   44.9246 H   0  0  0  0  0  0  0  0  0  0  0  0
   58.6221   25.7829   46.5948 H   0  0  0  0  0  0  0  0  0  0  0  0
   57.4012   23.7731   44.6693 H   0  0  0  0  0  0  0  0  0  0  0  0
   54.7879   23.1840   44.6368 H   0  0  0  0  0  0  0  0  0  0  0  0
   53.5327   25.2733   45.7894 H   0  0  0  0  0  0  0  0  0  0  0  0
   56.1580   27.6410   44.6300 H   0  0  0  0  0  0  0  0  0  0  0  0
   55.3869   29.6121   43.4133 H   0  0  0  0  0  0  0  0  0  0  0  0
  1  2  1  0
  2  3  1  0
  2  4  1  0
  4  5  1  0
  5  6  1  0
  6  7  1  0
  7  8  2  0
  8  9  1  0
  9 10  1  0
 10 11  2  0
 11 12  1  0
 12 13  1  0
 13 14  2  0
 14 15  1  0
 15 16  2  0
 16 17  1  0
 10 18  1  0
 18 19  1  0
 19 20  2  0
 20 21  1  0
 21  6  1  0
 21  9  2  0
 17 13  1  0
  1 22  1  0
  1 23  1  0
  1 24  1  0
  3 25  1  0
  3 26  1  0
  3 27  1  0
  4 28  1  0
  4 29  1  0
  5 30  1  0
  5 31  1  0
  7 32  1  0
 12 33  1  0
 12 34  1  0
 14 35  1  0
 15 36  1  0
 16 37  1  0
 18 38  1  0
 19 39  1  0
M  END
>  <smiles>  (20) 
CN(C)CCn1cnc2c(=NCc3ccco3)[nH]cnc21

>  <score_type>  (20) 
oracle

>  <origin>  (20) 
adg

>  <m_score__min__energy>  (20) 
-6.7400000000000002

>  <m_primary>  (20) 
energy

$$$$
21:0
     RDKit          3D

 60 63  0  0  0  0  0  0  0  0999 V2000
   62.0470   33.4390   50.8500 C   0  0  0  0  0  0  0  0  0  0  0  0
   61.2110   33.6200   50.0010 C   0  0  0  0  0  0  0  0  0  0  0  0
   60.1840   33.8400   48.9640 C   0  0  1  0  0  0  0  0  0  0  0  0
   59.3830   34.9110   49.4100 O   0  0  0  0  0  0  0  0  0  0  0  0
   60.8450   34.2140   47.6260 C   0  0  0  0  0  0  0  0  0  0  0  0
   59.9980   33.5700   46.5260 C   0  0  0  0  0  0  0  0  0  0  0  0
   58.8560   32.8020   47.2130 C   0  0  1  0  0  0  0  0  0  0  0  0
   58.4760   31.5690   46.3950 C   0  0  0  0  0  0  0  0  0  0  0  0
   58.9030   30.3160   46.7150 C   0  0  0  0  0  0  0  0  0  0  0  0
   59.5400   30.0350   48.0720 C   0  0  2  0  0  0  0  0  0  0  0  0
   58.5310   29.5360   48.9390 O   0  0  0  0  0  0  0  0  0  0  0  0
   58.9420   29.4730   50.2940 C   0  0  0  0  0  0  0  0  0  0  0  0
   57.8200   29.7020   51.1220 O   0  0  0  0  0  0  0  0  0  0  0  0
   58.2280   30.3640   52.3010 C   0  0  0  0  0  0  0  0  0  0  0  0
   60.2260   31.2740   48.6710 C   0  0  0  0  0  0  0  0  0  0  0  0
   59.3380   32.5550   48.6530 C   0  0  1  0  0  0  0  0  0  0  0  0
   58.1430   32.4150   49.6310 C   0  0  0  0  0  0  0  0  0  0  0  0
   58.8830   29.1890   45.6510 C   0  0  1  0  0  0  0  0  0  0  0  0
   60.2240   29.3210   44.8740 C   0  0  0  0  0  0  0  0  0  0  0  0
   58.7750   27.7700   46.3180 C   0  0  0  0  0  0  0  0  0  0  0  0
   58.0460   26.6790   45.4990 C   0  0  0  0  0  0  0  0  0  0  0  0
   58.1440   26.8970   43.9950 C   0  0  1  0  0  0  0  0  0  0  0  0
   57.4500   25.8680   43.3390 O   0  0  0  0  0  0  0  0  0  0  0  0
   57.5630   28.2760   43.5940 C   0  0  0  0  0  0  0  0  0  0  0  0
   57.6550   29.3610   44.7030 C   0  0  2  0  0  0  0  0  0  0  0  0
   57.6010   30.7580   44.0770 C   0  0  0  0  0  0  0  0  0  0  0  0
   57.7650   31.8250   45.1120 C   0  0  0  0  0  0  0  0  0  0  0  0
   57.3320   32.9830   44.8510 O   0  0  0  0  0  0  0  0  0  0  0  0
   62.8100   33.2738   51.6249 H   0  0  0  0  0  0  0  0  0  0  0  0
   59.2800   35.5620   48.6680 H   0  0  0  0  0  0  0  0  0  0  0  0
   60.8605   35.3069   47.5025 H   0  0  0  0  0  0  0  0  0  0  0  0
   61.8856   33.8599   47.5845 H   0  0  0  0  0  0  0  0  0  0  0  0
   59.5846   34.3473   45.8665 H   0  0  0  0  0  0  0  0  0  0  0  0
   60.6091   32.8904   45.9138 H   0  0  0  0  0  0  0  0  0  0  0  0
   57.9058   33.3535   47.2673 H   0  0  0  0  0  0  0  0  0  0  0  0
   60.3372   29.2880   47.9433 H   0  0  0  0  0  0  0  0  0  0  0  0
   59.3618   28.4788   50.5070 H   0  0  0  0  0  0  0  0  0  0  0  0
   59.7105   30.2360   50.4870 H   0  0  0  0  0  0  0  0  0  0  0  0
   57.8797   29.7989   53.1781 H   0  0  0  0  0  0  0  0  0  0  0  0
   59.3256   30.4331   52.3216 H   0  0  0  0  0  0  0  0  0  0  0  0
   57.7964   31.3756   52.3216 H   0  0  0  0  0  0  0  0  0  0  0  0
   60.4933   31.0519   49.7147 H   0  0  0  0  0  0  0  0  0  0  0  0
   61.1067   31.4858   48.0469 H   0  0  0  0  0  0  0  0  0  0  0  0
   58.5101   32.4580   50.6670 H   0  0  0  0  0  0  0  0  0  0  0  0
   57.4310   33.2359   49.4599 H   0  0  0  0  0  0  0  0  0  0  0  0
   57.6401   31.4518   49.4599 H   0  0  0  0  0  0  0  0  0  0  0  0
   61.0557   29.4029   45.5893 H   0  0  0  0  0  0  0  0  0  0  0  0
   60.3703   28.4329   44.2416 H   0  0  0  0  0  0  0  0  0  0  0  0
   60.1943   30.2206   44.2416 H   0  0  0  0  0  0  0  0  0  0  0  0
   59.7970   27.4140   46.5147 H   0  0  0  0  0  0  0  0  0  0  0  0
   58.1624   27.9168   47.2198 H   0  0  0  0  0  0  0  0  0  0  0  0
   58.4915   25.7029   45.7412 H   0  0  0  0  0  0  0  0  0  0  0  0
   56.9804   26.7231   45.7685 H   0  0  0  0  0  0  0  0  0  0  0  0
   59.2031   26.8811   43.6984 H   0  0  0  0  0  0  0  0  0  0  0  0
   56.6650   26.2930   42.8960 H   0  0  0  0  0  0  0  0  0  0  0  0
   58.1133   28.6377   42.7129 H   0  0  0  0  0  0  0  0  0  0  0  0
   56.4921   28.1193   43.3976 H   0  0  0  0  0  0  0  0  0  0  0  0
   56.7786   29.2297   45.3547 H   0  0  0  0  0  0  0  0  0  0  0  0
   58.4092   30.8501   43.3365 H   0  0  0  0  0  0  0  0  0  0  0  0
   56.6184   30.8862   43.5994 H   0  0  0  0  0  0  0  0  0  0  0  0
  1  2  3  0
  3  2  1  1
  3  4  1  0
  3  5  1  0
  5  6  1  0
  6  7  1  0
  7  8  1  0
  8  9  2  0
  9 10  1  0
 10 11  1  0
 11 12  1  0
 12 13  1  0
 13 14  1  0
 10 15  1  0
 15 16  1  0
 16 17  1  1
  9 18  1  0
 18 19  1  6
 18 20  1  0
 20 21  1  0
 21 22  1  0
 22 23  1  0
 22 24  1  0
 24 25  1  0
 25 26  1  0
 26 27  1  0
 27 28  2  0
 16  3  1  0
 25 18  1  0
 16  7  1  0
 27  8  1  0
  1 29  1  0
  4 30  1  0
  5 31  1  0
  5 32  1  0
  6 33  1  0
  6 34  1  0
  7 35  1  1
 10 36  1  6
 12 37  1  0
 12 38  1  0
 14 39  1  0
 14 40  1  0
 14 41  1  0
 15 42  1  0
 15 43  1  0
 17 44  1  0
 17 45  1  0
 17 46  1  0
 19 47  1  0
 19 48  1  0
 19 49  1  0
 20 50  1  0
 20 51  1  0
 21 52  1  0
 21 53  1  0
 22 54  1  6
 23 55  1  0
 24 56  1  0
 24 57  1  0
 25 58  1  1
 26 59  1  0
 26 60  1  0
M  END
>  <UniqueID>  (21) 
20

>  <SMILES>  (21) 
C#C[C@@]1(O)CC[C@H]2C3=C(C(OCOC)CC21C)C1(C)CCC(O)CC1CC3=O

>  <Energy>  (21) 
91.55922625190343

>  <Genealogy>  (21) 
C#C[C@@]1(O)CC[C@H]2C3=C(C(OCOC)CC21C)C1(C)CCC(O)CC1CC3=O (chirality)
C#C[C@@]1(O)CC[C@H]2C3=C(C(OCOC)CC21C)C1(C)CCC(O)CC1CC3=O (3D coordinates assigned)
C#C[C@@]1(O)CC[C@H]2C3=C(C(OCOC)CC21C)C1(C)CCC(O)CC1CC3=O (nonaromatic ring conformer: 91.55922625190343 kcal/mol)

>  <smiles>  (21) 
C#CC1(O)CCC2C3=C(C(OCOC)CC21C)C1(C)CCC(O)CC1CC3=O

>  <score_type>  (21) 
oracle

>  <origin>  (21) 
adg

>  <m_score__min__energy>  (21) 
-8.6500000000000004

>  <m_primary>  (21) 
energy

$$$$
22:0
     RDKit          3D

 37 37  0  0  0  0  0  0  0  0999 V2000
   55.8310   30.4630   44.5000 N   0  0  0  0  0  0  0  0  0  0  0  0
   56.8900   29.9980   44.4620 C   0  0  0  0  0  0  0  0  0  0  0  0
   58.2360   29.4030   44.4080 C   0  0  2  0  0  0  0  0  0  0  0  0
   58.1810   28.0000   43.8030 C   0  0  0  0  0  0  0  0  0  0  0  0
   58.1830   27.0430   44.9900 C   0  0  0  0  0  0  0  0  0  0  0  0
   58.8260   27.8150   46.1340 C   0  0  0  0  0  0  0  0  0  0  0  0
   58.7560   29.2180   45.7580 N   0  0  0  0  0  0  0  0  0  0  0  0
   59.2980   30.2590   46.5970 C   0  0  0  0  0  0  0  0  0  0  0  0
   58.5090   31.0220   47.2190 O   0  0  0  0  0  0  0  0  0  0  0  0
   60.7850   30.4640   46.7800 C   0  0  0  0  0  0  0  0  0  0  0  0
   61.0760   31.5580   47.7220 N   0  0  0  0  0  0  0  0  0  0  0  0
   61.9800   32.5590   47.1320 C   0  0  0  0  0  0  0  0  0  0  0  0
   61.1970   33.8100   46.6900 C   0  0  0  0  0  0  0  0  0  0  0  0
   59.7530   33.6910   46.9440 N   0  0  0  0  0  0  0  0  0  0  0  0
   58.9590   34.5810   46.0850 C   0  0  0  0  0  0  0  0  0  0  0  0
   57.7720   33.8210   45.4960 C   0  0  0  0  0  0  0  0  0  0  0  0
   56.9720   34.6820   44.7660 F   0  0  0  0  0  0  0  0  0  0  0  0
   58.2230   32.8070   44.6710 F   0  0  0  0  0  0  0  0  0  0  0  0
   57.0220   33.2700   46.5200 F   0  0  0  0  0  0  0  0  0  0  0  0
   58.8632   30.0799   43.8092 H   0  0  0  0  0  0  0  0  0  0  0  0
   57.2639   27.8734   43.2089 H   0  0  0  0  0  0  0  0  0  0  0  0
   59.0291   27.8137   43.1277 H   0  0  0  0  0  0  0  0  0  0  0  0
   57.1547   26.7532   45.2519 H   0  0  0  0  0  0  0  0  0  0  0  0
   58.7300   26.1155   44.7654 H   0  0  0  0  0  0  0  0  0  0  0  0
   58.2745   27.6419   47.0699 H   0  0  0  0  0  0  0  0  0  0  0  0
   59.8643   27.4941   46.3040 H   0  0  0  0  0  0  0  0  0  0  0  0
   61.2273   29.5342   47.1670 H   0  0  0  0  0  0  0  0  0  0  0  0
   61.2154   30.7310   45.8035 H   0  0  0  0  0  0  0  0  0  0  0  0
   60.1840   32.0140   48.0280 H   0  0  0  0  0  0  0  0  0  0  0  0
   61.5370   31.1460   48.5670 H   0  0  0  0  0  0  0  0  0  0  0  0
   62.7328   32.8501   47.8794 H   0  0  0  0  0  0  0  0  0  0  0  0
   62.4670   32.1179   46.2498 H   0  0  0  0  0  0  0  0  0  0  0  0
   61.5816   34.6800   47.2424 H   0  0  0  0  0  0  0  0  0  0  0  0
   61.3366   33.9250   45.6050 H   0  0  0  0  0  0  0  0  0  0  0  0
   59.4550   32.7000   46.7800 H   0  0  0  0  0  0  0  0  0  0  0  0
   58.5889   35.4276   46.6818 H   0  0  0  0  0  0  0  0  0  0  0  0
   59.5930   34.9496   45.2651 H   0  0  0  0  0  0  0  0  0  0  0  0
  1  2  3  0
  2  3  1  0
  3  4  1  0
  4  5  1  0
  5  6  1  0
  6  7  1  0
  7  8  1  0
  8  9  2  0
  8 10  1  0
 10 11  1  0
 11 12  1  0
 12 13  1  0
 13 14  1  0
 14 15  1  0
 15 16  1  0
 16 17  1  0
 16 18  1  0
 16 19  1  0
  7  3  1  0
  3 20  1  6
  4 21  1  0
  4 22  1  0
  5 23  1  0
  5 24  1  0
  6 25  1  0
  6 26  1  0
 10 27  1  0
 10 28  1  0
 11 29  1  0
 11 30  1  0
 12 31  1  0
 12 32  1  0
 13 33  1  0
 13 34  1  0
 14 35  1  0
 15 36  1  0
 15 37  1  0
M  CHG  1  11   1
M  END
>  <UniqueID>  (22) 
21

>  <SMILES>  (22) 
N#C[C@@H]1CCCN1C(=O)C[NH2+]CCNCC(F)(F)F

>  <Energy>  (22) 
27.921263362387446

>  <Genealogy>  (22) 
N#CC1CCCN1C(=O)C[NH2+]CCNCC(F)(F)F (protonated)
N#C[C@@H]1CCCN1C(=O)C[NH2+]CCNCC(F)(F)F (chirality)
N#C[C@@H]1CCCN1C(=O)C[NH2+]CCNCC(F)(F)F (3D coordinates assigned)
N#C[C@@H]1CCCN1C(=O)C[NH2+]CCNCC(F)(F)F (nonaromatic ring conformer: 27.921263362387446 kcal/mol)

>  <smiles>  (22) 
N#CC1CCCN1C(=O)CNCCNCC(F)(F)F

>  <score_type>  (22) 
oracle

>  <origin>  (22) 
adg

>  <m_score__min__energy>  (22) 
-3.3100000000000001

>  <m_primary>  (22) 
energy

$$$$
23:0
     RDKit          3D

 53 57  0  0  0  0  0  0  0  0999 V2000
   63.6880   32.5440   47.0990 C   0  0  0  0  0  0  0  0  0  0  0  0
   63.3310   33.9150   47.6610 C   0  0  0  0  0  0  0  0  0  0  0  0
   62.6720   33.7770   49.0040 C   0  0  0  0  0  0  0  0  0  0  0  0
   63.3880   33.7930   50.1620 N   0  0  0  0  0  0  0  0  0  0  0  0
   62.4360   33.7190   51.1110 C   0  0  0  0  0  0  0  0  0  0  0  0
   62.5870   33.7140   52.4970 C   0  0  0  0  0  0  0  0  0  0  0  0
   63.9410   33.7380   53.1390 C   0  0  0  0  0  0  0  0  0  0  0  0
   61.4070   33.6290   53.2680 C   0  0  0  0  0  0  0  0  0  0  0  0
   60.1420   33.5790   52.6260 C   0  0  0  0  0  0  0  0  0  0  0  0
   58.8900   33.5070   53.4400 C   0  0  0  0  0  0  0  0  0  0  0  0
   60.0630   33.6030   51.2600 N   0  0  0  0  0  0  0  0  0  0  0  0
   61.2070   33.6680   50.5370 C   0  0  0  0  0  0  0  0  0  0  0  0
   61.3250   33.7020   49.2030 N   0  0  0  0  0  0  0  0  0  0  0  0
   60.2400   33.7120   48.2170 C   0  0  0  0  0  0  0  0  0  0  0  0
   59.8760   32.3080   47.8160 C   0  0  0  0  0  0  0  0  0  0  0  0
   60.0500   31.8870   46.4890 C   0  0  0  0  0  0  0  0  0  0  0  0
   59.7070   30.5860   46.1090 C   0  0  0  0  0  0  0  0  0  0  0  0
   59.1900   29.6870   47.0530 C   0  0  0  0  0  0  0  0  0  0  0  0
   58.7840   28.3240   46.6400 C   0  0  0  0  0  0  0  0  0  0  0  0
   59.5140   27.2350   47.1490 C   0  0  0  0  0  0  0  0  0  0  0  0
   59.2390   25.9340   46.7280 C   0  0  0  0  0  0  0  0  0  0  0  0
   58.2340   25.7010   45.7920 C   0  0  0  0  0  0  0  0  0  0  0  0
   57.4870   26.7660   45.2850 C   0  0  0  0  0  0  0  0  0  0  0  0
   57.7360   28.0860   45.7080 C   0  0  0  0  0  0  0  0  0  0  0  0
   56.8560   29.1660   45.1990 C   0  0  0  0  0  0  0  0  0  0  0  0
   55.5640   28.9930   44.8630 N   0  0  0  0  0  0  0  0  0  0  0  0
   55.1410   30.1970   44.5120 N   0  0  0  0  0  0  0  0  0  0  0  0
   56.1270   31.0710   44.6360 N   0  0  0  0  0  0  0  0  0  0  0  0
   57.2150   30.4570   45.0710 N   0  0  0  0  0  0  0  0  0  0  0  0
   59.0030   30.1100   48.3780 C   0  0  0  0  0  0  0  0  0  0  0  0
   59.3460   31.4110   48.7580 C   0  0  0  0  0  0  0  0  0  0  0  0
   63.8702   31.8441   47.9278 H   0  0  0  0  0  0  0  0  0  0  0  0
   62.8565   32.1729   46.4818 H   0  0  0  0  0  0  0  0  0  0  0  0
   64.5949   32.6255   46.4818 H   0  0  0  0  0  0  0  0  0  0  0  0
   64.2482   34.5128   47.7674 H   0  0  0  0  0  0  0  0  0  0  0  0
   62.6329   34.4118   46.9712 H   0  0  0  0  0  0  0  0  0  0  0  0
   63.8281   33.7360   54.2332 H   0  0  0  0  0  0  0  0  0  0  0  0
   64.5103   32.8498   52.8275 H   0  0  0  0  0  0  0  0  0  0  0  0
   64.4785   34.6458   52.8275 H   0  0  0  0  0  0  0  0  0  0  0  0
   61.4681   33.6015   54.3660 H   0  0  0  0  0  0  0  0  0  0  0  0
   59.1467   33.5218   54.5095 H   0  0  0  0  0  0  0  0  0  0  0  0
   58.2495   34.3698   53.2047 H   0  0  0  0  0  0  0  0  0  0  0  0
   58.3527   32.5765   53.2047 H   0  0  0  0  0  0  0  0  0  0  0  0
   59.3583   34.2031   48.6546 H   0  0  0  0  0  0  0  0  0  0  0  0
   60.5768   34.2598   47.3245 H   0  0  0  0  0  0  0  0  0  0  0  0
   60.4587   32.5846   45.7432 H   0  0  0  0  0  0  0  0  0  0  0  0
   59.8432   30.2663   45.0653 H   0  0  0  0  0  0  0  0  0  0  0  0
   60.3104   27.4112   47.8871 H   0  0  0  0  0  0  0  0  0  0  0  0
   59.8164   25.0911   47.1356 H   0  0  0  0  0  0  0  0  0  0  0  0
   58.0284   24.6754   45.4515 H   0  0  0  0  0  0  0  0  0  0  0  0
   56.6950   26.5719   44.5468 H   0  0  0  0  0  0  0  0  0  0  0  0
   58.5847   29.4149   49.1209 H   0  0  0  0  0  0  0  0  0  0  0  0
   59.2001   31.7336   49.7995 H   0  0  0  0  0  0  0  0  0  0  0  0
  1  2  1  0
  2  3  1  0
  3  4  2  0
  4  5  1  0
  5  6  2  0
  6  7  1  0
  6  8  1  0
  8  9  2  0
  9 10  1  0
  9 11  1  0
 11 12  2  0
 12 13  1  0
 13 14  1  0
 14 15  1  0
 15 16  2  0
 16 17  1  0
 17 18  2  0
 18 19  1  0
 19 20  2  0
 20 21  1  0
 21 22  2  0
 22 23  1  0
 23 24  2  0
 24 25  1  0
 25 26  1  0
 26 27  2  0
 27 28  1  0
 28 29  1  0
 18 30  1  0
 30 31  2  0
 13  3  1  0
 31 15  1  0
 12  5  1  0
 24 19  1  0
 29 25  2  0
  1 32  1  0
  1 33  1  0
  1 34  1  0
  2 35  1  0
  2 36  1  0
  7 37  1  0
  7 38  1  0
  7 39  1  0
  8 40  1  0
 10 41  1  0
 10 42  1  0
 10 43  1  0
 14 44  1  0
 14 45  1  0
 16 46  1  0
 17 47  1  0
 20 48  1  0
 21 49  1  0
 22 50  1  0
 23 51  1  0
 30 52  1  0
 31 53  1  0
M  CHG  1  28  -1
M  END
>  <UniqueID>  (23) 
22

>  <SMILES>  (23) 
CCc1nc2c(C)cc(C)nc2n1Cc1ccc(-c2ccccc2-c2nn[n-]n2)cc1

>  <Energy>  (23) 
138.37309099854596

>  <Genealogy>  (23) 
CCc1nc2c(C)cc(C)nc2n1Cc1ccc(-c2ccccc2-c2nn[n-]n2)cc1 (protonated)
CCc1nc2c(C)cc(C)nc2n1Cc1ccc(-c2ccccc2-c2nn[n-]n2)cc1 (3D coordinates assigned)
CCc1nc2c(C)cc(C)nc2n1Cc1ccc(-c2ccccc2-c2nn[n-]n2)cc1 (optimized conformer: 138.37309099854596 kcal/mol)

>  <smiles>  (23) 
CCc1nc2c(C)cc(C)nc2n1Cc1ccc(-c2ccccc2-c2nn[nH]n2)cc1

>  <score_type>  (23) 
oracle

>  <origin>  (23) 
adg

>  <m_score__min__energy>  (23) 
-10.98

>  <m_primary>  (23) 
energy

$$$$
24:0
     RDKit          3D

 51 55  0  0  0  0  0  0  0  0999 V2000
   60.5810   27.6410   47.5670 O   0  0  0  0  0  0  0  0  0  0  0  0
   60.3880   28.8190   47.1670 C   0  0  0  0  0  0  0  0  0  0  0  0
   60.1130   29.0420   45.7750 N   0  0  0  0  0  0  0  0  0  0  0  0
   58.8960   29.5620   45.2200 C   0  0  0  0  0  0  0  0  0  0  0  0
   58.0280   28.6890   44.5570 C   0  0  0  0  0  0  0  0  0  0  0  0
   56.8400   29.1650   43.9940 C   0  0  0  0  0  0  0  0  0  0  0  0
   56.5140   30.5210   44.0850 C   0  0  0  0  0  0  0  0  0  0  0  0
   57.3800   31.4130   44.7350 C   0  0  0  0  0  0  0  0  0  0  0  0
   57.0480   32.8790   44.8260 C   0  0  0  0  0  0  0  0  0  0  0  0
   58.0310   33.5860   45.7180 C   0  0  0  0  0  0  0  0  0  0  0  0
   57.9960   33.3820   47.1080 C   0  0  0  0  0  0  0  0  0  0  0  0
   58.8870   34.0660   47.9420 C   0  0  0  0  0  0  0  0  0  0  0  0
   59.8090   34.9630   47.3970 C   0  0  0  0  0  0  0  0  0  0  0  0
   59.8410   35.1810   46.0170 C   0  0  0  0  0  0  0  0  0  0  0  0
   58.9540   34.4990   45.1790 C   0  0  0  0  0  0  0  0  0  0  0  0
   58.5810   30.9320   45.2800 C   0  0  0  0  0  0  0  0  0  0  0  0
   60.3490   29.9250   48.1520 C   0  0  0  0  0  0  0  0  0  0  0  0
   59.3440   29.9060   49.1280 C   0  0  0  0  0  0  0  0  0  0  0  0
   59.2520   30.9350   50.0750 C   0  0  0  0  0  0  0  0  0  0  0  0
   58.1680   30.9110   51.0910 C   0  0  0  0  0  0  0  0  0  0  0  0
   57.3020   31.9550   51.4090 C   0  0  0  0  0  0  0  0  0  0  0  0
   56.3750   31.6290   52.4070 C   0  0  0  0  0  0  0  0  0  0  0  0
   56.4990   30.3340   52.8850 C   0  0  0  0  0  0  0  0  0  0  0  0
   57.7640   29.5950   52.0640 S   0  0  0  0  0  0  0  0  0  0  0  0
   60.1540   31.9580   50.0440 N   0  0  0  0  0  0  0  0  0  0  0  0
   61.1420   32.0210   49.1040 C   0  0  0  0  0  0  0  0  0  0  0  0
   62.0290   33.1110   49.0910 C   0  0  0  0  0  0  0  0  0  0  0  0
   63.0180   33.2060   48.1110 C   0  0  0  0  0  0  0  0  0  0  0  0
   63.1280   32.2200   47.1320 C   0  0  0  0  0  0  0  0  0  0  0  0
   62.2570   31.1280   47.1300 C   0  0  0  0  0  0  0  0  0  0  0  0
   61.2620   31.0040   48.1250 C   0  0  0  0  0  0  0  0  0  0  0  0
   58.2813   27.6215   44.4779 H   0  0  0  0  0  0  0  0  0  0  0  0
   56.1604   28.4706   43.4783 H   0  0  0  0  0  0  0  0  0  0  0  0
   55.5755   30.8900   43.6456 H   0  0  0  0  0  0  0  0  0  0  0  0
   57.0876   33.3225   43.8201 H   0  0  0  0  0  0  0  0  0  0  0  0
   56.0388   32.9902   45.2493 H   0  0  0  0  0  0  0  0  0  0  0  0
   57.2660   32.6826   47.5415 H   0  0  0  0  0  0  0  0  0  0  0  0
   58.8616   33.8972   49.0287 H   0  0  0  0  0  0  0  0  0  0  0  0
   60.5101   35.4980   48.0544 H   0  0  0  0  0  0  0  0  0  0  0  0
   60.5651   35.8902   45.5896 H   0  0  0  0  0  0  0  0  0  0  0  0
   58.9784   34.6774   44.0938 H   0  0  0  0  0  0  0  0  0  0  0  0
   59.2818   31.6322   45.7581 H   0  0  0  0  0  0  0  0  0  0  0  0
   58.6215   29.0769   49.1512 H   0  0  0  0  0  0  0  0  0  0  0  0
   57.3424   32.9409   50.9228 H   0  0  0  0  0  0  0  0  0  0  0  0
   55.6180   32.3359   52.7775 H   0  0  0  0  0  0  0  0  0  0  0  0
   55.8775   29.8711   53.6657 H   0  0  0  0  0  0  0  0  0  0  0  0
   60.0750   32.7360   50.7360 H   0  0  0  0  0  0  0  0  0  0  0  0
   61.9431   33.8945   49.8584 H   0  0  0  0  0  0  0  0  0  0  0  0
   63.7114   34.0599   48.1112 H   0  0  0  0  0  0  0  0  0  0  0  0
   63.9045   32.3022   46.3572 H   0  0  0  0  0  0  0  0  0  0  0  0
   62.3465   30.3593   46.3482 H   0  0  0  0  0  0  0  0  0  0  0  0
  1  2  2  0
  2  3  1  0
  3  4  1  0
  4  5  2  0
  5  6  1  0
  6  7  2  0
  7  8  1  0
  8  9  1  0
  9 10  1  0
 10 11  2  0
 11 12  1  0
 12 13  2  0
 13 14  1  0
 14 15  2  0
  8 16  2  0
  2 17  1  0
 17 18  2  0
 18 19  1  0
 19 20  1  0
 20 21  2  0
 21 22  1  0
 22 23  2  0
 23 24  1  0
 19 25  2  0
 25 26  1  0
 26 27  2  0
 27 28  1  0
 28 29  2  0
 29 30  1  0
 30 31  2  0
 16  4  1  0
 31 17  1  0
 15 10  1  0
 24 20  1  0
 31 26  1  0
  5 32  1  0
  6 33  1  0
  7 34  1  0
  9 35  1  0
  9 36  1  0
 11 37  1  0
 12 38  1  0
 13 39  1  0
 14 40  1  0
 15 41  1  0
 16 42  1  0
 18 43  1  0
 21 44  1  0
 22 45  1  0
 23 46  1  0
 25 47  1  0
 27 48  1  0
 28 49  1  0
 29 50  1  0
 30 51  1  0
M  CHG  2   3  -1  25   1
M  END
>  <UniqueID>  (24) 
23

>  <SMILES>  (24) 
O=C([N-]c1cccc(Cc2ccccc2)c1)c1cc(-c2cccs2)[nH+]c2ccccc12

>  <Energy>  (24) 
96.73710212317037

>  <Genealogy>  (24) 
O=C([N-]c1cccc(Cc2ccccc2)c1)c1cc(-c2cccs2)[nH+]c2ccccc12 (protonated)
O=C([N-]c1cccc(Cc2ccccc2)c1)c1cc(-c2cccs2)[nH+]c2ccccc12 (3D coordinates assigned)
O=C([N-]c1cccc(Cc2ccccc2)c1)c1cc(-c2cccs2)[nH+]c2ccccc12 (optimized conformer: 96.73710212317037 kcal/mol)

>  <smiles>  (24) 
O=C(Nc1cccc(Cc2ccccc2)c1)c1cc(-c2cccs2)nc2ccccc12

>  <score_type>  (24) 
oracle

>  <origin>  (24) 
adg

>  <m_score__min__energy>  (24) 
-9.6600000000000001

>  <m_primary>  (24) 
energy

$$$$
25:0
     RDKit          3D

 51 52  0  0  1  0  0  0  0  0999 V2000
   59.3130   32.9810   49.2650 C   0  0  0  0  0  0  0  0  0  0  0  0
   59.5050   33.8660   48.0920 C   0  0  0  0  0  0  0  0  0  0  0  0
   59.6720   34.5920   47.1400 C   0  0  0  0  0  0  0  0  0  0  0  0
   59.8960   35.4850   45.9940 C   0  0  0  0  0  0  0  0  0  0  0  0
   58.9010   35.3090   45.0170 O   0  0  0  0  0  0  0  0  0  0  0  0
   58.2850   34.0880   44.7940 C   0  0  0  0  0  0  0  0  0  0  0  0
   57.2320   33.6040   45.5180 C   0  0  0  0  0  0  0  0  0  0  0  0
   56.6980   32.3690   45.2030 C   0  0  0  0  0  0  0  0  0  0  0  0
   57.1810   31.5850   44.1760 C   0  0  0  0  0  0  0  0  0  0  0  0
   56.4640   30.0070   43.8080 S   0  0  0  0  0  0  0  0  0  0  0  0
   55.9420   30.0630   42.4240 O   0  0  0  0  0  0  0  0  0  0  0  0
   55.3950   29.8270   44.8580 O   0  0  0  0  0  0  0  0  0  0  0  0
   57.7820   28.8250   43.9740 C   0  0  0  0  0  0  0  0  0  0  0  0
   58.0860   28.4790   45.4220 C   0  0  2  0  0  0  0  0  0  0  0  0
   57.1580   27.4380   45.9600 C   0  0  0  0  0  0  0  0  0  0  0  0
   57.7140   26.6000   46.9480 O   0  0  0  0  0  0  0  0  0  0  0  0
   55.9680   27.2410   45.6300 N   0  0  0  0  0  0  0  0  0  0  0  0
   55.1480   26.3710   46.2700 O   0  0  0  0  0  0  0  0  0  0  0  0
   57.8460   29.6790   46.2530 C   0  0  0  0  0  0  0  0  0  0  0  0
   58.6210   30.1220   47.2140 C   0  0  0  0  0  0  0  0  0  0  0  0
   59.8110   29.4020   47.5090 N   0  0  0  0  0  0  0  0  0  0  0  0
   60.4640   29.3840   49.0990 S   0  0  0  0  0  0  0  0  0  0  0  0
   59.1450   29.7470   50.2310 C   0  0  0  0  0  0  0  0  0  0  0  0
   61.5050   30.4670   49.2380 O   0  0  0  0  0  0  0  0  0  0  0  0
   61.0160   28.0450   49.4640 O   0  0  0  0  0  0  0  0  0  0  0  0
   60.4230   28.6990   46.3900 C   0  0  0  0  0  0  0  0  0  0  0  0
   59.4670   27.9060   45.5730 C   0  0  0  0  0  0  0  0  0  0  0  0
   58.2400   32.0740   43.4500 C   0  0  0  0  0  0  0  0  0  0  0  0
   58.7830   33.3180   43.7610 C   0  0  0  0  0  0  0  0  0  0  0  0
   59.4395   33.5643   50.1890 H   0  0  0  0  0  0  0  0  0  0  0  0
   58.3007   32.5513   49.2384 H   0  0  0  0  0  0  0  0  0  0  0  0
   60.0562   32.1705   49.2384 H   0  0  0  0  0  0  0  0  0  0  0  0
   59.8781   36.5284   46.3420 H   0  0  0  0  0  0  0  0  0  0  0  0
   60.8722   35.2447   45.5476 H   0  0  0  0  0  0  0  0  0  0  0  0
   56.8121   34.1937   46.3462 H   0  0  0  0  0  0  0  0  0  0  0  0
   55.8511   31.9949   45.7970 H   0  0  0  0  0  0  0  0  0  0  0  0
   57.4960   27.9037   43.4454 H   0  0  0  0  0  0  0  0  0  0  0  0
   58.6881   29.2780   43.5453 H   0  0  0  0  0  0  0  0  0  0  0  0
   57.1770   25.8570   47.3880 H   0  0  0  0  0  0  0  0  0  0  0  0
   55.4520   25.9510   47.1340 H   0  0  0  0  0  0  0  0  0  0  0  0
   56.9315   30.2540   46.0455 H   0  0  0  0  0  0  0  0  0  0  0  0
   58.3567   31.0286   47.7781 H   0  0  0  0  0  0  0  0  0  0  0  0
   59.5101   29.6465   51.2638 H   0  0  0  0  0  0  0  0  0  0  0  0
   58.7922   30.7756   50.0652 H   0  0  0  0  0  0  0  0  0  0  0  0
   58.3156   29.0437   50.0652 H   0  0  0  0  0  0  0  0  0  0  0  0
   60.9020   29.4424   45.7359 H   0  0  0  0  0  0  0  0  0  0  0  0
   61.1406   27.9845   46.8196 H   0  0  0  0  0  0  0  0  0  0  0  0
   59.8966   27.7969   44.5662 H   0  0  0  0  0  0  0  0  0  0  0  0
   59.3338   26.9581   46.1149 H   0  0  0  0  0  0  0  0  0  0  0  0
   58.6591   31.4825   42.6227 H   0  0  0  0  0  0  0  0  0  0  0  0
   59.6295   33.6969   43.1694 H   0  0  0  0  0  0  0  0  0  0  0  0
  1  2  1  0
  2  3  3  0
  3  4  1  0
  4  5  1  0
  5  6  1  0
  6  7  2  0
  7  8  1  0
  8  9  2  0
  9 10  1  0
 10 11  2  0
 10 12  2  0
 10 13  1  0
 14 13  1  6
 14 15  1  0
 15 16  1  0
 15 17  2  0
 17 18  1  0
 14 19  1  0
 19 20  2  0
 20 21  1  0
 21 22  1  0
 22 23  1  0
 22 24  2  0
 22 25  2  0
 21 26  1  0
 26 27  1  0
  9 28  1  0
 28 29  2  0
 29  6  1  0
 27 14  1  0
  1 30  1  0
  1 31  1  0
  1 32  1  0
  4 33  1  0
  4 34  1  0
  7 35  1  0
  8 36  1  0
 13 37  1  0
 13 38  1  0
 16 39  1  0
 18 40  1  0
 19 41  1  0
 20 42  1  0
 23 43  1  0
 23 44  1  0
 23 45  1  0
 26 46  1  0
 26 47  1  0
 27 48  1  0
 27 49  1  0
 28 50  1  0
 29 51  1  0
M  END
>  <smiles>  (25) 
CC#CCOc1ccc(S(=O)(=O)CC2(C(O)=NO)C=CN(S(C)(=O)=O)CC2)cc1

>  <score_type>  (25) 
oracle

>  <origin>  (25) 
adg

>  <m_score__min__energy>  (25) 
-10.07

>  <m_primary>  (25) 
energy

$$$$
26:0
     RDKit          3D

 62 65  0  0  0  0  0  0  0  0999 V2000
   55.6190   25.1760   45.7030 C   0  0  0  0  0  0  0  0  0  0  0  0
   55.5990   26.5860   45.9040 O   0  0  0  0  0  0  0  0  0  0  0  0
   56.7440   27.3940   45.9950 C   0  0  0  0  0  0  0  0  0  0  0  0
   57.9380   26.9300   46.5800 C   0  0  0  0  0  0  0  0  0  0  0  0
   59.0560   27.7640   46.6580 C   0  0  0  0  0  0  0  0  0  0  0  0
   59.0040   29.0680   46.1510 C   0  0  0  0  0  0  0  0  0  0  0  0
   60.2070   29.9660   46.2670 C   0  0  0  0  0  0  0  0  0  0  0  0
   60.8720   29.7700   47.5710 N   0  0  0  0  0  0  0  0  0  0  0  0
   61.8920   30.8220   47.7990 C   0  0  0  0  0  0  0  0  0  0  0  0
   62.2320   30.9690   49.2900 C   0  0  0  0  0  0  0  0  0  0  0  0
   61.0380   31.3230   50.0930 N   0  0  0  0  0  0  0  0  0  0  0  0
   61.0380   32.7040   50.6240 C   0  0  0  0  0  0  0  0  0  0  0  0
   61.7260   33.7370   49.7050 C   0  0  0  0  0  0  0  0  0  0  0  0
   61.0830   33.7400   48.3710 N   0  0  0  0  0  0  0  0  0  0  0  0
   61.8290   33.7910   47.2110 C   0  0  0  0  0  0  0  0  0  0  0  0
   63.3410   33.7960   47.2370 C   0  0  0  0  0  0  0  0  0  0  0  0
   61.2040   33.8080   45.9950 N   0  0  0  0  0  0  0  0  0  0  0  0
   59.8490   33.7960   45.8910 C   0  0  0  0  0  0  0  0  0  0  0  0
   59.2310   33.8200   44.6280 C   0  0  0  0  0  0  0  0  0  0  0  0
   57.8370   33.8210   44.5260 C   0  0  0  0  0  0  0  0  0  0  0  0
   57.0510   33.7920   45.6800 C   0  0  0  0  0  0  0  0  0  0  0  0
   57.6550   33.7610   46.9420 C   0  0  0  0  0  0  0  0  0  0  0  0
   59.0600   33.7650   47.0540 C   0  0  0  0  0  0  0  0  0  0  0  0
   59.7080   33.7420   48.3000 C   0  0  0  0  0  0  0  0  0  0  0  0
   59.0170   33.7250   49.3590 O   0  0  0  0  0  0  0  0  0  0  0  0
   59.7450   30.9260   49.4930 C   0  0  0  0  0  0  0  0  0  0  0  0
   59.8940   29.6330   48.6830 C   0  0  0  0  0  0  0  0  0  0  0  0
   57.8190   29.5330   45.5610 C   0  0  0  0  0  0  0  0  0  0  0  0
   56.6840   28.7010   45.4850 C   0  0  0  0  0  0  0  0  0  0  0  0
   55.4790   29.1400   44.9160 O   0  0  0  0  0  0  0  0  0  0  0  0
   55.3710   29.7730   43.6440 C   0  0  0  0  0  0  0  0  0  0  0  0
   55.6262   24.6667   46.6780 H   0  0  0  0  0  0  0  0  0  0  0  0
   54.7251   24.8735   45.1379 H   0  0  0  0  0  0  0  0  0  0  0  0
   56.5212   24.8989   45.1379 H   0  0  0  0  0  0  0  0  0  0  0  0
   57.9906   25.9057   46.9775 H   0  0  0  0  0  0  0  0  0  0  0  0
   59.9828   27.3939   47.1206 H   0  0  0  0  0  0  0  0  0  0  0  0
   60.9155   29.7289   45.4596 H   0  0  0  0  0  0  0  0  0  0  0  0
   59.8796   31.0131   46.1873 H   0  0  0  0  0  0  0  0  0  0  0  0
   62.8070   30.5568   47.2490 H   0  0  0  0  0  0  0  0  0  0  0  0
   61.4829   31.7795   47.4442 H   0  0  0  0  0  0  0  0  0  0  0  0
   62.6393   30.0158   49.6583 H   0  0  0  0  0  0  0  0  0  0  0  0
   62.9681   31.7796   49.3951 H   0  0  0  0  0  0  0  0  0  0  0  0
   59.9937   33.0162   50.7725 H   0  0  0  0  0  0  0  0  0  0  0  0
   61.6142   32.6819   51.5607 H   0  0  0  0  0  0  0  0  0  0  0  0
   61.6386   34.7377   50.1532 H   0  0  0  0  0  0  0  0  0  0  0  0
   62.7868   33.4684   49.5925 H   0  0  0  0  0  0  0  0  0  0  0  0
   63.6898   33.7972   48.2802 H   0  0  0  0  0  0  0  0  0  0  0  0
   63.7195   32.8991   46.7248 H   0  0  0  0  0  0  0  0  0  0  0  0
   63.7136   34.6954   46.7248 H   0  0  0  0  0  0  0  0  0  0  0  0
   61.7780   33.8330   45.1200 H   0  0  0  0  0  0  0  0  0  0  0  0
   59.8470   33.8381   43.7169 H   0  0  0  0  0  0  0  0  0  0  0  0
   57.3586   33.8447   43.5358 H   0  0  0  0  0  0  0  0  0  0  0  0
   55.9542   33.7935   45.5968 H   0  0  0  0  0  0  0  0  0  0  0  0
   57.0321   33.7335   47.8482 H   0  0  0  0  0  0  0  0  0  0  0  0
   59.0094   30.7662   50.2950 H   0  0  0  0  0  0  0  0  0  0  0  0
   59.4088   31.7274   48.8186 H   0  0  0  0  0  0  0  0  0  0  0  0
   60.2340   28.8319   49.3558 H   0  0  0  0  0  0  0  0  0  0  0  0
   58.9142   29.3994   48.2410 H   0  0  0  0  0  0  0  0  0  0  0  0
   57.7755   30.5543   45.1548 H   0  0  0  0  0  0  0  0  0  0  0  0
   55.1875   30.8485   43.7841 H   0  0  0  0  0  0  0  0  0  0  0  0
   56.3064   29.6306   43.0830 H   0  0  0  0  0  0  0  0  0  0  0  0
   54.5357   29.3285   43.0830 H   0  0  0  0  0  0  0  0  0  0  0  0
  1  2  1  0
  2  3  1  0
  3  4  2  0
  4  5  1  0
  5  6  2  0
  6  7  1  0
  7  8  1  0
  8  9  1  0
  9 10  1  0
 10 11  1  0
 11 12  1  0
 12 13  1  0
 13 14  1  0
 14 15  1  0
 15 16  1  0
 15 17  2  0
 17 18  1  0
 18 19  2  0
 19 20  1  0
 20 21  2  0
 21 22  1  0
 22 23  2  0
 23 24  1  0
 24 25  2  0
 11 26  1  0
 26 27  1  0
  6 28  1  0
 28 29  2  0
 29 30  1  0
 30 31  1  0
 29  3  1  0
 27  8  1  0
 24 14  1  0
 23 18  1  0
  1 32  1  0
  1 33  1  0
  1 34  1  0
  4 35  1  0
  5 36  1  0
  7 37  1  0
  7 38  1  0
  9 39  1  0
  9 40  1  0
 10 41  1  0
 10 42  1  0
 12 43  1  0
 12 44  1  0
 13 45  1  0
 13 46  1  0
 16 47  1  0
 16 48  1  0
 16 49  1  0
 17 50  1  0
 19 51  1  0
 20 52  1  0
 21 53  1  0
 22 54  1  0
 26 55  1  0
 26 56  1  0
 27 57  1  0
 27 58  1  0
 28 59  1  0
 31 60  1  0
 31 61  1  0
 31 62  1  0
M  CHG  1  17   1
M  END
>  <UniqueID>  (26) 
24

>  <SMILES>  (26) 
COc1ccc(CN2CCN(CCn3c(C)[nH+]c4ccccc4c3=O)CC2)cc1OC

>  <Energy>  (26) 
86.62896701282718

>  <Genealogy>  (26) 
COc1ccc(CN2CCN(CCn3c(C)[nH+]c4ccccc4c3=O)CC2)cc1OC (protonated)
COc1ccc(CN2CCN(CCn3c(C)[nH+]c4ccccc4c3=O)CC2)cc1OC (3D coordinates assigned)
COc1ccc(CN2CCN(CCn3c(C)[nH+]c4ccccc4c3=O)CC2)cc1OC (nonaromatic ring conformer: 86.62896701282718 kcal/mol)

>  <smiles>  (26) 
COc1ccc(CN2CCN(CCn3c(C)nc4ccccc4c3=O)CC2)cc1OC

>  <score_type>  (26) 
oracle

>  <origin>  (26) 
adg

>  <m_score__min__energy>  (26) 
-7.7699999999999996

>  <m_primary>  (26) 
energy

$$$$
27:0
     RDKit          3D

 61 64  0  0  0  0  0  0  0  0999 V2000
   66.9750   31.0040   50.9040 C   0  0  0  0  0  0  0  0  0  0  0  0
   66.3640   32.2870   50.5090 N   0  0  0  0  0  0  0  0  0  0  0  0
   67.3480   33.3800   50.5810 C   0  0  0  0  0  0  0  0  0  0  0  0
   65.1120   32.5840   51.2490 C   0  0  0  0  0  0  0  0  0  0  0  0
   64.3900   33.8880   50.8380 C   0  0  0  0  0  0  0  0  0  0  0  0
   63.3990   33.6690   49.7800 N   0  0  0  0  0  0  0  0  0  0  0  0
   62.3230   34.5970   49.4680 C   0  0  0  0  0  0  0  0  0  0  0  0
   61.8180   34.2160   48.0530 C   0  0  2  0  0  0  0  0  0  0  0  0
   60.3700   33.9510   48.0110 N   0  0  0  0  0  0  0  0  0  0  0  0
   59.5330   34.6100   47.0760 C   0  0  0  0  0  0  0  0  0  0  0  0
   59.7590   35.7710   46.6390 O   0  0  0  0  0  0  0  0  0  0  0  0
   58.4440   33.8200   46.6520 N   0  0  0  0  0  0  0  0  0  0  0  0
   57.5170   34.1470   45.5710 C   0  0  0  0  0  0  0  0  0  0  0  0
   57.4480   33.0150   44.5820 C   0  0  0  0  0  0  0  0  0  0  0  0
   58.1760   33.0740   43.3800 C   0  0  0  0  0  0  0  0  0  0  0  0
   58.1310   32.0080   42.4770 C   0  0  0  0  0  0  0  0  0  0  0  0
   57.3690   30.8740   42.7690 C   0  0  0  0  0  0  0  0  0  0  0  0
   56.6480   30.8050   43.9640 C   0  0  0  0  0  0  0  0  0  0  0  0
   56.6900   31.8680   44.8710 C   0  0  0  0  0  0  0  0  0  0  0  0
   58.5670   32.5130   47.2810 C   0  0  0  0  0  0  0  0  0  0  0  0
   59.7390   32.6480   48.2910 C   0  0  2  0  0  0  0  0  0  0  0  0
   59.2180   32.5780   49.7130 C   0  0  0  0  0  0  0  0  0  0  0  0
   58.5290   31.4460   50.1910 C   0  0  0  0  0  0  0  0  0  0  0  0
   58.0940   31.3930   51.5180 C   0  0  0  0  0  0  0  0  0  0  0  0
   58.3570   32.4560   52.3860 C   0  0  0  0  0  0  0  0  0  0  0  0
   59.0660   33.5700   51.9300 C   0  0  0  0  0  0  0  0  0  0  0  0
   59.5040   33.6270   50.6050 C   0  0  0  0  0  0  0  0  0  0  0  0
   62.6250   32.9850   47.5930 C   0  0  0  0  0  0  0  0  0  0  0  0
   63.5830   32.7770   48.6950 C   0  0  0  0  0  0  0  0  0  0  0  0
   64.4780   31.8920   48.6750 O   0  0  0  0  0  0  0  0  0  0  0  0
   67.0075   30.9358   52.0014 H   0  0  0  0  0  0  0  0  0  0  0  0
   66.3757   30.1735   50.5026 H   0  0  0  0  0  0  0  0  0  0  0  0
   67.9975   30.9458   50.5026 H   0  0  0  0  0  0  0  0  0  0  0  0
   66.0940   32.1940   49.5010 H   0  0  0  0  0  0  0  0  0  0  0  0
   67.5591   33.6145   51.6348 H   0  0  0  0  0  0  0  0  0  0  0  0
   68.2775   33.0701   50.0810 H   0  0  0  0  0  0  0  0  0  0  0  0
   66.9425   34.2720   50.0810 H   0  0  0  0  0  0  0  0  0  0  0  0
   64.4168   31.7467   51.0889 H   0  0  0  0  0  0  0  0  0  0  0  0
   65.4071   32.7202   52.2999 H   0  0  0  0  0  0  0  0  0  0  0  0
   63.8794   34.3020   51.7200 H   0  0  0  0  0  0  0  0  0  0  0  0
   65.1486   34.5826   50.4481 H   0  0  0  0  0  0  0  0  0  0  0  0
   61.5098   34.4983   50.2022 H   0  0  0  0  0  0  0  0  0  0  0  0
   62.6716   35.6398   49.5012 H   0  0  0  0  0  0  0  0  0  0  0  0
   61.9737   35.0662   47.3726 H   0  0  0  0  0  0  0  0  0  0  0  0
   56.5160   34.3226   45.9920 H   0  0  0  0  0  0  0  0  0  0  0  0
   57.8729   35.0513   45.0556 H   0  0  0  0  0  0  0  0  0  0  0  0
   58.7829   33.9621   43.1498 H   0  0  0  0  0  0  0  0  0  0  0  0
   58.6964   32.0620   41.5350 H   0  0  0  0  0  0  0  0  0  0  0  0
   57.3366   30.0353   42.0580 H   0  0  0  0  0  0  0  0  0  0  0  0
   56.0463   29.9127   44.1914 H   0  0  0  0  0  0  0  0  0  0  0  0
   56.1275   31.8061   45.8143 H   0  0  0  0  0  0  0  0  0  0  0  0
   57.6364   32.2492   47.8048 H   0  0  0  0  0  0  0  0  0  0  0  0
   58.7542   31.7201   46.5419 H   0  0  0  0  0  0  0  0  0  0  0  0
   60.4683   31.8314   48.1847 H   0  0  0  0  0  0  0  0  0  0  0  0
   58.3324   30.5997   49.5164 H   0  0  0  0  0  0  0  0  0  0  0  0
   57.5432   30.5123   51.8801 H   0  0  0  0  0  0  0  0  0  0  0  0
   58.0060   32.4157   53.4277 H   0  0  0  0  0  0  0  0  0  0  0  0
   59.2796   34.4034   52.6154 H   0  0  0  0  0  0  0  0  0  0  0  0
   60.0770   34.4989   50.2565 H   0  0  0  0  0  0  0  0  0  0  0  0
   61.9712   32.1092   47.4685 H   0  0  0  0  0  0  0  0  0  0  0  0
   63.1143   33.1303   46.6186 H   0  0  0  0  0  0  0  0  0  0  0  0
  1  2  1  0
  2  3  1  0
  2  4  1  0
  4  5  1  0
  5  6  1  0
  6  7  1  0
  7  8  1  0
  8  9  1  0
  9 10  1  0
 10 11  2  0
 10 12  1  0
 12 13  1  0
 13 14  1  0
 14 15  2  0
 15 16  1  0
 16 17  2  0
 17 18  1  0
 18 19  2  0
 12 20  1  0
 20 21  1  0
 21 22  1  0
 22 23  2  0
 23 24  1  0
 24 25  2  0
 25 26  1  0
 26 27  2  0
  8 28  1  0
 28 29  1  0
 29 30  2  0
 29  6  1  0
 21  9  1  0
 27 22  1  0
 19 14  1  0
  1 31  1  0
  1 32  1  0
  1 33  1  0
  2 34  1  0
  3 35  1  0
  3 36  1  0
  3 37  1  0
  4 38  1  0
  4 39  1  0
  5 40  1  0
  5 41  1  0
  7 42  1  0
  7 43  1  0
  8 44  1  6
 13 45  1  0
 13 46  1  0
 15 47  1  0
 16 48  1  0
 17 49  1  0
 18 50  1  0
 19 51  1  0
 20 52  1  0
 20 53  1  0
 21 54  1  6
 23 55  1  0
 24 56  1  0
 25 57  1  0
 26 58  1  0
 27 59  1  0
 28 60  1  0
 28 61  1  0
M  CHG  1   2   1
M  END
>  <UniqueID>  (27) 
25

>  <SMILES>  (27) 
C[NH+](C)CCN1C[C@H](N2C(=O)N(Cc3ccccc3)C[C@@H]2c2ccccc2)CC1=O

>  <Energy>  (27) 
82.88130988814655

>  <Genealogy>  (27) 
C[NH+](C)CCN1CC(N2C(=O)N(Cc3ccccc3)CC2c2ccccc2)CC1=O (protonated)
C[NH+](C)CCN1C[C@H](N2C(=O)N(Cc3ccccc3)C[C@@H]2c2ccccc2)CC1=O (chirality)
C[NH+](C)CCN1C[C@H](N2C(=O)N(Cc3ccccc3)C[C@@H]2c2ccccc2)CC1=O (3D coordinates assigned)
C[NH+](C)CCN1C[C@H](N2C(=O)N(Cc3ccccc3)C[C@@H]2c2ccccc2)CC1=O (nonaromatic ring conformer: 82.88130988814655 kcal/mol)

>  <smiles>  (27) 
CN(C)CCN1CC(N2C(=O)N(Cc3ccccc3)CC2c2ccccc2)CC1=O

>  <score_type>  (27) 
oracle

>  <origin>  (27) 
adg

>  <m_score__min__energy>  (27) 
-6.6299999999999999

>  <m_primary>  (27) 
energy

$$$$
28:0
     RDKit          3D

 61 63  0  0  0  0  0  0  0  0999 V2000
   55.2252   25.7790   46.3147 H   0  0  0  0  0  0  0  0  0  0  0  0
   56.0950   26.4120   46.0850 C   0  0  0  0  0  0  0  0  0  0  0  0
   55.9080   27.6690   45.6110 N   0  0  0  0  0  0  0  0  0  0  0  0
   56.9510   28.4900   45.3350 C   0  0  0  0  0  0  0  0  0  0  0  0
   56.7030   29.7780   44.8540 C   0  0  0  0  0  0  0  0  0  0  0  0
   55.6664   30.1088   44.6926 H   0  0  0  0  0  0  0  0  0  0  0  0
   57.7620   30.6530   44.5750 C   0  0  0  0  0  0  0  0  0  0  0  0
   57.4680   31.9690   44.0710 N   0  0  0  0  0  0  0  0  0  0  0  0
   57.6280   32.1600   43.0550 H   0  0  0  0  0  0  0  0  0  0  0  0
   56.9940   33.0850   44.8880 C   0  0  0  0  0  0  0  0  0  0  0  0
   56.8150   33.9555   44.2397 H   0  0  0  0  0  0  0  0  0  0  0  0
   56.0634   32.7826   45.3904 H   0  0  0  0  0  0  0  0  0  0  0  0
   58.0100   33.4520   45.9370 C   0  0  0  0  0  0  0  0  0  0  0  0
   59.1210   34.2390   45.6020 C   0  0  0  0  0  0  0  0  0  0  0  0
   59.2386   34.6114   44.5736 H   0  0  0  0  0  0  0  0  0  0  0  0
   60.0790   34.5520   46.5690 C   0  0  0  0  0  0  0  0  0  0  0  0
   60.9485   35.1681   46.2961 H   0  0  0  0  0  0  0  0  0  0  0  0
   59.9420   34.0890   47.8800 C   0  0  0  0  0  0  0  0  0  0  0  0
   60.9600   34.3930   48.7970 O   0  0  0  0  0  0  0  0  0  0  0  0
   61.0620   33.8720   50.1220 C   0  0  0  0  0  0  0  0  0  0  0  0
   61.5493   34.6221   50.7623 H   0  0  0  0  0  0  0  0  0  0  0  0
   60.0461   33.6457   50.4779 H   0  0  0  0  0  0  0  0  0  0  0  0
   61.8850   32.5680   50.1670 C   0  0  0  0  0  0  0  0  0  0  0  0
   62.8846   32.7998   50.5632 H   0  0  0  0  0  0  0  0  0  0  0  0
   61.3383   31.8603   50.8076 H   0  0  0  0  0  0  0  0  0  0  0  0
   62.0430   31.9240   48.8350 N   0  0  0  0  0  0  0  0  0  0  0  0
   61.4670   32.4380   48.1280 H   0  0  0  0  0  0  0  0  0  0  0  0
   63.4690   31.9730   48.4120 C   0  0  0  0  0  0  0  0  0  0  0  0
   64.0939   31.5989   49.2363 H   0  0  0  0  0  0  0  0  0  0  0  0
   63.5704   31.3506   47.5107 H   0  0  0  0  0  0  0  0  0  0  0  0
   63.9310   33.3950   48.0500 C   0  0  0  0  0  0  0  0  0  0  0  0
   63.5140   34.1092   48.7753 H   0  0  0  0  0  0  0  0  0  0  0  0
   65.0299   33.4353   48.0763 H   0  0  0  0  0  0  0  0  0  0  0  0
   63.3680   33.8210   46.4100 Cl  0  0  0  0  0  0  0  0  0  0  0  0
   61.5660   30.5140   48.8800 C   0  0  0  0  0  0  0  0  0  0  0  0
   62.3480   29.8675   48.4552 H   0  0  0  0  0  0  0  0  0  0  0  0
   61.3564   30.2752   49.9331 H   0  0  0  0  0  0  0  0  0  0  0  0
   60.2570   30.2840   48.0900 C   0  0  0  0  0  0  0  0  0  0  0  0
   60.0668   31.1594   47.4517 H   0  0  0  0  0  0  0  0  0  0  0  0
   60.3765   29.3741   47.4835 H   0  0  0  0  0  0  0  0  0  0  0  0
   58.8650   30.0490   49.1800 Cl  0  0  0  0  0  0  0  0  0  0  0  0
   58.8020   33.3410   48.2290 C   0  0  0  0  0  0  0  0  0  0  0  0
   58.6635   33.0045   49.2671 H   0  0  0  0  0  0  0  0  0  0  0  0
   57.8470   33.0250   47.2620 C   0  0  0  0  0  0  0  0  0  0  0  0
   56.9604   32.4369   47.5414 H   0  0  0  0  0  0  0  0  0  0  0  0
   59.0840   30.2170   44.7940 C   0  0  0  0  0  0  0  0  0  0  0  0
   59.9227   30.8998   44.5932 H   0  0  0  0  0  0  0  0  0  0  0  0
   59.3400   28.9280   45.2630 C   0  0  0  0  0  0  0  0  0  0  0  0
   60.3781   28.6010   45.4227 H   0  0  0  0  0  0  0  0  0  0  0  0
   58.2800   28.0440   45.5330 C   0  0  0  0  0  0  0  0  0  0  0  0
   58.5020   26.7260   45.9940 C   0  0  0  0  0  0  0  0  0  0  0  0
   59.7200   26.2830   46.1270 N   0  0  0  0  0  0  0  0  0  0  0  0
   60.6920   26.7060   47.1310 C   0  0  0  0  0  0  0  0  0  0  0  0
   61.1185   27.6778   46.8418 H   0  0  0  0  0  0  0  0  0  0  0  0
   61.4961   25.9586   47.2004 H   0  0  0  0  0  0  0  0  0  0  0  0
   60.0040   26.8360   48.4790 C   0  0  0  0  0  0  0  0  0  0  0  0
   60.7423   26.6965   49.2824 H   0  0  0  0  0  0  0  0  0  0  0  0
   59.5525   27.8353   48.5654 H   0  0  0  0  0  0  0  0  0  0  0  0
   59.2190   26.0703   48.5654 H   0  0  0  0  0  0  0  0  0  0  0  0
   57.3860   25.9170   46.2830 C   0  0  0  0  0  0  0  0  0  0  0  0
   57.5310   24.8955   46.6646 H   0  0  0  0  0  0  0  0  0  0  0  0
  1  2  1  0
  2  3  1  0
  3  4  1  0
  4  5  2  0
  5  6  1  0
  5  7  1  0
  7  8  1  0
  8  9  1  0
  8 10  1  0
 10 11  1  0
 10 12  1  0
 10 13  1  0
 13 14  2  0
 14 15  1  0
 14 16  1  0
 16 17  1  0
 16 18  2  0
 18 19  1  0
 19 20  1  0
 20 21  1  0
 20 22  1  0
 20 23  1  0
 23 24  1  0
 23 25  1  0
 23 26  1  0
 26 27  1  0
 26 28  1  0
 28 29  1  0
 28 30  1  0
 28 31  1  0
 31 32  1  0
 31 33  1  0
 31 34  1  0
 26 35  1  0
 35 36  1  0
 35 37  1  0
 35 38  1  0
 38 39  1  0
 38 40  1  0
 38 41  1  0
 18 42  1  0
 42 43  1  0
 42 44  2  0
 44 45  1  0
  7 46  2  0
 46 47  1  0
 46 48  1  0
 48 49  1  0
 48 50  2  0
 50 51  1  0
 51 52  2  0
 52 53  1  0
 53 54  1  0
 53 55  1  0
 53 56  1  0
 56 57  1  0
 56 58  1  0
 56 59  1  0
 51 60  1  0
 60 61  1  0
 60  2  2  0
 50  4  1  0
 44 13  1  0
M  CHG  2   3  -1  26   1
M  END
>  <UniqueID>  (28) 
26

>  <SMILES>  (28) 
CC/N=c1\cc[n-]c2cc(NCc3ccc(OCC[NH+](CCCl)CCCl)cc3)ccc12

>  <Energy>  (28) 
66.13705577489029

>  <Genealogy>  (28) 
CCN=c1cc[n-]c2cc(NCc3ccc(OCC[NH+](CCCl)CCCl)cc3)ccc12 (protonated)
CC/N=c1\cc[n-]c2cc(NCc3ccc(OCC[NH+](CCCl)CCCl)cc3)ccc12 (cis-trans isomerization)
CC/N=c1\cc[n-]c2cc(NCc3ccc(OCC[NH+](CCCl)CCCl)cc3)ccc12 (3D coordinates assigned)
CC/N=c1\cc[n-]c2cc(NCc3ccc(OCC[NH+](CCCl)CCCl)cc3)ccc12 (optimized conformer: 66.13705577489029 kcal/mol)

>  <smiles>  (28) 
CCN=c1cc[nH]c2cc(NCc3ccc(OCCN(CCCl)CCCl)cc3)ccc12

>  <score_type>  (28) 
oracle

>  <origin>  (28) 
adg

>  <m_score__min__energy>  (28) 
-8.0199999999999996

>  <m_primary>  (28) 
energy

$$$$
29:0
     RDKit          3D

 31 32  0  0  0  0  0  0  0  0999 V2000
   64.5841   34.1145   46.9999 H   0  0  0  0  0  0  0  0  0  0  0  0
   63.7150   33.4850   46.7580 C   0  0  0  0  0  0  0  0  0  0  0  0
   63.6759   32.9461   45.7999 H   0  0  0  0  0  0  0  0  0  0  0  0
   62.7070   33.3750   47.6280 C   0  0  0  0  0  0  0  0  0  0  0  0
   62.7615   33.9204   48.5817 H   0  0  0  0  0  0  0  0  0  0  0  0
   61.5000   32.5260   47.3390 C   0  0  0  0  0  0  0  0  0  0  0  0
   61.7499   31.8010   46.5504 H   0  0  0  0  0  0  0  0  0  0  0  0
   61.2082   32.0037   48.2621 H   0  0  0  0  0  0  0  0  0  0  0  0
   60.3740   33.3530   46.8920 N   0  0  0  0  0  0  0  0  0  0  0  0
   60.4900   34.5960   46.3750 C   0  0  0  0  0  0  0  0  0  0  0  0
   61.4065   35.2043   46.3706 H   0  0  0  0  0  0  0  0  0  0  0  0
   59.2720   34.9770   45.8540 C   0  0  0  0  0  0  0  0  0  0  0  0
   59.0518   35.9398   45.3696 H   0  0  0  0  0  0  0  0  0  0  0  0
   58.3980   33.9700   46.0390 N   0  0  0  0  0  0  0  0  0  0  0  0
   57.0200   33.9280   45.5620 C   0  0  0  0  0  0  0  0  0  0  0  0
   56.3347   33.9071   46.4222 H   0  0  0  0  0  0  0  0  0  0  0  0
   56.8158   34.8203   44.9521 H   0  0  0  0  0  0  0  0  0  0  0  0
   56.8705   33.0249   44.9521 H   0  0  0  0  0  0  0  0  0  0  0  0
   59.0850   32.9890   46.6640 C   0  0  0  0  0  0  0  0  0  0  0  0
   58.4990   31.6680   46.9710 C   0  0  0  0  0  0  0  0  0  0  0  0
   57.9862   31.5217   47.9331 H   0  0  0  0  0  0  0  0  0  0  0  0
   58.5740   30.6450   46.1130 C   0  0  0  0  0  0  0  0  0  0  0  0
   59.2440   29.8070   46.3557 H   0  0  0  0  0  0  0  0  0  0  0  0
   57.8030   30.5850   44.8580 C   0  0  0  0  0  0  0  0  0  0  0  0
   56.5810   29.4690   44.5650 S   0  0  0  0  0  0  0  0  0  0  0  0
   56.2090   29.9920   43.0120 C   0  0  0  0  0  0  0  0  0  0  0  0
   55.4364   29.5656   42.3553 H   0  0  0  0  0  0  0  0  0  0  0  0
   57.0460   31.0560   42.7010 C   0  0  0  0  0  0  0  0  0  0  0  0
   57.0111   31.5870   41.7383 H   0  0  0  0  0  0  0  0  0  0  0  0
   57.9390   31.3900   43.7280 C   0  0  0  0  0  0  0  0  0  0  0  0
   58.6734   32.2053   43.6503 H   0  0  0  0  0  0  0  0  0  0  0  0
  1  2  1  0
  2  3  1  0
  2  4  2  0
  4  5  1  0
  4  6  1  0
  6  7  1  0
  6  8  1  0
  6  9  1  0
  9 10  1  0
 10 11  1  0
 10 12  2  0
 12 13  1  0
 12 14  1  0
 14 15  1  0
 15 16  1  0
 15 17  1  0
 15 18  1  0
 14 19  1  0
 19 20  1  0
 20 21  1  0
 20 22  2  0
 22 23  1  0
 22 24  1  0
 24 25  1  0
 25 26  1  0
 26 27  1  0
 26 28  2  0
 28 29  1  0
 28 30  1  0
 30 31  1  0
 19  9  2  0
 30 24  2  0
M  CHG  1   9   1
M  END
>  <UniqueID>  (29) 
27

>  <SMILES>  (29) 
C=CC[n+]1ccn(C)c1/C=C/c1cccs1

>  <Energy>  (29) 
88.79171910279054

>  <Genealogy>  (29) 
C=CC[n+]1ccn(C)c1/C=C/c1cccs1 (cis-trans isomerization)
C=CC[n+]1ccn(C)c1/C=C/c1cccs1 (3D coordinates assigned)
C=CC[n+]1ccn(C)c1/C=C/c1cccs1 (optimized conformer: 88.79171910279054 kcal/mol)

>  <smiles>  (29) 
C=CC[n+]1ccn(C)c1C=Cc1cccs1

>  <score_type>  (29) 
oracle

>  <origin>  (29) 
adg

>  <m_score__min__energy>  (29) 
-4.3300000000000001

>  <m_primary>  (29) 
energy

$$$$
30:0
     RDKit          3D

 35 36  0  0  0  0  0  0  0  0999 V2000
   63.3650   33.4940   47.1180 C   0  0  0  0  0  0  0  0  0  0  0  0
   62.1600   33.4360   47.1380 C   0  0  0  0  0  0  0  0  0  0  0  0
   60.6790   33.3650   47.1600 C   0  0  0  0  0  0  0  0  0  0  0  0
   60.1660   33.3260   45.8290 O   0  0  0  0  0  0  0  0  0  0  0  0
   59.5590   34.5400   45.4130 C   0  0  0  0  0  0  0  0  0  0  0  0
   58.3180   34.2120   44.5890 C   0  0  0  0  0  0  0  0  0  0  0  0
   57.0380   33.4080   45.6170 S   0  0  0  0  0  0  0  0  0  0  0  0
   57.3870   31.7480   45.0310 C   0  0  0  0  0  0  0  0  0  0  0  0
   56.3860   30.9950   44.5030 N   0  0  0  0  0  0  0  0  0  0  0  0
   56.6220   29.7380   44.0510 C   0  0  0  0  0  0  0  0  0  0  0  0
   57.9070   29.2040   44.1220 C   0  0  0  0  0  0  0  0  0  0  0  0
   58.9250   29.9910   44.6610 C   0  0  0  0  0  0  0  0  0  0  0  0
   58.6510   31.2470   45.1030 N   0  0  0  0  0  0  0  0  0  0  0  0
   60.0910   34.5570   47.9750 C   0  0  0  0  0  0  0  0  0  0  0  0
   59.9350   34.1890   49.4600 C   0  0  0  0  0  0  0  0  0  0  0  0
   59.0390   33.1070   49.6920 O   0  0  0  0  0  0  0  0  0  0  0  0
   58.9720   32.1680   48.6240 C   0  0  0  0  0  0  0  0  0  0  0  0
   60.2900   32.0270   47.8440 C   0  0  0  0  0  0  0  0  0  0  0  0
   64.4636   33.5469   47.0998 H   0  0  0  0  0  0  0  0  0  0  0  0
   59.2715   35.1308   46.2952 H   0  0  0  0  0  0  0  0  0  0  0  0
   60.2672   35.1232   44.8061 H   0  0  0  0  0  0  0  0  0  0  0  0
   57.9091   35.1430   44.1694 H   0  0  0  0  0  0  0  0  0  0  0  0
   58.6061   33.5189   43.7849 H   0  0  0  0  0  0  0  0  0  0  0  0
   55.8001   29.1411   43.6290 H   0  0  0  0  0  0  0  0  0  0  0  0
   58.1140   28.1856   43.7615 H   0  0  0  0  0  0  0  0  0  0  0  0
   59.9492   29.5953   44.7283 H   0  0  0  0  0  0  0  0  0  0  0  0
   59.4200   31.8280   45.5050 H   0  0  0  0  0  0  0  0  0  0  0  0
   60.7674   35.4201   47.8879 H   0  0  0  0  0  0  0  0  0  0  0  0
   59.0981   34.8014   47.5695 H   0  0  0  0  0  0  0  0  0  0  0  0
   60.9236   33.9115   49.8544 H   0  0  0  0  0  0  0  0  0  0  0  0
   59.5124   35.0696   49.9660 H   0  0  0  0  0  0  0  0  0  0  0  0
   58.7081   31.1850   49.0413 H   0  0  0  0  0  0  0  0  0  0  0  0
   58.2163   32.5386   47.9158 H   0  0  0  0  0  0  0  0  0  0  0  0
   61.0898   31.7331   48.5397 H   0  0  0  0  0  0  0  0  0  0  0  0
   60.1555   31.2620   47.0651 H   0  0  0  0  0  0  0  0  0  0  0  0
  1  2  3  0
  2  3  1  0
  3  4  1  0
  4  5  1  0
  5  6  1  0
  6  7  1  0
  7  8  1  0
  8  9  2  0
  9 10  1  0
 10 11  2  0
 11 12  1  0
 12 13  2  0
  3 14  1  0
 14 15  1  0
 15 16  1  0
 16 17  1  0
 17 18  1  0
 18  3  1  0
 13  8  1  0
  1 19  1  0
  5 20  1  0
  5 21  1  0
  6 22  1  0
  6 23  1  0
 10 24  1  0
 11 25  1  0
 12 26  1  0
 13 27  1  0
 14 28  1  0
 14 29  1  0
 15 30  1  0
 15 31  1  0
 17 32  1  0
 17 33  1  0
 18 34  1  0
 18 35  1  0
M  CHG  1  13   1
M  END
>  <UniqueID>  (30) 
28

>  <SMILES>  (30) 
C#CC1(OCCSc2nccc[nH+]2)CCOCC1

>  <Energy>  (30) 
45.35261574643277

>  <Genealogy>  (30) 
C#CC1(OCCSc2nccc[nH+]2)CCOCC1 (protonated)
C#CC1(OCCSc2nccc[nH+]2)CCOCC1 (3D coordinates assigned)
C#CC1(OCCSc2nccc[nH+]2)CCOCC1 (nonaromatic ring conformer: 45.35261574643277 kcal/mol)

>  <smiles>  (30) 
C#CC1(OCCSc2ncccn2)CCOCC1

>  <score_type>  (30) 
oracle

>  <origin>  (30) 
adg

>  <m_score__min__energy>  (30) 
-5.0499999999999998

>  <m_primary>  (30) 
energy

$$$$
31:0
     RDKit          3D

 54 57  0  0  0  0  0  0  0  0999 V2000
   56.9750   34.6060   44.8130 C   0  0  0  0  0  0  0  0  0  0  0  0
   58.0860   34.1970   45.0430 C   0  0  0  0  0  0  0  0  0  0  0  0
   59.4390   33.6970   45.3170 C   0  0  0  0  0  0  0  0  0  0  0  0
   59.4050   32.7350   46.4270 N   0  0  0  0  0  0  0  0  0  0  0  0
   59.5820   33.2020   47.8060 C   0  0  0  0  0  0  0  0  0  0  0  0
   61.0330   33.1210   48.1900 C   0  0  0  0  0  0  0  0  0  0  0  0
   61.9980   33.8040   47.4340 C   0  0  0  0  0  0  0  0  0  0  0  0
   63.3540   33.6970   47.7540 C   0  0  0  0  0  0  0  0  0  0  0  0
   63.7660   32.9010   48.8330 C   0  0  0  0  0  0  0  0  0  0  0  0
   65.0880   32.7940   49.1500 N   0  0  0  0  0  0  0  0  0  0  0  0
   65.4940   32.0320   50.2040 C   0  0  0  0  0  0  0  0  0  0  0  0
   66.9490   31.9020   50.5240 C   0  0  0  0  0  0  0  0  0  0  0  0
   64.5800   31.3470   50.9390 N   0  0  0  0  0  0  0  0  0  0  0  0
   63.2520   31.4140   50.6650 C   0  0  0  0  0  0  0  0  0  0  0  0
   62.4420   30.7660   51.3790 O   0  0  0  0  0  0  0  0  0  0  0  0
   62.8020   32.2030   49.5940 C   0  0  0  0  0  0  0  0  0  0  0  0
   61.4400   32.3110   49.2610 C   0  0  0  0  0  0  0  0  0  0  0  0
   59.0520   31.3610   46.1830 C   0  0  0  0  0  0  0  0  0  0  0  0
   59.9840   30.3390   46.4000 C   0  0  0  0  0  0  0  0  0  0  0  0
   59.6450   29.0070   46.1520 C   0  0  0  0  0  0  0  0  0  0  0  0
   60.5650   28.0380   46.3940 F   0  0  0  0  0  0  0  0  0  0  0  0
   58.3630   28.6760   45.6790 C   0  0  0  0  0  0  0  0  0  0  0  0
   58.0080   27.2580   45.4370 C   0  0  0  0  0  0  0  0  0  0  0  0
   57.8120   26.3800   46.5190 C   0  0  0  0  0  0  0  0  0  0  0  0
   57.4840   25.0400   46.2900 C   0  0  0  0  0  0  0  0  0  0  0  0
   57.3520   24.5640   44.9820 C   0  0  0  0  0  0  0  0  0  0  0  0
   57.5460   25.4290   43.9010 C   0  0  0  0  0  0  0  0  0  0  0  0
   57.8730   26.7710   44.1260 C   0  0  0  0  0  0  0  0  0  0  0  0
   57.4200   29.7010   45.4450 C   0  0  0  0  0  0  0  0  0  0  0  0
   56.1530   29.3590   44.9400 O   0  0  0  0  0  0  0  0  0  0  0  0
   55.6390   29.7900   43.6860 C   0  0  0  0  0  0  0  0  0  0  0  0
   57.7750   31.0390   45.7070 C   0  0  0  0  0  0  0  0  0  0  0  0
   55.9617   34.9790   44.6032 H   0  0  0  0  0  0  0  0  0  0  0  0
   59.8331   33.2013   44.4176 H   0  0  0  0  0  0  0  0  0  0  0  0
   60.0871   34.5422   45.5920 H   0  0  0  0  0  0  0  0  0  0  0  0
   59.2413   34.2450   47.8847 H   0  0  0  0  0  0  0  0  0  0  0  0
   58.9917   32.5666   48.4827 H   0  0  0  0  0  0  0  0  0  0  0  0
   61.6849   34.4278   46.5838 H   0  0  0  0  0  0  0  0  0  0  0  0
   64.1018   34.2395   47.1570 H   0  0  0  0  0  0  0  0  0  0  0  0
   65.8030   33.3040   48.5810 H   0  0  0  0  0  0  0  0  0  0  0  0
   67.0847   31.8899   51.6155 H   0  0  0  0  0  0  0  0  0  0  0  0
   67.3363   30.9657   50.0959 H   0  0  0  0  0  0  0  0  0  0  0  0
   67.4962   32.7548   50.0959 H   0  0  0  0  0  0  0  0  0  0  0  0
   60.6892   31.7571   49.8437 H   0  0  0  0  0  0  0  0  0  0  0  0
   60.9904   30.5869   46.7684 H   0  0  0  0  0  0  0  0  0  0  0  0
   57.9173   26.7494   47.5498 H   0  0  0  0  0  0  0  0  0  0  0  0
   57.3296   24.3594   47.1403 H   0  0  0  0  0  0  0  0  0  0  0  0
   57.0956   23.5093   44.8036 H   0  0  0  0  0  0  0  0  0  0  0  0
   57.4415   25.0542   42.8721 H   0  0  0  0  0  0  0  0  0  0  0  0
   58.0251   27.4478   43.2723 H   0  0  0  0  0  0  0  0  0  0  0  0
   54.8057   30.4887   43.8519 H   0  0  0  0  0  0  0  0  0  0  0  0
   56.4339   30.2956   43.1181 H   0  0  0  0  0  0  0  0  0  0  0  0
   55.2798   28.9191   43.1181 H   0  0  0  0  0  0  0  0  0  0  0  0
   57.0407   31.8399   45.5357 H   0  0  0  0  0  0  0  0  0  0  0  0
  1  2  3  0
  2  3  1  0
  3  4  1  0
  4  5  1  0
  5  6  1  0
  6  7  2  0
  7  8  1  0
  8  9  2  0
  9 10  1  0
 10 11  1  0
 11 12  1  0
 11 13  2  0
 13 14  1  0
 14 15  2  0
 14 16  1  0
 16 17  2  0
  4 18  1  0
 18 19  2  0
 19 20  1  0
 20 21  1  0
 20 22  2  0
 22 23  1  0
 23 24  2  0
 24 25  1  0
 25 26  2  0
 26 27  1  0
 27 28  2  0
 22 29  1  0
 29 30  1  0
 30 31  1  0
 29 32  2  0
 17  6  1  0
 32 18  1  0
 16  9  1  0
 28 23  1  0
  1 33  1  0
  3 34  1  0
  3 35  1  0
  5 36  1  0
  5 37  1  0
  7 38  1  0
  8 39  1  0
 10 40  1  0
 12 41  1  0
 12 42  1  0
 12 43  1  0
 17 44  1  0
 19 45  1  0
 24 46  1  0
 25 47  1  0
 26 48  1  0
 27 49  1  0
 28 50  1  0
 31 51  1  0
 31 52  1  0
 31 53  1  0
 32 54  1  0
M  END
>  <UniqueID>  (31) 
29

>  <SMILES>  (31) 
C#CCN(Cc1ccc2[nH]c(C)nc(=O)c2c1)c1cc(F)c(-c2ccccc2)c(OC)c1

>  <Energy>  (31) 
67.5292810615409

>  <Genealogy>  (31) 
C#CCN(Cc1ccc2[nH]c(C)nc(=O)c2c1)c1cc(F)c(-c2ccccc2)c(OC)c1 (3D coordinates assigned)
C#CCN(Cc1ccc2[nH]c(C)nc(=O)c2c1)c1cc(F)c(-c2ccccc2)c(OC)c1 (optimized conformer: 67.5292810615409 kcal/mol)

>  <smiles>  (31) 
C#CCN(Cc1ccc2[nH]c(C)nc(=O)c2c1)c1cc(F)c(-c2ccccc2)c(OC)c1

>  <score_type>  (31) 
oracle

>  <origin>  (31) 
adg

>  <m_score__min__energy>  (31) 
-9.0299999999999994

>  <m_primary>  (31) 
energy

$$$$
32:0
     RDKit          3D

 68 70  0  0  0  0  0  0  0  0999 V2000
   58.4210   33.5960   52.2740 C   0  0  0  0  0  0  0  0  0  0  0  0
   59.3790   33.4340   51.0970 C   0  0  0  0  0  0  0  0  0  0  0  0
   58.9780   32.2760   50.2630 N   0  0  0  0  0  0  0  0  0  0  0  0
   57.9940   31.4380   50.9750 C   0  0  0  0  0  0  0  0  0  0  0  0
   60.1500   31.4630   49.8810 C   0  0  0  0  0  0  0  0  0  0  0  0
   59.7130   30.2620   49.1610 C   0  0  0  0  0  0  0  0  0  0  0  0
   59.3470   29.2760   48.5710 C   0  0  0  0  0  0  0  0  0  0  0  0
   58.9100   28.0680   47.8570 C   0  0  0  0  0  0  0  0  0  0  0  0
   60.0240   27.4960   46.9650 C   0  0  0  0  0  0  0  0  0  0  0  0
   59.7240   27.5360   45.4480 C   0  0  0  0  0  0  0  0  0  0  0  0
   59.8250   28.9370   44.8140 C   0  0  0  0  0  0  0  0  0  0  0  0
   58.4470   29.5530   44.4820 C   0  0  0  0  0  0  0  0  0  0  0  0
   58.5050   31.0830   44.4100 C   0  0  0  0  0  0  0  0  0  0  0  0
   57.4420   31.6860   45.2470 N   0  0  0  0  0  0  0  0  0  0  0  0
   57.0330   33.0160   44.7490 C   0  0  0  0  0  0  0  0  0  0  0  0
   58.1670   34.0440   44.9030 C   0  0  0  0  0  0  0  0  0  0  0  0
   58.8520   33.8780   46.1890 N   0  0  0  0  0  0  0  0  0  0  0  0
   59.9650   34.7310   46.5100 C   0  0  0  0  0  0  0  0  0  0  0  0
   59.9190   35.9490   46.1820 O   0  0  0  0  0  0  0  0  0  0  0  0
   61.1790   34.2060   47.1860 C   0  0  0  0  0  0  0  0  0  0  0  0
   62.1730   33.5410   46.4460 C   0  0  0  0  0  0  0  0  0  0  0  0
   63.3180   33.0430   47.0750 C   0  0  0  0  0  0  0  0  0  0  0  0
   63.4870   33.2000   48.4580 C   0  0  0  0  0  0  0  0  0  0  0  0
   64.6380   32.7160   49.1010 C   0  0  0  0  0  0  0  0  0  0  0  0
   64.7900   32.8760   50.4810 C   0  0  0  0  0  0  0  0  0  0  0  0
   63.7990   33.5180   51.2280 C   0  0  0  0  0  0  0  0  0  0  0  0
   62.6490   34.0010   50.6010 C   0  0  0  0  0  0  0  0  0  0  0  0
   62.4850   33.8520   49.2160 C   0  0  0  0  0  0  0  0  0  0  0  0
   61.3380   34.3420   48.5770 C   0  0  0  0  0  0  0  0  0  0  0  0
   58.2110   33.0740   47.2380 C   0  0  0  0  0  0  0  0  0  0  0  0
   57.7880   31.6910   46.6940 C   0  0  0  0  0  0  0  0  0  0  0  0
   58.9794   33.5016   53.2170 H   0  0  0  0  0  0  0  0  0  0  0  0
   57.9463   34.5872   52.2267 H   0  0  0  0  0  0  0  0  0  0  0  0
   57.6468   32.8160   52.2267 H   0  0  0  0  0  0  0  0  0  0  0  0
   59.3584   34.3471   50.4840 H   0  0  0  0  0  0  0  0  0  0  0  0
   60.3946   33.2622   51.4832 H   0  0  0  0  0  0  0  0  0  0  0  0
   58.1305   31.5542   52.0603 H   0  0  0  0  0  0  0  0  0  0  0  0
   56.9767   31.7513   50.6977 H   0  0  0  0  0  0  0  0  0  0  0  0
   58.1413   30.3838   50.6977 H   0  0  0  0  0  0  0  0  0  0  0  0
   60.8098   32.0573   49.2318 H   0  0  0  0  0  0  0  0  0  0  0  0
   60.6931   31.1625   50.7892 H   0  0  0  0  0  0  0  0  0  0  0  0
   58.6174   27.3055   48.5938 H   0  0  0  0  0  0  0  0  0  0  0  0
   58.0622   28.3409   47.2115 H   0  0  0  0  0  0  0  0  0  0  0  0
   60.9408   28.0757   47.1481 H   0  0  0  0  0  0  0  0  0  0  0  0
   60.1217   26.4338   47.2338 H   0  0  0  0  0  0  0  0  0  0  0  0
   60.4410   26.8756   44.9383 H   0  0  0  0  0  0  0  0  0  0  0  0
   58.6799   27.2119   45.3266 H   0  0  0  0  0  0  0  0  0  0  0  0
   60.3458   29.6030   45.5177 H   0  0  0  0  0  0  0  0  0  0  0  0
   60.3731   28.8294   43.8664 H   0  0  0  0  0  0  0  0  0  0  0  0
   58.1089   29.1642   43.5101 H   0  0  0  0  0  0  0  0  0  0  0  0
   57.7485   29.2766   45.2856 H   0  0  0  0  0  0  0  0  0  0  0  0
   59.4864   31.4247   44.7707 H   0  0  0  0  0  0  0  0  0  0  0  0
   58.3532   31.3945   43.3660 H   0  0  0  0  0  0  0  0  0  0  0  0
   56.7662   32.9336   43.6850 H   0  0  0  0  0  0  0  0  0  0  0  0
   56.1715   33.3584   45.3411 H   0  0  0  0  0  0  0  0  0  0  0  0
   58.8924   33.9050   44.0879 H   0  0  0  0  0  0  0  0  0  0  0  0
   57.7337   35.0543   44.8632 H   0  0  0  0  0  0  0  0  0  0  0  0
   62.0483   33.4113   45.3608 H   0  0  0  0  0  0  0  0  0  0  0  0
   64.0883   32.5267   46.4833 H   0  0  0  0  0  0  0  0  0  0  0  0
   65.4212   32.2101   48.5174 H   0  0  0  0  0  0  0  0  0  0  0  0
   65.6929   32.4952   50.9808 H   0  0  0  0  0  0  0  0  0  0  0  0
   63.9253   33.6432   52.3135 H   0  0  0  0  0  0  0  0  0  0  0  0
   61.8691   34.5000   51.1950 H   0  0  0  0  0  0  0  0  0  0  0  0
   60.5545   34.8377   49.1689 H   0  0  0  0  0  0  0  0  0  0  0  0
   58.9200   32.9330   48.0671 H   0  0  0  0  0  0  0  0  0  0  0  0
   57.3121   33.6039   47.5860 H   0  0  0  0  0  0  0  0  0  0  0  0
   58.6196   30.9886   46.8525 H   0  0  0  0  0  0  0  0  0  0  0  0
   56.8770   31.4017   47.2384 H   0  0  0  0  0  0  0  0  0  0  0  0
  1  2  1  0
  2  3  1  0
  3  4  1  0
  3  5  1  0
  5  6  1  0
  6  7  3  0
  7  8  1  0
  8  9  1  0
  9 10  1  0
 10 11  1  0
 11 12  1  0
 12 13  1  0
 13 14  1  0
 14 15  1  0
 15 16  1  0
 16 17  1  0
 17 18  1  0
 18 19  2  0
 18 20  1  0
 20 21  2  0
 21 22  1  0
 22 23  2  0
 23 24  1  0
 24 25  2  0
 25 26  1  0
 26 27  2  0
 27 28  1  0
 28 29  2  0
 17 30  1  0
 30 31  1  0
 31 14  1  0
 29 20  1  0
 28 23  1  0
  1 32  1  0
  1 33  1  0
  1 34  1  0
  2 35  1  0
  2 36  1  0
  4 37  1  0
  4 38  1  0
  4 39  1  0
  5 40  1  0
  5 41  1  0
  8 42  1  0
  8 43  1  0
  9 44  1  0
  9 45  1  0
 10 46  1  0
 10 47  1  0
 11 48  1  0
 11 49  1  0
 12 50  1  0
 12 51  1  0
 13 52  1  0
 13 53  1  0
 15 54  1  0
 15 55  1  0
 16 56  1  0
 16 57  1  0
 21 58  1  0
 22 59  1  0
 24 60  1  0
 25 61  1  0
 26 62  1  0
 27 63  1  0
 29 64  1  0
 30 65  1  0
 30 66  1  0
 31 67  1  0
 31 68  1  0
M  END
>  <UniqueID>  (32) 
30

>  <SMILES>  (32) 
CCN(C)CC#CCCCCCCN1CCN(C(=O)c2ccc3ccccc3c2)CC1

>  <Energy>  (32) 
73.73216304586005

>  <Genealogy>  (32) 
CCN(C)CC#CCCCCCCN1CCN(C(=O)c2ccc3ccccc3c2)CC1 (3D coordinates assigned)
CCN(C)CC#CCCCCCCN1CCN(C(=O)c2ccc3ccccc3c2)CC1 (nonaromatic ring conformer: 73.73216304586005 kcal/mol)

>  <smiles>  (32) 
CCN(C)CC#CCCCCCCN1CCN(C(=O)c2ccc3ccccc3c2)CC1

>  <score_type>  (32) 
oracle

>  <origin>  (32) 
adg

>  <m_score__min__energy>  (32) 
-8

>  <m_primary>  (32) 
energy

$$$$
33:0
     RDKit          3D

 49 52  0  0  0  0  0  0  0  0999 V2000
   59.5797   35.5551   47.5815 H   0  0  0  0  0  0  0  0  0  0  0  0
   59.6150   34.5960   48.1190 C   0  0  0  0  0  0  0  0  0  0  0  0
   59.6430   34.5890   49.4170 N   0  0  0  0  0  0  0  0  0  0  0  0
   60.0290   33.5090   50.1950 O   0  0  0  0  0  0  0  0  0  0  0  0
   59.1140   32.5730   50.7610 C   0  0  0  0  0  0  0  0  0  0  0  0
   58.0859   32.8512   50.4858 H   0  0  0  0  0  0  0  0  0  0  0  0
   59.2110   32.5779   51.8567 H   0  0  0  0  0  0  0  0  0  0  0  0
   59.4210   31.2020   50.2340 C   0  0  0  0  0  0  0  0  0  0  0  0
   58.7820   30.7210   49.0820 C   0  0  0  0  0  0  0  0  0  0  0  0
   58.0694   31.3606   48.5406 H   0  0  0  0  0  0  0  0  0  0  0  0
   59.0500   29.4320   48.6230 C   0  0  0  0  0  0  0  0  0  0  0  0
   58.5588   29.0527   47.7148 H   0  0  0  0  0  0  0  0  0  0  0  0
   59.9490   28.6260   49.3280 C   0  0  0  0  0  0  0  0  0  0  0  0
   60.2950   27.0010   48.7610 Cl  0  0  0  0  0  0  0  0  0  0  0  0
   60.5510   29.0980   50.4540 N   0  0  0  0  0  0  0  0  0  0  0  0
   61.2160   28.4870   50.9770 H   0  0  0  0  0  0  0  0  0  0  0  0
   60.3030   30.3540   50.9190 C   0  0  0  0  0  0  0  0  0  0  0  0
   60.7973   30.7050   51.8369 H   0  0  0  0  0  0  0  0  0  0  0  0
   59.6300   33.3330   47.3560 C   0  0  0  0  0  0  0  0  0  0  0  0
   60.6870   32.4370   47.2270 C   0  0  0  0  0  0  0  0  0  0  0  0
   62.0000   32.4820   47.9030 C   0  0  0  0  0  0  0  0  0  0  0  0
   62.3050   31.5300   48.8910 C   0  0  0  0  0  0  0  0  0  0  0  0
   61.5720   30.7500   49.1446 H   0  0  0  0  0  0  0  0  0  0  0  0
   63.5360   31.5700   49.5530 C   0  0  0  0  0  0  0  0  0  0  0  0
   63.7733   30.8148   50.3168 H   0  0  0  0  0  0  0  0  0  0  0  0
   64.4660   32.5680   49.2460 C   0  0  0  0  0  0  0  0  0  0  0  0
   66.1450   32.6220   50.1540 Br  0  0  0  0  0  0  0  0  0  0  0  0
   64.1610   33.5330   48.2820 C   0  0  0  0  0  0  0  0  0  0  0  0
   64.8891   34.3230   48.0457 H   0  0  0  0  0  0  0  0  0  0  0  0
   62.9300   33.4950   47.6170 C   0  0  0  0  0  0  0  0  0  0  0  0
   62.6896   34.2624   46.8665 H   0  0  0  0  0  0  0  0  0  0  0  0
   60.3400   31.4560   46.3710 N   0  0  0  0  0  0  0  0  0  0  0  0
   59.1060   31.6910   45.9540 N   0  0  0  0  0  0  0  0  0  0  0  0
   58.4150   30.8260   45.0370 C   0  0  0  0  0  0  0  0  0  0  0  0
   57.6210   31.3790   44.0220 C   0  0  0  0  0  0  0  0  0  0  0  0
   57.5323   32.4715   43.9300 H   0  0  0  0  0  0  0  0  0  0  0  0
   56.9420   30.5480   43.1270 C   0  0  0  0  0  0  0  0  0  0  0  0
   56.3331   30.9886   42.3238 H   0  0  0  0  0  0  0  0  0  0  0  0
   57.0340   29.1610   43.2490 C   0  0  0  0  0  0  0  0  0  0  0  0
   56.5093   28.5120   42.5324 H   0  0  0  0  0  0  0  0  0  0  0  0
   57.7930   28.5910   44.2820 C   0  0  0  0  0  0  0  0  0  0  0  0
   57.9090   27.1000   44.4050 C   0  0  0  0  0  0  0  0  0  0  0  0
   57.4839   26.6251   43.5084 H   0  0  0  0  0  0  0  0  0  0  0  0
   58.9695   26.8243   44.5020 H   0  0  0  0  0  0  0  0  0  0  0  0
   56.9440   26.4960   45.9720 Br  0  0  0  0  0  0  0  0  0  0  0  0
   58.4860   29.4290   45.1710 C   0  0  0  0  0  0  0  0  0  0  0  0
   59.0891   28.9882   45.9785 H   0  0  0  0  0  0  0  0  0  0  0  0
   58.6380   32.8180   46.5350 C   0  0  0  0  0  0  0  0  0  0  0  0
   57.0050   33.4540   46.3440 Cl  0  0  0  0  0  0  0  0  0  0  0  0
  1  2  1  0
  2  3  2  0
  3  4  1  0
  4  5  1  0
  5  6  1  0
  5  7  1  0
  5  8  1  0
  8  9  2  0
  9 10  1  0
  9 11  1  0
 11 12  1  0
 11 13  2  0
 13 14  1  0
 13 15  1  0
 15 16  1  0
 15 17  2  0
 17 18  1  0
  2 19  1  0
 19 20  1  0
 20 21  1  0
 21 22  2  0
 22 23  1  0
 22 24  1  0
 24 25  1  0
 24 26  2  0
 26 27  1  0
 26 28  1  0
 28 29  1  0
 28 30  2  0
 30 31  1  0
 20 32  2  0
 32 33  1  0
 33 34  1  0
 34 35  2  0
 35 36  1  0
 35 37  1  0
 37 38  1  0
 37 39  2  0
 39 40  1  0
 39 41  1  0
 41 42  1  0
 42 43  1  0
 42 44  1  0
 42 45  1  0
 41 46  2  0
 46 47  1  0
 33 48  1  0
 48 49  1  0
 17  8  1  0
 48 19  2  0
 30 21  1  0
 46 34  1  0
M  CHG  1  15   1
M  END
>  <UniqueID>  (33) 
31

>  <SMILES>  (33) 
Clc1ccc(CO/N=C/c2c(-c3ccc(Br)cc3)nn(-c3cccc(CBr)c3)c2Cl)c[nH+]1

>  <Energy>  (33) 
92.95718523222368

>  <Genealogy>  (33) 
Clc1ccc(CON=Cc2c(-c3ccc(Br)cc3)nn(-c3cccc(CBr)c3)c2Cl)c[nH+]1 (protonated)
Clc1ccc(CO/N=C/c2c(-c3ccc(Br)cc3)nn(-c3cccc(CBr)c3)c2Cl)c[nH+]1 (cis-trans isomerization)
Clc1ccc(CO/N=C/c2c(-c3ccc(Br)cc3)nn(-c3cccc(CBr)c3)c2Cl)c[nH+]1 (3D coordinates assigned)
Clc1ccc(CO/N=C/c2c(-c3ccc(Br)cc3)nn(-c3cccc(CBr)c3)c2Cl)c[nH+]1 (optimized conformer: 92.95718523222368 kcal/mol)

>  <smiles>  (33) 
Clc1ccc(CON=Cc2c(-c3ccc(Br)cc3)nn(-c3cccc(CBr)c3)c2Cl)cn1

>  <score_type>  (33) 
oracle

>  <origin>  (33) 
adg

>  <m_score__min__energy>  (33) 
-8.4800000000000004

>  <m_primary>  (33) 
energy

$$$$
34:0
     RDKit          3D

 44 45  0  0  0  0  0  0  0  0999 V2000
   57.6730   27.5460   46.3600 C   0  0  0  0  0  0  0  0  0  0  0  0
   57.2420   28.7150   45.5330 C   0  0  0  0  0  0  0  0  0  0  0  0
   58.0610   29.8460   45.4260 C   0  0  0  0  0  0  0  0  0  0  0  0
   57.6440   30.9320   44.6420 C   0  0  0  0  0  0  0  0  0  0  0  0
   58.5130   32.1620   44.5010 C   0  0  0  0  0  0  0  0  0  0  0  0
   57.8420   33.3810   45.0290 N   0  0  0  0  0  0  0  0  0  0  0  0
   58.6720   34.6080   44.8660 C   0  0  0  0  0  0  0  0  0  0  0  0
   59.5040   34.9630   46.1170 C   0  0  0  0  0  0  0  0  0  0  0  0
   59.8280   33.7450   46.8740 N   0  0  0  0  0  0  0  0  0  0  0  0
   60.8790   33.9320   47.8990 C   0  0  0  0  0  0  0  0  0  0  0  0
   62.1990   33.1450   47.6260 C   0  0  0  0  0  0  0  0  0  0  0  0
   61.8950   31.7040   47.1950 C   0  0  0  0  0  0  0  0  0  0  0  0
   63.0520   33.8350   46.5520 C   0  0  0  0  0  0  0  0  0  0  0  0
   58.6280   33.0530   47.3920 C   0  0  0  0  0  0  0  0  0  0  0  0
   57.4240   33.1960   46.4370 C   0  0  0  0  0  0  0  0  0  0  0  0
   56.4080   30.8630   43.9830 C   0  0  0  0  0  0  0  0  0  0  0  0
   55.6200   29.7190   44.1160 C   0  0  0  0  0  0  0  0  0  0  0  0
   56.0490   28.6790   44.8790 N   0  0  0  0  0  0  0  0  0  0  0  0
   57.5803   27.7975   47.4268 H   0  0  0  0  0  0  0  0  0  0  0  0
   57.0352   26.6796   46.1307 H   0  0  0  0  0  0  0  0  0  0  0  0
   58.7206   27.3010   46.1307 H   0  0  0  0  0  0  0  0  0  0  0  0
   59.0255   29.8826   45.9536 H   0  0  0  0  0  0  0  0  0  0  0  0
   59.4483   32.0020   45.0575 H   0  0  0  0  0  0  0  0  0  0  0  0
   58.7096   32.3187   43.4301 H   0  0  0  0  0  0  0  0  0  0  0  0
   56.9590   33.5220   44.4820 H   0  0  0  0  0  0  0  0  0  0  0  0
   59.3612   34.4520   44.0230 H   0  0  0  0  0  0  0  0  0  0  0  0
   57.9795   35.4446   44.6915 H   0  0  0  0  0  0  0  0  0  0  0  0
   60.4367   35.4558   45.8052 H   0  0  0  0  0  0  0  0  0  0  0  0
   58.9182   35.6385   46.7577 H   0  0  0  0  0  0  0  0  0  0  0  0
   61.1224   35.0035   47.9495 H   0  0  0  0  0  0  0  0  0  0  0  0
   60.4699   33.5381   48.8410 H   0  0  0  0  0  0  0  0  0  0  0  0
   62.7691   33.1280   48.5666 H   0  0  0  0  0  0  0  0  0  0  0  0
   61.7622   31.0747   48.0874 H   0  0  0  0  0  0  0  0  0  0  0  0
   60.9736   31.6876   46.5943 H   0  0  0  0  0  0  0  0  0  0  0  0
   62.7312   31.3168   46.5943 H   0  0  0  0  0  0  0  0  0  0  0  0
   63.8198   34.4560   47.0366 H   0  0  0  0  0  0  0  0  0  0  0  0
   63.5385   33.0734   45.9249 H   0  0  0  0  0  0  0  0  0  0  0  0
   62.4088   34.4699   45.9249 H   0  0  0  0  0  0  0  0  0  0  0  0
   58.8591   31.9847   47.5154 H   0  0  0  0  0  0  0  0  0  0  0  0
   58.3571   33.5138   48.3534 H   0  0  0  0  0  0  0  0  0  0  0  0
   56.8077   32.2875   46.5065 H   0  0  0  0  0  0  0  0  0  0  0  0
   56.8586   34.0895   46.7401 H   0  0  0  0  0  0  0  0  0  0  0  0
   56.0620   31.7050   43.3654 H   0  0  0  0  0  0  0  0  0  0  0  0
   54.6493   29.6587   43.6021 H   0  0  0  0  0  0  0  0  0  0  0  0
  1  2  1  0
  2  3  2  0
  3  4  1  0
  4  5  1  0
  5  6  1  0
  6  7  1  0
  7  8  1  0
  8  9  1  0
  9 10  1  0
 10 11  1  0
 11 12  1  0
 11 13  1  0
  9 14  1  0
 14 15  1  0
  4 16  2  0
 16 17  1  0
 17 18  2  0
 18  2  1  0
 15  6  1  0
  1 19  1  0
  1 20  1  0
  1 21  1  0
  3 22  1  0
  5 23  1  0
  5 24  1  0
  6 25  1  0
  7 26  1  0
  7 27  1  0
  8 28  1  0
  8 29  1  0
 10 30  1  0
 10 31  1  0
 11 32  1  0
 12 33  1  0
 12 34  1  0
 12 35  1  0
 13 36  1  0
 13 37  1  0
 13 38  1  0
 14 39  1  0
 14 40  1  0
 15 41  1  0
 15 42  1  0
 16 43  1  0
 17 44  1  0
M  CHG  1   6   1
M  END
>  <UniqueID>  (34) 
32

>  <SMILES>  (34) 
Cc1cc(C[NH+]2CCN(CC(C)C)CC2)ccn1

>  <Energy>  (34) 
55.18582829493897

>  <Genealogy>  (34) 
Cc1cc(C[NH+]2CCN(CC(C)C)CC2)ccn1 (protonated)
Cc1cc(C[NH+]2CCN(CC(C)C)CC2)ccn1 (3D coordinates assigned)
Cc1cc(C[NH+]2CCN(CC(C)C)CC2)ccn1 (nonaromatic ring conformer: 55.18582829493897 kcal/mol)

>  <smiles>  (34) 
Cc1cc(CN2CCN(CC(C)C)CC2)ccn1

>  <score_type>  (34) 
oracle

>  <origin>  (34) 
adg

>  <m_score__min__energy>  (34) 
-5.2000000000000002

>  <m_primary>  (34) 
energy

$$$$
35:0
     RDKit          3D

 48 50  0  0  0  0  0  0  0  0999 V2000
   60.8770   28.7790   44.5020 C   0  0  0  0  0  0  0  0  0  0  0  0
   60.4360   28.4970   45.9470 C   0  0  1  0  0  0  0  0  0  0  0  0
   60.6260   29.6890   46.8430 C   0  0  0  0  0  0  0  0  0  0  0  0
   61.6760   30.5280   46.8830 N   0  0  0  0  0  0  0  0  0  0  0  0
   61.5060   31.3430   47.9170 N   0  0  0  0  0  0  0  0  0  0  0  0
   62.4750   32.3460   48.3370 C   0  0  0  0  0  0  0  0  0  0  0  0
   60.3740   31.0120   48.5750 C   0  0  0  0  0  0  0  0  0  0  0  0
   59.8020   29.9440   47.9140 C   0  0  0  0  0  0  0  0  0  0  0  0
   58.5440   29.1830   48.2170 C   0  0  0  0  0  0  0  0  0  0  0  0
   58.5380   27.8440   47.4470 C   0  0  0  0  0  0  0  0  0  0  0  0
   59.0280   28.0510   46.0720 N   0  0  0  0  0  0  0  0  0  0  0  0
   58.0490   28.2850   45.0420 C   0  0  0  0  0  0  0  0  0  0  0  0
   58.0230   27.5520   44.0160 O   0  0  0  0  0  0  0  0  0  0  0  0
   57.0300   29.3800   45.2000 C   0  0  0  0  0  0  0  0  0  0  0  0
   56.8680   30.2150   43.9130 C   0  0  2  0  0  0  0  0  0  0  0  0
   56.5940   29.3480   42.7630 N   0  0  0  0  0  0  0  0  0  0  0  0
   58.0810   31.1450   43.6600 C   0  0  0  0  0  0  0  0  0  0  0  0
   58.2400   32.2410   44.6880 C   0  0  0  0  0  0  0  0  0  0  0  0
   57.9320   31.9990   46.0380 C   0  0  0  0  0  0  0  0  0  0  0  0
   58.0680   33.0180   46.9870 C   0  0  0  0  0  0  0  0  0  0  0  0
   57.7660   32.7770   48.2860 F   0  0  0  0  0  0  0  0  0  0  0  0
   58.5150   34.2830   46.5950 C   0  0  0  0  0  0  0  0  0  0  0  0
   58.8280   34.5310   45.2560 C   0  0  0  0  0  0  0  0  0  0  0  0
   59.2630   35.7590   44.8790 F   0  0  0  0  0  0  0  0  0  0  0  0
   58.6940   33.5150   44.3060 C   0  0  0  0  0  0  0  0  0  0  0  0
   61.8037   29.3716   44.5105 H   0  0  0  0  0  0  0  0  0  0  0  0
   61.0553   27.8270   43.9806 H   0  0  0  0  0  0  0  0  0  0  0  0
   60.0876   29.3403   43.9806 H   0  0  0  0  0  0  0  0  0  0  0  0
   61.0911   27.6723   46.2642 H   0  0  0  0  0  0  0  0  0  0  0  0
   62.5050   30.5300   46.2460 H   0  0  0  0  0  0  0  0  0  0  0  0
   62.5111   32.3834   49.4358 H   0  0  0  0  0  0  0  0  0  0  0  0
   63.4688   32.0820   47.9462 H   0  0  0  0  0  0  0  0  0  0  0  0
   62.1769   33.3301   47.9462 H   0  0  0  0  0  0  0  0  0  0  0  0
   59.9790   31.5049   49.4756 H   0  0  0  0  0  0  0  0  0  0  0  0
   58.4910   28.9822   49.2972 H   0  0  0  0  0  0  0  0  0  0  0  0
   57.6757   29.7823   47.9058 H   0  0  0  0  0  0  0  0  0  0  0  0
   59.1915   27.1246   47.9622 H   0  0  0  0  0  0  0  0  0  0  0  0
   57.5102   27.4537   47.4092 H   0  0  0  0  0  0  0  0  0  0  0  0
   56.0599   28.9274   45.4531 H   0  0  0  0  0  0  0  0  0  0  0  0
   57.3780   30.0528   45.9976 H   0  0  0  0  0  0  0  0  0  0  0  0
   55.9992   30.8748   44.0536 H   0  0  0  0  0  0  0  0  0  0  0  0
   57.4850   29.1820   42.2400 H   0  0  0  0  0  0  0  0  0  0  0  0
   56.2410   28.4210   43.0920 H   0  0  0  0  0  0  0  0  0  0  0  0
   58.9940   30.5315   43.6644 H   0  0  0  0  0  0  0  0  0  0  0  0
   57.9071   31.6388   42.6926 H   0  0  0  0  0  0  0  0  0  0  0  0
   57.5824   31.0037   46.3498 H   0  0  0  0  0  0  0  0  0  0  0  0
   58.6205   35.0841   47.3414 H   0  0  0  0  0  0  0  0  0  0  0  0
   58.9452   33.7134   43.2536 H   0  0  0  0  0  0  0  0  0  0  0  0
  1  2  1  0
  2  3  1  0
  3  4  2  0
  4  5  1  0
  5  6  1  0
  5  7  1  0
  7  8  2  0
  8  9  1  0
  9 10  1  0
 10 11  1  0
 11 12  1  0
 12 13  2  0
 12 14  1  0
 14 15  1  0
 15 16  1  0
 15 17  1  0
 17 18  1  0
 18 19  2  0
 19 20  1  0
 20 21  1  0
 20 22  2  0
 22 23  1  0
 23 24  1  0
 23 25  2  0
 11  2  1  0
 25 18  1  0
  8  3  1  0
  1 26  1  0
  1 27  1  0
  1 28  1  0
  2 29  1  1
  4 30  1  0
  6 31  1  0
  6 32  1  0
  6 33  1  0
  7 34  1  0
  9 35  1  0
  9 36  1  0
 10 37  1  0
 10 38  1  0
 14 39  1  0
 14 40  1  0
 15 41  1  1
 16 42  1  0
 16 43  1  0
 17 44  1  0
 17 45  1  0
 19 46  1  0
 22 47  1  0
 25 48  1  0
M  CHG  1   4   1
M  END
>  <UniqueID>  (35) 
33

>  <SMILES>  (35) 
C[C@H]1c2[nH+]n(C)cc2CCN1C(=O)C[C@H](N)Cc1cc(F)cc(F)c1

>  <Energy>  (35) 
85.47226803831286

>  <Genealogy>  (35) 
CC1c2[nH+]n(C)cc2CCN1C(=O)CC(N)Cc1cc(F)cc(F)c1 (protonated)
C[C@H]1c2[nH+]n(C)cc2CCN1C(=O)C[C@H](N)Cc1cc(F)cc(F)c1 (chirality)
C[C@H]1c2[nH+]n(C)cc2CCN1C(=O)C[C@H](N)Cc1cc(F)cc(F)c1 (3D coordinates assigned)
C[C@H]1c2[nH+]n(C)cc2CCN1C(=O)C[C@H](N)Cc1cc(F)cc(F)c1 (nonaromatic ring conformer: 85.47226803831286 kcal/mol)

>  <smiles>  (35) 
CC1c2nn(C)cc2CCN1C(=O)CC(N)Cc1cc(F)cc(F)c1

>  <score_type>  (35) 
oracle

>  <origin>  (35) 
adg

>  <m_score__min__energy>  (35) 
-6.6399999999999997

>  <m_primary>  (35) 
energy

$$$$
36:0
     RDKit          3D

 41 43  0  0  0  0  0  0  0  0999 V2000
   55.7480   30.0630   43.9620 C   0  0  0  0  0  0  0  0  0  0  0  0
   55.5340   29.0330   44.9000 O   0  0  0  0  0  0  0  0  0  0  0  0
   56.7600   28.3900   45.1800 C   0  0  0  0  0  0  0  0  0  0  0  0
   57.9300   29.2560   44.6950 C   0  0  0  0  0  0  0  0  0  0  0  0
   59.2340   28.6750   45.0930 N   0  0  0  0  0  0  0  0  0  0  0  0
   59.0620   27.4320   45.8980 C   0  0  0  0  0  0  0  0  0  0  0  0
   60.1790   27.1920   46.9360 C   0  0  0  0  0  0  0  0  0  0  0  0
   59.9510   27.9210   48.2830 C   0  0  0  0  0  0  0  0  0  0  0  0
   59.5040   29.3150   48.1450 N   0  0  0  0  0  0  0  0  0  0  0  0
   58.8750   30.0330   49.0970 C   0  0  0  0  0  0  0  0  0  0  0  0
   58.5560   31.2790   48.6860 N   0  0  0  0  0  0  0  0  0  0  0  0
   59.0050   31.3420   47.4140 C   0  0  0  0  0  0  0  0  0  0  0  0
   58.8980   32.5570   46.5810 C   0  0  0  0  0  0  0  0  0  0  0  0
   59.8230   33.6000   46.7480 C   0  0  0  0  0  0  0  0  0  0  0  0
   59.7410   34.7500   45.9570 C   0  0  0  0  0  0  0  0  0  0  0  0
   58.7440   34.8630   44.9850 C   0  0  0  0  0  0  0  0  0  0  0  0
   57.8340   33.8190   44.7940 C   0  0  0  0  0  0  0  0  0  0  0  0
   57.9150   32.6660   45.5810 C   0  0  0  0  0  0  0  0  0  0  0  0
   59.5630   30.1210   47.0680 C   0  0  0  0  0  0  0  0  0  0  0  0
   60.1050   29.6900   45.7350 C   0  0  0  0  0  0  0  0  0  0  0  0
   55.9441   31.0067   44.4921 H   0  0  0  0  0  0  0  0  0  0  0  0
   56.6128   29.8104   43.3309 H   0  0  0  0  0  0  0  0  0  0  0  0
   54.8541   30.1758   43.3309 H   0  0  0  0  0  0  0  0  0  0  0  0
   56.8490   28.2322   46.2650 H   0  0  0  0  0  0  0  0  0  0  0  0
   56.7871   27.4219   44.6585 H   0  0  0  0  0  0  0  0  0  0  0  0
   57.8906   29.3291   43.5981 H   0  0  0  0  0  0  0  0  0  0  0  0
   57.8390   30.2506   45.1560 H   0  0  0  0  0  0  0  0  0  0  0  0
   58.1026   27.4967   46.4321 H   0  0  0  0  0  0  0  0  0  0  0  0
   59.1000   26.5896   45.1916 H   0  0  0  0  0  0  0  0  0  0  0  0
   60.2422   26.1117   47.1332 H   0  0  0  0  0  0  0  0  0  0  0  0
   61.1067   27.5979   46.5063 H   0  0  0  0  0  0  0  0  0  0  0  0
   59.1873   27.3682   48.8496 H   0  0  0  0  0  0  0  0  0  0  0  0
   60.9238   27.9499   48.7957 H   0  0  0  0  0  0  0  0  0  0  0  0
   58.6462   29.6454   50.1007 H   0  0  0  0  0  0  0  0  0  0  0  0
   60.6162   33.5119   47.5050 H   0  0  0  0  0  0  0  0  0  0  0  0
   60.4630   35.5674   46.1003 H   0  0  0  0  0  0  0  0  0  0  0  0
   58.6750   35.7727   44.3704 H   0  0  0  0  0  0  0  0  0  0  0  0
   57.0534   33.9047   44.0237 H   0  0  0  0  0  0  0  0  0  0  0  0
   57.2067   31.8405   45.4173 H   0  0  0  0  0  0  0  0  0  0  0  0
   60.1741   30.5687   45.0768 H   0  0  0  0  0  0  0  0  0  0  0  0
   61.0960   29.2404   45.8958 H   0  0  0  0  0  0  0  0  0  0  0  0
  1  2  1  0
  2  3  1  0
  3  4  1  0
  4  5  1  0
  5  6  1  0
  6  7  1  0
  7  8  1  0
  8  9  1  0
  9 10  1  0
 10 11  2  0
 11 12  1  0
 12 13  1  0
 13 14  2  0
 14 15  1  0
 15 16  2  0
 16 17  1  0
 17 18  2  0
 12 19  2  0
 19 20  1  0
 20  5  1  0
 19  9  1  0
 18 13  1  0
  1 21  1  0
  1 22  1  0
  1 23  1  0
  3 24  1  0
  3 25  1  0
  4 26  1  0
  4 27  1  0
  6 28  1  0
  6 29  1  0
  7 30  1  0
  7 31  1  0
  8 32  1  0
  8 33  1  0
 10 34  1  0
 14 35  1  0
 15 36  1  0
 16 37  1  0
 17 38  1  0
 18 39  1  0
 20 40  1  0
 20 41  1  0
M  END
>  <UniqueID>  (36) 
34

>  <SMILES>  (36) 
COCCN1CCCn2cnc(-c3ccccc3)c2C1

>  <Energy>  (36) 
88.67900888493436

>  <Genealogy>  (36) 
COCCN1CCCn2cnc(-c3ccccc3)c2C1 (3D coordinates assigned)
COCCN1CCCn2cnc(-c3ccccc3)c2C1 (nonaromatic ring conformer: 88.67900888493436 kcal/mol)

>  <smiles>  (36) 
COCCN1CCCn2cnc(-c3ccccc3)c2C1

>  <score_type>  (36) 
oracle

>  <origin>  (36) 
adg

>  <m_score__min__energy>  (36) 
-4.6900000000000004

>  <m_primary>  (36) 
energy

$$$$
37:0
     RDKit          3D

 34 36  0  0  1  0  0  0  0  0999 V2000
   59.6420   34.1710   48.4910 C   0  0  0  0  0  0  0  0  0  0  0  0
   59.2200   33.9510   47.0860 C   0  0  0  0  0  0  0  0  0  0  0  0
   59.3700   35.0010   46.2110 C   0  0  0  0  0  0  0  0  0  0  0  0
   58.9850   34.8390   44.8770 C   0  0  0  0  0  0  0  0  0  0  0  0
   58.4680   33.6190   44.5050 C   0  0  0  0  0  0  0  0  0  0  0  0
   58.3230   32.5760   45.3920 C   0  0  0  0  0  0  0  0  0  0  0  0
   57.7680   31.3060   44.9360 C   0  0  0  0  0  0  0  0  0  0  0  0
   58.5500   30.1690   44.9260 C   0  0  0  0  0  0  0  0  0  0  0  0
   58.0110   28.9780   44.4920 C   0  0  0  0  0  0  0  0  0  0  0  0
   58.7850   27.9460   44.5040 N   0  0  0  0  0  0  0  0  0  0  0  0
   58.2490   26.7100   44.9090 C   0  0  0  0  0  0  0  0  0  0  0  0
   58.1960   26.4250   46.2730 C   0  0  0  0  0  0  0  0  0  0  0  0
   57.6880   25.2420   46.7590 C   0  0  0  0  0  0  0  0  0  0  0  0
   57.2110   24.3010   45.8620 C   0  0  0  0  0  0  0  0  0  0  0  0
   57.2550   24.5680   44.4990 C   0  0  0  0  0  0  0  0  0  0  0  0
   56.6430   23.3540   43.3860 Cl  0  0  0  0  0  0  0  0  0  0  0  0
   57.7640   25.7490   44.0450 C   0  0  0  0  0  0  0  0  0  0  0  0
   56.7380   28.9620   44.0920 N   0  0  0  0  0  0  0  0  0  0  0  0
   55.9930   30.0880   44.1110 C   0  0  0  0  0  0  0  0  0  0  0  0
   56.4850   31.2770   44.5300 N   0  0  0  0  0  0  0  0  0  0  0  0
   58.7020   32.7630   46.6680 N   0  0  0  0  0  0  0  0  0  0  0  0
   58.8753   33.7713   49.1710 H   0  0  0  0  0  0  0  0  0  0  0  0
   60.5970   33.6560   48.6719 H   0  0  0  0  0  0  0  0  0  0  0  0
   59.7666   35.2488   48.6719 H   0  0  0  0  0  0  0  0  0  0  0  0
   59.7883   35.9578   46.5569 H   0  0  0  0  0  0  0  0  0  0  0  0
   59.0915   35.6578   44.1502 H   0  0  0  0  0  0  0  0  0  0  0  0
   58.1590   33.4716   43.4596 H   0  0  0  0  0  0  0  0  0  0  0  0
   59.5964   30.2135   45.2622 H   0  0  0  0  0  0  0  0  0  0  0  0
   58.5738   27.1726   46.9860 H   0  0  0  0  0  0  0  0  0  0  0  0
   57.6613   25.0472   47.8413 H   0  0  0  0  0  0  0  0  0  0  0  0
   56.7998   23.3480   46.2262 H   0  0  0  0  0  0  0  0  0  0  0  0
   57.7887   25.9407   42.9621 H   0  0  0  0  0  0  0  0  0  0  0  0
   56.3410   28.0550   43.7670 H   0  0  0  0  0  0  0  0  0  0  0  0
   54.9473   30.0369   43.7734 H   0  0  0  0  0  0  0  0  0  0  0  0
  1  2  1  0
  2  3  2  0
  3  4  1  0
  4  5  2  0
  5  6  1  0
  6  7  1  0
  7  8  2  0
  8  9  1  0
  9 10  2  0
 10 11  1  0
 11 12  2  0
 12 13  1  0
 13 14  2  0
 14 15  1  0
 15 16  1  0
 15 17  2  0
  9 18  1  0
 18 19  1  0
 19 20  2  0
  6 21  2  0
 21  2  1  0
 20  7  1  0
 17 11  1  0
  1 22  1  0
  1 23  1  0
  1 24  1  0
  3 25  1  0
  4 26  1  0
  5 27  1  0
  8 28  1  0
 12 29  1  0
 13 30  1  0
 14 31  1  0
 17 32  1  0
 18 33  1  0
 19 34  1  0
M  END
>  <smiles>  (37) 
Cc1cccc(-c2cc(=Nc3cccc(Cl)c3)[nH]cn2)n1

>  <score_type>  (37) 
oracle

>  <origin>  (37) 
adg

>  <m_score__min__energy>  (37) 
-7.96

>  <m_primary>  (37) 
energy

$$$$
38:0
     RDKit          3D

 42 43  0  0  0  0  0  0  0  0999 V2000
   58.7770   31.5390   49.9330 C   0  0  0  0  0  0  0  0  0  0  0  0
   59.4310   30.2510   49.4270 C   0  0  0  0  0  0  0  0  0  0  0  0
   58.9950   29.9320   47.9930 C   0  0  0  0  0  0  0  0  0  0  0  0
   58.2720   31.0380   47.4560 O   0  0  0  0  0  0  0  0  0  0  0  0
   58.1650   31.3320   46.0860 C   0  0  0  0  0  0  0  0  0  0  0  0
   58.3940   30.3430   45.1050 C   0  0  0  0  0  0  0  0  0  0  0  0
   58.2870   30.6490   43.7470 C   0  0  0  0  0  0  0  0  0  0  0  0
   57.9320   31.9380   43.3490 C   0  0  0  0  0  0  0  0  0  0  0  0
   57.7460   32.3440   41.4920 Br  0  0  0  0  0  0  0  0  0  0  0  0
   57.6950   32.9290   44.3070 C   0  0  0  0  0  0  0  0  0  0  0  0
   57.8400   32.6470   45.6810 C   0  0  0  0  0  0  0  0  0  0  0  0
   57.5140   33.6930   46.7350 C   0  0  0  0  0  0  0  0  0  0  0  0
   58.6070   33.8490   47.7090 N   0  0  0  0  0  0  0  0  0  0  0  0
   59.5050   34.9640   47.3570 C   0  0  0  0  0  0  0  0  0  0  0  0
   60.4340   34.5590   46.2040 C   0  0  0  0  0  0  0  0  0  0  0  0
   61.4870   33.5770   46.6360 C   0  0  0  0  0  0  0  0  0  0  0  0
   62.8420   33.9440   46.6590 C   0  0  0  0  0  0  0  0  0  0  0  0
   63.7920   33.0210   47.0950 C   0  0  0  0  0  0  0  0  0  0  0  0
   63.3900   31.7370   47.4880 C   0  0  0  0  0  0  0  0  0  0  0  0
   62.0340   31.4050   47.4480 C   0  0  0  0  0  0  0  0  0  0  0  0
   61.1210   32.3170   47.0240 N   0  0  0  0  0  0  0  0  0  0  0  0
   58.7756   31.5418   51.0330 H   0  0  0  0  0  0  0  0  0  0  0  0
   59.3435   32.4070   49.5648 H   0  0  0  0  0  0  0  0  0  0  0  0
   57.7419   31.5938   49.5648 H   0  0  0  0  0  0  0  0  0  0  0  0
   60.5242   30.3707   49.4510 H   0  0  0  0  0  0  0  0  0  0  0  0
   59.1161   29.4224   50.0783 H   0  0  0  0  0  0  0  0  0  0  0  0
   59.8839   29.7404   47.3741 H   0  0  0  0  0  0  0  0  0  0  0  0
   58.3501   29.0409   47.9967 H   0  0  0  0  0  0  0  0  0  0  0  0
   58.6594   29.3211   45.4136 H   0  0  0  0  0  0  0  0  0  0  0  0
   58.4825   29.8740   42.9913 H   0  0  0  0  0  0  0  0  0  0  0  0
   57.3930   33.9368   43.9860 H   0  0  0  0  0  0  0  0  0  0  0  0
   57.3410   34.6583   46.2367 H   0  0  0  0  0  0  0  0  0  0  0  0
   56.6171   33.3616   47.2788 H   0  0  0  0  0  0  0  0  0  0  0  0
   59.1780   32.9680   47.6890 H   0  0  0  0  0  0  0  0  0  0  0  0
   58.9025   35.8314   47.0495 H   0  0  0  0  0  0  0  0  0  0  0  0
   60.1164   35.2206   48.2347 H   0  0  0  0  0  0  0  0  0  0  0  0
   59.8295   34.1013   45.4071 H   0  0  0  0  0  0  0  0  0  0  0  0
   60.9456   35.4663   45.8503 H   0  0  0  0  0  0  0  0  0  0  0  0
   63.1510   34.9492   46.3364 H   0  0  0  0  0  0  0  0  0  0  0  0
   64.8554   33.3002   47.1305 H   0  0  0  0  0  0  0  0  0  0  0  0
   64.1338   30.9995   47.8240 H   0  0  0  0  0  0  0  0  0  0  0  0
   61.7047   30.4030   47.7605 H   0  0  0  0  0  0  0  0  0  0  0  0
  1  2  1  0
  2  3  1  0
  3  4  1  0
  4  5  1  0
  5  6  2  0
  6  7  1  0
  7  8  2  0
  8  9  1  0
  8 10  1  0
 10 11  2  0
 11 12  1  0
 12 13  1  0
 13 14  1  0
 14 15  1  0
 15 16  1  0
 16 17  2  0
 17 18  1  0
 18 19  2  0
 19 20  1  0
 20 21  2  0
 11  5  1  0
 21 16  1  0
  1 22  1  0
  1 23  1  0
  1 24  1  0
  2 25  1  0
  2 26  1  0
  3 27  1  0
  3 28  1  0
  6 29  1  0
  7 30  1  0
 10 31  1  0
 12 32  1  0
 12 33  1  0
 13 34  1  0
 14 35  1  0
 14 36  1  0
 15 37  1  0
 15 38  1  0
 17 39  1  0
 18 40  1  0
 19 41  1  0
 20 42  1  0
M  END
>  <UniqueID>  (38) 
35

>  <SMILES>  (38) 
CCCOc1ccc(Br)cc1CNCCc1ccccn1

>  <Energy>  (38) 
37.70013947957578

>  <Genealogy>  (38) 
CCCOc1ccc(Br)cc1CNCCc1ccccn1 (3D coordinates assigned)
CCCOc1ccc(Br)cc1CNCCc1ccccn1 (optimized conformer: 37.70013947957578 kcal/mol)

>  <smiles>  (38) 
CCCOc1ccc(Br)cc1CNCCc1ccccn1

>  <score_type>  (38) 
oracle

>  <origin>  (38) 
adg

>  <m_score__min__energy>  (38) 
-6.8399999999999999

>  <m_primary>  (38) 
energy

$$$$
39:0
     RDKit          3D

 49 51  0  0  0  0  0  0  0  0999 V2000
   53.8070   24.5510   45.5840 C   0  0  0  0  0  0  0  0  0  0  0  0
   55.1700   24.6090   45.9920 O   0  0  0  0  0  0  0  0  0  0  0  0
   56.1550   23.6840   45.6150 C   0  0  0  0  0  0  0  0  0  0  0  0
   55.9250   22.2940   45.6590 C   0  0  0  0  0  0  0  0  0  0  0  0
   56.9410   21.3980   45.3140 C   0  0  0  0  0  0  0  0  0  0  0  0
   58.1890   21.8750   44.9160 C   0  0  0  0  0  0  0  0  0  0  0  0
   58.4310   23.2500   44.8720 C   0  0  0  0  0  0  0  0  0  0  0  0
   57.4170   24.1600   45.2070 C   0  0  0  0  0  0  0  0  0  0  0  0
   57.6790   25.5710   45.1430 N   0  0  0  0  0  0  0  0  0  0  0  0
   57.9380   26.3280   46.3710 C   0  0  0  0  0  0  0  0  0  0  0  0
   57.4750   27.7740   46.1740 C   0  0  0  0  0  0  0  0  0  0  0  0
   58.1600   28.4340   45.0380 N   0  0  0  0  0  0  0  0  0  0  0  0
   57.1670   29.7190   44.3860 S   0  0  0  0  0  0  0  0  0  0  0  0
   57.1170   29.5840   42.8900 O   0  0  0  0  0  0  0  0  0  0  0  0
   55.7650   29.5900   44.9110 O   0  0  0  0  0  0  0  0  0  0  0  0
   57.8850   31.2980   44.7680 C   0  0  0  0  0  0  0  0  0  0  0  0
   58.2290   31.5370   46.1070 C   0  0  0  0  0  0  0  0  0  0  0  0
   58.7860   32.7170   46.4870 N   0  0  0  0  0  0  0  0  0  0  0  0
   59.0340   33.7130   45.5880 C   0  0  0  0  0  0  0  0  0  0  0  0
   59.6410   35.0230   46.0210 C   0  0  0  0  0  0  0  0  0  0  0  0
   60.9780   34.8830   46.3450 F   0  0  0  0  0  0  0  0  0  0  0  0
   59.5340   35.9450   44.9940 F   0  0  0  0  0  0  0  0  0  0  0  0
   58.9630   35.5000   47.1270 F   0  0  0  0  0  0  0  0  0  0  0  0
   58.6960   33.5250   44.2420 C   0  0  0  0  0  0  0  0  0  0  0  0
   58.1130   32.3220   43.8160 C   0  0  0  0  0  0  0  0  0  0  0  0
   57.7800   32.1650   42.3560 C   0  0  0  0  0  0  0  0  0  0  0  0
   58.6170   27.5210   43.9620 C   0  0  0  0  0  0  0  0  0  0  0  0
   57.7640   26.2500   43.8450 C   0  0  0  0  0  0  0  0  0  0  0  0
   53.1591   24.5234   46.4725 H   0  0  0  0  0  0  0  0  0  0  0  0
   53.5663   25.4397   44.9821 H   0  0  0  0  0  0  0  0  0  0  0  0
   53.6427   23.6450   44.9821 H   0  0  0  0  0  0  0  0  0  0  0  0
   54.9403   21.9121   45.9666 H   0  0  0  0  0  0  0  0  0  0  0  0
   56.7554   20.3146   45.3566 H   0  0  0  0  0  0  0  0  0  0  0  0
   58.9839   21.1679   44.6364 H   0  0  0  0  0  0  0  0  0  0  0  0
   59.4223   23.6215   44.5730 H   0  0  0  0  0  0  0  0  0  0  0  0
   57.3851   25.8746   47.2069 H   0  0  0  0  0  0  0  0  0  0  0  0
   59.0143   26.3107   46.5975 H   0  0  0  0  0  0  0  0  0  0  0  0
   56.3917   27.7757   45.9831 H   0  0  0  0  0  0  0  0  0  0  0  0
   57.7228   28.3341   47.0877 H   0  0  0  0  0  0  0  0  0  0  0  0
   58.0451   30.7573   46.8608 H   0  0  0  0  0  0  0  0  0  0  0  0
   59.0210   32.8420   47.4970 H   0  0  0  0  0  0  0  0  0  0  0  0
   58.8890   34.3263   43.5135 H   0  0  0  0  0  0  0  0  0  0  0  0
   56.7893   31.6979   42.2540 H   0  0  0  0  0  0  0  0  0  0  0  0
   57.7707   33.1536   41.8737 H   0  0  0  0  0  0  0  0  0  0  0  0
   58.5367   31.5288   41.8737 H   0  0  0  0  0  0  0  0  0  0  0  0
   58.5742   28.0603   43.0042 H   0  0  0  0  0  0  0  0  0  0  0  0
   59.6405   27.2060   44.2132 H   0  0  0  0  0  0  0  0  0  0  0  0
   56.7518   26.5220   43.5111 H   0  0  0  0  0  0  0  0  0  0  0  0
   58.2321   25.5714   43.1168 H   0  0  0  0  0  0  0  0  0  0  0  0
  1  2  1  0
  2  3  1  0
  3  4  2  0
  4  5  1  0
  5  6  2  0
  6  7  1  0
  7  8  2  0
  8  9  1  0
  9 10  1  0
 10 11  1  0
 11 12  1  0
 12 13  1  0
 13 14  2  0
 13 15  2  0
 13 16  1  0
 16 17  2  0
 17 18  1  0
 18 19  2  0
 19 20  1  0
 20 21  1  0
 20 22  1  0
 20 23  1  0
 19 24  1  0
 24 25  2  0
 25 26  1  0
 12 27  1  0
 27 28  1  0
  8  3  1  0
 28  9  1  0
 25 16  1  0
  1 29  1  0
  1 30  1  0
  1 31  1  0
  4 32  1  0
  5 33  1  0
  6 34  1  0
  7 35  1  0
 10 36  1  0
 10 37  1  0
 11 38  1  0
 11 39  1  0
 17 40  1  0
 18 41  1  0
 24 42  1  0
 26 43  1  0
 26 44  1  0
 26 45  1  0
 27 46  1  0
 27 47  1  0
 28 48  1  0
 28 49  1  0
M  CHG  1  18   1
M  END
>  <UniqueID>  (39) 
36

>  <SMILES>  (39) 
COc1ccccc1N1CCN(S(=O)(=O)c2c[nH+]c(C(F)(F)F)cc2C)CC1

>  <Energy>  (39) 
63.468401909527934

>  <Genealogy>  (39) 
COc1ccccc1N1CCN(S(=O)(=O)c2c[nH+]c(C(F)(F)F)cc2C)CC1 (protonated)
COc1ccccc1N1CCN(S(=O)(=O)c2c[nH+]c(C(F)(F)F)cc2C)CC1 (3D coordinates assigned)
COc1ccccc1N1CCN(S(=O)(=O)c2c[nH+]c(C(F)(F)F)cc2C)CC1 (nonaromatic ring conformer: 63.468401909527934 kcal/mol)

>  <smiles>  (39) 
COc1ccccc1N1CCN(S(=O)(=O)c2cnc(C(F)(F)F)cc2C)CC1

>  <score_type>  (39) 
oracle

>  <origin>  (39) 
adg

>  <m_score__min__energy>  (39) 
-6.46

>  <m_primary>  (39) 
energy

$$$$
40:0
     RDKit          3D

 33 35  0  0  0  0  0  0  0  0999 V2000
   55.5250   29.8850   44.1490 C   0  0  0  0  0  0  0  0  0  0  0  0
   56.6830   29.3480   43.7550 C   0  0  0  0  0  0  0  0  0  0  0  0
   57.9960   29.7590   44.3620 C   0  0  0  0  0  0  0  0  0  0  0  0
   57.9830   31.1840   44.7060 N   0  0  0  0  0  0  0  0  0  0  0  0
   58.4380   31.7060   45.9460 C   0  0  0  0  0  0  0  0  0  0  0  0
   58.6420   30.9720   46.9520 O   0  0  0  0  0  0  0  0  0  0  0  0
   58.5760   33.1640   45.9500 C   0  0  0  0  0  0  0  0  0  0  0  0
   59.2010   33.9120   46.8700 C   0  0  0  0  0  0  0  0  0  0  0  0
   60.4680   33.5400   47.5300 C   0  0  0  0  0  0  0  0  0  0  0  0
   61.6500   34.2110   47.1860 C   0  0  0  0  0  0  0  0  0  0  0  0
   62.8230   33.8520   47.7690 N   0  0  0  0  0  0  0  0  0  0  0  0
   62.8790   32.8400   48.6730 C   0  0  0  0  0  0  0  0  0  0  0  0
   64.0950   32.4850   49.2670 C   0  0  0  0  0  0  0  0  0  0  0  0
   64.1400   31.4350   50.1900 C   0  0  0  0  0  0  0  0  0  0  0  0
   62.9720   30.7370   50.5180 C   0  0  0  0  0  0  0  0  0  0  0  0
   61.7530   31.0860   49.9270 C   0  0  0  0  0  0  0  0  0  0  0  0
   61.6990   32.1400   49.0030 C   0  0  0  0  0  0  0  0  0  0  0  0
   60.5240   32.4990   48.4130 N   0  0  0  0  0  0  0  0  0  0  0  0
   57.8250   33.9030   44.4970 S   0  0  0  0  0  0  0  0  0  0  0  0
   57.7140   32.2520   43.7920 C   0  0  0  0  0  0  0  0  0  0  0  0
   57.7530   32.0450   42.1670 S   0  0  0  0  0  0  0  0  0  0  0  0
   54.5822   29.5615   43.6838 H   0  0  0  0  0  0  0  0  0  0  0  0
   55.5143   30.6507   44.9387 H   0  0  0  0  0  0  0  0  0  0  0  0
   56.6759   28.5835   42.9641 H   0  0  0  0  0  0  0  0  0  0  0  0
   58.1732   29.1689   45.2733 H   0  0  0  0  0  0  0  0  0  0  0  0
   58.7967   29.5787   43.6296 H   0  0  0  0  0  0  0  0  0  0  0  0
   58.7380   34.8689   47.1527 H   0  0  0  0  0  0  0  0  0  0  0  0
   61.6274   35.0252   46.4467 H   0  0  0  0  0  0  0  0  0  0  0  0
   65.0144   33.0309   49.0085 H   0  0  0  0  0  0  0  0  0  0  0  0
   65.0954   31.1572   50.6591 H   0  0  0  0  0  0  0  0  0  0  0  0
   63.0127   29.9109   51.2432 H   0  0  0  0  0  0  0  0  0  0  0  0
   60.8375   30.5343   50.1867 H   0  0  0  0  0  0  0  0  0  0  0  0
   59.6550   31.9580   48.6270 H   0  0  0  0  0  0  0  0  0  0  0  0
  1  2  2  0
  2  3  1  0
  3  4  1  0
  4  5  1  0
  5  6  2  0
  5  7  1  0
  7  8  2  3
  8  9  1  0
  9 10  2  0
 10 11  1  0
 11 12  2  0
 12 13  1  0
 13 14  2  0
 14 15  1  0
 15 16  2  0
 16 17  1  0
 17 18  2  0
  7 19  1  0
 19 20  1  0
 20 21  2  0
 20  4  1  0
 18  9  1  0
 17 12  1  0
  1 22  1  0
  1 23  1  0
  2 24  1  0
  3 25  1  0
  3 26  1  0
  8 27  1  0
 10 28  1  0
 13 29  1  0
 14 30  1  0
 15 31  1  0
 16 32  1  0
 18 33  1  0
M  CHG  1  18   1
M  END
>  <UniqueID>  (40) 
37

>  <SMILES>  (40) 
C=CCN1C(=O)C(=Cc2cnc3ccccc3[nH+]2)SC1=S

>  <Energy>  (40) 
61.3584510861362

>  <Genealogy>  (40) 
C=CCN1C(=O)C(=Cc2cnc3ccccc3[nH+]2)SC1=S (protonated)
C=CCN1C(=O)C(=Cc2cnc3ccccc3[nH+]2)SC1=S (3D coordinates assigned)
C=CCN1C(=O)C(=Cc2cnc3ccccc3[nH+]2)SC1=S (nonaromatic ring conformer: 61.3584510861362 kcal/mol)

>  <smiles>  (40) 
C=CCN1C(=O)C(=Cc2cnc3ccccc3n2)SC1=S

>  <score_type>  (40) 
oracle

>  <origin>  (40) 
adg

>  <m_score__min__energy>  (40) 
-6.3099999999999996

>  <m_primary>  (40) 
energy

$$$$
41:0
     RDKit          3D

 49 50  0  0  0  0  0  0  0  0999 V2000
   58.1640   27.3050   43.3780 C   0  0  0  0  0  0  0  0  0  0  0  0
   58.4760   27.2370   44.8700 C   0  0  0  0  0  0  0  0  0  0  0  0
   57.3420   27.8480   45.7030 C   0  0  0  0  0  0  0  0  0  0  0  0
   57.3940   29.3230   45.6420 N   0  0  0  0  0  0  0  0  0  0  0  0
   58.2370   30.0460   46.4640 C   0  0  0  0  0  0  0  0  0  0  0  0
   59.0550   29.3930   47.4530 N   0  0  0  0  0  0  0  0  0  0  0  0
   58.2860   31.4540   46.3480 C   0  0  0  0  0  0  0  0  0  0  0  0
   59.1540   32.2530   47.1740 N   0  0  0  0  0  0  0  0  0  0  0  0
   58.5350   33.0810   48.2240 C   0  0  0  0  0  0  0  0  0  0  0  0
   58.5060   32.3380   49.5580 C   0  0  0  0  0  0  0  0  0  0  0  0
   59.4350   31.2750   49.5150 O   0  0  0  0  0  0  0  0  0  0  0  0
   59.1200   30.3400   50.5210 C   0  0  0  0  0  0  0  0  0  0  0  0
   60.5850   32.1730   46.9640 C   0  0  0  0  0  0  0  0  0  0  0  0
   61.0970   31.0580   46.6640 O   0  0  0  0  0  0  0  0  0  0  0  0
   61.4970   33.3740   47.1400 C   0  0  0  0  0  0  0  0  0  0  0  0
   61.5090   33.8500   48.5990 C   0  0  0  0  0  0  0  0  0  0  0  0
   62.9650   34.0960   48.9560 C   0  0  0  0  0  0  0  0  0  0  0  0
   63.7570   33.1640   48.0620 C   0  0  0  0  0  0  0  0  0  0  0  0
   62.9640   33.0870   46.7670 C   0  0  0  0  0  0  0  0  0  0  0  0
   57.4500   32.0770   45.4190 C   0  0  0  0  0  0  0  0  0  0  0  0
   57.4690   33.3290   45.2810 O   0  0  0  0  0  0  0  0  0  0  0  0
   56.6130   31.3350   44.6630 N   0  0  0  0  0  0  0  0  0  0  0  0
   56.5690   29.9860   44.7650 C   0  0  0  0  0  0  0  0  0  0  0  0
   55.7550   29.3520   44.0380 O   0  0  0  0  0  0  0  0  0  0  0  0
   57.0982   27.5373   43.2365 H   0  0  0  0  0  0  0  0  0  0  0  0
   58.7757   28.0909   42.9109 H   0  0  0  0  0  0  0  0  0  0  0  0
   58.3932   26.3358   42.9109 H   0  0  0  0  0  0  0  0  0  0  0  0
   58.6080   26.1845   45.1612 H   0  0  0  0  0  0  0  0  0  0  0  0
   59.3952   27.8106   45.0598 H   0  0  0  0  0  0  0  0  0  0  0  0
   56.3754   27.5029   45.3073 H   0  0  0  0  0  0  0  0  0  0  0  0
   57.4576   27.5303   46.7498 H   0  0  0  0  0  0  0  0  0  0  0  0
   58.9510   28.3760   47.6610 H   0  0  0  0  0  0  0  0  0  0  0  0
   59.8400   29.8720   47.9430 H   0  0  0  0  0  0  0  0  0  0  0  0
   59.1156   34.0080   48.3407 H   0  0  0  0  0  0  0  0  0  0  0  0
   57.5010   33.3100   47.9269 H   0  0  0  0  0  0  0  0  0  0  0  0
   58.7744   33.0292   50.3705 H   0  0  0  0  0  0  0  0  0  0  0  0
   57.4963   31.9408   49.7392 H   0  0  0  0  0  0  0  0  0  0  0  0
   59.2744   30.7984   51.5090 H   0  0  0  0  0  0  0  0  0  0  0  0
   58.0687   30.0326   50.4197 H   0  0  0  0  0  0  0  0  0  0  0  0
   59.7710   29.4591   50.4197 H   0  0  0  0  0  0  0  0  0  0  0  0
   61.0861   34.1369   46.4624 H   0  0  0  0  0  0  0  0  0  0  0  0
   60.9297   34.7795   48.7010 H   0  0  0  0  0  0  0  0  0  0  0  0
   61.0546   33.1032   49.2667 H   0  0  0  0  0  0  0  0  0  0  0  0
   63.2385   35.1433   48.7599 H   0  0  0  0  0  0  0  0  0  0  0  0
   63.1637   33.9102   50.0218 H   0  0  0  0  0  0  0  0  0  0  0  0
   64.7623   33.5697   47.8755 H   0  0  0  0  0  0  0  0  0  0  0  0
   63.8954   32.1733   48.5196 H   0  0  0  0  0  0  0  0  0  0  0  0
   63.3291   33.8387   46.0517 H   0  0  0  0  0  0  0  0  0  0  0  0
   63.0698   32.1007   46.2916 H   0  0  0  0  0  0  0  0  0  0  0  0
  1  2  1  0
  2  3  1  0
  3  4  1  0
  4  5  1  0
  5  6  1  0
  5  7  2  0
  7  8  1  0
  8  9  1  0
  9 10  1  0
 10 11  1  0
 11 12  1  0
  8 13  1  0
 13 14  2  0
 13 15  1  0
 15 16  1  0
 16 17  1  0
 17 18  1  0
 18 19  1  0
  7 20  1  0
 20 21  2  0
 20 22  1  0
 22 23  1  0
 23 24  2  0
 23  4  1  0
 19 15  1  0
  1 25  1  0
  1 26  1  0
  1 27  1  0
  2 28  1  0
  2 29  1  0
  3 30  1  0
  3 31  1  0
  6 32  1  0
  6 33  1  0
  9 34  1  0
  9 35  1  0
 10 36  1  0
 10 37  1  0
 12 38  1  0
 12 39  1  0
 12 40  1  0
 15 41  1  0
 16 42  1  0
 16 43  1  0
 17 44  1  0
 17 45  1  0
 18 46  1  0
 18 47  1  0
 19 48  1  0
 19 49  1  0
M  CHG  1  22  -1
M  END
>  <UniqueID>  (41) 
38

>  <SMILES>  (41) 
CCCn1c(N)c(N(CCOC)C(=O)C2CCCC2)c(=O)[n-]c1=O

>  <Energy>  (41) 
57.18933148274187

>  <Genealogy>  (41) 
CCCn1c(N)c(N(CCOC)C(=O)C2CCCC2)c(=O)[n-]c1=O (protonated)
CCCn1c(N)c(N(CCOC)C(=O)C2CCCC2)c(=O)[n-]c1=O (3D coordinates assigned)
CCCn1c(N)c(N(CCOC)C(=O)C2CCCC2)c(=O)[n-]c1=O (nonaromatic ring conformer: 57.18933148274187 kcal/mol)

>  <smiles>  (41) 
CCCn1c(N)c(N(CCOC)C(=O)C2CCCC2)c(=O)[nH]c1=O

>  <score_type>  (41) 
oracle

>  <origin>  (41) 
adg

>  <m_score__min__energy>  (41) 
-8.1899999999999995

>  <m_primary>  (41) 
energy

$$$$
42:0
     RDKit          3D

 94 98  0  0  0  0  0  0  0  0999 V2000
   62.9430   34.4960   50.5110 C   0  0  0  0  0  0  0  0  0  0  0  0
   63.8360   33.8350   49.4500 C   0  0  0  0  0  0  0  0  0  0  0  0
   63.0890   32.7960   48.7340 N   0  0  0  0  0  0  0  0  0  0  0  0
   62.6010   32.8550   47.4720 C   0  0  0  0  0  0  0  0  0  0  0  0
   62.7750   34.0440   46.5590 C   0  0  0  0  0  0  0  0  0  0  0  0
   61.8540   31.7350   47.1510 C   0  0  0  0  0  0  0  0  0  0  0  0
   61.9110   30.9640   48.2840 C   0  0  0  0  0  0  0  0  0  0  0  0
   61.2580   29.7530   48.5790 C   0  0  0  0  0  0  0  0  0  0  0  0
   61.4160   29.2200   49.8910 C   0  0  0  0  0  0  0  0  0  0  0  0
   60.6370   28.1150   50.1690 O   0  0  0  0  0  0  0  0  0  0  0  0
   60.3920   26.7600   49.8920 C   0  0  0  0  0  0  0  0  0  0  0  0
   59.9390   26.7840   48.4430 C   0  0  0  0  0  0  0  0  0  0  0  0
   61.0570   26.4790   47.6440 O   0  0  0  0  0  0  0  0  0  0  0  0
   60.8140   26.6920   46.2720 C   0  0  0  0  0  0  0  0  0  0  0  0
   59.4000   27.2180   46.1280 C   0  0  0  0  0  0  0  0  0  0  0  0
   58.5590   26.1660   45.7010 O   0  0  0  0  0  0  0  0  0  0  0  0
   57.3960   26.6840   45.0760 C   0  0  0  0  0  0  0  0  0  0  0  0
   57.0230   28.0360   45.7200 C   0  0  0  0  0  0  0  0  0  0  0  0
   56.1950   28.8770   44.9270 O   0  0  0  0  0  0  0  0  0  0  0  0
   56.6270   29.0140   43.5660 C   0  0  0  0  0  0  0  0  0  0  0  0
   56.6350   30.4620   43.0540 C   0  0  0  0  0  0  0  0  0  0  0  0
   57.4040   31.3210   43.9650 N   0  0  0  0  0  0  0  0  0  0  0  0
   58.0390   32.4500   43.5950 C   0  0  0  0  0  0  0  0  0  0  0  0
   58.2150   33.1980   44.7350 C   0  0  0  0  0  0  0  0  0  0  0  0
   58.7720   34.6010   44.8270 C   0  0  0  0  0  0  0  0  0  0  0  0
   59.6730   34.7960   46.0560 C   0  0  0  0  0  0  0  0  0  0  0  0
   58.9270   34.7580   47.3820 C   0  0  0  0  0  0  0  0  0  0  0  0
   59.8080   34.5910   48.6380 C   0  0  0  0  0  0  0  0  0  0  0  0
   59.5750   33.3860   49.4210 N   0  0  0  0  0  0  0  0  0  0  0  0
   59.6480   33.5450   50.8960 C   0  0  0  0  0  0  0  0  0  0  0  0
   59.8140   32.1950   51.5740 C   0  0  0  0  0  0  0  0  0  0  0  0
   58.7410   31.3090   51.1190 N   0  0  0  0  0  0  0  0  0  0  0  0
   57.8110   30.7630   52.0400 C   0  0  0  0  0  0  0  0  0  0  0  0
   57.9370   31.0840   53.4060 C   0  0  0  0  0  0  0  0  0  0  0  0
   56.8830   30.7840   54.2800 C   0  0  0  0  0  0  0  0  0  0  0  0
   55.7490   30.1500   53.7700 C   0  0  0  0  0  0  0  0  0  0  0  0
   55.6590   29.8350   52.4100 C   0  0  0  0  0  0  0  0  0  0  0  0
   56.6580   30.2270   51.5830 N   0  0  0  0  0  0  0  0  0  0  0  0
   58.5700   31.1110   49.6870 C   0  0  0  0  0  0  0  0  0  0  0  0
   58.5260   32.4450   48.9340 C   0  0  0  0  0  0  0  0  0  0  0  0
   57.6760   32.5290   45.7610 N   0  0  0  0  0  0  0  0  0  0  0  0
   57.1460   31.4340   45.2490 N   0  0  0  0  0  0  0  0  0  0  0  0
   62.2050   29.8730   50.8570 C   0  0  0  0  0  0  0  0  0  0  0  0
   62.8410   31.1020   50.5170 C   0  0  0  0  0  0  0  0  0  0  0  0
   62.6860   31.5990   49.2240 C   0  0  0  0  0  0  0  0  0  0  0  0
   63.3056   34.2276   51.5143 H   0  0  0  0  0  0  0  0  0  0  0  0
   62.9764   35.5887   50.3892 H   0  0  0  0  0  0  0  0  0  0  0  0
   61.9077   34.1449   50.3892 H   0  0  0  0  0  0  0  0  0  0  0  0
   64.1743   34.5980   48.7335 H   0  0  0  0  0  0  0  0  0  0  0  0
   64.7029   33.3752   49.9470 H   0  0  0  0  0  0  0  0  0  0  0  0
   62.9081   34.9537   47.1630 H   0  0  0  0  0  0  0  0  0  0  0  0
   63.6605   33.8924   45.9243 H   0  0  0  0  0  0  0  0  0  0  0  0
   61.8832   34.1525   45.9243 H   0  0  0  0  0  0  0  0  0  0  0  0
   61.3351   31.5144   46.2065 H   0  0  0  0  0  0  0  0  0  0  0  0
   60.6474   29.2363   47.8239 H   0  0  0  0  0  0  0  0  0  0  0  0
   61.3067   26.1606   50.0104 H   0  0  0  0  0  0  0  0  0  0  0  0
   59.6540   26.3057   50.5694 H   0  0  0  0  0  0  0  0  0  0  0  0
   59.1488   26.0354   48.2843 H   0  0  0  0  0  0  0  0  0  0  0  0
   59.5339   27.7724   48.1805 H   0  0  0  0  0  0  0  0  0  0  0  0
   61.5291   27.4276   45.8751 H   0  0  0  0  0  0  0  0  0  0  0  0
   60.9339   25.7538   45.7104 H   0  0  0  0  0  0  0  0  0  0  0  0
   59.0484   27.6009   47.0974 H   0  0  0  0  0  0  0  0  0  0  0  0
   59.3801   28.0328   45.3893 H   0  0  0  0  0  0  0  0  0  0  0  0
   57.5908   26.8304   44.0033 H   0  0  0  0  0  0  0  0  0  0  0  0
   56.5646   25.9753   45.2050 H   0  0  0  0  0  0  0  0  0  0  0  0
   56.4948   27.8296   46.6626 H   0  0  0  0  0  0  0  0  0  0  0  0
   57.9691   28.5803   45.8562 H   0  0  0  0  0  0  0  0  0  0  0  0
   57.6483   28.6134   43.4856 H   0  0  0  0  0  0  0  0  0  0  0  0
   55.9046   28.4622   42.9466 H   0  0  0  0  0  0  0  0  0  0  0  0
   57.0934   30.4909   42.0545 H   0  0  0  0  0  0  0  0  0  0  0  0
   55.5994   30.8296   43.0045 H   0  0  0  0  0  0  0  0  0  0  0  0
   58.3556   32.7211   42.5770 H   0  0  0  0  0  0  0  0  0  0  0  0
   59.3612   34.8069   43.9212 H   0  0  0  0  0  0  0  0  0  0  0  0
   57.9221   35.2928   44.9221 H   0  0  0  0  0  0  0  0  0  0  0  0
   60.4288   33.9968   46.0612 H   0  0  0  0  0  0  0  0  0  0  0  0
   60.1175   35.7984   45.9692 H   0  0  0  0  0  0  0  0  0  0  0  0
   58.3684   35.7002   47.4832 H   0  0  0  0  0  0  0  0  0  0  0  0
   58.2874   33.8640   47.3420 H   0  0  0  0  0  0  0  0  0  0  0  0
   60.8592   34.5848   48.3142 H   0  0  0  0  0  0  0  0  0  0  0  0
   59.5476   35.4310   49.2988 H   0  0  0  0  0  0  0  0  0  0  0  0
   60.5072   34.1839   51.1483 H   0  0  0  0  0  0  0  0  0  0  0  0
   58.7134   34.0055   51.2488 H   0  0  0  0  0  0  0  0  0  0  0  0
   60.7897   31.7633   51.3063 H   0  0  0  0  0  0  0  0  0  0  0  0
   59.7650   32.3144   52.6664 H   0  0  0  0  0  0  0  0  0  0  0  0
   58.8521   31.5646   53.7824 H   0  0  0  0  0  0  0  0  0  0  0  0
   56.9483   31.0432   55.3470 H   0  0  0  0  0  0  0  0  0  0  0  0
   54.9178   29.8955   54.4441 H   0  0  0  0  0  0  0  0  0  0  0  0
   54.7936   29.2796   52.0194 H   0  0  0  0  0  0  0  0  0  0  0  0
   59.4117   30.5138   49.3062 H   0  0  0  0  0  0  0  0  0  0  0  0
   57.6141   30.5920   49.5233 H   0  0  0  0  0  0  0  0  0  0  0  0
   58.6865   32.2553   47.8624 H   0  0  0  0  0  0  0  0  0  0  0  0
   57.5427   32.9061   49.1089 H   0  0  0  0  0  0  0  0  0  0  0  0
   62.3288   29.4403   51.8607 H   0  0  0  0  0  0  0  0  0  0  0  0
   63.4419   31.6473   51.2597 H   0  0  0  0  0  0  0  0  0  0  0  0
  1  2  1  0
  2  3  1  0
  3  4  1  0
  4  5  1  0
  4  6  2  0
  6  7  1  0
  7  8  2  0
  8  9  1  0
  9 10  1  0
 10 11  1  0
 11 12  1  0
 12 13  1  0
 13 14  1  0
 14 15  1  0
 15 16  1  0
 16 17  1  0
 17 18  1  0
 18 19  1  0
 19 20  1  0
 20 21  1  0
 21 22  1  0
 22 23  1  0
 23 24  2  0
 24 25  1  0
 25 26  1  0
 26 27  1  0
 27 28  1  0
 28 29  1  0
 29 30  1  0
 30 31  1  0
 31 32  1  0
 32 33  1  0
 33 34  2  0
 34 35  1  0
 35 36  2  0
 36 37  1  0
 37 38  2  0
 32 39  1  0
 39 40  1  0
 24 41  1  0
 41 42  2  0
  9 43  2  0
 43 44  1  0
 44 45  2  0
 45  3  1  0
 45  7  1  0
 42 22  1  0
 40 29  1  0
 38 33  1  0
  1 46  1  0
  1 47  1  0
  1 48  1  0
  2 49  1  0
  2 50  1  0
  5 51  1  0
  5 52  1  0
  5 53  1  0
  6 54  1  0
  8 55  1  0
 11 56  1  0
 11 57  1  0
 12 58  1  0
 12 59  1  0
 14 60  1  0
 14 61  1  0
 15 62  1  0
 15 63  1  0
 17 64  1  0
 17 65  1  0
 18 66  1  0
 18 67  1  0
 20 68  1  0
 20 69  1  0
 21 70  1  0
 21 71  1  0
 23 72  1  0
 25 73  1  0
 25 74  1  0
 26 75  1  0
 26 76  1  0
 27 77  1  0
 27 78  1  0
 28 79  1  0
 28 80  1  0
 30 81  1  0
 30 82  1  0
 31 83  1  0
 31 84  1  0
 34 85  1  0
 35 86  1  0
 36 87  1  0
 37 88  1  0
 39 89  1  0
 39 90  1  0
 40 91  1  0
 40 92  1  0
 43 93  1  0
 44 94  1  0
M  END
>  <UniqueID>  (42) 
39

>  <SMILES>  (42) 
CCn1c(C)cc2cc(OCCOCCOCCOCCn3cc(CCCCN4CCN(c5ccccn5)CC4)nn3)ccc21

>  <Energy>  (42) 
227.52367629051292

>  <Genealogy>  (42) 
CCn1c(C)cc2cc(OCCOCCOCCOCCn3cc(CCCCN4CCN(c5ccccn5)CC4)nn3)ccc21 (3D coordinates assigned)
CCn1c(C)cc2cc(OCCOCCOCCOCCn3cc(CCCCN4CCN(c5ccccn5)CC4)nn3)ccc21 (nonaromatic ring conformer: 227.52367629051292 kcal/mol)

>  <smiles>  (42) 
CCn1c(C)cc2cc(OCCOCCOCCOCCn3cc(CCCCN4CCN(c5ccccn5)CC4)nn3)ccc21

>  <score_type>  (42) 
oracle

>  <origin>  (42) 
adg

>  <m_score__min__energy>  (42) 
-8.7799999999999994

>  <m_primary>  (42) 
energy

$$$$
43:0
     RDKit          3D

 59 63  0  0  0  0  0  0  0  0999 V2000
   64.6860   31.5690   50.2820 O   0  0  0  0  0  0  0  0  0  0  0  0
   63.5600   31.8510   49.7850 C   0  0  0  0  0  0  0  0  0  0  0  0
   63.2700   33.2820   49.4200 C   0  0  0  0  0  0  0  0  0  0  0  0
   61.9140   33.7430   49.7600 N   0  0  0  0  0  0  0  0  0  0  0  0
   60.9730   34.1030   48.8360 C   0  0  0  0  0  0  0  0  0  0  0  0
   61.2930   34.2040   47.0600 S   0  0  0  0  0  0  0  0  0  0  0  0
   59.6330   34.7820   46.5600 C   0  0  0  0  0  0  0  0  0  0  0  0
   58.7790   33.6850   45.9860 C   0  0  0  0  0  0  0  0  0  0  0  0
   58.0770   33.8840   44.7870 C   0  0  0  0  0  0  0  0  0  0  0  0
   57.4220   32.8140   44.1650 C   0  0  0  0  0  0  0  0  0  0  0  0
   57.4510   31.5420   44.7480 C   0  0  0  0  0  0  0  0  0  0  0  0
   56.6100   30.0640   43.8780 Br  0  0  0  0  0  0  0  0  0  0  0  0
   58.0920   31.3540   45.9760 C   0  0  0  0  0  0  0  0  0  0  0  0
   58.7520   32.4190   46.5950 C   0  0  0  0  0  0  0  0  0  0  0  0
   59.7290   34.2140   49.3610 N   0  0  0  0  0  0  0  0  0  0  0  0
   59.8890   33.9210   50.6580 C   0  0  0  0  0  0  0  0  0  0  0  0
   58.8990   33.8460   51.6360 C   0  0  0  0  0  0  0  0  0  0  0  0
   59.2810   33.4200   52.9200 C   0  0  0  0  0  0  0  0  0  0  0  0
   60.6190   33.0620   53.1830 C   0  0  0  0  0  0  0  0  0  0  0  0
   61.5970   33.1500   52.1730 C   0  0  0  0  0  0  0  0  0  0  0  0
   61.2000   33.6070   50.9080 C   0  0  0  0  0  0  0  0  0  0  0  0
   62.5420   30.8360   49.7250 N   0  0  0  0  0  0  0  0  0  0  0  0
   62.4340   29.8860   50.8460 C   0  0  0  0  0  0  0  0  0  0  0  0
   61.1030   29.1290   50.8180 C   0  0  0  0  0  0  0  0  0  0  0  0
   60.0260   30.0460   50.4210 N   0  0  0  0  0  0  0  0  0  0  0  0
   58.9040   30.2940   51.2890 C   0  0  0  0  0  0  0  0  0  0  0  0
   57.7800   30.9980   50.8150 C   0  0  0  0  0  0  0  0  0  0  0  0
   56.6730   31.1960   51.6460 C   0  0  0  0  0  0  0  0  0  0  0  0
   56.6840   30.7060   52.9540 C   0  0  0  0  0  0  0  0  0  0  0  0
   57.7980   30.0070   53.4330 C   0  0  0  0  0  0  0  0  0  0  0  0
   58.9030   29.8050   52.6040 C   0  0  0  0  0  0  0  0  0  0  0  0
   60.1510   30.8210   49.1760 C   0  0  0  0  0  0  0  0  0  0  0  0
   61.5760   30.7630   48.6180 C   0  0  0  0  0  0  0  0  0  0  0  0
   63.9917   33.9228   49.9478 H   0  0  0  0  0  0  0  0  0  0  0  0
   63.3532   33.3453   48.3250 H   0  0  0  0  0  0  0  0  0  0  0  0
   59.1250   35.1964   47.4433 H   0  0  0  0  0  0  0  0  0  0  0  0
   59.7702   35.5389   45.7737 H   0  0  0  0  0  0  0  0  0  0  0  0
   58.0412   34.8856   44.3336 H   0  0  0  0  0  0  0  0  0  0  0  0
   56.8848   32.9732   43.2184 H   0  0  0  0  0  0  0  0  0  0  0  0
   58.0768   30.3646   46.4566 H   0  0  0  0  0  0  0  0  0  0  0  0
   59.2522   32.2656   47.5626 H   0  0  0  0  0  0  0  0  0  0  0  0
   58.8350   34.4310   48.8650 H   0  0  0  0  0  0  0  0  0  0  0  0
   57.8553   34.1109   51.4111 H   0  0  0  0  0  0  0  0  0  0  0  0
   58.5320   33.3657   53.7238 H   0  0  0  0  0  0  0  0  0  0  0  0
   60.9019   32.7107   54.1863 H   0  0  0  0  0  0  0  0  0  0  0  0
   62.6418   32.8684   52.3708 H   0  0  0  0  0  0  0  0  0  0  0  0
   63.2585   29.1608   50.7799 H   0  0  0  0  0  0  0  0  0  0  0  0
   62.4858   30.4556   51.7856 H   0  0  0  0  0  0  0  0  0  0  0  0
   61.1663   28.3028   50.0946 H   0  0  0  0  0  0  0  0  0  0  0  0
   60.8901   28.7249   51.8187 H   0  0  0  0  0  0  0  0  0  0  0  0
   57.7730   31.3931   49.7884 H   0  0  0  0  0  0  0  0  0  0  0  0
   55.7930   31.7380   51.2694 H   0  0  0  0  0  0  0  0  0  0  0  0
   55.8155   30.8698   53.6089 H   0  0  0  0  0  0  0  0  0  0  0  0
   57.8029   29.6172   54.4616 H   0  0  0  0  0  0  0  0  0  0  0  0
   59.7787   29.2588   52.9844 H   0  0  0  0  0  0  0  0  0  0  0  0
   59.4574   30.4095   48.4279 H   0  0  0  0  0  0  0  0  0  0  0  0
   59.9104   31.8711   49.3982 H   0  0  0  0  0  0  0  0  0  0  0  0
   61.7168   29.8193   48.0707 H   0  0  0  0  0  0  0  0  0  0  0  0
   61.7365   31.6112   47.9362 H   0  0  0  0  0  0  0  0  0  0  0  0
  1  2  2  0
  2  3  1  0
  3  4  1  0
  4  5  1  0
  5  6  1  0
  6  7  1  0
  7  8  1  0
  8  9  2  0
  9 10  1  0
 10 11  2  0
 11 12  1  0
 11 13  1  0
 13 14  2  0
  5 15  2  0
 15 16  1  0
 16 17  2  0
 17 18  1  0
 18 19  2  0
 19 20  1  0
 20 21  2  0
  2 22  1  0
 22 23  1  0
 23 24  1  0
 24 25  1  0
 25 26  1  0
 26 27  2  0
 27 28  1  0
 28 29  2  0
 29 30  1  0
 30 31  2  0
 25 32  1  0
 32 33  1  0
 21  4  1  0
 33 22  1  0
 14  8  1  0
 21 16  1  0
 31 26  1  0
  3 34  1  0
  3 35  1  0
  7 36  1  0
  7 37  1  0
  9 38  1  0
 10 39  1  0
 13 40  1  0
 14 41  1  0
 15 42  1  0
 17 43  1  0
 18 44  1  0
 19 45  1  0
 20 46  1  0
 23 47  1  0
 23 48  1  0
 24 49  1  0
 24 50  1  0
 27 51  1  0
 28 52  1  0
 29 53  1  0
 30 54  1  0
 31 55  1  0
 32 56  1  0
 32 57  1  0
 33 58  1  0
 33 59  1  0
M  CHG  1  15   1
M  END
>  <UniqueID>  (43) 
40

>  <SMILES>  (43) 
O=C(Cn1c(SCc2ccc(Br)cc2)[nH+]c2ccccc21)N1CCN(c2ccccc2)CC1

>  <Energy>  (43) 
109.65749552248633

>  <Genealogy>  (43) 
O=C(Cn1c(SCc2ccc(Br)cc2)[nH+]c2ccccc21)N1CCN(c2ccccc2)CC1 (protonated)
O=C(Cn1c(SCc2ccc(Br)cc2)[nH+]c2ccccc21)N1CCN(c2ccccc2)CC1 (3D coordinates assigned)
O=C(Cn1c(SCc2ccc(Br)cc2)[nH+]c2ccccc21)N1CCN(c2ccccc2)CC1 (nonaromatic ring conformer: 109.65749552248633 kcal/mol)

>  <smiles>  (43) 
O=C(Cn1c(SCc2ccc(Br)cc2)nc2ccccc21)N1CCN(c2ccccc2)CC1

>  <score_type>  (43) 
oracle

>  <origin>  (43) 
adg

>  <m_score__min__energy>  (43) 
-8.4499999999999993

>  <m_primary>  (43) 
energy

$$$$
44:0
     RDKit          3D

 52 54  0  0  0  0  0  0  0  0999 V2000
   61.8040   33.7860   50.1060 C   0  0  0  0  0  0  0  0  0  0  0  0
   61.6060   34.5320   48.9100 O   0  0  0  0  0  0  0  0  0  0  0  0
   60.6200   34.2500   47.9510 C   0  0  0  0  0  0  0  0  0  0  0  0
   59.2510   34.2230   48.2730 C   0  0  0  0  0  0  0  0  0  0  0  0
   58.3000   33.9290   47.2950 C   0  0  0  0  0  0  0  0  0  0  0  0
   58.6980   33.6590   45.9790 C   0  0  0  0  0  0  0  0  0  0  0  0
   57.6760   33.2960   44.9330 C   0  0  0  0  0  0  0  0  0  0  0  0
   57.9690   31.9370   44.2860 C   0  0  0  0  0  0  0  0  0  0  0  0
   57.3690   30.8380   45.0840 N   0  0  0  0  0  0  0  0  0  0  0  0
   56.2300   30.2370   44.3650 C   0  0  0  0  0  0  0  0  0  0  0  0
   58.3800   29.8090   45.4110 C   0  0  0  0  0  0  0  0  0  0  0  0
   59.1710   30.1790   46.6420 C   0  0  0  0  0  0  0  0  0  0  0  0
   60.5700   30.2020   46.6080 C   0  0  0  0  0  0  0  0  0  0  0  0
   61.2750   30.5190   47.7240 N   0  0  0  0  0  0  0  0  0  0  0  0
   60.6640   30.8270   48.8980 C   0  0  0  0  0  0  0  0  0  0  0  0
   59.2610   30.8250   48.9900 C   0  0  0  0  0  0  0  0  0  0  0  0
   58.5640   31.1350   50.2640 C   0  0  0  0  0  0  0  0  0  0  0  0
   58.6890   32.3890   50.8890 C   0  0  0  0  0  0  0  0  0  0  0  0
   58.0110   32.6330   52.0860 C   0  0  0  0  0  0  0  0  0  0  0  0
   57.2150   31.6360   52.6510 C   0  0  0  0  0  0  0  0  0  0  0  0
   57.1030   30.4060   52.0030 C   0  0  0  0  0  0  0  0  0  0  0  0
   57.7690   30.1860   50.8380 N   0  0  0  0  0  0  0  0  0  0  0  0
   58.5210   30.4860   47.8450 C   0  0  0  0  0  0  0  0  0  0  0  0
   60.0620   33.6950   45.6510 C   0  0  0  0  0  0  0  0  0  0  0  0
   61.0280   33.9860   46.6330 C   0  0  0  0  0  0  0  0  0  0  0  0
   62.4010   34.0180   46.3430 O   0  0  0  0  0  0  0  0  0  0  0  0
   63.3680   33.1480   46.9220 C   0  0  0  0  0  0  0  0  0  0  0  0
   61.6315   34.4361   50.9764 H   0  0  0  0  0  0  0  0  0  0  0  0
   61.0987   32.9423   50.1329 H   0  0  0  0  0  0  0  0  0  0  0  0
   62.8349   33.4031   50.1329 H   0  0  0  0  0  0  0  0  0  0  0  0
   58.9278   34.4351   49.3028 H   0  0  0  0  0  0  0  0  0  0  0  0
   57.2322   33.9091   47.5586 H   0  0  0  0  0  0  0  0  0  0  0  0
   56.6835   33.2570   45.4056 H   0  0  0  0  0  0  0  0  0  0  0  0
   57.7130   34.0614   44.1438 H   0  0  0  0  0  0  0  0  0  0  0  0
   57.5443   31.9206   43.2714 H   0  0  0  0  0  0  0  0  0  0  0  0
   59.0585   31.7914   44.2449 H   0  0  0  0  0  0  0  0  0  0  0  0
   55.4997   29.8517   45.0918 H   0  0  0  0  0  0  0  0  0  0  0  0
   55.7513   30.9999   43.7335 H   0  0  0  0  0  0  0  0  0  0  0  0
   56.5896   29.4112   43.7335 H   0  0  0  0  0  0  0  0  0  0  0  0
   57.8696   28.8510   45.5892 H   0  0  0  0  0  0  0  0  0  0  0  0
   59.0777   29.7308   44.5642 H   0  0  0  0  0  0  0  0  0  0  0  0
   61.0999   29.9625   45.6742 H   0  0  0  0  0  0  0  0  0  0  0  0
   61.2700   31.0791   49.7807 H   0  0  0  0  0  0  0  0  0  0  0  0
   59.3163   33.1722   50.4384 H   0  0  0  0  0  0  0  0  0  0  0  0
   58.1046   33.6101   52.5825 H   0  0  0  0  0  0  0  0  0  0  0  0
   56.6822   31.8179   53.5960 H   0  0  0  0  0  0  0  0  0  0  0  0
   56.4751   29.6128   52.4349 H   0  0  0  0  0  0  0  0  0  0  0  0
   57.4223   30.4613   47.8931 H   0  0  0  0  0  0  0  0  0  0  0  0
   60.3793   33.4940   44.6171 H   0  0  0  0  0  0  0  0  0  0  0  0
   63.3035   33.2060   48.0186 H   0  0  0  0  0  0  0  0  0  0  0  0
   63.1731   32.1152   46.5974 H   0  0  0  0  0  0  0  0  0  0  0  0
   64.3745   33.4506   46.5974 H   0  0  0  0  0  0  0  0  0  0  0  0
  1  2  1  0
  2  3  1  0
  3  4  2  0
  4  5  1  0
  5  6  2  0
  6  7  1  0
  7  8  1  0
  8  9  1  0
  9 10  1  0
  9 11  1  0
 11 12  1  0
 12 13  2  0
 13 14  1  0
 14 15  2  0
 15 16  1  0
 16 17  1  0
 17 18  2  0
 18 19  1  0
 19 20  2  0
 20 21  1  0
 21 22  2  0
 16 23  2  0
  6 24  1  0
 24 25  2  0
 25 26  1  0
 26 27  1  0
 25  3  1  0
 23 12  1  0
 22 17  1  0
  1 28  1  0
  1 29  1  0
  1 30  1  0
  4 31  1  0
  5 32  1  0
  7 33  1  0
  7 34  1  0
  8 35  1  0
  8 36  1  0
 10 37  1  0
 10 38  1  0
 10 39  1  0
 11 40  1  0
 11 41  1  0
 13 42  1  0
 15 43  1  0
 18 44  1  0
 19 45  1  0
 20 46  1  0
 21 47  1  0
 23 48  1  0
 24 49  1  0
 27 50  1  0
 27 51  1  0
 27 52  1  0
M  END
>  <UniqueID>  (44) 
41

>  <SMILES>  (44) 
COc1ccc(CCN(C)Cc2cncc(-c3ccccn3)c2)cc1OC

>  <Energy>  (44) 
57.6376898758759

>  <Genealogy>  (44) 
COc1ccc(CCN(C)Cc2cncc(-c3ccccn3)c2)cc1OC (3D coordinates assigned)
COc1ccc(CCN(C)Cc2cncc(-c3ccccn3)c2)cc1OC (optimized conformer: 57.6376898758759 kcal/mol)

>  <smiles>  (44) 
COc1ccc(CCN(C)Cc2cncc(-c3ccccn3)c2)cc1OC

>  <score_type>  (44) 
oracle

>  <origin>  (44) 
adg

>  <m_score__min__energy>  (44) 
-7.8399999999999999

>  <m_primary>  (44) 
energy

$$$$
45:0
     RDKit          3D

 63 66  0  0  0  0  0  0  0  0999 V2000
   60.2090   27.1200   48.6170 C   0  0  0  0  0  0  0  0  0  0  0  0
   59.3930   26.9690   47.3630 C   0  0  0  0  0  0  0  0  0  0  0  0
   59.6360   25.9000   46.4890 C   0  0  0  0  0  0  0  0  0  0  0  0
   58.8990   25.7700   45.3130 C   0  0  0  0  0  0  0  0  0  0  0  0
   57.9090   26.6980   45.0010 C   0  0  0  0  0  0  0  0  0  0  0  0
   57.6530   27.7820   45.8580 C   0  0  0  0  0  0  0  0  0  0  0  0
   56.6000   28.7170   45.5790 N   0  0  0  0  0  0  0  0  0  0  0  0
   56.4630   29.6640   44.1330 S   0  0  0  0  0  0  0  0  0  0  0  0
   57.0260   28.8880   42.9760 O   0  0  0  0  0  0  0  0  0  0  0  0
   55.0130   29.9540   43.8720 O   0  0  0  0  0  0  0  0  0  0  0  0
   57.3170   31.1900   44.3430 C   0  0  0  0  0  0  0  0  0  0  0  0
   57.8070   31.8890   43.2320 C   0  0  0  0  0  0  0  0  0  0  0  0
   58.5070   33.0860   43.4050 C   0  0  0  0  0  0  0  0  0  0  0  0
   58.7220   33.5990   44.6920 C   0  0  0  0  0  0  0  0  0  0  0  0
   59.4260   34.7990   44.8770 C   0  0  0  0  0  0  0  0  0  0  0  0
   59.6320   35.2990   46.1660 C   0  0  0  0  0  0  0  0  0  0  0  0
   59.1380   34.6090   47.2770 C   0  0  0  0  0  0  0  0  0  0  0  0
   58.4360   33.4140   47.1060 C   0  0  0  0  0  0  0  0  0  0  0  0
   58.2210   32.9010   45.8170 C   0  0  0  0  0  0  0  0  0  0  0  0
   57.5190   31.7010   45.6320 C   0  0  0  0  0  0  0  0  0  0  0  0
   58.4170   27.9280   47.0380 C   0  0  0  0  0  0  0  0  0  0  0  0
   58.2210   29.0040   47.9140 O   0  0  0  0  0  0  0  0  0  0  0  0
   59.0440   30.1690   47.9550 C   0  0  0  0  0  0  0  0  0  0  0  0
   60.2560   29.9840   47.0420 C   0  0  0  0  0  0  0  0  0  0  0  0
   60.9180   31.3390   46.6920 C   0  0  0  0  0  0  0  0  0  0  0  0
   62.2060   31.6010   47.3870 N   0  0  0  0  0  0  0  0  0  0  0  0
   62.6810   32.9940   47.1870 C   0  0  0  0  0  0  0  0  0  0  0  0
   63.7880   33.3500   48.1920 C   0  0  0  0  0  0  0  0  0  0  0  0
   63.3220   33.2540   49.5990 N   0  0  0  0  0  0  0  0  0  0  0  0
   63.0300   34.5830   50.1570 C   0  0  0  0  0  0  0  0  0  0  0  0
   62.1620   32.3510   49.7850 C   0  0  0  0  0  0  0  0  0  0  0  0
   62.2130   31.1620   48.8110 C   0  0  0  0  0  0  0  0  0  0  0  0
   59.5575   26.9994   49.4951 H   0  0  0  0  0  0  0  0  0  0  0  0
   60.9966   26.3524   48.6366 H   0  0  0  0  0  0  0  0  0  0  0  0
   60.6698   28.1187   48.6366 H   0  0  0  0  0  0  0  0  0  0  0  0
   60.4124   25.1599   46.7326 H   0  0  0  0  0  0  0  0  0  0  0  0
   59.1001   24.9319   44.6295 H   0  0  0  0  0  0  0  0  0  0  0  0
   57.3231   26.5819   44.0773 H   0  0  0  0  0  0  0  0  0  0  0  0
   57.6399   31.4938   42.2191 H   0  0  0  0  0  0  0  0  0  0  0  0
   58.8908   33.6279   42.5280 H   0  0  0  0  0  0  0  0  0  0  0  0
   59.8162   35.3467   44.0065 H   0  0  0  0  0  0  0  0  0  0  0  0
   60.1851   36.2393   46.3068 H   0  0  0  0  0  0  0  0  0  0  0  0
   59.3027   35.0085   48.2886 H   0  0  0  0  0  0  0  0  0  0  0  0
   58.0507   32.8735   47.9831 H   0  0  0  0  0  0  0  0  0  0  0  0
   57.1248   31.1580   46.5036 H   0  0  0  0  0  0  0  0  0  0  0  0
   58.4618   31.0386   47.6162 H   0  0  0  0  0  0  0  0  0  0  0  0
   59.3898   30.3312   48.9865 H   0  0  0  0  0  0  0  0  0  0  0  0
   60.9937   29.3476   47.5526 H   0  0  0  0  0  0  0  0  0  0  0  0
   59.9141   29.5164   46.1069 H   0  0  0  0  0  0  0  0  0  0  0  0
   61.1036   31.3594   45.6080 H   0  0  0  0  0  0  0  0  0  0  0  0
   60.2203   32.1206   47.0273 H   0  0  0  0  0  0  0  0  0  0  0  0
   62.9040   30.9920   46.8970 H   0  0  0  0  0  0  0  0  0  0  0  0
   63.0766   33.0957   46.1656 H   0  0  0  0  0  0  0  0  0  0  0  0
   61.8339   33.6781   47.3430 H   0  0  0  0  0  0  0  0  0  0  0  0
   64.6309   32.6576   48.0502 H   0  0  0  0  0  0  0  0  0  0  0  0
   64.0892   34.3916   48.0069 H   0  0  0  0  0  0  0  0  0  0  0  0
   63.0416   34.5300   51.2557 H   0  0  0  0  0  0  0  0  0  0  0  0
   63.7922   35.2992   49.8164 H   0  0  0  0  0  0  0  0  0  0  0  0
   62.0378   34.9138   49.8164 H   0  0  0  0  0  0  0  0  0  0  0  0
   62.1680   31.9689   50.8165 H   0  0  0  0  0  0  0  0  0  0  0  0
   61.2436   32.9224   49.5851 H   0  0  0  0  0  0  0  0  0  0  0  0
   63.1320   30.5880   49.0003 H   0  0  0  0  0  0  0  0  0  0  0  0
   61.3160   30.5481   48.9798 H   0  0  0  0  0  0  0  0  0  0  0  0
  1  2  1  0
  2  3  2  0
  3  4  1  0
  4  5  2  0
  5  6  1  0
  6  7  1  0
  7  8  1  0
  8  9  2  0
  8 10  2  0
  8 11  1  0
 11 12  2  0
 12 13  1  0
 13 14  2  0
 14 15  1  0
 15 16  2  0
 16 17  1  0
 17 18  2  0
 18 19  1  0
 19 20  2  0
  6 21  2  0
 21 22  1  0
 22 23  1  0
 23 24  1  0
 24 25  1  0
 25 26  1  0
 26 27  1  0
 27 28  1  0
 28 29  1  0
 29 30  1  0
 29 31  1  0
 31 32  1  0
 21  2  1  0
 32 26  1  0
 20 11  1  0
 19 14  1  0
  1 33  1  0
  1 34  1  0
  1 35  1  0
  3 36  1  0
  4 37  1  0
  5 38  1  0
 12 39  1  0
 13 40  1  0
 15 41  1  0
 16 42  1  0
 17 43  1  0
 18 44  1  0
 20 45  1  0
 23 46  1  0
 23 47  1  0
 24 48  1  0
 24 49  1  0
 25 50  1  0
 25 51  1  0
 26 52  1  0
 27 53  1  0
 27 54  1  0
 28 55  1  0
 28 56  1  0
 30 57  1  0
 30 58  1  0
 30 59  1  0
 31 60  1  0
 31 61  1  0
 32 62  1  0
 32 63  1  0
M  CHG  2   7  -1  26   1
M  END
>  <UniqueID>  (45) 
42

>  <SMILES>  (45) 
Cc1cccc([N-]S(=O)(=O)c2ccc3ccccc3c2)c1OCCC[NH+]1CCN(C)CC1

>  <Energy>  (45) 
89.30342432013462

>  <Genealogy>  (45) 
Cc1cccc([N-]S(=O)(=O)c2ccc3ccccc3c2)c1OCCC[NH+]1CCN(C)CC1 (protonated)
Cc1cccc([N-]S(=O)(=O)c2ccc3ccccc3c2)c1OCCC[NH+]1CCN(C)CC1 (3D coordinates assigned)
Cc1cccc([N-]S(=O)(=O)c2ccc3ccccc3c2)c1OCCC[NH+]1CCN(C)CC1 (nonaromatic ring conformer: 89.30342432013462 kcal/mol)

>  <smiles>  (45) 
Cc1cccc(NS(=O)(=O)c2ccc3ccccc3c2)c1OCCCN1CCN(C)CC1

>  <score_type>  (45) 
oracle

>  <origin>  (45) 
adg

>  <m_score__min__energy>  (45) 
-9.6500000000000004

>  <m_primary>  (45) 
energy

$$$$
46:0
     RDKit          3D

 55 59  0  0  0  0  0  0  0  0999 V2000
   61.8920   30.4780   46.7650 O   0  0  0  0  0  0  0  0  0  0  0  0
   61.3120   30.9600   47.7770 C   0  0  0  0  0  0  0  0  0  0  0  0
   59.8460   30.6720   47.9940 C   0  0  0  0  0  0  0  0  0  0  0  0
   59.0750   30.8470   46.7400 N   0  0  0  0  0  0  0  0  0  0  0  0
   58.5100   29.7320   46.1580 C   0  0  0  0  0  0  0  0  0  0  0  0
   58.6190   28.5910   46.6870 O   0  0  0  0  0  0  0  0  0  0  0  0
   57.8040   29.8690   44.9660 C   0  0  0  0  0  0  0  0  0  0  0  0
   57.1820   28.8850   44.2220 C   0  0  0  0  0  0  0  0  0  0  0  0
   56.6230   29.5350   43.1350 C   0  0  0  0  0  0  0  0  0  0  0  0
   56.9260   30.8810   43.2670 C   0  0  0  0  0  0  0  0  0  0  0  0
   57.6510   31.0690   44.3920 N   0  0  0  0  0  0  0  0  0  0  0  0
   58.1580   32.2080   44.9400 C   0  0  0  0  0  0  0  0  0  0  0  0
   57.9670   33.4660   44.3400 C   0  0  0  0  0  0  0  0  0  0  0  0
   58.4750   34.6160   44.9420 C   0  0  0  0  0  0  0  0  0  0  0  0
   59.1690   34.5290   46.1440 C   0  0  0  0  0  0  0  0  0  0  0  0
   59.3730   33.2910   46.7540 C   0  0  0  0  0  0  0  0  0  0  0  0
   58.8860   32.1000   46.1640 C   0  0  0  0  0  0  0  0  0  0  0  0
   62.0700   31.7620   48.7100 N   0  0  0  0  0  0  0  0  0  0  0  0
   61.5960   32.0050   50.0770 C   0  0  0  0  0  0  0  0  0  0  0  0
   62.7730   32.0780   51.0730 C   0  0  0  0  0  0  0  0  0  0  0  0
   63.9880   32.7860   50.5600 N   0  0  0  0  0  0  0  0  0  0  0  0
   64.5160   33.7550   51.5570 C   0  0  0  0  0  0  0  0  0  0  0  0
   66.0040   33.9820   51.3890 C   0  0  0  0  0  0  0  0  0  0  0  0
   66.7860   33.0860   50.6420 C   0  0  0  0  0  0  0  0  0  0  0  0
   68.1610   33.3050   50.4930 C   0  0  0  0  0  0  0  0  0  0  0  0
   68.7630   34.4210   51.0850 C   0  0  0  0  0  0  0  0  0  0  0  0
   67.9920   35.3160   51.8300 C   0  0  0  0  0  0  0  0  0  0  0  0
   66.6170   35.0990   51.9840 C   0  0  0  0  0  0  0  0  0  0  0  0
   63.7600   33.4750   49.2720 C   0  0  0  0  0  0  0  0  0  0  0  0
   63.2440   32.4920   48.2180 C   0  0  0  0  0  0  0  0  0  0  0  0
   59.7317   29.6354   48.3440 H   0  0  0  0  0  0  0  0  0  0  0  0
   59.4589   31.3786   48.7429 H   0  0  0  0  0  0  0  0  0  0  0  0
   57.1397   27.8090   44.4466 H   0  0  0  0  0  0  0  0  0  0  0  0
   56.0473   29.0710   42.3206 H   0  0  0  0  0  0  0  0  0  0  0  0
   56.6236   31.6726   42.5657 H   0  0  0  0  0  0  0  0  0  0  0  0
   57.4145   33.5425   43.3919 H   0  0  0  0  0  0  0  0  0  0  0  0
   58.3264   35.5958   44.4646 H   0  0  0  0  0  0  0  0  0  0  0  0
   59.5596   35.4422   46.6168 H   0  0  0  0  0  0  0  0  0  0  0  0
   59.9200   33.2397   47.7070 H   0  0  0  0  0  0  0  0  0  0  0  0
   61.0459   32.9572   50.1017 H   0  0  0  0  0  0  0  0  0  0  0  0
   60.9424   31.1708   50.3717 H   0  0  0  0  0  0  0  0  0  0  0  0
   62.4259   32.6040   51.9746 H   0  0  0  0  0  0  0  0  0  0  0  0
   63.0791   31.0393   51.2664 H   0  0  0  0  0  0  0  0  0  0  0  0
   64.7370   32.0700   50.3860 H   0  0  0  0  0  0  0  0  0  0  0  0
   63.9933   34.7147   51.4319 H   0  0  0  0  0  0  0  0  0  0  0  0
   64.3453   33.3391   52.5609 H   0  0  0  0  0  0  0  0  0  0  0  0
   66.3167   32.2090   50.1723 H   0  0  0  0  0  0  0  0  0  0  0  0
   68.7692   32.5983   49.9094 H   0  0  0  0  0  0  0  0  0  0  0  0
   69.8426   34.5932   50.9636 H   0  0  0  0  0  0  0  0  0  0  0  0
   68.4653   36.1926   52.2965 H   0  0  0  0  0  0  0  0  0  0  0  0
   66.0138   35.8055   52.5731 H   0  0  0  0  0  0  0  0  0  0  0  0
   63.0171   34.2734   49.4158 H   0  0  0  0  0  0  0  0  0  0  0  0
   64.7131   33.8996   48.9238 H   0  0  0  0  0  0  0  0  0  0  0  0
   62.9669   33.0496   47.3112 H   0  0  0  0  0  0  0  0  0  0  0  0
   64.0403   31.7663   47.9959 H   0  0  0  0  0  0  0  0  0  0  0  0
  1  2  2  0
  2  3  1  0
  3  4  1  0
  4  5  1  0
  5  6  2  0
  5  7  1  0
  7  8  2  0
  8  9  1  0
  9 10  2  0
 10 11  1  0
 11 12  1  0
 12 13  2  0
 13 14  1  0
 14 15  2  0
 15 16  1  0
 16 17  2  0
  2 18  1  0
 18 19  1  0
 19 20  1  0
 20 21  1  0
 21 22  1  0
 22 23  1  0
 23 24  2  0
 24 25  1  0
 25 26  2  0
 26 27  1  0
 27 28  2  0
 21 29  1  0
 29 30  1  0
 17  4  1  0
 30 18  1  0
 11  7  1  0
 17 12  1  0
 28 23  1  0
  3 31  1  0
  3 32  1  0
  8 33  1  0
  9 34  1  0
 10 35  1  0
 13 36  1  0
 14 37  1  0
 15 38  1  0
 16 39  1  0
 19 40  1  0
 19 41  1  0
 20 42  1  0
 20 43  1  0
 21 44  1  0
 22 45  1  0
 22 46  1  0
 24 47  1  0
 25 48  1  0
 26 49  1  0
 27 50  1  0
 28 51  1  0
 29 52  1  0
 29 53  1  0
 30 54  1  0
 30 55  1  0
M  CHG  1  21   1
M  END
>  <UniqueID>  (46) 
43

>  <SMILES>  (46) 
O=C(Cn1c(=O)c2cccn2c2ccccc21)N1CC[NH+](Cc2ccccc2)CC1

>  <Energy>  (46) 
112.72055632750968

>  <Genealogy>  (46) 
O=C(Cn1c(=O)c2cccn2c2ccccc21)N1CC[NH+](Cc2ccccc2)CC1 (protonated)
O=C(Cn1c(=O)c2cccn2c2ccccc21)N1CC[NH+](Cc2ccccc2)CC1 (3D coordinates assigned)
O=C(Cn1c(=O)c2cccn2c2ccccc21)N1CC[NH+](Cc2ccccc2)CC1 (nonaromatic ring conformer: 112.72055632750968 kcal/mol)

>  <smiles>  (46) 
O=C(Cn1c(=O)c2cccn2c2ccccc21)N1CCN(Cc2ccccc2)CC1

>  <score_type>  (46) 
oracle

>  <origin>  (46) 
adg

>  <m_score__min__energy>  (46) 
-7.04

>  <m_primary>  (46) 
energy

$$$$
47:0
     RDKit          3D

 42 44  0  0  0  0  0  0  0  0999 V2000
   63.7770   33.3960   47.9180 C   0  0  0  0  0  0  0  0  0  0  0  0
   62.9470   32.5130   47.1710 O   0  0  0  0  0  0  0  0  0  0  0  0
   61.5770   32.7160   46.9420 C   0  0  0  0  0  0  0  0  0  0  0  0
   60.6120   31.7280   47.2150 C   0  0  0  0  0  0  0  0  0  0  0  0
   59.2580   31.9830   46.9750 C   0  0  0  0  0  0  0  0  0  0  0  0
   58.8470   33.2260   46.4690 C   0  0  0  0  0  0  0  0  0  0  0  0
   57.3860   33.4990   46.2210 C   0  0  0  0  0  0  0  0  0  0  0  0
   56.9970   33.1220   44.8630 N   0  0  0  0  0  0  0  0  0  0  0  0
   57.4020   31.9460   44.1460 C   0  0  0  0  0  0  0  0  0  0  0  0
   58.2300   32.0720   43.2060 O   0  0  0  0  0  0  0  0  0  0  0  0
   56.9320   30.5930   44.4910 C   0  0  0  0  0  0  0  0  0  0  0  0
   57.7030   29.5160   44.8810 C   0  0  0  0  0  0  0  0  0  0  0  0
   56.7760   28.5150   45.1050 C   0  0  0  0  0  0  0  0  0  0  0  0
   57.0410   27.1210   45.5260 C   0  0  0  0  0  0  0  0  0  0  0  0
   55.9850   26.3260   46.0010 C   0  0  0  0  0  0  0  0  0  0  0  0
   56.2110   25.0050   46.3980 C   0  0  0  0  0  0  0  0  0  0  0  0
   57.5040   24.4520   46.3210 C   0  0  0  0  0  0  0  0  0  0  0  0
   57.7820   23.1320   46.7060 O   0  0  0  0  0  0  0  0  0  0  0  0
   57.6970   22.0070   45.8370 C   0  0  0  0  0  0  0  0  0  0  0  0
   58.5540   25.2420   45.8440 C   0  0  0  0  0  0  0  0  0  0  0  0
   58.3300   26.5640   45.4480 C   0  0  0  0  0  0  0  0  0  0  0  0
   55.5760   29.0010   44.8830 O   0  0  0  0  0  0  0  0  0  0  0  0
   55.6310   30.2500   44.5200 N   0  0  0  0  0  0  0  0  0  0  0  0
   59.8140   34.2020   46.1810 C   0  0  0  0  0  0  0  0  0  0  0  0
   61.1660   33.9480   46.4230 C   0  0  0  0  0  0  0  0  0  0  0  0
   63.6181   33.2269   48.9932 H   0  0  0  0  0  0  0  0  0  0  0  0
   64.8316   33.2065   47.6690 H   0  0  0  0  0  0  0  0  0  0  0  0
   63.5227   34.4368   47.6690 H   0  0  0  0  0  0  0  0  0  0  0  0
   60.9237   30.7531   47.6180 H   0  0  0  0  0  0  0  0  0  0  0  0
   58.5100   31.2041   47.1842 H   0  0  0  0  0  0  0  0  0  0  0  0
   56.7866   32.9200   46.9390 H   0  0  0  0  0  0  0  0  0  0  0  0
   57.2088   34.5775   46.3456 H   0  0  0  0  0  0  0  0  0  0  0  0
   58.7966   29.4662   44.9882 H   0  0  0  0  0  0  0  0  0  0  0  0
   54.9705   26.7470   46.0611 H   0  0  0  0  0  0  0  0  0  0  0  0
   55.3756   24.3949   46.7721 H   0  0  0  0  0  0  0  0  0  0  0  0
   57.6274   21.0863   46.4349 H   0  0  0  0  0  0  0  0  0  0  0  0
   56.8034   22.1005   45.2024 H   0  0  0  0  0  0  0  0  0  0  0  0
   58.5945   21.9652   45.2024 H   0  0  0  0  0  0  0  0  0  0  0  0
   59.5674   24.8190   45.7795 H   0  0  0  0  0  0  0  0  0  0  0  0
   59.1667   27.1719   45.0733 H   0  0  0  0  0  0  0  0  0  0  0  0
   59.5055   35.1715   45.7627 H   0  0  0  0  0  0  0  0  0  0  0  0
   61.9142   34.7239   46.2034 H   0  0  0  0  0  0  0  0  0  0  0  0
  1  2  1  0
  2  3  1  0
  3  4  2  0
  4  5  1  0
  5  6  2  0
  6  7  1  0
  7  8  1  0
  8  9  1  0
  9 10  2  0
  9 11  1  0
 11 12  1  0
 12 13  2  0
 13 14  1  0
 14 15  2  0
 15 16  1  0
 16 17  2  0
 17 18  1  0
 18 19  1  0
 17 20  1  0
 20 21  2  0
 13 22  1  0
 22 23  1  0
  6 24  1  0
 24 25  2  0
 25  3  1  0
 23 11  2  0
 21 14  1  0
  1 26  1  0
  1 27  1  0
  1 28  1  0
  4 29  1  0
  5 30  1  0
  7 31  1  0
  7 32  1  0
 12 33  1  0
 15 34  1  0
 16 35  1  0
 19 36  1  0
 19 37  1  0
 19 38  1  0
 20 39  1  0
 21 40  1  0
 24 41  1  0
 25 42  1  0
M  CHG  1   8  -1
M  END
>  <UniqueID>  (47) 
44

>  <SMILES>  (47) 
COc1ccc(C[N-]C(=O)c2cc(-c3ccc(OC)cc3)on2)cc1

>  <Energy>  (47) 
75.254146549043

>  <Genealogy>  (47) 
COc1ccc(C[N-]C(=O)c2cc(-c3ccc(OC)cc3)on2)cc1 (protonated)
COc1ccc(C[N-]C(=O)c2cc(-c3ccc(OC)cc3)on2)cc1 (3D coordinates assigned)
COc1ccc(C[N-]C(=O)c2cc(-c3ccc(OC)cc3)on2)cc1 (optimized conformer: 75.254146549043 kcal/mol)

>  <smiles>  (47) 
COc1ccc(CNC(=O)c2cc(-c3ccc(OC)cc3)on2)cc1

>  <score_type>  (47) 
oracle

>  <origin>  (47) 
adg

>  <m_score__min__energy>  (47) 
-9.2300000000000004

>  <m_primary>  (47) 
energy

$$$$
48:0
     RDKit          3D

 45 47  0  0  0  0  0  0  0  0999 V2000
   65.3020   31.6330   50.5650 C   0  0  0  0  0  0  0  0  0  0  0  0
   65.0900   32.3520   49.3540 O   0  0  0  0  0  0  0  0  0  0  0  0
   63.7740   32.6830   49.0500 C   0  0  0  0  0  0  0  0  0  0  0  0
   63.0060   31.9430   48.1620 C   0  0  0  0  0  0  0  0  0  0  0  0
   61.7000   32.3160   47.8940 C   0  0  0  0  0  0  0  0  0  0  0  0
   60.9480   31.6080   47.0360 N   0  0  0  0  0  0  0  0  0  0  0  0
   59.6800   31.9830   46.7850 C   0  0  0  0  0  0  0  0  0  0  0  0
   58.8250   31.2820   45.8900 N   0  0  0  0  0  0  0  0  0  0  0  0
   57.5380   31.8010   45.4580 C   0  0  0  0  0  0  0  0  0  0  0  0
   57.4620   31.5310   43.9690 C   0  0  0  0  0  0  0  0  0  0  0  0
   57.3780   30.0420   43.7010 C   0  0  0  0  0  0  0  0  0  0  0  0
   55.9140   29.7220   43.4800 C   0  0  0  0  0  0  0  0  0  0  0  0
   55.3050   29.2810   44.6710 O   0  0  0  0  0  0  0  0  0  0  0  0
   57.9550   29.3130   44.8720 C   0  0  0  0  0  0  0  0  0  0  0  0
   59.2180   29.9900   45.3620 C   0  0  0  0  0  0  0  0  0  0  0  0
   59.1610   33.0740   47.3960 N   0  0  0  0  0  0  0  0  0  0  0  0
   59.8630   33.8260   48.2660 C   0  0  0  0  0  0  0  0  0  0  0  0
   59.4070   34.8590   48.8600 N   0  0  0  0  0  0  0  0  0  0  0  0
   61.1630   33.4400   48.5220 C   0  0  0  0  0  0  0  0  0  0  0  0
   61.9380   34.1840   49.4170 C   0  0  0  0  0  0  0  0  0  0  0  0
   63.2490   33.7960   49.6760 C   0  0  0  0  0  0  0  0  0  0  0  0
   64.0380   34.5310   50.5690 O   0  0  0  0  0  0  0  0  0  0  0  0
   63.7850   34.3280   51.9560 C   0  0  0  0  0  0  0  0  0  0  0  0
   65.1072   32.2937   51.4226 H   0  0  0  0  0  0  0  0  0  0  0  0
   64.6198   30.7710   50.6038 H   0  0  0  0  0  0  0  0  0  0  0  0
   66.3428   31.2790   50.6038 H   0  0  0  0  0  0  0  0  0  0  0  0
   63.4359   31.0581   47.6700 H   0  0  0  0  0  0  0  0  0  0  0  0
   61.3400   30.7670   46.5610 H   0  0  0  0  0  0  0  0  0  0  0  0
   56.7210   31.2844   45.9830 H   0  0  0  0  0  0  0  0  0  0  0  0
   57.4391   32.8738   45.6802 H   0  0  0  0  0  0  0  0  0  0  0  0
   56.5687   32.0234   43.5574 H   0  0  0  0  0  0  0  0  0  0  0  0
   58.3695   31.9271   43.4898 H   0  0  0  0  0  0  0  0  0  0  0  0
   57.9502   29.7327   42.8139 H   0  0  0  0  0  0  0  0  0  0  0  0
   55.3980   30.6269   43.1266 H   0  0  0  0  0  0  0  0  0  0  0  0
   55.8415   28.9182   42.7326 H   0  0  0  0  0  0  0  0  0  0  0  0
   54.3730   28.9570   44.4940 H   0  0  0  0  0  0  0  0  0  0  0  0
   57.2157   29.2975   45.6863 H   0  0  0  0  0  0  0  0  0  0  0  0
   58.2044   28.2882   44.5595 H   0  0  0  0  0  0  0  0  0  0  0  0
   59.6892   29.3860   46.1515 H   0  0  0  0  0  0  0  0  0  0  0  0
   59.9465   30.1031   44.5456 H   0  0  0  0  0  0  0  0  0  0  0  0
   58.9730   35.5930   48.2340 H   0  0  0  0  0  0  0  0  0  0  0  0
   61.5143   35.0698   49.9129 H   0  0  0  0  0  0  0  0  0  0  0  0
   64.5075   34.9077   52.5492 H   0  0  0  0  0  0  0  0  0  0  0  0
   62.7640   34.6603   52.1950 H   0  0  0  0  0  0  0  0  0  0  0  0
   63.8881   33.2592   52.1950 H   0  0  0  0  0  0  0  0  0  0  0  0
  1  2  1  0
  2  3  1  0
  3  4  2  0
  4  5  1  0
  5  6  1  0
  6  7  1  0
  7  8  1  0
  8  9  1  0
  9 10  1  0
 10 11  1  0
 11 12  1  0
 12 13  1  0
 11 14  1  0
 14 15  1  0
  7 16  2  0
 16 17  1  0
 17 18  2  3
 17 19  1  0
 19 20  1  0
 20 21  2  0
 21 22  1  0
 22 23  1  0
 21  3  1  0
 19  5  2  0
 15  8  1  0
  1 24  1  0
  1 25  1  0
  1 26  1  0
  4 27  1  0
  6 28  1  0
  9 29  1  0
  9 30  1  0
 10 31  1  0
 10 32  1  0
 11 33  1  0
 12 34  1  0
 12 35  1  0
 13 36  1  0
 14 37  1  0
 14 38  1  0
 15 39  1  0
 15 40  1  0
 18 41  1  0
 20 42  1  0
 23 43  1  0
 23 44  1  0
 23 45  1  0
M  END
>  <smiles>  (48) 
COc1cc2[nH]c(N3CCC(CO)CC3)nc(=N)c2cc1OC

>  <score_type>  (48) 
oracle

>  <origin>  (48) 
adg

>  <m_score__min__energy>  (48) 
-6.6799999999999997

>  <m_primary>  (48) 
energy

$$$$
