0:0
     RDKit          3D

 39 40  0  0  0  0  0  0  0  0999 V2000
   56.1930   29.8880   43.4950 C   0  0  0  0  0  0  0  0  0  0  0  0
   56.4510   30.8150   44.5270 O   0  0  0  0  0  0  0  0  0  0  0  0
   57.7390   31.3760   44.3690 C   0  0  0  0  0  0  0  0  0  0  0  0
   58.4070   31.5550   45.7030 C   0  0  0  0  0  0  0  0  0  0  0  0
   59.3270   30.6920   46.2630 C   0  0  0  0  0  0  0  0  0  0  0  0
   59.7310   31.2060   47.4380 N   0  0  0  0  0  0  0  0  0  0  0  0
   59.0600   32.3650   47.5770 C   0  0  0  0  0  0  0  0  0  0  0  0
   59.2350   33.4030   48.9840 S   0  0  0  0  0  0  0  0  0  0  0  0
   58.9380   32.5600   50.4050 O   0  0  0  0  0  0  0  0  0  0  0  0
   60.8060   34.2470   49.0260 C   0  0  0  0  0  0  0  0  0  0  0  0
   61.8740   33.3750   48.4230 C   0  0  0  0  0  0  0  0  0  0  0  0
   62.6390   33.8510   47.3470 C   0  0  0  0  0  0  0  0  0  0  0  0
   63.5930   33.0290   46.7470 C   0  0  0  0  0  0  0  0  0  0  0  0
   63.7690   31.7290   47.2220 C   0  0  0  0  0  0  0  0  0  0  0  0
   63.0130   31.2730   48.2550 N   0  0  0  0  0  0  0  0  0  0  0  0
   62.0740   32.0520   48.8620 C   0  0  0  0  0  0  0  0  0  0  0  0
   61.3050   31.5410   49.9140 O   0  0  0  0  0  0  0  0  0  0  0  0
   61.8040   30.5840   50.8400 C   0  0  0  0  0  0  0  0  0  0  0  0
   58.2280   32.6020   46.5370 N   0  0  0  0  0  0  0  0  0  0  0  0
   57.4240   33.7990   46.2930 C   0  0  0  0  0  0  0  0  0  0  0  0
   55.9226   28.9164   43.9341 H   0  0  0  0  0  0  0  0  0  0  0  0
   55.3624   30.2533   42.8732 H   0  0  0  0  0  0  0  0  0  0  0  0
   57.0929   29.7717   42.8732 H   0  0  0  0  0  0  0  0  0  0  0  0
   58.3504   30.7069   43.7458 H   0  0  0  0  0  0  0  0  0  0  0  0
   57.6397   32.3603   43.8880 H   0  0  0  0  0  0  0  0  0  0  0  0
   59.6713   29.7445   45.8228 H   0  0  0  0  0  0  0  0  0  0  0  0
   60.4210   30.7920   48.1030 H   0  0  0  0  0  0  0  0  0  0  0  0
   59.7860   32.0860   50.5940 H   0  0  0  0  0  0  0  0  0  0  0  0
   60.7325   35.1826   48.4523 H   0  0  0  0  0  0  0  0  0  0  0  0
   61.0686   34.4701   50.0706 H   0  0  0  0  0  0  0  0  0  0  0  0
   62.4859   34.8751   46.9758 H   0  0  0  0  0  0  0  0  0  0  0  0
   64.1998   33.4016   45.9086 H   0  0  0  0  0  0  0  0  0  0  0  0
   64.5207   31.0723   46.7597 H   0  0  0  0  0  0  0  0  0  0  0  0
   61.6204   30.9360   51.8658 H   0  0  0  0  0  0  0  0  0  0  0  0
   61.2924   29.6226   50.6852 H   0  0  0  0  0  0  0  0  0  0  0  0
   62.8852   30.4531   50.6852 H   0  0  0  0  0  0  0  0  0  0  0  0
   57.1259   34.2427   47.2544 H   0  0  0  0  0  0  0  0  0  0  0  0
   58.0162   34.5281   45.7205 H   0  0  0  0  0  0  0  0  0  0  0  0
   56.5251   33.5265   45.7205 H   0  0  0  0  0  0  0  0  0  0  0  0
  1  2  1  0
  2  3  1  0
  3  4  1  0
  4  5  2  0
  5  6  1  0
  6  7  2  0
  7  8  1  0
  8  9  1  1
  8 10  1  0
 10 11  1  0
 11 12  2  0
 12 13  1  0
 13 14  2  0
 14 15  1  0
 15 16  2  0
 16 17  1  0
 17 18  1  0
  7 19  1  0
 19 20  1  0
 19  4  1  0
 16 11  1  0
  1 21  1  0
  1 22  1  0
  1 23  1  0
  3 24  1  0
  3 25  1  0
  5 26  1  0
  6 27  1  0
  9 28  1  0
 10 29  1  0
 10 30  1  0
 12 31  1  0
 13 32  1  0
 14 33  1  0
 18 34  1  0
 18 35  1  0
 18 36  1  0
 20 37  1  0
 20 38  1  0
 20 39  1  0
M  CHG  2   6   1   8   1
M  END
>  <UniqueID>  (1) 
1

>  <SMILES>  (1) 
COCc1c[nH+]c([S@@+](O)Cc2cccnc2OC)n1C

>  <Energy>  (1) 
61.55021027933743

>  <Genealogy>  (1) 
COCc1c[nH+]c([S+](O)Cc2cccnc2OC)n1C (protonated)
COCc1c[nH+]c([S@@+](O)Cc2cccnc2OC)n1C (chirality)
COCc1c[nH+]c([S@@+](O)Cc2cccnc2OC)n1C (3D coordinates assigned)
COCc1c[nH+]c([S@@+](O)Cc2cccnc2OC)n1C (optimized conformer: 61.55021027933743 kcal/mol)

>  <smiles>  (1) 
COCc1cnc([S+]([O-])Cc2cccnc2OC)n1C

>  <score_type>  (1) 
oracle

>  <origin>  (1) 
adg

>  <m_score__min__energy>  (1) 
-2.8500000000000001

>  <m_primary>  (1) 
energy

$$$$
1:0
     RDKit          3D

 51 53  0  0  0  0  0  0  0  0999 V2000
   63.3740   33.8230   46.7850 C   0  0  0  0  0  0  0  0  0  0  0  0
   62.6390   33.6310   48.1150 C   0  0  0  0  0  0  0  0  0  0  0  0
   61.6120   32.5760   48.0450 N   0  0  0  0  0  0  0  0  0  0  0  0
   62.2020   31.2360   47.8920 C   0  0  0  0  0  0  0  0  0  0  0  0
   61.1580   30.1470   48.1660 C   0  0  0  0  0  0  0  0  0  0  0  0
   59.8040   30.6960   48.0860 N   0  0  0  0  0  0  0  0  0  0  0  0
   59.0830   30.7510   46.8460 C   0  0  0  0  0  0  0  0  0  0  0  0
   58.8090   29.5630   46.1520 C   0  0  0  0  0  0  0  0  0  0  0  0
   58.2010   29.6190   44.8860 C   0  0  0  0  0  0  0  0  0  0  0  0
   57.8130   30.8280   44.3470 N   0  0  0  0  0  0  0  0  0  0  0  0
   57.0230   30.8450   43.0980 C   0  0  0  0  0  0  0  0  0  0  0  0
   58.1570   32.0100   44.9760 C   0  0  0  0  0  0  0  0  0  0  0  0
   58.7130   31.9870   46.2800 C   0  0  0  0  0  0  0  0  0  0  0  0
   58.8660   33.2680   47.0340 C   0  0  0  0  0  0  0  0  0  0  0  0
   59.0600   33.2670   48.2800 O   0  0  0  0  0  0  0  0  0  0  0  0
   58.6790   34.5900   46.3510 C   0  0  0  0  0  0  0  0  0  0  0  0
   58.8440   34.4500   44.8440 C   0  0  0  0  0  0  0  0  0  0  0  0
   57.9180   33.3570   44.3040 C   0  0  0  0  0  0  0  0  0  0  0  0
   58.1100   28.3020   44.1260 C   0  0  0  0  0  0  0  0  0  0  0  0
   57.5250   27.1950   45.0160 C   0  0  0  0  0  0  0  0  0  0  0  0
   58.0900   27.1800   46.4570 C   0  0  0  0  0  0  0  0  0  0  0  0
   59.2070   28.2070   46.6970 C   0  0  0  0  0  0  0  0  0  0  0  0
   64.4213   34.0966   46.9810 H   0  0  0  0  0  0  0  0  0  0  0  0
   63.3413   32.8862   46.2094 H   0  0  0  0  0  0  0  0  0  0  0  0
   62.8873   34.6241   46.2094 H   0  0  0  0  0  0  0  0  0  0  0  0
   63.3730   33.3581   48.8875 H   0  0  0  0  0  0  0  0  0  0  0  0
   62.1311   34.5765   48.3558 H   0  0  0  0  0  0  0  0  0  0  0  0
   60.9560   32.7700   47.2530 H   0  0  0  0  0  0  0  0  0  0  0  0
   61.0660   32.6030   48.9380 H   0  0  0  0  0  0  0  0  0  0  0  0
   62.5797   31.1233   46.8650 H   0  0  0  0  0  0  0  0  0  0  0  0
   63.0231   31.1275   48.6159 H   0  0  0  0  0  0  0  0  0  0  0  0
   61.2675   29.3461   47.4200 H   0  0  0  0  0  0  0  0  0  0  0  0
   61.3191   29.7499   49.1791 H   0  0  0  0  0  0  0  0  0  0  0  0
   59.3320   31.0180   48.9600 H   0  0  0  0  0  0  0  0  0  0  0  0
   55.9508   30.8681   43.3426 H   0  0  0  0  0  0  0  0  0  0  0  0
   57.2844   31.7377   42.5109 H   0  0  0  0  0  0  0  0  0  0  0  0
   57.2458   29.9419   42.5109 H   0  0  0  0  0  0  0  0  0  0  0  0
   57.6696   34.9688   46.5693 H   0  0  0  0  0  0  0  0  0  0  0  0
   59.4407   35.2900   46.7248 H   0  0  0  0  0  0  0  0  0  0  0  0
   58.5948   35.4068   44.3618 H   0  0  0  0  0  0  0  0  0  0  0  0
   59.8861   34.1752   44.6236 H   0  0  0  0  0  0  0  0  0  0  0  0
   56.8749   33.6592   44.4791 H   0  0  0  0  0  0  0  0  0  0  0  0
   58.1282   33.2388   43.2308 H   0  0  0  0  0  0  0  0  0  0  0  0
   57.4625   28.4373   43.2471 H   0  0  0  0  0  0  0  0  0  0  0  0
   59.1225   28.0048   43.8152 H   0  0  0  0  0  0  0  0  0  0  0  0
   56.4357   27.3369   45.0732 H   0  0  0  0  0  0  0  0  0  0  0  0
   57.8041   26.2360   44.5552 H   0  0  0  0  0  0  0  0  0  0  0  0
   57.2667   27.3941   47.1543 H   0  0  0  0  0  0  0  0  0  0  0  0
   58.5305   26.1849   46.6175 H   0  0  0  0  0  0  0  0  0  0  0  0
   59.3940   28.2922   47.7776 H   0  0  0  0  0  0  0  0  0  0  0  0
   60.1170   27.8694   46.1794 H   0  0  0  0  0  0  0  0  0  0  0  0
  1  2  1  0
  2  3  1  0
  3  4  1  0
  4  5  1  0
  5  6  1  0
  6  7  1  0
  7  8  2  0
  8  9  1  0
  9 10  2  0
 10 11  1  0
 10 12  1  0
 12 13  2  0
 13 14  1  0
 14 15  2  0
 14 16  1  0
 16 17  1  0
 17 18  1  0
  9 19  1  0
 19 20  1  0
 20 21  1  0
 21 22  1  0
 13  7  1  0
 22  8  1  0
 18 12  1  0
  1 23  1  0
  1 24  1  0
  1 25  1  0
  2 26  1  0
  2 27  1  0
  3 28  1  0
  3 29  1  0
  4 30  1  0
  4 31  1  0
  5 32  1  0
  5 33  1  0
  6 34  1  0
 11 35  1  0
 11 36  1  0
 11 37  1  0
 16 38  1  0
 16 39  1  0
 17 40  1  0
 17 41  1  0
 18 42  1  0
 18 43  1  0
 19 44  1  0
 19 45  1  0
 20 46  1  0
 20 47  1  0
 21 48  1  0
 21 49  1  0
 22 50  1  0
 22 51  1  0
M  CHG  2   3   1  10   1
M  END
>  <UniqueID>  (2) 
2

>  <SMILES>  (2) 
CC[NH2+]CCNc1c2c([n+](C)c3c1C(=O)CCC3)CCCC2

>  <Energy>  (2) 
68.89370525156396

>  <Genealogy>  (2) 
CC[NH2+]CCNc1c2c([n+](C)c3c1C(=O)CCC3)CCCC2 (protonated)
CC[NH2+]CCNc1c2c([n+](C)c3c1C(=O)CCC3)CCCC2 (3D coordinates assigned)
CC[NH2+]CCNc1c2c([n+](C)c3c1C(=O)CCC3)CCCC2 (nonaromatic ring conformer: 68.89370525156396 kcal/mol)

>  <smiles>  (2) 
CCNCCNc1c2c([n+](C)c3c1C(=O)CCC3)CCCC2

>  <score_type>  (2) 
oracle

>  <origin>  (2) 
adg

>  <m_score__min__energy>  (2) 
-4.4100000000000001

>  <m_primary>  (2) 
energy

$$$$
2:0
     RDKit          3D

 61 63  0  0  0  0  0  0  0  0999 V2000
   57.3770   31.2990   51.4990 C   0  0  0  0  0  0  0  0  0  0  0  0
   58.4850   31.0400   50.4790 C   0  0  0  0  0  0  0  0  0  0  0  0
   59.7840   31.5940   50.9190 N   0  0  0  0  0  0  0  0  0  0  0  0
   60.3020   30.8550   52.0820 C   0  0  0  0  0  0  0  0  0  0  0  0
   59.8160   33.0660   51.1090 C   0  0  0  0  0  0  0  0  0  0  0  0
   59.6380   33.9090   49.8280 C   0  0  0  0  0  0  0  0  0  0  0  0
   60.6950   33.7000   48.9100 O   0  0  0  0  0  0  0  0  0  0  0  0
   61.9140   34.2390   49.3920 C   0  0  0  0  0  0  0  0  0  0  0  0
   63.0080   34.1120   48.3340 C   0  0  0  0  0  0  0  0  0  0  0  0
   62.5490   33.2900   47.2800 O   0  0  0  0  0  0  0  0  0  0  0  0
   63.2280   32.0490   47.2840 C   0  0  0  0  0  0  0  0  0  0  0  0
   62.2390   30.9190   47.6120 C   0  0  0  0  0  0  0  0  0  0  0  0
   60.9250   31.4250   48.0480 N   0  0  0  0  0  0  0  0  0  0  0  0
   59.8330   30.6260   47.5300 C   0  0  0  0  0  0  0  0  0  0  0  0
   58.9640   31.0320   46.5080 C   0  0  0  0  0  0  0  0  0  0  0  0
   58.7740   32.3930   45.9520 C   0  0  0  0  0  0  0  0  0  0  0  0
   57.5700   32.7370   45.3130 C   0  0  0  0  0  0  0  0  0  0  0  0
   57.4040   34.0290   44.8070 C   0  0  0  0  0  0  0  0  0  0  0  0
   58.4280   34.9660   44.9440 C   0  0  0  0  0  0  0  0  0  0  0  0
   59.6090   34.5970   45.5900 C   0  0  0  0  0  0  0  0  0  0  0  0
   59.7520   33.3340   46.0750 N   0  0  0  0  0  0  0  0  0  0  0  0
   58.3030   29.9590   46.0300 N   0  0  0  0  0  0  0  0  0  0  0  0
   58.7640   28.9300   46.7630 C   0  0  0  0  0  0  0  0  0  0  0  0
   58.3760   27.6060   46.5790 C   0  0  0  0  0  0  0  0  0  0  0  0
   58.9500   26.6320   47.3940 C   0  0  0  0  0  0  0  0  0  0  0  0
   59.8590   27.0010   48.3940 C   0  0  0  0  0  0  0  0  0  0  0  0
   60.2080   28.3560   48.5710 C   0  0  0  0  0  0  0  0  0  0  0  0
   61.0390   28.7210   49.7720 C   0  0  0  0  0  0  0  0  0  0  0  0
   59.6780   29.2820   47.6980 N   0  0  0  0  0  0  0  0  0  0  0  0
   57.7852   31.2036   52.5160 H   0  0  0  0  0  0  0  0  0  0  0  0
   56.9785   32.3145   51.3576 H   0  0  0  0  0  0  0  0  0  0  0  0
   56.5697   30.5654   51.3576 H   0  0  0  0  0  0  0  0  0  0  0  0
   58.5914   29.9542   50.3383 H   0  0  0  0  0  0  0  0  0  0  0  0
   58.2044   31.5376   49.5390 H   0  0  0  0  0  0  0  0  0  0  0  0
   59.9607   31.3419   53.0075 H   0  0  0  0  0  0  0  0  0  0  0  0
   59.9307   29.8199   52.0538 H   0  0  0  0  0  0  0  0  0  0  0  0
   61.4016   30.8510   52.0538 H   0  0  0  0  0  0  0  0  0  0  0  0
   59.0083   33.3347   51.8057 H   0  0  0  0  0  0  0  0  0  0  0  0
   60.8235   33.2987   51.4842 H   0  0  0  0  0  0  0  0  0  0  0  0
   58.6886   33.6302   49.3474 H   0  0  0  0  0  0  0  0  0  0  0  0
   59.6391   34.9710   50.1147 H   0  0  0  0  0  0  0  0  0  0  0  0
   61.7686   35.3014   49.6372 H   0  0  0  0  0  0  0  0  0  0  0  0
   62.2199   33.6820   50.2899 H   0  0  0  0  0  0  0  0  0  0  0  0
   63.2556   35.1090   47.9407 H   0  0  0  0  0  0  0  0  0  0  0  0
   63.9053   33.6635   48.7855 H   0  0  0  0  0  0  0  0  0  0  0  0
   63.6709   31.8712   46.2929 H   0  0  0  0  0  0  0  0  0  0  0  0
   64.0222   32.0705   48.0448 H   0  0  0  0  0  0  0  0  0  0  0  0
   62.0981   30.3019   46.7124 H   0  0  0  0  0  0  0  0  0  0  0  0
   62.6634   30.3351   48.4420 H   0  0  0  0  0  0  0  0  0  0  0  0
   60.9200   31.5000   49.0810 H   0  0  0  0  0  0  0  0  0  0  0  0
   60.8120   32.4060   47.7090 H   0  0  0  0  0  0  0  0  0  0  0  0
   56.7645   31.9947   45.2120 H   0  0  0  0  0  0  0  0  0  0  0  0
   56.4673   34.3065   44.3015 H   0  0  0  0  0  0  0  0  0  0  0  0
   58.3062   35.9847   44.5473 H   0  0  0  0  0  0  0  0  0  0  0  0
   60.4236   35.3269   45.7069 H   0  0  0  0  0  0  0  0  0  0  0  0
   57.6363   27.3357   45.8110 H   0  0  0  0  0  0  0  0  0  0  0  0
   58.6891   25.5729   47.2519 H   0  0  0  0  0  0  0  0  0  0  0  0
   60.3020   26.2315   49.0433 H   0  0  0  0  0  0  0  0  0  0  0  0
   60.4839   28.4772   50.6898 H   0  0  0  0  0  0  0  0  0  0  0  0
   61.9814   28.1540   49.7519 H   0  0  0  0  0  0  0  0  0  0  0  0
   61.2590   29.7986   49.7519 H   0  0  0  0  0  0  0  0  0  0  0  0
  1  2  1  0
  2  3  1  0
  3  4  1  0
  3  5  1  0
  5  6  1  0
  6  7  1  0
  7  8  1  0
  8  9  1  0
  9 10  1  0
 10 11  1  0
 11 12  1  0
 12 13  1  0
 13 14  1  0
 14 15  2  0
 15 16  1  0
 16 17  2  0
 17 18  1  0
 18 19  2  0
 19 20  1  0
 20 21  2  0
 15 22  1  0
 22 23  2  0
 23 24  1  0
 24 25  2  0
 25 26  1  0
 26 27  2  0
 27 28  1  0
 27 29  1  0
 29 14  1  0
 21 16  1  0
 29 23  1  0
  1 30  1  0
  1 31  1  0
  1 32  1  0
  2 33  1  0
  2 34  1  0
  4 35  1  0
  4 36  1  0
  4 37  1  0
  5 38  1  0
  5 39  1  0
  6 40  1  0
  6 41  1  0
  8 42  1  0
  8 43  1  0
  9 44  1  0
  9 45  1  0
 11 46  1  0
 11 47  1  0
 12 48  1  0
 12 49  1  0
 13 50  1  0
 13 51  1  0
 17 52  1  0
 18 53  1  0
 19 54  1  0
 20 55  1  0
 24 56  1  0
 25 57  1  0
 26 58  1  0
 28 59  1  0
 28 60  1  0
 28 61  1  0
M  CHG  1  13   1
M  END
>  <UniqueID>  (3) 
3

>  <SMILES>  (3) 
CCN(C)CCOCCOCC[NH2+]c1c(-c2ccccn2)nc2cccc(C)n12

>  <Energy>  (3) 
112.69836397512479

>  <Genealogy>  (3) 
CCN(C)CCOCCOCC[NH2+]c1c(-c2ccccn2)nc2cccc(C)n12 (protonated)
CCN(C)CCOCCOCC[NH2+]c1c(-c2ccccn2)nc2cccc(C)n12 (3D coordinates assigned)
CCN(C)CCOCCOCC[NH2+]c1c(-c2ccccn2)nc2cccc(C)n12 (optimized conformer: 112.69836397512479 kcal/mol)

>  <smiles>  (3) 
CCN(C)CCOCCOCCNc1c(-c2ccccn2)nc2cccc(C)n12

>  <score_type>  (3) 
oracle

>  <origin>  (3) 
adg

>  <m_score__min__energy>  (3) 
-3.77

>  <m_primary>  (3) 
energy

$$$$
3:0
     RDKit          3D

 88 92  0  0  0  0  0  0  0  0999 V2000
   64.3250   32.0860   49.4270 C   0  0  0  0  0  0  0  0  0  0  0  0
   63.6060   33.4150   49.2120 C   0  0  0  0  0  0  0  0  0  0  0  0
   62.2920   33.1880   48.5710 N   0  0  0  0  0  0  0  0  0  0  0  0
   62.4110   32.8980   47.1220 C   0  0  0  0  0  0  0  0  0  0  0  0
   63.3560   33.8400   46.3590 C   0  0  0  0  0  0  0  0  0  0  0  0
   61.3050   34.2450   48.9000 C   0  0  0  0  0  0  0  0  0  0  0  0
   60.0510   34.1310   48.0200 C   0  0  0  0  0  0  0  0  0  0  0  0
   59.2750   32.9250   48.3180 N   0  0  0  0  0  0  0  0  0  0  0  0
   59.3130   31.8130   47.4110 C   0  0  0  0  0  0  0  0  0  0  0  0
   58.7950   31.9800   46.1120 C   0  0  0  0  0  0  0  0  0  0  0  0
   58.2760   33.2270   45.6950 C   0  0  0  0  0  0  0  0  0  0  0  0
   57.7070   33.3770   44.4340 C   0  0  0  0  0  0  0  0  0  0  0  0
   57.6270   32.2900   43.5740 C   0  0  0  0  0  0  0  0  0  0  0  0
   58.1440   31.0520   43.9570 C   0  0  0  0  0  0  0  0  0  0  0  0
   58.7710   30.8790   45.2190 C   0  0  0  0  0  0  0  0  0  0  0  0
   59.3240   29.6720   45.5950 N   0  0  0  0  0  0  0  0  0  0  0  0
   59.5670   28.6280   44.5740 C   0  0  0  0  0  0  0  0  0  0  0  0
   59.6870   29.4520   46.9110 C   0  0  0  0  0  0  0  0  0  0  0  0
   59.9770   28.1490   47.3800 C   0  0  0  0  0  0  0  0  0  0  0  0
   60.4170   27.9320   48.6780 C   0  0  0  0  0  0  0  0  0  0  0  0
   60.5900   29.0000   49.5430 C   0  0  0  0  0  0  0  0  0  0  0  0
   60.2750   30.3090   49.1460 C   0  0  0  0  0  0  0  0  0  0  0  0
   60.5140   31.3920   50.0130 O   0  0  0  0  0  0  0  0  0  0  0  0
   61.2590   31.3510   51.2350 C   0  0  0  0  0  0  0  0  0  0  0  0
   60.7540   32.4140   52.2470 C   0  0  0  0  0  0  0  0  0  0  0  0
   59.3720   32.2210   52.7970 N   0  0  1  0  0  0  0  0  0  0  0  0
   58.9680   33.3840   53.6310 C   0  0  0  0  0  0  0  0  0  0  0  0
   58.3820   31.9700   51.7220 C   0  0  0  0  0  0  0  0  0  0  0  0
   58.0260   30.5020   51.7890 C   0  0  0  0  0  0  0  0  0  0  0  0
   58.2420   30.0900   53.1870 N   0  0  2  0  0  0  0  0  0  0  0  0
   58.6520   28.6620   53.2270 C   0  0  0  0  0  0  0  0  0  0  0  0
   56.9770   30.3030   53.9650 C   0  0  0  0  0  0  0  0  0  0  0  0
   55.6980   30.2050   53.1480 C   0  0  0  0  0  0  0  0  0  0  0  0
   54.9060   29.0430   53.1910 C   0  0  0  0  0  0  0  0  0  0  0  0
   53.7230   28.9640   52.4500 C   0  0  0  0  0  0  0  0  0  0  0  0
   53.3080   30.0490   51.6730 C   0  0  0  0  0  0  0  0  0  0  0  0
   51.8230   29.9490   50.7450 Cl  0  0  0  0  0  0  0  0  0  0  0  0
   54.0720   31.2190   51.6460 C   0  0  0  0  0  0  0  0  0  0  0  0
   55.2540   31.3020   52.3870 C   0  0  0  0  0  0  0  0  0  0  0  0
   59.3480   30.9780   53.6360 C   0  0  0  0  0  0  0  0  0  0  0  0
   59.7610   30.5390   47.8340 C   0  0  0  0  0  0  0  0  0  0  0  0
   64.4282   31.8952   50.5054 H   0  0  0  0  0  0  0  0  0  0  0  0
   63.7425   31.2751   48.9653 H   0  0  0  0  0  0  0  0  0  0  0  0
   65.3224   32.1298   48.9653 H   0  0  0  0  0  0  0  0  0  0  0  0
   63.4557   33.9080   50.1838 H   0  0  0  0  0  0  0  0  0  0  0  0
   64.2188   34.0525   48.5578 H   0  0  0  0  0  0  0  0  0  0  0  0
   62.7843   31.8697   47.0069 H   0  0  0  0  0  0  0  0  0  0  0  0
   61.4095   33.0428   46.6907 H   0  0  0  0  0  0  0  0  0  0  0  0
   63.9460   34.4282   47.0773 H   0  0  0  0  0  0  0  0  0  0  0  0
   64.0332   33.2469   45.7268 H   0  0  0  0  0  0  0  0  0  0  0  0
   62.7651   34.5191   45.7268 H   0  0  0  0  0  0  0  0  0  0  0  0
   61.0122   34.1458   49.9557 H   0  0  0  0  0  0  0  0  0  0  0  0
   61.7707   35.2244   48.7157 H   0  0  0  0  0  0  0  0  0  0  0  0
   59.4160   35.0126   48.1919 H   0  0  0  0  0  0  0  0  0  0  0  0
   60.3780   34.0722   46.9714 H   0  0  0  0  0  0  0  0  0  0  0  0
   58.9790   32.7210   49.2980 H   0  0  0  0  0  0  0  0  0  0  0  0
   58.3225   34.0897   46.3759 H   0  0  0  0  0  0  0  0  0  0  0  0
   57.3204   34.3573   44.1184 H   0  0  0  0  0  0  0  0  0  0  0  0
   57.1544   32.4052   42.5874 H   0  0  0  0  0  0  0  0  0  0  0  0
   58.0646   30.1964   43.2703 H   0  0  0  0  0  0  0  0  0  0  0  0
   59.7893   27.6728   45.0721 H   0  0  0  0  0  0  0  0  0  0  0  0
   58.6714   28.5141   43.9456 H   0  0  0  0  0  0  0  0  0  0  0  0
   60.4209   28.9214   43.9456 H   0  0  0  0  0  0  0  0  0  0  0  0
   59.8512   27.2915   46.7026 H   0  0  0  0  0  0  0  0  0  0  0  0
   60.6291   26.9086   49.0211 H   0  0  0  0  0  0  0  0  0  0  0  0
   60.9799   28.8197   50.5557 H   0  0  0  0  0  0  0  0  0  0  0  0
   61.1540   30.3523   51.6839 H   0  0  0  0  0  0  0  0  0  0  0  0
   62.3122   31.5686   51.0038 H   0  0  0  0  0  0  0  0  0  0  0  0
   61.4523   32.4225   53.0969 H   0  0  0  0  0  0  0  0  0  0  0  0
   60.7088   33.3544   51.6782 H   0  0  0  0  0  0  0  0  0  0  0  0
   59.0592   33.1213   54.6953 H   0  0  0  0  0  0  0  0  0  0  0  0
   59.6214   34.2402   53.4073 H   0  0  0  0  0  0  0  0  0  0  0  0
   57.9245   33.6508   53.4073 H   0  0  0  0  0  0  0  0  0  0  0  0
   57.4843   32.5850   51.8830 H   0  0  0  0  0  0  0  0  0  0  0  0
   58.7952   32.2310   50.7365 H   0  0  0  0  0  0  0  0  0  0  0  0
   56.9739   30.3514   51.5053 H   0  0  0  0  0  0  0  0  0  0  0  0
   58.6410   29.9084   51.0966 H   0  0  0  0  0  0  0  0  0  0  0  0
   58.7454   28.3365   54.2736 H   0  0  0  0  0  0  0  0  0  0  0  0
   57.8937   28.0484   52.7185 H   0  0  0  0  0  0  0  0  0  0  0  0
   59.6203   28.5441   52.7185 H   0  0  0  0  0  0  0  0  0  0  0  0
   56.9333   29.5444   54.7603 H   0  0  0  0  0  0  0  0  0  0  0  0
   57.0202   31.3334   54.3476 H   0  0  0  0  0  0  0  0  0  0  0  0
   55.2196   28.1908   53.8118 H   0  0  0  0  0  0  0  0  0  0  0  0
   53.1177   28.0460   52.4786 H   0  0  0  0  0  0  0  0  0  0  0  0
   53.7424   32.0761   51.0404 H   0  0  0  0  0  0  0  0  0  0  0  0
   55.8416   32.2318   52.3752 H   0  0  0  0  0  0  0  0  0  0  0  0
   59.1921   31.2515   54.6900 H   0  0  0  0  0  0  0  0  0  0  0  0
   60.3061   30.4483   53.5291 H   0  0  0  0  0  0  0  0  0  0  0  0
  1  2  1  0
  2  3  1  0
  3  4  1  0
  4  5  1  0
  3  6  1  0
  6  7  1  0
  7  8  1  0
  8  9  1  0
  9 10  2  0
 10 11  1  0
 11 12  2  0
 12 13  1  0
 13 14  2  0
 14 15  1  0
 15 16  2  0
 16 17  1  0
 16 18  1  0
 18 19  2  0
 19 20  1  0
 20 21  2  0
 21 22  1  0
 22 23  1  0
 23 24  1  0
 24 25  1  0
 26 25  1  6
 26 27  1  0
 26 28  1  0
 28 29  1  0
 29 30  1  0
 30 31  1  6
 30 32  1  0
 32 33  1  0
 33 34  2  0
 34 35  1  0
 35 36  2  0
 36 37  1  0
 36 38  1  0
 38 39  2  0
 30 40  1  0
 22 41  2  0
 41  9  1  0
 15 10  1  0
 41 18  1  0
 40 26  1  0
 39 33  1  0
  1 42  1  0
  1 43  1  0
  1 44  1  0
  2 45  1  0
  2 46  1  0
  4 47  1  0
  4 48  1  0
  5 49  1  0
  5 50  1  0
  5 51  1  0
  6 52  1  0
  6 53  1  0
  7 54  1  0
  7 55  1  0
  8 56  1  0
 11 57  1  0
 12 58  1  0
 13 59  1  0
 14 60  1  0
 17 61  1  0
 17 62  1  0
 17 63  1  0
 19 64  1  0
 20 65  1  0
 21 66  1  0
 24 67  1  0
 24 68  1  0
 25 69  1  0
 25 70  1  0
 27 71  1  0
 27 72  1  0
 27 73  1  0
 28 74  1  0
 28 75  1  0
 29 76  1  0
 29 77  1  0
 31 78  1  0
 31 79  1  0
 31 80  1  0
 32 81  1  0
 32 82  1  0
 34 83  1  0
 35 84  1  0
 38 85  1  0
 39 86  1  0
 40 87  1  0
 40 88  1  0
M  CHG  3  16   1  26   1  30   1
M  END
>  <UniqueID>  (4) 
4

>  <SMILES>  (4) 
CCN(CC)CCNc1c2ccccc2[n+](C)c2cccc(OCC[N@@+]3(C)CC[N@+](C)(Cc4ccc(Cl)cc4)C3)c12

>  <Energy>  (4) 
150.87324220319192

>  <Genealogy>  (4) 
CCN(CC)CCNc1c2ccccc2[n+](C)c2cccc(OCC[N@@+]3(C)CC[N@+](C)(Cc4ccc(Cl)cc4)C3)c12 (chirality)
CCN(CC)CCNc1c2ccccc2[n+](C)c2cccc(OCC[N@@+]3(C)CC[N@+](C)(Cc4ccc(Cl)cc4)C3)c12 (3D coordinates assigned)
CCN(CC)CCNc1c2ccccc2[n+](C)c2cccc(OCC[N@@+]3(C)CC[N@+](C)(Cc4ccc(Cl)cc4)C3)c12 (nonaromatic ring conformer: 150.87324220319192 kcal/mol)

>  <smiles>  (4) 
CCN(CC)CCNc1c2ccccc2[n+](C)c2cccc(OCC[N+]3(C)CC[N+](C)(Cc4ccc(Cl)cc4)C3)c12

>  <score_type>  (4) 
oracle

>  <origin>  (4) 
adg

>  <m_score__min__energy>  (4) 
-4.9800000000000004

>  <m_primary>  (4) 
energy

$$$$
4:0
     RDKit          3D

 57 59  0  0  0  0  0  0  0  0999 V2000
   59.4300   34.4960   47.2870 C   0  0  0  0  0  0  0  0  0  0  0  0
   59.1840   34.6320   45.7820 C   0  0  0  0  0  0  0  0  0  0  0  0
   57.7680   34.1870   45.3560 C   0  0  0  0  0  0  0  0  0  0  0  0
   57.7160   32.8910   44.5040 C   0  0  0  0  0  0  0  0  0  0  0  0
   57.3320   31.6920   45.2700 N   0  0  0  0  0  0  0  0  0  0  0  0
   57.9880   30.4660   44.7890 C   0  0  0  0  0  0  0  0  0  0  0  0
   57.0100   29.3290   44.8290 C   0  0  0  0  0  0  0  0  0  0  0  0
   55.7720   29.5850   44.8680 O   0  0  0  0  0  0  0  0  0  0  0  0
   57.4560   27.9600   44.8870 N   0  0  0  0  0  0  0  0  0  0  0  0
   58.2150   27.4240   43.7540 C   0  0  0  0  0  0  0  0  0  0  0  0
   57.7480   26.0080   43.4380 C   0  0  0  0  0  0  0  0  0  0  0  0
   57.6900   25.1460   44.6720 C   0  0  0  0  0  0  0  0  0  0  0  0
   57.7460   23.7530   44.5250 C   0  0  0  0  0  0  0  0  0  0  0  0
   57.6000   22.9060   45.6390 C   0  0  0  0  0  0  0  0  0  0  0  0
   57.6500   21.5090   45.5200 O   0  0  0  0  0  0  0  0  0  0  0  0
   57.0270   20.7630   44.4760 C   0  0  0  0  0  0  0  0  0  0  0  0
   57.3880   23.4590   46.9100 C   0  0  0  0  0  0  0  0  0  0  0  0
   57.2420   22.5850   48.0020 O   0  0  0  0  0  0  0  0  0  0  0  0
   55.9950   22.2560   48.6080 C   0  0  0  0  0  0  0  0  0  0  0  0
   57.3210   24.8550   47.0570 C   0  0  0  0  0  0  0  0  0  0  0  0
   57.4670   25.7080   45.9480 C   0  0  0  0  0  0  0  0  0  0  0  0
   57.4050   27.2140   46.1590 C   0  0  1  0  0  0  0  0  0  0  0  0
   58.5240   27.6770   47.0790 C   0  0  0  0  0  0  0  0  0  0  0  0
   59.6530   26.8700   47.3270 C   0  0  0  0  0  0  0  0  0  0  0  0
   60.6820   27.3340   48.1510 C   0  0  0  0  0  0  0  0  0  0  0  0
   60.5780   28.6010   48.7290 C   0  0  0  0  0  0  0  0  0  0  0  0
   59.4790   29.3640   48.5000 N   0  0  0  0  0  0  0  0  0  0  0  0
   58.4620   28.9360   47.7020 C   0  0  0  0  0  0  0  0  0  0  0  0
   58.5967   34.9567   47.8378 H   0  0  0  0  0  0  0  0  0  0  0  0
   59.5005   33.4308   47.5522 H   0  0  0  0  0  0  0  0  0  0  0  0
   60.3696   35.0028   47.5522 H   0  0  0  0  0  0  0  0  0  0  0  0
   59.3193   35.6864   45.4992 H   0  0  0  0  0  0  0  0  0  0  0  0
   59.9018   33.9729   45.2719 H   0  0  0  0  0  0  0  0  0  0  0  0
   57.1742   34.0205   46.2669 H   0  0  0  0  0  0  0  0  0  0  0  0
   57.3725   34.9906   44.7174 H   0  0  0  0  0  0  0  0  0  0  0  0
   56.9837   33.0360   43.6961 H   0  0  0  0  0  0  0  0  0  0  0  0
   58.7331   32.7163   44.1231 H   0  0  0  0  0  0  0  0  0  0  0  0
   56.2920   31.5690   45.2400 H   0  0  0  0  0  0  0  0  0  0  0  0
   58.3341   30.6162   43.7557 H   0  0  0  0  0  0  0  0  0  0  0  0
   58.8488   30.2330   45.4329 H   0  0  0  0  0  0  0  0  0  0  0  0
   58.0572   28.0647   42.8739 H   0  0  0  0  0  0  0  0  0  0  0  0
   59.2839   27.4028   44.0127 H   0  0  0  0  0  0  0  0  0  0  0  0
   56.7442   26.0563   42.9907 H   0  0  0  0  0  0  0  0  0  0  0  0
   58.4716   25.5582   42.7422 H   0  0  0  0  0  0  0  0  0  0  0  0
   57.9059   23.3173   43.5277 H   0  0  0  0  0  0  0  0  0  0  0  0
   56.3803   19.9886   44.9143 H   0  0  0  0  0  0  0  0  0  0  0  0
   56.4208   21.4382   43.8543 H   0  0  0  0  0  0  0  0  0  0  0  0
   57.7995   20.2868   43.8543 H   0  0  0  0  0  0  0  0  0  0  0  0
   56.1006   22.2839   49.7026 H   0  0  0  0  0  0  0  0  0  0  0  0
   55.2318   22.9835   48.2946 H   0  0  0  0  0  0  0  0  0  0  0  0
   55.6900   21.2467   48.2946 H   0  0  0  0  0  0  0  0  0  0  0  0
   57.1518   25.2872   48.0543 H   0  0  0  0  0  0  0  0  0  0  0  0
   56.4354   27.4286   46.6321 H   0  0  0  0  0  0  0  0  0  0  0  0
   59.7243   25.8718   46.8704 H   0  0  0  0  0  0  0  0  0  0  0  0
   61.5654   26.7072   48.3425 H   0  0  0  0  0  0  0  0  0  0  0  0
   61.3871   28.9808   49.3702 H   0  0  0  0  0  0  0  0  0  0  0  0
   57.5848   29.5805   47.5435 H   0  0  0  0  0  0  0  0  0  0  0  0
  1  2  1  0
  2  3  1  0
  3  4  1  0
  4  5  1  0
  5  6  1  0
  6  7  1  0
  7  8  2  0
  7  9  1  0
  9 10  1  0
 10 11  1  0
 11 12  1  0
 12 13  2  0
 13 14  1  0
 14 15  1  0
 15 16  1  0
 14 17  2  0
 17 18  1  0
 18 19  1  0
 17 20  1  0
 20 21  2  0
 21 22  1  0
 22 23  1  0
 23 24  2  0
 24 25  1  0
 25 26  2  0
 26 27  1  0
 27 28  2  0
 22  9  1  0
 28 23  1  0
 21 12  1  0
  1 29  1  0
  1 30  1  0
  1 31  1  0
  2 32  1  0
  2 33  1  0
  3 34  1  0
  3 35  1  0
  4 36  1  0
  4 37  1  0
  5 38  1  0
  6 39  1  0
  6 40  1  0
 10 41  1  0
 10 42  1  0
 11 43  1  0
 11 44  1  0
 13 45  1  0
 16 46  1  0
 16 47  1  0
 16 48  1  0
 19 49  1  0
 19 50  1  0
 19 51  1  0
 20 52  1  0
 22 53  1  1
 24 54  1  0
 25 55  1  0
 26 56  1  0
 28 57  1  0
M  END
>  <UniqueID>  (5) 
5

>  <SMILES>  (5) 
CCCCNCC(=O)N1CCc2cc(OC)c(OC)cc2[C@H]1c1cccnc1

>  <Energy>  (5) 
59.07679984084365

>  <Genealogy>  (5) 
CCCCNCC(=O)N1CCc2cc(OC)c(OC)cc2[C@H]1c1cccnc1 (chirality)
CCCCNCC(=O)N1CCc2cc(OC)c(OC)cc2[C@H]1c1cccnc1 (3D coordinates assigned)
CCCCNCC(=O)N1CCc2cc(OC)c(OC)cc2[C@H]1c1cccnc1 (nonaromatic ring conformer: 59.07679984084365 kcal/mol)

>  <smiles>  (5) 
CCCCNCC(=O)N1CCc2cc(OC)c(OC)cc2C1c1cccnc1

>  <score_type>  (5) 
oracle

>  <origin>  (5) 
adg

>  <m_score__min__energy>  (5) 
-7.8600000000000003

>  <m_primary>  (5) 
energy

$$$$
5:0
     RDKit          3D

 45 47  0  0  0  0  0  0  0  0999 V2000
   55.8260   24.2260   46.6710 C   0  0  0  0  0  0  0  0  0  0  0  0
   55.1540   25.1240   45.6330 C   0  0  0  0  0  0  0  0  0  0  0  0
   53.6520   24.8360   45.5650 C   0  0  0  0  0  0  0  0  0  0  0  0
   55.3810   26.5220   45.9920 N   0  0  0  0  0  0  0  0  0  0  0  0
   56.6790   27.0990   46.1780 C   0  0  0  0  0  0  0  0  0  0  0  0
   57.5350   26.5010   46.8850 O   0  0  0  0  0  0  0  0  0  0  0  0
   57.0120   28.4000   45.5510 C   0  0  0  0  0  0  0  0  0  0  0  0
   58.3070   28.9360   45.6640 C   0  0  0  0  0  0  0  0  0  0  0  0
   58.6190   30.1670   45.0820 C   0  0  0  0  0  0  0  0  0  0  0  0
   57.6440   30.8830   44.3710 C   0  0  0  0  0  0  0  0  0  0  0  0
   57.9590   32.2490   43.8060 C   0  0  0  0  0  0  0  0  0  0  0  0
   57.3830   33.3270   44.6270 N   0  0  0  0  0  0  0  0  0  0  0  0
   58.1350   33.5200   45.8440 C   0  0  0  0  0  0  0  0  0  0  0  0
   59.1450   34.4930   45.9090 C   0  0  0  0  0  0  0  0  0  0  0  0
   59.9050   34.6430   47.0690 C   0  0  0  0  0  0  0  0  0  0  0  0
   59.6750   33.8190   48.1730 C   0  0  0  0  0  0  0  0  0  0  0  0
   58.6750   32.8300   48.1300 C   0  0  0  0  0  0  0  0  0  0  0  0
   58.4410   31.9520   49.2500 N   0  0  0  0  0  0  0  0  0  0  0  0
   58.1000   32.2630   50.5150 C   0  0  0  0  0  0  0  0  0  0  0  0
   57.9810   31.1380   51.2430 N   0  0  0  0  0  0  0  0  0  0  0  0
   58.2540   30.1470   50.4060 N   0  0  0  0  0  0  0  0  0  0  0  0
   58.5310   30.6330   49.2070 N   0  0  0  0  0  0  0  0  0  0  0  0
   57.9060   32.6940   46.9600 C   0  0  0  0  0  0  0  0  0  0  0  0
   56.3510   30.3530   44.2580 C   0  0  0  0  0  0  0  0  0  0  0  0
   56.0370   29.1220   44.8390 C   0  0  0  0  0  0  0  0  0  0  0  0
   55.5652   24.5745   47.6812 H   0  0  0  0  0  0  0  0  0  0  0  0
   55.4792   23.1904   46.5395 H   0  0  0  0  0  0  0  0  0  0  0  0
   56.9174   24.2667   46.5395 H   0  0  0  0  0  0  0  0  0  0  0  0
   55.5881   24.9204   44.6430 H   0  0  0  0  0  0  0  0  0  0  0  0
   53.2470   24.7583   46.5848 H   0  0  0  0  0  0  0  0  0  0  0  0
   53.1457   25.6534   45.0307 H   0  0  0  0  0  0  0  0  0  0  0  0
   53.4840   23.8893   45.0307 H   0  0  0  0  0  0  0  0  0  0  0  0
   59.0807   28.3815   46.2152 H   0  0  0  0  0  0  0  0  0  0  0  0
   59.6347   30.5773   45.1817 H   0  0  0  0  0  0  0  0  0  0  0  0
   59.0511   32.3753   43.7680 H   0  0  0  0  0  0  0  0  0  0  0  0
   57.5181   32.3127   42.8002 H   0  0  0  0  0  0  0  0  0  0  0  0
   56.3810   33.1150   44.8450 H   0  0  0  0  0  0  0  0  0  0  0  0
   57.3940   34.2130   44.0710 H   0  0  0  0  0  0  0  0  0  0  0  0
   59.3380   35.1403   45.0408 H   0  0  0  0  0  0  0  0  0  0  0  0
   60.6888   35.4135   47.1145 H   0  0  0  0  0  0  0  0  0  0  0  0
   60.2802   33.9441   49.0830 H   0  0  0  0  0  0  0  0  0  0  0  0
   57.9425   33.2830   50.8956 H   0  0  0  0  0  0  0  0  0  0  0  0
   57.1146   31.9313   46.9169 H   0  0  0  0  0  0  0  0  0  0  0  0
   55.5784   30.9103   43.7080 H   0  0  0  0  0  0  0  0  0  0  0  0
   55.0202   28.7144   44.7390 H   0  0  0  0  0  0  0  0  0  0  0  0
  1  2  1  0
  2  3  1  0
  2  4  1  0
  4  5  1  0
  5  6  2  0
  5  7  1  0
  7  8  2  0
  8  9  1  0
  9 10  2  0
 10 11  1  0
 11 12  1  0
 12 13  1  0
 13 14  2  0
 14 15  1  0
 15 16  2  0
 16 17  1  0
 17 18  1  0
 18 19  1  0
 19 20  2  0
 20 21  1  0
 21 22  2  0
 17 23  2  0
 10 24  1  0
 24 25  2  0
 25  7  1  0
 23 13  1  0
 22 18  1  0
  1 26  1  0
  1 27  1  0
  1 28  1  0
  2 29  1  0
  3 30  1  0
  3 31  1  0
  3 32  1  0
  8 33  1  0
  9 34  1  0
 11 35  1  0
 11 36  1  0
 12 37  1  0
 12 38  1  0
 14 39  1  0
 15 40  1  0
 16 41  1  0
 19 42  1  0
 23 43  1  0
 24 44  1  0
 25 45  1  0
M  CHG  2   4  -1  12   1
M  END
>  <UniqueID>  (6) 
6

>  <SMILES>  (6) 
CC(C)[N-]C(=O)c1ccc(C[NH2+]c2cccc(-n3cnnn3)c2)cc1

>  <Energy>  (6) 
82.60189296357464

>  <Genealogy>  (6) 
CC(C)[N-]C(=O)c1ccc(C[NH2+]c2cccc(-n3cnnn3)c2)cc1 (protonated)
CC(C)[N-]C(=O)c1ccc(C[NH2+]c2cccc(-n3cnnn3)c2)cc1 (3D coordinates assigned)
CC(C)[N-]C(=O)c1ccc(C[NH2+]c2cccc(-n3cnnn3)c2)cc1 (optimized conformer: 82.60189296357464 kcal/mol)

>  <smiles>  (6) 
CC(C)NC(=O)c1ccc(CNc2cccc(-n3cnnn3)c2)cc1

>  <score_type>  (6) 
oracle

>  <origin>  (6) 
adg

>  <m_score__min__energy>  (6) 
-8.5700000000000003

>  <m_primary>  (6) 
energy

$$$$
6:0
     RDKit          3D

 58 61  0  0  0  0  0  0  0  0999 V2000
   67.5780   28.5900   50.8470 C   0  0  0  0  0  0  0  0  0  0  0  0
   66.2670   28.5050   51.5750 C   0  0  0  0  0  0  0  0  0  0  0  0
   65.3130   29.5100   51.6850 C   0  0  0  0  0  0  0  0  0  0  0  0
   65.3620   30.8880   51.1390 C   0  0  0  0  0  0  0  0  0  0  0  0
   66.3740   31.7890   51.5030 C   0  0  0  0  0  0  0  0  0  0  0  0
   66.3780   33.0440   50.9800 N   0  0  0  0  0  0  0  0  0  0  0  0
   65.4220   33.4470   50.1020 C   0  0  0  0  0  0  0  0  0  0  0  0
   64.4070   32.5520   49.7200 C   0  0  0  0  0  0  0  0  0  0  0  0
   63.3350   32.9340   48.7670 C   0  0  0  0  0  0  0  0  0  0  0  0
   63.6750   33.4270   47.4940 C   0  0  0  0  0  0  0  0  0  0  0  0
   62.6800   33.7980   46.5850 C   0  0  0  0  0  0  0  0  0  0  0  0
   61.3270   33.6960   46.9350 C   0  0  0  0  0  0  0  0  0  0  0  0
   60.2540   34.0740   45.9410 C   0  0  0  0  0  0  0  0  0  0  0  0
   58.9650   34.3450   46.5950 N   0  0  0  0  0  0  0  0  0  0  0  0
   58.0980   33.1590   46.6140 C   0  0  0  0  0  0  0  0  0  0  0  0
   58.3370   32.2920   45.3690 C   0  0  0  0  0  0  0  0  0  0  0  0
   57.3420   31.2030   45.2590 N   0  0  0  0  0  0  0  0  0  0  0  0
   57.9890   29.8980   45.4900 C   0  0  0  0  0  0  0  0  0  0  0  0
   56.9410   28.7650   45.4400 C   0  0  0  0  0  0  0  0  0  0  0  0
   55.7090   29.1840   44.8800 O   0  0  0  0  0  0  0  0  0  0  0  0
   55.9440   29.8740   43.6710 C   0  0  0  0  0  0  0  0  0  0  0  0
   56.6610   31.2090   43.9440 C   0  0  0  0  0  0  0  0  0  0  0  0
   60.9810   33.2100   48.2030 C   0  0  0  0  0  0  0  0  0  0  0  0
   61.9740   32.8370   49.1140 C   0  0  0  0  0  0  0  0  0  0  0  0
   64.4100   31.3030   50.2600 N   0  0  0  0  0  0  0  0  0  0  0  0
   64.2970   28.9430   52.4420 C   0  0  0  0  0  0  0  0  0  0  0  0
   64.6290   27.6790   52.7670 N   0  0  0  0  0  0  0  0  0  0  0  0
   65.8170   27.4210   52.2440 N   0  0  0  0  0  0  0  0  0  0  0  0
   66.4920   26.1360   52.3920 C   0  0  0  0  0  0  0  0  0  0  0  0
   68.3997   28.6433   51.5764 H   0  0  0  0  0  0  0  0  0  0  0  0
   67.7054   27.6982   50.2157 H   0  0  0  0  0  0  0  0  0  0  0  0
   67.5891   29.4908   50.2157 H   0  0  0  0  0  0  0  0  0  0  0  0
   67.1604   31.4816   52.2081 H   0  0  0  0  0  0  0  0  0  0  0  0
   67.1260   33.7140   51.2630 H   0  0  0  0  0  0  0  0  0  0  0  0
   65.4422   34.4677   49.6925 H   0  0  0  0  0  0  0  0  0  0  0  0
   64.7338   33.5214   47.2113 H   0  0  0  0  0  0  0  0  0  0  0  0
   62.9607   34.1721   45.5894 H   0  0  0  0  0  0  0  0  0  0  0  0
   60.5739   34.9767   45.3998 H   0  0  0  0  0  0  0  0  0  0  0  0
   60.1140   33.2259   45.2547 H   0  0  0  0  0  0  0  0  0  0  0  0
   58.4750   35.1190   46.0860 H   0  0  0  0  0  0  0  0  0  0  0  0
   58.3168   32.5661   47.5143 H   0  0  0  0  0  0  0  0  0  0  0  0
   57.0484   33.4882   46.6196 H   0  0  0  0  0  0  0  0  0  0  0  0
   58.2694   32.9278   44.4739 H   0  0  0  0  0  0  0  0  0  0  0  0
   59.3345   31.8364   45.4558 H   0  0  0  0  0  0  0  0  0  0  0  0
   58.7472   29.7259   44.7118 H   0  0  0  0  0  0  0  0  0  0  0  0
   58.4631   29.9039   46.4826 H   0  0  0  0  0  0  0  0  0  0  0  0
   57.3421   27.9412   44.8313 H   0  0  0  0  0  0  0  0  0  0  0  0
   56.7448   28.4481   46.4749 H   0  0  0  0  0  0  0  0  0  0  0  0
   56.5722   29.2528   43.0157 H   0  0  0  0  0  0  0  0  0  0  0  0
   54.9789   30.0807   43.1854 H   0  0  0  0  0  0  0  0  0  0  0  0
   57.4087   31.3804   43.1556 H   0  0  0  0  0  0  0  0  0  0  0  0
   55.9067   32.0096   43.9508 H   0  0  0  0  0  0  0  0  0  0  0  0
   59.9211   33.1213   48.4835 H   0  0  0  0  0  0  0  0  0  0  0  0
   61.6897   32.4650   50.1094 H   0  0  0  0  0  0  0  0  0  0  0  0
   63.3640   29.4485   52.7319 H   0  0  0  0  0  0  0  0  0  0  0  0
   66.6127   25.9062   53.4609 H   0  0  0  0  0  0  0  0  0  0  0  0
   65.8910   25.3488   51.9133 H   0  0  0  0  0  0  0  0  0  0  0  0
   67.4812   26.1842   51.9133 H   0  0  0  0  0  0  0  0  0  0  0  0
  1  2  1  0
  2  3  2  0
  3  4  1  0
  4  5  2  0
  5  6  1  0
  6  7  2  0
  7  8  1  0
  8  9  1  0
  9 10  2  0
 10 11  1  0
 11 12  2  0
 12 13  1  0
 13 14  1  0
 14 15  1  0
 15 16  1  0
 16 17  1  0
 17 18  1  0
 18 19  1  0
 19 20  1  0
 20 21  1  0
 21 22  1  0
 12 23  1  0
 23 24  2  0
  8 25  2  0
  3 26  1  0
 26 27  2  0
 27 28  1  0
 28 29  1  0
 28  2  1  0
 25  4  1  0
 24  9  1  0
 22 17  1  0
  1 30  1  0
  1 31  1  0
  1 32  1  0
  5 33  1  0
  6 34  1  0
  7 35  1  0
 10 36  1  0
 11 37  1  0
 13 38  1  0
 13 39  1  0
 14 40  1  0
 15 41  1  0
 15 42  1  0
 16 43  1  0
 16 44  1  0
 18 45  1  0
 18 46  1  0
 19 47  1  0
 19 48  1  0
 21 49  1  0
 21 50  1  0
 22 51  1  0
 22 52  1  0
 23 53  1  0
 24 54  1  0
 26 55  1  0
 29 56  1  0
 29 57  1  0
 29 58  1  0
M  CHG  1   6   1
M  END
>  <UniqueID>  (7) 
7

>  <SMILES>  (7) 
Cc1c(-c2c[nH+]cc(-c3ccc(CNCCN4CCOCC4)cc3)n2)cnn1C

>  <Energy>  (7) 
104.20737137027143

>  <Genealogy>  (7) 
Cc1c(-c2c[nH+]cc(-c3ccc(CNCCN4CCOCC4)cc3)n2)cnn1C (protonated)
Cc1c(-c2c[nH+]cc(-c3ccc(CNCCN4CCOCC4)cc3)n2)cnn1C (3D coordinates assigned)
Cc1c(-c2c[nH+]cc(-c3ccc(CNCCN4CCOCC4)cc3)n2)cnn1C (nonaromatic ring conformer: 104.20737137027143 kcal/mol)

>  <smiles>  (7) 
Cc1c(-c2cncc(-c3ccc(CNCCN4CCOCC4)cc3)n2)cnn1C

>  <score_type>  (7) 
oracle

>  <origin>  (7) 
adg

>  <m_score__min__energy>  (7) 
-7.5

>  <m_primary>  (7) 
energy

$$$$
7:0
     RDKit          3D

 40 40  0  0  0  0  0  0  0  0999 V2000
   56.2800   29.7330   42.6510 C   0  0  0  0  0  0  0  0  0  0  0  0
   56.6760   29.2990   44.0660 C   0  0  0  0  0  0  0  0  0  0  0  0
   56.9640   30.4180   44.9910 N   0  0  0  0  0  0  0  0  0  0  0  0
   58.0420   30.1400   45.9550 C   0  0  0  0  0  0  0  0  0  0  0  0
   57.0370   31.7540   44.3610 C   0  0  0  0  0  0  0  0  0  0  0  0
   57.6940   32.7620   45.2110 C   0  0  0  0  0  0  0  0  0  0  0  0
   58.2370   33.5820   45.9080 C   0  0  0  0  0  0  0  0  0  0  0  0
   58.8940   34.5910   46.7440 C   0  0  0  0  0  0  0  0  0  0  0  0
   60.3810   34.7870   46.3880 C   0  0  0  0  0  0  0  0  0  0  0  0
   61.4010   33.8550   47.1000 C   0  0  0  0  0  0  0  0  0  0  0  0
   62.7960   33.8390   46.4410 C   0  0  0  0  0  0  0  0  0  0  0  0
   63.6960   32.7390   47.0400 C   0  0  0  0  0  0  0  0  0  0  0  0
   63.3780   32.4130   48.5130 C   0  0  0  0  0  0  0  0  0  0  0  0
   62.8130   33.6280   49.2550 C   0  0  0  0  0  0  0  0  0  0  0  0
   61.4940   34.1200   48.6260 C   0  0  0  0  0  0  0  0  0  0  0  0
   55.5396   30.5444   42.7101 H   0  0  0  0  0  0  0  0  0  0  0  0
   57.1715   30.0885   42.1135 H   0  0  0  0  0  0  0  0  0  0  0  0
   55.8446   28.8777   42.1135 H   0  0  0  0  0  0  0  0  0  0  0  0
   55.8502   28.7076   44.4882 H   0  0  0  0  0  0  0  0  0  0  0  0
   57.6090   28.7245   43.9684 H   0  0  0  0  0  0  0  0  0  0  0  0
   57.6530   30.2403   46.9790 H   0  0  0  0  0  0  0  0  0  0  0  0
   58.4148   29.1163   45.8030 H   0  0  0  0  0  0  0  0  0  0  0  0
   58.8634   30.8557   45.8030 H   0  0  0  0  0  0  0  0  0  0  0  0
   57.6024   31.6669   43.4215 H   0  0  0  0  0  0  0  0  0  0  0  0
   56.0040   32.0923   44.1921 H   0  0  0  0  0  0  0  0  0  0  0  0
   58.3719   35.5502   46.6125 H   0  0  0  0  0  0  0  0  0  0  0  0
   58.8467   34.2395   47.7853 H   0  0  0  0  0  0  0  0  0  0  0  0
   60.4872   34.6303   45.3044 H   0  0  0  0  0  0  0  0  0  0  0  0
   60.6283   35.8016   46.7336 H   0  0  0  0  0  0  0  0  0  0  0  0
   60.9910   32.8427   46.9691 H   0  0  0  0  0  0  0  0  0  0  0  0
   62.6790   33.6562   45.3626 H   0  0  0  0  0  0  0  0  0  0  0  0
   63.2742   34.8123   46.6256 H   0  0  0  0  0  0  0  0  0  0  0  0
   63.5668   31.8225   46.4456 H   0  0  0  0  0  0  0  0  0  0  0  0
   64.7288   33.1163   47.0097 H   0  0  0  0  0  0  0  0  0  0  0  0
   62.6380   31.5998   48.5460 H   0  0  0  0  0  0  0  0  0  0  0  0
   64.3145   32.1154   49.0073 H   0  0  0  0  0  0  0  0  0  0  0  0
   62.6260   33.3501   50.3028 H   0  0  0  0  0  0  0  0  0  0  0  0
   63.5490   34.4427   49.1876 H   0  0  0  0  0  0  0  0  0  0  0  0
   60.6581   33.6038   49.1209 H   0  0  0  0  0  0  0  0  0  0  0  0
   61.4535   35.2099   48.7688 H   0  0  0  0  0  0  0  0  0  0  0  0
  1  2  1  0
  2  3  1  0
  3  4  1  0
  3  5  1  0
  5  6  1  0
  6  7  3  0
  7  8  1  0
  8  9  1  0
  9 10  1  0
 10 11  1  0
 11 12  1  0
 12 13  1  0
 13 14  1  0
 14 15  1  0
 15 10  1  0
  1 16  1  0
  1 17  1  0
  1 18  1  0
  2 19  1  0
  2 20  1  0
  4 21  1  0
  4 22  1  0
  4 23  1  0
  5 24  1  0
  5 25  1  0
  8 26  1  0
  8 27  1  0
  9 28  1  0
  9 29  1  0
 10 30  1  0
 11 31  1  0
 11 32  1  0
 12 33  1  0
 12 34  1  0
 13 35  1  0
 13 36  1  0
 14 37  1  0
 14 38  1  0
 15 39  1  0
 15 40  1  0
M  END
>  <UniqueID>  (8) 
8

>  <SMILES>  (8) 
CCN(C)CC#CCCC1CCCCC1

>  <Energy>  (8) 
37.26945031315932

>  <Genealogy>  (8) 
CCN(C)CC#CCCC1CCCCC1 (3D coordinates assigned)
CCN(C)CC#CCCC1CCCCC1 (nonaromatic ring conformer: 37.26945031315932 kcal/mol)

>  <smiles>  (8) 
CCN(C)CC#CCCC1CCCCC1

>  <score_type>  (8) 
oracle

>  <origin>  (8) 
adg

>  <m_score__min__energy>  (8) 
-6.1100000000000003

>  <m_primary>  (8) 
energy

$$$$
8:0
     RDKit          3D

 55 57  0  0  0  0  0  0  0  0999 V2000
   61.2870   33.8820   46.3670 C   0  0  0  0  0  0  0  0  0  0  0  0
   62.8130   33.8200   46.4010 C   0  0  0  0  0  0  0  0  0  0  0  0
   63.3390   32.5690   47.1280 C   0  0  0  0  0  0  0  0  0  0  0  0
   64.1370   32.8910   48.3280 N   0  0  0  0  0  0  0  0  0  0  0  0
   63.3590   32.7330   49.5640 C   0  0  0  0  0  0  0  0  0  0  0  0
   62.2330   33.7710   49.6370 C   0  0  0  0  0  0  0  0  0  0  0  0
   60.8590   33.1120   49.8200 C   0  0  0  0  0  0  0  0  0  0  0  0
   60.7600   31.8140   49.0130 C   0  0  0  0  0  0  0  0  0  0  0  0
   59.3680   31.5170   48.6780 N   0  0  0  0  0  0  0  0  0  0  0  0
   59.0160   31.0800   47.3580 C   0  0  0  0  0  0  0  0  0  0  0  0
   59.3210   29.7730   46.9480 C   0  0  0  0  0  0  0  0  0  0  0  0
   60.0000   28.8820   47.8060 C   0  0  0  0  0  0  0  0  0  0  0  0
   60.3070   27.5890   47.3870 C   0  0  0  0  0  0  0  0  0  0  0  0
   59.9470   27.1650   46.1130 C   0  0  0  0  0  0  0  0  0  0  0  0
   59.2630   28.0250   45.2530 C   0  0  0  0  0  0  0  0  0  0  0  0
   58.9230   29.3410   45.6570 C   0  0  0  0  0  0  0  0  0  0  0  0
   58.2160   30.1890   44.8300 N   0  0  0  0  0  0  0  0  0  0  0  0
   57.3770   29.6020   43.7630 C   0  0  0  0  0  0  0  0  0  0  0  0
   58.1380   31.5390   45.1240 C   0  0  0  0  0  0  0  0  0  0  0  0
   57.7860   32.5360   44.1550 C   0  0  0  0  0  0  0  0  0  0  0  0
   57.8800   32.3170   42.6640 C   0  0  0  0  0  0  0  0  0  0  0  0
   57.4730   33.8360   44.5820 C   0  0  0  0  0  0  0  0  0  0  0  0
   57.6080   34.1990   45.9160 C   0  0  0  0  0  0  0  0  0  0  0  0
   58.1130   33.2900   46.8370 C   0  0  0  0  0  0  0  0  0  0  0  0
   58.4250   31.9730   46.4480 C   0  0  0  0  0  0  0  0  0  0  0  0
   60.8977   33.8978   47.3957 H   0  0  0  0  0  0  0  0  0  0  0  0
   60.9687   34.7938   45.8404 H   0  0  0  0  0  0  0  0  0  0  0  0
   60.8958   32.9990   45.8404 H   0  0  0  0  0  0  0  0  0  0  0  0
   63.1883   33.8104   45.3670 H   0  0  0  0  0  0  0  0  0  0  0  0
   63.1698   34.7013   46.9541 H   0  0  0  0  0  0  0  0  0  0  0  0
   62.4797   31.9539   47.4333 H   0  0  0  0  0  0  0  0  0  0  0  0
   63.9986   32.0351   46.4281 H   0  0  0  0  0  0  0  0  0  0  0  0
   64.9950   32.2920   48.3790 H   0  0  0  0  0  0  0  0  0  0  0  0
   62.9212   31.7242   49.5877 H   0  0  0  0  0  0  0  0  0  0  0  0
   64.0298   32.8805   50.4233 H   0  0  0  0  0  0  0  0  0  0  0  0
   62.4221   34.4417   50.4881 H   0  0  0  0  0  0  0  0  0  0  0  0
   62.2206   34.3282   48.6886 H   0  0  0  0  0  0  0  0  0  0  0  0
   60.7081   32.8852   50.8857 H   0  0  0  0  0  0  0  0  0  0  0  0
   60.0864   33.8076   49.4604 H   0  0  0  0  0  0  0  0  0  0  0  0
   61.3396   31.9214   48.0843 H   0  0  0  0  0  0  0  0  0  0  0  0
   61.1607   30.9891   49.6205 H   0  0  0  0  0  0  0  0  0  0  0  0
   58.6380   31.4740   49.4250 H   0  0  0  0  0  0  0  0  0  0  0  0
   60.2896   29.2111   48.8149 H   0  0  0  0  0  0  0  0  0  0  0  0
   60.8350   26.9027   48.0654 H   0  0  0  0  0  0  0  0  0  0  0  0
   60.2023   26.1477   45.7816 H   0  0  0  0  0  0  0  0  0  0  0  0
   58.9836   27.6772   44.2475 H   0  0  0  0  0  0  0  0  0  0  0  0
   56.5559   29.0275   44.2165 H   0  0  0  0  0  0  0  0  0  0  0  0
   56.9607   30.4068   43.1394 H   0  0  0  0  0  0  0  0  0  0  0  0
   57.9904   28.9350   43.1394 H   0  0  0  0  0  0  0  0  0  0  0  0
   58.3068   31.3228   42.4656 H   0  0  0  0  0  0  0  0  0  0  0  0
   56.8755   32.3801   42.2201 H   0  0  0  0  0  0  0  0  0  0  0  0
   58.5262   33.0886   42.2201 H   0  0  0  0  0  0  0  0  0  0  0  0
   57.1163   34.5766   43.8511 H   0  0  0  0  0  0  0  0  0  0  0  0
   57.3147   35.2074   46.2434 H   0  0  0  0  0  0  0  0  0  0  0  0
   58.2707   33.6018   47.8800 H   0  0  0  0  0  0  0  0  0  0  0  0
  1  2  1  0
  2  3  1  0
  3  4  1  0
  4  5  1  0
  5  6  1  0
  6  7  1  0
  7  8  1  0
  8  9  1  0
  9 10  1  0
 10 11  2  0
 11 12  1  0
 12 13  2  0
 13 14  1  0
 14 15  2  0
 15 16  1  0
 16 17  2  0
 17 18  1  0
 17 19  1  0
 19 20  2  0
 20 21  1  0
 20 22  1  0
 22 23  2  0
 23 24  1  0
 24 25  2  0
 25 10  1  0
 16 11  1  0
 25 19  1  0
  1 26  1  0
  1 27  1  0
  1 28  1  0
  2 29  1  0
  2 30  1  0
  3 31  1  0
  3 32  1  0
  4 33  1  0
  5 34  1  0
  5 35  1  0
  6 36  1  0
  6 37  1  0
  7 38  1  0
  7 39  1  0
  8 40  1  0
  8 41  1  0
  9 42  1  0
 12 43  1  0
 13 44  1  0
 14 45  1  0
 15 46  1  0
 18 47  1  0
 18 48  1  0
 18 49  1  0
 21 50  1  0
 21 51  1  0
 21 52  1  0
 22 53  1  0
 23 54  1  0
 24 55  1  0
M  CHG  1  17   1
M  END
>  <UniqueID>  (9) 
9

>  <SMILES>  (9) 
CCCNCCCCNc1c2ccccc2[n+](C)c2c(C)cccc12

>  <Energy>  (9) 
83.65994228488414

>  <Genealogy>  (9) 
CCCNCCCCNc1c2ccccc2[n+](C)c2c(C)cccc12 (3D coordinates assigned)
CCCNCCCCNc1c2ccccc2[n+](C)c2c(C)cccc12 (optimized conformer: 83.65994228488414 kcal/mol)

>  <smiles>  (9) 
CCCNCCCCNc1c2ccccc2[n+](C)c2c(C)cccc12

>  <score_type>  (9) 
oracle

>  <origin>  (9) 
adg

>  <m_score__min__energy>  (9) 
-6.4299999999999997

>  <m_primary>  (9) 
energy

$$$$
9:0
     RDKit          3D

 60 63  0  0  0  0  0  0  0  0999 V2000
   60.3880   29.4830   47.1220 C   0  0  0  0  0  0  0  0  0  0  0  0
   59.5910   29.8990   45.9660 N   0  0  0  0  0  0  0  0  0  0  0  0
   59.7680   28.9480   44.8600 C   0  0  0  0  0  0  0  0  0  0  0  0
   58.4650   28.1870   44.5760 C   0  0  0  0  0  0  0  0  0  0  0  0
   57.3710   29.0950   43.9820 C   0  0  0  0  0  0  0  0  0  0  0  0
   56.8190   30.0290   44.9790 N   0  0  0  0  0  0  0  0  0  0  0  0
   56.7070   31.4090   44.4780 C   0  0  0  0  0  0  0  0  0  0  0  0
   57.7410   32.3390   45.1320 C   0  0  0  0  0  0  0  0  0  0  0  0
   57.8030   33.7330   44.4850 C   0  0  0  0  0  0  0  0  0  0  0  0
   58.7690   34.6100   45.1550 N   0  0  0  0  0  0  0  0  0  0  0  0
   59.6180   34.2390   46.2640 C   0  0  0  0  0  0  0  0  0  0  0  0
   60.8660   33.7950   46.0510 C   0  0  0  0  0  0  0  0  0  0  0  0
   61.8870   33.4770   47.0780 C   0  0  0  0  0  0  0  0  0  0  0  0
   63.2170   33.6830   46.6840 C   0  0  0  0  0  0  0  0  0  0  0  0
   64.2670   33.1170   47.3920 C   0  0  0  0  0  0  0  0  0  0  0  0
   64.0100   32.3030   48.4850 C   0  0  0  0  0  0  0  0  0  0  0  0
   62.6890   32.1000   48.9530 C   0  0  0  0  0  0  0  0  0  0  0  0
   61.6150   32.7480   48.2670 C   0  0  0  0  0  0  0  0  0  0  0  0
   60.3170   32.6240   48.7980 C   0  0  0  0  0  0  0  0  0  0  0  0
   60.0540   31.5880   49.7170 C   0  0  0  0  0  0  0  0  0  0  0  0
   58.7300   31.2350   50.0580 C   0  0  0  0  0  0  0  0  0  0  0  0
   58.4760   30.1810   50.9320 C   0  0  0  0  0  0  0  0  0  0  0  0
   59.5320   29.4550   51.4720 C   0  0  0  0  0  0  0  0  0  0  0  0
   60.8470   29.7920   51.1570 C   0  0  0  0  0  0  0  0  0  0  0  0
   61.1360   30.8830   50.2980 C   0  0  0  0  0  0  0  0  0  0  0  0
   62.4320   31.2770   50.0340 N   0  0  0  0  0  0  0  0  0  0  0  0
   63.5360   30.8210   50.9060 C   0  0  0  0  0  0  0  0  0  0  0  0
   59.3310   33.7270   48.6880 C   0  0  0  0  0  0  0  0  0  0  0  0
   59.0620   34.4530   47.6070 C   0  0  0  0  0  0  0  0  0  0  0  0
   59.8618   29.7577   48.0481 H   0  0  0  0  0  0  0  0  0  0  0  0
   60.5348   28.3932   47.0931 H   0  0  0  0  0  0  0  0  0  0  0  0
   61.3660   29.9856   47.0931 H   0  0  0  0  0  0  0  0  0  0  0  0
   58.5880   29.8760   46.2640 H   0  0  0  0  0  0  0  0  0  0  0  0
   60.0674   29.4988   43.9562 H   0  0  0  0  0  0  0  0  0  0  0  0
   60.5441   28.2215   45.1428 H   0  0  0  0  0  0  0  0  0  0  0  0
   58.6774   27.3771   43.8626 H   0  0  0  0  0  0  0  0  0  0  0  0
   58.0911   27.7941   45.5330 H   0  0  0  0  0  0  0  0  0  0  0  0
   57.8040   29.6760   43.1544 H   0  0  0  0  0  0  0  0  0  0  0  0
   56.5506   28.4505   43.6334 H   0  0  0  0  0  0  0  0  0  0  0  0
   57.4200   30.0240   45.8360 H   0  0  0  0  0  0  0  0  0  0  0  0
   56.8678   31.4069   43.3898 H   0  0  0  0  0  0  0  0  0  0  0  0
   55.7035   31.7834   44.7285 H   0  0  0  0  0  0  0  0  0  0  0  0
   57.4803   32.4586   46.1939 H   0  0  0  0  0  0  0  0  0  0  0  0
   58.7284   31.8736   44.9967 H   0  0  0  0  0  0  0  0  0  0  0  0
   58.0966   33.6219   43.4307 H   0  0  0  0  0  0  0  0  0  0  0  0
   56.8080   34.1931   44.5760 H   0  0  0  0  0  0  0  0  0  0  0  0
   58.8950   35.5630   44.7440 H   0  0  0  0  0  0  0  0  0  0  0  0
   61.1637   33.6515   45.0018 H   0  0  0  0  0  0  0  0  0  0  0  0
   63.4307   34.3025   45.8005 H   0  0  0  0  0  0  0  0  0  0  0  0
   65.3050   33.3141   47.0860 H   0  0  0  0  0  0  0  0  0  0  0  0
   64.8471   31.8063   48.9974 H   0  0  0  0  0  0  0  0  0  0  0  0
   57.8892   31.7993   49.6282 H   0  0  0  0  0  0  0  0  0  0  0  0
   57.4397   29.9226   51.1953 H   0  0  0  0  0  0  0  0  0  0  0  0
   59.3288   28.6126   52.1495 H   0  0  0  0  0  0  0  0  0  0  0  0
   61.6735   29.2029   51.5811 H   0  0  0  0  0  0  0  0  0  0  0  0
   63.2445   30.9414   51.9598 H   0  0  0  0  0  0  0  0  0  0  0  0
   63.7494   29.7611   50.7034 H   0  0  0  0  0  0  0  0  0  0  0  0
   64.4352   31.4213   50.7034 H   0  0  0  0  0  0  0  0  0  0  0  0
   58.7619   33.9701   49.5974 H   0  0  0  0  0  0  0  0  0  0  0  0
   58.3591   35.2902   47.7294 H   0  0  0  0  0  0  0  0  0  0  0  0
  1  2  1  0
  2  3  1  0
  3  4  1  0
  4  5  1  0
  5  6  1  0
  6  7  1  0
  7  8  1  0
  8  9  1  0
  9 10  1  0
 10 11  1  0
 11 12  2  0
 12 13  1  0
 13 14  2  0
 14 15  1  0
 15 16  2  0
 16 17  1  0
 17 18  2  0
 18 19  1  0
 19 20  2  0
 20 21  1  0
 21 22  2  0
 22 23  1  0
 23 24  2  0
 24 25  1  0
 25 26  2  0
 26 27  1  0
 19 28  1  0
 28 29  2  0
 29 11  1  0
 18 13  1  0
 25 20  1  0
 26 17  1  0
  1 30  1  0
  1 31  1  0
  1 32  1  0
  2 33  1  0
  3 34  1  0
  3 35  1  0
  4 36  1  0
  4 37  1  0
  5 38  1  0
  5 39  1  0
  6 40  1  0
  7 41  1  0
  7 42  1  0
  8 43  1  0
  8 44  1  0
  9 45  1  0
  9 46  1  0
 10 47  1  0
 12 48  1  0
 14 49  1  0
 15 50  1  0
 16 51  1  0
 21 52  1  0
 22 53  1  0
 23 54  1  0
 24 55  1  0
 27 56  1  0
 27 57  1  0
 27 58  1  0
 28 59  1  0
 29 60  1  0
M  CHG  1  26   1
M  END
>  <UniqueID>  (10) 
10

>  <SMILES>  (10) 
CNCCCNCCCNC1=Cc2cccc3c2c(c2ccccc2[n+]3C)C=C1

>  <Energy>  (10) 
105.39616906200963

>  <Genealogy>  (10) 
CNCCCNCCCNC1=Cc2cccc3c2c(c2ccccc2[n+]3C)C=C1 (3D coordinates assigned)
CNCCCNCCCNC1=Cc2cccc3c2c(c2ccccc2[n+]3C)C=C1 (nonaromatic ring conformer: 105.39616906200963 kcal/mol)

>  <smiles>  (10) 
CNCCCNCCCNC1=Cc2cccc3c2c(c2ccccc2[n+]3C)C=C1

>  <score_type>  (10) 
oracle

>  <origin>  (10) 
adg

>  <m_score__min__energy>  (10) 
-6.3600000000000003

>  <m_primary>  (10) 
energy

$$$$
10:0
     RDKit          3D

 62 64  0  0  0  0  0  0  0  0999 V2000
   63.2380   33.8500   46.3540 C   0  0  0  0  0  0  0  0  0  0  0  0
   63.3370   32.5240   47.1120 C   0  0  0  0  0  0  0  0  0  0  0  0
   62.5960   32.5180   48.3960 N   0  0  0  0  0  0  0  0  0  0  0  0
   63.1930   31.6690   49.4590 C   0  0  0  0  0  0  0  0  0  0  0  0
   64.6120   32.0700   49.8960 C   0  0  0  0  0  0  0  0  0  0  0  0
   62.0520   33.8370   48.7980 C   0  0  0  0  0  0  0  0  0  0  0  0
   61.4650   33.7800   50.2160 C   0  0  0  0  0  0  0  0  0  0  0  0
   60.0690   34.0170   50.2070 O   0  0  0  0  0  0  0  0  0  0  0  0
   59.3930   32.9790   49.5310 C   0  0  0  0  0  0  0  0  0  0  0  0
   59.6560   31.6550   50.2530 C   0  0  0  0  0  0  0  0  0  0  0  0
   59.5120   30.4440   49.3180 C   0  0  0  0  0  0  0  0  0  0  0  0
   60.0680   30.7200   47.9890 N   0  0  0  0  0  0  0  0  0  0  0  0
   59.2740   30.6580   46.7890 C   0  0  0  0  0  0  0  0  0  0  0  0
   58.7250   29.4340   46.3580 C   0  0  0  0  0  0  0  0  0  0  0  0
   59.0280   28.2260   47.0240 C   0  0  0  0  0  0  0  0  0  0  0  0
   58.4230   27.0300   46.6460 C   0  0  0  0  0  0  0  0  0  0  0  0
   57.5080   27.0130   45.5990 C   0  0  0  0  0  0  0  0  0  0  0  0
   57.2330   28.1840   44.8930 C   0  0  0  0  0  0  0  0  0  0  0  0
   57.8720   29.4090   45.2220 C   0  0  0  0  0  0  0  0  0  0  0  0
   57.6770   30.5560   44.4730 N   0  0  0  0  0  0  0  0  0  0  0  0
   57.0190   30.4680   43.1490 C   0  0  0  0  0  0  0  0  0  0  0  0
   58.1300   31.7770   44.9410 C   0  0  0  0  0  0  0  0  0  0  0  0
   57.7350   33.0000   44.3420 C   0  0  0  0  0  0  0  0  0  0  0  0
   58.2320   34.2240   44.7930 C   0  0  0  0  0  0  0  0  0  0  0  0
   59.1410   34.2690   45.8500 C   0  0  0  0  0  0  0  0  0  0  0  0
   59.6530   35.5860   46.3570 C   0  0  0  0  0  0  0  0  0  0  0  0
   59.5040   33.0820   46.4940 C   0  0  0  0  0  0  0  0  0  0  0  0
   58.9890   31.8360   46.0720 C   0  0  0  0  0  0  0  0  0  0  0  0
   63.1760   34.6798   47.0734 H   0  0  0  0  0  0  0  0  0  0  0  0
   64.1291   33.9784   45.7219 H   0  0  0  0  0  0  0  0  0  0  0  0
   62.3377   33.8447   45.7219 H   0  0  0  0  0  0  0  0  0  0  0  0
   62.9309   31.7265   46.4723 H   0  0  0  0  0  0  0  0  0  0  0  0
   64.3992   32.3678   47.3516 H   0  0  0  0  0  0  0  0  0  0  0  0
   62.5383   31.7179   50.3416 H   0  0  0  0  0  0  0  0  0  0  0  0
   63.2787   30.6591   49.0316 H   0  0  0  0  0  0  0  0  0  0  0  0
   64.6667   32.0855   50.9945 H   0  0  0  0  0  0  0  0  0  0  0  0
   65.3363   31.3414   49.5030 H   0  0  0  0  0  0  0  0  0  0  0  0
   64.8478   33.0700   49.5030 H   0  0  0  0  0  0  0  0  0  0  0  0
   62.8604   34.5826   48.7728 H   0  0  0  0  0  0  0  0  0  0  0  0
   61.2507   34.1144   48.0974 H   0  0  0  0  0  0  0  0  0  0  0  0
   61.6563   32.7844   50.6428 H   0  0  0  0  0  0  0  0  0  0  0  0
   61.9452   34.5629   50.8213 H   0  0  0  0  0  0  0  0  0  0  0  0
   58.3128   33.1864   49.5243 H   0  0  0  0  0  0  0  0  0  0  0  0
   59.7564   32.9140   48.4948 H   0  0  0  0  0  0  0  0  0  0  0  0
   60.6785   31.6698   50.6582 H   0  0  0  0  0  0  0  0  0  0  0  0
   58.9088   31.5534   51.0538 H   0  0  0  0  0  0  0  0  0  0  0  0
   60.0451   29.5881   49.7575 H   0  0  0  0  0  0  0  0  0  0  0  0
   58.4406   30.2223   49.2039 H   0  0  0  0  0  0  0  0  0  0  0  0
   61.0250   31.1470   47.9310 H   0  0  0  0  0  0  0  0  0  0  0  0
   59.7516   28.2299   47.8525 H   0  0  0  0  0  0  0  0  0  0  0  0
   58.6691   26.0981   47.1760 H   0  0  0  0  0  0  0  0  0  0  0  0
   57.0008   26.0755   45.3274 H   0  0  0  0  0  0  0  0  0  0  0  0
   56.5079   28.1583   44.0662 H   0  0  0  0  0  0  0  0  0  0  0  0
   55.9372   30.3233   43.2861 H   0  0  0  0  0  0  0  0  0  0  0  0
   57.1965   31.3979   42.5888 H   0  0  0  0  0  0  0  0  0  0  0  0
   57.4346   29.6174   42.5888 H   0  0  0  0  0  0  0  0  0  0  0  0
   57.0221   32.9839   43.5045 H   0  0  0  0  0  0  0  0  0  0  0  0
   57.9051   35.1579   44.3123 H   0  0  0  0  0  0  0  0  0  0  0  0
   59.6511   35.5812   47.4570 H   0  0  0  0  0  0  0  0  0  0  0  0
   60.6786   35.7455   45.9928 H   0  0  0  0  0  0  0  0  0  0  0  0
   59.0044   36.3963   45.9928 H   0  0  0  0  0  0  0  0  0  0  0  0
   60.2021   33.1191   47.3433 H   0  0  0  0  0  0  0  0  0  0  0  0
  1  2  1  0
  2  3  1  0
  3  4  1  0
  4  5  1  0
  3  6  1  0
  6  7  1  0
  7  8  1  0
  8  9  1  0
  9 10  1  0
 10 11  1  0
 11 12  1  0
 12 13  1  0
 13 14  2  0
 14 15  1  0
 15 16  2  0
 16 17  1  0
 17 18  2  0
 18 19  1  0
 19 20  2  0
 20 21  1  0
 20 22  1  0
 22 23  2  0
 23 24  1  0
 24 25  2  0
 25 26  1  0
 25 27  1  0
 27 28  2  0
 28 13  1  0
 19 14  1  0
 28 22  1  0
  1 29  1  0
  1 30  1  0
  1 31  1  0
  2 32  1  0
  2 33  1  0
  4 34  1  0
  4 35  1  0
  5 36  1  0
  5 37  1  0
  5 38  1  0
  6 39  1  0
  6 40  1  0
  7 41  1  0
  7 42  1  0
  9 43  1  0
  9 44  1  0
 10 45  1  0
 10 46  1  0
 11 47  1  0
 11 48  1  0
 12 49  1  0
 15 50  1  0
 16 51  1  0
 17 52  1  0
 18 53  1  0
 21 54  1  0
 21 55  1  0
 21 56  1  0
 23 57  1  0
 24 58  1  0
 26 59  1  0
 26 60  1  0
 26 61  1  0
 27 62  1  0
M  CHG  1  20   1
M  END
>  <UniqueID>  (11) 
11

>  <SMILES>  (11) 
CCN(CC)CCOCCCNc1c2ccccc2[n+](C)c2ccc(C)cc12

>  <Energy>  (11) 
92.05986988839534

>  <Genealogy>  (11) 
CCN(CC)CCOCCCNc1c2ccccc2[n+](C)c2ccc(C)cc12 (3D coordinates assigned)
CCN(CC)CCOCCCNc1c2ccccc2[n+](C)c2ccc(C)cc12 (optimized conformer: 92.05986988839534 kcal/mol)

>  <smiles>  (11) 
CCN(CC)CCOCCCNc1c2ccccc2[n+](C)c2ccc(C)cc12

>  <score_type>  (11) 
oracle

>  <origin>  (11) 
adg

>  <m_score__min__energy>  (11) 
-5.4199999999999999

>  <m_primary>  (11) 
energy

$$$$
11:0
     RDKit          3D

 74 77  0  0  0  0  0  0  0  0999 V2000
   60.6080   29.0770   51.6650 C   0  0  0  0  0  0  0  0  0  0  0  0
   60.1370   29.6230   50.3830 N   0  0  0  0  0  0  0  0  0  0  0  0
   58.6660   29.7030   50.3950 C   0  0  0  0  0  0  0  0  0  0  0  0
   60.6210   28.7880   49.2630 C   0  0  0  0  0  0  0  0  0  0  0  0
   60.6830   29.5810   47.9490 C   0  0  0  0  0  0  0  0  0  0  0  0
   59.8560   30.7900   48.0010 N   0  0  0  0  0  0  0  0  0  0  0  0
   59.1980   31.3140   46.8340 C   0  0  0  0  0  0  0  0  0  0  0  0
   58.4750   30.4470   45.9920 C   0  0  0  0  0  0  0  0  0  0  0  0
   58.1780   29.1290   46.3980 C   0  0  0  0  0  0  0  0  0  0  0  0
   57.4650   28.2700   45.5660 C   0  0  0  0  0  0  0  0  0  0  0  0
   57.0220   28.7110   44.3260 C   0  0  0  0  0  0  0  0  0  0  0  0
   57.2840   30.0160   43.9110 C   0  0  0  0  0  0  0  0  0  0  0  0
   58.0150   30.9130   44.7320 C   0  0  0  0  0  0  0  0  0  0  0  0
   58.2760   32.2100   44.3370 N   0  0  0  0  0  0  0  0  0  0  0  0
   57.8810   32.6650   42.9850 C   0  0  0  0  0  0  0  0  0  0  0  0
   58.8640   33.0980   45.2080 C   0  0  0  0  0  0  0  0  0  0  0  0
   59.0270   34.4020   44.8450 N   0  0  0  0  0  0  0  0  0  0  0  0
   59.5910   35.3290   45.6520 C   0  0  0  0  0  0  0  0  0  0  0  0
   60.0140   34.9750   46.9240 C   0  0  0  0  0  0  0  0  0  0  0  0
   59.8600   33.6530   47.3720 C   0  0  0  0  0  0  0  0  0  0  0  0
   60.2200   33.2900   48.6820 O   0  0  0  0  0  0  0  0  0  0  0  0
   59.5980   33.7380   49.8870 C   0  0  0  0  0  0  0  0  0  0  0  0
   60.1090   32.9160   51.0940 C   0  0  0  0  0  0  0  0  0  0  0  0
   61.5640   33.0730   51.4240 N   0  0  0  0  0  0  0  0  0  0  0  0
   61.7240   33.4560   52.8530 C   0  0  0  0  0  0  0  0  0  0  0  0
   62.3110   31.7950   51.1730 C   0  0  0  0  0  0  0  0  0  0  0  0
   62.8610   31.7030   49.7370 C   0  0  0  0  0  0  0  0  0  0  0  0
   63.8640   32.7770   49.4460 N   0  0  0  0  0  0  0  0  0  0  0  0
   63.8180   33.0980   47.9980 C   0  0  0  0  0  0  0  0  0  0  0  0
   65.2280   32.2810   49.7600 C   0  0  0  0  0  0  0  0  0  0  0  0
   63.6020   34.0160   50.2460 C   0  0  0  0  0  0  0  0  0  0  0  0
   62.1050   34.1890   50.5730 C   0  0  0  0  0  0  0  0  0  0  0  0
   59.3120   32.6800   46.4900 C   0  0  0  0  0  0  0  0  0  0  0  0
   60.1350   29.6253   52.4930 H   0  0  0  0  0  0  0  0  0  0  0  0
   60.3406   28.0120   51.7304 H   0  0  0  0  0  0  0  0  0  0  0  0
   61.7007   29.1853   51.7304 H   0  0  0  0  0  0  0  0  0  0  0  0
   58.3083   29.7225   51.4350 H   0  0  0  0  0  0  0  0  0  0  0  0
   58.3444   30.6200   49.8795 H   0  0  0  0  0  0  0  0  0  0  0  0
   58.2469   28.8263   49.8795 H   0  0  0  0  0  0  0  0  0  0  0  0
   61.6284   28.4177   49.5038 H   0  0  0  0  0  0  0  0  0  0  0  0
   59.9166   27.9541   49.1275 H   0  0  0  0  0  0  0  0  0  0  0  0
   61.7265   29.8718   47.7580 H   0  0  0  0  0  0  0  0  0  0  0  0
   60.2970   28.9381   47.1442 H   0  0  0  0  0  0  0  0  0  0  0  0
   59.6700   31.2370   48.9270 H   0  0  0  0  0  0  0  0  0  0  0  0
   58.5139   28.7756   47.3841 H   0  0  0  0  0  0  0  0  0  0  0  0
   57.2524   27.2409   45.8913 H   0  0  0  0  0  0  0  0  0  0  0  0
   56.4626   28.0286   43.6691 H   0  0  0  0  0  0  0  0  0  0  0  0
   56.9179   30.3557   42.9309 H   0  0  0  0  0  0  0  0  0  0  0  0
   57.1622   33.4930   43.0723 H   0  0  0  0  0  0  0  0  0  0  0  0
   58.7719   33.0088   42.4390 H   0  0  0  0  0  0  0  0  0  0  0  0
   57.4154   31.8313   42.4390 H   0  0  0  0  0  0  0  0  0  0  0  0
   59.7141   36.3636   45.2993 H   0  0  0  0  0  0  0  0  0  0  0  0
   60.4700   35.7293   47.5820 H   0  0  0  0  0  0  0  0  0  0  0  0
   59.8360   34.8003   50.0448 H   0  0  0  0  0  0  0  0  0  0  0  0
   58.5098   33.6042   49.7985 H   0  0  0  0  0  0  0  0  0  0  0  0
   59.5283   33.2184   51.9779 H   0  0  0  0  0  0  0  0  0  0  0  0
   59.9796   31.8607   50.8120 H   0  0  0  0  0  0  0  0  0  0  0  0
   61.3795   32.6314   53.4944 H   0  0  0  0  0  0  0  0  0  0  0  0
   62.7841   33.6636   53.0605 H   0  0  0  0  0  0  0  0  0  0  0  0
   61.1266   34.3561   53.0605 H   0  0  0  0  0  0  0  0  0  0  0  0
   63.1536   31.7352   51.8776 H   0  0  0  0  0  0  0  0  0  0  0  0
   61.6051   30.9632   51.3135 H   0  0  0  0  0  0  0  0  0  0  0  0
   63.3426   30.7230   49.6041 H   0  0  0  0  0  0  0  0  0  0  0  0
   62.0173   31.8315   49.0430 H   0  0  0  0  0  0  0  0  0  0  0  0
   63.6631   34.1791   47.8668 H   0  0  0  0  0  0  0  0  0  0  0  0
   64.7675   32.8038   47.5269 H   0  0  0  0  0  0  0  0  0  0  0  0
   62.9893   32.5490   47.5269 H   0  0  0  0  0  0  0  0  0  0  0  0
   65.3587   32.2335   50.8512 H   0  0  0  0  0  0  0  0  0  0  0  0
   65.3609   31.2770   49.3307 H   0  0  0  0  0  0  0  0  0  0  0  0
   65.9748   32.9651   49.3307 H   0  0  0  0  0  0  0  0  0  0  0  0
   64.1663   33.9558   51.1883 H   0  0  0  0  0  0  0  0  0  0  0  0
   63.9199   34.8809   49.6452 H   0  0  0  0  0  0  0  0  0  0  0  0
   61.9698   35.1390   51.1108 H   0  0  0  0  0  0  0  0  0  0  0  0
   61.5536   34.1783   49.6212 H   0  0  0  0  0  0  0  0  0  0  0  0
  1  2  1  0
  2  3  1  0
  2  4  1  0
  4  5  1  0
  5  6  1  0
  6  7  1  0
  7  8  2  0
  8  9  1  0
  9 10  2  0
 10 11  1  0
 11 12  2  0
 12 13  1  0
 13 14  2  0
 14 15  1  0
 14 16  1  0
 16 17  2  0
 17 18  1  0
 18 19  2  0
 19 20  1  0
 20 21  1  0
 21 22  1  0
 22 23  1  0
 23 24  1  0
 24 25  1  0
 24 26  1  0
 26 27  1  0
 27 28  1  0
 28 29  1  0
 28 30  1  0
 28 31  1  0
 31 32  1  0
 20 33  2  0
 33  7  1  0
 13  8  1  0
 33 16  1  0
 32 24  1  0
  1 34  1  0
  1 35  1  0
  1 36  1  0
  3 37  1  0
  3 38  1  0
  3 39  1  0
  4 40  1  0
  4 41  1  0
  5 42  1  0
  5 43  1  0
  6 44  1  0
  9 45  1  0
 10 46  1  0
 11 47  1  0
 12 48  1  0
 15 49  1  0
 15 50  1  0
 15 51  1  0
 18 52  1  0
 19 53  1  0
 22 54  1  0
 22 55  1  0
 23 56  1  0
 23 57  1  0
 25 58  1  0
 25 59  1  0
 25 60  1  0
 26 61  1  0
 26 62  1  0
 27 63  1  0
 27 64  1  0
 29 65  1  0
 29 66  1  0
 29 67  1  0
 30 68  1  0
 30 69  1  0
 30 70  1  0
 31 71  1  0
 31 72  1  0
 32 73  1  0
 32 74  1  0
M  CHG  3  14   1  24   1  28   1
M  END
>  <UniqueID>  (12) 
12

>  <SMILES>  (12) 
CN(C)CCNc1c2ccccc2[n+](C)c2nccc(OCC[N+]3(C)CC[N+](C)(C)CC3)c12

>  <Energy>  (12) 
123.28148175892643

>  <Genealogy>  (12) 
CN(C)CCNc1c2ccccc2[n+](C)c2nccc(OCC[N+]3(C)CC[N+](C)(C)CC3)c12 (3D coordinates assigned)
CN(C)CCNc1c2ccccc2[n+](C)c2nccc(OCC[N+]3(C)CC[N+](C)(C)CC3)c12 (nonaromatic ring conformer: 123.28148175892643 kcal/mol)

>  <smiles>  (12) 
CN(C)CCNc1c2ccccc2[n+](C)c2nccc(OCC[N+]3(C)CC[N+](C)(C)CC3)c12

>  <score_type>  (12) 
oracle

>  <origin>  (12) 
adg

>  <m_score__min__energy>  (12) 
-3.4500000000000002

>  <m_primary>  (12) 
energy

$$$$
12:0
     RDKit          3D

 47 50  0  0  0  0  0  0  0  0999 V2000
   62.7070   33.5020   46.8770 C   0  0  0  0  0  0  0  0  0  0  0  0
   62.6740   32.3480   47.7910 N   0  0  0  0  0  0  0  0  0  0  0  0
   63.9080   32.3300   48.5980 C   0  0  0  0  0  0  0  0  0  0  0  0
   61.4740   32.4070   48.6520 C   0  0  0  0  0  0  0  0  0  0  0  0
   60.5220   31.2440   48.3280 C   0  0  0  0  0  0  0  0  0  0  0  0
   60.7630   30.6740   46.9880 N   0  0  0  0  0  0  0  0  0  0  0  0
   59.5580   30.6540   46.1810 C   0  0  0  0  0  0  0  0  0  0  0  0
   58.9030   31.8520   45.7480 C   0  0  0  0  0  0  0  0  0  0  0  0
   59.4010   33.1450   46.0330 C   0  0  0  0  0  0  0  0  0  0  0  0
   58.7280   34.2820   45.5920 C   0  0  0  0  0  0  0  0  0  0  0  0
   57.5550   34.1440   44.8630 C   0  0  0  0  0  0  0  0  0  0  0  0
   57.0730   32.9090   44.5810 N   0  0  0  0  0  0  0  0  0  0  0  0
   57.6920   31.7630   44.9870 C   0  0  0  0  0  0  0  0  0  0  0  0
   57.1470   30.5420   44.6620 N   0  0  0  0  0  0  0  0  0  0  0  0
   55.9010   30.4250   43.8840 C   0  0  0  0  0  0  0  0  0  0  0  0
   57.7910   29.4070   45.0610 C   0  0  0  0  0  0  0  0  0  0  0  0
   57.3830   28.1440   44.8000 N   0  0  0  0  0  0  0  0  0  0  0  0
   58.3060   27.3520   45.3710 C   0  0  0  0  0  0  0  0  0  0  0  0
   58.3120   25.9580   45.3600 C   0  0  0  0  0  0  0  0  0  0  0  0
   59.3690   25.2960   46.0020 C   0  0  0  0  0  0  0  0  0  0  0  0
   60.3910   26.0320   46.6320 C   0  0  0  0  0  0  0  0  0  0  0  0
   60.3680   27.4380   46.6320 C   0  0  0  0  0  0  0  0  0  0  0  0
   59.2990   28.0880   45.9930 C   0  0  0  0  0  0  0  0  0  0  0  0
   58.9660   29.4320   45.7950 C   0  0  0  0  0  0  0  0  0  0  0  0
   62.7336   34.4328   47.4625 H   0  0  0  0  0  0  0  0  0  0  0  0
   63.6038   33.4419   46.2428 H   0  0  0  0  0  0  0  0  0  0  0  0
   61.8082   33.4933   46.2428 H   0  0  0  0  0  0  0  0  0  0  0  0
   63.6473   32.3338   49.6667 H   0  0  0  0  0  0  0  0  0  0  0  0
   64.4855   31.4233   48.3647 H   0  0  0  0  0  0  0  0  0  0  0  0
   64.5117   33.2194   48.3647 H   0  0  0  0  0  0  0  0  0  0  0  0
   61.7811   32.3407   49.7062 H   0  0  0  0  0  0  0  0  0  0  0  0
   60.9507   33.3571   48.4689 H   0  0  0  0  0  0  0  0  0  0  0  0
   60.6633   30.4526   49.0788 H   0  0  0  0  0  0  0  0  0  0  0  0
   59.4950   31.6377   48.3444 H   0  0  0  0  0  0  0  0  0  0  0  0
   61.4850   31.2370   46.4890 H   0  0  0  0  0  0  0  0  0  0  0  0
   61.2140   29.7390   47.0680 H   0  0  0  0  0  0  0  0  0  0  0  0
   60.3312   33.2539   46.6100 H   0  0  0  0  0  0  0  0  0  0  0  0
   59.1236   35.2828   45.8200 H   0  0  0  0  0  0  0  0  0  0  0  0
   57.0163   35.0373   44.5140 H   0  0  0  0  0  0  0  0  0  0  0  0
   55.0458   30.3447   44.5712 H   0  0  0  0  0  0  0  0  0  0  0  0
   55.7796   31.3157   43.2500 H   0  0  0  0  0  0  0  0  0  0  0  0
   55.9475   29.5273   43.2500 H   0  0  0  0  0  0  0  0  0  0  0  0
   56.5410   27.8340   44.2680 H   0  0  0  0  0  0  0  0  0  0  0  0
   57.5103   25.3930   44.8619 H   0  0  0  0  0  0  0  0  0  0  0  0
   59.3997   24.1965   46.0134 H   0  0  0  0  0  0  0  0  0  0  0  0
   61.2162   25.5013   47.1295 H   0  0  0  0  0  0  0  0  0  0  0  0
   61.1674   28.0147   47.1203 H   0  0  0  0  0  0  0  0  0  0  0  0
  1  2  1  0
  2  3  1  0
  2  4  1  0
  4  5  1  0
  5  6  1  0
  6  7  1  0
  7  8  2  0
  8  9  1  0
  9 10  2  0
 10 11  1  0
 11 12  2  0
 12 13  1  0
 13 14  2  0
 14 15  1  0
 14 16  1  0
 16 17  1  0
 17 18  1  0
 18 19  2  0
 19 20  1  0
 20 21  2  0
 21 22  1  0
 22 23  2  0
 23 24  1  0
 24  7  1  0
 13  8  1  0
 24 16  2  0
 23 18  1  0
  1 25  1  0
  1 26  1  0
  1 27  1  0
  3 28  1  0
  3 29  1  0
  3 30  1  0
  4 31  1  0
  4 32  1  0
  5 33  1  0
  5 34  1  0
  6 35  1  0
  6 36  1  0
  9 37  1  0
 10 38  1  0
 11 39  1  0
 15 40  1  0
 15 41  1  0
 15 42  1  0
 17 43  1  0
 19 44  1  0
 20 45  1  0
 21 46  1  0
 22 47  1  0
M  CHG  2   6   1  14   1
M  END
>  <UniqueID>  (13) 
13

>  <SMILES>  (13) 
CN(C)CC[NH2+]c1c2cccnc2[n+](C)c2[nH]c3ccccc3c12

>  <Energy>  (13) 
105.80904639833243

>  <Genealogy>  (13) 
CN(C)CC[NH2+]c1c2cccnc2[n+](C)c2[nH]c3ccccc3c12 (protonated)
CN(C)CC[NH2+]c1c2cccnc2[n+](C)c2[nH]c3ccccc3c12 (3D coordinates assigned)
CN(C)CC[NH2+]c1c2cccnc2[n+](C)c2[nH]c3ccccc3c12 (optimized conformer: 105.80904639833243 kcal/mol)

>  <smiles>  (13) 
CN(C)CCNc1c2cccnc2[n+](C)c2[nH]c3ccccc3c12

>  <score_type>  (13) 
oracle

>  <origin>  (13) 
adg

>  <m_score__min__energy>  (13) 
-4.3899999999999997

>  <m_primary>  (13) 
energy

$$$$
13:0
     RDKit          3D

 48 50  0  0  0  0  0  0  0  0999 V2000
   58.0480   32.3680   41.1330 C   0  0  0  0  0  0  0  0  0  0  0  0
   57.0210   31.5640   41.9230 C   0  0  0  0  0  0  0  0  0  0  0  0
   57.6620   30.8010   42.9970 N   0  0  0  0  0  0  0  0  0  0  0  0
   57.8960   31.3330   44.3140 C   0  0  0  0  0  0  0  0  0  0  0  0
   57.5880   32.6740   44.5770 C   0  0  0  0  0  0  0  0  0  0  0  0
   57.8120   33.2240   45.8400 C   0  0  0  0  0  0  0  0  0  0  0  0
   58.3800   32.4500   46.8690 C   0  0  0  0  0  0  0  0  0  0  0  0
   58.6230   31.0810   46.6300 C   0  0  0  0  0  0  0  0  0  0  0  0
   58.4110   30.5380   45.3540 C   0  0  0  0  0  0  0  0  0  0  0  0
   59.1360   30.1980   47.7340 C   0  0  0  0  0  0  0  0  0  0  0  0
   58.8900   30.8560   49.0880 C   0  0  0  0  0  0  0  0  0  0  0  0
   59.4070   32.1680   49.0720 O   0  0  0  0  0  0  0  0  0  0  0  0
   58.5970   33.0220   48.2730 C   0  0  1  0  0  0  0  0  0  0  0  0
   59.2780   34.4070   48.2250 C   0  0  0  0  0  0  0  0  0  0  0  0
   60.6730   34.3420   47.5660 C   0  0  0  0  0  0  0  0  0  0  0  0
   61.5540   33.3300   48.2000 N   0  0  0  0  0  0  0  0  0  0  0  0
   62.3430   32.5980   47.1720 C   0  0  0  0  0  0  0  0  0  0  0  0
   63.7720   33.1570   47.0420 C   0  0  0  0  0  0  0  0  0  0  0  0
   64.5240   33.0780   48.2470 O   0  0  0  0  0  0  0  0  0  0  0  0
   63.7270   33.1430   49.4210 C   0  0  0  0  0  0  0  0  0  0  0  0
   62.4250   33.9430   49.2380 C   0  0  0  0  0  0  0  0  0  0  0  0
   58.7180   32.8925   41.8301 H   0  0  0  0  0  0  0  0  0  0  0  0
   58.6371   31.6885   40.4995 H   0  0  0  0  0  0  0  0  0  0  0  0
   57.5298   33.1029   40.4995 H   0  0  0  0  0  0  0  0  0  0  0  0
   56.2852   32.2538   42.3620 H   0  0  0  0  0  0  0  0  0  0  0  0
   56.5283   30.8578   41.2385 H   0  0  0  0  0  0  0  0  0  0  0  0
   57.9620   29.8180   42.8030 H   0  0  0  0  0  0  0  0  0  0  0  0
   57.1645   33.3010   43.7785 H   0  0  0  0  0  0  0  0  0  0  0  0
   57.5419   34.2727   46.0330 H   0  0  0  0  0  0  0  0  0  0  0  0
   58.6496   29.4810   45.1650 H   0  0  0  0  0  0  0  0  0  0  0  0
   58.6132   29.2308   47.6991 H   0  0  0  0  0  0  0  0  0  0  0  0
   60.2168   30.0441   47.5994 H   0  0  0  0  0  0  0  0  0  0  0  0
   57.8090   30.8899   49.2886 H   0  0  0  0  0  0  0  0  0  0  0  0
   59.3901   30.2736   49.8759 H   0  0  0  0  0  0  0  0  0  0  0  0
   57.5951   33.1106   48.7184 H   0  0  0  0  0  0  0  0  0  0  0  0
   58.6436   35.0950   47.6469 H   0  0  0  0  0  0  0  0  0  0  0  0
   59.4064   34.7590   49.2592 H   0  0  0  0  0  0  0  0  0  0  0  0
   60.5496   34.0862   46.5033 H   0  0  0  0  0  0  0  0  0  0  0  0
   61.1487   35.3257   47.6924 H   0  0  0  0  0  0  0  0  0  0  0  0
   60.9380   32.6250   48.6710 H   0  0  0  0  0  0  0  0  0  0  0  0
   62.4003   31.5369   47.4562 H   0  0  0  0  0  0  0  0  0  0  0  0
   61.8384   32.7211   46.2024 H   0  0  0  0  0  0  0  0  0  0  0  0
   64.2999   32.5859   46.2641 H   0  0  0  0  0  0  0  0  0  0  0  0
   63.6804   34.2231   46.7870 H   0  0  0  0  0  0  0  0  0  0  0  0
   63.4658   32.1175   49.7213 H   0  0  0  0  0  0  0  0  0  0  0  0
   64.3212   33.6643   50.1860 H   0  0  0  0  0  0  0  0  0  0  0  0
   61.8813   33.9656   50.1939 H   0  0  0  0  0  0  0  0  0  0  0  0
   62.6864   34.9612   48.9140 H   0  0  0  0  0  0  0  0  0  0  0  0
  1  2  1  0
  2  3  1  0
  3  4  1  0
  4  5  2  0
  5  6  1  0
  6  7  2  0
  7  8  1  0
  8  9  2  0
  8 10  1  0
 10 11  1  0
 11 12  1  0
 12 13  1  0
 13 14  1  0
 14 15  1  0
 15 16  1  0
 16 17  1  0
 17 18  1  0
 18 19  1  0
 19 20  1  0
 20 21  1  0
  9  4  1  0
 21 16  1  0
 13  7  1  0
  1 22  1  0
  1 23  1  0
  1 24  1  0
  2 25  1  0
  2 26  1  0
  3 27  1  0
  5 28  1  0
  6 29  1  0
  9 30  1  0
 10 31  1  0
 10 32  1  0
 11 33  1  0
 11 34  1  0
 13 35  1  1
 14 36  1  0
 14 37  1  0
 15 38  1  0
 15 39  1  0
 16 40  1  0
 17 41  1  0
 17 42  1  0
 18 43  1  0
 18 44  1  0
 20 45  1  0
 20 46  1  0
 21 47  1  0
 21 48  1  0
M  CHG  1  16   1
M  END
>  <UniqueID>  (14) 
14

>  <SMILES>  (14) 
CCNc1ccc2c(c1)CCO[C@H]2CC[NH+]1CCOCC1

>  <Energy>  (14) 
64.06978750486489

>  <Genealogy>  (14) 
CCNc1ccc2c(c1)CCOC2CC[NH+]1CCOCC1 (protonated)
CCNc1ccc2c(c1)CCO[C@H]2CC[NH+]1CCOCC1 (chirality)
CCNc1ccc2c(c1)CCO[C@H]2CC[NH+]1CCOCC1 (3D coordinates assigned)
CCNc1ccc2c(c1)CCO[C@H]2CC[NH+]1CCOCC1 (nonaromatic ring conformer: 64.06978750486489 kcal/mol)

>  <smiles>  (14) 
CCNc1ccc2c(c1)CCOC2CCN1CCOCC1

>  <score_type>  (14) 
oracle

>  <origin>  (14) 
adg

>  <m_score__min__energy>  (14) 
-5.9299999999999997

>  <m_primary>  (14) 
energy

$$$$
14:0
     RDKit          3D

 64 67  0  0  0  0  0  0  0  0999 V2000
   59.3330   33.0720   49.6700 C   0  0  0  0  0  0  0  0  0  0  0  0
   60.3120   32.5160   50.7130 C   0  0  0  0  0  0  0  0  0  0  0  0
   60.5170   31.0640   50.5760 N   0  0  0  0  0  0  0  0  0  0  0  0
   59.2530   30.3540   50.3320 C   0  0  0  0  0  0  0  0  0  0  0  0
   59.2940   29.5800   48.9990 C   0  0  0  0  0  0  0  0  0  0  0  0
   60.5830   29.6970   48.2850 N   0  0  0  0  0  0  0  0  0  0  0  0
   60.6020   30.8190   47.3630 C   0  0  0  0  0  0  0  0  0  0  0  0
   61.6040   31.8330   47.4530 C   0  0  0  0  0  0  0  0  0  0  0  0
   62.8040   31.6190   48.1710 C   0  0  0  0  0  0  0  0  0  0  0  0
   63.7860   32.6040   48.2350 C   0  0  0  0  0  0  0  0  0  0  0  0
   63.6110   33.8120   47.5760 C   0  0  0  0  0  0  0  0  0  0  0  0
   62.4420   34.0580   46.8590 C   0  0  0  0  0  0  0  0  0  0  0  0
   61.4040   33.0950   46.7980 C   0  0  0  0  0  0  0  0  0  0  0  0
   60.2220   33.3560   46.1310 N   0  0  0  0  0  0  0  0  0  0  0  0
   59.9010   34.7030   45.6220 C   0  0  0  0  0  0  0  0  0  0  0  0
   59.3520   32.3210   45.9200 C   0  0  0  0  0  0  0  0  0  0  0  0
   58.2380   32.3700   45.1520 N   0  0  0  0  0  0  0  0  0  0  0  0
   57.7290   31.1280   45.1860 C   0  0  0  0  0  0  0  0  0  0  0  0
   56.6090   30.6860   44.4880 C   0  0  0  0  0  0  0  0  0  0  0  0
   56.2760   29.3270   44.5530 C   0  0  0  0  0  0  0  0  0  0  0  0
   57.0900   28.4190   45.2800 C   0  0  0  0  0  0  0  0  0  0  0  0
   56.7940   27.0090   45.3280 N   0  0  0  0  0  0  0  0  0  0  0  0
   57.1520   26.1200   46.4350 C   0  0  0  0  0  0  0  0  0  0  0  0
   56.1910   24.9260   46.4970 C   0  0  0  0  0  0  0  0  0  0  0  0
   55.3350   24.8830   45.2910 N   0  0  0  0  0  0  0  0  0  0  0  0
   55.9710   24.0940   44.2200 C   0  0  0  0  0  0  0  0  0  0  0  0
   54.0240   24.2980   45.6160 C   0  0  0  0  0  0  0  0  0  0  0  0
   58.2250   28.9010   45.9660 C   0  0  0  0  0  0  0  0  0  0  0  0
   58.4980   30.2780   45.9530 C   0  0  0  0  0  0  0  0  0  0  0  0
   59.5410   31.0610   46.4650 C   0  0  0  0  0  0  0  0  0  0  0  0
   58.4862   33.5529   50.1816 H   0  0  0  0  0  0  0  0  0  0  0  0
   59.8491   33.8118   49.0404 H   0  0  0  0  0  0  0  0  0  0  0  0
   58.9620   32.2498   49.0404 H   0  0  0  0  0  0  0  0  0  0  0  0
   61.2812   33.0221   50.5923 H   0  0  0  0  0  0  0  0  0  0  0  0
   59.8808   32.7004   51.7080 H   0  0  0  0  0  0  0  0  0  0  0  0
   60.9570   30.7100   51.4550 H   0  0  0  0  0  0  0  0  0  0  0  0
   59.0764   29.6440   51.1534 H   0  0  0  0  0  0  0  0  0  0  0  0
   58.4426   31.0959   50.2782 H   0  0  0  0  0  0  0  0  0  0  0  0
   59.1082   28.5163   49.2089 H   0  0  0  0  0  0  0  0  0  0  0  0
   58.5240   30.0192   48.3477 H   0  0  0  0  0  0  0  0  0  0  0  0
   61.3600   29.7910   48.9770 H   0  0  0  0  0  0  0  0  0  0  0  0
   60.7610   28.7960   47.8130 H   0  0  0  0  0  0  0  0  0  0  0  0
   62.9636   30.6604   48.6863 H   0  0  0  0  0  0  0  0  0  0  0  0
   64.7054   32.4233   48.8112 H   0  0  0  0  0  0  0  0  0  0  0  0
   64.3984   34.5789   47.6197 H   0  0  0  0  0  0  0  0  0  0  0  0
   62.3227   35.0158   46.3314 H   0  0  0  0  0  0  0  0  0  0  0  0
   59.7383   35.3858   46.4689 H   0  0  0  0  0  0  0  0  0  0  0  0
   60.7364   35.0720   45.0088 H   0  0  0  0  0  0  0  0  0  0  0  0
   58.9890   34.6555   45.0088 H   0  0  0  0  0  0  0  0  0  0  0  0
   57.8670   33.1630   44.5830 H   0  0  0  0  0  0  0  0  0  0  0  0
   55.9996   31.3874   43.8991 H   0  0  0  0  0  0  0  0  0  0  0  0
   55.3766   28.9603   44.0366 H   0  0  0  0  0  0  0  0  0  0  0  0
   56.2770   26.5820   44.5270 H   0  0  0  0  0  0  0  0  0  0  0  0
   58.1778   25.7518   46.2864 H   0  0  0  0  0  0  0  0  0  0  0  0
   57.0837   26.6812   47.3786 H   0  0  0  0  0  0  0  0  0  0  0  0
   56.7742   23.9955   46.5596 H   0  0  0  0  0  0  0  0  0  0  0  0
   55.5490   25.0333   47.3838 H   0  0  0  0  0  0  0  0  0  0  0  0
   56.6019   23.3113   44.6665 H   0  0  0  0  0  0  0  0  0  0  0  0
   55.1935   23.6274   43.5973 H   0  0  0  0  0  0  0  0  0  0  0  0
   56.5920   24.7547   43.5973 H   0  0  0  0  0  0  0  0  0  0  0  0
   53.9065   24.2456   46.7085 H   0  0  0  0  0  0  0  0  0  0  0  0
   53.2269   24.9258   45.1912 H   0  0  0  0  0  0  0  0  0  0  0  0
   53.9588   23.2854   45.1912 H   0  0  0  0  0  0  0  0  0  0  0  0
   58.8873   28.2068   46.5040 H   0  0  0  0  0  0  0  0  0  0  0  0
  1  2  1  0
  2  3  1  0
  3  4  1  0
  4  5  1  0
  5  6  1  0
  6  7  1  0
  7  8  2  0
  8  9  1  0
  9 10  2  0
 10 11  1  0
 11 12  2  0
 12 13  1  0
 13 14  2  0
 14 15  1  0
 14 16  1  0
 16 17  1  0
 17 18  1  0
 18 19  2  0
 19 20  1  0
 20 21  2  0
 21 22  1  0
 22 23  1  0
 23 24  1  0
 24 25  1  0
 25 26  1  0
 25 27  1  0
 21 28  1  0
 28 29  2  0
 29 30  1  0
 30  7  1  0
 13  8  1  0
 30 16  2  0
 29 18  1  0
  1 31  1  0
  1 32  1  0
  1 33  1  0
  2 34  1  0
  2 35  1  0
  3 36  1  0
  4 37  1  0
  4 38  1  0
  5 39  1  0
  5 40  1  0
  6 41  1  0
  6 42  1  0
  9 43  1  0
 10 44  1  0
 11 45  1  0
 12 46  1  0
 15 47  1  0
 15 48  1  0
 15 49  1  0
 17 50  1  0
 19 51  1  0
 20 52  1  0
 22 53  1  0
 23 54  1  0
 23 55  1  0
 24 56  1  0
 24 57  1  0
 26 58  1  0
 26 59  1  0
 26 60  1  0
 27 61  1  0
 27 62  1  0
 27 63  1  0
 28 64  1  0
M  CHG  2   6   1  14   1
M  END
>  <UniqueID>  (15) 
15

>  <SMILES>  (15) 
CCNCC[NH2+]c1c2ccccc2[n+](C)c2[nH]c3ccc(NCCN(C)C)cc3c12

>  <Energy>  (15) 
124.30130253283313

>  <Genealogy>  (15) 
CCNCC[NH2+]c1c2ccccc2[n+](C)c2[nH]c3ccc(NCCN(C)C)cc3c12 (protonated)
CCNCC[NH2+]c1c2ccccc2[n+](C)c2[nH]c3ccc(NCCN(C)C)cc3c12 (3D coordinates assigned)
CCNCC[NH2+]c1c2ccccc2[n+](C)c2[nH]c3ccc(NCCN(C)C)cc3c12 (optimized conformer: 124.30130253283313 kcal/mol)

>  <smiles>  (15) 
CCNCCNc1c2ccccc2[n+](C)c2[nH]c3ccc(NCCN(C)C)cc3c12

>  <score_type>  (15) 
oracle

>  <origin>  (15) 
adg

>  <m_score__min__energy>  (15) 
-4.1500000000000004

>  <m_primary>  (15) 
energy

$$$$
15:0
     RDKit          3D

 51 52  0  0  0  0  0  0  0  0999 V2000
   60.0070   34.1960   47.7370 C   0  0  0  0  0  0  0  0  0  0  0  0
   59.7960   33.4600   46.4190 C   0  0  0  0  0  0  0  0  0  0  0  0
   58.7870   34.1670   45.5970 N   0  0  0  0  0  0  0  0  0  0  0  0
   57.4040   33.9830   46.1000 C   0  0  0  0  0  0  0  0  0  0  0  0
   56.6970   32.7480   45.5000 C   0  0  0  0  0  0  0  0  0  0  0  0
   57.6960   31.7840   45.0110 N   0  0  0  0  0  0  0  0  0  0  0  0
   57.0880   30.4820   44.6580 C   0  0  0  0  0  0  0  0  0  0  0  0
   57.6050   29.3830   45.5970 C   0  0  0  0  0  0  0  0  0  0  0  0
   57.2190   27.9790   45.1050 C   0  0  0  0  0  0  0  0  0  0  0  0
   55.9100   27.6150   45.6260 N   0  0  0  0  0  0  0  0  0  0  0  0
   55.5700   26.2750   45.9900 C   0  0  0  0  0  0  0  0  0  0  0  0
   54.3720   25.8870   45.9520 O   0  0  0  0  0  0  0  0  0  0  0  0
   56.6340   25.3580   46.5020 C   0  0  0  0  0  0  0  0  0  0  0  0
   56.7860   24.1830   45.5690 C   0  0  0  0  0  0  0  0  0  0  0  0
   56.5410   24.3540   44.1950 C   0  0  0  0  0  0  0  0  0  0  0  0
   56.6420   23.2730   43.3180 C   0  0  0  0  0  0  0  0  0  0  0  0
   56.9810   22.0090   43.8020 C   0  0  0  0  0  0  0  0  0  0  0  0
   57.2130   21.8200   45.1660 C   0  0  0  0  0  0  0  0  0  0  0  0
   57.1080   22.9000   46.0650 C   0  0  0  0  0  0  0  0  0  0  0  0
   57.3110   22.7360   47.4460 O   0  0  0  0  0  0  0  0  0  0  0  0
   56.2690   22.5760   48.4020 C   0  0  0  0  0  0  0  0  0  0  0  0
   58.4640   32.3600   43.8850 C   0  0  0  0  0  0  0  0  0  0  0  0
   58.8830   33.8210   44.1650 C   0  0  0  0  0  0  0  0  0  0  0  0
   59.8106   33.5110   48.5750 H   0  0  0  0  0  0  0  0  0  0  0  0
   61.0447   34.5566   47.7936 H   0  0  0  0  0  0  0  0  0  0  0  0
   59.3180   35.0516   47.7936 H   0  0  0  0  0  0  0  0  0  0  0  0
   60.7480   33.4176   45.8695 H   0  0  0  0  0  0  0  0  0  0  0  0
   59.4393   32.4408   46.6289 H   0  0  0  0  0  0  0  0  0  0  0  0
   57.4422   33.8670   47.1932 H   0  0  0  0  0  0  0  0  0  0  0  0
   56.8261   34.8689   45.7981 H   0  0  0  0  0  0  0  0  0  0  0  0
   56.0785   32.2705   46.2742 H   0  0  0  0  0  0  0  0  0  0  0  0
   56.0626   33.0677   44.6602 H   0  0  0  0  0  0  0  0  0  0  0  0
   55.9944   30.5546   44.7512 H   0  0  0  0  0  0  0  0  0  0  0  0
   57.3609   30.2274   43.6232 H   0  0  0  0  0  0  0  0  0  0  0  0
   58.7014   29.4508   45.6537 H   0  0  0  0  0  0  0  0  0  0  0  0
   57.1461   29.5357   46.5850 H   0  0  0  0  0  0  0  0  0  0  0  0
   57.1886   27.9732   44.0054 H   0  0  0  0  0  0  0  0  0  0  0  0
   57.9651   27.2527   45.4597 H   0  0  0  0  0  0  0  0  0  0  0  0
   57.5878   25.9026   46.5623 H   0  0  0  0  0  0  0  0  0  0  0  0
   56.3515   24.9950   47.5012 H   0  0  0  0  0  0  0  0  0  0  0  0
   56.2678   25.3470   43.8085 H   0  0  0  0  0  0  0  0  0  0  0  0
   56.4541   23.4177   42.2439 H   0  0  0  0  0  0  0  0  0  0  0  0
   57.0657   21.1599   43.1079 H   0  0  0  0  0  0  0  0  0  0  0  0
   57.4796   20.8210   45.5413 H   0  0  0  0  0  0  0  0  0  0  0  0
   56.6891   22.6405   49.4166 H   0  0  0  0  0  0  0  0  0  0  0  0
   55.5199   23.3696   48.2642 H   0  0  0  0  0  0  0  0  0  0  0  0
   55.7925   21.5942   48.2642 H   0  0  0  0  0  0  0  0  0  0  0  0
   59.3683   31.7547   43.7240 H   0  0  0  0  0  0  0  0  0  0  0  0
   57.8204   32.3535   42.9929 H   0  0  0  0  0  0  0  0  0  0  0  0
   59.9236   33.9596   43.8366 H   0  0  0  0  0  0  0  0  0  0  0  0
   58.1963   34.4796   43.6130 H   0  0  0  0  0  0  0  0  0  0  0  0
  1  2  1  0
  2  3  1  0
  3  4  1  0
  4  5  1  0
  5  6  1  0
  6  7  1  0
  7  8  1  0
  8  9  1  0
  9 10  1  0
 10 11  1  0
 11 12  2  0
 11 13  1  0
 13 14  1  0
 14 15  2  0
 15 16  1  0
 16 17  2  0
 17 18  1  0
 18 19  2  0
 19 20  1  0
 20 21  1  0
  6 22  1  0
 22 23  1  0
 23  3  1  0
 19 14  1  0
  1 24  1  0
  1 25  1  0
  1 26  1  0
  2 27  1  0
  2 28  1  0
  4 29  1  0
  4 30  1  0
  5 31  1  0
  5 32  1  0
  7 33  1  0
  7 34  1  0
  8 35  1  0
  8 36  1  0
  9 37  1  0
  9 38  1  0
 13 39  1  0
 13 40  1  0
 15 41  1  0
 16 42  1  0
 17 43  1  0
 18 44  1  0
 21 45  1  0
 21 46  1  0
 21 47  1  0
 22 48  1  0
 22 49  1  0
 23 50  1  0
 23 51  1  0
M  CHG  1  10  -1
M  END
>  <UniqueID>  (16) 
16

>  <SMILES>  (16) 
CCN1CCN(CCC[N-]C(=O)Cc2ccccc2OC)CC1

>  <Energy>  (16) 
49.80887145490597

>  <Genealogy>  (16) 
CCN1CCN(CCC[N-]C(=O)Cc2ccccc2OC)CC1 (protonated)
CCN1CCN(CCC[N-]C(=O)Cc2ccccc2OC)CC1 (3D coordinates assigned)
CCN1CCN(CCC[N-]C(=O)Cc2ccccc2OC)CC1 (nonaromatic ring conformer: 49.80887145490597 kcal/mol)

>  <smiles>  (16) 
CCN1CCN(CCCNC(=O)Cc2ccccc2OC)CC1

>  <score_type>  (16) 
oracle

>  <origin>  (16) 
adg

>  <m_score__min__energy>  (16) 
-9.3800000000000008

>  <m_primary>  (16) 
energy

$$$$
16:0
     RDKit          3D

 69 71  0  0  0  0  0  0  0  0999 V2000
   50.9500   24.3620   44.1420 C   0  0  0  0  0  0  0  0  0  0  0  0
   51.4510   23.3790   45.1930 C   0  0  0  0  0  0  0  0  0  0  0  0
   52.8320   23.0030   44.9160 N   0  0  0  0  0  0  0  0  0  0  0  0
   53.9210   23.9310   44.9270 C   0  0  0  0  0  0  0  0  0  0  0  0
   53.8480   24.9960   45.6010 O   0  0  0  0  0  0  0  0  0  0  0  0
   55.1500   23.6450   44.1190 C   0  0  0  0  0  0  0  0  0  0  0  0
   56.4380   23.8290   44.9380 C   0  0  0  0  0  0  0  0  0  0  0  0
   56.3130   23.4070   46.4120 C   0  0  0  0  0  0  0  0  0  0  0  0
   56.5260   24.5680   47.3870 C   0  0  0  0  0  0  0  0  0  0  0  0
   56.3140   25.8320   46.6940 N   0  0  0  0  0  0  0  0  0  0  0  0
   57.3820   26.7290   46.3770 C   0  0  0  0  0  0  0  0  0  0  0  0
   57.7050   27.6370   47.1870 O   0  0  0  0  0  0  0  0  0  0  0  0
   58.1330   26.6030   45.0840 C   0  0  0  0  0  0  0  0  0  0  0  0
   57.7800   27.6270   44.1510 O   0  0  0  0  0  0  0  0  0  0  0  0
   57.6600   28.9940   44.4480 C   0  0  0  0  0  0  0  0  0  0  0  0
   56.5160   29.7450   44.1190 C   0  0  0  0  0  0  0  0  0  0  0  0
   56.4610   31.1100   44.4160 C   0  0  0  0  0  0  0  0  0  0  0  0
   57.5430   31.7450   45.0430 C   0  0  0  0  0  0  0  0  0  0  0  0
   57.4730   33.2160   45.3560 C   0  0  0  0  0  0  0  0  0  0  0  0
   58.3570   33.9840   44.4650 N   0  0  0  0  0  0  0  0  0  0  0  0
   59.6370   34.3490   45.0980 C   0  0  0  0  0  0  0  0  0  0  0  0
   59.4000   35.2910   46.2890 C   0  0  0  0  0  0  0  0  0  0  0  0
   60.1250   34.8340   47.4770 N   0  0  0  0  0  0  0  0  0  0  0  0
   61.0160   33.6900   47.5060 C   0  0  0  0  0  0  0  0  0  0  0  0
   62.3560   33.8370   47.0860 C   0  0  0  0  0  0  0  0  0  0  0  0
   63.2500   32.7690   47.1270 C   0  0  0  0  0  0  0  0  0  0  0  0
   62.8400   31.5270   47.5910 C   0  0  0  0  0  0  0  0  0  0  0  0
   61.5210   31.3320   48.0140 C   0  0  0  0  0  0  0  0  0  0  0  0
   61.1280   30.0690   48.4830 C   0  0  0  0  0  0  0  0  0  0  0  0
   59.8200   29.8510   48.9090 C   0  0  0  0  0  0  0  0  0  0  0  0
   58.8900   30.8860   48.8570 C   0  0  0  0  0  0  0  0  0  0  0  0
   59.2600   32.1460   48.3820 C   0  0  0  0  0  0  0  0  0  0  0  0
   60.5860   32.4070   47.9680 C   0  0  0  0  0  0  0  0  0  0  0  0
   58.6780   30.9940   45.3820 C   0  0  0  0  0  0  0  0  0  0  0  0
   58.7320   29.6290   45.0890 C   0  0  0  0  0  0  0  0  0  0  0  0
   50.5046   25.2359   44.6400 H   0  0  0  0  0  0  0  0  0  0  0  0
   51.7921   24.6877   43.5136 H   0  0  0  0  0  0  0  0  0  0  0  0
   50.1916   23.8720   43.5136 H   0  0  0  0  0  0  0  0  0  0  0  0
   51.3951   23.8493   46.1858 H   0  0  0  0  0  0  0  0  0  0  0  0
   50.8224   22.4767   45.1678 H   0  0  0  0  0  0  0  0  0  0  0  0
   55.1040   22.6065   43.7593 H   0  0  0  0  0  0  0  0  0  0  0  0
   55.1773   24.3574   43.2813 H   0  0  0  0  0  0  0  0  0  0  0  0
   57.2319   23.2263   44.4727 H   0  0  0  0  0  0  0  0  0  0  0  0
   56.6636   24.9056   44.9352 H   0  0  0  0  0  0  0  0  0  0  0  0
   55.3067   22.9934   46.5740 H   0  0  0  0  0  0  0  0  0  0  0  0
   57.0993   22.6635   46.6091 H   0  0  0  0  0  0  0  0  0  0  0  0
   55.8123   24.4826   48.2197 H   0  0  0  0  0  0  0  0  0  0  0  0
   57.5535   24.5332   47.7783 H   0  0  0  0  0  0  0  0  0  0  0  0
   59.2109   26.6705   45.2927 H   0  0  0  0  0  0  0  0  0  0  0  0
   57.8713   25.6334   44.6353 H   0  0  0  0  0  0  0  0  0  0  0  0
   55.6624   29.2563   43.6266 H   0  0  0  0  0  0  0  0  0  0  0  0
   55.5631   31.6899   44.1562 H   0  0  0  0  0  0  0  0  0  0  0  0
   56.4378   33.5637   45.2237 H   0  0  0  0  0  0  0  0  0  0  0  0
   57.7999   33.3707   46.3948 H   0  0  0  0  0  0  0  0  0  0  0  0
   57.8520   34.8680   44.2160 H   0  0  0  0  0  0  0  0  0  0  0  0
   60.1385   33.4365   45.4526 H   0  0  0  0  0  0  0  0  0  0  0  0
   60.2659   34.8642   44.3570 H   0  0  0  0  0  0  0  0  0  0  0  0
   59.7469   36.3004   46.0229 H   0  0  0  0  0  0  0  0  0  0  0  0
   58.3243   35.2991   46.5186 H   0  0  0  0  0  0  0  0  0  0  0  0
   59.9350   35.3910   48.3340 H   0  0  0  0  0  0  0  0  0  0  0  0
   62.7013   34.8148   46.7189 H   0  0  0  0  0  0  0  0  0  0  0  0
   64.2872   32.9112   46.7895 H   0  0  0  0  0  0  0  0  0  0  0  0
   63.5554   30.6922   47.6263 H   0  0  0  0  0  0  0  0  0  0  0  0
   61.8574   29.2462   48.5143 H   0  0  0  0  0  0  0  0  0  0  0  0
   59.5218   28.8617   49.2863 H   0  0  0  0  0  0  0  0  0  0  0  0
   57.8572   30.7100   49.1922 H   0  0  0  0  0  0  0  0  0  0  0  0
   58.5083   32.9473   48.3293 H   0  0  0  0  0  0  0  0  0  0  0  0
   59.5288   31.4815   45.8804 H   0  0  0  0  0  0  0  0  0  0  0  0
   59.6243   29.0475   45.3641 H   0  0  0  0  0  0  0  0  0  0  0  0
  1  2  1  0
  2  3  1  0
  3  4  1  0
  4  5  2  0
  4  6  1  0
  6  7  1  0
  7  8  1  0
  8  9  1  0
  9 10  1  0
 10 11  1  0
 11 12  2  0
 11 13  1  0
 13 14  1  0
 14 15  1  0
 15 16  2  0
 16 17  1  0
 17 18  2  0
 18 19  1  0
 19 20  1  0
 20 21  1  0
 21 22  1  0
 22 23  1  0
 23 24  1  0
 24 25  2  0
 25 26  1  0
 26 27  2  0
 27 28  1  0
 28 29  2  0
 29 30  1  0
 30 31  2  0
 31 32  1  0
 32 33  2  0
 18 34  1  0
 34 35  2  0
 35 15  1  0
 33 24  1  0
 33 28  1  0
  1 36  1  0
  1 37  1  0
  1 38  1  0
  2 39  1  0
  2 40  1  0
  6 41  1  0
  6 42  1  0
  7 43  1  0
  7 44  1  0
  8 45  1  0
  8 46  1  0
  9 47  1  0
  9 48  1  0
 13 49  1  0
 13 50  1  0
 16 51  1  0
 17 52  1  0
 19 53  1  0
 19 54  1  0
 20 55  1  0
 21 56  1  0
 21 57  1  0
 22 58  1  0
 22 59  1  0
 23 60  1  0
 25 61  1  0
 26 62  1  0
 27 63  1  0
 29 64  1  0
 30 65  1  0
 31 66  1  0
 32 67  1  0
 34 68  1  0
 35 69  1  0
M  CHG  2   3  -1  10  -1
M  END
>  <UniqueID>  (17) 
17

>  <SMILES>  (17) 
CC[N-]C(=O)CCCC[N-]C(=O)COc1ccc(CNCCNc2cccc3ccccc23)cc1

>  <Energy>  (17) 
56.06817642652169

>  <Genealogy>  (17) 
CC[N-]C(=O)CCCC[N-]C(=O)COc1ccc(CNCCNc2cccc3ccccc23)cc1 (protonated)
CC[N-]C(=O)CCCC[N-]C(=O)COc1ccc(CNCCNc2cccc3ccccc23)cc1 (3D coordinates assigned)
CC[N-]C(=O)CCCC[N-]C(=O)COc1ccc(CNCCNc2cccc3ccccc23)cc1 (optimized conformer: 56.06817642652169 kcal/mol)

>  <smiles>  (17) 
CCNC(=O)CCCCNC(=O)COc1ccc(CNCCNc2cccc3ccccc23)cc1

>  <score_type>  (17) 
oracle

>  <origin>  (17) 
adg

>  <m_score__min__energy>  (17) 
-12.17

>  <m_primary>  (17) 
energy

$$$$
17:0
     RDKit          3D

 95100  0  0  0  0  0  0  0  0999 V2000
   57.5960   32.2300   44.0710 C   0  0  0  0  0  0  0  0  0  0  0  0
   58.5550   31.8280   45.1290 N   0  0  0  0  0  0  0  0  0  0  0  0
   59.0030   32.7550   46.0470 C   0  0  0  0  0  0  0  0  0  0  0  0
   58.3660   34.0100   46.2160 C   0  0  0  0  0  0  0  0  0  0  0  0
   58.8720   34.9610   47.1060 C   0  0  0  0  0  0  0  0  0  0  0  0
   60.0180   34.6890   47.8410 C   0  0  0  0  0  0  0  0  0  0  0  0
   60.6410   33.4500   47.7290 C   0  0  0  0  0  0  0  0  0  0  0  0
   60.1330   32.4670   46.8560 C   0  0  0  0  0  0  0  0  0  0  0  0
   60.7300   31.1980   46.7790 C   0  0  0  0  0  0  0  0  0  0  0  0
   61.9430   30.9370   47.5030 N   0  0  0  0  0  0  0  0  0  0  0  0
   63.2410   31.4870   47.0990 C   0  0  0  0  0  0  0  0  0  0  0  0
   63.6480   32.7020   47.9580 C   0  0  0  0  0  0  0  0  0  0  0  0
   63.6340   32.3640   49.4550 C   0  0  0  0  0  0  0  0  0  0  0  0
   62.5920   33.1460   50.1320 N   0  0  0  0  0  0  0  0  0  0  0  0
   63.1330   33.9630   51.2220 C   0  0  0  0  0  0  0  0  0  0  0  0
   64.6700   33.9590   51.2390 C   0  0  0  0  0  0  0  0  0  0  0  0
   65.3660   33.0130   52.2600 C   0  0  0  0  0  0  0  0  0  0  0  0
   66.5100   32.1690   51.7700 N   0  0  0  0  0  0  0  0  0  0  0  0
   67.4480   31.8570   52.8760 C   0  0  0  0  0  0  0  0  0  0  0  0
   67.2710   32.8440   50.6840 C   0  0  0  0  0  0  0  0  0  0  0  0
   65.9890   30.8610   51.2570 C   0  0  0  0  0  0  0  0  0  0  0  0
   65.0760   30.0900   52.2440 C   0  0  0  0  0  0  0  0  0  0  0  0
   63.7360   29.7110   51.5970 C   0  0  0  0  0  0  0  0  0  0  0  0
   62.6620   29.6310   52.6020 N   0  0  0  0  0  0  0  0  0  0  0  0
   61.4480   30.2660   52.0990 C   0  0  0  0  0  0  0  0  0  0  0  0
   60.9920   31.5010   52.6360 C   0  0  0  0  0  0  0  0  0  0  0  0
   61.6340   32.1270   53.7380 C   0  0  0  0  0  0  0  0  0  0  0  0
   61.2320   33.3800   54.1870 C   0  0  0  0  0  0  0  0  0  0  0  0
   60.1960   34.0520   53.5520 C   0  0  0  0  0  0  0  0  0  0  0  0
   59.5200   33.4490   52.4980 C   0  0  0  0  0  0  0  0  0  0  0  0
   59.8590   32.1440   52.0550 C   0  0  0  0  0  0  0  0  0  0  0  0
   59.1150   31.5040   51.0820 N   0  0  0  0  0  0  0  0  0  0  0  0
   57.7790   32.0330   50.7120 C   0  0  0  0  0  0  0  0  0  0  0  0
   59.5850   30.3520   50.4920 C   0  0  0  0  0  0  0  0  0  0  0  0
   58.9680   29.8120   49.3350 C   0  0  0  0  0  0  0  0  0  0  0  0
   59.3770   28.5950   48.7990 C   0  0  0  0  0  0  0  0  0  0  0  0
   60.4080   27.8830   49.3950 C   0  0  0  0  0  0  0  0  0  0  0  0
   61.0660   28.4070   50.5050 C   0  0  0  0  0  0  0  0  0  0  0  0
   60.7140   29.6760   51.0330 C   0  0  0  0  0  0  0  0  0  0  0  0
   60.1340   30.1980   45.9950 C   0  0  0  0  0  0  0  0  0  0  0  0
   60.6060   28.8680   46.0280 C   0  0  0  0  0  0  0  0  0  0  0  0
   60.0090   27.8810   45.2400 C   0  0  0  0  0  0  0  0  0  0  0  0
   58.9070   28.1890   44.4510 C   0  0  0  0  0  0  0  0  0  0  0  0
   58.3940   29.4880   44.4420 C   0  0  0  0  0  0  0  0  0  0  0  0
   59.0180   30.5280   45.1790 C   0  0  0  0  0  0  0  0  0  0  0  0
   56.6768   32.6153   44.5365 H   0  0  0  0  0  0  0  0  0  0  0  0
   58.0473   33.0147   43.4460 H   0  0  0  0  0  0  0  0  0  0  0  0
   57.3528   31.3581   43.4460 H   0  0  0  0  0  0  0  0  0  0  0  0
   57.4589   34.2389   45.6373 H   0  0  0  0  0  0  0  0  0  0  0  0
   58.3609   35.9278   47.2246 H   0  0  0  0  0  0  0  0  0  0  0  0
   60.4340   35.4542   48.5129 H   0  0  0  0  0  0  0  0  0  0  0  0
   61.5386   33.2356   48.3275 H   0  0  0  0  0  0  0  0  0  0  0  0
   61.9020   30.2620   48.3040 H   0  0  0  0  0  0  0  0  0  0  0  0
   64.0067   30.7045   47.2057 H   0  0  0  0  0  0  0  0  0  0  0  0
   63.1569   31.8227   46.0549 H   0  0  0  0  0  0  0  0  0  0  0  0
   64.6623   33.0176   47.6725 H   0  0  0  0  0  0  0  0  0  0  0  0
   62.9216   33.5087   47.7800 H   0  0  0  0  0  0  0  0  0  0  0  0
   63.4280   31.2913   49.5852 H   0  0  0  0  0  0  0  0  0  0  0  0
   64.6133   32.6092   49.8917 H   0  0  0  0  0  0  0  0  0  0  0  0
   61.9030   32.4660   50.5510 H   0  0  0  0  0  0  0  0  0  0  0  0
   62.7823   34.9981   51.0973 H   0  0  0  0  0  0  0  0  0  0  0  0
   62.7824   33.5349   52.1727 H   0  0  0  0  0  0  0  0  0  0  0  0
   65.0116   33.6705   50.2340 H   0  0  0  0  0  0  0  0  0  0  0  0
   64.9534   34.9743   51.5534 H   0  0  0  0  0  0  0  0  0  0  0  0
   65.7485   33.6396   53.0792 H   0  0  0  0  0  0  0  0  0  0  0  0
   64.5876   32.2876   52.5392 H   0  0  0  0  0  0  0  0  0  0  0  0
   66.9461   32.0239   53.8405 H   0  0  0  0  0  0  0  0  0  0  0  0
   67.7632   30.8056   52.8038 H   0  0  0  0  0  0  0  0  0  0  0  0
   68.3302   32.5101   52.8038 H   0  0  0  0  0  0  0  0  0  0  0  0
   68.0248   33.5126   51.1254 H   0  0  0  0  0  0  0  0  0  0  0  0
   67.7714   32.0873   50.0619 H   0  0  0  0  0  0  0  0  0  0  0  0
   66.5794   33.4311   50.0619 H   0  0  0  0  0  0  0  0  0  0  0  0
   65.4124   31.0584   50.3412 H   0  0  0  0  0  0  0  0  0  0  0  0
   66.8691   30.2231   51.0884 H   0  0  0  0  0  0  0  0  0  0  0  0
   65.5906   29.1717   52.5631 H   0  0  0  0  0  0  0  0  0  0  0  0
   64.8697   30.7441   53.1040 H   0  0  0  0  0  0  0  0  0  0  0  0
   63.4710   30.4725   50.8487 H   0  0  0  0  0  0  0  0  0  0  0  0
   63.8447   28.7236   51.1245 H   0  0  0  0  0  0  0  0  0  0  0  0
   62.4900   28.6330   52.8580 H   0  0  0  0  0  0  0  0  0  0  0  0
   62.9600   30.0570   53.5090 H   0  0  0  0  0  0  0  0  0  0  0  0
   62.4633   31.6116   54.2446 H   0  0  0  0  0  0  0  0  0  0  0  0
   61.7368   33.8409   55.0489 H   0  0  0  0  0  0  0  0  0  0  0  0
   59.9104   35.0614   53.8831 H   0  0  0  0  0  0  0  0  0  0  0  0
   58.7062   33.9939   51.9973 H   0  0  0  0  0  0  0  0  0  0  0  0
   57.2084   32.2589   51.6249 H   0  0  0  0  0  0  0  0  0  0  0  0
   57.8997   32.9512   50.1184 H   0  0  0  0  0  0  0  0  0  0  0  0
   57.2384   31.2811   50.1184 H   0  0  0  0  0  0  0  0  0  0  0  0
   58.1499   30.3663   48.8518 H   0  0  0  0  0  0  0  0  0  0  0  0
   58.8821   28.1965   47.9011 H   0  0  0  0  0  0  0  0  0  0  0  0
   60.7058   26.9043   48.9907 H   0  0  0  0  0  0  0  0  0  0  0  0
   61.8715   27.8277   50.9800 H   0  0  0  0  0  0  0  0  0  0  0  0
   61.4520   28.6063   46.6805 H   0  0  0  0  0  0  0  0  0  0  0  0
   60.4121   26.8575   45.2440 H   0  0  0  0  0  0  0  0  0  0  0  0
   58.4384   27.4089   43.8330 H   0  0  0  0  0  0  0  0  0  0  0  0
   57.4911   29.7087   43.8538 H   0  0  0  0  0  0  0  0  0  0  0  0
  1  2  1  0
  2  3  2  0
  3  4  1  0
  4  5  2  0
  5  6  1  0
  6  7  2  0
  7  8  1  0
  8  9  2  0
  9 10  1  0
 10 11  1  0
 11 12  1  0
 12 13  1  0
 13 14  1  0
 14 15  1  0
 15 16  1  0
 16 17  1  0
 17 18  1  0
 18 19  1  0
 18 20  1  0
 18 21  1  0
 21 22  1  0
 22 23  1  0
 23 24  1  0
 24 25  1  0
 25 26  1  0
 26 27  2  0
 27 28  1  0
 28 29  2  0
 29 30  1  0
 30 31  2  0
 31 32  1  0
 32 33  1  0
 32 34  2  0
 34 35  1  0
 35 36  2  0
 36 37  1  0
 37 38  2  0
 38 39  1  0
  9 40  1  0
 40 41  2  0
 41 42  1  0
 42 43  2  0
 43 44  1  0
 44 45  2  0
 45  2  1  0
  8  3  1  0
 39 25  2  0
 45 40  1  0
 31 26  1  0
 39 34  1  0
  1 46  1  0
  1 47  1  0
  1 48  1  0
  4 49  1  0
  5 50  1  0
  6 51  1  0
  7 52  1  0
 10 53  1  0
 11 54  1  0
 11 55  1  0
 12 56  1  0
 12 57  1  0
 13 58  1  0
 13 59  1  0
 14 60  1  0
 15 61  1  0
 15 62  1  0
 16 63  1  0
 16 64  1  0
 17 65  1  0
 17 66  1  0
 19 67  1  0
 19 68  1  0
 19 69  1  0
 20 70  1  0
 20 71  1  0
 20 72  1  0
 21 73  1  0
 21 74  1  0
 22 75  1  0
 22 76  1  0
 23 77  1  0
 23 78  1  0
 24 79  1  0
 24 80  1  0
 27 81  1  0
 28 82  1  0
 29 83  1  0
 30 84  1  0
 33 85  1  0
 33 86  1  0
 33 87  1  0
 35 88  1  0
 36 89  1  0
 37 90  1  0
 38 91  1  0
 41 92  1  0
 42 93  1  0
 43 94  1  0
 44 95  1  0
M  CHG  4   2   1  18   1  24   1  32   1
M  END
>  <UniqueID>  (18) 
18

>  <SMILES>  (18) 
C[n+]1c2ccccc2c(NCCCNCCC[N+](C)(C)CCC[NH2+]c2c3ccccc3[n+](C)c3ccccc23)c2ccccc21

>  <Energy>  (18) 
160.07601169956254

>  <Genealogy>  (18) 
C[n+]1c2ccccc2c(NCCCNCCC[N+](C)(C)CCC[NH2+]c2c3ccccc3[n+](C)c3ccccc23)c2ccccc21 (protonated)
C[n+]1c2ccccc2c(NCCCNCCC[N+](C)(C)CCC[NH2+]c2c3ccccc3[n+](C)c3ccccc23)c2ccccc21 (3D coordinates assigned)
C[n+]1c2ccccc2c(NCCCNCCC[N+](C)(C)CCC[NH2+]c2c3ccccc3[n+](C)c3ccccc23)c2ccccc21 (optimized conformer: 160.07601169956254 kcal/mol)

>  <smiles>  (18) 
C[n+]1c2ccccc2c(NCCCNCCC[N+](C)(C)CCCNc2c3ccccc3[n+](C)c3ccccc23)c2ccccc21

>  <score_type>  (18) 
oracle

>  <origin>  (18) 
adg

>  <m_score__min__energy>  (18) 
-4.0199999999999996

>  <m_primary>  (18) 
energy

$$$$
18:0
     RDKit          3D

 30 31  0  0  0  0  0  0  0  0999 V2000
   64.6870   32.7510   49.5210 C   0  0  0  0  0  0  0  0  0  0  0  0
   63.8520   33.2200   48.4220 N   0  0  0  0  0  0  0  0  0  0  0  0
   64.0810   33.0720   47.1020 C   0  0  0  0  0  0  0  0  0  0  0  0
   63.0540   33.5520   46.3690 N   0  0  0  0  0  0  0  0  0  0  0  0
   62.1550   33.9940   47.2350 N   0  0  0  0  0  0  0  0  0  0  0  0
   62.6280   33.7780   48.4730 C   0  0  0  0  0  0  0  0  0  0  0  0
   61.7480   34.2150   49.9770 S   0  0  0  0  0  0  0  0  0  0  0  0
   60.1460   33.4940   49.4640 C   0  0  0  0  0  0  0  0  0  0  0  0
   59.3530   34.4490   48.5690 C   0  0  0  0  0  0  0  0  0  0  0  0
   59.6270   34.2240   47.1860 O   0  0  0  0  0  0  0  0  0  0  0  0
   58.9560   33.3090   46.3580 C   0  0  0  0  0  0  0  0  0  0  0  0
   59.1330   31.9150   46.4590 C   0  0  0  0  0  0  0  0  0  0  0  0
   58.4510   31.0530   45.5940 C   0  0  0  0  0  0  0  0  0  0  0  0
   57.5840   31.5710   44.6270 C   0  0  0  0  0  0  0  0  0  0  0  0
   56.6570   30.3930   43.4430 Br  0  0  0  0  0  0  0  0  0  0  0  0
   57.3950   32.9520   44.5290 C   0  0  0  0  0  0  0  0  0  0  0  0
   58.0740   33.8150   45.3940 C   0  0  0  0  0  0  0  0  0  0  0  0
   64.2153   33.0159   50.4788 H   0  0  0  0  0  0  0  0  0  0  0  0
   64.7980   31.6585   49.4568 H   0  0  0  0  0  0  0  0  0  0  0  0
   65.6777   33.2247   49.4568 H   0  0  0  0  0  0  0  0  0  0  0  0
   64.9883   32.6183   46.6766 H   0  0  0  0  0  0  0  0  0  0  0  0
   61.2400   34.4240   46.9770 H   0  0  0  0  0  0  0  0  0  0  0  0
   60.3358   32.5625   48.9106 H   0  0  0  0  0  0  0  0  0  0  0  0
   59.5520   33.3020   50.3697 H   0  0  0  0  0  0  0  0  0  0  0  0
   58.2785   34.2973   48.7491 H   0  0  0  0  0  0  0  0  0  0  0  0
   59.6516   35.4786   48.8154 H   0  0  0  0  0  0  0  0  0  0  0  0
   59.8104   31.5027   47.2213 H   0  0  0  0  0  0  0  0  0  0  0  0
   58.5970   29.9657   45.6746 H   0  0  0  0  0  0  0  0  0  0  0  0
   56.7112   33.3605   43.7704 H   0  0  0  0  0  0  0  0  0  0  0  0
   57.9145   34.9007   45.3172 H   0  0  0  0  0  0  0  0  0  0  0  0
  1  2  1  0
  2  3  1  0
  3  4  2  0
  4  5  1  0
  5  6  2  0
  6  7  1  0
  7  8  1  0
  8  9  1  0
  9 10  1  0
 10 11  1  0
 11 12  2  0
 12 13  1  0
 13 14  2  0
 14 15  1  0
 14 16  1  0
 16 17  2  0
  6  2  1  0
 17 11  1  0
  1 18  1  0
  1 19  1  0
  1 20  1  0
  3 21  1  0
  5 22  1  0
  8 23  1  0
  8 24  1  0
  9 25  1  0
  9 26  1  0
 12 27  1  0
 13 28  1  0
 16 29  1  0
 17 30  1  0
M  CHG  1   5   1
M  END
>  <UniqueID>  (19) 
19

>  <SMILES>  (19) 
Cn1cn[nH+]c1SCCOc1ccc(Br)cc1

>  <Energy>  (19) 
58.17785879228006

>  <Genealogy>  (19) 
Cn1cn[nH+]c1SCCOc1ccc(Br)cc1 (protonated)
Cn1cn[nH+]c1SCCOc1ccc(Br)cc1 (3D coordinates assigned)
Cn1cn[nH+]c1SCCOc1ccc(Br)cc1 (optimized conformer: 58.17785879228006 kcal/mol)

>  <smiles>  (19) 
Cn1cnnc1SCCOc1ccc(Br)cc1

>  <score_type>  (19) 
oracle

>  <origin>  (19) 
adg

>  <m_score__min__energy>  (19) 
-5.1799999999999997

>  <m_primary>  (19) 
energy

$$$$
19:0
     RDKit          3D

 63 65  0  0  0  0  0  0  0  0999 V2000
   57.7640   32.0010   42.9260 C   0  0  0  0  0  0  0  0  0  0  0  0
   57.3590   31.9550   44.4020 C   0  0  0  0  0  0  0  0  0  0  0  0
   56.4230   30.8590   44.6970 N   0  0  0  0  0  0  0  0  0  0  0  0
   56.5220   29.7650   43.7200 C   0  0  0  0  0  0  0  0  0  0  0  0
   57.3970   28.6420   44.2750 C   0  0  0  0  0  0  0  0  0  0  0  0
   57.8690   29.0000   45.5630 O   0  0  0  0  0  0  0  0  0  0  0  0
   59.2500   28.7340   45.7120 C   0  0  0  0  0  0  0  0  0  0  0  0
   60.0290   29.9980   46.1090 C   0  0  0  0  0  0  0  0  0  0  0  0
   59.2450   30.8870   47.0840 C   0  0  0  0  0  0  0  0  0  0  0  0
   59.8640   30.9450   48.3570 O   0  0  0  0  0  0  0  0  0  0  0  0
   58.9700   30.5770   49.3940 C   0  0  0  0  0  0  0  0  0  0  0  0
   59.2960   31.3410   50.6850 C   0  0  0  0  0  0  0  0  0  0  0  0
   58.5390   32.6710   50.8160 C   0  0  0  0  0  0  0  0  0  0  0  0
   59.4380   33.8170   50.6620 N   0  0  0  0  0  0  0  0  0  0  0  0
   60.5010   33.8180   49.6920 C   0  0  0  0  0  0  0  0  0  0  0  0
   61.8420   33.6920   50.1040 C   0  0  0  0  0  0  0  0  0  0  0  0
   62.1930   33.7830   51.4670 C   0  0  0  0  0  0  0  0  0  0  0  0
   63.5220   33.6760   51.8700 C   0  0  0  0  0  0  0  0  0  0  0  0
   64.5240   33.5020   50.9200 C   0  0  0  0  0  0  0  0  0  0  0  0
   64.2020   33.4220   49.5660 C   0  0  0  0  0  0  0  0  0  0  0  0
   62.8550   33.4910   49.1290 C   0  0  0  0  0  0  0  0  0  0  0  0
   62.5180   33.3840   47.7930 N   0  0  0  0  0  0  0  0  0  0  0  0
   63.5050   32.8630   46.8210 C   0  0  0  0  0  0  0  0  0  0  0  0
   61.2520   33.7410   47.3700 C   0  0  0  0  0  0  0  0  0  0  0  0
   60.9480   33.9170   45.9970 C   0  0  0  0  0  0  0  0  0  0  0  0
   59.6510   34.2090   45.5780 C   0  0  0  0  0  0  0  0  0  0  0  0
   58.6290   34.3450   46.5090 C   0  0  0  0  0  0  0  0  0  0  0  0
   58.9030   34.2190   47.8690 C   0  0  0  0  0  0  0  0  0  0  0  0
   60.2130   33.9380   48.3190 C   0  0  0  0  0  0  0  0  0  0  0  0
   58.8543   32.1248   42.8486 H   0  0  0  0  0  0  0  0  0  0  0  0
   57.4657   31.0632   42.4345 H   0  0  0  0  0  0  0  0  0  0  0  0
   57.2630   32.8480   42.4345 H   0  0  0  0  0  0  0  0  0  0  0  0
   58.2643   31.8191   45.0118 H   0  0  0  0  0  0  0  0  0  0  0  0
   56.8498   32.9011   44.6378 H   0  0  0  0  0  0  0  0  0  0  0  0
   56.6190   30.4840   45.6570 H   0  0  0  0  0  0  0  0  0  0  0  0
   55.5160   29.3724   43.5104 H   0  0  0  0  0  0  0  0  0  0  0  0
   56.9746   30.1495   42.7941 H   0  0  0  0  0  0  0  0  0  0  0  0
   56.8051   27.7175   44.3458 H   0  0  0  0  0  0  0  0  0  0  0  0
   58.2533   28.4801   43.6038 H   0  0  0  0  0  0  0  0  0  0  0  0
   59.3846   27.9714   46.4932 H   0  0  0  0  0  0  0  0  0  0  0  0
   59.6386   28.3790   44.7461 H   0  0  0  0  0  0  0  0  0  0  0  0
   60.9724   29.6958   46.5872 H   0  0  0  0  0  0  0  0  0  0  0  0
   60.2094   30.5817   45.1942 H   0  0  0  0  0  0  0  0  0  0  0  0
   59.1865   31.9044   46.6698 H   0  0  0  0  0  0  0  0  0  0  0  0
   58.2420   30.4536   47.2109 H   0  0  0  0  0  0  0  0  0  0  0  0
   57.9410   30.8124   49.0847 H   0  0  0  0  0  0  0  0  0  0  0  0
   59.0728   29.4985   49.5846 H   0  0  0  0  0  0  0  0  0  0  0  0
   59.0328   30.7043   51.5426 H   0  0  0  0  0  0  0  0  0  0  0  0
   60.3693   31.5802   50.6578 H   0  0  0  0  0  0  0  0  0  0  0  0
   57.7626   32.7186   50.0383 H   0  0  0  0  0  0  0  0  0  0  0  0
   58.0908   32.7160   51.8196 H   0  0  0  0  0  0  0  0  0  0  0  0
   59.1880   34.7110   51.1460 H   0  0  0  0  0  0  0  0  0  0  0  0
   61.4076   33.9404   52.2209 H   0  0  0  0  0  0  0  0  0  0  0  0
   63.7793   33.7290   52.9382 H   0  0  0  0  0  0  0  0  0  0  0  0
   65.5742   33.4273   51.2387 H   0  0  0  0  0  0  0  0  0  0  0  0
   65.0060   33.3034   48.8247 H   0  0  0  0  0  0  0  0  0  0  0  0
   64.3519   32.4160   47.3623 H   0  0  0  0  0  0  0  0  0  0  0  0
   63.0291   32.0986   46.1892 H   0  0  0  0  0  0  0  0  0  0  0  0
   63.8676   33.6872   46.1892 H   0  0  0  0  0  0  0  0  0  0  0  0
   61.7491   33.8216   45.2493 H   0  0  0  0  0  0  0  0  0  0  0  0
   59.4360   34.3322   44.5063 H   0  0  0  0  0  0  0  0  0  0  0  0
   57.6026   34.5523   46.1720 H   0  0  0  0  0  0  0  0  0  0  0  0
   58.0907   34.3396   48.6009 H   0  0  0  0  0  0  0  0  0  0  0  0
  1  2  1  0
  2  3  1  0
  3  4  1  0
  4  5  1  0
  5  6  1  0
  6  7  1  0
  7  8  1  0
  8  9  1  0
  9 10  1  0
 10 11  1  0
 11 12  1  0
 12 13  1  0
 13 14  1  0
 14 15  1  0
 15 16  2  0
 16 17  1  0
 17 18  2  0
 18 19  1  0
 19 20  2  0
 20 21  1  0
 21 22  2  0
 22 23  1  0
 22 24  1  0
 24 25  2  0
 25 26  1  0
 26 27  2  0
 27 28  1  0
 28 29  2  0
 29 15  1  0
 21 16  1  0
 29 24  1  0
  1 30  1  0
  1 31  1  0
  1 32  1  0
  2 33  1  0
  2 34  1  0
  3 35  1  0
  4 36  1  0
  4 37  1  0
  5 38  1  0
  5 39  1  0
  7 40  1  0
  7 41  1  0
  8 42  1  0
  8 43  1  0
  9 44  1  0
  9 45  1  0
 11 46  1  0
 11 47  1  0
 12 48  1  0
 12 49  1  0
 13 50  1  0
 13 51  1  0
 14 52  1  0
 17 53  1  0
 18 54  1  0
 19 55  1  0
 20 56  1  0
 23 57  1  0
 23 58  1  0
 23 59  1  0
 25 60  1  0
 26 61  1  0
 27 62  1  0
 28 63  1  0
M  CHG  1  22   1
M  END
>  <UniqueID>  (20) 
20

>  <SMILES>  (20) 
CCNCCOCCCOCCCNc1c2ccccc2[n+](C)c2ccccc12

>  <Energy>  (20) 
83.13558123045249

>  <Genealogy>  (20) 
CCNCCOCCCOCCCNc1c2ccccc2[n+](C)c2ccccc12 (3D coordinates assigned)
CCNCCOCCCOCCCNc1c2ccccc2[n+](C)c2ccccc12 (optimized conformer: 83.13558123045249 kcal/mol)

>  <smiles>  (20) 
CCNCCOCCCOCCCNc1c2ccccc2[n+](C)c2ccccc12

>  <score_type>  (20) 
oracle

>  <origin>  (20) 
adg

>  <m_score__min__energy>  (20) 
-5.5499999999999998

>  <m_primary>  (20) 
energy

$$$$
20:0
     RDKit          3D

 51 52  0  0  0  0  0  0  0  0999 V2000
   56.5880   30.0200   42.9820 C   0  0  0  0  0  0  0  0  0  0  0  0
   56.3520   30.1740   44.4850 C   0  0  0  0  0  0  0  0  0  0  0  0
   57.3650   31.0580   45.0830 N   0  0  0  0  0  0  0  0  0  0  0  0
   57.3700   32.3650   44.4120 C   0  0  0  0  0  0  0  0  0  0  0  0
   57.0960   33.4850   45.4290 C   0  0  0  0  0  0  0  0  0  0  0  0
   58.2630   33.7030   46.4190 C   0  0  0  0  0  0  0  0  0  0  0  0
   59.0970   32.4990   46.5950 N   0  0  0  0  0  0  0  0  0  0  0  0
   60.4960   32.8170   46.9180 C   0  0  0  0  0  0  0  0  0  0  0  0
   61.1500   31.6230   47.6210 C   0  0  0  0  0  0  0  0  0  0  0  0
   60.1350   30.7560   48.2390 N   0  0  0  0  0  0  0  0  0  0  0  0
   59.7450   29.7210   47.3130 C   0  0  0  0  0  0  0  0  0  0  0  0
   60.4080   29.5940   46.0660 C   0  0  0  0  0  0  0  0  0  0  0  0
   59.9850   28.6180   45.1510 C   0  0  0  0  0  0  0  0  0  0  0  0
   58.9430   27.8240   45.4950 N   0  0  0  0  0  0  0  0  0  0  0  0
   58.3510   26.8360   44.8110 C   0  0  0  0  0  0  0  0  0  0  0  0
   57.3250   26.3580   45.6090 C   0  0  0  0  0  0  0  0  0  0  0  0
   56.4100   25.2140   45.2680 C   0  0  0  0  0  0  0  0  0  0  0  0
   55.3390   25.0530   46.2640 N   0  0  0  0  0  0  0  0  0  0  0  0
   55.2400   23.6730   46.7370 C   0  0  0  0  0  0  0  0  0  0  0  0
   57.2790   27.0330   46.7840 N   0  0  0  0  0  0  0  0  0  0  0  0
   58.2880   27.9210   46.6640 C   0  0  0  0  0  0  0  0  0  0  0  0
   58.6540   28.8710   47.6140 C   0  0  0  0  0  0  0  0  0  0  0  0
   57.4982   29.4260   42.8127 H   0  0  0  0  0  0  0  0  0  0  0  0
   55.7269   29.5094   42.5261 H   0  0  0  0  0  0  0  0  0  0  0  0
   56.7086   31.0138   42.5261 H   0  0  0  0  0  0  0  0  0  0  0  0
   55.3536   30.6046   44.6514 H   0  0  0  0  0  0  0  0  0  0  0  0
   56.4241   29.1833   44.9575 H   0  0  0  0  0  0  0  0  0  0  0  0
   57.1120   31.2210   46.0870 H   0  0  0  0  0  0  0  0  0  0  0  0
   58.3524   32.5302   43.9455 H   0  0  0  0  0  0  0  0  0  0  0  0
   56.5827   32.3771   43.6439 H   0  0  0  0  0  0  0  0  0  0  0  0
   56.9230   34.4222   44.8797 H   0  0  0  0  0  0  0  0  0  0  0  0
   56.2170   33.1853   46.0185 H   0  0  0  0  0  0  0  0  0  0  0  0
   58.8976   34.5176   46.0400 H   0  0  0  0  0  0  0  0  0  0  0  0
   57.8250   33.9480   47.3978 H   0  0  0  0  0  0  0  0  0  0  0  0
   59.0730   31.9060   45.7320 H   0  0  0  0  0  0  0  0  0  0  0  0
   61.0436   33.0395   45.9903 H   0  0  0  0  0  0  0  0  0  0  0  0
   60.5254   33.6918   47.5843 H   0  0  0  0  0  0  0  0  0  0  0  0
   61.7210   31.0397   46.8836 H   0  0  0  0  0  0  0  0  0  0  0  0
   61.8156   32.0020   48.4105 H   0  0  0  0  0  0  0  0  0  0  0  0
   60.5180   30.3190   49.1100 H   0  0  0  0  0  0  0  0  0  0  0  0
   59.2980   31.3260   48.5030 H   0  0  0  0  0  0  0  0  0  0  0  0
   61.2496   30.2572   45.8173 H   0  0  0  0  0  0  0  0  0  0  0  0
   60.4868   28.5007   44.1792 H   0  0  0  0  0  0  0  0  0  0  0  0
   58.6265   26.4744   43.8093 H   0  0  0  0  0  0  0  0  0  0  0  0
   55.9555   25.4031   44.2843 H   0  0  0  0  0  0  0  0  0  0  0  0
   57.0077   24.2906   45.2575 H   0  0  0  0  0  0  0  0  0  0  0  0
   55.5270   25.6750   47.0880 H   0  0  0  0  0  0  0  0  0  0  0  0
   55.2392   23.6616   47.8369 H   0  0  0  0  0  0  0  0  0  0  0  0
   54.3073   23.2239   46.3650 H   0  0  0  0  0  0  0  0  0  0  0  0
   56.0990   23.0954   46.3650 H   0  0  0  0  0  0  0  0  0  0  0  0
   58.1127   28.9581   48.5676 H   0  0  0  0  0  0  0  0  0  0  0  0
  1  2  1  0
  2  3  1  0
  3  4  1  0
  4  5  1  0
  5  6  1  0
  6  7  1  0
  7  8  1  0
  8  9  1  0
  9 10  1  0
 10 11  1  0
 11 12  1  0
 12 13  2  0
 13 14  1  0
 14 15  1  0
 15 16  2  0
 16 17  1  0
 17 18  1  0
 18 19  1  0
 16 20  1  0
 20 21  2  0
 21 22  1  0
 22 11  2  0
 21 14  1  0
  1 23  1  0
  1 24  1  0
  1 25  1  0
  2 26  1  0
  2 27  1  0
  3 28  1  0
  4 29  1  0
  4 30  1  0
  5 31  1  0
  5 32  1  0
  6 33  1  0
  6 34  1  0
  7 35  1  0
  8 36  1  0
  8 37  1  0
  9 38  1  0
  9 39  1  0
 10 40  1  0
 10 41  1  0
 12 42  1  0
 13 43  1  0
 15 44  1  0
 17 45  1  0
 17 46  1  0
 18 47  1  0
 19 48  1  0
 19 49  1  0
 19 50  1  0
 22 51  1  0
M  CHG  1  10   1
M  END
>  <UniqueID>  (21) 
21

>  <SMILES>  (21) 
CCNCCCNCC[NH2+]c1ccn2cc(CNC)nc2c1

>  <Energy>  (21) 
77.72256266505603

>  <Genealogy>  (21) 
CCNCCCNCC[NH2+]c1ccn2cc(CNC)nc2c1 (protonated)
CCNCCCNCC[NH2+]c1ccn2cc(CNC)nc2c1 (3D coordinates assigned)
CCNCCCNCC[NH2+]c1ccn2cc(CNC)nc2c1 (optimized conformer: 77.72256266505603 kcal/mol)

>  <smiles>  (21) 
CCNCCCNCCNc1ccn2cc(CNC)nc2c1

>  <score_type>  (21) 
oracle

>  <origin>  (21) 
adg

>  <m_score__min__energy>  (21) 
-4.7000000000000002

>  <m_primary>  (21) 
energy

$$$$
21:0
     RDKit          3D

 50 52  0  0  0  0  0  0  0  0999 V2000
   59.0490   27.8480   44.1240 C   0  0  0  0  0  0  0  0  0  0  0  0
   59.1760   29.3360   44.4860 C   0  0  0  0  0  0  0  0  0  0  0  0
   57.9710   30.0270   45.0860 N   0  0  2  0  0  0  0  0  0  0  0  0
   56.7040   29.2930   44.7410 C   0  0  0  0  0  0  0  0  0  0  0  0
   56.0240   29.7000   43.3960 C   0  0  0  0  0  0  0  0  0  0  0  0
   56.6660   30.8500   42.6660 C   0  0  0  0  0  0  0  0  0  0  0  0
   57.5300   31.6660   43.2700 C   0  0  0  0  0  0  0  0  0  0  0  0
   57.8200   31.4720   44.7280 C   0  0  2  0  0  0  0  0  0  0  0  0
   59.0000   32.3530   45.2100 C   0  0  0  0  0  0  0  0  0  0  0  0
   59.2330   32.2260   46.6660 N   0  0  0  0  0  0  0  0  0  0  0  0
   58.3000   33.0430   47.4770 C   0  0  0  0  0  0  0  0  0  0  0  0
   58.9190   34.4260   47.7330 C   0  0  0  0  0  0  0  0  0  0  0  0
   60.1290   34.6550   46.9250 N   0  0  0  0  0  0  0  0  0  0  0  0
   61.3170   34.1810   47.5960 C   0  0  0  0  0  0  0  0  0  0  0  0
   61.4020   34.2120   49.0000 C   0  0  0  0  0  0  0  0  0  0  0  0
   62.5590   33.7700   49.6480 C   0  0  0  0  0  0  0  0  0  0  0  0
   63.6430   33.2970   48.9030 C   0  0  0  0  0  0  0  0  0  0  0  0
   65.2240   32.6970   49.7910 Br  0  0  0  0  0  0  0  0  0  0  0  0
   63.5700   33.2630   47.5070 C   0  0  0  0  0  0  0  0  0  0  0  0
   62.4140   33.7030   46.8550 C   0  0  0  0  0  0  0  0  0  0  0  0
   59.3060   30.8160   47.1010 C   0  0  0  0  0  0  0  0  0  0  0  0
   58.1200   29.9750   46.5770 C   0  0  0  0  0  0  0  0  0  0  0  0
   58.9979   27.2495   45.0455 H   0  0  0  0  0  0  0  0  0  0  0  0
   58.1342   27.6910   43.5337 H   0  0  0  0  0  0  0  0  0  0  0  0
   59.9240   27.5383   43.5337 H   0  0  0  0  0  0  0  0  0  0  0  0
   59.9993   29.4273   45.2097 H   0  0  0  0  0  0  0  0  0  0  0  0
   59.3298   29.8411   43.5210 H   0  0  0  0  0  0  0  0  0  0  0  0
   56.9401   28.2199   44.6879 H   0  0  0  0  0  0  0  0  0  0  0  0
   55.9838   29.5560   45.5298 H   0  0  0  0  0  0  0  0  0  0  0  0
   56.0400   28.8247   42.7299 H   0  0  0  0  0  0  0  0  0  0  0  0
   55.0112   30.0383   43.6603 H   0  0  0  0  0  0  0  0  0  0  0  0
   56.4159   31.0209   41.6085 H   0  0  0  0  0  0  0  0  0  0  0  0
   58.0237   32.4711   42.7060 H   0  0  0  0  0  0  0  0  0  0  0  0
   56.9388   31.8246   45.2841 H   0  0  0  0  0  0  0  0  0  0  0  0
   59.9121   32.0463   44.6770 H   0  0  0  0  0  0  0  0  0  0  0  0
   58.7469   33.4024   44.9984 H   0  0  0  0  0  0  0  0  0  0  0  0
   57.3502   33.1612   46.9349 H   0  0  0  0  0  0  0  0  0  0  0  0
   58.1141   32.5412   48.4381 H   0  0  0  0  0  0  0  0  0  0  0  0
   58.1759   35.1978   47.4838 H   0  0  0  0  0  0  0  0  0  0  0  0
   59.2082   34.4743   48.7932 H   0  0  0  0  0  0  0  0  0  0  0  0
   60.0270   34.1390   46.0190 H   0  0  0  0  0  0  0  0  0  0  0  0
   60.2150   35.6710   46.6890 H   0  0  0  0  0  0  0  0  0  0  0  0
   60.5532   34.5862   49.5911 H   0  0  0  0  0  0  0  0  0  0  0  0
   62.6165   33.7944   50.7462 H   0  0  0  0  0  0  0  0  0  0  0  0
   64.4229   32.8897   46.9212 H   0  0  0  0  0  0  0  0  0  0  0  0
   62.3616   33.6754   45.7566 H   0  0  0  0  0  0  0  0  0  0  0  0
   60.2426   30.3785   46.7250 H   0  0  0  0  0  0  0  0  0  0  0  0
   59.2670   30.8020   48.2002 H   0  0  0  0  0  0  0  0  0  0  0  0
   58.2749   28.9279   46.8764 H   0  0  0  0  0  0  0  0  0  0  0  0
   57.2024   30.3982   47.0117 H   0  0  0  0  0  0  0  0  0  0  0  0
  1  2  1  0
  3  2  1  6
  3  4  1  0
  4  5  1  0
  5  6  1  0
  6  7  2  0
  7  8  1  0
  8  9  1  0
  9 10  1  0
 10 11  1  0
 11 12  1  0
 12 13  1  0
 13 14  1  0
 14 15  2  0
 15 16  1  0
 16 17  2  0
 17 18  1  0
 17 19  1  0
 19 20  2  0
 10 21  1  0
 21 22  1  0
  8  3  1  0
 20 14  1  0
 22  3  1  0
  1 23  1  0
  1 24  1  0
  1 25  1  0
  2 26  1  0
  2 27  1  0
  4 28  1  0
  4 29  1  0
  5 30  1  0
  5 31  1  0
  6 32  1  0
  7 33  1  0
  8 34  1  1
  9 35  1  0
  9 36  1  0
 11 37  1  0
 11 38  1  0
 12 39  1  0
 12 40  1  0
 13 41  1  0
 13 42  1  0
 15 43  1  0
 16 44  1  0
 19 45  1  0
 20 46  1  0
 21 47  1  0
 21 48  1  0
 22 49  1  0
 22 50  1  0
M  CHG  2   3   1  13   1
M  END
>  <UniqueID>  (22) 
22

>  <SMILES>  (22) 
CC[N@+]12CCC=C[C@@H]1CN(CC[NH2+]c1ccc(Br)cc1)CC2

>  <Energy>  (22) 
81.66478206603367

>  <Genealogy>  (22) 
CC[N+]12CCC=CC1CN(CC[NH2+]c1ccc(Br)cc1)CC2 (protonated)
CC[N@+]12CCC=C[C@@H]1CN(CC[NH2+]c1ccc(Br)cc1)CC2 (chirality)
CC[N@+]12CCC=C[C@@H]1CN(CC[NH2+]c1ccc(Br)cc1)CC2 (3D coordinates assigned)
CC[N@+]12CCC=C[C@@H]1CN(CC[NH2+]c1ccc(Br)cc1)CC2 (nonaromatic ring conformer: 81.66478206603367 kcal/mol)

>  <smiles>  (22) 
CC[N+]12CCC=CC1CN(CCNc1ccc(Br)cc1)CC2

>  <score_type>  (22) 
oracle

>  <origin>  (22) 
adg

>  <m_score__min__energy>  (22) 
-5.6699999999999999

>  <m_primary>  (22) 
energy

$$$$
22:0
     RDKit          3D

 69 71  0  0  0  0  0  0  0  0999 V2000
   59.1990   34.0380   51.6770 C   0  0  0  0  0  0  0  0  0  0  0  0
   59.8940   33.6010   50.3900 C   0  0  0  0  0  0  0  0  0  0  0  0
   59.8500   32.1310   50.2470 N   0  0  0  0  0  0  0  0  0  0  0  0
   58.5210   31.6270   49.8260 C   0  0  0  0  0  0  0  0  0  0  0  0
   57.7720   30.8470   50.9180 C   0  0  0  0  0  0  0  0  0  0  0  0
   60.3990   31.4040   51.4160 C   0  0  0  0  0  0  0  0  0  0  0  0
   61.2100   30.2020   50.9280 C   0  0  0  0  0  0  0  0  0  0  0  0
   62.3070   30.6040   50.1280 O   0  0  0  0  0  0  0  0  0  0  0  0
   63.5170   30.5920   50.8640 C   0  0  0  0  0  0  0  0  0  0  0  0
   64.4420   31.6930   50.3340 C   0  0  0  0  0  0  0  0  0  0  0  0
   63.6860   32.9570   49.8900 C   0  0  0  0  0  0  0  0  0  0  0  0
   64.1430   33.4510   48.5110 C   0  0  0  0  0  0  0  0  0  0  0  0
   63.0180   33.3150   47.4730 C   0  0  0  0  0  0  0  0  0  0  0  0
   62.6560   31.8440   47.1750 C   0  0  0  0  0  0  0  0  0  0  0  0
   61.4710   31.3670   47.9160 N   0  0  0  0  0  0  0  0  0  0  0  0
   60.3010   31.2090   47.0610 C   0  0  0  0  0  0  0  0  0  0  0  0
   59.6270   32.3350   46.4960 C   0  0  0  0  0  0  0  0  0  0  0  0
   59.9840   33.6770   46.8020 C   0  0  0  0  0  0  0  0  0  0  0  0
   59.2580   34.7520   46.2960 C   0  0  0  0  0  0  0  0  0  0  0  0
   58.1600   34.5310   45.4830 C   0  0  0  0  0  0  0  0  0  0  0  0
   57.8110   33.2360   45.1220 C   0  0  0  0  0  0  0  0  0  0  0  0
   58.5540   32.1180   45.5820 C   0  0  0  0  0  0  0  0  0  0  0  0
   58.2420   30.8430   45.1630 N   0  0  0  0  0  0  0  0  0  0  0  0
   57.4060   30.6470   43.9580 C   0  0  0  0  0  0  0  0  0  0  0  0
   58.7330   29.7510   45.8440 C   0  0  0  0  0  0  0  0  0  0  0  0
   58.1880   28.4570   45.6430 C   0  0  0  0  0  0  0  0  0  0  0  0
   58.7190   27.3420   46.2840 C   0  0  0  0  0  0  0  0  0  0  0  0
   59.7940   27.4850   47.1470 C   0  0  0  0  0  0  0  0  0  0  0  0
   60.3260   28.7460   47.4000 C   0  0  0  0  0  0  0  0  0  0  0  0
   59.7970   29.9070   46.7760 C   0  0  0  0  0  0  0  0  0  0  0  0
   59.7723   33.6776   52.5439 H   0  0  0  0  0  0  0  0  0  0  0  0
   59.1400   35.1360   51.7073 H   0  0  0  0  0  0  0  0  0  0  0  0
   58.1839   33.6153   51.7073 H   0  0  0  0  0  0  0  0  0  0  0  0
   59.3863   34.0629   49.5305 H   0  0  0  0  0  0  0  0  0  0  0  0
   60.9455   33.9216   50.4290 H   0  0  0  0  0  0  0  0  0  0  0  0
   57.9029   32.4875   49.5302 H   0  0  0  0  0  0  0  0  0  0  0  0
   58.6955   30.9250   48.9973 H   0  0  0  0  0  0  0  0  0  0  0  0
   58.1037   31.1924   51.9083 H   0  0  0  0  0  0  0  0  0  0  0  0
   56.6903   31.0172   50.8137 H   0  0  0  0  0  0  0  0  0  0  0  0
   57.9859   29.7731   50.8137 H   0  0  0  0  0  0  0  0  0  0  0  0
   61.0499   32.0762   51.9943 H   0  0  0  0  0  0  0  0  0  0  0  0
   59.5738   31.0570   52.0552 H   0  0  0  0  0  0  0  0  0  0  0  0
   61.5880   29.6485   51.8002 H   0  0  0  0  0  0  0  0  0  0  0  0
   60.5516   29.5681   50.3159 H   0  0  0  0  0  0  0  0  0  0  0  0
   63.3022   30.7727   51.9276 H   0  0  0  0  0  0  0  0  0  0  0  0
   64.0068   29.6134   50.7527 H   0  0  0  0  0  0  0  0  0  0  0  0
   65.1485   31.9697   51.1305 H   0  0  0  0  0  0  0  0  0  0  0  0
   64.9554   31.2907   49.4482 H   0  0  0  0  0  0  0  0  0  0  0  0
   62.6106   32.7297   49.8464 H   0  0  0  0  0  0  0  0  0  0  0  0
   63.8978   33.7515   50.6207 H   0  0  0  0  0  0  0  0  0  0  0  0
   64.4354   34.5087   48.5872 H   0  0  0  0  0  0  0  0  0  0  0  0
   64.9950   32.8365   48.1848 H   0  0  0  0  0  0  0  0  0  0  0  0
   62.1227   33.8271   47.8554 H   0  0  0  0  0  0  0  0  0  0  0  0
   63.3753   33.7655   46.5352 H   0  0  0  0  0  0  0  0  0  0  0  0
   62.4557   31.7461   46.0978 H   0  0  0  0  0  0  0  0  0  0  0  0
   63.5088   31.2291   47.4984 H   0  0  0  0  0  0  0  0  0  0  0  0
   61.6940   30.4550   48.3730 H   0  0  0  0  0  0  0  0  0  0  0  0
   61.3170   31.9790   48.7400 H   0  0  0  0  0  0  0  0  0  0  0  0
   60.8508   33.8697   47.4513 H   0  0  0  0  0  0  0  0  0  0  0  0
   59.5583   35.7809   46.5434 H   0  0  0  0  0  0  0  0  0  0  0  0
   57.5632   35.3817   45.1224 H   0  0  0  0  0  0  0  0  0  0  0  0
   56.9422   33.0740   44.4671 H   0  0  0  0  0  0  0  0  0  0  0  0
   56.3765   30.4056   44.2612 H   0  0  0  0  0  0  0  0  0  0  0  0
   57.4050   31.5693   43.3585 H   0  0  0  0  0  0  0  0  0  0  0  0
   57.8150   29.8204   43.3585 H   0  0  0  0  0  0  0  0  0  0  0  0
   57.3290   28.3325   44.9673 H   0  0  0  0  0  0  0  0  0  0  0  0
   58.2855   26.3469   46.1058 H   0  0  0  0  0  0  0  0  0  0  0  0
   60.2281   26.5991   47.6335 H   0  0  0  0  0  0  0  0  0  0  0  0
   61.1719   28.8453   48.0962 H   0  0  0  0  0  0  0  0  0  0  0  0
  1  2  1  0
  2  3  1  0
  3  4  1  0
  4  5  1  0
  3  6  1  0
  6  7  1  0
  7  8  1  0
  8  9  1  0
  9 10  1  0
 10 11  1  0
 11 12  1  0
 12 13  1  0
 13 14  1  0
 14 15  1  0
 15 16  1  0
 16 17  2  0
 17 18  1  0
 18 19  2  0
 19 20  1  0
 20 21  2  0
 21 22  1  0
 22 23  2  0
 23 24  1  0
 23 25  1  0
 25 26  2  0
 26 27  1  0
 27 28  2  0
 28 29  1  0
 29 30  2  0
 30 16  1  0
 22 17  1  0
 30 25  1  0
  1 31  1  0
  1 32  1  0
  1 33  1  0
  2 34  1  0
  2 35  1  0
  4 36  1  0
  4 37  1  0
  5 38  1  0
  5 39  1  0
  5 40  1  0
  6 41  1  0
  6 42  1  0
  7 43  1  0
  7 44  1  0
  9 45  1  0
  9 46  1  0
 10 47  1  0
 10 48  1  0
 11 49  1  0
 11 50  1  0
 12 51  1  0
 12 52  1  0
 13 53  1  0
 13 54  1  0
 14 55  1  0
 14 56  1  0
 15 57  1  0
 15 58  1  0
 18 59  1  0
 19 60  1  0
 20 61  1  0
 21 62  1  0
 24 63  1  0
 24 64  1  0
 24 65  1  0
 26 66  1  0
 27 67  1  0
 28 68  1  0
 29 69  1  0
M  CHG  2  15   1  23   1
M  END
>  <UniqueID>  (23) 
23

>  <SMILES>  (23) 
CCN(CC)CCOCCCCCC[NH2+]c1c2ccccc2[n+](C)c2ccccc12

>  <Energy>  (23) 
91.78137902243387

>  <Genealogy>  (23) 
CCN(CC)CCOCCCCCC[NH2+]c1c2ccccc2[n+](C)c2ccccc12 (protonated)
CCN(CC)CCOCCCCCC[NH2+]c1c2ccccc2[n+](C)c2ccccc12 (3D coordinates assigned)
CCN(CC)CCOCCCCCC[NH2+]c1c2ccccc2[n+](C)c2ccccc12 (optimized conformer: 91.78137902243387 kcal/mol)

>  <smiles>  (23) 
CCN(CC)CCOCCCCCCNc1c2ccccc2[n+](C)c2ccccc12

>  <score_type>  (23) 
oracle

>  <origin>  (23) 
adg

>  <m_score__min__energy>  (23) 
-4.1799999999999997

>  <m_primary>  (23) 
energy

$$$$
23:0
     RDKit          3D

 40 41  0  0  0  0  0  0  0  0999 V2000
   58.8930   28.6640   48.4390 C   0  0  0  0  0  0  0  0  0  0  0  0
   60.2280   28.3310   47.7780 C   0  0  0  0  0  0  0  0  0  0  0  0
   60.1120   28.3570   46.2440 C   0  0  0  0  0  0  0  0  0  0  0  0
   59.0300   29.3320   45.7900 C   0  0  0  0  0  0  0  0  0  0  0  0
   57.8130   28.8670   45.2080 C   0  0  0  0  0  0  0  0  0  0  0  0
   57.5680   27.4070   44.8360 C   0  0  0  0  0  0  0  0  0  0  0  0
   57.5250   26.4670   46.0480 C   0  0  0  0  0  0  0  0  0  0  0  0
   56.1300   26.0210   46.3620 C   0  0  0  0  0  0  0  0  0  0  0  0
   55.1460   26.7150   45.9980 O   0  0  0  0  0  0  0  0  0  0  0  0
   55.9170   24.8140   47.0170 O   0  0  0  0  0  0  0  0  0  0  0  0
   56.7980   29.8120   44.9470 C   0  0  0  0  0  0  0  0  0  0  0  0
   55.6880   29.4480   44.4730 O   0  0  0  0  0  0  0  0  0  0  0  0
   56.9860   31.0970   45.1900 O   0  0  0  0  0  0  0  0  0  0  0  0
   58.1130   31.5970   45.6780 C   0  0  0  0  0  0  0  0  0  0  0  0
   58.2200   32.9920   45.8770 C   0  0  0  0  0  0  0  0  0  0  0  0
   57.0510   33.8960   45.5520 C   0  0  0  0  0  0  0  0  0  0  0  0
   59.4060   33.5280   46.4300 C   0  0  0  0  0  0  0  0  0  0  0  0
   59.5620   35.0050   46.6880 C   0  0  0  0  0  0  0  0  0  0  0  0
   60.4790   32.6750   46.7120 C   0  0  0  0  0  0  0  0  0  0  0  0
   60.3790   31.3030   46.4970 C   0  0  0  0  0  0  0  0  0  0  0  0
   59.1900   30.7330   45.9950 C   0  0  0  0  0  0  0  0  0  0  0  0
   59.0081   28.6353   49.5326 H   0  0  0  0  0  0  0  0  0  0  0  0
   58.5718   29.6698   48.1304 H   0  0  0  0  0  0  0  0  0  0  0  0
   58.1371   27.9269   48.1304 H   0  0  0  0  0  0  0  0  0  0  0  0
   60.9788   29.0705   48.0935 H   0  0  0  0  0  0  0  0  0  0  0  0
   60.5265   27.3185   48.0873 H   0  0  0  0  0  0  0  0  0  0  0  0
   61.0769   28.6669   45.8162 H   0  0  0  0  0  0  0  0  0  0  0  0
   59.8406   27.3488   45.8976 H   0  0  0  0  0  0  0  0  0  0  0  0
   56.6055   27.3388   44.3078 H   0  0  0  0  0  0  0  0  0  0  0  0
   58.4118   27.0867   44.2071 H   0  0  0  0  0  0  0  0  0  0  0  0
   58.1412   25.5815   45.8329 H   0  0  0  0  0  0  0  0  0  0  0  0
   57.9103   27.0173   46.9190 H   0  0  0  0  0  0  0  0  0  0  0  0
   56.5915   34.2513   46.4861 H   0  0  0  0  0  0  0  0  0  0  0  0
   57.4052   34.7574   44.9668 H   0  0  0  0  0  0  0  0  0  0  0  0
   56.3064   33.3364   44.9668 H   0  0  0  0  0  0  0  0  0  0  0  0
   59.5813   35.1877   47.7725 H   0  0  0  0  0  0  0  0  0  0  0  0
   60.5024   35.3582   46.2399 H   0  0  0  0  0  0  0  0  0  0  0  0
   58.7161   35.5469   46.2399 H   0  0  0  0  0  0  0  0  0  0  0  0
   61.4150   33.0946   47.1093 H   0  0  0  0  0  0  0  0  0  0  0  0
   61.2387   30.6546   46.7216 H   0  0  0  0  0  0  0  0  0  0  0  0
  1  2  1  0
  2  3  1  0
  3  4  1  0
  4  5  2  0
  5  6  1  0
  6  7  1  0
  7  8  1  0
  8  9  2  0
  8 10  1  0
  5 11  1  0
 11 12  2  0
 11 13  1  0
 13 14  1  0
 14 15  2  0
 15 16  1  0
 15 17  1  0
 17 18  1  0
 17 19  2  0
 19 20  1  0
 20 21  2  0
 21  4  1  0
 21 14  1  0
  1 22  1  0
  1 23  1  0
  1 24  1  0
  2 25  1  0
  2 26  1  0
  3 27  1  0
  3 28  1  0
  6 29  1  0
  6 30  1  0
  7 31  1  0
  7 32  1  0
 16 33  1  0
 16 34  1  0
 16 35  1  0
 18 36  1  0
 18 37  1  0
 18 38  1  0
 19 39  1  0
 20 40  1  0
M  CHG  1  10  -1
M  END
>  <UniqueID>  (24) 
24

>  <SMILES>  (24) 
CCCc1c(CCC(=O)[O-])c(=O)oc2c(C)c(C)ccc12

>  <Energy>  (24) 
45.8748368538601

>  <Genealogy>  (24) 
CCCc1c(CCC(=O)[O-])c(=O)oc2c(C)c(C)ccc12 (protonated)
CCCc1c(CCC(=O)[O-])c(=O)oc2c(C)c(C)ccc12 (3D coordinates assigned)
CCCc1c(CCC(=O)[O-])c(=O)oc2c(C)c(C)ccc12 (optimized conformer: 45.8748368538601 kcal/mol)

>  <smiles>  (24) 
CCCc1c(CCC(=O)O)c(=O)oc2c(C)c(C)ccc12

>  <score_type>  (24) 
oracle

>  <origin>  (24) 
adg

>  <m_score__min__energy>  (24) 
-11.300000000000001

>  <m_primary>  (24) 
energy

$$$$
24:0
     RDKit          3D

 53 56  0  0  0  0  0  0  0  0999 V2000
   57.4430   34.2120   45.5170 C   0  0  0  0  0  0  0  0  0  0  0  0
   58.3690   33.2270   46.0780 N   0  0  0  0  0  0  0  0  0  0  0  0
   58.5430   31.9350   45.6870 C   0  0  0  0  0  0  0  0  0  0  0  0
   57.7740   31.2650   44.6140 C   0  0  0  0  0  0  0  0  0  0  0  0
   57.0500   30.0930   44.8880 C   0  0  0  0  0  0  0  0  0  0  0  0
   56.3140   29.4660   43.8770 C   0  0  0  0  0  0  0  0  0  0  0  0
   56.2910   30.0080   42.5880 C   0  0  0  0  0  0  0  0  0  0  0  0
   57.0020   31.1780   42.3090 C   0  0  0  0  0  0  0  0  0  0  0  0
   57.7390   31.8070   43.3180 C   0  0  0  0  0  0  0  0  0  0  0  0
   59.5280   31.3270   46.4660 C   0  0  0  0  0  0  0  0  0  0  0  0
   59.9690   29.9570   46.4050 C   0  0  0  0  0  0  0  0  0  0  0  0
   60.3240   28.8580   46.3560 N   0  0  0  0  0  0  0  0  0  0  0  0
   59.9370   32.2820   47.3720 C   0  0  0  0  0  0  0  0  0  0  0  0
   60.8720   32.2180   48.4040 C   0  0  0  0  0  0  0  0  0  0  0  0
   61.0700   33.3600   49.2020 C   0  0  0  0  0  0  0  0  0  0  0  0
   62.0140   33.2810   50.2380 O   0  0  0  0  0  0  0  0  0  0  0  0
   63.4230   33.4710   50.0960 C   0  0  0  0  0  0  0  0  0  0  0  0
   64.2190   32.5120   51.0020 C   0  0  0  0  0  0  0  0  0  0  0  0
   63.3620   31.6530   51.8430 N   0  0  0  0  0  0  0  0  0  0  0  0
   63.0460   30.3420   51.2450 C   0  0  0  0  0  0  0  0  0  0  0  0
   61.5750   30.1950   50.9320 C   0  0  0  0  0  0  0  0  0  0  0  0
   60.6240   30.9540   51.6350 C   0  0  0  0  0  0  0  0  0  0  0  0
   59.2620   30.8050   51.3600 C   0  0  0  0  0  0  0  0  0  0  0  0
   58.8390   29.8980   50.3840 C   0  0  0  0  0  0  0  0  0  0  0  0
   59.7790   29.1380   49.6820 C   0  0  0  0  0  0  0  0  0  0  0  0
   61.1420   29.2840   49.9540 C   0  0  0  0  0  0  0  0  0  0  0  0
   60.3230   34.5410   48.9330 C   0  0  0  0  0  0  0  0  0  0  0  0
   59.3840   34.5730   47.8860 C   0  0  0  0  0  0  0  0  0  0  0  0
   59.2140   33.4200   47.1160 C   0  0  0  0  0  0  0  0  0  0  0  0
   56.9388   34.7484   46.3344 H   0  0  0  0  0  0  0  0  0  0  0  0
   58.0015   34.9291   44.8975 H   0  0  0  0  0  0  0  0  0  0  0  0
   56.6928   33.6988   44.8975 H   0  0  0  0  0  0  0  0  0  0  0  0
   57.0618   29.6664   45.9018 H   0  0  0  0  0  0  0  0  0  0  0  0
   55.7528   28.5457   44.0961 H   0  0  0  0  0  0  0  0  0  0  0  0
   55.7130   29.5131   41.7936 H   0  0  0  0  0  0  0  0  0  0  0  0
   56.9822   31.6047   41.2953 H   0  0  0  0  0  0  0  0  0  0  0  0
   58.2939   32.7304   43.0958 H   0  0  0  0  0  0  0  0  0  0  0  0
   61.4420   31.2958   48.5903 H   0  0  0  0  0  0  0  0  0  0  0  0
   63.7041   33.2880   49.0484 H   0  0  0  0  0  0  0  0  0  0  0  0
   63.6626   34.5028   50.3927 H   0  0  0  0  0  0  0  0  0  0  0  0
   64.8414   31.8665   50.3649 H   0  0  0  0  0  0  0  0  0  0  0  0
   64.8225   33.1325   51.6808 H   0  0  0  0  0  0  0  0  0  0  0  0
   63.8480   31.4990   52.7580 H   0  0  0  0  0  0  0  0  0  0  0  0
   62.4670   32.1510   52.0560 H   0  0  0  0  0  0  0  0  0  0  0  0
   63.6190   30.2309   50.3126 H   0  0  0  0  0  0  0  0  0  0  0  0
   63.3142   29.5649   51.9759 H   0  0  0  0  0  0  0  0  0  0  0  0
   60.9528   31.6680   52.4045 H   0  0  0  0  0  0  0  0  0  0  0  0
   58.5217   31.4023   51.9124 H   0  0  0  0  0  0  0  0  0  0  0  0
   57.7665   29.7824   50.1684 H   0  0  0  0  0  0  0  0  0  0  0  0
   59.4454   28.4241   48.9145 H   0  0  0  0  0  0  0  0  0  0  0  0
   61.8786   28.6834   49.4003 H   0  0  0  0  0  0  0  0  0  0  0  0
   60.4814   35.4378   49.5499 H   0  0  0  0  0  0  0  0  0  0  0  0
   58.7994   35.4815   47.6792 H   0  0  0  0  0  0  0  0  0  0  0  0
  1  2  1  0
  2  3  1  0
  3  4  1  0
  4  5  2  0
  5  6  1  0
  6  7  2  0
  7  8  1  0
  8  9  2  0
  3 10  2  0
 10 11  1  0
 11 12  3  0
 10 13  1  0
 13 14  2  0
 14 15  1  0
 15 16  1  0
 16 17  1  0
 17 18  1  0
 18 19  1  0
 19 20  1  0
 20 21  1  0
 21 22  2  0
 22 23  1  0
 23 24  2  0
 24 25  1  0
 25 26  2  0
 15 27  2  0
 27 28  1  0
 28 29  2  0
 29  2  1  0
  9  4  1  0
 29 13  1  0
 26 21  1  0
  1 30  1  0
  1 31  1  0
  1 32  1  0
  5 33  1  0
  6 34  1  0
  7 35  1  0
  8 36  1  0
  9 37  1  0
 14 38  1  0
 17 39  1  0
 17 40  1  0
 18 41  1  0
 18 42  1  0
 19 43  1  0
 19 44  1  0
 20 45  1  0
 20 46  1  0
 22 47  1  0
 23 48  1  0
 24 49  1  0
 25 50  1  0
 26 51  1  0
 27 52  1  0
 28 53  1  0
M  CHG  1  19   1
M  END
>  <UniqueID>  (25) 
25

>  <SMILES>  (25) 
Cn1c(-c2ccccc2)c(C#N)c2cc(OCC[NH2+]Cc3ccccc3)ccc21

>  <Energy>  (25) 
97.2085182326455

>  <Genealogy>  (25) 
Cn1c(-c2ccccc2)c(C#N)c2cc(OCC[NH2+]Cc3ccccc3)ccc21 (protonated)
Cn1c(-c2ccccc2)c(C#N)c2cc(OCC[NH2+]Cc3ccccc3)ccc21 (3D coordinates assigned)
Cn1c(-c2ccccc2)c(C#N)c2cc(OCC[NH2+]Cc3ccccc3)ccc21 (optimized conformer: 97.2085182326455 kcal/mol)

>  <smiles>  (25) 
Cn1c(-c2ccccc2)c(C#N)c2cc(OCCNCc3ccccc3)ccc21

>  <score_type>  (25) 
oracle

>  <origin>  (25) 
adg

>  <m_score__min__energy>  (25) 
-6.96

>  <m_primary>  (25) 
energy

$$$$
25:0
     RDKit          3D

 62 64  0  0  0  0  0  0  0  0999 V2000
   64.8770   32.1830   50.1450 C   0  0  0  0  0  0  0  0  0  0  0  0
   63.4340   32.5040   50.5110 C   0  0  0  0  0  0  0  0  0  0  0  0
   62.8280   33.3360   49.4640 N   0  0  0  0  0  0  0  0  0  0  0  0
   63.6500   33.3830   48.2450 C   0  0  0  0  0  0  0  0  0  0  0  0
   63.0710   32.5170   47.1120 C   0  0  0  0  0  0  0  0  0  0  0  0
   62.4460   31.2280   47.6670 C   0  0  0  0  0  0  0  0  0  0  0  0
   61.0440   31.4030   48.1010 N   0  0  0  0  0  0  0  0  0  0  0  0
   60.1020   31.3990   46.9820 C   0  0  0  0  0  0  0  0  0  0  0  0
   59.7990   30.1550   46.3450 C   0  0  0  0  0  0  0  0  0  0  0  0
   60.3810   28.9270   46.7680 C   0  0  0  0  0  0  0  0  0  0  0  0
   60.0890   27.7250   46.1300 C   0  0  0  0  0  0  0  0  0  0  0  0
   59.2300   27.7030   45.0460 C   0  0  0  0  0  0  0  0  0  0  0  0
   58.6450   28.8840   44.6010 C   0  0  0  0  0  0  0  0  0  0  0  0
   58.8920   30.1220   45.2520 C   0  0  0  0  0  0  0  0  0  0  0  0
   58.2960   31.2790   44.8120 N   0  0  0  0  0  0  0  0  0  0  0  0
   57.1370   31.2070   43.8900 C   0  0  0  0  0  0  0  0  0  0  0  0
   58.7600   32.5030   45.2350 C   0  0  0  0  0  0  0  0  0  0  0  0
   58.4490   33.6690   44.4960 C   0  0  0  0  0  0  0  0  0  0  0  0
   58.8190   34.9240   44.9400 C   0  0  0  0  0  0  0  0  0  0  0  0
   59.4680   35.0640   46.1490 C   0  0  0  0  0  0  0  0  0  0  0  0
   59.8200   33.9400   46.9180 C   0  0  0  0  0  0  0  0  0  0  0  0
   60.3750   34.1460   48.1880 O   0  0  0  0  0  0  0  0  0  0  0  0
   59.6760   34.5760   49.3570 C   0  0  0  0  0  0  0  0  0  0  0  0
   60.0820   33.6960   50.5380 C   0  0  0  0  0  0  0  0  0  0  0  0
   59.9510   32.2660   50.1800 N   0  0  0  0  0  0  0  0  0  0  0  0
   58.5550   31.9330   49.8500 C   0  0  0  0  0  0  0  0  0  0  0  0
   60.4220   31.4000   51.2740 C   0  0  0  0  0  0  0  0  0  0  0  0
   59.5720   32.6150   46.4090 C   0  0  0  0  0  0  0  0  0  0  0  0
   65.4677   32.0516   51.0636 H   0  0  0  0  0  0  0  0  0  0  0  0
   64.9078   31.2561   49.5535 H   0  0  0  0  0  0  0  0  0  0  0  0
   65.2978   33.0095   49.5535 H   0  0  0  0  0  0  0  0  0  0  0  0
   62.8650   31.5676   50.6081 H   0  0  0  0  0  0  0  0  0  0  0  0
   63.4146   33.0505   51.4654 H   0  0  0  0  0  0  0  0  0  0  0  0
   61.8790   32.9550   49.2290 H   0  0  0  0  0  0  0  0  0  0  0  0
   63.7081   34.4253   47.8983 H   0  0  0  0  0  0  0  0  0  0  0  0
   64.6444   32.9852   48.4960 H   0  0  0  0  0  0  0  0  0  0  0  0
   62.2982   33.0910   46.5798 H   0  0  0  0  0  0  0  0  0  0  0  0
   63.8881   32.2434   46.4282 H   0  0  0  0  0  0  0  0  0  0  0  0
   62.4758   30.4583   46.8817 H   0  0  0  0  0  0  0  0  0  0  0  0
   63.0293   30.9359   48.5527 H   0  0  0  0  0  0  0  0  0  0  0  0
   60.9590   32.2050   48.7460 H   0  0  0  0  0  0  0  0  0  0  0  0
   60.8000   30.6350   48.7630 H   0  0  0  0  0  0  0  0  0  0  0  0
   61.0779   28.9279   47.6191 H   0  0  0  0  0  0  0  0  0  0  0  0
   60.5428   26.7895   46.4889 H   0  0  0  0  0  0  0  0  0  0  0  0
   59.0099   26.7532   44.5367 H   0  0  0  0  0  0  0  0  0  0  0  0
   57.9775   28.8586   43.7271 H   0  0  0  0  0  0  0  0  0  0  0  0
   56.2068   31.1492   44.4742 H   0  0  0  0  0  0  0  0  0  0  0  0
   57.1165   32.1056   43.2559 H   0  0  0  0  0  0  0  0  0  0  0  0
   57.2279   30.3128   43.2559 H   0  0  0  0  0  0  0  0  0  0  0  0
   57.9006   33.5742   43.5472 H   0  0  0  0  0  0  0  0  0  0  0  0
   58.5960   35.8114   44.3294 H   0  0  0  0  0  0  0  0  0  0  0  0
   59.7142   36.0707   46.5177 H   0  0  0  0  0  0  0  0  0  0  0  0
   59.9317   35.6236   49.5739 H   0  0  0  0  0  0  0  0  0  0  0  0
   58.5918   34.4933   49.1904 H   0  0  0  0  0  0  0  0  0  0  0  0
   61.1272   33.9087   50.8070 H   0  0  0  0  0  0  0  0  0  0  0  0
   59.4223   33.9139   51.3909 H   0  0  0  0  0  0  0  0  0  0  0  0
   57.9814   31.7962   50.7785 H   0  0  0  0  0  0  0  0  0  0  0  0
   58.1120   32.7507   49.2625 H   0  0  0  0  0  0  0  0  0  0  0  0
   58.5288   31.0034   49.2625 H   0  0  0  0  0  0  0  0  0  0  0  0
   60.1712   31.8612   52.2406 H   0  0  0  0  0  0  0  0  0  0  0  0
   59.9343   30.4168   51.1993 H   0  0  0  0  0  0  0  0  0  0  0  0
   61.5123   31.2751   51.1993 H   0  0  0  0  0  0  0  0  0  0  0  0
  1  2  1  0
  2  3  1  0
  3  4  1  0
  4  5  1  0
  5  6  1  0
  6  7  1  0
  7  8  1  0
  8  9  2  0
  9 10  1  0
 10 11  2  0
 11 12  1  0
 12 13  2  0
 13 14  1  0
 14 15  2  0
 15 16  1  0
 15 17  1  0
 17 18  2  0
 18 19  1  0
 19 20  2  0
 20 21  1  0
 21 22  1  0
 22 23  1  0
 23 24  1  0
 24 25  1  0
 25 26  1  0
 25 27  1  0
 21 28  2  0
 28  8  1  0
 14  9  1  0
 28 17  1  0
  1 29  1  0
  1 30  1  0
  1 31  1  0
  2 32  1  0
  2 33  1  0
  3 34  1  0
  4 35  1  0
  4 36  1  0
  5 37  1  0
  5 38  1  0
  6 39  1  0
  6 40  1  0
  7 41  1  0
  7 42  1  0
 10 43  1  0
 11 44  1  0
 12 45  1  0
 13 46  1  0
 16 47  1  0
 16 48  1  0
 16 49  1  0
 18 50  1  0
 19 51  1  0
 20 52  1  0
 23 53  1  0
 23 54  1  0
 24 55  1  0
 24 56  1  0
 26 57  1  0
 26 58  1  0
 26 59  1  0
 27 60  1  0
 27 61  1  0
 27 62  1  0
M  CHG  2   7   1  15   1
M  END
>  <UniqueID>  (26) 
26

>  <SMILES>  (26) 
CCNCCC[NH2+]c1c2ccccc2[n+](C)c2cccc(OCCN(C)C)c12

>  <Energy>  (26) 
92.04638243511492

>  <Genealogy>  (26) 
CCNCCC[NH2+]c1c2ccccc2[n+](C)c2cccc(OCCN(C)C)c12 (protonated)
CCNCCC[NH2+]c1c2ccccc2[n+](C)c2cccc(OCCN(C)C)c12 (3D coordinates assigned)
CCNCCC[NH2+]c1c2ccccc2[n+](C)c2cccc(OCCN(C)C)c12 (optimized conformer: 92.04638243511492 kcal/mol)

>  <smiles>  (26) 
CCNCCCNc1c2ccccc2[n+](C)c2cccc(OCCN(C)C)c12

>  <score_type>  (26) 
oracle

>  <origin>  (26) 
adg

>  <m_score__min__energy>  (26) 
-2.9500000000000002

>  <m_primary>  (26) 
energy

$$$$
26:0
     RDKit          3D

 47 49  0  0  0  0  0  0  0  0999 V2000
   63.0500   33.8830   46.3590 C   0  0  0  0  0  0  0  0  0  0  0  0
   63.7240   33.4080   47.6490 C   0  0  0  0  0  0  0  0  0  0  0  0
   63.6120   31.9540   47.8430 N   0  0  0  0  0  0  0  0  0  0  0  0
   63.1670   31.6050   49.2000 C   0  0  0  0  0  0  0  0  0  0  0  0
   61.7140   32.0440   49.4210 C   0  0  0  0  0  0  0  0  0  0  0  0
   60.7040   31.0500   48.8310 C   0  0  0  0  0  0  0  0  0  0  0  0
   60.9390   30.8540   47.4000 N   0  0  0  0  0  0  0  0  0  0  0  0
   59.8820   30.8720   46.4260 C   0  0  0  0  0  0  0  0  0  0  0  0
   59.4390   29.6880   45.8320 C   0  0  0  0  0  0  0  0  0  0  0  0
   58.4730   29.7070   44.8570 C   0  0  0  0  0  0  0  0  0  0  0  0
   57.8730   30.8720   44.4460 N   0  0  0  0  0  0  0  0  0  0  0  0
   56.8060   30.8360   43.4270 C   0  0  0  0  0  0  0  0  0  0  0  0
   58.2930   32.0730   44.9920 C   0  0  0  0  0  0  0  0  0  0  0  0
   57.7440   33.3110   44.5760 C   0  0  0  0  0  0  0  0  0  0  0  0
   58.1700   34.5110   45.1430 C   0  0  0  0  0  0  0  0  0  0  0  0
   59.1500   34.5140   46.1320 C   0  0  0  0  0  0  0  0  0  0  0  0
   59.7170   33.3150   46.5580 C   0  0  0  0  0  0  0  0  0  0  0  0
   59.3110   32.0880   45.9970 C   0  0  0  0  0  0  0  0  0  0  0  0
   58.2170   28.3380   44.3250 C   0  0  0  0  0  0  0  0  0  0  0  0
   59.2970   27.4670   44.9840 C   0  0  0  0  0  0  0  0  0  0  0  0
   59.9320   28.3130   46.0950 C   0  0  0  0  0  0  0  0  0  0  0  0
   62.1743   34.5001   46.6086 H   0  0  0  0  0  0  0  0  0  0  0  0
   63.7631   34.4792   45.7708 H   0  0  0  0  0  0  0  0  0  0  0  0
   62.7283   33.0109   45.7708 H   0  0  0  0  0  0  0  0  0  0  0  0
   64.7898   33.6772   47.6095 H   0  0  0  0  0  0  0  0  0  0  0  0
   63.2133   33.8971   48.4916 H   0  0  0  0  0  0  0  0  0  0  0  0
   64.5480   31.5190   47.6670 H   0  0  0  0  0  0  0  0  0  0  0  0
   63.2402   30.5158   49.3356 H   0  0  0  0  0  0  0  0  0  0  0  0
   63.8087   32.1230   49.9280 H   0  0  0  0  0  0  0  0  0  0  0  0
   61.5324   32.1316   50.5024 H   0  0  0  0  0  0  0  0  0  0  0  0
   61.5739   33.0071   48.9084 H   0  0  0  0  0  0  0  0  0  0  0  0
   60.8049   30.0844   49.3481 H   0  0  0  0  0  0  0  0  0  0  0  0
   59.6907   31.4554   48.9684 H   0  0  0  0  0  0  0  0  0  0  0  0
   61.9260   30.8510   47.0590 H   0  0  0  0  0  0  0  0  0  0  0  0
   55.8253   30.8029   43.9241 H   0  0  0  0  0  0  0  0  0  0  0  0
   56.8684   31.7368   42.7987 H   0  0  0  0  0  0  0  0  0  0  0  0
   56.9290   29.9415   42.7987 H   0  0  0  0  0  0  0  0  0  0  0  0
   56.9703   33.3255   43.7942 H   0  0  0  0  0  0  0  0  0  0  0  0
   57.7293   35.4612   44.8071 H   0  0  0  0  0  0  0  0  0  0  0  0
   59.4771   35.4649   46.5778 H   0  0  0  0  0  0  0  0  0  0  0  0
   60.4899   33.3263   47.3406 H   0  0  0  0  0  0  0  0  0  0  0  0
   57.2116   27.9920   44.6070 H   0  0  0  0  0  0  0  0  0  0  0  0
   58.2583   28.2994   43.2265 H   0  0  0  0  0  0  0  0  0  0  0  0
   58.8437   26.5601   45.4108 H   0  0  0  0  0  0  0  0  0  0  0  0
   60.0516   27.1505   44.2488 H   0  0  0  0  0  0  0  0  0  0  0  0
   59.6055   27.9643   47.0859 H   0  0  0  0  0  0  0  0  0  0  0  0
   61.0303   28.2520   46.0957 H   0  0  0  0  0  0  0  0  0  0  0  0
  1  2  1  0
  2  3  1  0
  3  4  1  0
  4  5  1  0
  5  6  1  0
  6  7  1  0
  7  8  1  0
  8  9  2  0
  9 10  1  0
 10 11  2  0
 11 12  1  0
 11 13  1  0
 13 14  2  0
 14 15  1  0
 15 16  2  0
 16 17  1  0
 17 18  2  0
 10 19  1  0
 19 20  1  0
 20 21  1  0
 18  8  1  0
 21  9  1  0
 18 13  1  0
  1 22  1  0
  1 23  1  0
  1 24  1  0
  2 25  1  0
  2 26  1  0
  3 27  1  0
  4 28  1  0
  4 29  1  0
  5 30  1  0
  5 31  1  0
  6 32  1  0
  6 33  1  0
  7 34  1  0
 12 35  1  0
 12 36  1  0
 12 37  1  0
 14 38  1  0
 15 39  1  0
 16 40  1  0
 17 41  1  0
 19 42  1  0
 19 43  1  0
 20 44  1  0
 20 45  1  0
 21 46  1  0
 21 47  1  0
M  CHG  1  11   1
M  END
>  <UniqueID>  (27) 
27

>  <SMILES>  (27) 
CCNCCCNc1c2c([n+](C)c3ccccc13)CCC2

>  <Energy>  (27) 
63.817973812701595

>  <Genealogy>  (27) 
CCNCCCNc1c2c([n+](C)c3ccccc13)CCC2 (3D coordinates assigned)
CCNCCCNc1c2c([n+](C)c3ccccc13)CCC2 (nonaromatic ring conformer: 63.817973812701595 kcal/mol)

>  <smiles>  (27) 
CCNCCCNc1c2c([n+](C)c3ccccc13)CCC2

>  <score_type>  (27) 
oracle

>  <origin>  (27) 
adg

>  <m_score__min__energy>  (27) 
-5.6799999999999997

>  <m_primary>  (27) 
energy

$$$$
27:0
     RDKit          3D

 56 58  0  0  0  0  0  0  0  0999 V2000
   59.6750   34.9750   46.2730 C   0  0  0  0  0  0  0  0  0  0  0  0
   58.2460   34.4930   46.0440 C   0  0  0  0  0  0  0  0  0  0  0  0
   58.2420   33.1070   45.5520 N   0  0  0  0  0  0  0  0  0  0  0  0
   57.7700   33.0310   44.1630 C   0  0  0  0  0  0  0  0  0  0  0  0
   57.2640   31.6160   43.8620 C   0  0  0  0  0  0  0  0  0  0  0  0
   58.0570   30.5470   44.6240 C   0  0  0  0  0  0  0  0  0  0  0  0
   57.5700   30.4190   46.0070 N   0  0  0  0  0  0  0  0  0  0  0  0
   58.3960   29.5080   46.8200 C   0  0  0  0  0  0  0  0  0  0  0  0
   59.6280   30.2050   47.4350 C   0  0  0  0  0  0  0  0  0  0  0  0
   59.5280   31.6720   47.3430 N   0  0  0  0  0  0  0  0  0  0  0  0
   60.2950   32.2970   48.4030 C   0  0  0  0  0  0  0  0  0  0  0  0
   61.6200   32.6940   48.1730 C   0  0  0  0  0  0  0  0  0  0  0  0
   62.3680   33.2870   49.1570 C   0  0  0  0  0  0  0  0  0  0  0  0
   61.8660   33.5270   50.4110 N   0  0  0  0  0  0  0  0  0  0  0  0
   62.7020   34.2000   51.4260 C   0  0  0  0  0  0  0  0  0  0  0  0
   60.5780   33.1180   50.7100 C   0  0  0  0  0  0  0  0  0  0  0  0
   60.0310   33.2990   52.0060 C   0  0  0  0  0  0  0  0  0  0  0  0
   58.7370   32.8770   52.3060 C   0  0  0  0  0  0  0  0  0  0  0  0
   57.9580   32.2620   51.3350 C   0  0  0  0  0  0  0  0  0  0  0  0
   58.4620   32.0660   50.0520 C   0  0  0  0  0  0  0  0  0  0  0  0
   59.7670   32.4890   49.7110 C   0  0  0  0  0  0  0  0  0  0  0  0
   63.7380   33.6230   48.6710 C   0  0  0  0  0  0  0  0  0  0  0  0
   63.7940   33.0540   47.2470 C   0  0  0  0  0  0  0  0  0  0  0  0
   62.3820   32.5680   46.9010 C   0  0  0  0  0  0  0  0  0  0  0  0
   59.8710   35.0411   47.3534 H   0  0  0  0  0  0  0  0  0  0  0  0
   60.3793   34.2647   45.8154 H   0  0  0  0  0  0  0  0  0  0  0  0
   59.8052   35.9668   45.8154 H   0  0  0  0  0  0  0  0  0  0  0  0
   57.6912   34.5419   46.9926 H   0  0  0  0  0  0  0  0  0  0  0  0
   57.7692   35.1387   45.2918 H   0  0  0  0  0  0  0  0  0  0  0  0
   57.5680   32.5650   46.1430 H   0  0  0  0  0  0  0  0  0  0  0  0
   56.9510   33.7504   44.0160 H   0  0  0  0  0  0  0  0  0  0  0  0
   58.6013   33.2710   43.4838 H   0  0  0  0  0  0  0  0  0  0  0  0
   56.2056   31.5480   44.1537 H   0  0  0  0  0  0  0  0  0  0  0  0
   57.3932   31.4313   42.7853 H   0  0  0  0  0  0  0  0  0  0  0  0
   57.9436   29.5805   44.1112 H   0  0  0  0  0  0  0  0  0  0  0  0
   59.1153   30.8459   44.6500 H   0  0  0  0  0  0  0  0  0  0  0  0
   56.5770   30.0910   45.9910 H   0  0  0  0  0  0  0  0  0  0  0  0
   57.7767   29.1055   47.6351 H   0  0  0  0  0  0  0  0  0  0  0  0
   58.7635   28.7124   46.1551 H   0  0  0  0  0  0  0  0  0  0  0  0
   59.7073   29.9190   48.4942 H   0  0  0  0  0  0  0  0  0  0  0  0
   60.5180   29.8865   46.8724 H   0  0  0  0  0  0  0  0  0  0  0  0
   59.8870   31.9760   46.4090 H   0  0  0  0  0  0  0  0  0  0  0  0
   58.5380   31.9950   47.3750 H   0  0  0  0  0  0  0  0  0  0  0  0
   62.3544   33.9202   52.4314 H   0  0  0  0  0  0  0  0  0  0  0  0
   63.7503   33.8909   51.3012 H   0  0  0  0  0  0  0  0  0  0  0  0
   62.6239   35.2901   51.3012 H   0  0  0  0  0  0  0  0  0  0  0  0
   60.6379   33.7803   52.7871 H   0  0  0  0  0  0  0  0  0  0  0  0
   58.3310   33.0319   53.3166 H   0  0  0  0  0  0  0  0  0  0  0  0
   56.9389   31.9284   51.5803 H   0  0  0  0  0  0  0  0  0  0  0  0
   57.8356   31.5749   49.2927 H   0  0  0  0  0  0  0  0  0  0  0  0
   63.8898   34.7124   48.6601 H   0  0  0  0  0  0  0  0  0  0  0  0
   64.5240   33.2062   49.3179 H   0  0  0  0  0  0  0  0  0  0  0  0
   64.1078   33.8361   46.5400 H   0  0  0  0  0  0  0  0  0  0  0  0
   64.5191   32.2293   47.1827 H   0  0  0  0  0  0  0  0  0  0  0  0
   61.9358   33.1974   46.1169 H   0  0  0  0  0  0  0  0  0  0  0  0
   62.3783   31.5389   46.5125 H   0  0  0  0  0  0  0  0  0  0  0  0
  1  2  1  0
  2  3  1  0
  3  4  1  0
  4  5  1  0
  5  6  1  0
  6  7  1  0
  7  8  1  0
  8  9  1  0
  9 10  1  0
 10 11  1  0
 11 12  2  0
 12 13  1  0
 13 14  2  0
 14 15  1  0
 14 16  1  0
 16 17  2  0
 17 18  1  0
 18 19  2  0
 19 20  1  0
 20 21  2  0
 13 22  1  0
 22 23  1  0
 23 24  1  0
 21 11  1  0
 24 12  1  0
 21 16  1  0
  1 25  1  0
  1 26  1  0
  1 27  1  0
  2 28  1  0
  2 29  1  0
  3 30  1  0
  4 31  1  0
  4 32  1  0
  5 33  1  0
  5 34  1  0
  6 35  1  0
  6 36  1  0
  7 37  1  0
  8 38  1  0
  8 39  1  0
  9 40  1  0
  9 41  1  0
 10 42  1  0
 10 43  1  0
 15 44  1  0
 15 45  1  0
 15 46  1  0
 17 47  1  0
 18 48  1  0
 19 49  1  0
 20 50  1  0
 22 51  1  0
 22 52  1  0
 23 53  1  0
 23 54  1  0
 24 55  1  0
 24 56  1  0
M  CHG  2  10   1  14   1
M  END
>  <UniqueID>  (28) 
28

>  <SMILES>  (28) 
CCNCCCNCC[NH2+]c1c2c([n+](C)c3ccccc13)CCC2

>  <Energy>  (28) 
70.47709372150202

>  <Genealogy>  (28) 
CCNCCCNCC[NH2+]c1c2c([n+](C)c3ccccc13)CCC2 (protonated)
CCNCCCNCC[NH2+]c1c2c([n+](C)c3ccccc13)CCC2 (3D coordinates assigned)
CCNCCCNCC[NH2+]c1c2c([n+](C)c3ccccc13)CCC2 (nonaromatic ring conformer: 70.47709372150202 kcal/mol)

>  <smiles>  (28) 
CCNCCCNCCNc1c2c([n+](C)c3ccccc13)CCC2

>  <score_type>  (28) 
oracle

>  <origin>  (28) 
adg

>  <m_score__min__energy>  (28) 
-3.9500000000000002

>  <m_primary>  (28) 
energy

$$$$
28:0
     RDKit          3D

 59 62  0  0  0  0  0  0  0  0999 V2000
   64.8280   32.7420   49.4090 C   0  0  0  0  0  0  0  0  0  0  0  0
   63.5970   33.3730   50.0680 C   0  0  0  0  0  0  0  0  0  0  0  0
   62.4990   33.6030   49.1090 N   0  0  0  0  0  0  0  0  0  0  0  0
   62.8770   33.3740   47.6980 C   0  0  0  0  0  0  0  0  0  0  0  0
   62.3470   32.0450   47.1400 C   0  0  0  0  0  0  0  0  0  0  0  0
   61.9110   31.2100   48.1970 O   0  0  0  0  0  0  0  0  0  0  0  0
   61.2020   30.0820   47.7250 C   0  0  0  0  0  0  0  0  0  0  0  0
   60.1050   29.6730   48.7160 C   0  0  0  0  0  0  0  0  0  0  0  0
   58.8140   29.4570   48.0510 N   0  0  0  0  0  0  0  0  0  0  0  0
   58.5980   29.7820   46.6700 C   0  0  0  0  0  0  0  0  0  0  0  0
   58.3410   28.7840   45.7020 C   0  0  0  0  0  0  0  0  0  0  0  0
   58.5070   27.4200   46.0140 C   0  0  0  0  0  0  0  0  0  0  0  0
   58.2740   26.4370   45.0550 C   0  0  0  0  0  0  0  0  0  0  0  0
   57.8950   26.7930   43.7660 C   0  0  0  0  0  0  0  0  0  0  0  0
   57.7420   28.1350   43.4200 C   0  0  0  0  0  0  0  0  0  0  0  0
   57.9470   29.1630   44.3740 C   0  0  0  0  0  0  0  0  0  0  0  0
   57.7920   30.5010   44.0450 N   0  0  0  0  0  0  0  0  0  0  0  0
   57.2710   30.9120   42.7270 C   0  0  0  0  0  0  0  0  0  0  0  0
   58.1590   31.4450   44.9700 C   0  0  0  0  0  0  0  0  0  0  0  0
   58.1770   32.7890   44.7860 N   0  0  0  0  0  0  0  0  0  0  0  0
   58.5890   33.2990   45.9630 C   0  0  0  0  0  0  0  0  0  0  0  0
   58.7760   34.6460   46.2620 C   0  0  0  0  0  0  0  0  0  0  0  0
   59.2500   34.9800   47.5410 C   0  0  0  0  0  0  0  0  0  0  0  0
   59.5440   33.9770   48.4910 C   0  0  0  0  0  0  0  0  0  0  0  0
   60.0550   34.3780   49.7340 O   0  0  0  0  0  0  0  0  0  0  0  0
   59.6820   33.8010   50.9820 C   0  0  0  0  0  0  0  0  0  0  0  0
   59.3280   32.6160   48.1640 C   0  0  0  0  0  0  0  0  0  0  0  0
   58.8410   32.3100   46.8880 C   0  0  0  0  0  0  0  0  0  0  0  0
   58.5610   31.1110   46.2480 C   0  0  0  0  0  0  0  0  0  0  0  0
   65.5195   32.3875   50.1876 H   0  0  0  0  0  0  0  0  0  0  0  0
   64.5144   31.8935   48.7832 H   0  0  0  0  0  0  0  0  0  0  0  0
   65.3338   33.4920   48.7832 H   0  0  0  0  0  0  0  0  0  0  0  0
   63.2378   32.7008   50.8612 H   0  0  0  0  0  0  0  0  0  0  0  0
   63.8982   34.3506   50.4725 H   0  0  0  0  0  0  0  0  0  0  0  0
   61.6960   32.9740   49.3460 H   0  0  0  0  0  0  0  0  0  0  0  0
   62.1500   34.5830   49.2290 H   0  0  0  0  0  0  0  0  0  0  0  0
   62.4717   34.1957   47.0893 H   0  0  0  0  0  0  0  0  0  0  0  0
   63.9754   33.3327   47.6554 H   0  0  0  0  0  0  0  0  0  0  0  0
   61.5030   32.2457   46.4637 H   0  0  0  0  0  0  0  0  0  0  0  0
   63.1550   31.5381   46.5921 H   0  0  0  0  0  0  0  0  0  0  0  0
   60.7404   30.3256   46.7567 H   0  0  0  0  0  0  0  0  0  0  0  0
   61.9064   29.2444   47.6140 H   0  0  0  0  0  0  0  0  0  0  0  0
   60.4074   28.7407   49.2153 H   0  0  0  0  0  0  0  0  0  0  0  0
   59.9805   30.4910   49.4408 H   0  0  0  0  0  0  0  0  0  0  0  0
   58.0480   28.9820   48.5800 H   0  0  0  0  0  0  0  0  0  0  0  0
   58.8241   27.1282   47.0261 H   0  0  0  0  0  0  0  0  0  0  0  0
   58.3903   25.3754   45.3187 H   0  0  0  0  0  0  0  0  0  0  0  0
   57.7146   26.0108   43.0139 H   0  0  0  0  0  0  0  0  0  0  0  0
   57.4579   28.4000   42.3909 H   0  0  0  0  0  0  0  0  0  0  0  0
   56.4143   31.5878   42.8659 H   0  0  0  0  0  0  0  0  0  0  0  0
   58.0614   31.4324   42.1663 H   0  0  0  0  0  0  0  0  0  0  0  0
   56.9489   30.0221   42.1663 H   0  0  0  0  0  0  0  0  0  0  0  0
   57.9620   33.3400   43.9270 H   0  0  0  0  0  0  0  0  0  0  0  0
   58.5587   35.4262   45.5177 H   0  0  0  0  0  0  0  0  0  0  0  0
   59.3943   36.0376   47.8067 H   0  0  0  0  0  0  0  0  0  0  0  0
   60.0792   34.4155   51.8034 H   0  0  0  0  0  0  0  0  0  0  0  0
   58.5851   33.7586   51.0531 H   0  0  0  0  0  0  0  0  0  0  0  0
   60.0937   32.7834   51.0531 H   0  0  0  0  0  0  0  0  0  0  0  0
   59.5375   31.8201   48.8939 H   0  0  0  0  0  0  0  0  0  0  0  0
  1  2  1  0
  2  3  1  0
  3  4  1  0
  4  5  1  0
  5  6  1  0
  6  7  1  0
  7  8  1  0
  8  9  1  0
  9 10  1  0
 10 11  2  0
 11 12  1  0
 12 13  2  0
 13 14  1  0
 14 15  2  0
 15 16  1  0
 16 17  2  0
 17 18  1  0
 17 19  1  0
 19 20  1  0
 20 21  1  0
 21 22  2  0
 22 23  1  0
 23 24  2  0
 24 25  1  0
 25 26  1  0
 24 27  1  0
 27 28  2  0
 28 29  1  0
 29 10  1  0
 16 11  1  0
 29 19  2  0
 28 21  1  0
  1 30  1  0
  1 31  1  0
  1 32  1  0
  2 33  1  0
  2 34  1  0
  3 35  1  0
  3 36  1  0
  4 37  1  0
  4 38  1  0
  5 39  1  0
  5 40  1  0
  7 41  1  0
  7 42  1  0
  8 43  1  0
  8 44  1  0
  9 45  1  0
 12 46  1  0
 13 47  1  0
 14 48  1  0
 15 49  1  0
 18 50  1  0
 18 51  1  0
 18 52  1  0
 20 53  1  0
 22 54  1  0
 23 55  1  0
 26 56  1  0
 26 57  1  0
 26 58  1  0
 27 59  1  0
M  CHG  2   3   1  17   1
M  END
>  <UniqueID>  (29) 
29

>  <SMILES>  (29) 
CC[NH2+]CCOCCNc1c2ccccc2[n+](C)c2[nH]c3ccc(OC)cc3c12

>  <Energy>  (29) 
116.95583274262181

>  <Genealogy>  (29) 
CC[NH2+]CCOCCNc1c2ccccc2[n+](C)c2[nH]c3ccc(OC)cc3c12 (protonated)
CC[NH2+]CCOCCNc1c2ccccc2[n+](C)c2[nH]c3ccc(OC)cc3c12 (3D coordinates assigned)
CC[NH2+]CCOCCNc1c2ccccc2[n+](C)c2[nH]c3ccc(OC)cc3c12 (optimized conformer: 116.95583274262181 kcal/mol)

>  <smiles>  (29) 
CCNCCOCCNc1c2ccccc2[n+](C)c2[nH]c3ccc(OC)cc3c12

>  <score_type>  (29) 
oracle

>  <origin>  (29) 
adg

>  <m_score__min__energy>  (29) 
-4.8399999999999999

>  <m_primary>  (29) 
energy

$$$$
