0:0
     RDKit          3D

 43 45  0  0  0  0  0  0  0  0999 V2000
   61.8275   29.6661   45.0125 H   0  0  0  0  0  0  0  0  0  0  0  0
   60.9460   29.3330   45.5800 C   0  0  0  0  0  0  0  0  0  0  0  0
   59.9930   28.5010   45.1200 N   0  0  0  0  0  0  0  0  0  0  0  0
   59.1250   28.3710   46.1480 C   0  0  0  0  0  0  0  0  0  0  0  0
   57.8940   27.5530   46.0410 C   0  0  0  0  0  0  0  0  0  0  0  0
   57.7080   25.9770   46.6110 S   0  0  0  0  0  0  0  0  0  0  0  0
   56.0800   25.8920   46.1840 C   0  0  0  0  0  0  0  0  0  0  0  0
   55.2830   24.8770   46.3540 N   0  0  0  0  0  0  0  0  0  0  0  0
   54.8260   23.9450   45.3600 C   0  0  0  0  0  0  0  0  0  0  0  0
   53.7480   23.3090   45.5010 O   0  0  0  0  0  0  0  0  0  0  0  0
   55.6220   23.7650   44.1110 C   0  0  0  0  0  0  0  0  0  0  0  0
   56.6644   23.5293   44.3713 H   0  0  0  0  0  0  0  0  0  0  0  0
   55.1961   22.9405   43.5204 H   0  0  0  0  0  0  0  0  0  0  0  0
   55.5923   24.6925   43.5204 H   0  0  0  0  0  0  0  0  0  0  0  0
   55.6580   27.0430   45.6220 N   0  0  0  0  0  0  0  0  0  0  0  0
   56.6520   27.9700   45.5380 C   0  0  0  0  0  0  0  0  0  0  0  0
   56.3930   29.3240   44.9530 C   0  0  0  0  0  0  0  0  0  0  0  0
   56.2535   30.0534   45.7645 H   0  0  0  0  0  0  0  0  0  0  0  0
   57.2498   29.6253   44.3324 H   0  0  0  0  0  0  0  0  0  0  0  0
   55.4855   29.2878   44.3324 H   0  0  0  0  0  0  0  0  0  0  0  0
   59.5060   29.0790   47.2410 N   0  0  0  0  0  0  0  0  0  0  0  0
   58.8360   29.1570   48.5400 C   0  0  0  0  0  0  0  0  0  0  0  0
   59.5824   29.0701   49.3433 H   0  0  0  0  0  0  0  0  0  0  0  0
   58.3149   30.1219   48.6264 H   0  0  0  0  0  0  0  0  0  0  0  0
   58.1072   28.3376   48.6264 H   0  0  0  0  0  0  0  0  0  0  0  0
   60.6450   29.7020   46.8720 C   0  0  0  0  0  0  0  0  0  0  0  0
   61.4960   30.5850   47.7400 C   0  0  0  0  0  0  0  0  0  0  0  0
   61.6184   30.1125   48.7258 H   0  0  0  0  0  0  0  0  0  0  0  0
   62.4750   30.7184   47.2566 H   0  0  0  0  0  0  0  0  0  0  0  0
   60.8570   31.9310   47.9150 C   0  0  0  0  0  0  0  0  0  0  0  0
   61.3780   32.9160   48.7540 C   0  0  0  0  0  0  0  0  0  0  0  0
   62.2855   32.8280   49.3693 H   0  0  0  0  0  0  0  0  0  0  0  0
   60.3740   34.2620   48.6590 S   0  0  0  0  0  0  0  0  0  0  0  0
   59.3150   33.5420   47.5600 C   0  0  0  0  0  0  0  0  0  0  0  0
   58.2660   34.0820   47.0080 N   0  0  0  0  0  0  0  0  0  0  0  0
   57.5130   33.6380   45.8670 C   0  0  0  0  0  0  0  0  0  0  0  0
   57.3410   32.4010   45.7060 O   0  0  0  0  0  0  0  0  0  0  0  0
   56.8860   34.5790   44.8820 C   0  0  0  0  0  0  0  0  0  0  0  0
   56.3550   35.3760   45.4232 H   0  0  0  0  0  0  0  0  0  0  0  0
   57.6690   35.0237   44.2502 H   0  0  0  0  0  0  0  0  0  0  0  0
   56.1741   34.0276   44.2502 H   0  0  0  0  0  0  0  0  0  0  0  0
   59.7220   32.2920   47.2530 N   0  0  0  0  0  0  0  0  0  0  0  0
   59.2210   31.6720   46.5770 H   0  0  0  0  0  0  0  0  0  0  0  0
  1  2  1  0
  2  3  1  0
  3  4  2  0
  4  5  1  0
  5  6  1  0
  6  7  1  0
  7  8  2  3
  8  9  1  0
  9 10  2  0
  9 11  1  0
 11 12  1  0
 11 13  1  0
 11 14  1  0
  7 15  1  0
 15 16  1  0
 16 17  1  0
 17 18  1  0
 17 19  1  0
 17 20  1  0
  4 21  1  0
 21 22  1  0
 22 23  1  0
 22 24  1  0
 22 25  1  0
 21 26  1  0
 26 27  1  0
 27 28  1  0
 27 29  1  0
 27 30  1  0
 30 31  2  0
 31 32  1  0
 31 33  1  0
 33 34  1  0
 34 35  2  0
 35 36  1  0
 36 37  2  0
 36 38  1  0
 38 39  1  0
 38 40  1  0
 38 41  1  0
 34 42  1  0
 42 43  1  0
 26  2  2  0
 42 30  1  0
 16  5  2  0
M  CHG  1  15  -1
M  END
>  <UniqueID>  (1) 
1

>  <SMILES>  (1) 
CC(=O)N=c1[n-]c(C)c(-c2ncc(Cc3cs/c(=N\C(C)=O)[nH]3)n2C)s1

>  <Energy>  (1) 
140.338323663466

>  <Genealogy>  (1) 
CC(=O)N=c1[n-]c(C)c(-c2ncc(Cc3csc(=NC(C)=O)[nH]3)n2C)s1 (protonated)
CC(=O)N=c1[n-]c(C)c(-c2ncc(Cc3cs/c(=N\C(C)=O)[nH]3)n2C)s1 (cis-trans isomerization)
CC(=O)N=c1[n-]c(C)c(-c2ncc(Cc3cs/c(=N\C(C)=O)[nH]3)n2C)s1 (3D coordinates assigned)
CC(=O)N=c1[n-]c(C)c(-c2ncc(Cc3cs/c(=N\C(C)=O)[nH]3)n2C)s1 (optimized conformer: 140.338323663466 kcal/mol)

>  <smiles>  (1) 
CC(=O)N=c1[nH]c(Cc2cnc(-c3sc(=NC(C)=O)[nH]c3C)n2C)cs1

>  <score_type>  (1) 
oracle

>  <origin>  (1) 
adg

>  <m_score__min__energy>  (1) 
-9.4399999999999995

>  <m_primary>  (1) 
energy

$$$$
1:0
     RDKit          3D

 41 43  0  0  0  0  0  0  0  0999 V2000
   58.2270   34.6030   44.7850 C   0  0  0  0  0  0  0  0  0  0  0  0
   57.5160   33.3280   44.9690 N   0  0  0  0  0  0  0  0  0  0  0  0
   57.6790   32.3410   43.8760 C   0  0  0  0  0  0  0  0  0  0  0  0
   57.4790   30.9030   44.3030 C   0  0  0  0  0  0  0  0  0  0  0  0
   58.5750   30.0990   44.6600 C   0  0  0  0  0  0  0  0  0  0  0  0
   58.3740   28.7960   45.1250 C   0  0  0  0  0  0  0  0  0  0  0  0
   57.0790   28.2720   45.2190 C   0  0  0  0  0  0  0  0  0  0  0  0
   56.8280   26.6460   45.8430 S   0  0  0  0  0  0  0  0  0  0  0  0
   55.1340   26.3320   45.9600 N   0  0  0  0  0  0  0  0  0  0  0  0
   57.4580   26.5180   47.2020 O   0  0  0  0  0  0  0  0  0  0  0  0
   57.4640   25.6460   44.9190 O   0  0  0  0  0  0  0  0  0  0  0  0
   55.9890   29.0440   44.7980 C   0  0  0  0  0  0  0  0  0  0  0  0
   56.1880   30.3480   44.3380 C   0  0  0  0  0  0  0  0  0  0  0  0
   57.5100   32.8030   46.3530 C   0  0  0  0  0  0  0  0  0  0  0  0
   58.8750   32.4810   46.9020 C   0  0  0  0  0  0  0  0  0  0  0  0
   59.0400   31.3850   47.6900 N   0  0  0  0  0  0  0  0  0  0  0  0
   60.2590   31.0410   48.1830 C   0  0  0  0  0  0  0  0  0  0  0  0
   60.3660   30.0110   48.9010 O   0  0  0  0  0  0  0  0  0  0  0  0
   61.3800   31.8280   47.8760 C   0  0  0  0  0  0  0  0  0  0  0  0
   62.6760   31.5080   48.3220 C   0  0  0  0  0  0  0  0  0  0  0  0
   63.7560   32.3220   47.9710 C   0  0  0  0  0  0  0  0  0  0  0  0
   63.5550   33.4570   47.1790 C   0  0  0  0  0  0  0  0  0  0  0  0
   62.2710   33.7860   46.7350 C   0  0  0  0  0  0  0  0  0  0  0  0
   61.1830   32.9760   47.0790 C   0  0  0  0  0  0  0  0  0  0  0  0
   59.9410   33.2770   46.6260 N   0  0  0  0  0  0  0  0  0  0  0  0
   58.4673   35.0340   45.7681 H   0  0  0  0  0  0  0  0  0  0  0  0
   59.1570   34.4267   44.2247 H   0  0  0  0  0  0  0  0  0  0  0  0
   57.5882   35.3015   44.2247 H   0  0  0  0  0  0  0  0  0  0  0  0
   56.9452   32.5726   43.0900 H   0  0  0  0  0  0  0  0  0  0  0  0
   58.7188   32.4251   43.5270 H   0  0  0  0  0  0  0  0  0  0  0  0
   59.5967   30.4972   44.5731 H   0  0  0  0  0  0  0  0  0  0  0  0
   59.2368   28.1799   45.4182 H   0  0  0  0  0  0  0  0  0  0  0  0
   54.7250   27.0850   46.5580 H   0  0  0  0  0  0  0  0  0  0  0  0
   54.9735   28.6225   44.8296 H   0  0  0  0  0  0  0  0  0  0  0  0
   55.3279   30.9450   44.0006 H   0  0  0  0  0  0  0  0  0  0  0  0
   57.0460   33.5576   47.0052 H   0  0  0  0  0  0  0  0  0  0  0  0
   56.9505   31.8562   46.3273 H   0  0  0  0  0  0  0  0  0  0  0  0
   62.8386   30.6173   48.9467 H   0  0  0  0  0  0  0  0  0  0  0  0
   64.7684   32.0691   48.3190 H   0  0  0  0  0  0  0  0  0  0  0  0
   64.4098   34.0927   46.9047 H   0  0  0  0  0  0  0  0  0  0  0  0
   62.1159   34.6815   46.1153 H   0  0  0  0  0  0  0  0  0  0  0  0
  1  2  1  0
  2  3  1  0
  3  4  1  0
  4  5  2  0
  5  6  1  0
  6  7  2  0
  7  8  1  0
  8  9  1  0
  8 10  2  0
  8 11  2  0
  7 12  1  0
 12 13  2  0
  2 14  1  0
 14 15  1  0
 15 16  2  0
 16 17  1  0
 17 18  2  0
 17 19  1  0
 19 20  2  0
 20 21  1  0
 21 22  2  0
 22 23  1  0
 23 24  2  0
 24 25  1  0
 13  4  1  0
 25 15  1  0
 24 19  1  0
  1 26  1  0
  1 27  1  0
  1 28  1  0
  3 29  1  0
  3 30  1  0
  5 31  1  0
  6 32  1  0
  9 33  1  0
 12 34  1  0
 13 35  1  0
 14 36  1  0
 14 37  1  0
 20 38  1  0
 21 39  1  0
 22 40  1  0
 23 41  1  0
M  CHG  2   9  -1  25  -1
M  END
>  <UniqueID>  (2) 
2

>  <SMILES>  (2) 
CN(Cc1ccc(S([NH-])(=O)=O)cc1)Cc1nc(=O)c2ccccc2[n-]1

>  <Energy>  (2) 
51.16057202008517

>  <Genealogy>  (2) 
CN(Cc1ccc(S([NH-])(=O)=O)cc1)Cc1nc(=O)c2ccccc2[n-]1 (protonated)
CN(Cc1ccc(S([NH-])(=O)=O)cc1)Cc1nc(=O)c2ccccc2[n-]1 (3D coordinates assigned)
CN(Cc1ccc(S([NH-])(=O)=O)cc1)Cc1nc(=O)c2ccccc2[n-]1 (optimized conformer: 51.16057202008517 kcal/mol)

>  <smiles>  (2) 
CN(Cc1ccc(S(N)(=O)=O)cc1)Cc1nc(=O)c2ccccc2[nH]1

>  <score_type>  (2) 
oracle

>  <origin>  (2) 
adg

>  <m_score__min__energy>  (2) 
-12.6

>  <m_primary>  (2) 
energy

$$$$
2:0
     RDKit          3D

 40 42  0  0  0  0  0  0  0  0999 V2000
   55.7470   24.7940   45.3570 C   0  0  0  0  0  0  0  0  0  0  0  0
   55.5210   26.1170   45.8290 O   0  0  0  0  0  0  0  0  0  0  0  0
   56.5250   27.0840   45.9900 C   0  0  0  0  0  0  0  0  0  0  0  0
   57.6850   26.8480   46.7480 C   0  0  0  0  0  0  0  0  0  0  0  0
   58.6600   27.8400   46.8810 C   0  0  0  0  0  0  0  0  0  0  0  0
   58.4950   29.0930   46.2580 C   0  0  0  0  0  0  0  0  0  0  0  0
   59.4540   30.1300   46.3640 C   0  0  0  0  0  0  0  0  0  0  0  0
   60.7250   29.9610   47.1570 C   0  0  0  0  0  0  0  0  0  0  0  0
   59.2150   31.3490   45.7130 C   0  0  0  0  0  0  0  0  0  0  0  0
   58.0420   31.5290   44.9770 C   0  0  0  0  0  0  0  0  0  0  0  0
   57.7260   33.0850   44.1480 S   0  0  0  0  0  0  0  0  0  0  0  0
   57.8800   34.0680   45.6810 C   0  0  0  0  0  0  0  0  0  0  0  0
   59.2330   34.7210   45.7940 C   0  0  0  0  0  0  0  0  0  0  0  0
   59.5120   35.6990   45.0470 O   0  0  0  0  0  0  0  0  0  0  0  0
   60.2260   34.2740   46.8060 C   0  0  0  0  0  0  0  0  0  0  0  0
   59.9210   34.2670   48.1830 C   0  0  0  0  0  0  0  0  0  0  0  0
   60.8710   33.8450   49.1180 C   0  0  0  0  0  0  0  0  0  0  0  0
   62.1350   33.4280   48.6960 C   0  0  0  0  0  0  0  0  0  0  0  0
   62.4530   33.4360   47.3370 C   0  0  0  0  0  0  0  0  0  0  0  0
   61.5080   33.8570   46.3970 C   0  0  0  0  0  0  0  0  0  0  0  0
   57.1350   30.5230   44.8830 N   0  0  0  0  0  0  0  0  0  0  0  0
   57.3250   29.3260   45.4960 C   0  0  0  0  0  0  0  0  0  0  0  0
   56.3550   28.3250   45.3690 C   0  0  0  0  0  0  0  0  0  0  0  0
   55.8632   24.1139   46.2137 H   0  0  0  0  0  0  0  0  0  0  0  0
   54.8910   24.4714   44.7462 H   0  0  0  0  0  0  0  0  0  0  0  0
   56.6616   24.7738   44.7462 H   0  0  0  0  0  0  0  0  0  0  0  0
   57.8263   25.8746   47.2404 H   0  0  0  0  0  0  0  0  0  0  0  0
   59.5632   27.6413   47.4766 H   0  0  0  0  0  0  0  0  0  0  0  0
   60.4934   29.9918   48.2319 H   0  0  0  0  0  0  0  0  0  0  0  0
   61.1861   28.9936   46.9089 H   0  0  0  0  0  0  0  0  0  0  0  0
   61.4229   30.7743   46.9089 H   0  0  0  0  0  0  0  0  0  0  0  0
   59.9514   32.1632   45.7822 H   0  0  0  0  0  0  0  0  0  0  0  0
   57.1062   34.8498   45.6817 H   0  0  0  0  0  0  0  0  0  0  0  0
   57.7562   33.3881   46.5368 H   0  0  0  0  0  0  0  0  0  0  0  0
   58.9283   34.5960   48.5239 H   0  0  0  0  0  0  0  0  0  0  0  0
   60.6219   33.8415   50.1894 H   0  0  0  0  0  0  0  0  0  0  0  0
   62.8793   33.0936   49.4337 H   0  0  0  0  0  0  0  0  0  0  0  0
   63.4498   33.1102   47.0049 H   0  0  0  0  0  0  0  0  0  0  0  0
   61.7677   33.8628   45.3281 H   0  0  0  0  0  0  0  0  0  0  0  0
   55.4496   28.5167   44.7745 H   0  0  0  0  0  0  0  0  0  0  0  0
  1  2  1  0
  2  3  1  0
  3  4  2  0
  4  5  1  0
  5  6  2  0
  6  7  1  0
  7  8  1  0
  7  9  2  0
  9 10  1  0
 10 11  1  0
 11 12  1  0
 12 13  1  0
 13 14  2  0
 13 15  1  0
 15 16  2  0
 16 17  1  0
 17 18  2  0
 18 19  1  0
 19 20  2  0
 10 21  2  0
 21 22  1  0
 22 23  2  0
 23  3  1  0
 22  6  1  0
 20 15  1  0
  1 24  1  0
  1 25  1  0
  1 26  1  0
  4 27  1  0
  5 28  1  0
  8 29  1  0
  8 30  1  0
  8 31  1  0
  9 32  1  0
 12 33  1  0
 12 34  1  0
 16 35  1  0
 17 36  1  0
 18 37  1  0
 19 38  1  0
 20 39  1  0
 23 40  1  0
M  END
>  <UniqueID>  (3) 
3

>  <SMILES>  (3) 
COc1ccc2c(C)cc(SCC(=O)c3ccccc3)nc2c1

>  <Energy>  (3) 
44.696173272721374

>  <Genealogy>  (3) 
COc1ccc2c(C)cc(SCC(=O)c3ccccc3)nc2c1 (3D coordinates assigned)
COc1ccc2c(C)cc(SCC(=O)c3ccccc3)nc2c1 (optimized conformer: 44.696173272721374 kcal/mol)

>  <smiles>  (3) 
COc1ccc2c(C)cc(SCC(=O)c3ccccc3)nc2c1

>  <score_type>  (3) 
oracle

>  <origin>  (3) 
adg

>  <m_score__min__energy>  (3) 
-8.0600000000000005

>  <m_primary>  (3) 
energy

$$$$
3:0
     RDKit          3D

 30 31  0  0  0  0  0  0  0  0999 V2000
   59.1860   34.9450   45.1490 C   0  0  0  0  0  0  0  0  0  0  0  0
   59.0290   33.6010   45.7160 N   0  0  0  0  0  0  0  0  0  0  0  0
   59.5560   33.3440   47.0670 C   0  0  0  0  0  0  0  0  0  0  0  0
   61.0420   33.0630   47.0500 C   0  0  0  0  0  0  0  0  0  0  0  0
   61.5150   31.8190   47.4920 C   0  0  0  0  0  0  0  0  0  0  0  0
   62.8890   31.5680   47.5150 C   0  0  0  0  0  0  0  0  0  0  0  0
   63.7670   32.5300   47.1230 N   0  0  0  0  0  0  0  0  0  0  0  0
   63.3380   33.7510   46.7060 C   0  0  0  0  0  0  0  0  0  0  0  0
   61.9730   34.0430   46.6680 C   0  0  0  0  0  0  0  0  0  0  0  0
   58.3810   32.5560   44.9480 C   0  0  0  0  0  0  0  0  0  0  0  0
   58.1380   32.7160   43.5680 C   0  0  0  0  0  0  0  0  0  0  0  0
   57.5200   31.7010   42.8320 C   0  0  0  0  0  0  0  0  0  0  0  0
   57.1380   30.5130   43.4580 C   0  0  0  0  0  0  0  0  0  0  0  0
   57.3740   30.3370   44.8210 C   0  0  0  0  0  0  0  0  0  0  0  0
   57.9920   31.3480   45.5640 C   0  0  0  0  0  0  0  0  0  0  0  0
   59.2717   35.6790   45.9638 H   0  0  0  0  0  0  0  0  0  0  0  0
   60.0941   34.9776   44.5290 H   0  0  0  0  0  0  0  0  0  0  0  0
   58.3099   35.1861   44.5290 H   0  0  0  0  0  0  0  0  0  0  0  0
   59.3685   34.2270   47.6956 H   0  0  0  0  0  0  0  0  0  0  0  0
   59.0462   32.4556   47.4679 H   0  0  0  0  0  0  0  0  0  0  0  0
   60.8067   31.0437   47.8194 H   0  0  0  0  0  0  0  0  0  0  0  0
   63.2620   30.5893   47.8512 H   0  0  0  0  0  0  0  0  0  0  0  0
   64.7910   32.3280   47.1460 H   0  0  0  0  0  0  0  0  0  0  0  0
   64.0695   34.5122   46.3972 H   0  0  0  0  0  0  0  0  0  0  0  0
   61.6287   35.0351   46.3407 H   0  0  0  0  0  0  0  0  0  0  0  0
   58.4375   33.6480   43.0663 H   0  0  0  0  0  0  0  0  0  0  0  0
   57.3341   31.8387   41.7566 H   0  0  0  0  0  0  0  0  0  0  0  0
   56.6512   29.7163   42.8764 H   0  0  0  0  0  0  0  0  0  0  0  0
   57.0733   29.4004   45.3132 H   0  0  0  0  0  0  0  0  0  0  0  0
   58.1764   31.1999   46.6383 H   0  0  0  0  0  0  0  0  0  0  0  0
  1  2  1  0
  2  3  1  0
  3  4  1  0
  4  5  2  0
  5  6  1  0
  6  7  2  0
  7  8  1  0
  8  9  2  0
  2 10  1  0
 10 11  2  0
 11 12  1  0
 12 13  2  0
 13 14  1  0
 14 15  2  0
  9  4  1  0
 15 10  1  0
  1 16  1  0
  1 17  1  0
  1 18  1  0
  3 19  1  0
  3 20  1  0
  5 21  1  0
  6 22  1  0
  7 23  1  0
  8 24  1  0
  9 25  1  0
 11 26  1  0
 12 27  1  0
 13 28  1  0
 14 29  1  0
 15 30  1  0
M  CHG  1   7   1
M  END
>  <UniqueID>  (4) 
4

>  <SMILES>  (4) 
CN(Cc1cc[nH+]cc1)c1ccccc1

>  <Energy>  (4) 
33.498960730992025

>  <Genealogy>  (4) 
CN(Cc1cc[nH+]cc1)c1ccccc1 (protonated)
CN(Cc1cc[nH+]cc1)c1ccccc1 (3D coordinates assigned)
CN(Cc1cc[nH+]cc1)c1ccccc1 (optimized conformer: 33.498960730992025 kcal/mol)

>  <smiles>  (4) 
CN(Cc1ccncc1)c1ccccc1

>  <score_type>  (4) 
oracle

>  <origin>  (4) 
adg

>  <m_score__min__energy>  (4) 
-4.6699999999999999

>  <m_primary>  (4) 
energy

$$$$
4:0
     RDKit          3D

 40 42  0  0  0  0  0  0  0  0999 V2000
   59.0220   29.7150   49.4000 C   0  0  0  0  0  0  0  0  0  0  0  0
   60.1480   29.1350   48.5470 C   0  0  0  0  0  0  0  0  0  0  0  0
   60.8310   30.2040   47.6800 C   0  0  0  0  0  0  0  0  0  0  0  0
   59.8820   30.8230   46.7300 N   0  0  0  0  0  0  0  0  0  0  0  0
   59.0040   29.9880   46.0950 C   0  0  0  0  0  0  0  0  0  0  0  0
   58.0480   30.4730   45.2010 C   0  0  0  0  0  0  0  0  0  0  0  0
   56.9010   29.3540   44.4580 S   0  0  0  0  0  0  0  0  0  0  0  0
   56.9830   29.4340   42.9590 O   0  0  0  0  0  0  0  0  0  0  0  0
   55.5010   29.7160   44.8710 O   0  0  0  0  0  0  0  0  0  0  0  0
   57.2970   27.7190   44.9750 C   0  0  0  0  0  0  0  0  0  0  0  0
   57.0970   27.3490   46.3120 C   0  0  0  0  0  0  0  0  0  0  0  0
   57.3900   26.0480   46.7330 C   0  0  0  0  0  0  0  0  0  0  0  0
   57.8820   25.1110   45.8200 C   0  0  0  0  0  0  0  0  0  0  0  0
   58.1640   23.8500   46.2280 F   0  0  0  0  0  0  0  0  0  0  0  0
   58.0790   25.4750   44.4840 C   0  0  0  0  0  0  0  0  0  0  0  0
   57.7860   26.7750   44.0600 C   0  0  0  0  0  0  0  0  0  0  0  0
   57.9740   31.8480   44.9590 C   0  0  0  0  0  0  0  0  0  0  0  0
   57.0960   32.3000   44.1720 O   0  0  0  0  0  0  0  0  0  0  0  0
   58.8720   32.7180   45.5990 C   0  0  0  0  0  0  0  0  0  0  0  0
   58.8200   34.1070   45.3630 C   0  0  0  0  0  0  0  0  0  0  0  0
   59.7050   34.9680   46.0070 C   0  0  0  0  0  0  0  0  0  0  0  0
   59.6460   36.3020   45.7730 F   0  0  0  0  0  0  0  0  0  0  0  0
   60.6500   34.4610   46.8940 C   0  0  0  0  0  0  0  0  0  0  0  0
   60.7190   33.0890   47.1440 C   0  0  0  0  0  0  0  0  0  0  0  0
   59.8360   32.1870   46.5020 C   0  0  0  0  0  0  0  0  0  0  0  0
   59.2666   29.5890   50.4650 H   0  0  0  0  0  0  0  0  0  0  0  0
   58.9054   30.7854   49.1747 H   0  0  0  0  0  0  0  0  0  0  0  0
   58.0828   29.1885   49.1747 H   0  0  0  0  0  0  0  0  0  0  0  0
   60.9000   28.6850   49.2119 H   0  0  0  0  0  0  0  0  0  0  0  0
   59.7083   28.3850   47.8731 H   0  0  0  0  0  0  0  0  0  0  0  0
   61.2413   30.9864   48.3354 H   0  0  0  0  0  0  0  0  0  0  0  0
   61.6297   29.7179   47.1005 H   0  0  0  0  0  0  0  0  0  0  0  0
   59.0526   28.9072   46.2939 H   0  0  0  0  0  0  0  0  0  0  0  0
   56.7085   28.0841   47.0322 H   0  0  0  0  0  0  0  0  0  0  0  0
   57.2331   25.7619   47.7835 H   0  0  0  0  0  0  0  0  0  0  0  0
   58.4652   24.7372   43.7653 H   0  0  0  0  0  0  0  0  0  0  0  0
   57.9391   27.0575   43.0080 H   0  0  0  0  0  0  0  0  0  0  0  0
   58.0742   34.5140   44.6644 H   0  0  0  0  0  0  0  0  0  0  0  0
   61.3465   35.1450   47.4010 H   0  0  0  0  0  0  0  0  0  0  0  0
   61.4697   32.7034   47.8495 H   0  0  0  0  0  0  0  0  0  0  0  0
  1  2  1  0
  2  3  1  0
  3  4  1  0
  4  5  1  0
  5  6  2  0
  6  7  1  0
  7  8  2  0
  7  9  2  0
  7 10  1  0
 10 11  2  0
 11 12  1  0
 12 13  2  0
 13 14  1  0
 13 15  1  0
 15 16  2  0
  6 17  1  0
 17 18  2  0
 17 19  1  0
 19 20  2  0
 20 21  1  0
 21 22  1  0
 21 23  2  0
 23 24  1  0
 24 25  2  0
 25  4  1  0
 16 10  1  0
 25 19  1  0
  1 26  1  0
  1 27  1  0
  1 28  1  0
  2 29  1  0
  2 30  1  0
  3 31  1  0
  3 32  1  0
  5 33  1  0
 11 34  1  0
 12 35  1  0
 15 36  1  0
 16 37  1  0
 20 38  1  0
 23 39  1  0
 24 40  1  0
M  END
>  <UniqueID>  (5) 
5

>  <SMILES>  (5) 
CCCn1cc(S(=O)(=O)c2ccc(F)cc2)c(=O)c2cc(F)ccc21

>  <Energy>  (5) 
50.10172918598307

>  <Genealogy>  (5) 
CCCn1cc(S(=O)(=O)c2ccc(F)cc2)c(=O)c2cc(F)ccc21 (3D coordinates assigned)
CCCn1cc(S(=O)(=O)c2ccc(F)cc2)c(=O)c2cc(F)ccc21 (optimized conformer: 50.10172918598307 kcal/mol)

>  <smiles>  (5) 
CCCn1cc(S(=O)(=O)c2ccc(F)cc2)c(=O)c2cc(F)ccc21

>  <score_type>  (5) 
oracle

>  <origin>  (5) 
adg

>  <m_score__min__energy>  (5) 
-8.0199999999999996

>  <m_primary>  (5) 
energy

$$$$
5:0
     RDKit          3D

 60 64  0  0  0  0  0  0  0  0999 V2000
   63.6530   31.2830   50.9170 C   0  0  0  0  0  0  0  0  0  0  0  0
   62.3670   32.0390   50.7710 C   0  0  0  0  0  0  0  0  0  0  0  0
   61.2970   31.8100   51.5830 N   0  0  0  0  0  0  0  0  0  0  0  0
   60.2400   32.6080   51.2990 C   0  0  0  0  0  0  0  0  0  0  0  0
   58.9740   32.5880   52.0600 C   0  0  0  0  0  0  0  0  0  0  0  0
   58.6740   33.5850   52.7670 O   0  0  0  0  0  0  0  0  0  0  0  0
   58.0730   31.4690   52.0050 N   0  0  0  0  0  0  0  0  0  0  0  0
   56.6470   31.6930   51.7570 C   0  0  0  0  0  0  0  0  0  0  0  0
   55.8140   30.6720   52.5410 C   0  0  0  0  0  0  0  0  0  0  0  0
   56.2700   29.3530   52.2990 O   0  0  0  0  0  0  0  0  0  0  0  0
   57.5880   29.2020   52.7960 C   0  0  0  0  0  0  0  0  0  0  0  0
   58.5640   30.0880   52.0150 C   0  0  0  0  0  0  0  0  0  0  0  0
   60.6150   33.6650   50.0420 S   0  0  0  0  0  0  0  0  0  0  0  0
   62.1730   33.0630   49.8410 C   0  0  0  0  0  0  0  0  0  0  0  0
   63.1530   33.5470   48.8140 C   0  0  0  0  0  0  0  0  0  0  0  0
   63.0240   32.7570   47.5710 N   0  0  0  0  0  0  0  0  0  0  0  0
   62.0490   31.6370   47.6850 C   0  0  0  0  0  0  0  0  0  0  0  0
   60.7470   31.8490   46.8830 C   0  0  0  0  0  0  0  0  0  0  0  0
   60.3050   33.3170   46.9510 C   0  0  0  0  0  0  0  0  0  0  0  0
   58.9160   33.5490   46.3160 C   0  0  0  0  0  0  0  0  0  0  0  0
   58.3060   32.3120   45.8220 N   0  0  0  0  0  0  0  0  0  0  0  0
   57.9690   31.2810   46.5930 N   0  0  0  0  0  0  0  0  0  0  0  0
   57.4070   30.3090   45.8760 N   0  0  0  0  0  0  0  0  0  0  0  0
   57.3870   30.7580   44.6070 C   0  0  0  0  0  0  0  0  0  0  0  0
   56.8950   30.1290   43.4680 C   0  0  0  0  0  0  0  0  0  0  0  0
   56.9820   30.8320   42.2490 C   0  0  0  0  0  0  0  0  0  0  0  0
   57.5520   32.1270   42.2070 C   0  0  0  0  0  0  0  0  0  0  0  0
   58.0410   32.7320   43.3830 C   0  0  0  0  0  0  0  0  0  0  0  0
   57.9390   32.0010   44.5680 C   0  0  0  0  0  0  0  0  0  0  0  0
   61.3960   34.2520   46.3750 C   0  0  0  0  0  0  0  0  0  0  0  0
   62.8000   33.6130   46.3870 C   0  0  0  0  0  0  0  0  0  0  0  0
   63.8805   31.1493   51.9849 H   0  0  0  0  0  0  0  0  0  0  0  0
   63.5560   30.2982   50.4366 H   0  0  0  0  0  0  0  0  0  0  0  0
   64.4663   31.8467   50.4366 H   0  0  0  0  0  0  0  0  0  0  0  0
   61.2920   31.0930   52.3430 H   0  0  0  0  0  0  0  0  0  0  0  0
   56.3760   32.7092   52.0793 H   0  0  0  0  0  0  0  0  0  0  0  0
   56.4439   31.5771   50.6822 H   0  0  0  0  0  0  0  0  0  0  0  0
   55.8965   30.8897   53.6161 H   0  0  0  0  0  0  0  0  0  0  0  0
   54.7669   30.7470   52.2123 H   0  0  0  0  0  0  0  0  0  0  0  0
   57.6091   29.4894   53.8576 H   0  0  0  0  0  0  0  0  0  0  0  0
   57.8924   28.1513   52.6800 H   0  0  0  0  0  0  0  0  0  0  0  0
   59.5533   30.0545   52.4948 H   0  0  0  0  0  0  0  0  0  0  0  0
   58.6440   29.7209   50.9812 H   0  0  0  0  0  0  0  0  0  0  0  0
   62.9543   34.6062   48.5933 H   0  0  0  0  0  0  0  0  0  0  0  0
   64.1730   33.4298   49.2088 H   0  0  0  0  0  0  0  0  0  0  0  0
   62.5334   30.7192   47.3205 H   0  0  0  0  0  0  0  0  0  0  0  0
   61.7614   31.5742   48.7449 H   0  0  0  0  0  0  0  0  0  0  0  0
   60.9199   31.5716   45.8327 H   0  0  0  0  0  0  0  0  0  0  0  0
   59.9561   31.2196   47.3170 H   0  0  0  0  0  0  0  0  0  0  0  0
   60.1848   33.5768   48.0131 H   0  0  0  0  0  0  0  0  0  0  0  0
   58.2520   33.9905   47.0738 H   0  0  0  0  0  0  0  0  0  0  0  0
   59.0525   34.2191   45.4544 H   0  0  0  0  0  0  0  0  0  0  0  0
   56.4550   29.1220   43.5165 H   0  0  0  0  0  0  0  0  0  0  0  0
   56.6044   30.3711   41.3244 H   0  0  0  0  0  0  0  0  0  0  0  0
   57.6139   32.6654   41.2498 H   0  0  0  0  0  0  0  0  0  0  0  0
   58.4846   33.7385   43.3674 H   0  0  0  0  0  0  0  0  0  0  0  0
   61.1324   34.5013   45.3365 H   0  0  0  0  0  0  0  0  0  0  0  0
   61.4347   35.1472   47.0130 H   0  0  0  0  0  0  0  0  0  0  0  0
   62.9157   32.9993   45.4815 H   0  0  0  0  0  0  0  0  0  0  0  0
   63.5373   34.4286   46.4208 H   0  0  0  0  0  0  0  0  0  0  0  0
  1  2  1  0
  2  3  1  0
  3  4  2  0
  4  5  1  0
  5  6  2  0
  5  7  1  0
  7  8  1  0
  8  9  1  0
  9 10  1  0
 10 11  1  0
 11 12  1  0
  4 13  1  0
 13 14  1  0
 14 15  1  0
 15 16  1  0
 16 17  1  0
 17 18  1  0
 18 19  1  0
 19 20  1  0
 20 21  1  0
 21 22  1  0
 22 23  2  0
 23 24  1  0
 24 25  2  0
 25 26  1  0
 26 27  2  0
 27 28  1  0
 28 29  2  0
 19 30  1  0
 30 31  1  0
 14  2  2  0
 31 16  1  0
 12  7  1  0
 29 21  1  0
 29 24  1  0
  1 32  1  0
  1 33  1  0
  1 34  1  0
  3 35  1  0
  8 36  1  0
  8 37  1  0
  9 38  1  0
  9 39  1  0
 11 40  1  0
 11 41  1  0
 12 42  1  0
 12 43  1  0
 15 44  1  0
 15 45  1  0
 17 46  1  0
 17 47  1  0
 18 48  1  0
 18 49  1  0
 19 50  1  0
 20 51  1  0
 20 52  1  0
 25 53  1  0
 26 54  1  0
 27 55  1  0
 28 56  1  0
 30 57  1  0
 30 58  1  0
 31 59  1  0
 31 60  1  0
M  CHG  1   3   1
M  END
>  <UniqueID>  (6) 
6

>  <SMILES>  (6) 
Cc1[nH+]c(C(=O)N2CCOCC2)sc1CN1CCC(Cn2nnc3ccccc32)CC1

>  <Energy>  (6) 
148.42160271046478

>  <Genealogy>  (6) 
Cc1[nH+]c(C(=O)N2CCOCC2)sc1CN1CCC(Cn2nnc3ccccc32)CC1 (protonated)
Cc1[nH+]c(C(=O)N2CCOCC2)sc1CN1CCC(Cn2nnc3ccccc32)CC1 (3D coordinates assigned)
Cc1[nH+]c(C(=O)N2CCOCC2)sc1CN1CCC(Cn2nnc3ccccc32)CC1 (nonaromatic ring conformer: 148.42160271046478 kcal/mol)

>  <smiles>  (6) 
Cc1nc(C(=O)N2CCOCC2)sc1CN1CCC(Cn2nnc3ccccc32)CC1

>  <score_type>  (6) 
oracle

>  <origin>  (6) 
adg

>  <m_score__min__energy>  (6) 
-9.1899999999999995

>  <m_primary>  (6) 
energy

$$$$
6:0
     RDKit          3D

 70 71  0  0  0  0  0  0  0  0999 V2000
   62.5640   34.1440   49.9280 C   0  0  0  0  0  0  0  0  0  0  0  0
   63.7310   33.1870   49.6890 C   0  0  0  0  0  0  0  0  0  0  0  0
   63.2840   31.8040   49.1820 C   0  0  0  0  0  0  0  0  0  0  0  0
   63.1430   31.6850   47.6540 C   0  0  0  0  0  0  0  0  0  0  0  0
   63.6980   32.9080   46.9050 C   0  0  0  0  0  0  0  0  0  0  0  0
   62.5930   33.8540   46.4000 C   0  0  0  0  0  0  0  0  0  0  0  0
   61.1530   33.4400   46.7700 C   0  0  0  0  0  0  0  0  0  0  0  0
   60.1430   34.6000   46.8610 C   0  0  0  0  0  0  0  0  0  0  0  0
   59.0230   34.5700   45.8030 C   0  0  0  0  0  0  0  0  0  0  0  0
   58.2930   33.2190   45.6660 C   0  0  0  0  0  0  0  0  0  0  0  0
   57.4180   33.0760   44.4050 C   0  0  0  0  0  0  0  0  0  0  0  0
   58.0200   32.1900   43.2950 C   0  0  0  0  0  0  0  0  0  0  0  0
   57.0300   31.2120   42.6320 C   0  0  0  0  0  0  0  0  0  0  0  0
   56.5360   30.0620   43.5330 C   0  0  0  0  0  0  0  0  0  0  0  0
   57.3750   28.8560   43.4060 N   0  0  0  0  0  0  0  0  0  0  0  0
   58.3470   28.7240   44.5180 C   0  0  2  0  0  0  0  0  0  0  0  0
   58.1100   27.4020   45.2680 C   0  0  0  0  0  0  0  0  0  0  0  0
   59.1980   27.1720   46.3170 C   0  0  0  0  0  0  0  0  0  0  0  0
   59.4200   28.3730   47.2160 C   0  0  0  0  0  0  0  0  0  0  0  0
   60.1300   28.2310   48.4370 C   0  0  0  0  0  0  0  0  0  0  0  0
   60.6310   26.8900   48.9070 C   0  0  0  0  0  0  0  0  0  0  0  0
   60.3510   29.3560   49.2460 C   0  0  0  0  0  0  0  0  0  0  0  0
   59.9090   30.6150   48.8470 C   0  0  0  0  0  0  0  0  0  0  0  0
   59.2430   30.7710   47.6340 C   0  0  0  0  0  0  0  0  0  0  0  0
   59.0080   29.6660   46.8010 C   0  0  0  0  0  0  0  0  0  0  0  0
   58.2330   29.8930   45.5210 C   0  0  0  0  0  0  0  0  0  0  0  0
   62.4094   34.2708   51.0097 H   0  0  0  0  0  0  0  0  0  0  0  0
   62.7908   35.1196   49.4732 H   0  0  0  0  0  0  0  0  0  0  0  0
   61.6517   33.7306   49.4732 H   0  0  0  0  0  0  0  0  0  0  0  0
   64.4025   33.6338   48.9410 H   0  0  0  0  0  0  0  0  0  0  0  0
   64.2337   33.0351   50.6555 H   0  0  0  0  0  0  0  0  0  0  0  0
   64.0254   31.0627   49.5149 H   0  0  0  0  0  0  0  0  0  0  0  0
   62.2796   31.6346   49.5972 H   0  0  0  0  0  0  0  0  0  0  0  0
   63.6895   30.7908   47.3196 H   0  0  0  0  0  0  0  0  0  0  0  0
   62.0691   31.6174   47.4258 H   0  0  0  0  0  0  0  0  0  0  0  0
   64.3553   33.4682   47.5863 H   0  0  0  0  0  0  0  0  0  0  0  0
   64.2423   32.5365   46.0242 H   0  0  0  0  0  0  0  0  0  0  0  0
   62.7796   34.8518   46.8237 H   0  0  0  0  0  0  0  0  0  0  0  0
   62.6458   33.8258   45.3016 H   0  0  0  0  0  0  0  0  0  0  0  0
   60.7941   32.7347   46.0060 H   0  0  0  0  0  0  0  0  0  0  0  0
   61.2091   33.0026   47.7777 H   0  0  0  0  0  0  0  0  0  0  0  0
   59.6743   34.5677   47.8556 H   0  0  0  0  0  0  0  0  0  0  0  0
   60.7149   35.5218   46.6786 H   0  0  0  0  0  0  0  0  0  0  0  0
   58.2790   35.3343   46.0718 H   0  0  0  0  0  0  0  0  0  0  0  0
   59.5097   34.7564   44.8343 H   0  0  0  0  0  0  0  0  0  0  0  0
   59.0509   32.4220   45.6476 H   0  0  0  0  0  0  0  0  0  0  0  0
   57.6085   33.1511   46.5244 H   0  0  0  0  0  0  0  0  0  0  0  0
   56.4539   32.6397   44.7055 H   0  0  0  0  0  0  0  0  0  0  0  0
   57.3243   34.0854   43.9779 H   0  0  0  0  0  0  0  0  0  0  0  0
   58.4229   32.8501   42.5127 H   0  0  0  0  0  0  0  0  0  0  0  0
   58.7869   31.5685   43.7804 H   0  0  0  0  0  0  0  0  0  0  0  0
   56.1520   31.7877   42.3038 H   0  0  0  0  0  0  0  0  0  0  0  0
   57.5794   30.7366   41.8061 H   0  0  0  0  0  0  0  0  0  0  0  0
   56.5556   30.3987   44.5800 H   0  0  0  0  0  0  0  0  0  0  0  0
   55.5159   29.7989   43.2165 H   0  0  0  0  0  0  0  0  0  0  0  0
   56.7680   28.0030   43.3560 H   0  0  0  0  0  0  0  0  0  0  0  0
   57.9100   28.9290   42.5110 H   0  0  0  0  0  0  0  0  0  0  0  0
   59.3544   28.7394   44.0766 H   0  0  0  0  0  0  0  0  0  0  0  0
   57.1303   27.4406   45.7667 H   0  0  0  0  0  0  0  0  0  0  0  0
   58.1377   26.5749   44.5433 H   0  0  0  0  0  0  0  0  0  0  0  0
   58.9060   26.3156   46.9425 H   0  0  0  0  0  0  0  0  0  0  0  0
   60.1391   26.9864   45.7786 H   0  0  0  0  0  0  0  0  0  0  0  0
   60.6397   26.8667   50.0067 H   0  0  0  0  0  0  0  0  0  0  0  0
   59.9682   26.0978   48.5287 H   0  0  0  0  0  0  0  0  0  0  0  0
   61.6509   26.7265   48.5287 H   0  0  0  0  0  0  0  0  0  0  0  0
   60.8784   29.2424   50.2046 H   0  0  0  0  0  0  0  0  0  0  0  0
   60.0864   31.4884   49.4917 H   0  0  0  0  0  0  0  0  0  0  0  0
   58.8980   31.7690   47.3259 H   0  0  0  0  0  0  0  0  0  0  0  0
   57.1719   30.0312   45.7759 H   0  0  0  0  0  0  0  0  0  0  0  0
   58.6634   30.7807   45.0345 H   0  0  0  0  0  0  0  0  0  0  0  0
  1  2  1  0
  2  3  1  0
  3  4  1  0
  4  5  1  0
  5  6  1  0
  6  7  1  0
  7  8  1  0
  8  9  1  0
  9 10  1  0
 10 11  1  0
 11 12  1  0
 12 13  1  0
 13 14  1  0
 14 15  1  0
 15 16  1  0
 16 17  1  0
 17 18  1  0
 18 19  1  0
 19 20  2  0
 20 21  1  0
 20 22  1  0
 22 23  2  0
 23 24  1  0
 24 25  2  0
 25 26  1  0
 26 16  1  0
 25 19  1  0
  1 27  1  0
  1 28  1  0
  1 29  1  0
  2 30  1  0
  2 31  1  0
  3 32  1  0
  3 33  1  0
  4 34  1  0
  4 35  1  0
  5 36  1  0
  5 37  1  0
  6 38  1  0
  6 39  1  0
  7 40  1  0
  7 41  1  0
  8 42  1  0
  8 43  1  0
  9 44  1  0
  9 45  1  0
 10 46  1  0
 10 47  1  0
 11 48  1  0
 11 49  1  0
 12 50  1  0
 12 51  1  0
 13 52  1  0
 13 53  1  0
 14 54  1  0
 14 55  1  0
 15 56  1  0
 15 57  1  0
 16 58  1  6
 17 59  1  0
 17 60  1  0
 18 61  1  0
 18 62  1  0
 21 63  1  0
 21 64  1  0
 21 65  1  0
 22 66  1  0
 23 67  1  0
 24 68  1  0
 26 69  1  0
 26 70  1  0
M  CHG  1  15   1
M  END
>  <UniqueID>  (7) 
7

>  <SMILES>  (7) 
CCCCCCCCCCCCCC[NH2+][C@@H]1CCc2c(C)cccc2C1

>  <Energy>  (7) 
54.25777447192809

>  <Genealogy>  (7) 
CCCCCCCCCCCCCC[NH2+]C1CCc2c(C)cccc2C1 (protonated)
CCCCCCCCCCCCCC[NH2+][C@@H]1CCc2c(C)cccc2C1 (chirality)
CCCCCCCCCCCCCC[NH2+][C@@H]1CCc2c(C)cccc2C1 (3D coordinates assigned)
CCCCCCCCCCCCCC[NH2+][C@@H]1CCc2c(C)cccc2C1 (nonaromatic ring conformer: 54.25777447192809 kcal/mol)

>  <smiles>  (7) 
CCCCCCCCCCCCCCNC1CCc2c(C)cccc2C1

>  <score_type>  (7) 
oracle

>  <origin>  (7) 
adg

>  <m_score__min__energy>  (7) 
-6.6600000000000001

>  <m_primary>  (7) 
energy

$$$$
7:0
     RDKit          3D

 34 37  0  0  0  0  0  0  0  0999 V2000
   55.1670   26.7010   45.9900 O   0  0  0  0  0  0  0  0  0  0  0  0
   55.8260   25.6350   46.1080 C   0  0  0  0  0  0  0  0  0  0  0  0
   55.1530   24.4510   46.3780 O   0  0  0  0  0  0  0  0  0  0  0  0
   57.2980   25.6500   45.9920 C   0  0  0  0  0  0  0  0  0  0  0  0
   58.1320   24.6730   45.4300 C   0  0  0  0  0  0  0  0  0  0  0  0
   57.7300   23.4610   44.6900 C   0  0  0  0  0  0  0  0  0  0  0  0
   56.6980   23.5310   43.7450 C   0  0  0  0  0  0  0  0  0  0  0  0
   56.2920   22.3810   43.0670 C   0  0  0  0  0  0  0  0  0  0  0  0
   56.9100   21.1630   43.3560 C   0  0  0  0  0  0  0  0  0  0  0  0
   57.8940   21.1010   44.2930 N   0  0  0  0  0  0  0  0  0  0  0  0
   58.3060   22.2100   44.9650 C   0  0  0  0  0  0  0  0  0  0  0  0
   59.3990   24.9870   45.6330 O   0  0  0  0  0  0  0  0  0  0  0  0
   59.4340   26.1230   46.2830 C   0  0  0  0  0  0  0  0  0  0  0  0
   60.5630   26.8140   46.7070 C   0  0  0  0  0  0  0  0  0  0  0  0
   60.3760   28.0130   47.4160 C   0  0  0  0  0  0  0  0  0  0  0  0
   59.0700   28.5020   47.6930 C   0  0  0  0  0  0  0  0  0  0  0  0
   58.8940   29.7680   48.4520 C   0  0  0  0  0  0  0  0  0  0  0  0
   59.0030   31.0660   47.9540 C   0  0  0  0  0  0  0  0  0  0  0  0
   58.7830   32.0580   48.9190 C   0  0  0  0  0  0  0  0  0  0  0  0
   58.5000   31.5590   50.1820 C   0  0  0  0  0  0  0  0  0  0  0  0
   58.5260   29.8830   50.0940 S   0  0  0  0  0  0  0  0  0  0  0  0
   57.9470   27.7630   47.2440 C   0  0  0  0  0  0  0  0  0  0  0  0
   58.1700   26.5840   46.5290 C   0  0  0  0  0  0  0  0  0  0  0  0
   56.2074   24.4934   43.5374 H   0  0  0  0  0  0  0  0  0  0  0  0
   55.4932   22.4336   42.3126 H   0  0  0  0  0  0  0  0  0  0  0  0
   56.6003   20.2510   42.8245 H   0  0  0  0  0  0  0  0  0  0  0  0
   58.3370   20.1800   44.5090 H   0  0  0  0  0  0  0  0  0  0  0  0
   59.0943   22.1263   45.7276 H   0  0  0  0  0  0  0  0  0  0  0  0
   61.5729   26.4337   46.4940 H   0  0  0  0  0  0  0  0  0  0  0  0
   61.2523   28.5811   47.7615 H   0  0  0  0  0  0  0  0  0  0  0  0
   59.2393   31.2899   46.9033 H   0  0  0  0  0  0  0  0  0  0  0  0
   58.8304   33.1340   48.6954 H   0  0  0  0  0  0  0  0  0  0  0  0
   58.2947   32.1564   51.0825 H   0  0  0  0  0  0  0  0  0  0  0  0
   56.9243   28.1097   47.4536 H   0  0  0  0  0  0  0  0  0  0  0  0
  1  2  2  0
  2  3  1  0
  2  4  1  0
  4  5  2  0
  5  6  1  0
  6  7  2  0
  7  8  1  0
  8  9  2  0
  9 10  1  0
 10 11  2  0
  5 12  1  0
 12 13  1  0
 13 14  2  0
 14 15  1  0
 15 16  2  0
 16 17  1  0
 17 18  2  0
 18 19  1  0
 19 20  2  0
 20 21  1  0
 16 22  1  0
 22 23  2  0
 23  4  1  0
 11  6  1  0
 23 13  1  0
 21 17  1  0
  7 24  1  0
  8 25  1  0
  9 26  1  0
 10 27  1  0
 11 28  1  0
 14 29  1  0
 15 30  1  0
 18 31  1  0
 19 32  1  0
 20 33  1  0
 22 34  1  0
M  CHG  2   3  -1  10   1
M  END
>  <UniqueID>  (8) 
8

>  <SMILES>  (8) 
O=C([O-])c1c(-c2ccc[nH+]c2)oc2ccc(-c3cccs3)cc12

>  <Energy>  (8) 
107.91539601401158

>  <Genealogy>  (8) 
O=C([O-])c1c(-c2ccc[nH+]c2)oc2ccc(-c3cccs3)cc12 (protonated)
O=C([O-])c1c(-c2ccc[nH+]c2)oc2ccc(-c3cccs3)cc12 (3D coordinates assigned)
O=C([O-])c1c(-c2ccc[nH+]c2)oc2ccc(-c3cccs3)cc12 (optimized conformer: 107.91539601401158 kcal/mol)

>  <smiles>  (8) 
O=C(O)c1c(-c2cccnc2)oc2ccc(-c3cccs3)cc12

>  <score_type>  (8) 
oracle

>  <origin>  (8) 
adg

>  <m_score__min__energy>  (8) 
-9.5199999999999996

>  <m_primary>  (8) 
energy

$$$$
8:0
     RDKit          3D

 47 48  0  0  0  0  0  0  0  0999 V2000
   60.0190   30.1390   48.8360 C   0  0  0  0  0  0  0  0  0  0  0  0
   60.4500   30.0450   50.3100 C   0  0  0  0  0  0  0  0  0  0  0  0
   60.6270   31.3540   51.0050 N   0  0  0  0  0  0  0  0  0  0  0  0
   61.9650   31.5180   51.6310 C   0  0  0  0  0  0  0  0  0  0  0  0
   63.0730   30.7640   50.8850 C   0  0  0  0  0  0  0  0  0  0  0  0
   59.5600   31.6170   52.0100 C   0  0  0  0  0  0  0  0  0  0  0  0
   58.3880   32.4610   51.4690 C   0  0  0  0  0  0  0  0  0  0  0  0
   58.5390   32.7020   50.0760 O   0  0  0  0  0  0  0  0  0  0  0  0
   59.3120   33.7470   49.6180 N   0  0  0  0  0  0  0  0  0  0  0  0
   59.8910   33.7250   48.4530 C   0  0  0  0  0  0  0  0  0  0  0  0
   61.3620   33.5290   48.3810 C   0  0  0  0  0  0  0  0  0  0  0  0
   61.9330   32.7850   47.3290 C   0  0  0  0  0  0  0  0  0  0  0  0
   63.3160   32.5880   47.2670 C   0  0  0  0  0  0  0  0  0  0  0  0
   64.1450   33.1250   48.2530 C   0  0  0  0  0  0  0  0  0  0  0  0
   63.5940   33.8570   49.3050 C   0  0  0  0  0  0  0  0  0  0  0  0
   62.2120   34.0590   49.3730 C   0  0  0  0  0  0  0  0  0  0  0  0
   59.0910   33.9100   47.2170 C   0  0  0  0  0  0  0  0  0  0  0  0
   59.5960   34.6670   46.1460 C   0  0  0  0  0  0  0  0  0  0  0  0
   58.8450   34.8230   44.9770 C   0  0  0  0  0  0  0  0  0  0  0  0
   57.5860   34.2260   44.8690 C   0  0  0  0  0  0  0  0  0  0  0  0
   57.0770   33.4710   45.9290 C   0  0  0  0  0  0  0  0  0  0  0  0
   57.8260   33.3100   47.0990 C   0  0  0  0  0  0  0  0  0  0  0  0
   58.9456   30.3731   48.7821 H   0  0  0  0  0  0  0  0  0  0  0  0
   60.5930   30.9331   48.3361 H   0  0  0  0  0  0  0  0  0  0  0  0
   60.2103   29.1780   48.3361 H   0  0  0  0  0  0  0  0  0  0  0  0
   59.6835   29.4724   50.8528 H   0  0  0  0  0  0  0  0  0  0  0  0
   61.4392   29.5638   50.3087 H   0  0  0  0  0  0  0  0  0  0  0  0
   60.5620   32.0950   50.2710 H   0  0  0  0  0  0  0  0  0  0  0  0
   62.2171   32.5887   51.6437 H   0  0  0  0  0  0  0  0  0  0  0  0
   61.9069   31.0974   52.6457 H   0  0  0  0  0  0  0  0  0  0  0  0
   63.7549   30.3000   51.6128 H   0  0  0  0  0  0  0  0  0  0  0  0
   62.6241   29.9831   50.2536 H   0  0  0  0  0  0  0  0  0  0  0  0
   63.6347   31.4682   50.2536 H   0  0  0  0  0  0  0  0  0  0  0  0
   59.1618   30.6509   52.3536 H   0  0  0  0  0  0  0  0  0  0  0  0
   60.0223   32.1958   52.8232 H   0  0  0  0  0  0  0  0  0  0  0  0
   57.4453   31.9210   51.6413 H   0  0  0  0  0  0  0  0  0  0  0  0
   58.3779   33.4273   51.9945 H   0  0  0  0  0  0  0  0  0  0  0  0
   61.2854   32.3558   46.5503 H   0  0  0  0  0  0  0  0  0  0  0  0
   63.7514   32.0087   46.4395 H   0  0  0  0  0  0  0  0  0  0  0  0
   65.2329   32.9711   48.2006 H   0  0  0  0  0  0  0  0  0  0  0  0
   64.2485   34.2765   50.0832 H   0  0  0  0  0  0  0  0  0  0  0  0
   61.7849   34.6357   50.2067 H   0  0  0  0  0  0  0  0  0  0  0  0
   60.5863   35.1388   46.2278 H   0  0  0  0  0  0  0  0  0  0  0  0
   59.2454   35.4161   44.1416 H   0  0  0  0  0  0  0  0  0  0  0  0
   56.9955   34.3505   43.9493 H   0  0  0  0  0  0  0  0  0  0  0  0
   56.0855   33.0025   45.8430 H   0  0  0  0  0  0  0  0  0  0  0  0
   57.4234   32.7117   47.9296 H   0  0  0  0  0  0  0  0  0  0  0  0
  1  2  1  0
  2  3  1  0
  3  4  1  0
  4  5  1  0
  3  6  1  0
  6  7  1  0
  7  8  1  0
  8  9  1  0
  9 10  2  3
 10 11  1  0
 11 12  2  0
 12 13  1  0
 13 14  2  0
 14 15  1  0
 15 16  2  0
 10 17  1  0
 17 18  2  0
 18 19  1  0
 19 20  2  0
 20 21  1  0
 21 22  2  0
 16 11  1  0
 22 17  1  0
  1 23  1  0
  1 24  1  0
  1 25  1  0
  2 26  1  0
  2 27  1  0
  3 28  1  0
  4 29  1  0
  4 30  1  0
  5 31  1  0
  5 32  1  0
  5 33  1  0
  6 34  1  0
  6 35  1  0
  7 36  1  0
  7 37  1  0
 12 38  1  0
 13 39  1  0
 14 40  1  0
 15 41  1  0
 16 42  1  0
 18 43  1  0
 19 44  1  0
 20 45  1  0
 21 46  1  0
 22 47  1  0
M  CHG  1   3   1
M  END
>  <UniqueID>  (9) 
9

>  <SMILES>  (9) 
CC[NH+](CC)CCON=C(c1ccccc1)c1ccccc1

>  <Energy>  (9) 
55.567053150910176

>  <Genealogy>  (9) 
CC[NH+](CC)CCON=C(c1ccccc1)c1ccccc1 (protonated)
CC[NH+](CC)CCON=C(c1ccccc1)c1ccccc1 (3D coordinates assigned)
CC[NH+](CC)CCON=C(c1ccccc1)c1ccccc1 (optimized conformer: 55.567053150910176 kcal/mol)

>  <smiles>  (9) 
CCN(CC)CCON=C(c1ccccc1)c1ccccc1

>  <score_type>  (9) 
oracle

>  <origin>  (9) 
adg

>  <m_score__min__energy>  (9) 
-4.3399999999999999

>  <m_primary>  (9) 
energy

$$$$
9:0
     RDKit          3D

 43 46  0  0  0  0  0  0  0  0999 V2000
   66.4960   32.7000   50.0290 C   0  0  0  0  0  0  0  0  0  0  0  0
   65.2850   33.3730   49.7000 O   0  0  0  0  0  0  0  0  0  0  0  0
   64.1070   32.7310   49.2830 C   0  0  0  0  0  0  0  0  0  0  0  0
   63.5760   32.9070   47.9910 C   0  0  0  0  0  0  0  0  0  0  0  0
   62.4010   32.2520   47.6150 C   0  0  0  0  0  0  0  0  0  0  0  0
   61.7270   31.4150   48.5190 C   0  0  0  0  0  0  0  0  0  0  0  0
   60.4820   30.7210   48.1080 C   0  0  0  0  0  0  0  0  0  0  0  0
   59.4650   30.7760   48.8530 O   0  0  0  0  0  0  0  0  0  0  0  0
   60.4290   29.9600   46.8920 N   0  0  0  0  0  0  0  0  0  0  0  0
   59.1930   29.4880   46.3400 C   0  0  0  0  0  0  0  0  0  0  0  0
   58.1580   30.2730   45.8410 C   0  0  0  0  0  0  0  0  0  0  0  0
   58.1620   31.7360   45.6190 C   0  0  0  0  0  0  0  0  0  0  0  0
   58.1410   32.2760   44.3200 C   0  0  0  0  0  0  0  0  0  0  0  0
   58.1340   33.6610   44.1320 C   0  0  0  0  0  0  0  0  0  0  0  0
   58.1360   34.5190   45.2350 C   0  0  0  0  0  0  0  0  0  0  0  0
   58.1380   33.9920   46.5280 C   0  0  0  0  0  0  0  0  0  0  0  0
   58.1450   32.6080   46.7220 C   0  0  0  0  0  0  0  0  0  0  0  0
   57.0870   29.4850   45.5710 N   0  0  0  0  0  0  0  0  0  0  0  0
   57.5010   28.2480   45.9190 C   0  0  0  0  0  0  0  0  0  0  0  0
   56.7310   27.0880   45.8570 C   0  0  0  0  0  0  0  0  0  0  0  0
   57.3050   25.8960   46.3220 C   0  0  0  0  0  0  0  0  0  0  0  0
   58.6130   25.8930   46.8440 C   0  0  0  0  0  0  0  0  0  0  0  0
   59.3430   27.0910   46.8850 C   0  0  0  0  0  0  0  0  0  0  0  0
   58.7590   28.2170   46.3950 N   0  0  0  0  0  0  0  0  0  0  0  0
   62.2650   31.2330   49.8060 C   0  0  0  0  0  0  0  0  0  0  0  0
   63.4420   31.8880   50.1840 C   0  0  0  0  0  0  0  0  0  0  0  0
   64.0810   31.6330   51.8010 Cl  0  0  0  0  0  0  0  0  0  0  0  0
   66.5984   32.6431   51.1227 H   0  0  0  0  0  0  0  0  0  0  0  0
   66.4763   31.6834   49.6092 H   0  0  0  0  0  0  0  0  0  0  0  0
   67.3488   33.2536   49.6092 H   0  0  0  0  0  0  0  0  0  0  0  0
   64.0894   33.5641   47.2736 H   0  0  0  0  0  0  0  0  0  0  0  0
   61.9996   32.3932   46.6006 H   0  0  0  0  0  0  0  0  0  0  0  0
   61.3170   29.5850   46.4900 H   0  0  0  0  0  0  0  0  0  0  0  0
   58.1300   31.6051   43.4483 H   0  0  0  0  0  0  0  0  0  0  0  0
   58.1269   34.0765   43.1135 H   0  0  0  0  0  0  0  0  0  0  0  0
   58.1360   35.6087   45.0847 H   0  0  0  0  0  0  0  0  0  0  0  0
   58.1341   34.6677   47.3960 H   0  0  0  0  0  0  0  0  0  0  0  0
   58.1372   32.1986   47.7430 H   0  0  0  0  0  0  0  0  0  0  0  0
   55.7067   27.1068   45.4565 H   0  0  0  0  0  0  0  0  0  0  0  0
   56.7308   24.9588   46.2788 H   0  0  0  0  0  0  0  0  0  0  0  0
   59.0590   24.9591   47.2167 H   0  0  0  0  0  0  0  0  0  0  0  0
   60.3604   27.1183   47.3024 H   0  0  0  0  0  0  0  0  0  0  0  0
   61.7560   30.5701   50.5212 H   0  0  0  0  0  0  0  0  0  0  0  0
  1  2  1  0
  2  3  1  0
  3  4  2  0
  4  5  1  0
  5  6  2  0
  6  7  1  0
  7  8  2  0
  7  9  1  0
  9 10  1  0
 10 11  2  0
 11 12  1  0
 12 13  2  0
 13 14  1  0
 14 15  2  0
 15 16  1  0
 16 17  2  0
 11 18  1  0
 18 19  2  0
 19 20  1  0
 20 21  2  0
 21 22  1  0
 22 23  2  0
 23 24  1  0
  6 25  1  0
 25 26  2  0
 26 27  1  0
 26  3  1  0
 24 10  1  0
 17 12  1  0
 24 19  1  0
  1 28  1  0
  1 29  1  0
  1 30  1  0
  4 31  1  0
  5 32  1  0
  9 33  1  0
 13 34  1  0
 14 35  1  0
 15 36  1  0
 16 37  1  0
 17 38  1  0
 20 39  1  0
 21 40  1  0
 22 41  1  0
 23 42  1  0
 25 43  1  0
M  END
>  <UniqueID>  (10) 
10

>  <SMILES>  (10) 
COc1ccc(C(=O)Nc2c(-c3ccccc3)nc3ccccn23)cc1Cl

>  <Energy>  (10) 
92.97614838372584

>  <Genealogy>  (10) 
COc1ccc(C(=O)Nc2c(-c3ccccc3)nc3ccccn23)cc1Cl (3D coordinates assigned)
COc1ccc(C(=O)Nc2c(-c3ccccc3)nc3ccccn23)cc1Cl (optimized conformer: 92.97614838372584 kcal/mol)

>  <smiles>  (10) 
COc1ccc(C(=O)Nc2c(-c3ccccc3)nc3ccccn23)cc1Cl

>  <score_type>  (10) 
oracle

>  <origin>  (10) 
adg

>  <m_score__min__energy>  (10) 
-7.6699999999999999

>  <m_primary>  (10) 
energy

$$$$
10:0
     RDKit          3D

 46 48  0  0  0  0  0  0  0  0999 V2000
   56.5130   19.3460   43.4600 H   0  0  0  0  0  0  0  0  0  0  0  0
   55.8990   20.1920   43.4420 N   0  0  0  0  0  0  0  0  0  0  0  0
   56.2790   21.3370   43.9130 C   0  0  0  0  0  0  0  0  0  0  0  0
   55.8710   22.4820   43.3080 N   0  0  0  0  0  0  0  0  0  0  0  0
   56.2510   23.7030   43.7710 C   0  0  0  0  0  0  0  0  0  0  0  0
   55.9046   24.6178   43.2678 H   0  0  0  0  0  0  0  0  0  0  0  0
   57.0880   23.7890   44.8950 C   0  0  0  0  0  0  0  0  0  0  0  0
   57.5170   25.0940   45.4510 C   0  0  0  0  0  0  0  0  0  0  0  0
   58.8900   25.3670   45.5850 C   0  0  0  0  0  0  0  0  0  0  0  0
   59.6282   24.6111   45.2790 H   0  0  0  0  0  0  0  0  0  0  0  0
   59.3250   26.5890   46.1030 C   0  0  0  0  0  0  0  0  0  0  0  0
   60.4014   26.7838   46.2191 H   0  0  0  0  0  0  0  0  0  0  0  0
   58.3940   27.5670   46.4750 C   0  0  0  0  0  0  0  0  0  0  0  0
   58.8530   28.8540   47.0270 C   0  0  0  0  0  0  0  0  0  0  0  0
   59.5870   28.8300   48.2240 C   0  0  0  0  0  0  0  0  0  0  0  0
   59.8275   27.8660   48.6961 H   0  0  0  0  0  0  0  0  0  0  0  0
   60.0140   30.0160   48.8200 C   0  0  0  0  0  0  0  0  0  0  0  0
   60.7170   29.9770   49.9800 F   0  0  0  0  0  0  0  0  0  0  0  0
   59.7090   31.2430   48.2290 C   0  0  0  0  0  0  0  0  0  0  0  0
   60.1130   32.3980   48.8130 F   0  0  0  0  0  0  0  0  0  0  0  0
   58.9890   31.2820   47.0330 C   0  0  0  0  0  0  0  0  0  0  0  0
   58.7478   32.2529   46.5756 H   0  0  0  0  0  0  0  0  0  0  0  0
   58.5690   30.0970   46.4070 C   0  0  0  0  0  0  0  0  0  0  0  0
   57.7330   30.2470   44.8450 S   0  0  0  0  0  0  0  0  0  0  0  0
   56.2580   30.0880   45.0820 O   0  0  0  0  0  0  0  0  0  0  0  0
   58.1730   29.2010   43.8600 O   0  0  0  0  0  0  0  0  0  0  0  0
   58.0360   31.8600   44.1180 C   0  0  0  0  0  0  0  0  0  0  0  0
   59.1226   32.0251   44.0725 H   0  0  0  0  0  0  0  0  0  0  0  0
   57.5775   31.8609   43.1181 H   0  0  0  0  0  0  0  0  0  0  0  0
   57.4000   33.0080   44.9150 C   0  0  0  0  0  0  0  0  0  0  0  0
   56.4061   33.2197   44.4939 H   0  0  0  0  0  0  0  0  0  0  0  0
   57.3385   32.6874   45.9655 H   0  0  0  0  0  0  0  0  0  0  0  0
   58.2350   34.2960   44.8730 C   0  0  0  0  0  0  0  0  0  0  0  0
   59.0068   34.1983   44.0953 H   0  0  0  0  0  0  0  0  0  0  0  0
   57.5646   35.1391   44.6497 H   0  0  0  0  0  0  0  0  0  0  0  0
   58.9110   34.5580   46.2150 C   0  0  0  0  0  0  0  0  0  0  0  0
   58.2227   34.2912   47.0305 H   0  0  0  0  0  0  0  0  0  0  0  0
   59.8235   33.9484   46.2911 H   0  0  0  0  0  0  0  0  0  0  0  0
   59.1743   35.6233   46.2911 H   0  0  0  0  0  0  0  0  0  0  0  0
   57.0240   27.3060   46.3420 C   0  0  0  0  0  0  0  0  0  0  0  0
   56.2903   28.0673   46.6455 H   0  0  0  0  0  0  0  0  0  0  0  0
   56.5840   26.0840   45.8260 C   0  0  0  0  0  0  0  0  0  0  0  0
   55.2520   25.8920   45.6490 F   0  0  0  0  0  0  0  0  0  0  0  0
   57.4800   22.6380   45.5080 N   0  0  0  0  0  0  0  0  0  0  0  0
   57.1010   21.4180   45.0450 C   0  0  0  0  0  0  0  0  0  0  0  0
   57.4364   20.5024   45.5541 H   0  0  0  0  0  0  0  0  0  0  0  0
  1  2  1  0
  2  3  2  0
  3  4  1  0
  4  5  1  0
  5  6  1  0
  5  7  2  0
  7  8  1  0
  8  9  2  0
  9 10  1  0
  9 11  1  0
 11 12  1  0
 11 13  2  0
 13 14  1  0
 14 15  2  0
 15 16  1  0
 15 17  1  0
 17 18  1  0
 17 19  2  0
 19 20  1  0
 19 21  1  0
 21 22  1  0
 21 23  2  0
 23 24  1  0
 24 25  2  0
 24 26  2  0
 24 27  1  0
 27 28  1  0
 27 29  1  0
 27 30  1  0
 30 31  1  0
 30 32  1  0
 30 33  1  0
 33 34  1  0
 33 35  1  0
 33 36  1  0
 36 37  1  0
 36 38  1  0
 36 39  1  0
 13 40  1  0
 40 41  1  0
 40 42  2  0
 42 43  1  0
  7 44  1  0
 44 45  2  0
 45 46  1  0
 45  3  1  0
 42  8  1  0
 23 14  1  0
M  CHG  1   4  -1
M  END
>  <UniqueID>  (11) 
11

>  <SMILES>  (11) 
[H]/N=c1\cnc(-c2ccc(-c3cc(F)c(F)cc3S(=O)(=O)CCCC)cc2F)c[n-]1

>  <Energy>  (11) 
56.73321786945211

>  <Genealogy>  (11) 
CCCCS(=O)(=O)c1cc(F)c(F)cc1-c1ccc(-c2c[n-]c(=N)cn2)c(F)c1 (protonated)
[H]/N=c1\cnc(-c2ccc(-c3cc(F)c(F)cc3S(=O)(=O)CCCC)cc2F)c[n-]1 (cis-trans isomerization)
[H]/N=c1\cnc(-c2ccc(-c3cc(F)c(F)cc3S(=O)(=O)CCCC)cc2F)c[n-]1 (3D coordinates assigned)
[H]/N=c1\cnc(-c2ccc(-c3cc(F)c(F)cc3S(=O)(=O)CCCC)cc2F)c[n-]1 (optimized conformer: 56.73321786945211 kcal/mol)

>  <smiles>  (11) 
CCCCS(=O)(=O)c1cc(F)c(F)cc1-c1ccc(-c2c[nH]c(=N)cn2)c(F)c1

>  <score_type>  (11) 
oracle

>  <origin>  (11) 
adg

>  <m_score__min__energy>  (11) 
-10.26

>  <m_primary>  (11) 
energy

$$$$
11:0
     RDKit          3D

 40 42  0  0  0  0  0  0  0  0999 V2000
   65.8070   32.1310   50.2310 C   0  0  0  0  0  0  0  0  0  0  0  0
   64.9560   33.0730   49.3880 C   0  0  0  0  0  0  0  0  0  0  0  0
   63.6630   32.4200   49.0090 C   0  0  0  0  0  0  0  0  0  0  0  0
   63.0640   31.4600   49.7440 N   0  0  0  0  0  0  0  0  0  0  0  0
   61.9320   31.1400   49.1340 N   0  0  0  0  0  0  0  0  0  0  0  0
   61.0160   30.1150   49.6180 C   0  0  0  0  0  0  0  0  0  0  0  0
   61.7870   31.8880   48.0200 C   0  0  0  0  0  0  0  0  0  0  0  0
   60.6700   31.7760   47.0680 C   0  0  0  0  0  0  0  0  0  0  0  0
   60.3670   30.6080   46.4460 N   0  0  0  0  0  0  0  0  0  0  0  0
   59.2780   30.9230   45.7220 C   0  0  0  0  0  0  0  0  0  0  0  0
   58.5270   30.0750   44.9120 C   0  0  0  0  0  0  0  0  0  0  0  0
   57.3850   30.6090   44.2740 C   0  0  0  0  0  0  0  0  0  0  0  0
   56.5210   29.7270   43.4240 C   0  0  0  0  0  0  0  0  0  0  0  0
   57.0170   31.9590   44.5020 C   0  0  0  0  0  0  0  0  0  0  0  0
   57.7960   32.7850   45.3320 C   0  0  0  0  0  0  0  0  0  0  0  0
   58.9340   32.2290   45.9170 C   0  0  0  0  0  0  0  0  0  0  0  0
   59.8150   32.7910   46.7640 N   0  0  0  0  0  0  0  0  0  0  0  0
   59.7150   34.1070   47.4020 C   0  0  0  0  0  0  0  0  0  0  0  0
   59.7380   35.2090   46.3490 C   0  0  0  0  0  0  0  0  0  0  0  0
   62.8800   32.7220   47.9090 C   0  0  0  0  0  0  0  0  0  0  0  0
   63.2540   33.8400   46.6050 Cl  0  0  0  0  0  0  0  0  0  0  0  0
   65.6272   32.3301   51.2978 H   0  0  0  0  0  0  0  0  0  0  0  0
   65.5376   31.0894   50.0019 H   0  0  0  0  0  0  0  0  0  0  0  0
   66.8705   32.2936   50.0019 H   0  0  0  0  0  0  0  0  0  0  0  0
   64.7446   33.9843   49.9666 H   0  0  0  0  0  0  0  0  0  0  0  0
   65.5084   33.3238   48.4704 H   0  0  0  0  0  0  0  0  0  0  0  0
   61.0150   30.1139   50.7180 H   0  0  0  0  0  0  0  0  0  0  0  0
   60.0011   30.3272   49.2507 H   0  0  0  0  0  0  0  0  0  0  0  0
   61.3405   29.1302   49.2507 H   0  0  0  0  0  0  0  0  0  0  0  0
   58.8139   29.0222   44.7732 H   0  0  0  0  0  0  0  0  0  0  0  0
   55.8981   29.0911   44.0703 H   0  0  0  0  0  0  0  0  0  0  0  0
   55.8738   30.3498   42.7890 H   0  0  0  0  0  0  0  0  0  0  0  0
   57.1570   29.0928   42.7890 H   0  0  0  0  0  0  0  0  0  0  0  0
   56.1127   32.3647   44.0248 H   0  0  0  0  0  0  0  0  0  0  0  0
   57.5175   33.8335   45.5137 H   0  0  0  0  0  0  0  0  0  0  0  0
   58.7734   34.1653   47.9677 H   0  0  0  0  0  0  0  0  0  0  0  0
   60.5709   34.2419   48.0796 H   0  0  0  0  0  0  0  0  0  0  0  0
   59.7585   36.1903   46.8456 H   0  0  0  0  0  0  0  0  0  0  0  0
   60.6340   35.0972   45.7208 H   0  0  0  0  0  0  0  0  0  0  0  0
   58.8381   35.1347   45.7208 H   0  0  0  0  0  0  0  0  0  0  0  0
  1  2  1  0
  2  3  1  0
  3  4  2  0
  4  5  1  0
  5  6  1  0
  5  7  1  0
  7  8  1  0
  8  9  2  0
  9 10  1  0
 10 11  2  0
 11 12  1  0
 12 13  1  0
 12 14  2  0
 14 15  1  0
 15 16  2  0
 16 17  1  0
 17 18  1  0
 18 19  1  0
  7 20  2  0
 20 21  1  0
 20  3  1  0
 17  8  1  0
 16 10  1  0
  1 22  1  0
  1 23  1  0
  1 24  1  0
  2 25  1  0
  2 26  1  0
  6 27  1  0
  6 28  1  0
  6 29  1  0
 11 30  1  0
 13 31  1  0
 13 32  1  0
 13 33  1  0
 14 34  1  0
 15 35  1  0
 18 36  1  0
 18 37  1  0
 19 38  1  0
 19 39  1  0
 19 40  1  0
M  END
>  <UniqueID>  (12) 
12

>  <SMILES>  (12) 
CCc1nn(C)c(-c2nc3cc(C)ccc3n2CC)c1Cl

>  <Energy>  (12) 
106.44788472828817

>  <Genealogy>  (12) 
CCc1nn(C)c(-c2nc3cc(C)ccc3n2CC)c1Cl (3D coordinates assigned)
CCc1nn(C)c(-c2nc3cc(C)ccc3n2CC)c1Cl (optimized conformer: 106.44788472828817 kcal/mol)

>  <smiles>  (12) 
CCc1nn(C)c(-c2nc3cc(C)ccc3n2CC)c1Cl

>  <score_type>  (12) 
oracle

>  <origin>  (12) 
adg

>  <m_score__min__energy>  (12) 
-7.2599999999999998

>  <m_primary>  (12) 
energy

$$$$
12:0
     RDKit          3D

 35 36  0  0  0  0  0  0  0  0999 V2000
   57.7680   33.1790   47.0580 C   0  0  0  0  0  0  0  0  0  0  0  0
   58.4720   33.3970   45.7850 N   0  0  0  0  0  0  0  0  0  0  0  0
   59.2800   34.6280   45.8260 C   0  0  0  0  0  0  0  0  0  0  0  0
   57.5740   33.3410   44.6110 C   0  0  0  0  0  0  0  0  0  0  0  0
   57.3790   31.9230   44.0320 C   0  0  0  0  0  0  0  0  0  0  0  0
   56.4100   31.1700   44.8260 N   0  0  0  0  0  0  0  0  0  0  0  0
   56.3160   29.7390   44.8740 C   0  0  0  0  0  0  0  0  0  0  0  0
   55.1940   29.1950   44.7010 O   0  0  0  0  0  0  0  0  0  0  0  0
   57.4880   28.8880   45.1590 C   0  0  0  0  0  0  0  0  0  0  0  0
   58.7800   29.4320   45.0650 C   0  0  0  0  0  0  0  0  0  0  0  0
   59.9020   28.6320   45.3020 C   0  0  0  0  0  0  0  0  0  0  0  0
   59.7470   27.2830   45.6330 C   0  0  0  0  0  0  0  0  0  0  0  0
   58.4660   26.7370   45.7390 C   0  0  0  0  0  0  0  0  0  0  0  0
   57.3360   27.5430   45.5400 C   0  0  0  0  0  0  0  0  0  0  0  0
   56.0660   26.9850   45.7380 O   0  0  0  0  0  0  0  0  0  0  0  0
   55.9040   25.7070   46.3570 C   0  0  0  0  0  0  0  0  0  0  0  0
   57.0170   24.7550   45.9040 C   0  0  0  0  0  0  0  0  0  0  0  0
   58.2920   25.3850   46.0490 O   0  0  0  0  0  0  0  0  0  0  0  0
   58.4499   33.3902   47.8949 H   0  0  0  0  0  0  0  0  0  0  0  0
   56.8982   33.8499   47.1155 H   0  0  0  0  0  0  0  0  0  0  0  0
   57.4295   32.1340   47.1155 H   0  0  0  0  0  0  0  0  0  0  0  0
   59.4653   34.9103   46.8729 H   0  0  0  0  0  0  0  0  0  0  0  0
   60.2399   34.4536   45.3179 H   0  0  0  0  0  0  0  0  0  0  0  0
   58.7382   35.4393   45.3179 H   0  0  0  0  0  0  0  0  0  0  0  0
   56.5896   33.7300   44.9105 H   0  0  0  0  0  0  0  0  0  0  0  0
   58.0472   33.9431   43.8214 H   0  0  0  0  0  0  0  0  0  0  0  0
   57.0143   32.0024   42.9973 H   0  0  0  0  0  0  0  0  0  0  0  0
   58.3436   31.3949   44.0569 H   0  0  0  0  0  0  0  0  0  0  0  0
   58.9095   30.4926   44.8036 H   0  0  0  0  0  0  0  0  0  0  0  0
   60.9101   29.0658   45.2277 H   0  0  0  0  0  0  0  0  0  0  0  0
   60.6314   26.6532   45.8095 H   0  0  0  0  0  0  0  0  0  0  0  0
   55.9484   25.8242   47.4498 H   0  0  0  0  0  0  0  0  0  0  0  0
   54.9306   25.2868   46.0639 H   0  0  0  0  0  0  0  0  0  0  0  0
   56.9893   23.8439   46.5197 H   0  0  0  0  0  0  0  0  0  0  0  0
   56.8614   24.4969   44.8461 H   0  0  0  0  0  0  0  0  0  0  0  0
  1  2  1  0
  2  3  1  0
  2  4  1  0
  4  5  1  0
  5  6  1  0
  6  7  1  0
  7  8  2  0
  7  9  1  0
  9 10  2  0
 10 11  1  0
 11 12  2  0
 12 13  1  0
 13 14  2  0
 14 15  1  0
 15 16  1  0
 16 17  1  0
 17 18  1  0
 14  9  1  0
 18 13  1  0
  1 19  1  0
  1 20  1  0
  1 21  1  0
  3 22  1  0
  3 23  1  0
  3 24  1  0
  4 25  1  0
  4 26  1  0
  5 27  1  0
  5 28  1  0
 10 29  1  0
 11 30  1  0
 12 31  1  0
 16 32  1  0
 16 33  1  0
 17 34  1  0
 17 35  1  0
M  CHG  1   6  -1
M  END
>  <UniqueID>  (13) 
13

>  <SMILES>  (13) 
CN(C)CC[N-]C(=O)c1cccc2c1OCCO2

>  <Energy>  (13) 
39.86788308877698

>  <Genealogy>  (13) 
CN(C)CC[N-]C(=O)c1cccc2c1OCCO2 (protonated)
CN(C)CC[N-]C(=O)c1cccc2c1OCCO2 (3D coordinates assigned)
CN(C)CC[N-]C(=O)c1cccc2c1OCCO2 (nonaromatic ring conformer: 39.86788308877698 kcal/mol)

>  <smiles>  (13) 
CN(C)CCNC(=O)c1cccc2c1OCCO2

>  <score_type>  (13) 
oracle

>  <origin>  (13) 
adg

>  <m_score__min__energy>  (13) 
-7.9000000000000004

>  <m_primary>  (13) 
energy

$$$$
13:0
     RDKit          3D

 28 28  0  0  0  0  0  0  0  0999 V2000
   56.8470   28.2680   45.2370 C   0  0  0  0  0  0  0  0  0  0  0  0
   55.8210   29.3030   45.0510 N   0  0  0  0  0  0  0  0  0  0  0  0
   55.8770   29.8510   43.6940 C   0  0  0  0  0  0  0  0  0  0  0  0
   57.0560   30.8360   43.5760 C   0  0  0  0  0  0  0  0  0  0  0  0
   57.3320   31.6220   44.7940 N   0  0  0  0  0  0  0  0  0  0  0  0
   58.4710   31.0880   45.5720 C   0  0  0  0  0  0  0  0  0  0  0  0
   58.8920   32.0330   46.7300 C   0  0  0  0  0  0  0  0  0  0  0  0
   57.7800   33.0180   47.0940 C   0  0  0  0  0  0  0  0  0  0  0  0
   57.3570   33.8580   45.8770 C   0  0  0  0  0  0  0  0  0  0  0  0
   57.4380   33.0770   44.5470 C   0  0  0  0  0  0  0  0  0  0  0  0
   57.0106   28.1029   46.3122 H   0  0  0  0  0  0  0  0  0  0  0  0
   56.5114   27.3308   44.7690 H   0  0  0  0  0  0  0  0  0  0  0  0
   57.7871   28.5954   44.7690 H   0  0  0  0  0  0  0  0  0  0  0  0
   56.0750   30.0910   45.6950 H   0  0  0  0  0  0  0  0  0  0  0  0
   56.0136   29.0304   42.9743 H   0  0  0  0  0  0  0  0  0  0  0  0
   54.9380   30.3816   43.4780 H   0  0  0  0  0  0  0  0  0  0  0  0
   57.9597   30.2595   43.3290 H   0  0  0  0  0  0  0  0  0  0  0  0
   56.7762   31.5609   42.7974 H   0  0  0  0  0  0  0  0  0  0  0  0
   58.1833   30.1150   45.9969 H   0  0  0  0  0  0  0  0  0  0  0  0
   59.3280   30.9921   44.8891 H   0  0  0  0  0  0  0  0  0  0  0  0
   59.1332   31.4258   47.6149 H   0  0  0  0  0  0  0  0  0  0  0  0
   59.7657   32.6125   46.3971 H   0  0  0  0  0  0  0  0  0  0  0  0
   56.9090   32.4554   47.4612 H   0  0  0  0  0  0  0  0  0  0  0  0
   58.1594   33.6985   47.8706 H   0  0  0  0  0  0  0  0  0  0  0  0
   56.3193   34.1916   46.0249 H   0  0  0  0  0  0  0  0  0  0  0  0
   58.0544   34.7056   45.8038 H   0  0  0  0  0  0  0  0  0  0  0  0
   56.6144   33.3938   43.8903 H   0  0  0  0  0  0  0  0  0  0  0  0
   58.4061   33.2874   44.0689 H   0  0  0  0  0  0  0  0  0  0  0  0
  1  2  1  0
  2  3  1  0
  3  4  1  0
  4  5  1  0
  5  6  1  0
  6  7  1  0
  7  8  1  0
  8  9  1  0
  9 10  1  0
 10  5  1  0
  1 11  1  0
  1 12  1  0
  1 13  1  0
  2 14  1  0
  3 15  1  0
  3 16  1  0
  4 17  1  0
  4 18  1  0
  6 19  1  0
  6 20  1  0
  7 21  1  0
  7 22  1  0
  8 23  1  0
  8 24  1  0
  9 25  1  0
  9 26  1  0
 10 27  1  0
 10 28  1  0
M  END
>  <UniqueID>  (14) 
14

>  <SMILES>  (14) 
CNCCN1CCCCC1

>  <Energy>  (14) 
31.063309942893053

>  <Genealogy>  (14) 
CNCCN1CCCCC1 (3D coordinates assigned)
CNCCN1CCCCC1 (nonaromatic ring conformer: 31.063309942893053 kcal/mol)

>  <smiles>  (14) 
CNCCN1CCCCC1

>  <score_type>  (14) 
oracle

>  <origin>  (14) 
adg

>  <m_score__min__energy>  (14) 
-5.1399999999999997

>  <m_primary>  (14) 
energy

$$$$
14:0
     RDKit          3D

 56 60  0  0  0  0  0  0  0  0999 V2000
   56.9510   31.1550   43.6050 C   0  0  0  0  0  0  0  0  0  0  0  0
   57.2480   30.7910   44.9990 N   0  0  0  0  0  0  0  0  0  0  0  0
   57.1710   29.3360   45.2190 C   0  0  0  0  0  0  0  0  0  0  0  0
   58.5410   28.8720   45.7250 C   0  0  2  0  0  0  0  0  0  0  0  0
   58.4830   27.6190   46.5870 C   0  0  0  0  0  0  0  0  0  0  0  0
   58.7960   27.6800   47.8070 O   0  0  0  0  0  0  0  0  0  0  0  0
   58.1340   26.2960   46.0150 C   0  0  0  0  0  0  0  0  0  0  0  0
   59.1020   25.2910   45.8600 C   0  0  0  0  0  0  0  0  0  0  0  0
   58.7560   24.0510   45.3170 C   0  0  0  0  0  0  0  0  0  0  0  0
   57.4320   23.7830   44.9280 C   0  0  0  0  0  0  0  0  0  0  0  0
   57.0920   22.4990   44.3660 N   0  0  0  0  0  0  0  0  0  0  0  0
   57.3850   21.2690   44.8300 C   0  0  0  0  0  0  0  0  0  0  0  0
   56.8720   20.3540   43.9920 N   0  0  0  0  0  0  0  0  0  0  0  0
   56.2710   21.0240   43.0210 N   0  0  0  0  0  0  0  0  0  0  0  0
   56.4040   22.3230   43.2460 N   0  0  0  0  0  0  0  0  0  0  0  0
   56.4600   24.7850   45.0990 C   0  0  0  0  0  0  0  0  0  0  0  0
   56.8080   26.0260   45.6410 C   0  0  0  0  0  0  0  0  0  0  0  0
   59.1230   30.1470   46.3740 C   0  0  0  0  0  0  0  0  0  0  0  0
   60.6780   30.1100   46.3860 C   0  0  0  0  0  0  0  0  0  0  0  0
   61.2660   31.3530   47.0710 C   0  0  0  0  0  0  0  0  0  0  0  0
   60.5990   31.6430   48.3510 N   0  0  0  0  0  0  0  0  0  0  0  0
   60.9060   32.8600   49.0640 C   0  0  0  0  0  0  0  0  0  0  0  0
   60.1860   33.2270   50.0330 O   0  0  0  0  0  0  0  0  0  0  0  0
   62.0460   33.7430   48.6340 C   0  0  0  0  0  0  0  0  0  0  0  0
   63.4180   33.1050   48.7920 C   0  0  0  0  0  0  0  0  0  0  0  0
   62.9820   34.2030   49.7460 C   0  0  0  0  0  0  0  0  0  0  0  0
   59.5990   30.6970   48.8680 C   0  0  0  0  0  0  0  0  0  0  0  0
   58.5250   30.4410   47.8050 C   0  0  0  0  0  0  0  0  0  0  0  0
   58.6070   31.2060   45.3850 C   0  0  0  0  0  0  0  0  0  0  0  0
   56.2557   32.0072   43.5887 H   0  0  0  0  0  0  0  0  0  0  0  0
   57.8835   31.4328   43.0919 H   0  0  0  0  0  0  0  0  0  0  0  0
   56.4917   30.2972   43.0919 H   0  0  0  0  0  0  0  0  0  0  0  0
   56.3980   29.1101   45.9683 H   0  0  0  0  0  0  0  0  0  0  0  0
   56.9073   28.8171   44.2856 H   0  0  0  0  0  0  0  0  0  0  0  0
   59.2106   28.5042   44.9336 H   0  0  0  0  0  0  0  0  0  0  0  0
   60.1406   25.4812   46.1684 H   0  0  0  0  0  0  0  0  0  0  0  0
   59.5274   23.2767   45.1926 H   0  0  0  0  0  0  0  0  0  0  0  0
   57.9524   21.0497   45.7465 H   0  0  0  0  0  0  0  0  0  0  0  0
   56.9360   19.3150   44.0610 H   0  0  0  0  0  0  0  0  0  0  0  0
   55.4182   24.5909   44.8041 H   0  0  0  0  0  0  0  0  0  0  0  0
   56.0358   26.7978   45.7756 H   0  0  0  0  0  0  0  0  0  0  0  0
   61.0099   29.2124   46.9284 H   0  0  0  0  0  0  0  0  0  0  0  0
   61.0306   30.0910   45.3442 H   0  0  0  0  0  0  0  0  0  0  0  0
   62.3364   31.1825   47.2586 H   0  0  0  0  0  0  0  0  0  0  0  0
   61.1119   32.2141   46.4041 H   0  0  0  0  0  0  0  0  0  0  0  0
   61.4988   34.2514   47.8264 H   0  0  0  0  0  0  0  0  0  0  0  0
   63.5040   32.0684   49.1498 H   0  0  0  0  0  0  0  0  0  0  0  0
   64.2829   32.9492   48.1304 H   0  0  0  0  0  0  0  0  0  0  0  0
   62.7514   33.9615   50.7941 H   0  0  0  0  0  0  0  0  0  0  0  0
   63.3992   35.1709   50.0609 H   0  0  0  0  0  0  0  0  0  0  0  0
   60.0927   29.7479   49.1237 H   0  0  0  0  0  0  0  0  0  0  0  0
   59.1264   31.1237   49.7650 H   0  0  0  0  0  0  0  0  0  0  0  0
   57.9238   29.5744   48.1173 H   0  0  0  0  0  0  0  0  0  0  0  0
   57.9204   31.3564   47.7245 H   0  0  0  0  0  0  0  0  0  0  0  0
   58.5800   32.1946   45.8667 H   0  0  0  0  0  0  0  0  0  0  0  0
   59.2640   31.2829   44.5061 H   0  0  0  0  0  0  0  0  0  0  0  0
  1  2  1  0
  2  3  1  0
  3  4  1  0
  4  5  1  0
  5  6  2  0
  5  7  1  0
  7  8  2  0
  8  9  1  0
  9 10  2  0
 10 11  1  0
 11 12  1  0
 12 13  2  0
 13 14  1  0
 14 15  2  0
 10 16  1  0
 16 17  2  0
  4 18  1  0
 18 19  1  0
 19 20  1  0
 20 21  1  0
 21 22  1  0
 22 23  2  0
 22 24  1  0
 24 25  1  0
 25 26  1  0
 21 27  1  0
 27 28  1  0
 18 29  1  0
 29  2  1  0
 17  7  1  0
 28 18  1  0
 15 11  1  0
 26 24  1  0
  1 30  1  0
  1 31  1  0
  1 32  1  0
  3 33  1  0
  3 34  1  0
  4 35  1  6
  8 36  1  0
  9 37  1  0
 12 38  1  0
 13 39  1  0
 16 40  1  0
 17 41  1  0
 19 42  1  0
 19 43  1  0
 20 44  1  0
 20 45  1  0
 24 46  1  0
 25 47  1  0
 25 48  1  0
 26 49  1  0
 26 50  1  0
 27 51  1  0
 27 52  1  0
 28 53  1  0
 28 54  1  0
 29 55  1  0
 29 56  1  0
M  CHG  1  13   1
M  END
>  <UniqueID>  (15) 
15

>  <SMILES>  (15) 
CN1C[C@H](C(=O)c2ccc(-n3c[nH+]nn3)cc2)C2(CCN(C(=O)C3CC3)CC2)C1

>  <Energy>  (15) 
382.61177271745237

>  <Genealogy>  (15) 
CN1CC(C(=O)c2ccc(-n3c[nH+]nn3)cc2)C2(CCN(C(=O)C3CC3)CC2)C1 (protonated)
CN1C[C@H](C(=O)c2ccc(-n3c[nH+]nn3)cc2)C2(CCN(C(=O)C3CC3)CC2)C1 (chirality)
CN1C[C@H](C(=O)c2ccc(-n3c[nH+]nn3)cc2)C2(CCN(C(=O)C3CC3)CC2)C1 (3D coordinates assigned)
CN1C[C@H](C(=O)c2ccc(-n3c[nH+]nn3)cc2)C2(CCN(C(=O)C3CC3)CC2)C1 (nonaromatic ring conformer: 382.61177271745237 kcal/mol)

>  <smiles>  (15) 
CN1CC(C(=O)c2ccc(-n3cnnn3)cc2)C2(CCN(C(=O)C3CC3)CC2)C1

>  <score_type>  (15) 
oracle

>  <origin>  (15) 
adg

>  <m_score__min__energy>  (15) 
-8.4800000000000004

>  <m_primary>  (15) 
energy

$$$$
15:0
     RDKit          3D

 30 32  0  0  0  0  0  0  0  0999 V2000
   56.5700   30.2540   43.5410 C   0  0  0  0  0  0  0  0  0  0  0  0
   56.6210   30.8000   44.8550 O   0  0  0  0  0  0  0  0  0  0  0  0
   57.4380   31.8660   45.2610 C   0  0  0  0  0  0  0  0  0  0  0  0
   57.1100   33.1940   44.8730 C   0  0  0  0  0  0  0  0  0  0  0  0
   57.9070   34.2780   45.2490 C   0  0  0  0  0  0  0  0  0  0  0  0
   59.0420   34.0200   45.9960 C   0  0  0  0  0  0  0  0  0  0  0  0
   59.9230   34.9310   46.4400 N   0  0  0  0  0  0  0  0  0  0  0  0
   60.8330   34.1780   47.0990 C   0  0  0  0  0  0  0  0  0  0  0  0
   60.5580   32.8490   47.0730 N   0  0  0  0  0  0  0  0  0  0  0  0
   59.4010   32.7550   46.3770 C   0  0  0  0  0  0  0  0  0  0  0  0
   58.6090   31.6230   46.0590 C   0  0  0  0  0  0  0  0  0  0  0  0
   59.0250   30.2560   46.6140 C   0  0  1  0  0  0  0  0  0  0  0  0
   58.1320   29.0570   46.2580 C   0  0  0  0  0  0  0  0  0  0  0  0
   60.4830   29.9630   46.2160 C   0  0  0  0  0  0  0  0  0  0  0  0
   61.3860   30.4780   47.2340 N   0  0  0  0  0  0  0  0  0  0  0  0
   61.4030   31.8420   47.6640 C   0  0  0  0  0  0  0  0  0  0  0  0
   62.2190   32.1780   48.5650 O   0  0  0  0  0  0  0  0  0  0  0  0
   56.4679   29.1605   43.6020 H   0  0  0  0  0  0  0  0  0  0  0  0
   55.7071   30.6734   43.0029 H   0  0  0  0  0  0  0  0  0  0  0  0
   57.4956   30.5063   43.0029 H   0  0  0  0  0  0  0  0  0  0  0  0
   56.2108   33.3714   44.2647 H   0  0  0  0  0  0  0  0  0  0  0  0
   57.6400   35.3052   44.9598 H   0  0  0  0  0  0  0  0  0  0  0  0
   61.7116   34.6019   47.6072 H   0  0  0  0  0  0  0  0  0  0  0  0
   58.9041   30.3566   47.7027 H   0  0  0  0  0  0  0  0  0  0  0  0
   57.7754   28.5783   47.1819 H   0  0  0  0  0  0  0  0  0  0  0  0
   57.2704   29.4037   45.6686 H   0  0  0  0  0  0  0  0  0  0  0  0
   58.7110   28.3308   45.6686 H   0  0  0  0  0  0  0  0  0  0  0  0
   60.6236   28.8763   46.1194 H   0  0  0  0  0  0  0  0  0  0  0  0
   60.7022   30.4525   45.2556 H   0  0  0  0  0  0  0  0  0  0  0  0
   62.0370   29.8040   47.7000 H   0  0  0  0  0  0  0  0  0  0  0  0
  1  2  1  0
  2  3  1  0
  3  4  2  0
  4  5  1  0
  5  6  2  0
  6  7  1  0
  7  8  2  0
  8  9  1  0
  9 10  1  0
 10 11  2  0
 11 12  1  0
 12 13  1  0
 12 14  1  0
 14 15  1  0
 15 16  1  0
 16 17  2  0
 11  3  1  0
 10  6  1  0
 16  9  1  0
  1 18  1  0
  1 19  1  0
  1 20  1  0
  4 21  1  0
  5 22  1  0
  8 23  1  0
 12 24  1  1
 13 25  1  0
 13 26  1  0
 13 27  1  0
 14 28  1  0
 14 29  1  0
 15 30  1  0
M  END
>  <UniqueID>  (16) 
16

>  <SMILES>  (16) 
COc1ccc2ncn3c2c1[C@@H](C)CNC3=O

>  <Energy>  (16) 
79.89552231779703

>  <Genealogy>  (16) 
COc1ccc2ncn3c2c1[C@@H](C)CNC3=O (chirality)
COc1ccc2ncn3c2c1[C@@H](C)CNC3=O (3D coordinates assigned)
COc1ccc2ncn3c2c1[C@@H](C)CNC3=O (nonaromatic ring conformer: 79.89552231779703 kcal/mol)

>  <smiles>  (16) 
COc1ccc2ncn3c2c1C(C)CNC3=O

>  <score_type>  (16) 
oracle

>  <origin>  (16) 
adg

>  <m_score__min__energy>  (16) 
-4.8300000000000001

>  <m_primary>  (16) 
energy

$$$$
16:0
     RDKit          3D

 49 52  0  0  0  0  0  0  0  0999 V2000
   57.9720   34.1490   45.4850 C   0  0  0  0  0  0  0  0  0  0  0  0
   58.8270   34.7090   46.4790 O   0  0  0  0  0  0  0  0  0  0  0  0
   59.5940   33.9560   47.3800 C   0  0  0  0  0  0  0  0  0  0  0  0
   60.3200   34.6360   48.3640 C   0  0  0  0  0  0  0  0  0  0  0  0
   61.0890   33.9340   49.2940 C   0  0  0  0  0  0  0  0  0  0  0  0
   61.1490   32.5330   49.2480 C   0  0  0  0  0  0  0  0  0  0  0  0
   61.8810   31.8450   50.1690 N   0  0  0  0  0  0  0  0  0  0  0  0
   61.9310   30.4880   50.1430 C   0  0  0  0  0  0  0  0  0  0  0  0
   61.2610   29.7960   49.1870 N   0  0  0  0  0  0  0  0  0  0  0  0
   60.5250   30.4260   48.2350 C   0  0  0  0  0  0  0  0  0  0  0  0
   59.8570   29.6390   47.2350 N   0  0  0  0  0  0  0  0  0  0  0  0
   60.6380   29.0130   46.1650 C   0  0  0  0  0  0  0  0  0  0  0  0
   59.8700   29.0370   44.8300 C   0  0  0  0  0  0  0  0  0  0  0  0
   58.3040   28.8770   44.9410 C   0  0  0  0  0  0  0  0  0  0  0  0
   57.9700   28.2930   46.3530 C   0  0  0  0  0  0  0  0  0  0  0  0
   58.4930   29.1770   47.4970 C   0  0  0  0  0  0  0  0  0  0  0  0
   57.7810   27.8210   43.8950 C   0  0  0  0  0  0  0  0  0  0  0  0
   57.2090   28.3060   42.6170 N   0  0  0  0  0  0  0  0  0  0  0  0
   56.5500   29.6180   42.6300 C   0  0  0  0  0  0  0  0  0  0  0  0
   55.5420   29.7530   43.7920 C   0  0  0  0  0  0  0  0  0  0  0  0
   56.1770   30.2320   44.9560 O   0  0  0  0  0  0  0  0  0  0  0  0
   57.5810   30.2690   44.8030 C   0  0  0  0  0  0  0  0  0  0  0  0
   60.4360   31.8330   48.2490 C   0  0  0  0  0  0  0  0  0  0  0  0
   59.6520   32.5520   47.3280 C   0  0  0  0  0  0  0  0  0  0  0  0
   57.1473   33.6088   45.9728 H   0  0  0  0  0  0  0  0  0  0  0  0
   57.5624   34.9544   44.8576 H   0  0  0  0  0  0  0  0  0  0  0  0
   58.5466   33.4517   44.8576 H   0  0  0  0  0  0  0  0  0  0  0  0
   60.2845   35.7347   48.4052 H   0  0  0  0  0  0  0  0  0  0  0  0
   61.6500   34.4814   50.0658 H   0  0  0  0  0  0  0  0  0  0  0  0
   62.4100   32.3520   50.9140 H   0  0  0  0  0  0  0  0  0  0  0  0
   62.5174   29.9473   50.9005 H   0  0  0  0  0  0  0  0  0  0  0  0
   61.5848   29.5598   46.0445 H   0  0  0  0  0  0  0  0  0  0  0  0
   60.8285   27.9649   46.4393 H   0  0  0  0  0  0  0  0  0  0  0  0
   60.0778   29.9983   44.3373 H   0  0  0  0  0  0  0  0  0  0  0  0
   60.2224   28.1618   44.2645 H   0  0  0  0  0  0  0  0  0  0  0  0
   56.8778   28.2036   46.4479 H   0  0  0  0  0  0  0  0  0  0  0  0
   58.4657   27.3144   46.4347 H   0  0  0  0  0  0  0  0  0  0  0  0
   57.8336   30.0509   47.6040 H   0  0  0  0  0  0  0  0  0  0  0  0
   58.5017   28.5788   48.4201 H   0  0  0  0  0  0  0  0  0  0  0  0
   58.6296   27.1683   43.6425 H   0  0  0  0  0  0  0  0  0  0  0  0
   56.9307   27.3420   44.4026 H   0  0  0  0  0  0  0  0  0  0  0  0
   56.5620   27.5890   42.2120 H   0  0  0  0  0  0  0  0  0  0  0  0
   57.3176   30.3990   42.7344 H   0  0  0  0  0  0  0  0  0  0  0  0
   55.9945   29.7262   41.6868 H   0  0  0  0  0  0  0  0  0  0  0  0
   54.7478   30.4558   43.4999 H   0  0  0  0  0  0  0  0  0  0  0  0
   55.1177   28.7610   44.0061 H   0  0  0  0  0  0  0  0  0  0  0  0
   57.8046   30.6718   43.8041 H   0  0  0  0  0  0  0  0  0  0  0  0
   57.9625   30.8954   45.6229 H   0  0  0  0  0  0  0  0  0  0  0  0
   59.0793   32.0109   46.5604 H   0  0  0  0  0  0  0  0  0  0  0  0
  1  2  1  0
  2  3  1  0
  3  4  2  0
  4  5  1  0
  5  6  2  0
  6  7  1  0
  7  8  2  0
  8  9  1  0
  9 10  2  0
 10 11  1  0
 11 12  1  0
 12 13  1  0
 13 14  1  0
 14 15  1  0
 15 16  1  0
 14 17  1  0
 17 18  1  0
 18 19  1  0
 19 20  1  0
 20 21  1  0
 21 22  1  0
 10 23  1  0
 23 24  2  0
 24  3  1  0
 23  6  1  0
 16 11  1  0
 22 14  1  0
  1 25  1  0
  1 26  1  0
  1 27  1  0
  4 28  1  0
  5 29  1  0
  7 30  1  0
  8 31  1  0
 12 32  1  0
 12 33  1  0
 13 34  1  0
 13 35  1  0
 15 36  1  0
 15 37  1  0
 16 38  1  0
 16 39  1  0
 17 40  1  0
 17 41  1  0
 18 42  1  0
 19 43  1  0
 19 44  1  0
 20 45  1  0
 20 46  1  0
 22 47  1  0
 22 48  1  0
 24 49  1  0
M  CHG  1   7   1
M  END
>  <UniqueID>  (17) 
17

>  <SMILES>  (17) 
COc1ccc2[nH+]cnc(N3CCC4(CC3)CNCCOC4)c2c1

>  <Energy>  (17) 
87.38675417169014

>  <Genealogy>  (17) 
COc1ccc2[nH+]cnc(N3CCC4(CC3)CNCCOC4)c2c1 (protonated)
COc1ccc2[nH+]cnc(N3CCC4(CC3)CNCCOC4)c2c1 (3D coordinates assigned)
COc1ccc2[nH+]cnc(N3CCC4(CC3)CNCCOC4)c2c1 (nonaromatic ring conformer: 87.38675417169014 kcal/mol)

>  <smiles>  (17) 
COc1ccc2ncnc(N3CCC4(CC3)CNCCOC4)c2c1

>  <score_type>  (17) 
oracle

>  <origin>  (17) 
adg

>  <m_score__min__energy>  (17) 
-4.1500000000000004

>  <m_primary>  (17) 
energy

$$$$
17:0
     RDKit          3D

 39 40  0  0  0  0  0  0  0  0999 V2000
   58.1480   26.7730   42.5900 C   0  0  0  0  0  0  0  0  0  0  0  0
   58.4980   27.5780   43.8380 C   0  0  0  0  0  0  0  0  0  0  0  0
   57.2820   27.8930   44.6130 N   0  0  0  0  0  0  0  0  0  0  0  0
   57.4080   27.5780   46.0520 C   0  0  0  0  0  0  0  0  0  0  0  0
   58.8020   27.0980   46.4690 C   0  0  0  0  0  0  0  0  0  0  0  0
   56.6450   29.5030   44.3060 S   0  0  0  0  0  0  0  0  0  0  0  0
   56.5500   29.7100   42.8210 O   0  0  0  0  0  0  0  0  0  0  0  0
   55.2530   29.6090   44.8650 O   0  0  0  0  0  0  0  0  0  0  0  0
   57.6300   30.8100   44.9830 C   0  0  0  0  0  0  0  0  0  0  0  0
   58.6740   30.5110   45.8940 C   0  0  0  0  0  0  0  0  0  0  0  0
   59.4790   31.5330   46.4280 C   0  0  0  0  0  0  0  0  0  0  0  0
   59.2320   32.8430   46.0140 C   0  0  0  0  0  0  0  0  0  0  0  0
   58.2400   33.1330   45.1150 C   0  0  0  0  0  0  0  0  0  0  0  0
   58.2410   34.4970   44.9160 C   0  0  0  0  0  0  0  0  0  0  0  0
   59.2590   34.9860   45.7270 C   0  0  0  0  0  0  0  0  0  0  0  0
   59.8700   33.9710   46.3870 N   0  0  0  0  0  0  0  0  0  0  0  0
   60.9450   34.1130   47.3690 C   0  0  0  0  0  0  0  0  0  0  0  0
   60.3690   34.1970   48.7770 C   0  0  0  0  0  0  0  0  0  0  0  0
   57.4260   32.1440   44.5700 C   0  0  0  0  0  0  0  0  0  0  0  0
   57.7257   25.8016   42.8867 H   0  0  0  0  0  0  0  0  0  0  0  0
   57.4093   27.3266   41.9918 H   0  0  0  0  0  0  0  0  0  0  0  0
   59.0567   26.6104   41.9918 H   0  0  0  0  0  0  0  0  0  0  0  0
   59.1844   26.9909   44.4658 H   0  0  0  0  0  0  0  0  0  0  0  0
   58.9748   28.5200   43.5293 H   0  0  0  0  0  0  0  0  0  0  0  0
   57.1693   28.4854   46.6262 H   0  0  0  0  0  0  0  0  0  0  0  0
   56.7136   26.7498   46.2568 H   0  0  0  0  0  0  0  0  0  0  0  0
   58.8687   27.0750   47.5667 H   0  0  0  0  0  0  0  0  0  0  0  0
   58.9766   26.0880   46.0698 H   0  0  0  0  0  0  0  0  0  0  0  0
   59.5615   27.7864   46.0698 H   0  0  0  0  0  0  0  0  0  0  0  0
   58.8568   29.4666   46.1869 H   0  0  0  0  0  0  0  0  0  0  0  0
   60.2782   31.3072   47.1493 H   0  0  0  0  0  0  0  0  0  0  0  0
   57.5777   35.0754   44.2561 H   0  0  0  0  0  0  0  0  0  0  0  0
   59.5308   36.0478   45.8203 H   0  0  0  0  0  0  0  0  0  0  0  0
   61.6144   33.2426   47.3023 H   0  0  0  0  0  0  0  0  0  0  0  0
   61.5039   35.0362   47.1559 H   0  0  0  0  0  0  0  0  0  0  0  0
   61.1788   34.0789   49.5121 H   0  0  0  0  0  0  0  0  0  0  0  0
   59.8858   35.1751   48.9177 H   0  0  0  0  0  0  0  0  0  0  0  0
   59.6266   33.3976   48.9177 H   0  0  0  0  0  0  0  0  0  0  0  0
   56.6450   32.3954   43.8373 H   0  0  0  0  0  0  0  0  0  0  0  0
  1  2  1  0
  2  3  1  0
  3  4  1  0
  4  5  1  0
  3  6  1  0
  6  7  2  0
  6  8  2  0
  6  9  1  0
  9 10  2  0
 10 11  1  0
 11 12  2  0
 12 13  1  0
 13 14  1  0
 14 15  2  0
 15 16  1  0
 16 17  1  0
 17 18  1  0
 13 19  2  0
 19  9  1  0
 16 12  1  0
  1 20  1  0
  1 21  1  0
  1 22  1  0
  2 23  1  0
  2 24  1  0
  4 25  1  0
  4 26  1  0
  5 27  1  0
  5 28  1  0
  5 29  1  0
 10 30  1  0
 11 31  1  0
 14 32  1  0
 15 33  1  0
 17 34  1  0
 17 35  1  0
 18 36  1  0
 18 37  1  0
 18 38  1  0
 19 39  1  0
M  END
>  <UniqueID>  (18) 
18

>  <SMILES>  (18) 
CCN(CC)S(=O)(=O)c1ccc2c(ccn2CC)c1

>  <Energy>  (18) 
69.10509510148631

>  <Genealogy>  (18) 
CCN(CC)S(=O)(=O)c1ccc2c(ccn2CC)c1 (3D coordinates assigned)
CCN(CC)S(=O)(=O)c1ccc2c(ccn2CC)c1 (optimized conformer: 69.10509510148631 kcal/mol)

>  <smiles>  (18) 
CCN(CC)S(=O)(=O)c1ccc2c(ccn2CC)c1

>  <score_type>  (18) 
oracle

>  <origin>  (18) 
adg

>  <m_score__min__energy>  (18) 
-7.3399999999999999

>  <m_primary>  (18) 
energy

$$$$
18:0
     RDKit          3D

 37 39  0  0  0  0  0  0  0  0999 V2000
   61.0380   28.4520   49.9510 F   0  0  0  0  0  0  0  0  0  0  0  0
   60.2160   29.5230   49.8250 C   0  0  0  0  0  0  0  0  0  0  0  0
   59.7700   30.1980   50.9650 C   0  0  0  0  0  0  0  0  0  0  0  0
   58.9270   31.3040   50.8360 C   0  0  0  0  0  0  0  0  0  0  0  0
   58.5260   31.7360   49.5680 C   0  0  0  0  0  0  0  0  0  0  0  0
   58.9610   31.0620   48.4170 C   0  0  0  0  0  0  0  0  0  0  0  0
   58.5320   31.5280   47.1230 N   0  0  0  0  0  0  0  0  0  0  0  0
   58.8560   32.8220   46.5980 C   0  0  0  0  0  0  0  0  0  0  0  0
   59.6520   33.6800   47.3700 C   0  0  0  0  0  0  0  0  0  0  0  0
   60.0000   34.9450   46.8930 C   0  0  0  0  0  0  0  0  0  0  0  0
   59.5460   35.3710   45.6460 C   0  0  0  0  0  0  0  0  0  0  0  0
   58.7310   34.5370   44.8760 C   0  0  0  0  0  0  0  0  0  0  0  0
   58.3680   33.2620   45.3420 C   0  0  0  0  0  0  0  0  0  0  0  0
   57.4190   32.4360   44.5050 C   0  0  0  0  0  0  0  0  0  0  0  0
   57.1150   31.2100   45.1670 O   0  0  0  0  0  0  0  0  0  0  0  0
   57.6010   29.9690   44.7440 C   0  0  0  0  0  0  0  0  0  0  0  0
   56.9280   29.2640   43.7420 C   0  0  0  0  0  0  0  0  0  0  0  0
   57.4020   28.0560   43.3350 N   0  0  0  0  0  0  0  0  0  0  0  0
   58.5260   27.5220   43.8860 C   0  0  0  0  0  0  0  0  0  0  0  0
   59.2010   28.2240   44.8860 C   0  0  0  0  0  0  0  0  0  0  0  0
   58.7260   29.4300   45.2910 N   0  0  0  0  0  0  0  0  0  0  0  0
   59.8170   29.9510   48.5550 C   0  0  0  0  0  0  0  0  0  0  0  0
   60.0829   29.8582   51.9633 H   0  0  0  0  0  0  0  0  0  0  0  0
   58.5780   31.8361   51.7333 H   0  0  0  0  0  0  0  0  0  0  0  0
   57.8651   32.6101   49.4723 H   0  0  0  0  0  0  0  0  0  0  0  0
   57.8310   30.9590   46.5970 H   0  0  0  0  0  0  0  0  0  0  0  0
   60.0051   33.3538   48.3594 H   0  0  0  0  0  0  0  0  0  0  0  0
   60.6334   35.6065   47.5022 H   0  0  0  0  0  0  0  0  0  0  0  0
   59.8294   36.3643   45.2678 H   0  0  0  0  0  0  0  0  0  0  0  0
   58.3702   34.8819   43.8958 H   0  0  0  0  0  0  0  0  0  0  0  0
   56.4896   33.0021   44.3448 H   0  0  0  0  0  0  0  0  0  0  0  0
   57.8952   32.2128   43.5389 H   0  0  0  0  0  0  0  0  0  0  0  0
   56.0198   29.6841   43.2851 H   0  0  0  0  0  0  0  0  0  0  0  0
   56.8970   27.5300   42.5870 H   0  0  0  0  0  0  0  0  0  0  0  0
   58.8996   26.5449   43.5460 H   0  0  0  0  0  0  0  0  0  0  0  0
   60.1097   27.8040   45.3420 H   0  0  0  0  0  0  0  0  0  0  0  0
   60.1725   29.4186   47.6605 H   0  0  0  0  0  0  0  0  0  0  0  0
  1  2  1  0
  2  3  2  0
  3  4  1  0
  4  5  2  0
  5  6  1  0
  6  7  1  0
  7  8  1  0
  8  9  2  0
  9 10  1  0
 10 11  2  0
 11 12  1  0
 12 13  2  0
 13 14  1  0
 14 15  1  0
 15 16  1  0
 16 17  2  0
 17 18  1  0
 18 19  2  0
 19 20  1  0
 20 21  2  0
  6 22  2  0
 22  2  1  0
 13  8  1  0
 21 16  1  0
  3 23  1  0
  4 24  1  0
  5 25  1  0
  7 26  1  0
  9 27  1  0
 10 28  1  0
 11 29  1  0
 12 30  1  0
 14 31  1  0
 14 32  1  0
 17 33  1  0
 18 34  1  0
 19 35  1  0
 20 36  1  0
 22 37  1  0
M  CHG  1  18   1
M  END
>  <UniqueID>  (19) 
19

>  <SMILES>  (19) 
Fc1cccc(Nc2ccccc2COc2c[nH+]ccn2)c1

>  <Energy>  (19) 
46.72881476960091

>  <Genealogy>  (19) 
Fc1cccc(Nc2ccccc2COc2c[nH+]ccn2)c1 (protonated)
Fc1cccc(Nc2ccccc2COc2c[nH+]ccn2)c1 (3D coordinates assigned)
Fc1cccc(Nc2ccccc2COc2c[nH+]ccn2)c1 (optimized conformer: 46.72881476960091 kcal/mol)

>  <smiles>  (19) 
Fc1cccc(Nc2ccccc2COc2cnccn2)c1

>  <score_type>  (19) 
oracle

>  <origin>  (19) 
adg

>  <m_score__min__energy>  (19) 
-5.0899999999999999

>  <m_primary>  (19) 
energy

$$$$
19:0
     RDKit          3D

 42 43  0  0  0  0  0  0  0  0999 V2000
   60.4120   26.7260   47.0540 C   0  0  0  0  0  0  0  0  0  0  0  0
   59.8610   28.1130   47.1780 C   0  0  0  0  0  0  0  0  0  0  0  0
   59.1560   28.5860   48.2690 C   0  0  0  0  0  0  0  0  0  0  0  0
   58.8180   29.8920   47.9820 C   0  0  0  0  0  0  0  0  0  0  0  0
   59.3290   30.1650   46.7260 C   0  0  0  0  0  0  0  0  0  0  0  0
   59.1810   31.4920   46.0170 C   0  0  0  0  0  0  0  0  0  0  0  0
   57.7710   31.9530   45.9860 N   0  0  1  0  0  0  0  0  0  0  0  0
   57.5950   33.1440   46.8450 C   0  0  0  0  0  0  0  0  0  0  0  0
   57.3770   32.2450   44.5860 C   0  0  0  0  0  0  0  0  0  0  0  0
   56.6470   31.0660   43.9150 C   0  0  0  0  0  0  0  0  0  0  0  0
   56.4500   30.0010   44.8450 O   0  0  0  0  0  0  0  0  0  0  0  0
   56.9540   28.6960   44.7100 C   0  0  0  0  0  0  0  0  0  0  0  0
   56.7950   27.7090   45.7040 C   0  0  0  0  0  0  0  0  0  0  0  0
   57.3200   26.4260   45.5120 C   0  0  0  0  0  0  0  0  0  0  0  0
   58.0010   26.1160   44.3320 C   0  0  0  0  0  0  0  0  0  0  0  0
   58.1590   27.0880   43.3420 C   0  0  0  0  0  0  0  0  0  0  0  0
   57.6380   28.3720   43.5310 C   0  0  0  0  0  0  0  0  0  0  0  0
   59.9810   29.0830   46.2410 N   0  0  0  0  0  0  0  0  0  0  0  0
   60.6080   28.9590   44.9250 C   0  0  0  0  0  0  0  0  0  0  0  0
   60.5786   26.3066   48.0572 H   0  0  0  0  0  0  0  0  0  0  0  0
   59.6964   26.0947   46.5069 H   0  0  0  0  0  0  0  0  0  0  0  0
   61.3657   26.7579   46.5069 H   0  0  0  0  0  0  0  0  0  0  0  0
   58.9124   28.0298   49.1862 H   0  0  0  0  0  0  0  0  0  0  0  0
   58.2526   30.5816   48.6260 H   0  0  0  0  0  0  0  0  0  0  0  0
   59.7888   32.2442   46.5412 H   0  0  0  0  0  0  0  0  0  0  0  0
   59.5179   31.3609   44.9781 H   0  0  0  0  0  0  0  0  0  0  0  0
   57.1600   31.1830   46.3500 H   0  0  0  0  0  0  0  0  0  0  0  0
   57.6394   32.8434   47.9022 H   0  0  0  0  0  0  0  0  0  0  0  0
   58.3958   33.8685   46.6359 H   0  0  0  0  0  0  0  0  0  0  0  0
   56.6188   33.6059   46.6359 H   0  0  0  0  0  0  0  0  0  0  0  0
   56.7096   33.1194   44.5834 H   0  0  0  0  0  0  0  0  0  0  0  0
   58.2977   32.4340   44.0145 H   0  0  0  0  0  0  0  0  0  0  0  0
   55.6691   31.4092   43.5462 H   0  0  0  0  0  0  0  0  0  0  0  0
   57.2613   30.6980   43.0800 H   0  0  0  0  0  0  0  0  0  0  0  0
   56.2568   27.9480   46.6331 H   0  0  0  0  0  0  0  0  0  0  0  0
   57.1963   25.6600   46.2917 H   0  0  0  0  0  0  0  0  0  0  0  0
   58.4124   25.1068   44.1830 H   0  0  0  0  0  0  0  0  0  0  0  0
   58.6939   26.8435   42.4124 H   0  0  0  0  0  0  0  0  0  0  0  0
   57.7663   29.1336   42.7477 H   0  0  0  0  0  0  0  0  0  0  0  0
   61.6803   28.7469   45.0483 H   0  0  0  0  0  0  0  0  0  0  0  0
   60.1333   28.1373   44.3686 H   0  0  0  0  0  0  0  0  0  0  0  0
   60.4818   29.8995   44.3686 H   0  0  0  0  0  0  0  0  0  0  0  0
  1  2  1  0
  2  3  2  0
  3  4  1  0
  4  5  2  0
  5  6  1  0
  6  7  1  0
  7  8  1  0
  7  9  1  0
  9 10  1  0
 10 11  1  0
 11 12  1  0
 12 13  2  0
 13 14  1  0
 14 15  2  0
 15 16  1  0
 16 17  2  0
  5 18  1  0
 18 19  1  0
 18  2  1  0
 17 12  1  0
  1 20  1  0
  1 21  1  0
  1 22  1  0
  3 23  1  0
  4 24  1  0
  6 25  1  0
  6 26  1  0
  7 27  1  1
  8 28  1  0
  8 29  1  0
  8 30  1  0
  9 31  1  0
  9 32  1  0
 10 33  1  0
 10 34  1  0
 13 35  1  0
 14 36  1  0
 15 37  1  0
 16 38  1  0
 17 39  1  0
 19 40  1  0
 19 41  1  0
 19 42  1  0
M  CHG  1   7   1
M  END
>  <UniqueID>  (20) 
20

>  <SMILES>  (20) 
Cc1ccc(C[N@@H+](C)CCOc2ccccc2)n1C

>  <Energy>  (20) 
68.08691181120359

>  <Genealogy>  (20) 
Cc1ccc(C[NH+](C)CCOc2ccccc2)n1C (protonated)
Cc1ccc(C[N@@H+](C)CCOc2ccccc2)n1C (chirality)
Cc1ccc(C[N@@H+](C)CCOc2ccccc2)n1C (3D coordinates assigned)
Cc1ccc(C[N@@H+](C)CCOc2ccccc2)n1C (optimized conformer: 68.08691181120359 kcal/mol)

>  <smiles>  (20) 
Cc1ccc(CN(C)CCOc2ccccc2)n1C

>  <score_type>  (20) 
oracle

>  <origin>  (20) 
adg

>  <m_score__min__energy>  (20) 
-3.6099999999999999

>  <m_primary>  (20) 
energy

$$$$
20:0
     RDKit          3D

 29 30  0  0  0  0  0  0  0  0999 V2000
   58.3880   27.2790   47.4580 C   0  0  0  0  0  0  0  0  0  0  0  0
   57.6050   27.2600   46.3750 C   0  0  0  0  0  0  0  0  0  0  0  0
   57.3570   28.5370   45.6220 C   0  0  0  0  0  0  0  0  0  0  0  0
   57.0840   25.9750   45.8420 C   0  0  0  0  0  0  0  0  0  0  0  0
   57.9860   24.9890   45.4080 C   0  0  0  0  0  0  0  0  0  0  0  0
   57.5200   23.7660   44.9040 C   0  0  0  0  0  0  0  0  0  0  0  0
   58.4220   22.7790   44.4790 C   0  0  0  0  0  0  0  0  0  0  0  0
   57.9490   21.5630   43.9810 C   0  0  0  0  0  0  0  0  0  0  0  0
   56.5750   21.3100   43.8970 C   0  0  0  0  0  0  0  0  0  0  0  0
   56.1580   20.0710   43.3870 O   0  0  0  0  0  0  0  0  0  0  0  0
   55.5550   19.0430   44.1660 C   0  0  0  0  0  0  0  0  0  0  0  0
   55.6650   22.2970   44.3220 C   0  0  0  0  0  0  0  0  0  0  0  0
   56.1310   23.5210   44.8260 C   0  0  0  0  0  0  0  0  0  0  0  0
   55.2300   24.5090   45.2480 C   0  0  0  0  0  0  0  0  0  0  0  0
   55.6970   25.7290   45.7470 C   0  0  0  0  0  0  0  0  0  0  0  0
   54.7750   26.7000   46.1230 O   0  0  0  0  0  0  0  0  0  0  0  0
   58.5764   26.3504   48.0168 H   0  0  0  0  0  0  0  0  0  0  0  0
   58.8440   28.2232   47.7905 H   0  0  0  0  0  0  0  0  0  0  0  0
   57.1975   29.3585   46.3359 H   0  0  0  0  0  0  0  0  0  0  0  0
   58.2277   28.7647   44.9895 H   0  0  0  0  0  0  0  0  0  0  0  0
   56.4644   28.4223   44.9895 H   0  0  0  0  0  0  0  0  0  0  0  0
   59.0682   25.1781   45.4641 H   0  0  0  0  0  0  0  0  0  0  0  0
   59.5048   22.9635   44.5382 H   0  0  0  0  0  0  0  0  0  0  0  0
   58.6644   20.7954   43.6510 H   0  0  0  0  0  0  0  0  0  0  0  0
   55.6868   19.2677   45.2347 H   0  0  0  0  0  0  0  0  0  0  0  0
   54.4815   18.9880   43.9326 H   0  0  0  0  0  0  0  0  0  0  0  0
   56.0309   18.0791   43.9326 H   0  0  0  0  0  0  0  0  0  0  0  0
   54.5833   22.1076   44.2586 H   0  0  0  0  0  0  0  0  0  0  0  0
   54.1476   24.3230   45.1861 H   0  0  0  0  0  0  0  0  0  0  0  0
  1  2  2  0
  2  3  1  0
  2  4  1  0
  4  5  2  0
  5  6  1  0
  6  7  2  0
  7  8  1  0
  8  9  2  0
  9 10  1  0
 10 11  1  0
  9 12  1  0
 12 13  2  0
 13 14  1  0
 14 15  2  0
 15 16  1  0
 15  4  1  0
 13  6  1  0
  1 17  1  0
  1 18  1  0
  3 19  1  0
  3 20  1  0
  3 21  1  0
  5 22  1  0
  7 23  1  0
  8 24  1  0
 11 25  1  0
 11 26  1  0
 11 27  1  0
 12 28  1  0
 14 29  1  0
M  CHG  1  16  -1
M  END
>  <UniqueID>  (21) 
21

>  <SMILES>  (21) 
C=C(C)c1cc2ccc(OC)cc2cc1[O-]

>  <Energy>  (21) 
35.82791055106524

>  <Genealogy>  (21) 
C=C(C)c1cc2ccc(OC)cc2cc1[O-] (protonated)
C=C(C)c1cc2ccc(OC)cc2cc1[O-] (3D coordinates assigned)
C=C(C)c1cc2ccc(OC)cc2cc1[O-] (optimized conformer: 35.82791055106524 kcal/mol)

>  <smiles>  (21) 
C=C(C)c1cc2ccc(OC)cc2cc1O

>  <score_type>  (21) 
oracle

>  <origin>  (21) 
adg

>  <m_score__min__energy>  (21) 
-8.9299999999999997

>  <m_primary>  (21) 
energy

$$$$
21:0
     RDKit          3D

 45 46  0  0  0  0  0  0  0  0999 V2000
   59.0810   28.1010   46.8880 C   0  0  0  0  0  0  0  0  0  0  0  0
   57.8410   28.3780   46.1280 C   0  0  0  0  0  0  0  0  0  0  0  0
   57.9780   28.8490   44.7880 N   0  0  0  0  0  0  0  0  0  0  0  0
   58.8850   27.9390   44.0680 C   0  0  0  0  0  0  0  0  0  0  0  0
   58.1440   27.1050   43.0580 C   0  0  0  0  0  0  0  0  0  0  0  0
   56.8090   29.0130   44.0130 C   0  0  0  0  0  0  0  0  0  0  0  0
   56.3160   30.4620   44.1270 C   0  0  0  0  0  0  0  0  0  0  0  0
   57.0500   31.2730   44.8490 O   0  0  0  0  0  0  0  0  0  0  0  0
   57.7680   32.0670   45.5540 C   0  0  0  0  0  0  0  0  0  0  0  0
   57.8710   33.4370   45.2580 C   0  0  0  0  0  0  0  0  0  0  0  0
   58.6430   34.2890   46.0170 C   0  0  0  0  0  0  0  0  0  0  0  0
   59.3160   33.7470   47.0850 C   0  0  0  0  0  0  0  0  0  0  0  0
   60.1000   34.5820   47.8650 O   0  0  0  0  0  0  0  0  0  0  0  0
   61.4390   34.2020   48.0810 C   0  0  0  0  0  0  0  0  0  0  0  0
   61.9930   34.2070   49.3480 C   0  0  0  0  0  0  0  0  0  0  0  0
   63.3190   33.8270   49.5290 C   0  0  0  0  0  0  0  0  0  0  0  0
   64.0580   33.4470   48.4200 C   0  0  0  0  0  0  0  0  0  0  0  0
   63.5250   33.4370   47.1570 C   0  0  0  0  0  0  0  0  0  0  0  0
   62.2000   33.8200   46.9990 C   0  0  0  0  0  0  0  0  0  0  0  0
   59.2680   32.4190   47.4390 C   0  0  0  0  0  0  0  0  0  0  0  0
   58.4910   31.5900   46.6680 C   0  0  0  0  0  0  0  0  0  0  0  0
   58.8685   28.1485   47.9662 H   0  0  0  0  0  0  0  0  0  0  0  0
   59.4521   27.0978   46.6312 H   0  0  0  0  0  0  0  0  0  0  0  0
   59.8437   28.8509   46.6312 H   0  0  0  0  0  0  0  0  0  0  0  0
   57.2623   27.4432   46.0906 H   0  0  0  0  0  0  0  0  0  0  0  0
   57.3623   29.2082   46.6680 H   0  0  0  0  0  0  0  0  0  0  0  0
   58.4690   29.7660   44.8210 H   0  0  0  0  0  0  0  0  0  0  0  0
   59.6495   28.5346   43.5476 H   0  0  0  0  0  0  0  0  0  0  0  0
   59.3474   27.2619   44.8013 H   0  0  0  0  0  0  0  0  0  0  0  0
   57.5012   26.3815   43.5807 H   0  0  0  0  0  0  0  0  0  0  0  0
   57.5232   27.7585   42.4275 H   0  0  0  0  0  0  0  0  0  0  0  0
   58.8660   26.5654   42.4275 H   0  0  0  0  0  0  0  0  0  0  0  0
   57.0321   28.7838   42.9605 H   0  0  0  0  0  0  0  0  0  0  0  0
   56.0280   28.3310   44.3803 H   0  0  0  0  0  0  0  0  0  0  0  0
   56.2602   30.8773   43.1100 H   0  0  0  0  0  0  0  0  0  0  0  0
   55.3493   30.4012   44.6484 H   0  0  0  0  0  0  0  0  0  0  0  0
   57.3196   33.8404   44.3959 H   0  0  0  0  0  0  0  0  0  0  0  0
   58.7175   35.3600   45.7775 H   0  0  0  0  0  0  0  0  0  0  0  0
   61.3852   34.5115   50.2128 H   0  0  0  0  0  0  0  0  0  0  0  0
   63.7715   33.8281   50.5316 H   0  0  0  0  0  0  0  0  0  0  0  0
   65.1063   33.1435   48.5576 H   0  0  0  0  0  0  0  0  0  0  0  0
   64.1316   33.1333   46.2911 H   0  0  0  0  0  0  0  0  0  0  0  0
   61.7515   33.8183   45.9946 H   0  0  0  0  0  0  0  0  0  0  0  0
   59.8291   32.0365   48.3044 H   0  0  0  0  0  0  0  0  0  0  0  0
   58.4303   30.5225   46.9264 H   0  0  0  0  0  0  0  0  0  0  0  0
  1  2  1  0
  2  3  1  0
  3  4  1  0
  4  5  1  0
  3  6  1  0
  6  7  1  0
  7  8  1  0
  8  9  1  0
  9 10  2  0
 10 11  1  0
 11 12  2  0
 12 13  1  0
 13 14  1  0
 14 15  2  0
 15 16  1  0
 16 17  2  0
 17 18  1  0
 18 19  2  0
 12 20  1  0
 20 21  2  0
 21  9  1  0
 19 14  1  0
  1 22  1  0
  1 23  1  0
  1 24  1  0
  2 25  1  0
  2 26  1  0
  3 27  1  0
  4 28  1  0
  4 29  1  0
  5 30  1  0
  5 31  1  0
  5 32  1  0
  6 33  1  0
  6 34  1  0
  7 35  1  0
  7 36  1  0
 10 37  1  0
 11 38  1  0
 15 39  1  0
 16 40  1  0
 17 41  1  0
 18 42  1  0
 19 43  1  0
 20 44  1  0
 21 45  1  0
M  CHG  1   3   1
M  END
>  <UniqueID>  (22) 
22

>  <SMILES>  (22) 
CC[NH+](CC)CCOc1ccc(Oc2ccccc2)cc1

>  <Energy>  (22) 
186.5022042033413

>  <Genealogy>  (22) 
CC[NH+](CC)CCOc1ccc(Oc2ccccc2)cc1 (protonated)
CC[NH+](CC)CCOc1ccc(Oc2ccccc2)cc1 (3D coordinates assigned)
CC[NH+](CC)CCOc1ccc(Oc2ccccc2)cc1 (optimized conformer: 186.5022042033413 kcal/mol)

>  <smiles>  (22) 
CCN(CC)CCOc1ccc(Oc2ccccc2)cc1

>  <score_type>  (22) 
oracle

>  <origin>  (22) 
adg

>  <m_score__min__energy>  (22) 
-5.1100000000000003

>  <m_primary>  (22) 
energy

$$$$
22:0
     RDKit          3D

 48 50  0  0  0  0  0  0  0  0999 V2000
   59.0810   35.1450   45.0180 C   0  0  0  0  0  0  0  0  0  0  0  0
   58.5180   33.7610   44.8880 C   0  0  0  0  0  0  0  0  0  0  0  0
   58.4490   33.1400   43.6310 C   0  0  0  0  0  0  0  0  0  0  0  0
   57.9540   31.8370   43.5170 C   0  0  0  0  0  0  0  0  0  0  0  0
   57.5420   31.1370   44.6570 C   0  0  0  0  0  0  0  0  0  0  0  0
   56.9040   29.5010   44.5210 S   0  0  0  0  0  0  0  0  0  0  0  0
   56.9870   29.0500   43.0890 O   0  0  0  0  0  0  0  0  0  0  0  0
   55.4640   29.4740   44.9540 O   0  0  0  0  0  0  0  0  0  0  0  0
   57.8620   28.4140   45.5570 C   0  0  0  0  0  0  0  0  0  0  0  0
   59.0300   29.1460   46.1330 C   0  0  0  0  0  0  0  0  0  0  0  0
   60.1590   29.5370   45.4410 C   0  0  0  0  0  0  0  0  0  0  0  0
   60.9760   30.1410   46.3710 C   0  0  0  0  0  0  0  0  0  0  0  0
   60.2900   30.0810   47.5710 C   0  0  0  0  0  0  0  0  0  0  0  0
   60.7630   30.5800   48.8730 C   0  0  0  0  0  0  0  0  0  0  0  0
   60.6530   29.8420   49.8880 O   0  0  0  0  0  0  0  0  0  0  0  0
   61.3720   31.8760   49.0010 N   0  0  0  0  0  0  0  0  0  0  0  0
   62.6990   31.9520   49.6420 C   0  0  0  0  0  0  0  0  0  0  0  0
   63.8380   32.2950   48.6640 C   0  0  0  0  0  0  0  0  0  0  0  0
   63.3860   32.4540   47.1990 C   0  0  0  0  0  0  0  0  0  0  0  0
   62.5460   33.7060   46.8990 C   0  0  0  0  0  0  0  0  0  0  0  0
   61.0380   33.5180   47.1270 C   0  0  0  0  0  0  0  0  0  0  0  0
   60.6370   33.0710   48.5480 C   0  0  0  0  0  0  0  0  0  0  0  0
   59.1370   29.4760   47.3990 O   0  0  0  0  0  0  0  0  0  0  0  0
   57.6200   31.7520   45.9120 C   0  0  0  0  0  0  0  0  0  0  0  0
   58.1130   33.0550   46.0290 C   0  0  0  0  0  0  0  0  0  0  0  0
   59.1848   35.4001   46.0830 H   0  0  0  0  0  0  0  0  0  0  0  0
   60.0675   35.1866   44.5332 H   0  0  0  0  0  0  0  0  0  0  0  0
   58.4036   35.8634   44.5332 H   0  0  0  0  0  0  0  0  0  0  0  0
   58.7851   33.6796   42.7333 H   0  0  0  0  0  0  0  0  0  0  0  0
   57.8882   31.3604   42.5278 H   0  0  0  0  0  0  0  0  0  0  0  0
   57.2285   28.0399   46.3748 H   0  0  0  0  0  0  0  0  0  0  0  0
   58.2294   27.5726   44.9511 H   0  0  0  0  0  0  0  0  0  0  0  0
   60.3635   29.3955   44.3695 H   0  0  0  0  0  0  0  0  0  0  0  0
   61.9691   30.5804   46.1958 H   0  0  0  0  0  0  0  0  0  0  0  0
   62.6647   32.7275   50.4214 H   0  0  0  0  0  0  0  0  0  0  0  0
   62.9161   30.9549   50.0527 H   0  0  0  0  0  0  0  0  0  0  0  0
   64.2978   33.2404   48.9878 H   0  0  0  0  0  0  0  0  0  0  0  0
   64.5409   31.4492   48.6881 H   0  0  0  0  0  0  0  0  0  0  0  0
   64.2865   32.4907   46.5683 H   0  0  0  0  0  0  0  0  0  0  0  0
   62.7330   31.5941   46.9889 H   0  0  0  0  0  0  0  0  0  0  0  0
   62.8951   34.5207   47.5504 H   0  0  0  0  0  0  0  0  0  0  0  0
   62.6802   33.9300   45.8304 H   0  0  0  0  0  0  0  0  0  0  0  0
   60.5407   34.4770   46.9193 H   0  0  0  0  0  0  0  0  0  0  0  0
   60.7274   32.7057   46.4535 H   0  0  0  0  0  0  0  0  0  0  0  0
   60.8424   33.8955   49.2466 H   0  0  0  0  0  0  0  0  0  0  0  0
   59.5681   32.8124   48.5240 H   0  0  0  0  0  0  0  0  0  0  0  0
   57.2920   31.2078   46.8099 H   0  0  0  0  0  0  0  0  0  0  0  0
   58.1833   33.5277   47.0198 H   0  0  0  0  0  0  0  0  0  0  0  0
  1  2  1  0
  2  3  2  0
  3  4  1  0
  4  5  2  0
  5  6  1  0
  6  7  2  0
  6  8  2  0
  6  9  1  0
  9 10  1  0
 10 11  2  0
 11 12  1  0
 12 13  2  0
 13 14  1  0
 14 15  2  0
 14 16  1  0
 16 17  1  0
 17 18  1  0
 18 19  1  0
 19 20  1  0
 20 21  1  0
 21 22  1  0
 13 23  1  0
  5 24  1  0
 24 25  2  0
 25  2  1  0
 23 10  1  0
 22 16  1  0
  1 26  1  0
  1 27  1  0
  1 28  1  0
  3 29  1  0
  4 30  1  0
  9 31  1  0
  9 32  1  0
 11 33  1  0
 12 34  1  0
 17 35  1  0
 17 36  1  0
 18 37  1  0
 18 38  1  0
 19 39  1  0
 19 40  1  0
 20 41  1  0
 20 42  1  0
 21 43  1  0
 21 44  1  0
 22 45  1  0
 22 46  1  0
 24 47  1  0
 25 48  1  0
M  END
>  <UniqueID>  (23) 
23

>  <SMILES>  (23) 
Cc1ccc(S(=O)(=O)Cc2ccc(C(=O)N3CCCCCC3)o2)cc1

>  <Energy>  (23) 
78.13037848308528

>  <Genealogy>  (23) 
Cc1ccc(S(=O)(=O)Cc2ccc(C(=O)N3CCCCCC3)o2)cc1 (3D coordinates assigned)
Cc1ccc(S(=O)(=O)Cc2ccc(C(=O)N3CCCCCC3)o2)cc1 (nonaromatic ring conformer: 78.13037848308528 kcal/mol)

>  <smiles>  (23) 
Cc1ccc(S(=O)(=O)Cc2ccc(C(=O)N3CCCCCC3)o2)cc1

>  <score_type>  (23) 
oracle

>  <origin>  (23) 
adg

>  <m_score__min__energy>  (23) 
-7.3899999999999997

>  <m_primary>  (23) 
energy

$$$$
23:0
     RDKit          3D

 61 65  0  0  0  0  0  0  0  0999 V2000
   66.6060   30.6760   51.5870 C   0  0  0  0  0  0  0  0  0  0  0  0
   65.4900   31.3300   50.8330 C   0  0  0  0  0  0  0  0  0  0  0  0
   65.7440   32.4640   50.0500 C   0  0  0  0  0  0  0  0  0  0  0  0
   64.6950   33.0960   49.3600 C   0  0  0  0  0  0  0  0  0  0  0  0
   63.3790   32.5920   49.4290 C   0  0  0  0  0  0  0  0  0  0  0  0
   62.2810   33.3050   48.7950 N   0  0  0  0  0  0  0  0  0  0  0  0
   60.9120   33.1240   49.3200 C   0  0  0  0  0  0  0  0  0  0  0  0
   59.8550   33.3920   48.2470 C   0  0  0  0  0  0  0  0  0  0  0  0
   60.3300   32.8960   46.9480 N   0  0  0  0  0  0  0  0  0  0  0  0
   59.5340   31.9570   46.2050 C   0  0  0  0  0  0  0  0  0  0  0  0
   60.0410   30.6870   45.8910 C   0  0  0  0  0  0  0  0  0  0  0  0
   59.2400   29.7500   45.2330 C   0  0  0  0  0  0  0  0  0  0  0  0
   57.9180   30.0670   44.8880 C   0  0  0  0  0  0  0  0  0  0  0  0
   57.0400   29.0270   44.2500 C   0  0  0  0  0  0  0  0  0  0  0  0
   56.1390   28.4610   45.2460 N   0  0  0  0  0  0  0  0  0  0  0  0
   56.2660   27.1330   45.7660 C   0  0  0  0  0  0  0  0  0  0  0  0
   55.2370   26.4490   46.0060 O   0  0  0  0  0  0  0  0  0  0  0  0
   57.6130   26.6010   46.0850 C   0  0  0  0  0  0  0  0  0  0  0  0
   58.0150   25.4170   45.4430 C   0  0  0  0  0  0  0  0  0  0  0  0
   59.2980   24.9020   45.6270 C   0  0  0  0  0  0  0  0  0  0  0  0
   60.2050   25.5530   46.4560 C   0  0  0  0  0  0  0  0  0  0  0  0
   59.8280   26.7180   47.1370 C   0  0  0  0  0  0  0  0  0  0  0  0
   60.7420   27.3520   47.9940 C   0  0  0  0  0  0  0  0  0  0  0  0
   60.3690   28.4980   48.7020 C   0  0  0  0  0  0  0  0  0  0  0  0
   59.0790   29.0110   48.5710 C   0  0  0  0  0  0  0  0  0  0  0  0
   58.1560   28.3940   47.7210 C   0  0  0  0  0  0  0  0  0  0  0  0
   58.5190   27.2550   46.9680 C   0  0  0  0  0  0  0  0  0  0  0  0
   57.4120   31.3400   45.1970 C   0  0  0  0  0  0  0  0  0  0  0  0
   58.2140   32.2780   45.8520 C   0  0  0  0  0  0  0  0  0  0  0  0
   61.6440   33.3200   46.4360 C   0  0  0  0  0  0  0  0  0  0  0  0
   62.4600   34.0170   47.5230 C   0  0  0  0  0  0  0  0  0  0  0  0
   63.1360   31.4380   50.1950 C   0  0  0  0  0  0  0  0  0  0  0  0
   64.1840   30.8100   50.8850 C   0  0  0  0  0  0  0  0  0  0  0  0
   66.4287   30.7799   52.6676 H   0  0  0  0  0  0  0  0  0  0  0  0
   66.6505   29.6089   51.3237 H   0  0  0  0  0  0  0  0  0  0  0  0
   67.5587   31.1587   51.3237 H   0  0  0  0  0  0  0  0  0  0  0  0
   66.7672   32.8608   49.9751 H   0  0  0  0  0  0  0  0  0  0  0  0
   64.9025   33.9939   48.7593 H   0  0  0  0  0  0  0  0  0  0  0  0
   60.8016   32.0901   49.6789 H   0  0  0  0  0  0  0  0  0  0  0  0
   60.7604   33.8434   50.1382 H   0  0  0  0  0  0  0  0  0  0  0  0
   58.9217   32.8758   48.5163 H   0  0  0  0  0  0  0  0  0  0  0  0
   59.6723   34.4745   48.1785 H   0  0  0  0  0  0  0  0  0  0  0  0
   61.0745   30.4276   46.1642 H   0  0  0  0  0  0  0  0  0  0  0  0
   59.6481   28.7592   44.9845 H   0  0  0  0  0  0  0  0  0  0  0  0
   56.4499   29.4910   43.4459 H   0  0  0  0  0  0  0  0  0  0  0  0
   57.6696   28.2266   43.8341 H   0  0  0  0  0  0  0  0  0  0  0  0
   57.3078   24.8892   44.7863 H   0  0  0  0  0  0  0  0  0  0  0  0
   59.5942   23.9755   45.1134 H   0  0  0  0  0  0  0  0  0  0  0  0
   61.2220   25.1519   46.5776 H   0  0  0  0  0  0  0  0  0  0  0  0
   61.7573   26.9445   48.1088 H   0  0  0  0  0  0  0  0  0  0  0  0
   61.0937   28.9957   49.3631 H   0  0  0  0  0  0  0  0  0  0  0  0
   58.7859   29.9060   49.1395 H   0  0  0  0  0  0  0  0  0  0  0  0
   57.1369   28.7995   47.6377 H   0  0  0  0  0  0  0  0  0  0  0  0
   56.3791   31.5999   44.9220 H   0  0  0  0  0  0  0  0  0  0  0  0
   57.8092   33.2722   46.0921 H   0  0  0  0  0  0  0  0  0  0  0  0
   62.1952   32.4351   46.0850 H   0  0  0  0  0  0  0  0  0  0  0  0
   61.4845   34.0293   45.6105 H   0  0  0  0  0  0  0  0  0  0  0  0
   63.5242   34.0106   47.2448 H   0  0  0  0  0  0  0  0  0  0  0  0
   62.1181   35.0569   47.6311 H   0  0  0  0  0  0  0  0  0  0  0  0
   62.1181   31.0251   50.2536 H   0  0  0  0  0  0  0  0  0  0  0  0
   63.9823   29.9021   51.4724 H   0  0  0  0  0  0  0  0  0  0  0  0
  1  2  1  0
  2  3  2  0
  3  4  1  0
  4  5  2  0
  5  6  1  0
  6  7  1  0
  7  8  1  0
  8  9  1  0
  9 10  1  0
 10 11  2  0
 11 12  1  0
 12 13  2  0
 13 14  1  0
 14 15  1  0
 15 16  1  0
 16 17  2  0
 16 18  1  0
 18 19  2  0
 19 20  1  0
 20 21  2  0
 21 22  1  0
 22 23  2  0
 23 24  1  0
 24 25  2  0
 25 26  1  0
 26 27  2  0
 13 28  1  0
 28 29  2  0
  9 30  1  0
 30 31  1  0
  5 32  1  0
 32 33  2  0
 33  2  1  0
 31  6  1  0
 29 10  1  0
 27 18  1  0
 27 22  1  0
  1 34  1  0
  1 35  1  0
  1 36  1  0
  3 37  1  0
  4 38  1  0
  7 39  1  0
  7 40  1  0
  8 41  1  0
  8 42  1  0
 11 43  1  0
 12 44  1  0
 14 45  1  0
 14 46  1  0
 19 47  1  0
 20 48  1  0
 21 49  1  0
 23 50  1  0
 24 51  1  0
 25 52  1  0
 26 53  1  0
 28 54  1  0
 29 55  1  0
 30 56  1  0
 30 57  1  0
 31 58  1  0
 31 59  1  0
 32 60  1  0
 33 61  1  0
M  CHG  1  15  -1
M  END
>  <UniqueID>  (24) 
24

>  <SMILES>  (24) 
Cc1ccc(N2CCN(c3ccc(C[N-]C(=O)c4cccc5ccccc45)cc3)CC2)cc1

>  <Energy>  (24) 
84.31159880338592

>  <Genealogy>  (24) 
Cc1ccc(N2CCN(c3ccc(C[N-]C(=O)c4cccc5ccccc45)cc3)CC2)cc1 (protonated)
Cc1ccc(N2CCN(c3ccc(C[N-]C(=O)c4cccc5ccccc45)cc3)CC2)cc1 (3D coordinates assigned)
Cc1ccc(N2CCN(c3ccc(C[N-]C(=O)c4cccc5ccccc45)cc3)CC2)cc1 (nonaromatic ring conformer: 84.31159880338592 kcal/mol)

>  <smiles>  (24) 
Cc1ccc(N2CCN(c3ccc(CNC(=O)c4cccc5ccccc45)cc3)CC2)cc1

>  <score_type>  (24) 
oracle

>  <origin>  (24) 
adg

>  <m_score__min__energy>  (24) 
-11.26

>  <m_primary>  (24) 
energy

$$$$
24:0
     RDKit          3D

 33 34  0  0  0  0  0  0  0  0999 V2000
   59.7188   35.7636   46.5942 H   0  0  0  0  0  0  0  0  0  0  0  0
   59.1740   34.8810   46.2280 C   0  0  0  0  0  0  0  0  0  0  0  0
   58.5740   34.0040   47.1360 C   0  0  0  0  0  0  0  0  0  0  0  0
   58.6540   34.1916   48.2169 H   0  0  0  0  0  0  0  0  0  0  0  0
   57.8720   32.8880   46.6700 C   0  0  0  0  0  0  0  0  0  0  0  0
   57.4168   32.1884   47.3864 H   0  0  0  0  0  0  0  0  0  0  0  0
   57.7460   32.6570   45.2880 C   0  0  0  0  0  0  0  0  0  0  0  0
   57.0790   31.4870   44.7870 N   0  0  0  0  0  0  0  0  0  0  0  0
   57.4610   30.2430   44.8950 C   0  0  0  0  0  0  0  0  0  0  0  0
   58.6800   29.7780   44.3600 C   0  0  0  0  0  0  0  0  0  0  0  0
   59.3457   30.4672   43.8197 H   0  0  0  0  0  0  0  0  0  0  0  0
   59.0370   28.4380   44.5200 C   0  0  0  0  0  0  0  0  0  0  0  0
   59.9816   28.0654   44.0971 H   0  0  0  0  0  0  0  0  0  0  0  0
   58.1940   27.5720   45.2170 C   0  0  0  0  0  0  0  0  0  0  0  0
   58.6390   25.8480   45.4280 S   0  0  0  0  0  0  0  0  0  0  0  0
   57.0410   25.2310   44.7920 C   0  0  0  0  0  0  0  0  0  0  0  0
   56.3388   26.0734   44.7064 H   0  0  0  0  0  0  0  0  0  0  0  0
   56.6541   24.4755   45.4917 H   0  0  0  0  0  0  0  0  0  0  0  0
   57.2110   24.5790   43.4160 C   0  0  0  0  0  0  0  0  0  0  0  0
   58.2783   24.3680   43.2537 H   0  0  0  0  0  0  0  0  0  0  0  0
   56.8211   25.2779   42.6613 H   0  0  0  0  0  0  0  0  0  0  0  0
   56.4280   23.2740   43.2940 C   0  0  0  0  0  0  0  0  0  0  0  0
   56.1973   22.8895   44.2985 H   0  0  0  0  0  0  0  0  0  0  0  0
   55.4911   23.4582   42.7478 H   0  0  0  0  0  0  0  0  0  0  0  0
   57.0314   22.5340   42.7478 H   0  0  0  0  0  0  0  0  0  0  0  0
   57.0010   28.0650   45.7490 C   0  0  0  0  0  0  0  0  0  0  0  0
   56.3283   27.3924   46.3014 H   0  0  0  0  0  0  0  0  0  0  0  0
   56.6670   29.3740   45.5870 N   0  0  0  0  0  0  0  0  0  0  0  0
   55.7680   29.7120   46.0010 H   0  0  0  0  0  0  0  0  0  0  0  0
   58.3800   33.5220   44.3880 C   0  0  0  0  0  0  0  0  0  0  0  0
   58.3254   33.3231   43.3075 H   0  0  0  0  0  0  0  0  0  0  0  0
   59.0820   34.6370   44.8550 C   0  0  0  0  0  0  0  0  0  0  0  0
   59.5622   35.3227   44.1414 H   0  0  0  0  0  0  0  0  0  0  0  0
  1  2  1  0
  2  3  2  0
  3  4  1  0
  3  5  1  0
  5  6  1  0
  5  7  2  0
  7  8  1  0
  8  9  2  0
  9 10  1  0
 10 11  1  0
 10 12  2  0
 12 13  1  0
 12 14  1  0
 14 15  1  0
 15 16  1  0
 16 17  1  0
 16 18  1  0
 16 19  1  0
 19 20  1  0
 19 21  1  0
 19 22  1  0
 22 23  1  0
 22 24  1  0
 22 25  1  0
 14 26  2  0
 26 27  1  0
 26 28  1  0
 28 29  1  0
  7 30  1  0
 30 31  1  0
 30 32  2  0
 32 33  1  0
 32  2  1  0
 28  9  1  0
M  END
>  <UniqueID>  (25) 
25

>  <SMILES>  (25) 
CCCSc1cc/c(=N\c2ccccc2)[nH]c1

>  <Energy>  (25) 
34.7870632037672

>  <Genealogy>  (25) 
CCCSc1cc/c(=N\c2ccccc2)[nH]c1 (cis-trans isomerization)
CCCSc1cc/c(=N\c2ccccc2)[nH]c1 (3D coordinates assigned)
CCCSc1cc/c(=N\c2ccccc2)[nH]c1 (optimized conformer: 34.7870632037672 kcal/mol)

>  <smiles>  (25) 
CCCSc1ccc(=Nc2ccccc2)[nH]c1

>  <score_type>  (25) 
oracle

>  <origin>  (25) 
adg

>  <m_score__min__energy>  (25) 
-6.5300000000000002

>  <m_primary>  (25) 
energy

$$$$
25:0
     RDKit          3D

 42 43  0  0  0  0  0  0  0  0999 V2000
   59.8873   30.9463   49.0301 H   0  0  0  0  0  0  0  0  0  0  0  0
   60.5040   30.9840   48.1200 C   0  0  0  0  0  0  0  0  0  0  0  0
   61.4330   31.9790   48.0600 C   0  0  0  0  0  0  0  0  0  0  0  0
   61.1360   33.2730   48.6620 N   0  0  0  0  0  0  0  0  0  0  0  0
   59.7570   33.7940   48.7620 C   0  0  0  0  0  0  0  0  0  0  0  0
   59.1564   33.1080   49.3774 H   0  0  0  0  0  0  0  0  0  0  0  0
   59.7908   34.7926   49.2220 H   0  0  0  0  0  0  0  0  0  0  0  0
   59.1270   33.9130   47.3970 C   0  0  0  0  0  0  0  0  0  0  0  0
   57.8740   33.3290   47.1490 C   0  0  0  0  0  0  0  0  0  0  0  0
   57.3669   32.7627   47.9441 H   0  0  0  0  0  0  0  0  0  0  0  0
   57.2680   33.4640   45.8960 C   0  0  0  0  0  0  0  0  0  0  0  0
   56.2843   33.0085   45.7093 H   0  0  0  0  0  0  0  0  0  0  0  0
   57.9110   34.1770   44.8810 C   0  0  0  0  0  0  0  0  0  0  0  0
   57.4318   34.2858   43.8969 H   0  0  0  0  0  0  0  0  0  0  0  0
   59.1630   34.7520   45.1160 C   0  0  0  0  0  0  0  0  0  0  0  0
   59.6707   35.3091   44.3148 H   0  0  0  0  0  0  0  0  0  0  0  0
   59.7710   34.6200   46.3680 C   0  0  0  0  0  0  0  0  0  0  0  0
   60.7577   35.0716   46.5481 H   0  0  0  0  0  0  0  0  0  0  0  0
   62.2090   34.1810   49.0940 C   0  0  0  0  0  0  0  0  0  0  0  0
   62.1128   34.3473   50.1771 H   0  0  0  0  0  0  0  0  0  0  0  0
   62.0990   35.1154   48.5241 H   0  0  0  0  0  0  0  0  0  0  0  0
   63.6090   33.6310   48.8070 C   0  0  0  0  0  0  0  0  0  0  0  0
   63.8794   32.9164   49.5983 H   0  0  0  0  0  0  0  0  0  0  0  0
   64.3096   34.4787   48.7817 H   0  0  0  0  0  0  0  0  0  0  0  0
   63.6740   32.9470   47.5060 N   0  0  0  0  0  0  0  0  0  0  0  0
   63.3940   33.8380   46.3680 C   0  0  0  0  0  0  0  0  0  0  0  0
   63.0839   34.8247   46.7425 H   0  0  0  0  0  0  0  0  0  0  0  0
   64.3013   33.9468   45.7556 H   0  0  0  0  0  0  0  0  0  0  0  0
   62.5876   33.4083   45.7556 H   0  0  0  0  0  0  0  0  0  0  0  0
   62.8270   31.7420   47.4970 C   0  0  0  0  0  0  0  0  0  0  0  0
   63.3194   30.9652   48.1004 H   0  0  0  0  0  0  0  0  0  0  0  0
   62.7058   31.4380   46.4468 H   0  0  0  0  0  0  0  0  0  0  0  0
   60.2360   29.9660   47.1160 N   0  0  0  0  0  0  0  0  0  0  0  0
   61.1720   29.7140   46.7160 H   0  0  0  0  0  0  0  0  0  0  0  0
   59.7220   28.7250   47.7180 C   0  0  0  0  0  0  0  0  0  0  0  0
   59.7563   28.8077   48.8143 H   0  0  0  0  0  0  0  0  0  0  0  0
   58.6830   28.5636   47.3948 H   0  0  0  0  0  0  0  0  0  0  0  0
   60.3426   27.8763   47.3948 H   0  0  0  0  0  0  0  0  0  0  0  0
   59.4260   30.4220   45.9730 C   0  0  0  0  0  0  0  0  0  0  0  0
   58.5233   30.9302   46.3429 H   0  0  0  0  0  0  0  0  0  0  0  0
   60.0156   31.1208   45.3614 H   0  0  0  0  0  0  0  0  0  0  0  0
   59.1344   29.5555   45.3614 H   0  0  0  0  0  0  0  0  0  0  0  0
  1  2  1  0
  2  3  2  0
  3  4  1  0
  4  5  1  0
  5  6  1  0
  5  7  1  0
  5  8  1  0
  8  9  2  0
  9 10  1  0
  9 11  1  0
 11 12  1  0
 11 13  2  0
 13 14  1  0
 13 15  1  0
 15 16  1  0
 15 17  2  0
 17 18  1  0
  4 19  1  0
 19 20  1  0
 19 21  1  0
 19 22  1  0
 22 23  1  0
 22 24  1  0
 22 25  1  0
 25 26  1  0
 26 27  1  0
 26 28  1  0
 26 29  1  0
 25 30  1  0
 30 31  1  0
 30 32  1  0
  2 33  1  0
 33 34  1  0
 33 35  1  0
 35 36  1  0
 35 37  1  0
 35 38  1  0
 33 39  1  0
 39 40  1  0
 39 41  1  0
 39 42  1  0
 30  3  1  0
 17  8  1  0
M  CHG  1  33   1
M  END
>  <UniqueID>  (26) 
26

>  <SMILES>  (26) 
CN1CCN(Cc2ccccc2)/C(=C/[NH+](C)C)C1

>  <Energy>  (26) 
55.52972810303848

>  <Genealogy>  (26) 
CN1CCN(Cc2ccccc2)C(=C[NH+](C)C)C1 (protonated)
CN1CCN(Cc2ccccc2)/C(=C/[NH+](C)C)C1 (cis-trans isomerization)
CN1CCN(Cc2ccccc2)/C(=C/[NH+](C)C)C1 (3D coordinates assigned)
CN1CCN(Cc2ccccc2)/C(=C/[NH+](C)C)C1 (nonaromatic ring conformer: 55.52972810303848 kcal/mol)

>  <smiles>  (26) 
CN(C)C=C1CN(C)CCN1Cc1ccccc1

>  <score_type>  (26) 
oracle

>  <origin>  (26) 
adg

>  <m_score__min__energy>  (26) 
-4.5599999999999996

>  <m_primary>  (26) 
energy

$$$$
26:0
     RDKit          3D

 55 58  0  0  0  0  0  0  0  0999 V2000
   55.8550   30.7390   52.0290 C   0  0  0  0  0  0  0  0  0  0  0  0
   56.9900   30.4230   51.2280 O   0  0  0  0  0  0  0  0  0  0  0  0
   58.1860   31.1590   51.2190 C   0  0  0  0  0  0  0  0  0  0  0  0
   59.1610   31.0230   52.2180 C   0  0  0  0  0  0  0  0  0  0  0  0
   60.3260   31.7890   52.1720 C   0  0  0  0  0  0  0  0  0  0  0  0
   60.5590   32.6990   51.1220 C   0  0  0  0  0  0  0  0  0  0  0  0
   61.7940   33.4640   51.1210 N   0  0  0  0  0  0  0  0  0  0  0  0
   62.9230   32.6810   50.5930 C   0  0  0  0  0  0  0  0  0  0  0  0
   63.1980   33.0020   49.1540 C   0  0  0  0  0  0  0  0  0  0  0  0
   63.7560   32.1430   48.2280 C   0  0  0  0  0  0  0  0  0  0  0  0
   63.8590   32.8730   47.0640 C   0  0  0  0  0  0  0  0  0  0  0  0
   63.3470   34.1240   47.3490 C   0  0  0  0  0  0  0  0  0  0  0  0
   62.9620   34.1690   48.6040 O   0  0  0  0  0  0  0  0  0  0  0  0
   59.5790   32.8260   50.0980 C   0  0  0  0  0  0  0  0  0  0  0  0
   59.7030   33.7880   48.9780 C   0  0  0  0  0  0  0  0  0  0  0  0
   59.3700   34.9870   49.1730 O   0  0  0  0  0  0  0  0  0  0  0  0
   60.1130   33.3670   47.6540 N   0  0  0  0  0  0  0  0  0  0  0  0
   60.7210   32.0740   47.3680 C   0  0  0  0  0  0  0  0  0  0  0  0
   59.7940   31.2120   46.4930 C   0  0  0  0  0  0  0  0  0  0  0  0
   58.8380   31.9590   45.6350 N   0  0  0  0  0  0  0  0  0  0  0  0
   57.9160   31.1980   44.7890 C   0  0  0  0  0  0  0  0  0  0  0  0
   57.6440   31.5910   43.4540 C   0  0  0  0  0  0  0  0  0  0  0  0
   56.7620   30.8580   42.6520 C   0  0  0  0  0  0  0  0  0  0  0  0
   56.1310   29.7220   43.1550 C   0  0  0  0  0  0  0  0  0  0  0  0
   56.3880   29.3060   44.4610 C   0  0  0  0  0  0  0  0  0  0  0  0
   57.2710   30.0290   45.2700 C   0  0  0  0  0  0  0  0  0  0  0  0
   58.6770   33.4330   45.7050 C   0  0  0  0  0  0  0  0  0  0  0  0
   59.7850   34.1470   46.4700 C   0  0  0  0  0  0  0  0  0  0  0  0
   58.4000   32.0640   50.1760 C   0  0  0  0  0  0  0  0  0  0  0  0
   56.1246   30.6639   53.0928 H   0  0  0  0  0  0  0  0  0  0  0  0
   55.5229   31.7638   51.8063 H   0  0  0  0  0  0  0  0  0  0  0  0
   55.0411   30.0333   51.8063 H   0  0  0  0  0  0  0  0  0  0  0  0
   59.0065   30.3096   53.0409 H   0  0  0  0  0  0  0  0  0  0  0  0
   61.0758   31.6806   52.9695 H   0  0  0  0  0  0  0  0  0  0  0  0
   61.7140   34.3610   50.5950 H   0  0  0  0  0  0  0  0  0  0  0  0
   62.0140   33.7280   52.1100 H   0  0  0  0  0  0  0  0  0  0  0  0
   63.8214   32.9068   51.1863 H   0  0  0  0  0  0  0  0  0  0  0  0
   62.6618   31.6147   50.6618 H   0  0  0  0  0  0  0  0  0  0  0  0
   64.0552   31.0964   48.3863 H   0  0  0  0  0  0  0  0  0  0  0  0
   64.2666   32.5291   46.1019 H   0  0  0  0  0  0  0  0  0  0  0  0
   63.2730   34.9562   46.6335 H   0  0  0  0  0  0  0  0  0  0  0  0
   61.6716   32.2326   46.8378 H   0  0  0  0  0  0  0  0  0  0  0  0
   60.8940   31.5493   48.3192 H   0  0  0  0  0  0  0  0  0  0  0  0
   60.4259   30.5953   45.8370 H   0  0  0  0  0  0  0  0  0  0  0  0
   59.1764   30.6307   47.1935 H   0  0  0  0  0  0  0  0  0  0  0  0
   58.1338   32.4858   43.0424 H   0  0  0  0  0  0  0  0  0  0  0  0
   56.5658   31.1804   41.6188 H   0  0  0  0  0  0  0  0  0  0  0  0
   55.4317   29.1546   42.5233 H   0  0  0  0  0  0  0  0  0  0  0  0
   55.8945   28.4060   44.8565 H   0  0  0  0  0  0  0  0  0  0  0  0
   57.4687   29.6857   46.2962 H   0  0  0  0  0  0  0  0  0  0  0  0
   58.6576   33.8270   44.6782 H   0  0  0  0  0  0  0  0  0  0  0  0
   57.7419   33.6231   46.2523 H   0  0  0  0  0  0  0  0  0  0  0  0
   60.6750   34.2408   45.8305 H   0  0  0  0  0  0  0  0  0  0  0  0
   59.4488   35.1520   46.7650 H   0  0  0  0  0  0  0  0  0  0  0  0
   57.6298   32.1827   49.3996 H   0  0  0  0  0  0  0  0  0  0  0  0
  1  2  1  0
  2  3  1  0
  3  4  2  0
  4  5  1  0
  5  6  2  0
  6  7  1  0
  7  8  1  0
  8  9  1  0
  9 10  2  0
 10 11  1  0
 11 12  2  0
 12 13  1  0
  6 14  1  0
 14 15  1  0
 15 16  2  0
 15 17  1  0
 17 18  1  0
 18 19  1  0
 19 20  1  0
 20 21  1  0
 21 22  2  0
 22 23  1  0
 23 24  2  0
 24 25  1  0
 25 26  2  0
 20 27  1  0
 27 28  1  0
 14 29  2  0
 29  3  1  0
 13  9  1  0
 28 17  1  0
 26 21  1  0
  1 30  1  0
  1 31  1  0
  1 32  1  0
  4 33  1  0
  5 34  1  0
  7 35  1  0
  7 36  1  0
  8 37  1  0
  8 38  1  0
 10 39  1  0
 11 40  1  0
 12 41  1  0
 18 42  1  0
 18 43  1  0
 19 44  1  0
 19 45  1  0
 22 46  1  0
 23 47  1  0
 24 48  1  0
 25 49  1  0
 26 50  1  0
 27 51  1  0
 27 52  1  0
 28 53  1  0
 28 54  1  0
 29 55  1  0
M  CHG  1   7   1
M  END
>  <UniqueID>  (27) 
27

>  <SMILES>  (27) 
COc1ccc([NH2+]Cc2ccco2)c(C(=O)N2CCN(c3ccccc3)CC2)c1

>  <Energy>  (27) 
100.09479697885216

>  <Genealogy>  (27) 
COc1ccc([NH2+]Cc2ccco2)c(C(=O)N2CCN(c3ccccc3)CC2)c1 (protonated)
COc1ccc([NH2+]Cc2ccco2)c(C(=O)N2CCN(c3ccccc3)CC2)c1 (3D coordinates assigned)
COc1ccc([NH2+]Cc2ccco2)c(C(=O)N2CCN(c3ccccc3)CC2)c1 (nonaromatic ring conformer: 100.09479697885216 kcal/mol)

>  <smiles>  (27) 
COc1ccc(NCc2ccco2)c(C(=O)N2CCN(c3ccccc3)CC2)c1

>  <score_type>  (27) 
oracle

>  <origin>  (27) 
adg

>  <m_score__min__energy>  (27) 
-6.2699999999999996

>  <m_primary>  (27) 
energy

$$$$
27:0
     RDKit          3D

 22 24  0  0  0  0  0  0  0  0999 V2000
   59.2880   34.7730   44.8480 F   0  0  0  0  0  0  0  0  0  0  0  0
   59.0550   34.3700   46.1510 C   0  0  0  0  0  0  0  0  0  0  0  0
   57.6910   34.4170   46.3850 F   0  0  0  0  0  0  0  0  0  0  0  0
   59.6770   35.2510   47.0160 F   0  0  0  0  0  0  0  0  0  0  0  0
   59.6130   32.9780   46.3580 C   0  0  0  0  0  0  0  0  0  0  0  0
   60.8560   32.7890   46.9940 C   0  0  0  0  0  0  0  0  0  0  0  0
   61.3760   31.5060   47.1860 C   0  0  0  0  0  0  0  0  0  0  0  0
   60.6730   30.3830   46.7510 C   0  0  0  0  0  0  0  0  0  0  0  0
   59.4360   30.5330   46.1150 C   0  0  0  0  0  0  0  0  0  0  0  0
   58.7160   29.4010   45.6710 C   0  0  0  0  0  0  0  0  0  0  0  0
   57.4990   29.6400   45.0510 C   0  0  0  0  0  0  0  0  0  0  0  0
   56.6050   28.7900   44.5330 N   0  0  0  0  0  0  0  0  0  0  0  0
   55.6060   29.5310   44.0580 N   0  0  0  0  0  0  0  0  0  0  0  0
   55.8300   30.8320   44.2540 N   0  0  0  0  0  0  0  0  0  0  0  0
   57.0180   30.8910   44.8760 C   0  0  0  0  0  0  0  0  0  0  0  0
   57.6800   31.9960   45.2900 N   0  0  0  0  0  0  0  0  0  0  0  0
   58.8940   31.8460   45.9130 C   0  0  0  0  0  0  0  0  0  0  0  0
   61.4248   33.6630   47.3441 H   0  0  0  0  0  0  0  0  0  0  0  0
   62.3485   31.3810   47.6847 H   0  0  0  0  0  0  0  0  0  0  0  0
   61.0916   29.3780   46.9081 H   0  0  0  0  0  0  0  0  0  0  0  0
   59.1020   28.3804   45.8104 H   0  0  0  0  0  0  0  0  0  0  0  0
   56.6570   27.7480   44.4960 H   0  0  0  0  0  0  0  0  0  0  0  0
  1  2  1  0
  2  3  1  0
  2  4  1  0
  2  5  1  0
  5  6  2  0
  6  7  1  0
  7  8  2  0
  8  9  1  0
  9 10  2  0
 10 11  1  0
 11 12  1  0
 12 13  2  0
 13 14  1  0
 14 15  1  0
 15 16  1  0
 16 17  2  0
 17  5  1  0
 17  9  1  0
 15 11  2  0
  6 18  1  0
  7 19  1  0
  8 20  1  0
 10 21  1  0
 12 22  1  0
M  CHG  2  12   1  14  -1
M  END
>  <UniqueID>  (28) 
28

>  <SMILES>  (28) 
FC(F)(F)c1cccc2cc3[nH+]n[n-]c3nc12

>  <Energy>  (28) 
75.24755904794202

>  <Genealogy>  (28) 
FC(F)(F)c1cccc2cc3[nH+]n[n-]c3nc12 (protonated)
FC(F)(F)c1cccc2cc3[nH+]n[n-]c3nc12 (3D coordinates assigned)
FC(F)(F)c1cccc2cc3[nH+]n[n-]c3nc12 (optimized conformer: 75.24755904794202 kcal/mol)

>  <smiles>  (28) 
FC(F)(F)c1cccc2cc3nn[nH]c3nc12

>  <score_type>  (28) 
oracle

>  <origin>  (28) 
adg

>  <m_score__min__energy>  (28) 
-6.21

>  <m_primary>  (28) 
energy

$$$$
28:0
     RDKit          3D

 36 40  0  0  0  0  0  0  0  0999 V2000
   56.8600   34.5870   44.8720 C   0  0  0  0  0  0  0  0  0  0  0  0
   57.6450   33.3740   45.1640 N   0  0  0  0  0  0  0  0  0  0  0  0
   57.3920   32.2610   44.4160 C   0  0  0  0  0  0  0  0  0  0  0  0
   58.0320   31.0520   44.6760 C   0  0  0  0  0  0  0  0  0  0  0  0
   57.6740   29.9090   43.9390 C   0  0  0  0  0  0  0  0  0  0  0  0
   58.2180   28.6690   44.2570 C   0  0  0  0  0  0  0  0  0  0  0  0
   59.0910   28.5520   45.3350 C   0  0  0  0  0  0  0  0  0  0  0  0
   59.4630   29.6830   46.0660 C   0  0  0  0  0  0  0  0  0  0  0  0
   59.0000   30.9710   45.7050 C   0  0  0  0  0  0  0  0  0  0  0  0
   59.3940   32.1720   46.3690 C   0  0  0  0  0  0  0  0  0  0  0  0
   60.5250   32.2930   47.2260 C   0  0  0  0  0  0  0  0  0  0  0  0
   61.8210   31.2250   47.4870 S   0  0  0  0  0  0  0  0  0  0  0  0
   62.6700   32.2210   48.5330 C   0  0  0  0  0  0  0  0  0  0  0  0
   63.8820   31.9640   49.1690 C   0  0  0  0  0  0  0  0  0  0  0  0
   64.4230   32.9620   49.9920 C   0  0  0  0  0  0  0  0  0  0  0  0
   63.7520   34.1870   50.1560 C   0  0  0  0  0  0  0  0  0  0  0  0
   62.5330   34.4270   49.4990 C   0  0  0  0  0  0  0  0  0  0  0  0
   61.9920   33.4220   48.6830 C   0  0  0  0  0  0  0  0  0  0  0  0
   60.8030   33.4720   47.9280 C   0  0  0  0  0  0  0  0  0  0  0  0
   59.9730   34.5810   47.7920 C   0  0  0  0  0  0  0  0  0  0  0  0
   58.9140   34.5320   46.8880 C   0  0  0  0  0  0  0  0  0  0  0  0
   58.6290   33.3630   46.1320 C   0  0  0  0  0  0  0  0  0  0  0  0
   56.5531   35.0612   45.8159 H   0  0  0  0  0  0  0  0  0  0  0  0
   57.4746   35.2905   44.2911 H   0  0  0  0  0  0  0  0  0  0  0  0
   55.9665   34.3145   44.2911 H   0  0  0  0  0  0  0  0  0  0  0  0
   56.6674   32.3202   43.5905 H   0  0  0  0  0  0  0  0  0  0  0  0
   56.9600   29.9961   43.1067 H   0  0  0  0  0  0  0  0  0  0  0  0
   57.9591   27.7832   43.6583 H   0  0  0  0  0  0  0  0  0  0  0  0
   59.4896   27.5650   45.6124 H   0  0  0  0  0  0  0  0  0  0  0  0
   60.1265   29.5707   46.9362 H   0  0  0  0  0  0  0  0  0  0  0  0
   64.4008   31.0041   49.0295 H   0  0  0  0  0  0  0  0  0  0  0  0
   65.3764   32.7860   50.5116 H   0  0  0  0  0  0  0  0  0  0  0  0
   64.1848   34.9636   50.8037 H   0  0  0  0  0  0  0  0  0  0  0  0
   62.0113   35.3875   49.6226 H   0  0  0  0  0  0  0  0  0  0  0  0
   60.1511   35.4859   48.3915 H   0  0  0  0  0  0  0  0  0  0  0  0
   58.2815   35.4222   46.7559 H   0  0  0  0  0  0  0  0  0  0  0  0
  1  2  1  0
  2  3  2  0
  3  4  1  0
  4  5  2  0
  5  6  1  0
  6  7  2  0
  7  8  1  0
  8  9  2  0
  9 10  1  0
 10 11  2  0
 11 12  1  0
 12 13  1  0
 13 14  2  0
 14 15  1  0
 15 16  2  0
 16 17  1  0
 17 18  2  0
 18 19  1  0
 19 20  2  0
 20 21  1  0
 21 22  2  0
 22  2  1  0
  9  4  1  0
 22 10  1  0
 19 11  1  0
 18 13  1  0
  1 23  1  0
  1 24  1  0
  1 25  1  0
  3 26  1  0
  5 27  1  0
  6 28  1  0
  7 29  1  0
  8 30  1  0
 14 31  1  0
 15 32  1  0
 16 33  1  0
 17 34  1  0
 20 35  1  0
 21 36  1  0
M  CHG  1   2   1
M  END
>  <UniqueID>  (29) 
29

>  <SMILES>  (29) 
C[n+]1cc2ccccc2c2c3sc4ccccc4c3ccc21

>  <Energy>  (29) 
102.60838400948711

>  <Genealogy>  (29) 
C[n+]1cc2ccccc2c2c3sc4ccccc4c3ccc21 (3D coordinates assigned)
C[n+]1cc2ccccc2c2c3sc4ccccc4c3ccc21 (optimized conformer: 102.60838400948711 kcal/mol)

>  <smiles>  (29) 
C[n+]1cc2ccccc2c2c3sc4ccccc4c3ccc21

>  <score_type>  (29) 
oracle

>  <origin>  (29) 
adg

>  <m_score__min__energy>  (29) 
-6.6600000000000001

>  <m_primary>  (29) 
energy

$$$$
29:0
     RDKit          3D

 46 48  0  0  0  0  0  0  0  0999 V2000
   59.5800   33.8170   50.9640 C   0  0  0  0  0  0  0  0  0  0  0  0
   60.0870   33.9950   49.5660 C   0  0  0  0  0  0  0  0  0  0  0  0
   61.1830   34.5980   49.3990 O   0  0  0  0  0  0  0  0  0  0  0  0
   59.3420   33.4690   48.3900 C   0  0  0  0  0  0  0  0  0  0  0  0
   59.2190   34.2030   47.2760 C   0  0  0  0  0  0  0  0  0  0  0  0
   58.4790   33.6360   46.1080 C   0  0  0  0  0  0  0  0  0  0  0  0
   58.9270   32.1780   45.9170 C   0  0  2  0  0  0  0  0  0  0  0  0
   58.1540   31.5480   44.7780 C   0  0  0  0  0  0  0  0  0  0  0  0
   57.4270   30.3640   44.9880 C   0  0  0  0  0  0  0  0  0  0  0  0
   56.6810   29.8010   43.9490 C   0  0  0  0  0  0  0  0  0  0  0  0
   56.6660   30.4040   42.6890 C   0  0  0  0  0  0  0  0  0  0  0  0
   57.4060   31.5680   42.4630 C   0  0  0  0  0  0  0  0  0  0  0  0
   57.3860   32.3920   40.7400 Br  0  0  0  0  0  0  0  0  0  0  0  0
   58.1540   32.1350   43.5000 C   0  0  0  0  0  0  0  0  0  0  0  0
   58.7620   31.3640   47.1570 N   0  0  0  0  0  0  0  0  0  0  0  0
   60.0260   30.1600   47.2860 S   0  0  0  0  0  0  0  0  0  0  0  0
   60.3480   29.6060   45.9260 O   0  0  0  0  0  0  0  0  0  0  0  0
   59.5690   29.0350   48.1710 O   0  0  0  0  0  0  0  0  0  0  0  0
   61.4840   30.9010   47.9440 C   0  0  0  0  0  0  0  0  0  0  0  0
   61.8050   30.7660   49.3020 C   0  0  0  0  0  0  0  0  0  0  0  0
   62.9130   31.4350   49.8300 C   0  0  0  0  0  0  0  0  0  0  0  0
   63.7160   32.2380   49.0050 C   0  0  0  0  0  0  0  0  0  0  0  0
   64.8620   33.0110   49.5850 C   0  0  0  0  0  0  0  0  0  0  0  0
   63.3870   32.3770   47.6480 C   0  0  0  0  0  0  0  0  0  0  0  0
   62.2810   31.7050   47.1190 C   0  0  0  0  0  0  0  0  0  0  0  0
   58.6290   32.1290   48.4250 C   0  0  0  0  0  0  0  0  0  0  0  0
   60.3693   34.0941   51.6783 H   0  0  0  0  0  0  0  0  0  0  0  0
   58.7017   34.4605   51.1202 H   0  0  0  0  0  0  0  0  0  0  0  0
   59.2967   32.7657   51.1202 H   0  0  0  0  0  0  0  0  0  0  0  0
   59.6573   35.2105   47.2217 H   0  0  0  0  0  0  0  0  0  0  0  0
   57.3965   33.6707   46.3006 H   0  0  0  0  0  0  0  0  0  0  0  0
   58.6939   34.2212   45.2017 H   0  0  0  0  0  0  0  0  0  0  0  0
   60.0007   32.1934   45.6785 H   0  0  0  0  0  0  0  0  0  0  0  0
   57.4452   29.8781   45.9747 H   0  0  0  0  0  0  0  0  0  0  0  0
   56.1042   28.8808   44.1238 H   0  0  0  0  0  0  0  0  0  0  0  0
   56.0720   29.9629   41.8750 H   0  0  0  0  0  0  0  0  0  0  0  0
   58.7449   33.0442   43.3151 H   0  0  0  0  0  0  0  0  0  0  0  0
   61.1842   30.1328   49.9529 H   0  0  0  0  0  0  0  0  0  0  0  0
   63.1569   31.3316   50.8976 H   0  0  0  0  0  0  0  0  0  0  0  0
   64.8096   32.9757   50.6832 H   0  0  0  0  0  0  0  0  0  0  0  0
   65.8109   32.5677   49.2487 H   0  0  0  0  0  0  0  0  0  0  0  0
   64.8064   34.0569   49.2487 H   0  0  0  0  0  0  0  0  0  0  0  0
   64.0016   33.0171   46.9980 H   0  0  0  0  0  0  0  0  0  0  0  0
   62.0359   31.8080   46.0516 H   0  0  0  0  0  0  0  0  0  0  0  0
   57.5604   32.3060   48.6166 H   0  0  0  0  0  0  0  0  0  0  0  0
   59.0964   31.5296   49.2202 H   0  0  0  0  0  0  0  0  0  0  0  0
  1  2  1  0
  2  3  2  0
  2  4  1  0
  4  5  2  0
  5  6  1  0
  6  7  1  0
  7  8  1  0
  8  9  2  0
  9 10  1  0
 10 11  2  0
 11 12  1  0
 12 13  1  0
 12 14  2  0
  7 15  1  0
 15 16  1  0
 16 17  2  0
 16 18  2  0
 16 19  1  0
 19 20  2  0
 20 21  1  0
 21 22  2  0
 22 23  1  0
 22 24  1  0
 24 25  2  0
 15 26  1  0
 26  4  1  0
 14  8  1  0
 25 19  1  0
  1 27  1  0
  1 28  1  0
  1 29  1  0
  5 30  1  0
  6 31  1  0
  6 32  1  0
  7 33  1  6
  9 34  1  0
 10 35  1  0
 11 36  1  0
 14 37  1  0
 20 38  1  0
 21 39  1  0
 23 40  1  0
 23 41  1  0
 23 42  1  0
 24 43  1  0
 25 44  1  0
 26 45  1  0
 26 46  1  0
M  END
>  <UniqueID>  (30) 
30

>  <SMILES>  (30) 
CC(=O)C1=CC[C@H](c2cccc(Br)c2)N(S(=O)(=O)c2ccc(C)cc2)C1

>  <Energy>  (30) 
49.71387259901803

>  <Genealogy>  (30) 
CC(=O)C1=CC[C@H](c2cccc(Br)c2)N(S(=O)(=O)c2ccc(C)cc2)C1 (chirality)
CC(=O)C1=CC[C@H](c2cccc(Br)c2)N(S(=O)(=O)c2ccc(C)cc2)C1 (3D coordinates assigned)
CC(=O)C1=CC[C@H](c2cccc(Br)c2)N(S(=O)(=O)c2ccc(C)cc2)C1 (nonaromatic ring conformer: 49.71387259901803 kcal/mol)

>  <smiles>  (30) 
CC(=O)C1=CCC(c2cccc(Br)c2)N(S(=O)(=O)c2ccc(C)cc2)C1

>  <score_type>  (30) 
oracle

>  <origin>  (30) 
adg

>  <m_score__min__energy>  (30) 
-9.3000000000000007

>  <m_primary>  (30) 
energy

$$$$
30:0
     RDKit          3D

 43 45  0  0  0  0  0  0  0  0999 V2000
   63.3540   34.2040   46.3420 C   0  0  0  0  0  0  0  0  0  0  0  0
   62.7420   33.0700   47.0220 N   0  0  0  0  0  0  0  0  0  0  0  0
   61.4340   32.7520   47.0080 C   0  0  0  0  0  0  0  0  0  0  0  0
   61.2800   31.5590   47.6900 C   0  0  0  0  0  0  0  0  0  0  0  0
   60.0140   30.7750   47.8700 C   0  0  0  0  0  0  0  0  0  0  0  0
   60.0480   29.5230   47.0850 N   0  0  0  0  0  0  0  0  0  0  0  0
   58.9040   28.6400   47.4250 C   0  0  0  0  0  0  0  0  0  0  0  0
   57.7690   28.7420   46.3960 C   0  0  0  0  0  0  0  0  0  0  0  0
   58.2180   28.3220   45.0460 N   0  0  0  0  0  0  0  0  0  0  0  0
   57.3510   28.8870   43.9910 C   0  0  0  0  0  0  0  0  0  0  0  0
   56.2930   29.7800   44.5850 C   0  0  0  0  0  0  0  0  0  0  0  0
   55.1660   29.2890   44.8590 O   0  0  0  0  0  0  0  0  0  0  0  0
   56.5240   31.1690   44.8520 N   0  0  0  0  0  0  0  0  0  0  0  0
   57.8280   31.8160   44.7740 C   0  0  0  0  0  0  0  0  0  0  0  0
   57.7550   33.2990   44.4680 C   0  0  0  0  0  0  0  0  0  0  0  0
   58.0500   32.8250   45.8840 C   0  0  0  0  0  0  0  0  0  0  0  0
   59.6510   28.6200   44.7890 C   0  0  0  0  0  0  0  0  0  0  0  0
   60.1590   29.8000   45.6300 C   0  0  0  0  0  0  0  0  0  0  0  0
   62.5530   31.1830   48.0760 C   0  0  0  0  0  0  0  0  0  0  0  0
   63.4180   32.1230   47.6520 N   0  0  0  0  0  0  0  0  0  0  0  0
   63.7379   34.9153   47.0881 H   0  0  0  0  0  0  0  0  0  0  0  0
   64.1835   33.8498   45.7123 H   0  0  0  0  0  0  0  0  0  0  0  0
   62.6027   34.7030   45.7123 H   0  0  0  0  0  0  0  0  0  0  0  0
   60.6303   33.3373   46.5375 H   0  0  0  0  0  0  0  0  0  0  0  0
   59.8925   30.5282   48.9350 H   0  0  0  0  0  0  0  0  0  0  0  0
   59.1708   31.3865   47.5165 H   0  0  0  0  0  0  0  0  0  0  0  0
   59.2579   27.5991   47.4605 H   0  0  0  0  0  0  0  0  0  0  0  0
   58.5071   28.9605   48.3995 H   0  0  0  0  0  0  0  0  0  0  0  0
   56.9391   28.0938   46.7141 H   0  0  0  0  0  0  0  0  0  0  0  0
   57.4473   29.7925   46.3408 H   0  0  0  0  0  0  0  0  0  0  0  0
   57.9676   29.4736   43.2941 H   0  0  0  0  0  0  0  0  0  0  0  0
   56.8557   28.0591   43.4626 H   0  0  0  0  0  0  0  0  0  0  0  0
   58.3917   30.9666   44.3608 H   0  0  0  0  0  0  0  0  0  0  0  0
   58.5460   33.7775   43.8718 H   0  0  0  0  0  0  0  0  0  0  0  0
   57.0079   33.9634   44.0092 H   0  0  0  0  0  0  0  0  0  0  0  0
   59.0543   32.9606   46.3118 H   0  0  0  0  0  0  0  0  0  0  0  0
   57.6048   33.0043   46.8738 H   0  0  0  0  0  0  0  0  0  0  0  0
   60.2473   27.7285   45.0332 H   0  0  0  0  0  0  0  0  0  0  0  0
   59.7538   28.8929   43.7283 H   0  0  0  0  0  0  0  0  0  0  0  0
   61.2142   29.9870   45.3818 H   0  0  0  0  0  0  0  0  0  0  0  0
   59.5391   30.6788   45.3991 H   0  0  0  0  0  0  0  0  0  0  0  0
   62.8143   30.2718   48.6340 H   0  0  0  0  0  0  0  0  0  0  0  0
   64.4560   32.1050   47.7730 H   0  0  0  0  0  0  0  0  0  0  0  0
  1  2  1  0
  2  3  1  0
  3  4  2  0
  4  5  1  0
  5  6  1  0
  6  7  1  0
  7  8  1  0
  8  9  1  0
  9 10  1  0
 10 11  1  0
 11 12  2  0
 11 13  1  0
 13 14  1  0
 14 15  1  0
 15 16  1  0
  9 17  1  0
 17 18  1  0
  4 19  1  0
 19 20  2  0
 20  2  1  0
 18  6  1  0
 16 14  1  0
  1 21  1  0
  1 22  1  0
  1 23  1  0
  3 24  1  0
  5 25  1  0
  5 26  1  0
  7 27  1  0
  7 28  1  0
  8 29  1  0
  8 30  1  0
 10 31  1  0
 10 32  1  0
 14 33  1  0
 15 34  1  0
 15 35  1  0
 16 36  1  0
 16 37  1  0
 17 38  1  0
 17 39  1  0
 18 40  1  0
 18 41  1  0
 19 42  1  0
 20 43  1  0
M  CHG  2  13  -1  20   1
M  END
>  <UniqueID>  (31) 
31

>  <SMILES>  (31) 
Cn1cc(CN2CCN(CC(=O)[N-]C3CC3)CC2)c[nH+]1

>  <Energy>  (31) 
347.24705106890883

>  <Genealogy>  (31) 
Cn1cc(CN2CCN(CC(=O)[N-]C3CC3)CC2)c[nH+]1 (protonated)
Cn1cc(CN2CCN(CC(=O)[N-]C3CC3)CC2)c[nH+]1 (3D coordinates assigned)
Cn1cc(CN2CCN(CC(=O)[N-]C3CC3)CC2)c[nH+]1 (nonaromatic ring conformer: 347.24705106890883 kcal/mol)

>  <smiles>  (31) 
Cn1cc(CN2CCN(CC(=O)NC3CC3)CC2)cn1

>  <score_type>  (31) 
oracle

>  <origin>  (31) 
adg

>  <m_score__min__energy>  (31) 
-8.1899999999999995

>  <m_primary>  (31) 
energy

$$$$
31:0
     RDKit          3D

 50 49  0  0  0  0  0  0  0  0999 V2000
   63.7550   33.2630   47.1210 C   0  0  0  0  0  0  0  0  0  0  0  0
   62.7710   32.1360   47.4230 C   0  0  0  0  0  0  0  0  0  0  0  0
   61.3920   32.6170   47.2720 N   0  0  0  0  0  0  0  0  0  0  0  0
   61.3490   33.8020   46.4010 C   0  0  0  0  0  0  0  0  0  0  0  0
   60.0970   34.6450   46.6860 C   0  0  0  0  0  0  0  0  0  0  0  0
   59.6420   34.5990   48.1570 C   0  0  0  0  0  0  0  0  0  0  0  0
   58.9820   33.3230   48.4730 N   0  0  0  0  0  0  0  0  0  0  0  0
   59.2010   32.8970   49.8660 C   0  0  0  0  0  0  0  0  0  0  0  0
   58.5420   31.5340   50.0800 C   0  0  0  0  0  0  0  0  0  0  0  0
   59.5190   30.3860   49.7690 C   0  0  0  0  0  0  0  0  0  0  0  0
   60.2380   30.5990   48.4960 N   0  0  0  0  0  0  0  0  0  0  0  0
   60.3390   29.3720   47.6810 C   0  0  0  0  0  0  0  0  0  0  0  0
   59.2280   29.2690   46.6100 C   0  0  0  0  0  0  0  0  0  0  0  0
   59.2230   30.4350   45.5980 C   0  0  0  0  0  0  0  0  0  0  0  0
   58.6370   31.6790   46.1360 N   0  0  0  0  0  0  0  0  0  0  0  0
   57.8950   32.4520   45.1260 C   0  0  0  0  0  0  0  0  0  0  0  0
   57.0720   33.5480   45.7950 C   0  0  0  0  0  0  0  0  0  0  0  0
   64.1264   33.6883   48.0650 H   0  0  0  0  0  0  0  0  0  0  0  0
   64.6005   32.8657   46.5402 H   0  0  0  0  0  0  0  0  0  0  0  0
   63.2474   34.0472   46.5402 H   0  0  0  0  0  0  0  0  0  0  0  0
   62.9448   31.3042   46.7245 H   0  0  0  0  0  0  0  0  0  0  0  0
   62.9219   31.7935   48.4574 H   0  0  0  0  0  0  0  0  0  0  0  0
   61.0610   32.9110   48.2220 H   0  0  0  0  0  0  0  0  0  0  0  0
   62.2447   34.4146   46.5814 H   0  0  0  0  0  0  0  0  0  0  0  0
   61.3174   33.4679   45.3534 H   0  0  0  0  0  0  0  0  0  0  0  0
   60.3147   35.6905   46.4222 H   0  0  0  0  0  0  0  0  0  0  0  0
   59.2800   34.2218   46.0831 H   0  0  0  0  0  0  0  0  0  0  0  0
   60.5208   34.7186   48.8077 H   0  0  0  0  0  0  0  0  0  0  0  0
   58.9210   35.4130   48.3229 H   0  0  0  0  0  0  0  0  0  0  0  0
   59.3720   32.5860   47.8380 H   0  0  0  0  0  0  0  0  0  0  0  0
   60.2805   32.8194   50.0624 H   0  0  0  0  0  0  0  0  0  0  0  0
   58.7607   33.6343   50.5534 H   0  0  0  0  0  0  0  0  0  0  0  0
   58.2166   31.4538   51.1277 H   0  0  0  0  0  0  0  0  0  0  0  0
   57.6824   31.4529   49.3985 H   0  0  0  0  0  0  0  0  0  0  0  0
   60.2541   30.3149   50.5842 H   0  0  0  0  0  0  0  0  0  0  0  0
   58.9345   29.4586   49.6774 H   0  0  0  0  0  0  0  0  0  0  0  0
   59.7440   31.3450   47.9590 H   0  0  0  0  0  0  0  0  0  0  0  0
   61.2010   30.9620   48.6900 H   0  0  0  0  0  0  0  0  0  0  0  0
   61.3159   29.3657   47.1754 H   0  0  0  0  0  0  0  0  0  0  0  0
   60.2244   28.5140   48.3597 H   0  0  0  0  0  0  0  0  0  0  0  0
   59.3682   28.3296   46.0551 H   0  0  0  0  0  0  0  0  0  0  0  0
   58.2667   29.3057   47.1434 H   0  0  0  0  0  0  0  0  0  0  0  0
   60.2613   30.6404   45.2982 H   0  0  0  0  0  0  0  0  0  0  0  0
   58.5975   30.1236   44.7485 H   0  0  0  0  0  0  0  0  0  0  0  0
   59.3730   32.2830   46.5740 H   0  0  0  0  0  0  0  0  0  0  0  0
   58.6078   32.9107   44.4249 H   0  0  0  0  0  0  0  0  0  0  0  0
   57.2164   31.7752   44.5861 H   0  0  0  0  0  0  0  0  0  0  0  0
   57.1473   33.4477   46.8878 H   0  0  0  0  0  0  0  0  0  0  0  0
   57.4558   34.5327   45.4898 H   0  0  0  0  0  0  0  0  0  0  0  0
   56.0194   33.4541   45.4898 H   0  0  0  0  0  0  0  0  0  0  0  0
  1  2  1  0
  2  3  1  0
  3  4  1  0
  4  5  1  0
  5  6  1  0
  6  7  1  0
  7  8  1  0
  8  9  1  0
  9 10  1  0
 10 11  1  0
 11 12  1  0
 12 13  1  0
 13 14  1  0
 14 15  1  0
 15 16  1  0
 16 17  1  0
  1 18  1  0
  1 19  1  0
  1 20  1  0
  2 21  1  0
  2 22  1  0
  3 23  1  0
  4 24  1  0
  4 25  1  0
  5 26  1  0
  5 27  1  0
  6 28  1  0
  6 29  1  0
  7 30  1  0
  8 31  1  0
  8 32  1  0
  9 33  1  0
  9 34  1  0
 10 35  1  0
 10 36  1  0
 11 37  1  0
 11 38  1  0
 12 39  1  0
 12 40  1  0
 13 41  1  0
 13 42  1  0
 14 43  1  0
 14 44  1  0
 15 45  1  0
 16 46  1  0
 16 47  1  0
 17 48  1  0
 17 49  1  0
 17 50  1  0
M  CHG  1  11   1
M  END
>  <UniqueID>  (32) 
32

>  <SMILES>  (32) 
CCNCCCNCCC[NH2+]CCCNCC

>  <Energy>  (32) 
35.73011471441778

>  <Genealogy>  (32) 
CCNCCCNCCC[NH2+]CCCNCC (protonated)
CCNCCCNCCC[NH2+]CCCNCC (3D coordinates assigned)
CCNCCCNCCC[NH2+]CCCNCC (optimized conformer: 35.73011471441778 kcal/mol)

>  <smiles>  (32) 
CCNCCCNCCCNCCCNCC

>  <score_type>  (32) 
oracle

>  <origin>  (32) 
adg

>  <m_score__min__energy>  (32) 
-1.0700000000000001

>  <m_primary>  (32) 
energy

$$$$
32:0
     RDKit          3D

 68 72  0  0  0  0  0  0  0  0999 V2000
   58.4025   32.7664   42.0937 H   0  0  0  0  0  0  0  0  0  0  0  0
   57.8960   32.3720   42.9870 C   0  0  0  0  0  0  0  0  0  0  0  0
   57.1380   31.2720   42.8340 C   0  0  0  0  0  0  0  0  0  0  0  0
   56.6616   31.1111   41.8556 H   0  0  0  0  0  0  0  0  0  0  0  0
   56.9010   30.2680   43.8840 C   0  0  0  0  0  0  0  0  0  0  0  0
   55.6680   29.8560   44.2610 N   0  0  0  0  0  0  0  0  0  0  0  0
   55.7870   28.9570   45.2350 N   0  0  0  0  0  0  0  0  0  0  0  0
   57.1020   28.7930   45.4660 C   0  0  0  0  0  0  0  0  0  0  0  0
   57.7020   27.9550   46.4020 C   0  0  0  0  0  0  0  0  0  0  0  0
   57.0963   27.3360   47.0802 H   0  0  0  0  0  0  0  0  0  0  0  0
   59.1160   27.9250   46.4530 C   0  0  0  0  0  0  0  0  0  0  0  0
   59.7810   27.1020   47.3690 O   0  0  0  0  0  0  0  0  0  0  0  0
   60.0560   27.4890   48.6860 C   0  0  0  0  0  0  0  0  0  0  0  0
   60.8220   26.6490   49.5050 C   0  0  0  0  0  0  0  0  0  0  0  0
   61.2080   25.6992   49.1063 H   0  0  0  0  0  0  0  0  0  0  0  0
   61.0980   27.0120   50.8260 C   0  0  0  0  0  0  0  0  0  0  0  0
   61.6766   26.3354   51.4721 H   0  0  0  0  0  0  0  0  0  0  0  0
   60.6400   28.2330   51.3270 C   0  0  0  0  0  0  0  0  0  0  0  0
   60.8588   28.5157   52.3673 H   0  0  0  0  0  0  0  0  0  0  0  0
   59.8980   29.1040   50.5030 C   0  0  0  0  0  0  0  0  0  0  0  0
   59.5110   30.4070   50.9590 N   0  0  0  0  0  0  0  0  0  0  0  0
   60.1200   31.2180   50.6980 H   0  0  0  0  0  0  0  0  0  0  0  0
   58.3240   30.6660   51.7200 C   0  0  0  0  0  0  0  0  0  0  0  0
   57.3170   29.9060   51.6120 O   0  0  0  0  0  0  0  0  0  0  0  0
   58.2320   31.9030   52.5730 C   0  0  0  0  0  0  0  0  0  0  0  0
   58.9525   31.8226   53.4003 H   0  0  0  0  0  0  0  0  0  0  0  0
   57.2051   31.9840   52.9590 H   0  0  0  0  0  0  0  0  0  0  0  0
   58.5450   33.1640   51.7580 C   0  0  0  0  0  0  0  0  0  0  0  0
   58.9515   33.9357   52.4283 H   0  0  0  0  0  0  0  0  0  0  0  0
   57.6174   33.5195   51.2856 H   0  0  0  0  0  0  0  0  0  0  0  0
   59.5360   32.8690   50.6990 N   0  0  0  0  0  0  0  0  0  0  0  0
   58.8810   32.7520   49.3840 C   0  0  0  0  0  0  0  0  0  0  0  0
   58.5145   33.7394   49.0666 H   0  0  0  0  0  0  0  0  0  0  0  0
   58.0332   32.0547   49.4547 H   0  0  0  0  0  0  0  0  0  0  0  0
   59.8920   32.2290   48.3620 C   0  0  0  0  0  0  0  0  0  0  0  0
   59.4597   32.3142   47.3541 H   0  0  0  0  0  0  0  0  0  0  0  0
   60.1166   31.1790   48.6011 H   0  0  0  0  0  0  0  0  0  0  0  0
   61.1450   32.9950   48.4120 N   0  0  0  0  0  0  0  0  0  0  0  0
   62.1540   32.7250   47.4150 C   0  0  0  0  0  0  0  0  0  0  0  0
   62.1490   31.6220   46.8030 O   0  0  0  0  0  0  0  0  0  0  0  0
   63.2430   33.7090   47.1050 C   0  0  0  0  0  0  0  0  0  0  0  0
   63.6682   34.0932   48.0439 H   0  0  0  0  0  0  0  0  0  0  0  0
   64.0318   33.2113   46.5219 H   0  0  0  0  0  0  0  0  0  0  0  0
   62.8275   34.5441   46.5219 H   0  0  0  0  0  0  0  0  0  0  0  0
   61.2340   34.1620   49.3020 C   0  0  0  0  0  0  0  0  0  0  0  0
   60.6666   34.9939   48.8591 H   0  0  0  0  0  0  0  0  0  0  0  0
   62.2947   34.4299   49.4163 H   0  0  0  0  0  0  0  0  0  0  0  0
   60.6590   33.8500   50.6990 C   0  0  0  0  0  0  0  0  0  0  0  0
   60.2943   34.7901   51.1385 H   0  0  0  0  0  0  0  0  0  0  0  0
   61.4745   33.3929   51.2787 H   0  0  0  0  0  0  0  0  0  0  0  0
   59.6050   28.7220   49.1870 C   0  0  0  0  0  0  0  0  0  0  0  0
   59.0179   29.3920   48.5417 H   0  0  0  0  0  0  0  0  0  0  0  0
   59.8720   28.7210   45.5590 C   0  0  0  0  0  0  0  0  0  0  0  0
   60.9707   28.6754   45.5853 H   0  0  0  0  0  0  0  0  0  0  0  0
   59.2320   29.5700   44.6370 C   0  0  0  0  0  0  0  0  0  0  0  0
   59.8108   30.2006   43.9460 H   0  0  0  0  0  0  0  0  0  0  0  0
   57.8360   29.5830   44.6310 C   0  0  0  0  0  0  0  0  0  0  0  0
   58.1030   33.0950   44.2640 C   0  0  0  0  0  0  0  0  0  0  0  0
   59.2370   33.9140   44.4140 C   0  0  0  0  0  0  0  0  0  0  0  0
   59.9559   34.0112   43.5871 H   0  0  0  0  0  0  0  0  0  0  0  0
   59.4540   34.6060   45.6120 C   0  0  0  0  0  0  0  0  0  0  0  0
   60.3440   35.2423   45.7263 H   0  0  0  0  0  0  0  0  0  0  0  0
   58.5390   34.4880   46.6630 C   0  0  0  0  0  0  0  0  0  0  0  0
   58.7239   35.0126   47.6120 H   0  0  0  0  0  0  0  0  0  0  0  0
   57.3890   33.7050   46.5120 C   0  0  0  0  0  0  0  0  0  0  0  0
   56.6649   33.6259   47.3362 H   0  0  0  0  0  0  0  0  0  0  0  0
   57.1610   33.0230   45.3120 C   0  0  0  0  0  0  0  0  0  0  0  0
   56.2442   32.4286   45.1850 H   0  0  0  0  0  0  0  0  0  0  0  0
  1  2  1  0
  2  3  2  0
  3  4  1  0
  3  5  1  0
  5  6  1  0
  6  7  1  0
  7  8  2  0
  8  9  1  0
  9 10  1  0
  9 11  2  0
 11 12  1  0
 12 13  1  0
 13 14  2  0
 14 15  1  0
 14 16  1  0
 16 17  1  0
 16 18  2  0
 18 19  1  0
 18 20  1  0
 20 21  1  0
 21 22  1  0
 21 23  1  0
 23 24  2  0
 23 25  1  0
 25 26  1  0
 25 27  1  0
 25 28  1  0
 28 29  1  0
 28 30  1  0
 28 31  1  0
 31 32  1  0
 32 33  1  0
 32 34  1  0
 32 35  1  0
 35 36  1  0
 35 37  1  0
 35 38  1  0
 38 39  1  0
 39 40  2  0
 39 41  1  0
 41 42  1  0
 41 43  1  0
 41 44  1  0
 38 45  1  0
 45 46  1  0
 45 47  1  0
 45 48  1  0
 48 49  1  0
 48 50  1  0
 20 51  2  0
 51 52  1  0
 11 53  1  0
 53 54  1  0
 53 55  2  0
 55 56  1  0
 55 57  1  0
  2 58  1  0
 58 59  2  0
 59 60  1  0
 59 61  1  0
 61 62  1  0
 61 63  2  0
 63 64  1  0
 63 65  1  0
 65 66  1  0
 65 67  2  0
 67 68  1  0
 57  5  2  0
 67 58  1  0
 57  8  1  0
 51 13  1  0
 48 31  1  0
M  CHG  1   6  -1
M  END
>  <UniqueID>  (33) 
33

>  <SMILES>  (33) 
CC(=O)N1CCN(CCC(=O)Nc2cccc(Oc3ccc4c(/C=C\c5ccccc5)[n-]nc4c3)c2)CC1

>  <Energy>  (33) 
135.54907427383466

>  <Genealogy>  (33) 
CC(=O)N1CCN(CCC(=O)Nc2cccc(Oc3ccc4c(C=Cc5ccccc5)[n-]nc4c3)c2)CC1 (protonated)
CC(=O)N1CCN(CCC(=O)Nc2cccc(Oc3ccc4c(/C=C\c5ccccc5)[n-]nc4c3)c2)CC1 (cis-trans isomerization)
CC(=O)N1CCN(CCC(=O)Nc2cccc(Oc3ccc4c(/C=C\c5ccccc5)[n-]nc4c3)c2)CC1 (3D coordinates assigned)
CC(=O)N1CCN(CCC(=O)Nc2cccc(Oc3ccc4c(/C=C\c5ccccc5)[n-]nc4c3)c2)CC1 (nonaromatic ring conformer: 135.54907427383466 kcal/mol)

>  <smiles>  (33) 
CC(=O)N1CCN(CCC(=O)Nc2cccc(Oc3ccc4c(C=Cc5ccccc5)[nH]nc4c3)c2)CC1

>  <score_type>  (33) 
oracle

>  <origin>  (33) 
adg

>  <m_score__min__energy>  (33) 
-12.369999999999999

>  <m_primary>  (33) 
energy

$$$$
33:0
     RDKit          3D

 48 48  0  0  0  0  0  0  0  0999 V2000
   61.2888   25.8616   47.0911 H   0  0  0  0  0  0  0  0  0  0  0  0
   60.6060   26.3300   46.3670 C   0  0  0  0  0  0  0  0  0  0  0  0
   60.1518   25.5524   45.7353 H   0  0  0  0  0  0  0  0  0  0  0  0
   61.1679   27.0337   45.7353 H   0  0  0  0  0  0  0  0  0  0  0  0
   59.5520   27.0530   47.0860 N   0  0  0  0  0  0  0  0  0  0  0  0
   58.1820   26.9330   46.6580 C   0  0  0  0  0  0  0  0  0  0  0  0
   57.5670   27.9660   46.0230 N   0  0  0  0  0  0  0  0  0  0  0  0
   56.2770   27.8550   45.6190 C   0  0  0  0  0  0  0  0  0  0  0  0
   55.6630   28.9360   44.9760 O   0  0  0  0  0  0  0  0  0  0  0  0
   56.1790   29.5470   43.7960 C   0  0  0  0  0  0  0  0  0  0  0  0
   55.4427   30.2668   43.4090 H   0  0  0  0  0  0  0  0  0  0  0  0
   56.3746   28.7661   43.0464 H   0  0  0  0  0  0  0  0  0  0  0  0
   57.4900   30.2810   44.1030 C   0  0  0  0  0  0  0  0  0  0  0  0
   58.2477   29.9971   43.3578 H   0  0  0  0  0  0  0  0  0  0  0  0
   57.8288   30.0007   45.1113 H   0  0  0  0  0  0  0  0  0  0  0  0
   57.2830   31.7470   44.0550 N   0  0  0  0  0  0  0  0  0  0  0  0
   58.0540   32.3600   42.9480 C   0  0  0  0  0  0  0  0  0  0  0  0
   59.0791   31.9612   42.9563 H   0  0  0  0  0  0  0  0  0  0  0  0
   58.0710   33.4510   43.0872 H   0  0  0  0  0  0  0  0  0  0  0  0
   57.4020   32.0430   41.6040 C   0  0  0  0  0  0  0  0  0  0  0  0
   56.4246   31.5678   41.7737 H   0  0  0  0  0  0  0  0  0  0  0  0
   57.2632   32.9742   41.0351 H   0  0  0  0  0  0  0  0  0  0  0  0
   58.0486   31.3587   41.0351 H   0  0  0  0  0  0  0  0  0  0  0  0
   57.6250   32.3810   45.3500 C   0  0  0  0  0  0  0  0  0  0  0  0
   56.9792   31.9681   46.1390 H   0  0  0  0  0  0  0  0  0  0  0  0
   58.6800   32.1754   45.5840 H   0  0  0  0  0  0  0  0  0  0  0  0
   57.4170   33.8910   45.2660 C   0  0  0  0  0  0  0  0  0  0  0  0
   57.3593   34.3102   46.2813 H   0  0  0  0  0  0  0  0  0  0  0  0
   58.2607   34.3480   44.7281 H   0  0  0  0  0  0  0  0  0  0  0  0
   56.4812   34.1029   44.7281 H   0  0  0  0  0  0  0  0  0  0  0  0
   55.5960   26.7020   45.8510 N   0  0  0  0  0  0  0  0  0  0  0  0
   56.1990   25.6660   46.4900 C   0  0  0  0  0  0  0  0  0  0  0  0
   55.5580   24.5590   46.7260 N   0  0  0  0  0  0  0  0  0  0  0  0
   55.6300   23.3540   45.8960 C   0  0  0  0  0  0  0  0  0  0  0  0
   54.7819   22.6950   46.1339 H   0  0  0  0  0  0  0  0  0  0  0  0
   56.9240   22.5840   46.1810 C   0  0  0  0  0  0  0  0  0  0  0  0
   57.0679   22.4984   47.2682 H   0  0  0  0  0  0  0  0  0  0  0  0
   56.8572   21.5786   45.7397 H   0  0  0  0  0  0  0  0  0  0  0  0
   57.7758   23.1223   45.7397 H   0  0  0  0  0  0  0  0  0  0  0  0
   55.5640   23.7580   44.4230 C   0  0  0  0  0  0  0  0  0  0  0  0
   55.3871   24.8410   44.3474 H   0  0  0  0  0  0  0  0  0  0  0  0
   56.5151   23.5066   43.9309 H   0  0  0  0  0  0  0  0  0  0  0  0
   54.7423   23.2170   43.9309 H   0  0  0  0  0  0  0  0  0  0  0  0
   57.4900   25.7840   46.8890 N   0  0  0  0  0  0  0  0  0  0  0  0
   59.8830   27.8980   48.2380 C   0  0  0  0  0  0  0  0  0  0  0  0
   59.6686   27.3507   49.1678 H   0  0  0  0  0  0  0  0  0  0  0  0
   60.9506   28.1610   48.2051 H   0  0  0  0  0  0  0  0  0  0  0  0
   59.2781   28.8161   48.2051 H   0  0  0  0  0  0  0  0  0  0  0  0
  1  2  1  0
  2  3  1  0
  2  4  1  0
  2  5  1  0
  5  6  1  0
  6  7  1  0
  7  8  2  0
  8  9  1  0
  9 10  1  0
 10 11  1  0
 10 12  1  0
 10 13  1  0
 13 14  1  0
 13 15  1  0
 13 16  1  0
 16 17  1  0
 17 18  1  0
 17 19  1  0
 17 20  1  0
 20 21  1  0
 20 22  1  0
 20 23  1  0
 16 24  1  0
 24 25  1  0
 24 26  1  0
 24 27  1  0
 27 28  1  0
 27 29  1  0
 27 30  1  0
  8 31  1  0
 31 32  1  0
 32 33  2  0
 33 34  1  0
 34 35  1  0
 34 36  1  0
 36 37  1  0
 36 38  1  0
 36 39  1  0
 34 40  1  0
 40 41  1  0
 40 42  1  0
 40 43  1  0
 32 44  1  0
  5 45  1  0
 45 46  1  0
 45 47  1  0
 45 48  1  0
 44  6  2  0
M  CHG  1  31  -1
M  END
>  <UniqueID>  (34) 
34

>  <SMILES>  (34) 
CCN(CC)CCOc1nc(N(C)C)n/c(=N/C(C)C)[n-]1

>  <Energy>  (34) 
32.746864482149924

>  <Genealogy>  (34) 
CCN(CC)CCOc1nc(N(C)C)nc(=NC(C)C)[n-]1 (protonated)
CCN(CC)CCOc1nc(N(C)C)n/c(=N/C(C)C)[n-]1 (cis-trans isomerization)
CCN(CC)CCOc1nc(N(C)C)n/c(=N/C(C)C)[n-]1 (3D coordinates assigned)
CCN(CC)CCOc1nc(N(C)C)n/c(=N/C(C)C)[n-]1 (optimized conformer: 32.746864482149924 kcal/mol)

>  <smiles>  (34) 
CCN(CC)CCOc1nc(N(C)C)nc(=NC(C)C)[nH]1

>  <score_type>  (34) 
oracle

>  <origin>  (34) 
adg

>  <m_score__min__energy>  (34) 
-7.5499999999999998

>  <m_primary>  (34) 
energy

$$$$
34:0
     RDKit          3D

 32 33  0  0  0  0  0  0  0  0999 V2000
   54.0750   24.0590   44.8570 C   0  0  0  0  0  0  0  0  0  0  0  0
   54.9140   24.3390   46.0980 C   0  0  0  0  0  0  0  0  0  0  0  0
   55.5480   25.6120   46.0000 O   0  0  0  0  0  0  0  0  0  0  0  0
   56.7800   25.8160   45.3640 C   0  0  0  0  0  0  0  0  0  0  0  0
   57.0050   25.2760   44.2450 O   0  0  0  0  0  0  0  0  0  0  0  0
   57.8310   26.6500   46.0070 C   0  0  0  0  0  0  0  0  0  0  0  0
   58.3670   26.2450   47.2450 C   0  0  0  0  0  0  0  0  0  0  0  0
   59.3460   27.0070   47.8820 C   0  0  0  0  0  0  0  0  0  0  0  0
   59.8070   28.1820   47.2960 C   0  0  0  0  0  0  0  0  0  0  0  0
   59.2950   28.6000   46.0670 C   0  0  0  0  0  0  0  0  0  0  0  0
   58.3050   27.8420   45.4070 C   0  0  0  0  0  0  0  0  0  0  0  0
   57.7850   28.2410   44.1640 O   0  0  0  0  0  0  0  0  0  0  0  0
   56.6350   29.4860   43.9240 S   0  0  0  0  0  0  0  0  0  0  0  0
   55.5130   29.3180   44.9090 O   0  0  0  0  0  0  0  0  0  0  0  0
   56.0850   29.3930   42.5280 O   0  0  0  0  0  0  0  0  0  0  0  0
   57.3900   31.0490   44.1710 C   0  0  0  0  0  0  0  0  0  0  0  0
   57.7710   31.9310   43.1710 C   0  0  0  0  0  0  0  0  0  0  0  0
   58.3620   33.0970   43.6700 C   0  0  0  0  0  0  0  0  0  0  0  0
   58.4380   33.1200   45.0570 C   0  0  0  0  0  0  0  0  0  0  0  0
   59.1750   34.5280   46.1100 Br  0  0  0  0  0  0  0  0  0  0  0  0
   57.7770   31.7010   45.6700 S   0  0  0  0  0  0  0  0  0  0  0  0
   53.0720   23.7243   45.1603 H   0  0  0  0  0  0  0  0  0  0  0  0
   53.9894   24.9773   44.2574 H   0  0  0  0  0  0  0  0  0  0  0  0
   54.5580   23.2734   44.2574 H   0  0  0  0  0  0  0  0  0  0  0  0
   54.2629   24.3270   46.9845 H   0  0  0  0  0  0  0  0  0  0  0  0
   55.6891   23.5632   46.1837 H   0  0  0  0  0  0  0  0  0  0  0  0
   58.0093   25.3169   47.7148 H   0  0  0  0  0  0  0  0  0  0  0  0
   59.7544   26.6787   48.8492 H   0  0  0  0  0  0  0  0  0  0  0  0
   60.5767   28.7826   47.8027 H   0  0  0  0  0  0  0  0  0  0  0  0
   59.6665   29.5285   45.6089 H   0  0  0  0  0  0  0  0  0  0  0  0
   57.6241   31.7347   42.0987 H   0  0  0  0  0  0  0  0  0  0  0  0
   58.7290   33.9124   43.0293 H   0  0  0  0  0  0  0  0  0  0  0  0
  1  2  1  0
  2  3  1  0
  3  4  1  0
  4  5  2  0
  4  6  1  0
  6  7  2  0
  7  8  1  0
  8  9  2  0
  9 10  1  0
 10 11  2  0
 11 12  1  0
 12 13  1  0
 13 14  2  0
 13 15  2  0
 13 16  1  0
 16 17  2  0
 17 18  1  0
 18 19  2  0
 19 20  1  0
 19 21  1  0
 11  6  1  0
 21 16  1  0
  1 22  1  0
  1 23  1  0
  1 24  1  0
  2 25  1  0
  2 26  1  0
  7 27  1  0
  8 28  1  0
  9 29  1  0
 10 30  1  0
 17 31  1  0
 18 32  1  0
M  END
>  <UniqueID>  (35) 
35

>  <SMILES>  (35) 
CCOC(=O)c1ccccc1OS(=O)(=O)c1ccc(Br)s1

>  <Energy>  (35) 
56.62694958274013

>  <Genealogy>  (35) 
CCOC(=O)c1ccccc1OS(=O)(=O)c1ccc(Br)s1 (3D coordinates assigned)
CCOC(=O)c1ccccc1OS(=O)(=O)c1ccc(Br)s1 (optimized conformer: 56.62694958274013 kcal/mol)

>  <smiles>  (35) 
CCOC(=O)c1ccccc1OS(=O)(=O)c1ccc(Br)s1

>  <score_type>  (35) 
oracle

>  <origin>  (35) 
adg

>  <m_score__min__energy>  (35) 
-8.2899999999999991

>  <m_primary>  (35) 
energy

$$$$
35:0
     RDKit          3D

 31 34  0  0  0  0  0  0  0  0999 V2000
   64.1610   33.0150   48.8500 C   0  0  0  0  0  0  0  0  0  0  0  0
   63.5180   31.9590   48.1410 O   0  0  0  0  0  0  0  0  0  0  0  0
   62.2400   32.0480   47.5690 C   0  0  0  0  0  0  0  0  0  0  0  0
   61.5640   33.2660   47.4370 C   0  0  0  0  0  0  0  0  0  0  0  0
   60.2950   33.3060   46.8620 C   0  0  0  0  0  0  0  0  0  0  0  0
   59.6630   34.4970   46.7460 N   0  0  0  0  0  0  0  0  0  0  0  0
   58.4330   34.5870   46.1970 C   0  0  0  0  0  0  0  0  0  0  0  0
   57.7910   33.4390   45.7360 C   0  0  0  0  0  0  0  0  0  0  0  0
   56.6420   33.5710   45.2290 O   0  0  0  0  0  0  0  0  0  0  0  0
   58.4050   32.2010   45.8360 N   0  0  0  0  0  0  0  0  0  0  0  0
   57.7850   31.0550   45.3860 C   0  0  0  0  0  0  0  0  0  0  0  0
   56.6330   31.1080   44.8660 O   0  0  0  0  0  0  0  0  0  0  0  0
   58.4150   29.7990   45.4920 C   0  0  0  0  0  0  0  0  0  0  0  0
   57.7640   28.6360   45.0240 C   0  0  0  0  0  0  0  0  0  0  0  0
   58.3750   27.3890   45.1220 C   0  0  0  0  0  0  0  0  0  0  0  0
   59.6400   27.2800   45.6850 C   0  0  0  0  0  0  0  0  0  0  0  0
   60.3030   28.4140   46.1540 C   0  0  0  0  0  0  0  0  0  0  0  0
   59.7060   29.6990   46.0680 C   0  0  0  0  0  0  0  0  0  0  0  0
   60.3440   30.8810   46.5310 C   0  0  0  0  0  0  0  0  0  0  0  0
   61.6330   30.8740   47.1200 C   0  0  0  0  0  0  0  0  0  0  0  0
   59.6650   32.1230   46.4020 C   0  0  0  0  0  0  0  0  0  0  0  0
   64.0581   32.8460   49.9321 H   0  0  0  0  0  0  0  0  0  0  0  0
   65.2277   33.0399   48.5826 H   0  0  0  0  0  0  0  0  0  0  0  0
   63.6935   33.9741   48.5826 H   0  0  0  0  0  0  0  0  0  0  0  0
   62.0359   34.1954   47.7884 H   0  0  0  0  0  0  0  0  0  0  0  0
   57.9378   35.5657   46.1135 H   0  0  0  0  0  0  0  0  0  0  0  0
   56.7623   28.7167   44.5768 H   0  0  0  0  0  0  0  0  0  0  0  0
   57.8567   26.4912   44.7541 H   0  0  0  0  0  0  0  0  0  0  0  0
   60.1216   26.2940   45.7614 H   0  0  0  0  0  0  0  0  0  0  0  0
   61.3043   28.3109   46.5975 H   0  0  0  0  0  0  0  0  0  0  0  0
   62.1687   29.9191   47.2260 H   0  0  0  0  0  0  0  0  0  0  0  0
  1  2  1  0
  2  3  1  0
  3  4  2  0
  4  5  1  0
  5  6  1  0
  6  7  2  0
  7  8  1  0
  8  9  2  0
  8 10  1  0
 10 11  1  0
 11 12  2  0
 11 13  1  0
 13 14  2  0
 14 15  1  0
 15 16  2  0
 16 17  1  0
 17 18  2  0
 18 19  1  0
 19 20  2  0
 19 21  1  0
 20  3  1  0
 21  5  2  0
 21 10  1  0
 18 13  1  0
  1 22  1  0
  1 23  1  0
  1 24  1  0
  4 25  1  0
  7 26  1  0
 14 27  1  0
 15 28  1  0
 16 29  1  0
 17 30  1  0
 20 31  1  0
M  END
>  <UniqueID>  (36) 
36

>  <SMILES>  (36) 
COc1cc2ncc(=O)n3c(=O)c4ccccc4c(c1)c23

>  <Energy>  (36) 
59.96637028561797

>  <Genealogy>  (36) 
COc1cc2ncc(=O)n3c(=O)c4ccccc4c(c1)c23 (3D coordinates assigned)
COc1cc2ncc(=O)n3c(=O)c4ccccc4c(c1)c23 (optimized conformer: 59.96637028561797 kcal/mol)

>  <smiles>  (36) 
COc1cc2ncc(=O)n3c(=O)c4ccccc4c(c1)c23

>  <score_type>  (36) 
oracle

>  <origin>  (36) 
adg

>  <m_score__min__energy>  (36) 
-7.0700000000000003

>  <m_primary>  (36) 
energy

$$$$
36:0
     RDKit          3D

 41 43  0  0  0  0  0  0  0  0999 V2000
   57.5569   25.8305   45.0431 H   0  0  0  0  0  0  0  0  0  0  0  0
   57.8120   26.8410   45.3950 C   0  0  0  0  0  0  0  0  0  0  0  0
   57.0590   27.9710   44.8060 C   0  0  0  0  0  0  0  0  0  0  0  0
   55.8990   28.2000   45.2380 O   0  0  0  0  0  0  0  0  0  0  0  0
   57.5820   28.8320   43.7230 C   0  0  0  0  0  0  0  0  0  0  0  0
   58.4346   28.4710   43.1291 H   0  0  0  0  0  0  0  0  0  0  0  0
   57.0620   30.0330   43.4340 C   0  0  0  0  0  0  0  0  0  0  0  0
   56.1514   30.0731   42.8183 H   0  0  0  0  0  0  0  0  0  0  0  0
   57.6530   31.3130   43.9030 C   0  0  0  0  0  0  0  0  0  0  0  0
   58.0790   32.3090   43.0050 C   0  0  0  0  0  0  0  0  0  0  0  0
   57.9870   32.1384   41.9222 H   0  0  0  0  0  0  0  0  0  0  0  0
   58.5910   33.4530   43.4470 O   0  0  0  0  0  0  0  0  0  0  0  0
   58.7400   33.7220   44.7380 C   0  0  0  0  0  0  0  0  0  0  0  0
   59.2800   34.9520   45.1310 C   0  0  0  0  0  0  0  0  0  0  0  0
   59.5774   35.6892   44.3707 H   0  0  0  0  0  0  0  0  0  0  0  0
   59.4420   35.2450   46.4880 C   0  0  0  0  0  0  0  0  0  0  0  0
   59.8653   36.2133   46.7931 H   0  0  0  0  0  0  0  0  0  0  0  0
   59.0680   34.3120   47.4580 C   0  0  0  0  0  0  0  0  0  0  0  0
   59.1994   34.5470   48.5245 H   0  0  0  0  0  0  0  0  0  0  0  0
   58.5270   33.0800   47.0770 C   0  0  0  0  0  0  0  0  0  0  0  0
   58.2330   32.3487   47.8443 H   0  0  0  0  0  0  0  0  0  0  0  0
   58.3580   32.7740   45.7130 C   0  0  0  0  0  0  0  0  0  0  0  0
   57.8160   31.5530   45.2810 C   0  0  0  0  0  0  0  0  0  0  0  0
   57.4680   30.6780   46.1230 O   0  0  0  0  0  0  0  0  0  0  0  0
   58.7800   26.9410   46.3220 C   0  0  0  0  0  0  0  0  0  0  0  0
   59.1149   26.0112   46.8049 H   0  0  0  0  0  0  0  0  0  0  0  0
   59.4320   28.2000   46.7460 C   0  0  0  0  0  0  0  0  0  0  0  0
   59.3040   28.6940   48.0560 C   0  0  0  0  0  0  0  0  0  0  0  0
   58.7243   28.1278   48.7999 H   0  0  0  0  0  0  0  0  0  0  0  0
   59.9090   29.9000   48.4180 C   0  0  0  0  0  0  0  0  0  0  0  0
   59.7865   30.2890   49.4396 H   0  0  0  0  0  0  0  0  0  0  0  0
   60.6750   30.6200   47.4810 C   0  0  0  0  0  0  0  0  0  0  0  0
   61.2880   31.8430   47.7910 O   0  0  0  0  0  0  0  0  0  0  0  0
   62.6410   32.1640   47.4820 C   0  0  0  0  0  0  0  0  0  0  0  0
   63.2082   32.2986   48.4149 H   0  0  0  0  0  0  0  0  0  0  0  0
   63.0872   31.3468   46.8963 H   0  0  0  0  0  0  0  0  0  0  0  0
   62.6725   33.0945   46.8963 H   0  0  0  0  0  0  0  0  0  0  0  0
   60.8370   30.1020   46.1910 C   0  0  0  0  0  0  0  0  0  0  0  0
   61.4471   30.6480   45.4564 H   0  0  0  0  0  0  0  0  0  0  0  0
   60.2300   28.8970   45.8290 C   0  0  0  0  0  0  0  0  0  0  0  0
   60.3795   28.4925   44.8171 H   0  0  0  0  0  0  0  0  0  0  0  0
  1  2  1  0
  2  3  1  0
  3  4  2  0
  3  5  1  0
  5  6  1  0
  5  7  2  0
  7  8  1  0
  7  9  1  0
  9 10  2  0
 10 11  1  0
 10 12  1  0
 12 13  1  0
 13 14  2  0
 14 15  1  0
 14 16  1  0
 16 17  1  0
 16 18  2  0
 18 19  1  0
 18 20  1  0
 20 21  1  0
 20 22  2  0
 22 23  1  0
 23 24  2  0
  2 25  2  3
 25 26  1  0
 25 27  1  0
 27 28  2  0
 28 29  1  0
 28 30  1  0
 30 31  1  0
 30 32  2  0
 32 33  1  0
 33 34  1  0
 34 35  1  0
 34 36  1  0
 34 37  1  0
 32 38  1  0
 38 39  1  0
 38 40  2  0
 40 41  1  0
 23  9  1  0
 40 27  1  0
 22 13  1  0
M  END
>  <UniqueID>  (37) 
37

>  <SMILES>  (37) 
COc1ccc(C=CC(=O)/C=C/c2coc3ccccc3c2=O)cc1

>  <Energy>  (37) 
59.808563685134764

>  <Genealogy>  (37) 
COc1ccc(C=CC(=O)/C=C/c2coc3ccccc3c2=O)cc1 (cis-trans isomerization)
COc1ccc(C=CC(=O)/C=C/c2coc3ccccc3c2=O)cc1 (3D coordinates assigned)
COc1ccc(C=CC(=O)/C=C/c2coc3ccccc3c2=O)cc1 (optimized conformer: 59.808563685134764 kcal/mol)

>  <smiles>  (37) 
COc1ccc(C=CC(=O)C=Cc2coc3ccccc3c2=O)cc1

>  <score_type>  (37) 
oracle

>  <origin>  (37) 
adg

>  <m_score__min__energy>  (37) 
-8.3200000000000003

>  <m_primary>  (37) 
energy

$$$$
37:0
     RDKit          3D

 40 42  0  0  0  0  0  0  0  0999 V2000
   63.8330   33.0230   46.4780 F   0  0  0  0  0  0  0  0  0  0  0  0
   62.9740   32.6030   47.4640 C   0  0  0  0  0  0  0  0  0  0  0  0
   63.0600   33.1240   48.7440 C   0  0  0  0  0  0  0  0  0  0  0  0
   62.1630   32.6600   49.6970 C   0  0  0  0  0  0  0  0  0  0  0  0
   61.2170   31.7070   49.3690 C   0  0  0  0  0  0  0  0  0  0  0  0
   61.1200   31.1770   48.0900 C   0  0  0  0  0  0  0  0  0  0  0  0
   60.1010   30.1590   47.7600 C   0  0  0  0  0  0  0  0  0  0  0  0
   59.3040   30.4780   46.6310 N   0  0  0  0  0  0  0  0  0  0  0  0
   58.3550   31.5200   46.8780 C   0  0  0  0  0  0  0  0  0  0  0  0
   58.8030   32.8690   46.4880 C   0  0  0  0  0  0  0  0  0  0  0  0
   58.8190   33.2870   45.1620 C   0  0  0  0  0  0  0  0  0  0  0  0
   59.2590   34.5790   44.8830 C   0  0  0  0  0  0  0  0  0  0  0  0
   59.6640   35.4090   45.9230 C   0  0  0  0  0  0  0  0  0  0  0  0
   59.6460   34.9930   47.2350 C   0  0  0  0  0  0  0  0  0  0  0  0
   59.2160   33.7230   47.5180 C   0  0  0  0  0  0  0  0  0  0  0  0
   58.7720   29.3530   45.9320 C   0  0  0  0  0  0  0  0  0  0  0  0
   57.6900   29.7390   45.0000 C   0  0  0  0  0  0  0  0  0  0  0  0
   57.7550   30.2740   43.7300 C   0  0  0  0  0  0  0  0  0  0  0  0
   56.4870   30.4700   43.2460 C   0  0  0  0  0  0  0  0  0  0  0  0
   55.6500   30.0500   44.2320 N   0  0  0  0  0  0  0  0  0  0  0  0
   56.3650   29.6230   45.2560 N   0  0  0  0  0  0  0  0  0  0  0  0
   62.0280   31.6510   47.1380 C   0  0  0  0  0  0  0  0  0  0  0  0
   63.8155   33.8820   48.9981 H   0  0  0  0  0  0  0  0  0  0  0  0
   62.2056   33.0546   50.7229 H   0  0  0  0  0  0  0  0  0  0  0  0
   60.5200   31.3581   50.1452 H   0  0  0  0  0  0  0  0  0  0  0  0
   60.6159   29.2076   47.5609 H   0  0  0  0  0  0  0  0  0  0  0  0
   59.4198   30.1031   48.6219 H   0  0  0  0  0  0  0  0  0  0  0  0
   57.4382   31.2881   46.3162 H   0  0  0  0  0  0  0  0  0  0  0  0
   58.2014   31.5474   47.9669 H   0  0  0  0  0  0  0  0  0  0  0  0
   58.4928   32.6151   44.3544 H   0  0  0  0  0  0  0  0  0  0  0  0
   59.2860   34.9412   43.8447 H   0  0  0  0  0  0  0  0  0  0  0  0
   60.0087   36.4274   45.6903 H   0  0  0  0  0  0  0  0  0  0  0  0
   59.9707   35.6673   48.0411 H   0  0  0  0  0  0  0  0  0  0  0  0
   59.1951   33.3724   48.5604 H   0  0  0  0  0  0  0  0  0  0  0  0
   59.5809   28.8764   45.3588 H   0  0  0  0  0  0  0  0  0  0  0  0
   58.3488   28.6611   46.6751 H   0  0  0  0  0  0  0  0  0  0  0  0
   58.6831   30.5079   43.1879 H   0  0  0  0  0  0  0  0  0  0  0  0
   56.2057   30.8810   42.2652 H   0  0  0  0  0  0  0  0  0  0  0  0
   54.6090   30.0940   44.1130 H   0  0  0  0  0  0  0  0  0  0  0  0
   61.9881   31.2586   46.1111 H   0  0  0  0  0  0  0  0  0  0  0  0
  1  2  1  0
  2  3  2  0
  3  4  1  0
  4  5  2  0
  5  6  1  0
  6  7  1  0
  7  8  1  0
  8  9  1  0
  9 10  1  0
 10 11  2  0
 11 12  1  0
 12 13  2  0
 13 14  1  0
 14 15  2  0
  8 16  1  0
 16 17  1  0
 17 18  1  0
 18 19  2  0
 19 20  1  0
 20 21  1  0
  6 22  2  0
 22  2  1  0
 15 10  1  0
 21 17  2  0
  3 23  1  0
  4 24  1  0
  5 25  1  0
  7 26  1  0
  7 27  1  0
  9 28  1  0
  9 29  1  0
 11 30  1  0
 12 31  1  0
 13 32  1  0
 14 33  1  0
 15 34  1  0
 16 35  1  0
 16 36  1  0
 18 37  1  0
 19 38  1  0
 20 39  1  0
 22 40  1  0
M  END
>  <smiles>  (38) 
Fc1cccc(CN(Cc2ccccc2)Cc2cc[nH]n2)c1

>  <score_type>  (38) 
oracle

>  <origin>  (38) 
adg

>  <m_score__min__energy>  (38) 
-7.7599999999999998

>  <m_primary>  (38) 
energy

$$$$
38:0
     RDKit          3D

 38 40  0  0  0  0  0  0  0  0999 V2000
   62.1300   31.3950   48.0270 C   0  0  0  0  0  0  0  0  0  0  0  0
   60.9190   30.6640   47.5300 C   0  0  0  0  0  0  0  0  0  0  0  0
   59.7080   30.7510   48.2270 C   0  0  0  0  0  0  0  0  0  0  0  0
   58.5650   30.1140   47.7390 C   0  0  0  0  0  0  0  0  0  0  0  0
   58.6010   29.4290   46.5130 C   0  0  0  0  0  0  0  0  0  0  0  0
   57.4270   28.7940   45.9840 N   0  0  0  0  0  0  0  0  0  0  0  0
   56.6610   29.1730   44.8310 C   0  0  0  0  0  0  0  0  0  0  0  0
   55.4220   29.3510   44.9690 O   0  0  0  0  0  0  0  0  0  0  0  0
   57.2430   29.2430   43.4450 C   0  0  0  0  0  0  0  0  0  0  0  0
   56.6960   30.7560   42.5830 S   0  0  0  0  0  0  0  0  0  0  0  0
   57.4000   31.8830   43.7850 C   0  0  0  0  0  0  0  0  0  0  0  0
   57.1970   31.7760   45.1210 N   0  0  0  0  0  0  0  0  0  0  0  0
   57.9100   32.7950   45.6230 C   0  0  0  0  0  0  0  0  0  0  0  0
   58.0990   33.1510   46.9550 C   0  0  0  0  0  0  0  0  0  0  0  0
   58.9180   34.2660   47.2180 C   0  0  0  0  0  0  0  0  0  0  0  0
   59.5130   34.9850   46.1550 C   0  0  0  0  0  0  0  0  0  0  0  0
   59.2990   34.5930   44.8190 C   0  0  0  0  0  0  0  0  0  0  0  0
   58.4930   33.4800   44.5990 C   0  0  0  0  0  0  0  0  0  0  0  0
   58.1760   32.9060   43.4640 O   0  0  0  0  0  0  0  0  0  0  0  0
   59.8280   29.2930   45.8330 C   0  0  0  0  0  0  0  0  0  0  0  0
   59.9190   28.4680   44.5790 C   0  0  0  0  0  0  0  0  0  0  0  0
   60.9760   29.9270   46.3390 C   0  0  0  0  0  0  0  0  0  0  0  0
   62.1318   31.3961   49.1270 H   0  0  0  0  0  0  0  0  0  0  0  0
   63.0375   30.8937   47.6593 H   0  0  0  0  0  0  0  0  0  0  0  0
   62.1092   32.4315   47.6593 H   0  0  0  0  0  0  0  0  0  0  0  0
   59.6565   31.3243   49.1644 H   0  0  0  0  0  0  0  0  0  0  0  0
   57.6305   30.1488   48.3183 H   0  0  0  0  0  0  0  0  0  0  0  0
   58.3407   29.2457   43.5153 H   0  0  0  0  0  0  0  0  0  0  0  0
   56.8961   28.3690   42.8742 H   0  0  0  0  0  0  0  0  0  0  0  0
   56.6410   31.0580   45.6360 H   0  0  0  0  0  0  0  0  0  0  0  0
   57.6270   32.5836   47.7706 H   0  0  0  0  0  0  0  0  0  0  0  0
   59.0962   34.5799   48.2571 H   0  0  0  0  0  0  0  0  0  0  0  0
   60.1475   35.8567   46.3732 H   0  0  0  0  0  0  0  0  0  0  0  0
   59.7514   35.1452   43.9821 H   0  0  0  0  0  0  0  0  0  0  0  0
   60.0360   27.4072   44.8457 H   0  0  0  0  0  0  0  0  0  0  0  0
   59.0010   28.5982   43.9870 H   0  0  0  0  0  0  0  0  0  0  0  0
   60.7865   28.7951   43.9870 H   0  0  0  0  0  0  0  0  0  0  0  0
   61.9285   29.8440   45.7950 H   0  0  0  0  0  0  0  0  0  0  0  0
  1  2  1  0
  2  3  2  0
  3  4  1  0
  4  5  2  0
  5  6  1  0
  6  7  1  0
  7  8  2  0
  7  9  1  0
  9 10  1  0
 10 11  1  0
 11 12  2  0
 12 13  1  0
 13 14  2  0
 14 15  1  0
 15 16  2  0
 16 17  1  0
 17 18  2  0
 18 19  1  0
  5 20  1  0
 20 21  1  0
 20 22  2  0
 22  2  1  0
 19 11  1  0
 18 13  1  0
  1 23  1  0
  1 24  1  0
  1 25  1  0
  3 26  1  0
  4 27  1  0
  9 28  1  0
  9 29  1  0
 12 30  1  0
 14 31  1  0
 15 32  1  0
 16 33  1  0
 17 34  1  0
 21 35  1  0
 21 36  1  0
 21 37  1  0
 22 38  1  0
M  CHG  2   6  -1  12   1
M  END
>  <UniqueID>  (39) 
38

>  <SMILES>  (39) 
Cc1ccc([N-]C(=O)CSc2[nH+]c3ccccc3o2)c(C)c1

>  <Energy>  (39) 
75.089861718085

>  <Genealogy>  (39) 
Cc1ccc([N-]C(=O)CSc2[nH+]c3ccccc3o2)c(C)c1 (protonated)
Cc1ccc([N-]C(=O)CSc2[nH+]c3ccccc3o2)c(C)c1 (3D coordinates assigned)
Cc1ccc([N-]C(=O)CSc2[nH+]c3ccccc3o2)c(C)c1 (optimized conformer: 75.089861718085 kcal/mol)

>  <smiles>  (39) 
Cc1ccc(NC(=O)CSc2nc3ccccc3o2)c(C)c1

>  <score_type>  (39) 
oracle

>  <origin>  (39) 
adg

>  <m_score__min__energy>  (39) 
-8.2200000000000006

>  <m_primary>  (39) 
energy

$$$$
39:0
     RDKit          3D

 36 36  0  0  0  0  0  0  0  0999 V2000
   57.3990   33.8710   45.9940 C   0  0  0  0  0  0  0  0  0  0  0  0
   58.4910   33.1250   45.2310 C   0  0  0  0  0  0  0  0  0  0  0  0
   58.1430   32.9130   43.7500 C   0  0  0  0  0  0  0  0  0  0  0  0
   57.6710   31.4810   43.4540 C   0  0  0  0  0  0  0  0  0  0  0  0
   56.3580   31.1750   44.1870 C   0  0  0  0  0  0  0  0  0  0  0  0
   55.8130   29.7850   43.8290 C   0  0  0  0  0  0  0  0  0  0  0  0
   55.6970   28.9330   45.0150 N   0  0  0  0  0  0  0  0  0  0  0  0
   56.7420   28.0670   45.5060 C   0  0  0  0  0  0  0  0  0  0  0  0
   58.0900   28.4780   45.5090 C   0  0  0  0  0  0  0  0  0  0  0  0
   59.0900   27.6320   45.9930 C   0  0  0  0  0  0  0  0  0  0  0  0
   58.7610   26.3700   46.4840 C   0  0  0  0  0  0  0  0  0  0  0  0
   57.4310   25.9480   46.4960 C   0  0  0  0  0  0  0  0  0  0  0  0
   56.4100   26.7890   46.0080 C   0  0  0  0  0  0  0  0  0  0  0  0
   55.0650   26.3840   45.9980 O   0  0  0  0  0  0  0  0  0  0  0  0
   54.6140   25.0840   45.6330 C   0  0  0  0  0  0  0  0  0  0  0  0
   57.5647   33.7578   47.0755 H   0  0  0  0  0  0  0  0  0  0  0  0
   57.4294   34.9379   45.7281 H   0  0  0  0  0  0  0  0  0  0  0  0
   56.4161   33.4547   45.7281 H   0  0  0  0  0  0  0  0  0  0  0  0
   59.4230   33.7059   45.2934 H   0  0  0  0  0  0  0  0  0  0  0  0
   58.5978   32.1319   45.6918 H   0  0  0  0  0  0  0  0  0  0  0  0
   57.3410   33.6129   43.4727 H   0  0  0  0  0  0  0  0  0  0  0  0
   59.0567   33.0909   43.1639 H   0  0  0  0  0  0  0  0  0  0  0  0
   57.5132   31.3704   42.3710 H   0  0  0  0  0  0  0  0  0  0  0  0
   58.4411   30.7776   43.8037 H   0  0  0  0  0  0  0  0  0  0  0  0
   56.5377   31.2181   45.2714 H   0  0  0  0  0  0  0  0  0  0  0  0
   55.6130   31.9231   43.8785 H   0  0  0  0  0  0  0  0  0  0  0  0
   54.8192   29.8976   43.3710 H   0  0  0  0  0  0  0  0  0  0  0  0
   56.5148   29.3086   43.1286 H   0  0  0  0  0  0  0  0  0  0  0  0
   54.7750   28.9390   45.5060 H   0  0  0  0  0  0  0  0  0  0  0  0
   58.3569   29.4743   45.1266 H   0  0  0  0  0  0  0  0  0  0  0  0
   60.1392   27.9623   45.9867 H   0  0  0  0  0  0  0  0  0  0  0  0
   59.5513   25.7052   46.8628 H   0  0  0  0  0  0  0  0  0  0  0  0
   57.1774   24.9524   46.8889 H   0  0  0  0  0  0  0  0  0  0  0  0
   54.4107   24.4980   46.5414 H   0  0  0  0  0  0  0  0  0  0  0  0
   53.6929   25.1691   45.0378 H   0  0  0  0  0  0  0  0  0  0  0  0
   55.3899   24.5804   45.0378 H   0  0  0  0  0  0  0  0  0  0  0  0
  1  2  1  0
  2  3  1  0
  3  4  1  0
  4  5  1  0
  5  6  1  0
  6  7  1  0
  7  8  1  0
  8  9  2  0
  9 10  1  0
 10 11  2  0
 11 12  1  0
 12 13  2  0
 13 14  1  0
 14 15  1  0
 13  8  1  0
  1 16  1  0
  1 17  1  0
  1 18  1  0
  2 19  1  0
  2 20  1  0
  3 21  1  0
  3 22  1  0
  4 23  1  0
  4 24  1  0
  5 25  1  0
  5 26  1  0
  6 27  1  0
  6 28  1  0
  7 29  1  0
  9 30  1  0
 10 31  1  0
 11 32  1  0
 12 33  1  0
 15 34  1  0
 15 35  1  0
 15 36  1  0
M  END
>  <UniqueID>  (40) 
39

>  <SMILES>  (40) 
CCCCCCNc1ccccc1OC

>  <Energy>  (40) 
23.399413290595724

>  <Genealogy>  (40) 
CCCCCCNc1ccccc1OC (3D coordinates assigned)
CCCCCCNc1ccccc1OC (optimized conformer: 23.399413290595724 kcal/mol)

>  <smiles>  (40) 
CCCCCCNc1ccccc1OC

>  <score_type>  (40) 
oracle

>  <origin>  (40) 
adg

>  <m_score__min__energy>  (40) 
-6.4000000000000004

>  <m_primary>  (40) 
energy

$$$$
40:0
     RDKit          3D

 51 54  0  0  0  0  0  0  0  0999 V2000
   60.7210   26.7490   48.4510 C   0  0  0  0  0  0  0  0  0  0  0  0
   60.7690   27.1020   47.0720 O   0  0  0  0  0  0  0  0  0  0  0  0
   59.7360   27.7560   46.3880 C   0  0  0  0  0  0  0  0  0  0  0  0
   60.0700   28.5600   45.2900 C   0  0  0  0  0  0  0  0  0  0  0  0
   59.0780   29.2530   44.5900 C   0  0  0  0  0  0  0  0  0  0  0  0
   57.7340   29.1450   44.9720 C   0  0  0  0  0  0  0  0  0  0  0  0
   56.4980   30.0790   44.1290 S   0  0  0  0  0  0  0  0  0  0  0  0
   56.9090   30.2660   42.6950 O   0  0  0  0  0  0  0  0  0  0  0  0
   55.1790   29.3540   44.1340 O   0  0  0  0  0  0  0  0  0  0  0  0
   56.3500   31.6480   44.8600 N   0  0  0  0  0  0  0  0  0  0  0  0
   57.4100   32.5590   45.1820 C   0  0  0  0  0  0  0  0  0  0  0  0
   57.3870   33.8360   44.6060 C   0  0  0  0  0  0  0  0  0  0  0  0
   58.4070   34.7510   44.8690 C   0  0  0  0  0  0  0  0  0  0  0  0
   59.4590   34.4040   45.7180 C   0  0  0  0  0  0  0  0  0  0  0  0
   59.4920   33.1400   46.3310 C   0  0  0  0  0  0  0  0  0  0  0  0
   60.6150   32.7820   47.2310 C   0  0  0  0  0  0  0  0  0  0  0  0
   61.2250   31.5230   47.1840 C   0  0  0  0  0  0  0  0  0  0  0  0
   62.2890   31.2450   48.0360 C   0  0  0  0  0  0  0  0  0  0  0  0
   62.7350   32.2270   48.9330 C   0  0  0  0  0  0  0  0  0  0  0  0
   63.8490   31.9700   49.8180 N   0  0  0  0  0  0  0  0  0  0  0  0
   65.1330   32.6460   49.7200 C   0  0  0  0  0  0  0  0  0  0  0  0
   65.9430   32.1790   50.9220 C   0  0  0  0  0  0  0  0  0  0  0  0
   65.2500   30.9180   51.4260 C   0  0  0  0  0  0  0  0  0  0  0  0
   63.8270   30.9860   50.8900 C   0  0  0  0  0  0  0  0  0  0  0  0
   62.0910   33.4330   48.9520 N   0  0  0  0  0  0  0  0  0  0  0  0
   61.0720   33.6930   48.1320 N   0  0  0  0  0  0  0  0  0  0  0  0
   58.4630   32.2200   46.0530 C   0  0  0  0  0  0  0  0  0  0  0  0
   57.3940   28.3250   46.0560 C   0  0  0  0  0  0  0  0  0  0  0  0
   58.3860   27.6370   46.7640 C   0  0  0  0  0  0  0  0  0  0  0  0
   60.8439   27.6531   49.0654 H   0  0  0  0  0  0  0  0  0  0  0  0
   59.7510   26.2817   48.6763 H   0  0  0  0  0  0  0  0  0  0  0  0
   61.5310   26.0396   48.6763 H   0  0  0  0  0  0  0  0  0  0  0  0
   61.1208   28.6465   44.9765 H   0  0  0  0  0  0  0  0  0  0  0  0
   59.3540   29.8868   43.7343 H   0  0  0  0  0  0  0  0  0  0  0  0
   56.5580   34.1196   43.9409 H   0  0  0  0  0  0  0  0  0  0  0  0
   58.3819   35.7485   44.4060 H   0  0  0  0  0  0  0  0  0  0  0  0
   60.2677   35.1248   45.9086 H   0  0  0  0  0  0  0  0  0  0  0  0
   60.8657   30.7592   46.4787 H   0  0  0  0  0  0  0  0  0  0  0  0
   62.7781   30.2602   48.0065 H   0  0  0  0  0  0  0  0  0  0  0  0
   65.6413   32.3683   48.7848 H   0  0  0  0  0  0  0  0  0  0  0  0
   65.0143   33.7396   49.7130 H   0  0  0  0  0  0  0  0  0  0  0  0
   66.9773   31.9540   50.6227 H   0  0  0  0  0  0  0  0  0  0  0  0
   65.9923   32.9529   51.7021 H   0  0  0  0  0  0  0  0  0  0  0  0
   65.7608   30.0215   51.0447 H   0  0  0  0  0  0  0  0  0  0  0  0
   65.2671   30.8574   52.5242 H   0  0  0  0  0  0  0  0  0  0  0  0
   63.5175   30.0045   50.5016 H   0  0  0  0  0  0  0  0  0  0  0  0
   63.1123   31.2648   51.6783 H   0  0  0  0  0  0  0  0  0  0  0  0
   62.3880   34.1850   49.6110 H   0  0  0  0  0  0  0  0  0  0  0  0
   58.4820   31.2250   46.5217 H   0  0  0  0  0  0  0  0  0  0  0  0
   56.3399   28.2212   46.3527 H   0  0  0  0  0  0  0  0  0  0  0  0
   58.1088   27.0009   47.6176 H   0  0  0  0  0  0  0  0  0  0  0  0
  1  2  1  0
  2  3  1  0
  3  4  2  0
  4  5  1  0
  5  6  2  0
  6  7  1  0
  7  8  2  0
  7  9  2  0
  7 10  1  0
 10 11  1  0
 11 12  2  0
 12 13  1  0
 13 14  2  0
 14 15  1  0
 15 16  1  0
 16 17  2  0
 17 18  1  0
 18 19  2  0
 19 20  1  0
 20 21  1  0
 21 22  1  0
 22 23  1  0
 23 24  1  0
 19 25  1  0
 25 26  2  0
 15 27  2  0
  6 28  1  0
 28 29  2  0
 29  3  1  0
 27 11  1  0
 26 16  1  0
 24 20  1  0
  1 30  1  0
  1 31  1  0
  1 32  1  0
  4 33  1  0
  5 34  1  0
 12 35  1  0
 13 36  1  0
 14 37  1  0
 17 38  1  0
 18 39  1  0
 21 40  1  0
 21 41  1  0
 22 42  1  0
 22 43  1  0
 23 44  1  0
 23 45  1  0
 24 46  1  0
 24 47  1  0
 25 48  1  0
 27 49  1  0
 28 50  1  0
 29 51  1  0
M  CHG  2  10  -1  25   1
M  END
>  <UniqueID>  (41) 
40

>  <SMILES>  (41) 
COc1ccc(S(=O)(=O)[N-]c2cccc(-c3ccc(N4CCCC4)[nH+]n3)c2)cc1

>  <Energy>  (41) 
64.16837828793439

>  <Genealogy>  (41) 
COc1ccc(S(=O)(=O)[N-]c2cccc(-c3ccc(N4CCCC4)[nH+]n3)c2)cc1 (protonated)
COc1ccc(S(=O)(=O)[N-]c2cccc(-c3ccc(N4CCCC4)[nH+]n3)c2)cc1 (3D coordinates assigned)
COc1ccc(S(=O)(=O)[N-]c2cccc(-c3ccc(N4CCCC4)[nH+]n3)c2)cc1 (nonaromatic ring conformer: 64.16837828793439 kcal/mol)

>  <smiles>  (41) 
COc1ccc(S(=O)(=O)Nc2cccc(-c3ccc(N4CCCC4)nn3)c2)cc1

>  <score_type>  (41) 
oracle

>  <origin>  (41) 
adg

>  <m_score__min__energy>  (41) 
-9.5600000000000005

>  <m_primary>  (41) 
energy

$$$$
41:0
     RDKit          3D

 35 37  0  0  0  0  0  0  0  0999 V2000
   55.6180   28.9220   45.1250 O   0  0  0  0  0  0  0  0  0  0  0  0
   56.8140   29.3220   45.1690 C   0  0  0  0  0  0  0  0  0  0  0  0
   57.7660   28.5900   46.0780 C   0  0  0  0  0  0  0  0  0  0  0  0
   58.2160   27.2710   45.4480 C   0  0  0  0  0  0  0  0  0  0  0  0
   57.0510   26.4540   45.1160 N   0  0  0  0  0  0  0  0  0  0  0  0
   57.1070   25.0200   45.0800 C   0  0  0  0  0  0  0  0  0  0  0  0
   57.1540   24.3440   43.8430 C   0  0  0  0  0  0  0  0  0  0  0  0
   57.2090   22.9340   43.7950 C   0  0  0  0  0  0  0  0  0  0  0  0
   57.1960   22.1800   44.9810 C   0  0  0  0  0  0  0  0  0  0  0  0
   57.1180   22.8670   46.1890 C   0  0  0  0  0  0  0  0  0  0  0  0
   57.0540   22.3540   47.3930 O   0  0  0  0  0  0  0  0  0  0  0  0
   56.9560   23.3530   48.2490 C   0  0  0  0  0  0  0  0  0  0  0  0
   56.9560   24.5690   47.5760 C   0  0  0  0  0  0  0  0  0  0  0  0
   57.0760   24.2360   46.2430 C   0  0  0  0  0  0  0  0  0  0  0  0
   57.2200   30.5050   44.3590 C   0  0  0  0  0  0  0  0  0  0  0  0
   57.8040   31.6460   44.9490 C   0  0  0  0  0  0  0  0  0  0  0  0
   58.1730   32.7430   44.1620 C   0  0  0  0  0  0  0  0  0  0  0  0
   57.9670   32.7190   42.7820 C   0  0  0  0  0  0  0  0  0  0  0  0
   57.3890   31.5990   42.1840 C   0  0  0  0  0  0  0  0  0  0  0  0
   57.0170   30.5000   42.9630 C   0  0  0  0  0  0  0  0  0  0  0  0
   58.6480   29.2217   46.2599 H   0  0  0  0  0  0  0  0  0  0  0  0
   57.2497   28.3698   47.0240 H   0  0  0  0  0  0  0  0  0  0  0  0
   58.7871   27.4809   44.5316 H   0  0  0  0  0  0  0  0  0  0  0  0
   58.8481   26.7254   46.1641 H   0  0  0  0  0  0  0  0  0  0  0  0
   56.2760   26.9240   44.5960 H   0  0  0  0  0  0  0  0  0  0  0  0
   57.1477   24.9210   42.9065 H   0  0  0  0  0  0  0  0  0  0  0  0
   57.2624   22.4222   42.8228 H   0  0  0  0  0  0  0  0  0  0  0  0
   57.2459   21.0814   44.9554 H   0  0  0  0  0  0  0  0  0  0  0  0
   56.8844   23.2396   49.3408 H   0  0  0  0  0  0  0  0  0  0  0  0
   56.8775   25.5762   48.0111 H   0  0  0  0  0  0  0  0  0  0  0  0
   57.9706   31.6735   46.0360 H   0  0  0  0  0  0  0  0  0  0  0  0
   58.6270   33.6273   44.6330 H   0  0  0  0  0  0  0  0  0  0  0  0
   58.2601   33.5823   42.1664 H   0  0  0  0  0  0  0  0  0  0  0  0
   57.2256   31.5809   41.0964 H   0  0  0  0  0  0  0  0  0  0  0  0
   56.5611   29.6218   42.4825 H   0  0  0  0  0  0  0  0  0  0  0  0
  1  2  2  0
  2  3  1  0
  3  4  1  0
  4  5  1  0
  5  6  1  0
  6  7  2  0
  7  8  1  0
  8  9  2  0
  9 10  1  0
 10 11  1  0
 11 12  1  0
 12 13  2  0
 13 14  1  0
  2 15  1  0
 15 16  2  0
 16 17  1  0
 17 18  2  0
 18 19  1  0
 19 20  2  0
 14  6  1  0
 20 15  1  0
 14 10  2  0
  3 21  1  0
  3 22  1  0
  4 23  1  0
  4 24  1  0
  5 25  1  0
  7 26  1  0
  8 27  1  0
  9 28  1  0
 12 29  1  0
 13 30  1  0
 16 31  1  0
 17 32  1  0
 18 33  1  0
 19 34  1  0
 20 35  1  0
M  END
>  <UniqueID>  (42) 
41

>  <SMILES>  (42) 
O=C(CCNc1cccc2occc12)c1ccccc1

>  <Energy>  (42) 
73.36369097390977

>  <Genealogy>  (42) 
O=C(CCNc1cccc2occc12)c1ccccc1 (3D coordinates assigned)
O=C(CCNc1cccc2occc12)c1ccccc1 (optimized conformer: 73.36369097390977 kcal/mol)

>  <smiles>  (42) 
O=C(CCNc1cccc2occc12)c1ccccc1

>  <score_type>  (42) 
oracle

>  <origin>  (42) 
adg

>  <m_score__min__energy>  (42) 
-7.2400000000000002

>  <m_primary>  (42) 
energy

$$$$
42:0
     RDKit          3D

 51 54  0  0  0  0  0  0  0  0999 V2000
   59.6930   33.4260   50.8380 C   0  0  0  0  0  0  0  0  0  0  0  0
   60.1860   34.2450   49.7830 O   0  0  0  0  0  0  0  0  0  0  0  0
   61.3410   33.9710   49.0330 C   0  0  0  0  0  0  0  0  0  0  0  0
   62.6090   33.8450   49.6340 C   0  0  0  0  0  0  0  0  0  0  0  0
   63.7410   33.6060   48.8500 C   0  0  0  0  0  0  0  0  0  0  0  0
   63.6230   33.4940   47.4640 C   0  0  0  0  0  0  0  0  0  0  0  0
   62.3710   33.6140   46.8570 C   0  0  0  0  0  0  0  0  0  0  0  0
   61.2260   33.8390   47.6360 C   0  0  0  0  0  0  0  0  0  0  0  0
   59.9450   33.9690   47.0010 N   0  0  0  0  0  0  0  0  0  0  0  0
   59.7570   34.9020   45.8860 C   0  0  0  0  0  0  0  0  0  0  0  0
   59.0450   34.2100   44.7040 C   0  0  0  0  0  0  0  0  0  0  0  0
   58.4720   32.8980   45.0830 N   0  0  0  0  0  0  0  0  0  0  0  0
   57.5880   32.3890   44.0190 C   0  0  0  0  0  0  0  0  0  0  0  0
   56.9780   31.0800   44.4290 C   0  0  0  0  0  0  0  0  0  0  0  0
   55.6540   30.8430   44.4540 N   0  0  0  0  0  0  0  0  0  0  0  0
   55.5360   29.5870   44.8650 N   0  0  0  0  0  0  0  0  0  0  0  0
   56.7340   29.0670   45.0860 N   0  0  0  0  0  0  0  0  0  0  0  0
   57.6490   29.9840   44.8290 N   0  0  0  0  0  0  0  0  0  0  0  0
   59.0920   29.7570   44.9020 C   0  0  0  0  0  0  0  0  0  0  0  0
   59.5810   29.9670   46.3090 C   0  0  0  0  0  0  0  0  0  0  0  0
   58.7210   29.7290   47.3940 C   0  0  0  0  0  0  0  0  0  0  0  0
   59.1750   29.9070   48.7050 C   0  0  0  0  0  0  0  0  0  0  0  0
   60.4890   30.3210   48.9400 C   0  0  0  0  0  0  0  0  0  0  0  0
   60.9290   30.4940   50.2120 F   0  0  0  0  0  0  0  0  0  0  0  0
   61.3500   30.5600   47.8650 C   0  0  0  0  0  0  0  0  0  0  0  0
   60.9000   30.3830   46.5540 C   0  0  0  0  0  0  0  0  0  0  0  0
   57.7680   32.9970   46.3770 C   0  0  0  0  0  0  0  0  0  0  0  0
   58.8050   33.1850   47.4910 C   0  0  0  0  0  0  0  0  0  0  0  0
   59.9624   33.8735   51.8061 H   0  0  0  0  0  0  0  0  0  0  0  0
   58.5984   33.3490   50.7615 H   0  0  0  0  0  0  0  0  0  0  0  0
   60.1373   32.4226   50.7615 H   0  0  0  0  0  0  0  0  0  0  0  0
   62.7085   33.9352   50.7258 H   0  0  0  0  0  0  0  0  0  0  0  0
   64.7273   33.5059   49.3266 H   0  0  0  0  0  0  0  0  0  0  0  0
   64.5167   33.3111   46.8492 H   0  0  0  0  0  0  0  0  0  0  0  0
   62.2822   33.5318   45.7637 H   0  0  0  0  0  0  0  0  0  0  0  0
   59.1472   35.7519   46.2263 H   0  0  0  0  0  0  0  0  0  0  0  0
   60.7443   35.2492   45.5475 H   0  0  0  0  0  0  0  0  0  0  0  0
   58.2327   34.8617   44.3498 H   0  0  0  0  0  0  0  0  0  0  0  0
   59.7927   34.0357   43.9163 H   0  0  0  0  0  0  0  0  0  0  0  0
   56.7872   33.1197   43.8323 H   0  0  0  0  0  0  0  0  0  0  0  0
   58.1803   32.2365   43.1047 H   0  0  0  0  0  0  0  0  0  0  0  0
   59.3137   28.7256   44.5906 H   0  0  0  0  0  0  0  0  0  0  0  0
   59.6012   30.4686   44.2354 H   0  0  0  0  0  0  0  0  0  0  0  0
   57.6868   29.4015   47.2119 H   0  0  0  0  0  0  0  0  0  0  0  0
   58.4975   29.7210   49.5514 H   0  0  0  0  0  0  0  0  0  0  0  0
   62.3833   30.8879   48.0514 H   0  0  0  0  0  0  0  0  0  0  0  0
   61.5812   30.5701   45.7108 H   0  0  0  0  0  0  0  0  0  0  0  0
   57.0832   33.8577   46.3604 H   0  0  0  0  0  0  0  0  0  0  0  0
   57.1876   32.0802   46.5577 H   0  0  0  0  0  0  0  0  0  0  0  0
   58.3381   33.7129   48.3356 H   0  0  0  0  0  0  0  0  0  0  0  0
   59.1640   32.1970   47.8151 H   0  0  0  0  0  0  0  0  0  0  0  0
  1  2  1  0
  2  3  1  0
  3  4  2  0
  4  5  1  0
  5  6  2  0
  6  7  1  0
  7  8  2  0
  8  9  1  0
  9 10  1  0
 10 11  1  0
 11 12  1  0
 12 13  1  0
 13 14  1  0
 14 15  2  0
 15 16  1  0
 16 17  2  0
 17 18  1  0
 18 19  1  0
 19 20  1  0
 20 21  2  0
 21 22  1  0
 22 23  2  0
 23 24  1  0
 23 25  1  0
 25 26  2  0
 12 27  1  0
 27 28  1  0
  8  3  1  0
 28  9  1  0
 18 14  1  0
 26 20  1  0
  1 29  1  0
  1 30  1  0
  1 31  1  0
  4 32  1  0
  5 33  1  0
  6 34  1  0
  7 35  1  0
 10 36  1  0
 10 37  1  0
 11 38  1  0
 11 39  1  0
 13 40  1  0
 13 41  1  0
 19 42  1  0
 19 43  1  0
 21 44  1  0
 22 45  1  0
 25 46  1  0
 26 47  1  0
 27 48  1  0
 27 49  1  0
 28 50  1  0
 28 51  1  0
M  END
>  <UniqueID>  (43) 
42

>  <SMILES>  (43) 
COc1ccccc1N1CCN(Cc2nnnn2Cc2ccc(F)cc2)CC1

>  <Energy>  (43) 
99.82115331244965

>  <Genealogy>  (43) 
COc1ccccc1N1CCN(Cc2nnnn2Cc2ccc(F)cc2)CC1 (3D coordinates assigned)
COc1ccccc1N1CCN(Cc2nnnn2Cc2ccc(F)cc2)CC1 (nonaromatic ring conformer: 99.82115331244965 kcal/mol)

>  <smiles>  (43) 
COc1ccccc1N1CCN(Cc2nnnn2Cc2ccc(F)cc2)CC1

>  <score_type>  (43) 
oracle

>  <origin>  (43) 
adg

>  <m_score__min__energy>  (43) 
-8.7400000000000002

>  <m_primary>  (43) 
energy

$$$$
43:0
     RDKit          3D

 46 48  0  0  0  0  0  0  0  0999 V2000
   60.2380   30.3540   46.4980 C   0  0  0  0  0  0  0  0  0  0  0  0
   58.6740   30.9970   47.1690 S   0  0  0  0  0  0  0  0  0  0  0  0
   59.0290   32.6930   46.6910 C   0  0  0  0  0  0  0  0  0  0  0  0
   59.4570   33.6030   47.6660 C   0  0  0  0  0  0  0  0  0  0  0  0
   59.7450   34.9230   47.3140 C   0  0  0  0  0  0  0  0  0  0  0  0
   59.6060   35.3400   45.9890 C   0  0  0  0  0  0  0  0  0  0  0  0
   59.1760   34.4380   45.0110 C   0  0  0  0  0  0  0  0  0  0  0  0
   58.8830   33.1020   45.3540 C   0  0  0  0  0  0  0  0  0  0  0  0
   58.4480   32.1620   44.4050 O   0  0  0  0  0  0  0  0  0  0  0  0
   57.1080   31.6900   44.2630 C   0  0  0  0  0  0  0  0  0  0  0  0
   57.0360   30.2170   44.5090 C   0  0  0  0  0  0  0  0  0  0  0  0
   57.9330   29.2680   44.0700 C   0  0  0  0  0  0  0  0  0  0  0  0
   57.4200   28.0830   44.5610 C   0  0  0  0  0  0  0  0  0  0  0  0
   57.9920   26.7390   44.3150 C   0  0  0  0  0  0  0  0  0  0  0  0
   58.1160   26.3660   43.1160 O   0  0  0  0  0  0  0  0  0  0  0  0
   58.4030   25.8420   45.3760 N   0  0  0  0  0  0  0  0  0  0  0  0
   59.6710   26.1160   46.0630 C   0  0  0  0  0  0  0  0  0  0  0  0
   57.5290   24.7760   45.8950 C   0  0  0  0  0  0  0  0  0  0  0  0
   57.4330   23.6010   44.9470 C   0  0  0  0  0  0  0  0  0  0  0  0
   56.6270   23.6380   43.7970 C   0  0  0  0  0  0  0  0  0  0  0  0
   56.5970   22.5460   42.9300 C   0  0  0  0  0  0  0  0  0  0  0  0
   57.3870   21.4310   43.2030 C   0  0  0  0  0  0  0  0  0  0  0  0
   58.1850   21.4140   44.3050 N   0  0  0  0  0  0  0  0  0  0  0  0
   58.2300   22.4660   45.1670 C   0  0  0  0  0  0  0  0  0  0  0  0
   56.2880   28.3380   45.2450 N   0  0  0  0  0  0  0  0  0  0  0  0
   56.0920   29.6230   45.1980 O   0  0  0  0  0  0  0  0  0  0  0  0
   60.9070   30.0790   47.3267 H   0  0  0  0  0  0  0  0  0  0  0  0
   60.0348   29.4664   45.8808 H   0  0  0  0  0  0  0  0  0  0  0  0
   60.7178   31.1278   45.8808 H   0  0  0  0  0  0  0  0  0  0  0  0
   59.5664   33.2771   48.7109 H   0  0  0  0  0  0  0  0  0  0  0  0
   60.0818   35.6353   48.0816 H   0  0  0  0  0  0  0  0  0  0  0  0
   59.8352   36.3801   45.7139 H   0  0  0  0  0  0  0  0  0  0  0  0
   59.0657   34.7722   43.9688 H   0  0  0  0  0  0  0  0  0  0  0  0
   56.4640   32.2088   44.9883 H   0  0  0  0  0  0  0  0  0  0  0  0
   56.7691   31.8934   43.2365 H   0  0  0  0  0  0  0  0  0  0  0  0
   58.8428   29.4183   43.4702 H   0  0  0  0  0  0  0  0  0  0  0  0
   59.5133   26.0819   47.1511 H   0  0  0  0  0  0  0  0  0  0  0  0
   60.4146   25.3578   45.7763 H   0  0  0  0  0  0  0  0  0  0  0  0
   60.0352   27.1136   45.7763 H   0  0  0  0  0  0  0  0  0  0  0  0
   57.9328   24.4236   46.8556 H   0  0  0  0  0  0  0  0  0  0  0  0
   56.5194   25.1962   46.0140 H   0  0  0  0  0  0  0  0  0  0  0  0
   56.0192   24.5288   43.5802 H   0  0  0  0  0  0  0  0  0  0  0  0
   55.9545   22.5647   42.0373 H   0  0  0  0  0  0  0  0  0  0  0  0
   57.3655   20.5636   42.5269 H   0  0  0  0  0  0  0  0  0  0  0  0
   58.7770   20.5750   44.4920 H   0  0  0  0  0  0  0  0  0  0  0  0
   58.8953   22.4270   46.0421 H   0  0  0  0  0  0  0  0  0  0  0  0
  1  2  1  0
  2  3  1  0
  3  4  2  0
  4  5  1  0
  5  6  2  0
  6  7  1  0
  7  8  2  0
  8  9  1  0
  9 10  1  0
 10 11  1  0
 11 12  2  0
 12 13  1  0
 13 14  1  0
 14 15  2  0
 14 16  1  0
 16 17  1  0
 16 18  1  0
 18 19  1  0
 19 20  2  0
 20 21  1  0
 21 22  2  0
 22 23  1  0
 23 24  2  0
 13 25  2  0
 25 26  1  0
  8  3  1  0
 26 11  1  0
 24 19  1  0
  1 27  1  0
  1 28  1  0
  1 29  1  0
  4 30  1  0
  5 31  1  0
  6 32  1  0
  7 33  1  0
 10 34  1  0
 10 35  1  0
 12 36  1  0
 17 37  1  0
 17 38  1  0
 17 39  1  0
 18 40  1  0
 18 41  1  0
 20 42  1  0
 21 43  1  0
 22 44  1  0
 23 45  1  0
 24 46  1  0
M  CHG  1  23   1
M  END
>  <UniqueID>  (44) 
43

>  <SMILES>  (44) 
CSc1ccccc1OCc1cc(C(=O)N(C)Cc2ccc[nH+]c2)no1

>  <Energy>  (44) 
74.38725828057564

>  <Genealogy>  (44) 
CSc1ccccc1OCc1cc(C(=O)N(C)Cc2ccc[nH+]c2)no1 (protonated)
CSc1ccccc1OCc1cc(C(=O)N(C)Cc2ccc[nH+]c2)no1 (3D coordinates assigned)
CSc1ccccc1OCc1cc(C(=O)N(C)Cc2ccc[nH+]c2)no1 (optimized conformer: 74.38725828057564 kcal/mol)

>  <smiles>  (44) 
CSc1ccccc1OCc1cc(C(=O)N(C)Cc2cccnc2)no1

>  <score_type>  (44) 
oracle

>  <origin>  (44) 
adg

>  <m_score__min__energy>  (44) 
-7.4699999999999998

>  <m_primary>  (44) 
energy

$$$$
44:0
     RDKit          3D

 48 48  0  0  0  0  0  0  0  0999 V2000
   57.8600   24.2330   46.0780 C   0  0  0  0  0  0  0  0  0  0  0  0
   57.1490   25.3130   46.8890 C   0  0  0  0  0  0  0  0  0  0  0  0
   55.8750   25.7320   46.2250 C   0  0  0  0  0  0  0  0  0  0  0  0
   54.9340   24.9030   46.0920 O   0  0  0  0  0  0  0  0  0  0  0  0
   55.7380   27.0700   45.7340 N   0  0  0  0  0  0  0  0  0  0  0  0
   56.8520   28.0010   45.5960 C   0  0  1  0  0  0  0  0  0  0  0  0
   57.8770   27.4510   44.5920 C   0  0  0  0  0  0  0  0  0  0  0  0
   59.5020   27.2010   45.3930 S   0  0  0  0  0  0  0  0  0  0  0  0
   60.0480   28.9390   45.2590 C   0  0  0  0  0  0  0  0  0  0  0  0
   59.8170   29.6710   46.5520 C   0  0  0  0  0  0  0  0  0  0  0  0
   59.1360   29.0510   47.6140 C   0  0  0  0  0  0  0  0  0  0  0  0
   58.9260   29.7370   48.8130 C   0  0  0  0  0  0  0  0  0  0  0  0
   59.3950   31.0440   48.9640 C   0  0  0  0  0  0  0  0  0  0  0  0
   60.0770   31.6680   47.9150 C   0  0  0  0  0  0  0  0  0  0  0  0
   60.2880   30.9860   46.7130 C   0  0  0  0  0  0  0  0  0  0  0  0
   56.3090   29.3300   45.1550 C   0  0  0  0  0  0  0  0  0  0  0  0
   55.1420   29.4010   44.6800 O   0  0  0  0  0  0  0  0  0  0  0  0
   57.1270   30.5020   45.2290 N   0  0  0  0  0  0  0  0  0  0  0  0
   56.9520   31.6500   44.3500 C   0  0  0  0  0  0  0  0  0  0  0  0
   58.1990   32.5310   44.3740 C   0  0  0  0  0  0  0  0  0  0  0  0
   57.9340   33.7660   45.1480 N   0  0  0  0  0  0  0  0  0  0  0  0
   59.1500   34.5880   45.2760 C   0  0  0  0  0  0  0  0  0  0  0  0
   57.4090   33.4520   46.4860 C   0  0  0  0  0  0  0  0  0  0  0  0
   58.3338   23.5133   46.7618 H   0  0  0  0  0  0  0  0  0  0  0  0
   57.1291   23.7098   45.4439 H   0  0  0  0  0  0  0  0  0  0  0  0
   58.6295   24.6975   45.4439 H   0  0  0  0  0  0  0  0  0  0  0  0
   56.9199   24.9187   47.8900 H   0  0  0  0  0  0  0  0  0  0  0  0
   57.8105   26.1889   46.9615 H   0  0  0  0  0  0  0  0  0  0  0  0
   57.3696   28.1268   46.5585 H   0  0  0  0  0  0  0  0  0  0  0  0
   57.5167   26.4887   44.1995 H   0  0  0  0  0  0  0  0  0  0  0  0
   57.9950   28.1780   43.7750 H   0  0  0  0  0  0  0  0  0  0  0  0
   61.1209   28.9626   45.0176 H   0  0  0  0  0  0  0  0  0  0  0  0
   59.4668   29.4316   44.4656 H   0  0  0  0  0  0  0  0  0  0  0  0
   58.7667   28.0211   47.5006 H   0  0  0  0  0  0  0  0  0  0  0  0
   58.3904   29.2469   49.6394 H   0  0  0  0  0  0  0  0  0  0  0  0
   59.2277   31.5825   49.9085 H   0  0  0  0  0  0  0  0  0  0  0  0
   60.4479   32.6965   48.0356 H   0  0  0  0  0  0  0  0  0  0  0  0
   60.8247   31.4802   45.8898 H   0  0  0  0  0  0  0  0  0  0  0  0
   56.7767   31.2972   43.3230 H   0  0  0  0  0  0  0  0  0  0  0  0
   56.0909   32.2393   44.6983 H   0  0  0  0  0  0  0  0  0  0  0  0
   59.0263   31.9781   44.8429 H   0  0  0  0  0  0  0  0  0  0  0  0
   58.4681   32.8028   43.3426 H   0  0  0  0  0  0  0  0  0  0  0  0
   59.3780   34.7421   46.3410 H   0  0  0  0  0  0  0  0  0  0  0  0
   59.9929   34.0737   44.7913 H   0  0  0  0  0  0  0  0  0  0  0  0
   58.9870   35.5619   44.7913 H   0  0  0  0  0  0  0  0  0  0  0  0
   58.0876   33.8579   47.2507 H   0  0  0  0  0  0  0  0  0  0  0  0
   56.4124   33.9025   46.6039 H   0  0  0  0  0  0  0  0  0  0  0  0
   57.3344   32.3609   46.6039 H   0  0  0  0  0  0  0  0  0  0  0  0
  1  2  1  0
  2  3  1  0
  3  4  2  0
  3  5  1  0
  5  6  1  0
  6  7  1  0
  7  8  1  0
  8  9  1  0
  9 10  1  0
 10 11  2  0
 11 12  1  0
 12 13  2  0
 13 14  1  0
 14 15  2  0
  6 16  1  0
 16 17  2  0
 16 18  1  0
 18 19  1  0
 19 20  1  0
 20 21  1  0
 21 22  1  0
 21 23  1  0
 15 10  1  0
  1 24  1  0
  1 25  1  0
  1 26  1  0
  2 27  1  0
  2 28  1  0
  6 29  1  1
  7 30  1  0
  7 31  1  0
  9 32  1  0
  9 33  1  0
 11 34  1  0
 12 35  1  0
 13 36  1  0
 14 37  1  0
 15 38  1  0
 19 39  1  0
 19 40  1  0
 20 41  1  0
 20 42  1  0
 22 43  1  0
 22 44  1  0
 22 45  1  0
 23 46  1  0
 23 47  1  0
 23 48  1  0
M  CHG  2   5  -1  18  -1
M  END
>  <UniqueID>  (45) 
44

>  <SMILES>  (45) 
CCC(=O)[N-][C@@H](CSCc1ccccc1)C(=O)[N-]CCN(C)C

>  <Energy>  (45) 
27.600445255622127

>  <Genealogy>  (45) 
CCC(=O)[N-]C(CSCc1ccccc1)C(=O)[N-]CCN(C)C (protonated)
CCC(=O)[N-][C@@H](CSCc1ccccc1)C(=O)[N-]CCN(C)C (chirality)
CCC(=O)[N-][C@@H](CSCc1ccccc1)C(=O)[N-]CCN(C)C (3D coordinates assigned)
CCC(=O)[N-][C@@H](CSCc1ccccc1)C(=O)[N-]CCN(C)C (optimized conformer: 27.600445255622127 kcal/mol)

>  <smiles>  (45) 
CCC(=O)NC(CSCc1ccccc1)C(=O)NCCN(C)C

>  <score_type>  (45) 
oracle

>  <origin>  (45) 
adg

>  <m_score__min__energy>  (45) 
-12.06

>  <m_primary>  (45) 
energy

$$$$
45:0
     RDKit          3D

 43 43  0  0  0  0  0  0  0  0999 V2000
   57.8410   27.9090   44.1600 C   0  0  0  0  0  0  0  0  0  0  0  0
   57.2770   28.4140   45.4820 C   0  0  0  0  0  0  0  0  0  0  0  0
   56.2880   29.4160   45.2560 O   0  0  0  0  0  0  0  0  0  0  0  0
   56.0390   29.9850   44.0010 C   0  0  0  0  0  0  0  0  0  0  0  0
   54.9890   29.7050   43.3610 O   0  0  0  0  0  0  0  0  0  0  0  0
   57.0210   30.9540   43.4260 C   0  0  0  0  0  0  0  0  0  0  0  0
   58.0660   31.2560   44.4010 N   0  0  0  0  0  0  0  0  0  0  0  0
   57.8780   32.2130   45.4560 C   0  0  0  0  0  0  0  0  0  0  0  0
   56.7680   32.7970   45.5880 O   0  0  0  0  0  0  0  0  0  0  0  0
   58.9990   32.5340   46.4120 C   0  0  0  0  0  0  0  0  0  0  0  0
   60.0880   31.4460   46.3670 C   0  0  0  0  0  0  0  0  0  0  0  0
   61.1710   31.7330   47.4190 C   0  0  0  0  0  0  0  0  0  0  0  0
   61.5070   33.1660   47.4740 N   0  0  0  0  0  0  0  0  0  0  0  0
   62.0210   33.7390   48.6930 C   0  0  0  0  0  0  0  0  0  0  0  0
   61.6400   34.8880   49.0490 O   0  0  0  0  0  0  0  0  0  0  0  0
   62.9400   33.0130   49.5290 N   0  0  0  0  0  0  0  0  0  0  0  0
   62.8560   33.1610   50.9820 C   0  0  0  0  0  0  0  0  0  0  0  0
   63.9580   32.1340   48.9520 C   0  0  0  0  0  0  0  0  0  0  0  0
   61.0920   34.0380   46.3660 C   0  0  0  0  0  0  0  0  0  0  0  0
   59.5720   33.9540   46.1530 C   0  0  0  0  0  0  0  0  0  0  0  0
   58.6472   27.1871   44.3572 H   0  0  0  0  0  0  0  0  0  0  0  0
   57.0424   27.4185   43.5841 H   0  0  0  0  0  0  0  0  0  0  0  0
   58.2406   28.7567   43.5841 H   0  0  0  0  0  0  0  0  0  0  0  0
   56.8218   27.5730   46.0256 H   0  0  0  0  0  0  0  0  0  0  0  0
   58.0956   28.8508   46.0729 H   0  0  0  0  0  0  0  0  0  0  0  0
   57.4792   30.5159   42.5271 H   0  0  0  0  0  0  0  0  0  0  0  0
   56.4950   31.8844   43.1657 H   0  0  0  0  0  0  0  0  0  0  0  0
   58.9820   30.7620   44.3120 H   0  0  0  0  0  0  0  0  0  0  0  0
   58.5898   32.5402   47.4330 H   0  0  0  0  0  0  0  0  0  0  0  0
   59.6316   30.4667   46.5736 H   0  0  0  0  0  0  0  0  0  0  0  0
   60.5501   31.4427   45.3688 H   0  0  0  0  0  0  0  0  0  0  0  0
   60.8037   31.4143   48.4057 H   0  0  0  0  0  0  0  0  0  0  0  0
   62.0782   31.1773   47.1394 H   0  0  0  0  0  0  0  0  0  0  0  0
   63.3434   32.3023   51.4668 H   0  0  0  0  0  0  0  0  0  0  0  0
   63.3618   34.0893   51.2859 H   0  0  0  0  0  0  0  0  0  0  0  0
   61.7996   33.2027   51.2859 H   0  0  0  0  0  0  0  0  0  0  0  0
   64.5225   31.6466   49.7605 H   0  0  0  0  0  0  0  0  0  0  0  0
   63.4713   31.3676   48.3309 H   0  0  0  0  0  0  0  0  0  0  0  0
   64.6453   32.7272   48.3309 H   0  0  0  0  0  0  0  0  0  0  0  0
   61.3675   35.0768   46.6005 H   0  0  0  0  0  0  0  0  0  0  0  0
   61.5981   33.7090   45.4465 H   0  0  0  0  0  0  0  0  0  0  0  0
   59.0825   34.6599   46.8401 H   0  0  0  0  0  0  0  0  0  0  0  0
   59.3739   34.2009   45.0995 H   0  0  0  0  0  0  0  0  0  0  0  0
  1  2  1  0
  2  3  1  0
  3  4  1  0
  4  5  2  0
  4  6  1  0
  6  7  1  0
  7  8  1  0
  8  9  2  0
  8 10  1  0
 10 11  1  0
 11 12  1  0
 12 13  1  0
 13 14  1  0
 14 15  2  0
 14 16  1  0
 16 17  1  0
 16 18  1  0
 13 19  1  0
 19 20  1  0
 20 10  1  0
  1 21  1  0
  1 22  1  0
  1 23  1  0
  2 24  1  0
  2 25  1  0
  6 26  1  0
  6 27  1  0
  7 28  1  0
 10 29  1  0
 11 30  1  0
 11 31  1  0
 12 32  1  0
 12 33  1  0
 17 34  1  0
 17 35  1  0
 17 36  1  0
 18 37  1  0
 18 38  1  0
 18 39  1  0
 19 40  1  0
 19 41  1  0
 20 42  1  0
 20 43  1  0
M  END
>  <UniqueID>  (46) 
45

>  <SMILES>  (46) 
CCOC(=O)CNC(=O)C1CCN(C(=O)N(C)C)CC1

>  <Energy>  (46) 
35.35325913661368

>  <Genealogy>  (46) 
CCOC(=O)CNC(=O)C1CCN(C(=O)N(C)C)CC1 (3D coordinates assigned)
CCOC(=O)CNC(=O)C1CCN(C(=O)N(C)C)CC1 (nonaromatic ring conformer: 35.35325913661368 kcal/mol)

>  <smiles>  (46) 
CCOC(=O)CNC(=O)C1CCN(C(=O)N(C)C)CC1

>  <score_type>  (46) 
oracle

>  <origin>  (46) 
adg

>  <m_score__min__energy>  (46) 
-6.0999999999999996

>  <m_primary>  (46) 
energy

$$$$
46:0
     RDKit          3D

 47 49  0  0  0  0  0  0  0  0999 V2000
   62.2100   33.8410   46.3120 C   0  0  0  0  0  0  0  0  0  0  0  0
   60.8680   33.2660   46.8020 C   0  0  0  0  0  0  0  0  0  0  0  0
   59.9040   34.2780   47.3210 N   0  0  0  0  0  0  0  0  0  0  0  0
   60.1260   34.5260   48.7720 C   0  0  0  0  0  0  0  0  0  0  0  0
   61.2690   33.6820   49.2740 C   0  0  0  0  0  0  0  0  0  0  0  0
   61.0530   32.3390   49.6350 C   0  0  0  0  0  0  0  0  0  0  0  0
   62.1180   31.5410   50.0650 C   0  0  0  0  0  0  0  0  0  0  0  0
   63.4070   32.0740   50.1360 C   0  0  0  0  0  0  0  0  0  0  0  0
   64.4380   31.2980   50.5530 F   0  0  0  0  0  0  0  0  0  0  0  0
   63.6320   33.4080   49.7850 C   0  0  0  0  0  0  0  0  0  0  0  0
   62.5690   34.2110   49.3590 C   0  0  0  0  0  0  0  0  0  0  0  0
   58.4670   34.0500   46.9480 C   0  0  2  0  0  0  0  0  0  0  0  0
   57.9320   32.6270   47.3200 C   0  0  0  0  0  0  0  0  0  0  0  0
   58.5090   31.4060   46.5450 C   0  0  0  0  0  0  0  0  0  0  0  0
   57.9470   31.1850   45.1540 C   0  0  0  0  0  0  0  0  0  0  0  0
   57.2540   29.9970   44.8590 C   0  0  0  0  0  0  0  0  0  0  0  0
   56.7380   29.7760   43.5810 C   0  0  0  0  0  0  0  0  0  0  0  0
   56.8950   30.7440   42.5870 C   0  0  0  0  0  0  0  0  0  0  0  0
   57.5680   31.9340   42.8680 C   0  0  0  0  0  0  0  0  0  0  0  0
   58.0960   32.1650   44.1480 C   0  0  0  0  0  0  0  0  0  0  0  0
   58.8880   33.4140   44.4250 C   0  0  0  0  0  0  0  0  0  0  0  0
   58.1750   34.3470   45.4270 C   0  0  1  0  0  0  0  0  0  0  0  0
   56.7930   34.2580   45.1900 O   0  0  0  0  0  0  0  0  0  0  0  0
   62.8328   34.1079   47.1785 H   0  0  0  0  0  0  0  0  0  0  0  0
   62.7316   33.0874   45.7037 H   0  0  0  0  0  0  0  0  0  0  0  0
   62.0241   34.7385   45.7037 H   0  0  0  0  0  0  0  0  0  0  0  0
   60.3928   32.7418   45.9597 H   0  0  0  0  0  0  0  0  0  0  0  0
   61.1061   32.6043   47.6478 H   0  0  0  0  0  0  0  0  0  0  0  0
   60.3634   35.5888   48.9271 H   0  0  0  0  0  0  0  0  0  0  0  0
   59.2132   34.2610   49.3257 H   0  0  0  0  0  0  0  0  0  0  0  0
   60.0399   31.9142   49.5786 H   0  0  0  0  0  0  0  0  0  0  0  0
   61.9403   30.4928   50.3475 H   0  0  0  0  0  0  0  0  0  0  0  0
   64.6473   33.8273   49.8439 H   0  0  0  0  0  0  0  0  0  0  0  0
   62.7509   35.2617   49.0891 H   0  0  0  0  0  0  0  0  0  0  0  0
   57.9166   34.7790   47.5609 H   0  0  0  0  0  0  0  0  0  0  0  0
   58.1427   32.4666   48.3876 H   0  0  0  0  0  0  0  0  0  0  0  0
   56.8677   32.6515   47.0431 H   0  0  0  0  0  0  0  0  0  0  0  0
   59.5958   31.5477   46.4518 H   0  0  0  0  0  0  0  0  0  0  0  0
   58.2234   30.5183   47.1284 H   0  0  0  0  0  0  0  0  0  0  0  0
   57.1176   29.2361   45.6416 H   0  0  0  0  0  0  0  0  0  0  0  0
   56.2074   28.8388   43.3568 H   0  0  0  0  0  0  0  0  0  0  0  0
   56.4875   30.5684   41.5805 H   0  0  0  0  0  0  0  0  0  0  0  0
   57.6853   32.6949   42.0823 H   0  0  0  0  0  0  0  0  0  0  0  0
   59.8656   33.1285   44.8408 H   0  0  0  0  0  0  0  0  0  0  0  0
   59.0000   33.9598   43.4766 H   0  0  0  0  0  0  0  0  0  0  0  0
   58.5725   35.3579   45.2538 H   0  0  0  0  0  0  0  0  0  0  0  0
   56.3570   34.9660   45.7360 H   0  0  0  0  0  0  0  0  0  0  0  0
  1  2  1  0
  2  3  1  0
  3  4  1  0
  4  5  1  0
  5  6  2  0
  6  7  1  0
  7  8  2  0
  8  9  1  0
  8 10  1  0
 10 11  2  0
  3 12  1  0
 12 13  1  0
 13 14  1  0
 14 15  1  0
 15 16  2  0
 16 17  1  0
 17 18  2  0
 18 19  1  0
 19 20  2  0
 20 21  1  0
 21 22  1  0
 22 23  1  0
 11  5  1  0
 22 12  1  0
 20 15  1  0
  1 24  1  0
  1 25  1  0
  1 26  1  0
  2 27  1  0
  2 28  1  0
  4 29  1  0
  4 30  1  0
  6 31  1  0
  7 32  1  0
 10 33  1  0
 11 34  1  0
 12 35  1  1
 13 36  1  0
 13 37  1  0
 14 38  1  0
 14 39  1  0
 16 40  1  0
 17 41  1  0
 18 42  1  0
 19 43  1  0
 21 44  1  0
 21 45  1  0
 22 46  1  6
 23 47  1  0
M  END
>  <UniqueID>  (47) 
46

>  <SMILES>  (47) 
CCN(Cc1ccc(F)cc1)[C@@H]1CCc2ccccc2C[C@H]1O

>  <Energy>  (47) 
68.58094658004413

>  <Genealogy>  (47) 
CCN(Cc1ccc(F)cc1)[C@@H]1CCc2ccccc2C[C@H]1O (chirality)
CCN(Cc1ccc(F)cc1)[C@@H]1CCc2ccccc2C[C@H]1O (3D coordinates assigned)
CCN(Cc1ccc(F)cc1)[C@@H]1CCc2ccccc2C[C@H]1O (nonaromatic ring conformer: 68.58094658004413 kcal/mol)

>  <smiles>  (47) 
CCN(Cc1ccc(F)cc1)C1CCc2ccccc2CC1O

>  <score_type>  (47) 
oracle

>  <origin>  (47) 
adg

>  <m_score__min__energy>  (47) 
-5.8899999999999997

>  <m_primary>  (47) 
energy

$$$$
47:0
     RDKit          3D

 24 24  0  0  0  0  0  0  0  0999 V2000
   59.3710   34.5570   47.6530 C   0  0  0  0  0  0  0  0  0  0  0  0
   59.6830   35.1930   46.3020 C   0  0  0  0  0  0  0  0  0  0  0  0
   58.9610   34.3780   45.2380 C   0  0  0  0  0  0  0  0  0  0  0  0
   57.7240   33.8370   45.8730 C   0  0  0  0  0  0  0  0  0  0  0  0
   56.9650   32.9070   45.1310 N   0  0  0  0  0  0  0  0  0  0  0  0
   57.2180   31.7080   44.8330 C   0  0  0  0  0  0  0  0  0  0  0  0
   56.2430   30.8440   44.4940 N   0  0  0  0  0  0  0  0  0  0  0  0
   56.4620   29.5570   44.1690 C   0  0  0  0  0  0  0  0  0  0  0  0
   57.7780   29.0910   44.1860 C   0  0  0  0  0  0  0  0  0  0  0  0
   58.1640   27.2840   43.7400 Br  0  0  0  0  0  0  0  0  0  0  0  0
   58.7470   30.0060   44.5380 C   0  0  0  0  0  0  0  0  0  0  0  0
   58.4970   31.2800   44.8550 N   0  0  0  0  0  0  0  0  0  0  0  0
   59.7005   35.2287   48.4593 H   0  0  0  0  0  0  0  0  0  0  0  0
   58.2874   34.3874   47.7369 H   0  0  0  0  0  0  0  0  0  0  0  0
   59.9001   33.5963   47.7369 H   0  0  0  0  0  0  0  0  0  0  0  0
   59.3266   36.2335   46.2849 H   0  0  0  0  0  0  0  0  0  0  0  0
   60.7673   35.1999   46.1169 H   0  0  0  0  0  0  0  0  0  0  0  0
   58.6984   35.0191   44.3836 H   0  0  0  0  0  0  0  0  0  0  0  0
   59.5999   33.5646   44.8636 H   0  0  0  0  0  0  0  0  0  0  0  0
   58.0227   33.3454   46.8106 H   0  0  0  0  0  0  0  0  0  0  0  0
   57.0637   34.7091   45.9892 H   0  0  0  0  0  0  0  0  0  0  0  0
   55.6290   28.8917   43.8979 H   0  0  0  0  0  0  0  0  0  0  0  0
   59.7929   29.6658   44.5593 H   0  0  0  0  0  0  0  0  0  0  0  0
   59.3040   31.8930   45.1090 H   0  0  0  0  0  0  0  0  0  0  0  0
  1  2  1  0
  2  3  1  0
  3  4  1  0
  4  5  1  0
  5  6  2  3
  6  7  1  0
  7  8  2  0
  8  9  1  0
  9 10  1  0
  9 11  2  0
 11 12  1  0
 12  6  1  0
  1 13  1  0
  1 14  1  0
  1 15  1  0
  2 16  1  0
  2 17  1  0
  3 18  1  0
  3 19  1  0
  4 20  1  0
  4 21  1  0
  8 22  1  0
 11 23  1  0
 12 24  1  0
M  END
>  <smiles>  (48) 
CCCCN=c1ncc(Br)c[nH]1

>  <score_type>  (48) 
oracle

>  <origin>  (48) 
adg

>  <m_score__min__energy>  (48) 
-5.0199999999999996

>  <m_primary>  (48) 
energy

$$$$
48:0
     RDKit          3D

 35 38  0  0  0  0  0  0  0  0999 V2000
   65.1950   33.0930   49.4020 C   0  0  0  0  0  0  0  0  0  0  0  0
   63.9150   32.9360   48.6350 C   0  0  0  0  0  0  0  0  0  0  0  0
   63.6300   33.7850   47.5570 C   0  0  0  0  0  0  0  0  0  0  0  0
   62.4220   33.6640   46.8630 C   0  0  0  0  0  0  0  0  0  0  0  0
   61.4690   32.7030   47.2500 C   0  0  0  0  0  0  0  0  0  0  0  0
   60.1840   32.5540   46.5190 C   0  0  0  0  0  0  0  0  0  0  0  0
   59.5980   31.3880   46.5190 N   0  0  0  0  0  0  0  0  0  0  0  0
   58.3960   31.1640   45.8320 N   0  0  0  0  0  0  0  0  0  0  0  0
   57.5600   32.1080   45.4050 C   0  0  0  0  0  0  0  0  0  0  0  0
   56.4800   31.5750   44.8060 N   0  0  0  0  0  0  0  0  0  0  0  0
   56.6330   30.2560   44.8580 N   0  0  0  0  0  0  0  0  0  0  0  0
   57.8040   30.0060   45.4870 C   0  0  0  0  0  0  0  0  0  0  0  0
   58.3220   28.6430   45.7510 C   0  0  0  0  0  0  0  0  0  0  0  0
   57.4600   27.5660   46.0160 C   0  0  0  0  0  0  0  0  0  0  0  0
   57.9940   26.2990   46.2670 C   0  0  0  0  0  0  0  0  0  0  0  0
   59.3400   26.1130   46.2640 N   0  0  0  0  0  0  0  0  0  0  0  0
   60.1990   27.1380   46.0240 C   0  0  0  0  0  0  0  0  0  0  0  0
   59.7070   28.4200   45.7710 C   0  0  0  0  0  0  0  0  0  0  0  0
   57.8130   33.8350   45.7650 S   0  0  0  0  0  0  0  0  0  0  0  0
   59.6370   33.6870   45.6610 C   0  0  0  0  0  0  0  0  0  0  0  0
   61.7600   31.8590   48.3360 C   0  0  0  0  0  0  0  0  0  0  0  0
   62.9680   31.9820   49.0290 C   0  0  0  0  0  0  0  0  0  0  0  0
   64.9816   33.0668   50.4808 H   0  0  0  0  0  0  0  0  0  0  0  0
   65.8802   32.2722   49.1438 H   0  0  0  0  0  0  0  0  0  0  0  0
   65.6616   34.0551   49.1438 H   0  0  0  0  0  0  0  0  0  0  0  0
   64.3602   34.5504   47.2553 H   0  0  0  0  0  0  0  0  0  0  0  0
   62.2149   34.3247   46.0083 H   0  0  0  0  0  0  0  0  0  0  0  0
   56.3707   27.7189   46.0259 H   0  0  0  0  0  0  0  0  0  0  0  0
   57.3232   25.4506   46.4674 H   0  0  0  0  0  0  0  0  0  0  0  0
   61.2841   26.9575   46.0290 H   0  0  0  0  0  0  0  0  0  0  0  0
   60.4028   29.2521   45.5880 H   0  0  0  0  0  0  0  0  0  0  0  0
   59.9159   33.5014   44.6133 H   0  0  0  0  0  0  0  0  0  0  0  0
   60.0688   34.6265   46.0363 H   0  0  0  0  0  0  0  0  0  0  0  0
   61.0307   31.0950   48.6432 H   0  0  0  0  0  0  0  0  0  0  0  0
   63.1757   31.3266   49.8876 H   0  0  0  0  0  0  0  0  0  0  0  0
  1  2  1  0
  2  3  2  0
  3  4  1  0
  4  5  2  0
  5  6  1  0
  6  7  2  0
  7  8  1  0
  8  9  1  0
  9 10  2  0
 10 11  1  0
 11 12  2  0
 12 13  1  0
 13 14  2  0
 14 15  1  0
 15 16  2  0
 16 17  1  0
 17 18  2  0
  9 19  1  0
 19 20  1  0
  5 21  1  0
 21 22  2  0
 22  2  1  0
 20  6  1  0
 12  8  1  0
 18 13  1  0
  1 23  1  0
  1 24  1  0
  1 25  1  0
  3 26  1  0
  4 27  1  0
 14 28  1  0
 15 29  1  0
 17 30  1  0
 18 31  1  0
 20 32  1  0
 20 33  1  0
 21 34  1  0
 22 35  1  0
M  END
>  <UniqueID>  (49) 
47

>  <SMILES>  (49) 
Cc1ccc(C2=Nn3c(nnc3-c3ccncc3)SC2)cc1

>  <Energy>  (49) 
89.71847561978868

>  <Genealogy>  (49) 
Cc1ccc(C2=Nn3c(nnc3-c3ccncc3)SC2)cc1 (3D coordinates assigned)
Cc1ccc(C2=Nn3c(nnc3-c3ccncc3)SC2)cc1 (nonaromatic ring conformer: 89.71847561978868 kcal/mol)

>  <smiles>  (49) 
Cc1ccc(C2=Nn3c(nnc3-c3ccncc3)SC2)cc1

>  <score_type>  (49) 
oracle

>  <origin>  (49) 
adg

>  <m_score__min__energy>  (49) 
-8.4199999999999999

>  <m_primary>  (49) 
energy

$$$$
49:0
     RDKit          3D

 32 34  0  0  0  0  0  0  0  0999 V2000
   56.2470   29.9470   43.1790 C   0  0  0  0  0  0  0  0  0  0  0  0
   56.2750   30.4960   44.4910 O   0  0  0  0  0  0  0  0  0  0  0  0
   57.4420   30.6880   45.2450 C   0  0  0  0  0  0  0  0  0  0  0  0
   58.2700   29.6190   45.6390 C   0  0  0  0  0  0  0  0  0  0  0  0
   59.4230   29.8570   46.3910 C   0  0  0  0  0  0  0  0  0  0  0  0
   59.7700   31.1640   46.7610 C   0  0  0  0  0  0  0  0  0  0  0  0
   60.9270   31.4110   47.5160 C   0  0  0  0  0  0  0  0  0  0  0  0
   61.2700   32.7230   47.8890 C   0  0  0  0  0  0  0  0  0  0  0  0
   62.4950   32.9830   48.6880 C   0  0  0  0  0  0  0  0  0  0  0  0
   62.4110   33.5240   49.9820 C   0  0  0  0  0  0  0  0  0  0  0  0
   63.5700   33.7620   50.7210 C   0  0  0  0  0  0  0  0  0  0  0  0
   64.8110   33.4590   50.1620 C   0  0  0  0  0  0  0  0  0  0  0  0
   64.8870   32.9370   48.9080 N   0  0  0  0  0  0  0  0  0  0  0  0
   63.7700   32.6950   48.1680 C   0  0  0  0  0  0  0  0  0  0  0  0
   60.4380   33.7870   47.4940 C   0  0  0  0  0  0  0  0  0  0  0  0
   59.2850   33.5490   46.7420 C   0  0  0  0  0  0  0  0  0  0  0  0
   58.9420   32.2420   46.3710 C   0  0  0  0  0  0  0  0  0  0  0  0
   57.7860   31.9940   45.6160 C   0  0  0  0  0  0  0  0  0  0  0  0
   56.1911   28.8502   43.2416 H   0  0  0  0  0  0  0  0  0  0  0  0
   55.3672   30.3289   42.6404 H   0  0  0  0  0  0  0  0  0  0  0  0
   57.1611   30.2374   42.6404 H   0  0  0  0  0  0  0  0  0  0  0  0
   58.0071   28.5900   45.3527 H   0  0  0  0  0  0  0  0  0  0  0  0
   60.0619   29.0146   46.6944 H   0  0  0  0  0  0  0  0  0  0  0  0
   61.5707   30.5718   47.8184 H   0  0  0  0  0  0  0  0  0  0  0  0
   61.4275   33.7608   50.4140 H   0  0  0  0  0  0  0  0  0  0  0  0
   63.5056   34.1845   51.7346 H   0  0  0  0  0  0  0  0  0  0  0  0
   65.7309   33.6425   50.7365 H   0  0  0  0  0  0  0  0  0  0  0  0
   65.8250   32.7190   48.5030 H   0  0  0  0  0  0  0  0  0  0  0  0
   63.8652   32.2716   47.1572 H   0  0  0  0  0  0  0  0  0  0  0  0
   60.6982   34.8167   47.7803 H   0  0  0  0  0  0  0  0  0  0  0  0
   58.6442   34.3905   46.4401 H   0  0  0  0  0  0  0  0  0  0  0  0
   57.1434   32.8335   45.3124 H   0  0  0  0  0  0  0  0  0  0  0  0
  1  2  1  0
  2  3  1  0
  3  4  2  0
  4  5  1  0
  5  6  2  0
  6  7  1  0
  7  8  2  0
  8  9  1  0
  9 10  2  0
 10 11  1  0
 11 12  2  0
 12 13  1  0
 13 14  2  0
  8 15  1  0
 15 16  2  0
 16 17  1  0
 17 18  2  0
 18  3  1  0
 17  6  1  0
 14  9  1  0
  1 19  1  0
  1 20  1  0
  1 21  1  0
  4 22  1  0
  5 23  1  0
  7 24  1  0
 10 25  1  0
 11 26  1  0
 12 27  1  0
 13 28  1  0
 14 29  1  0
 15 30  1  0
 16 31  1  0
 18 32  1  0
M  CHG  1  13   1
M  END
>  <UniqueID>  (50) 
48

>  <SMILES>  (50) 
COc1ccc2cc(-c3ccc[nH+]c3)ccc2c1

>  <Energy>  (50) 
42.2968422573673

>  <Genealogy>  (50) 
COc1ccc2cc(-c3ccc[nH+]c3)ccc2c1 (protonated)
COc1ccc2cc(-c3ccc[nH+]c3)ccc2c1 (3D coordinates assigned)
COc1ccc2cc(-c3ccc[nH+]c3)ccc2c1 (optimized conformer: 42.2968422573673 kcal/mol)

>  <smiles>  (50) 
COc1ccc2cc(-c3cccnc3)ccc2c1

>  <score_type>  (50) 
oracle

>  <origin>  (50) 
adg

>  <m_score__min__energy>  (50) 
-5.3499999999999996

>  <m_primary>  (50) 
energy

$$$$
