0:0
     RDKit          3D

 28 29  0  0  0  0  0  0  0  0999 V2000
   56.5450   30.4230   42.9950 C   0  0  0  0  0  0  0  0  0  0  0  0
   55.6490   30.2970   44.2240 C   0  0  0  0  0  0  0  0  0  0  0  0
   55.6540   28.9270   44.7390 N   0  0  0  0  0  0  0  0  0  0  0  0
   56.8460   28.2350   45.1360 C   0  0  0  0  0  0  0  0  0  0  0  0
   58.0850   28.7190   44.8870 N   0  0  0  0  0  0  0  0  0  0  0  0
   58.9000   27.8150   45.4780 C   0  0  0  0  0  0  0  0  0  0  0  0
   60.3000   27.8580   45.4840 C   0  0  0  0  0  0  0  0  0  0  0  0
   61.0450   28.9900   44.8410 C   0  0  0  0  0  0  0  0  0  0  0  0
   60.9770   26.8060   46.1320 C   0  0  0  0  0  0  0  0  0  0  0  0
   60.2570   25.7530   46.7240 C   0  0  0  0  0  0  0  0  0  0  0  0
   58.8560   25.7580   46.6800 C   0  0  0  0  0  0  0  0  0  0  0  0
   58.2350   26.8040   46.0720 N   0  0  0  0  0  0  0  0  0  0  0  0
   56.9310   27.0560   45.8640 C   0  0  0  0  0  0  0  0  0  0  0  0
   55.8640   26.1570   46.1840 N   0  0  0  0  0  0  0  0  0  0  0  0
   56.0250   25.2850   47.0620 O   0  0  0  0  0  0  0  0  0  0  0  0
   54.6190   26.3310   45.6270 O   0  0  0  0  0  0  0  0  0  0  0  0
   57.5873   30.5696   43.3146 H   0  0  0  0  0  0  0  0  0  0  0  0
   56.4718   29.5057   42.3923 H   0  0  0  0  0  0  0  0  0  0  0  0
   56.2217   31.2845   42.3923 H   0  0  0  0  0  0  0  0  0  0  0  0
   56.0152   30.9770   45.0073 H   0  0  0  0  0  0  0  0  0  0  0  0
   54.6203   30.5591   43.9359 H   0  0  0  0  0  0  0  0  0  0  0  0
   54.7890   28.3560   44.5990 H   0  0  0  0  0  0  0  0  0  0  0  0
   61.4715   29.6381   45.6208 H   0  0  0  0  0  0  0  0  0  0  0  0
   61.8552   28.5873   44.2153 H   0  0  0  0  0  0  0  0  0  0  0  0
   60.3547   29.5748   44.2153 H   0  0  0  0  0  0  0  0  0  0  0  0
   62.0762   26.8083   46.1752 H   0  0  0  0  0  0  0  0  0  0  0  0
   60.7911   24.9288   47.2195 H   0  0  0  0  0  0  0  0  0  0  0  0
   58.2742   24.9376   47.1255 H   0  0  0  0  0  0  0  0  0  0  0  0
  1  2  1  0
  2  3  1  0
  3  4  1  0
  4  5  1  0
  5  6  2  0
  6  7  1  0
  7  8  1  0
  7  9  2  0
  9 10  1  0
 10 11  2  0
 11 12  1  0
 12 13  1  0
 13 14  1  0
 14 15  2  0
 14 16  1  0
 13  4  2  0
 12  6  1  0
  1 17  1  0
  1 18  1  0
  1 19  1  0
  2 20  1  0
  2 21  1  0
  3 22  1  0
  8 23  1  0
  8 24  1  0
  8 25  1  0
  9 26  1  0
 10 27  1  0
 11 28  1  0
M  CHG  2  14   1  16  -1
M  END
>  <UniqueID>  (1) 
1

>  <SMILES>  (1) 
CCNc1nc2c(C)cccn2c1[N+](=O)[O-]

>  <Energy>  (1) 
67.6764168693008

>  <Genealogy>  (1) 
CCNc1nc2c(C)cccn2c1[N+](=O)[O-] (3D coordinates assigned)
CCNc1nc2c(C)cccn2c1[N+](=O)[O-] (optimized conformer: 67.6764168693008 kcal/mol)

>  <smiles>  (1) 
CCNc1nc2c(C)cccn2c1[N+](=O)[O-]

>  <score_type>  (1) 
oracle

>  <origin>  (1) 
adg

>  <m_score__min__energy>  (1) 
-6.5

>  <m_primary>  (1) 
energy

$$$$
1:0
     RDKit          3D

 44 44  0  0  0  0  0  0  0  0999 V2000
   57.0720   31.9800   41.4820 C   0  0  0  0  0  0  0  0  0  0  0  0
   58.1950   32.3470   42.4440 C   0  0  0  0  0  0  0  0  0  0  0  0
   57.7250   32.2300   43.8300 N   0  0  0  0  0  0  0  0  0  0  0  0
   58.4220   33.1720   44.7200 C   0  0  0  0  0  0  0  0  0  0  0  0
   58.2360   32.7870   46.1950 C   0  0  0  0  0  0  0  0  0  0  0  0
   58.0290   31.3350   46.3510 N   0  0  0  0  0  0  0  0  0  0  0  0
   58.8430   30.7550   47.4370 C   0  0  0  0  0  0  0  0  0  0  0  0
   59.6090   29.4530   47.0530 C   0  0  0  0  0  0  0  0  0  0  0  0
   60.3280   29.6240   45.6870 C   0  0  0  0  0  0  0  0  0  0  0  0
   59.5200   29.0620   44.5000 C   0  0  0  0  0  0  0  0  0  0  0  0
   58.0740   29.1410   44.7770 N   0  0  0  0  0  0  0  0  0  0  0  0
   57.2200   28.9920   43.5770 C   0  0  0  0  0  0  0  0  0  0  0  0
   55.8770   29.7500   43.6410 C   0  0  0  0  0  0  0  0  0  0  0  0
   55.8590   30.6620   44.7070 O   0  0  0  0  0  0  0  0  0  0  0  0
   57.6500   28.2770   45.9020 C   0  0  0  0  0  0  0  0  0  0  0  0
   58.7160   28.1950   47.0140 C   0  0  0  0  0  0  0  0  0  0  0  0
   56.1793   31.6883   42.0547 H   0  0  0  0  0  0  0  0  0  0  0  0
   56.8340   32.8471   40.8484 H   0  0  0  0  0  0  0  0  0  0  0  0
   57.3919   31.1397   40.8484 H   0  0  0  0  0  0  0  0  0  0  0  0
   59.0451   31.6664   42.2886 H   0  0  0  0  0  0  0  0  0  0  0  0
   58.5090   33.3841   42.2548 H   0  0  0  0  0  0  0  0  0  0  0  0
   57.9500   31.2610   44.1590 H   0  0  0  0  0  0  0  0  0  0  0  0
   59.4955   33.1641   44.4802 H   0  0  0  0  0  0  0  0  0  0  0  0
   57.9965   34.1747   44.5664 H   0  0  0  0  0  0  0  0  0  0  0  0
   59.1335   33.0829   46.7579 H   0  0  0  0  0  0  0  0  0  0  0  0
   57.3454   33.3065   46.5784 H   0  0  0  0  0  0  0  0  0  0  0  0
   58.3160   30.8610   45.4630 H   0  0  0  0  0  0  0  0  0  0  0  0
   57.0180   31.1210   46.5040 H   0  0  0  0  0  0  0  0  0  0  0  0
   59.5818   31.5073   47.7506 H   0  0  0  0  0  0  0  0  0  0  0  0
   58.1410   30.4778   48.2372 H   0  0  0  0  0  0  0  0  0  0  0  0
   60.3469   29.2947   47.8532 H   0  0  0  0  0  0  0  0  0  0  0  0
   60.5014   30.6966   45.5152 H   0  0  0  0  0  0  0  0  0  0  0  0
   61.2687   29.0563   45.7397 H   0  0  0  0  0  0  0  0  0  0  0  0
   59.7483   29.6473   43.5971 H   0  0  0  0  0  0  0  0  0  0  0  0
   59.7964   28.0082   44.3482 H   0  0  0  0  0  0  0  0  0  0  0  0
   57.7824   29.3647   42.7082 H   0  0  0  0  0  0  0  0  0  0  0  0
   56.9696   27.9233   43.5055 H   0  0  0  0  0  0  0  0  0  0  0  0
   55.7286   30.2971   42.6983 H   0  0  0  0  0  0  0  0  0  0  0  0
   55.0709   29.0177   43.7957 H   0  0  0  0  0  0  0  0  0  0  0  0
   56.8020   30.9230   44.8760 H   0  0  0  0  0  0  0  0  0  0  0  0
   56.7228   28.6849   46.3308 H   0  0  0  0  0  0  0  0  0  0  0  0
   57.4985   27.2617   45.5068 H   0  0  0  0  0  0  0  0  0  0  0  0
   58.2093   28.0890   47.9846 H   0  0  0  0  0  0  0  0  0  0  0  0
   59.3596   27.3280   46.8043 H   0  0  0  0  0  0  0  0  0  0  0  0
  1  2  1  0
  2  3  1  0
  3  4  1  0
  4  5  1  0
  5  6  1  0
  6  7  1  0
  7  8  1  0
  8  9  1  0
  9 10  1  0
 10 11  1  0
 11 12  1  0
 12 13  1  0
 13 14  1  0
 11 15  1  0
 15 16  1  0
 16  8  1  0
  1 17  1  0
  1 18  1  0
  1 19  1  0
  2 20  1  0
  2 21  1  0
  3 22  1  0
  4 23  1  0
  4 24  1  0
  5 25  1  0
  5 26  1  0
  6 27  1  0
  6 28  1  0
  7 29  1  0
  7 30  1  0
  8 31  1  0
  9 32  1  0
  9 33  1  0
 10 34  1  0
 10 35  1  0
 12 36  1  0
 12 37  1  0
 13 38  1  0
 13 39  1  0
 14 40  1  0
 15 41  1  0
 15 42  1  0
 16 43  1  0
 16 44  1  0
M  CHG  1   6   1
M  END
>  <UniqueID>  (2) 
2

>  <SMILES>  (2) 
CCNCC[NH2+]CC1CCN(CCO)CC1

>  <Energy>  (2) 
44.97116672359346

>  <Genealogy>  (2) 
CCNCC[NH2+]CC1CCN(CCO)CC1 (protonated)
CCNCC[NH2+]CC1CCN(CCO)CC1 (3D coordinates assigned)
CCNCC[NH2+]CC1CCN(CCO)CC1 (nonaromatic ring conformer: 44.97116672359346 kcal/mol)

>  <smiles>  (2) 
CCNCCNCC1CCN(CCO)CC1

>  <score_type>  (2) 
oracle

>  <origin>  (2) 
adg

>  <m_score__min__energy>  (2) 
-2.5

>  <m_primary>  (2) 
energy

$$$$
2:0
     RDKit          3D

 45 46  0  0  0  0  0  0  0  0999 V2000
   56.9540   30.7120   43.1090 C   0  0  0  0  0  0  0  0  0  0  0  0
   55.9460   29.9750   43.9800 C   0  0  0  0  0  0  0  0  0  0  0  0
   56.4930   29.7880   45.3290 N   0  0  0  0  0  0  0  0  0  0  0  0
   57.2640   28.5400   45.4400 C   0  0  0  0  0  0  0  0  0  0  0  0
   58.7360   28.8050   45.8000 C   0  0  0  0  0  0  0  0  0  0  0  0
   58.9140   29.7210   47.0230 C   0  0  0  0  0  0  0  0  0  0  0  0
   59.0640   31.1300   46.6230 N   0  0  0  0  0  0  0  0  0  0  0  0
   57.9640   31.8220   46.2920 N   0  0  0  0  0  0  0  0  0  0  0  0
   58.0110   33.1430   45.9670 C   0  0  0  0  0  0  0  0  0  0  0  0
   56.7470   33.8920   45.6690 C   0  0  0  0  0  0  0  0  0  0  0  0
   59.2330   33.8110   46.0000 C   0  0  0  0  0  0  0  0  0  0  0  0
   60.3950   33.1100   46.3250 C   0  0  0  0  0  0  0  0  0  0  0  0
   61.7060   33.8490   46.4360 C   0  0  0  0  0  0  0  0  0  0  0  0
   62.2780   33.6800   47.8180 C   0  0  0  0  0  0  0  0  0  0  0  0
   63.5550   33.1200   47.9960 C   0  0  0  0  0  0  0  0  0  0  0  0
   64.0660   32.9260   49.2820 C   0  0  0  0  0  0  0  0  0  0  0  0
   63.3070   33.2840   50.4000 C   0  0  0  0  0  0  0  0  0  0  0  0
   62.0330   33.8310   50.2320 C   0  0  0  0  0  0  0  0  0  0  0  0
   61.5160   34.0250   48.9480 C   0  0  0  0  0  0  0  0  0  0  0  0
   60.2930   31.7440   46.6370 C   0  0  0  0  0  0  0  0  0  0  0  0
   61.3290   31.0930   46.9490 O   0  0  0  0  0  0  0  0  0  0  0  0
   57.6757   31.2397   43.7498 H   0  0  0  0  0  0  0  0  0  0  0  0
   57.4874   29.9894   42.4739 H   0  0  0  0  0  0  0  0  0  0  0  0
   56.4272   31.4394   42.4739 H   0  0  0  0  0  0  0  0  0  0  0  0
   55.0182   30.5628   44.0410 H   0  0  0  0  0  0  0  0  0  0  0  0
   55.7347   28.9912   43.5356 H   0  0  0  0  0  0  0  0  0  0  0  0
   55.6850   29.7190   45.9920 H   0  0  0  0  0  0  0  0  0  0  0  0
   56.8138   27.9124   46.2232 H   0  0  0  0  0  0  0  0  0  0  0  0
   57.2376   28.0350   44.4631 H   0  0  0  0  0  0  0  0  0  0  0  0
   59.2210   27.8411   46.0136 H   0  0  0  0  0  0  0  0  0  0  0  0
   59.1911   29.3202   44.9413 H   0  0  0  0  0  0  0  0  0  0  0  0
   58.0315   29.6256   47.6727 H   0  0  0  0  0  0  0  0  0  0  0  0
   59.8263   29.4137   47.5552 H   0  0  0  0  0  0  0  0  0  0  0  0
   57.0340   31.3420   46.2940 H   0  0  0  0  0  0  0  0  0  0  0  0
   56.2605   34.1803   46.6125 H   0  0  0  0  0  0  0  0  0  0  0  0
   56.9844   34.7953   45.0879 H   0  0  0  0  0  0  0  0  0  0  0  0
   56.0687   33.2500   45.0879 H   0  0  0  0  0  0  0  0  0  0  0  0
   59.2817   34.8858   45.7710 H   0  0  0  0  0  0  0  0  0  0  0  0
   62.4145   33.4466   45.6970 H   0  0  0  0  0  0  0  0  0  0  0  0
   61.5343   34.9186   46.2451 H   0  0  0  0  0  0  0  0  0  0  0  0
   64.1545   32.8333   47.1194 H   0  0  0  0  0  0  0  0  0  0  0  0
   65.0674   32.4907   49.4149 H   0  0  0  0  0  0  0  0  0  0  0  0
   63.7129   33.1350   51.4114 H   0  0  0  0  0  0  0  0  0  0  0  0
   61.4351   34.1098   51.1122 H   0  0  0  0  0  0  0  0  0  0  0  0
   60.5091   34.4492   48.8211 H   0  0  0  0  0  0  0  0  0  0  0  0
  1  2  1  0
  2  3  1  0
  3  4  1  0
  4  5  1  0
  5  6  1  0
  6  7  1  0
  7  8  1  0
  8  9  2  0
  9 10  1  0
  9 11  1  0
 11 12  2  0
 12 13  1  0
 13 14  1  0
 14 15  2  0
 15 16  1  0
 16 17  2  0
 17 18  1  0
 18 19  2  0
 12 20  1  0
 20 21  2  0
 20  7  1  0
 19 14  1  0
  1 22  1  0
  1 23  1  0
  1 24  1  0
  2 25  1  0
  2 26  1  0
  3 27  1  0
  4 28  1  0
  4 29  1  0
  5 30  1  0
  5 31  1  0
  6 32  1  0
  6 33  1  0
  8 34  1  0
 10 35  1  0
 10 36  1  0
 10 37  1  0
 11 38  1  0
 13 39  1  0
 13 40  1  0
 15 41  1  0
 16 42  1  0
 17 43  1  0
 18 44  1  0
 19 45  1  0
M  CHG  1   8   1
M  END
>  <UniqueID>  (3) 
3

>  <SMILES>  (3) 
CCNCCCn1[nH+]c(C)cc(Cc2ccccc2)c1=O

>  <Energy>  (3) 
34.12525363023839

>  <Genealogy>  (3) 
CCNCCCn1[nH+]c(C)cc(Cc2ccccc2)c1=O (protonated)
CCNCCCn1[nH+]c(C)cc(Cc2ccccc2)c1=O (3D coordinates assigned)
CCNCCCn1[nH+]c(C)cc(Cc2ccccc2)c1=O (optimized conformer: 34.12525363023839 kcal/mol)

>  <smiles>  (3) 
CCNCCCn1nc(C)cc(Cc2ccccc2)c1=O

>  <score_type>  (3) 
oracle

>  <origin>  (3) 
adg

>  <m_score__min__energy>  (3) 
-5.7400000000000002

>  <m_primary>  (3) 
energy

$$$$
3:0
     RDKit          3D

 39 40  0  0  0  0  0  0  0  0999 V2000
   59.3090   33.2770   49.2800 C   0  0  0  0  0  0  0  0  0  0  0  0
   59.0810   33.5970   47.8370 C   0  0  0  0  0  0  0  0  0  0  0  0
   59.8310   34.5990   47.2070 C   0  0  0  0  0  0  0  0  0  0  0  0
   59.5840   34.8960   45.8660 C   0  0  0  0  0  0  0  0  0  0  0  0
   58.5940   34.2000   45.1690 C   0  0  0  0  0  0  0  0  0  0  0  0
   57.8590   33.2060   45.8310 C   0  0  0  0  0  0  0  0  0  0  0  0
   56.7570   32.4750   45.1200 C   0  0  0  0  0  0  0  0  0  0  0  0
   57.1270   31.0540   44.9210 N   0  0  0  0  0  0  0  0  0  0  0  0
   56.6490   30.5840   43.5980 C   0  0  0  0  0  0  0  0  0  0  0  0
   55.3760   29.7380   43.7140 C   0  0  0  0  0  0  0  0  0  0  0  0
   55.1860   29.3100   45.0370 O   0  0  0  0  0  0  0  0  0  0  0  0
   58.5940   30.8570   45.0840 C   0  0  0  0  0  0  0  0  0  0  0  0
   58.8760   29.9040   46.2150 C   0  0  0  0  0  0  0  0  0  0  0  0
   58.2340   28.6580   46.2780 C   0  0  0  0  0  0  0  0  0  0  0  0
   58.5230   27.7850   47.3300 C   0  0  0  0  0  0  0  0  0  0  0  0
   59.4320   28.1350   48.2800 N   0  0  0  0  0  0  0  0  0  0  0  0
   60.0820   29.3280   48.2320 C   0  0  0  0  0  0  0  0  0  0  0  0
   59.8210   30.2300   47.1980 C   0  0  0  0  0  0  0  0  0  0  0  0
   58.1170   32.9370   47.1400 N   0  0  0  0  0  0  0  0  0  0  0  0
   58.7842   34.0135   49.9063 H   0  0  0  0  0  0  0  0  0  0  0  0
   58.9238   32.2699   49.4976 H   0  0  0  0  0  0  0  0  0  0  0  0
   60.3867   33.3122   49.4976 H   0  0  0  0  0  0  0  0  0  0  0  0
   60.6064   35.1458   47.7636 H   0  0  0  0  0  0  0  0  0  0  0  0
   60.1685   35.6775   45.3585 H   0  0  0  0  0  0  0  0  0  0  0  0
   58.3929   34.4290   44.1121 H   0  0  0  0  0  0  0  0  0  0  0  0
   55.8380   32.5298   45.7220 H   0  0  0  0  0  0  0  0  0  0  0  0
   56.5929   32.9428   44.1380 H   0  0  0  0  0  0  0  0  0  0  0  0
   56.4375   31.4589   42.9656 H   0  0  0  0  0  0  0  0  0  0  0  0
   57.4359   29.9546   43.1567 H   0  0  0  0  0  0  0  0  0  0  0  0
   54.5111   30.3416   43.4016 H   0  0  0  0  0  0  0  0  0  0  0  0
   55.4772   28.8545   43.0666 H   0  0  0  0  0  0  0  0  0  0  0  0
   55.3080   30.1050   45.6170 H   0  0  0  0  0  0  0  0  0  0  0  0
   59.0097   30.4460   44.1522 H   0  0  0  0  0  0  0  0  0  0  0  0
   59.0599   31.8271   45.3118 H   0  0  0  0  0  0  0  0  0  0  0  0
   57.5075   28.3701   45.5038 H   0  0  0  0  0  0  0  0  0  0  0  0
   58.0140   26.8117   47.3903 H   0  0  0  0  0  0  0  0  0  0  0  0
   59.6390   27.4710   49.0590 H   0  0  0  0  0  0  0  0  0  0  0  0
   60.8161   29.5839   49.0102 H   0  0  0  0  0  0  0  0  0  0  0  0
   60.3541   31.1912   47.1552 H   0  0  0  0  0  0  0  0  0  0  0  0
  1  2  1  0
  2  3  2  0
  3  4  1  0
  4  5  2  0
  5  6  1  0
  6  7  1  0
  7  8  1  0
  8  9  1  0
  9 10  1  0
 10 11  1  0
  8 12  1  0
 12 13  1  0
 13 14  2  0
 14 15  1  0
 15 16  2  0
 16 17  1  0
 17 18  2  0
  6 19  2  0
 19  2  1  0
 18 13  1  0
  1 20  1  0
  1 21  1  0
  1 22  1  0
  3 23  1  0
  4 24  1  0
  5 25  1  0
  7 26  1  0
  7 27  1  0
  9 28  1  0
  9 29  1  0
 10 30  1  0
 10 31  1  0
 11 32  1  0
 12 33  1  0
 12 34  1  0
 14 35  1  0
 15 36  1  0
 16 37  1  0
 17 38  1  0
 18 39  1  0
M  CHG  1  16   1
M  END
>  <UniqueID>  (4) 
4

>  <SMILES>  (4) 
Cc1cccc(CN(CCO)Cc2cc[nH+]cc2)n1

>  <Energy>  (4) 
38.60601830790413

>  <Genealogy>  (4) 
Cc1cccc(CN(CCO)Cc2cc[nH+]cc2)n1 (protonated)
Cc1cccc(CN(CCO)Cc2cc[nH+]cc2)n1 (3D coordinates assigned)
Cc1cccc(CN(CCO)Cc2cc[nH+]cc2)n1 (optimized conformer: 38.60601830790413 kcal/mol)

>  <smiles>  (4) 
Cc1cccc(CN(CCO)Cc2ccncc2)n1

>  <score_type>  (4) 
oracle

>  <origin>  (4) 
adg

>  <m_score__min__energy>  (4) 
-5.54

>  <m_primary>  (4) 
energy

$$$$
4:0
     RDKit          3D

 50 51  0  0  0  0  0  0  0  0999 V2000
   63.7720   30.6290   51.2290 C   0  0  0  0  0  0  0  0  0  0  0  0
   62.7450   31.6730   51.6980 C   0  0  0  0  0  0  0  0  0  0  0  0
   62.0300   32.3640   50.5920 N   0  0  0  0  0  0  0  0  0  0  0  0
   60.6230   32.6570   50.9690 C   0  0  0  0  0  0  0  0  0  0  0  0
   60.0070   33.7770   50.1250 C   0  0  0  0  0  0  0  0  0  0  0  0
   62.7690   33.5780   50.1330 C   0  0  0  0  0  0  0  0  0  0  0  0
   63.5660   33.3190   48.8410 C   0  0  0  0  0  0  0  0  0  0  0  0
   62.8500   32.3970   47.9550 N   0  0  0  0  0  0  0  0  0  0  0  0
   61.6130   32.7360   47.2900 C   0  0  0  0  0  0  0  0  0  0  0  0
   61.3090   34.0690   46.9710 C   0  0  0  0  0  0  0  0  0  0  0  0
   60.1660   34.4040   46.3000 N   0  0  0  0  0  0  0  0  0  0  0  0
   59.9330   35.8270   46.0000 C   0  0  0  0  0  0  0  0  0  0  0  0
   59.2650   33.4320   45.9210 C   0  0  0  0  0  0  0  0  0  0  0  0
   58.0740   33.7540   45.2310 C   0  0  0  0  0  0  0  0  0  0  0  0
   57.1600   32.7640   44.8710 C   0  0  0  0  0  0  0  0  0  0  0  0
   57.4040   31.4220   45.1940 C   0  0  0  0  0  0  0  0  0  0  0  0
   56.5090   30.3940   44.8620 O   0  0  0  0  0  0  0  0  0  0  0  0
   56.4310   29.7770   43.5810 C   0  0  0  0  0  0  0  0  0  0  0  0
   58.5770   31.0850   45.8710 C   0  0  0  0  0  0  0  0  0  0  0  0
   59.5220   32.0700   46.2310 C   0  0  0  0  0  0  0  0  0  0  0  0
   60.7070   31.7270   46.9150 C   0  0  0  0  0  0  0  0  0  0  0  0
   60.9870   30.3600   47.2460 N   0  0  0  0  0  0  0  0  0  0  0  0
   60.7540   29.4550   46.4190 O   0  0  0  0  0  0  0  0  0  0  0  0
   61.5860   30.0490   48.4440 O   0  0  0  0  0  0  0  0  0  0  0  0
   64.2387   30.1546   52.1048 H   0  0  0  0  0  0  0  0  0  0  0  0
   63.2657   29.8630   50.6233 H   0  0  0  0  0  0  0  0  0  0  0  0
   64.5463   31.1227   50.6233 H   0  0  0  0  0  0  0  0  0  0  0  0
   61.9990   31.1649   52.3268 H   0  0  0  0  0  0  0  0  0  0  0  0
   63.3063   32.4460   52.2433 H   0  0  0  0  0  0  0  0  0  0  0  0
   62.0010   31.6610   49.8140 H   0  0  0  0  0  0  0  0  0  0  0  0
   60.0247   31.7440   50.8332 H   0  0  0  0  0  0  0  0  0  0  0  0
   60.6220   32.9912   52.0170 H   0  0  0  0  0  0  0  0  0  0  0  0
   59.5841   34.5458   50.7884 H   0  0  0  0  0  0  0  0  0  0  0  0
   60.7842   34.2276   49.4902 H   0  0  0  0  0  0  0  0  0  0  0  0
   59.2103   33.3619   49.4902 H   0  0  0  0  0  0  0  0  0  0  0  0
   62.0446   34.3846   49.9469 H   0  0  0  0  0  0  0  0  0  0  0  0
   63.4840   33.8566   50.9211 H   0  0  0  0  0  0  0  0  0  0  0  0
   63.7206   34.2736   48.3168 H   0  0  0  0  0  0  0  0  0  0  0  0
   64.5310   32.8653   49.1109 H   0  0  0  0  0  0  0  0  0  0  0  0
   63.2530   31.4440   47.8130 H   0  0  0  0  0  0  0  0  0  0  0  0
   62.0084   34.8642   47.2686 H   0  0  0  0  0  0  0  0  0  0  0  0
   59.8409   36.3897   46.9407 H   0  0  0  0  0  0  0  0  0  0  0  0
   60.7784   36.2222   45.4176 H   0  0  0  0  0  0  0  0  0  0  0  0
   59.0057   35.9319   45.4176 H   0  0  0  0  0  0  0  0  0  0  0  0
   57.8646   34.8028   44.9737 H   0  0  0  0  0  0  0  0  0  0  0  0
   56.2421   33.0380   44.3303 H   0  0  0  0  0  0  0  0  0  0  0  0
   56.2939   28.6925   43.7041 H   0  0  0  0  0  0  0  0  0  0  0  0
   55.5784   30.1936   43.0247 H   0  0  0  0  0  0  0  0  0  0  0  0
   57.3605   29.9683   43.0247 H   0  0  0  0  0  0  0  0  0  0  0  0
   58.7686   30.0329   46.1287 H   0  0  0  0  0  0  0  0  0  0  0  0
  1  2  1  0
  2  3  1  0
  3  4  1  0
  4  5  1  0
  3  6  1  0
  6  7  1  0
  7  8  1  0
  8  9  1  0
  9 10  2  0
 10 11  1  0
 11 12  1  0
 11 13  2  0
 13 14  1  0
 14 15  2  0
 15 16  1  0
 16 17  1  0
 17 18  1  0
 16 19  2  0
 19 20  1  0
 20 21  2  0
 21 22  1  0
 22 23  2  0
 22 24  1  0
 21  9  1  0
 20 13  1  0
  1 25  1  0
  1 26  1  0
  1 27  1  0
  2 28  1  0
  2 29  1  0
  3 30  1  0
  4 31  1  0
  4 32  1  0
  5 33  1  0
  5 34  1  0
  5 35  1  0
  6 36  1  0
  6 37  1  0
  7 38  1  0
  7 39  1  0
  8 40  1  0
 10 41  1  0
 12 42  1  0
 12 43  1  0
 12 44  1  0
 14 45  1  0
 15 46  1  0
 18 47  1  0
 18 48  1  0
 18 49  1  0
 19 50  1  0
M  CHG  4   3   1  11   1  22   1  24  -1
M  END
>  <UniqueID>  (5) 
5

>  <SMILES>  (5) 
CC[NH+](CC)CCNc1c[n+](C)c2ccc(OC)cc2c1[N+](=O)[O-]

>  <Energy>  (5) 
68.14467564101851

>  <Genealogy>  (5) 
CC[NH+](CC)CCNc1c[n+](C)c2ccc(OC)cc2c1[N+](=O)[O-] (protonated)
CC[NH+](CC)CCNc1c[n+](C)c2ccc(OC)cc2c1[N+](=O)[O-] (3D coordinates assigned)
CC[NH+](CC)CCNc1c[n+](C)c2ccc(OC)cc2c1[N+](=O)[O-] (optimized conformer: 68.14467564101851 kcal/mol)

>  <smiles>  (5) 
CCN(CC)CCNc1c[n+](C)c2ccc(OC)cc2c1[N+](=O)[O-]

>  <score_type>  (5) 
oracle

>  <origin>  (5) 
adg

>  <m_score__min__energy>  (5) 
-3.6299999999999999

>  <m_primary>  (5) 
energy

$$$$
5:0
     RDKit          3D

 57 60  0  0  0  0  0  0  0  0999 V2000
   58.4880   34.3220   45.4500 C   0  0  0  0  0  0  0  0  0  0  0  0
   59.2830   34.9620   46.5830 C   0  0  0  0  0  0  0  0  0  0  0  0
   60.1900   33.9780   47.1960 N   0  0  0  0  0  0  0  0  0  0  0  0
   61.2510   33.3500   46.3900 C   0  0  0  0  0  0  0  0  0  0  0  0
   62.5280   34.2050   46.3760 C   0  0  0  0  0  0  0  0  0  0  0  0
   63.5970   33.7340   47.3830 C   0  0  0  0  0  0  0  0  0  0  0  0
   63.7420   32.2640   47.4370 N   0  0  0  0  0  0  0  0  0  0  0  0
   63.4010   31.7280   48.7520 C   0  0  0  0  0  0  0  0  0  0  0  0
   62.2390   30.9190   48.9120 C   0  0  0  0  0  0  0  0  0  0  0  0
   61.3970   30.5930   47.8150 C   0  0  0  0  0  0  0  0  0  0  0  0
   60.3020   29.7480   47.9710 C   0  0  0  0  0  0  0  0  0  0  0  0
   60.0180   29.1980   49.2120 C   0  0  0  0  0  0  0  0  0  0  0  0
   60.8040   29.5220   50.3130 C   0  0  0  0  0  0  0  0  0  0  0  0
   61.8990   30.4180   50.2000 C   0  0  0  0  0  0  0  0  0  0  0  0
   62.6290   30.7930   51.3070 N   0  0  0  0  0  0  0  0  0  0  0  0
   62.0850   30.5540   52.6650 C   0  0  0  0  0  0  0  0  0  0  0  0
   63.8480   31.4200   51.1540 C   0  0  0  0  0  0  0  0  0  0  0  0
   64.7490   31.5340   52.2450 C   0  0  0  0  0  0  0  0  0  0  0  0
   65.9490   32.2260   52.1230 C   0  0  0  0  0  0  0  0  0  0  0  0
   66.2870   32.8180   50.9170 C   0  0  0  0  0  0  0  0  0  0  0  0
   65.4490   32.6850   49.8120 C   0  0  0  0  0  0  0  0  0  0  0  0
   64.2340   31.9520   49.8890 C   0  0  0  0  0  0  0  0  0  0  0  0
   60.0540   33.6510   48.5950 C   0  0  0  0  0  0  0  0  0  0  0  0
   58.9840   32.8510   49.0370 C   0  0  0  0  0  0  0  0  0  0  0  0
   58.8540   32.5320   50.3920 C   0  0  0  0  0  0  0  0  0  0  0  0
   59.7930   33.0010   51.3160 C   0  0  0  0  0  0  0  0  0  0  0  0
   60.8600   33.7950   50.8860 C   0  0  0  0  0  0  0  0  0  0  0  0
   60.9910   34.1200   49.5330 C   0  0  0  0  0  0  0  0  0  0  0  0
   57.6966   33.6849   45.8717 H   0  0  0  0  0  0  0  0  0  0  0  0
   58.0337   35.1093   44.8305 H   0  0  0  0  0  0  0  0  0  0  0  0
   59.1602   33.7101   44.8305 H   0  0  0  0  0  0  0  0  0  0  0  0
   59.8740   35.7990   46.1828 H   0  0  0  0  0  0  0  0  0  0  0  0
   58.5818   35.3251   47.3488 H   0  0  0  0  0  0  0  0  0  0  0  0
   61.4862   32.3631   46.8152 H   0  0  0  0  0  0  0  0  0  0  0  0
   60.8882   33.2544   45.3560 H   0  0  0  0  0  0  0  0  0  0  0  0
   62.9611   34.1668   45.3656 H   0  0  0  0  0  0  0  0  0  0  0  0
   62.2368   35.2248   46.6678 H   0  0  0  0  0  0  0  0  0  0  0  0
   64.5648   34.1699   47.0942 H   0  0  0  0  0  0  0  0  0  0  0  0
   63.2738   34.0664   48.3805 H   0  0  0  0  0  0  0  0  0  0  0  0
   64.6780   31.9760   47.0930 H   0  0  0  0  0  0  0  0  0  0  0  0
   63.1200   31.8330   46.7170 H   0  0  0  0  0  0  0  0  0  0  0  0
   61.6146   31.0165   46.8234 H   0  0  0  0  0  0  0  0  0  0  0  0
   59.6605   29.5160   47.1081 H   0  0  0  0  0  0  0  0  0  0  0  0
   59.1710   28.5054   49.3257 H   0  0  0  0  0  0  0  0  0  0  0  0
   60.5723   29.0748   51.2909 H   0  0  0  0  0  0  0  0  0  0  0  0
   62.8203   30.8770   53.4166 H   0  0  0  0  0  0  0  0  0  0  0  0
   61.1542   31.1261   52.7931 H   0  0  0  0  0  0  0  0  0  0  0  0
   61.8768   29.4815   52.7931 H   0  0  0  0  0  0  0  0  0  0  0  0
   64.4927   31.0654   53.2066 H   0  0  0  0  0  0  0  0  0  0  0  0
   66.6296   32.3033   52.9837 H   0  0  0  0  0  0  0  0  0  0  0  0
   67.2198   33.3948   50.8316 H   0  0  0  0  0  0  0  0  0  0  0  0
   65.7337   33.1572   48.8602 H   0  0  0  0  0  0  0  0  0  0  0  0
   58.2463   32.4748   48.3129 H   0  0  0  0  0  0  0  0  0  0  0  0
   58.0119   31.9112   50.7317 H   0  0  0  0  0  0  0  0  0  0  0  0
   59.6920   32.7451   52.3810 H   0  0  0  0  0  0  0  0  0  0  0  0
   61.5976   34.1646   51.6135 H   0  0  0  0  0  0  0  0  0  0  0  0
   61.8318   34.7462   49.1999 H   0  0  0  0  0  0  0  0  0  0  0  0
  1  2  1  0
  2  3  1  0
  3  4  1  0
  4  5  1  0
  5  6  1  0
  6  7  1  0
  7  8  1  0
  8  9  1  0
  9 10  2  0
 10 11  1  0
 11 12  2  0
 12 13  1  0
 13 14  2  0
 14 15  1  0
 15 16  1  0
 15 17  2  0
 17 18  1  0
 18 19  2  0
 19 20  1  0
 20 21  2  0
 21 22  1  0
  3 23  1  0
 23 24  2  0
 24 25  1  0
 25 26  2  0
 26 27  1  0
 27 28  2  0
 22  8  2  0
 28 23  1  0
 14  9  1  0
 22 17  1  0
  1 29  1  0
  1 30  1  0
  1 31  1  0
  2 32  1  0
  2 33  1  0
  4 34  1  0
  4 35  1  0
  5 36  1  0
  5 37  1  0
  6 38  1  0
  6 39  1  0
  7 40  1  0
  7 41  1  0
 10 42  1  0
 11 43  1  0
 12 44  1  0
 13 45  1  0
 16 46  1  0
 16 47  1  0
 16 48  1  0
 18 49  1  0
 19 50  1  0
 20 51  1  0
 21 52  1  0
 24 53  1  0
 25 54  1  0
 26 55  1  0
 27 56  1  0
 28 57  1  0
M  CHG  2   7   1  15   1
M  END
>  <UniqueID>  (6) 
6

>  <SMILES>  (6) 
CCN(CCC[NH2+]c1c2ccccc2[n+](C)c2ccccc12)c1ccccc1

>  <Energy>  (6) 
88.97547396095537

>  <Genealogy>  (6) 
CCN(CCC[NH2+]c1c2ccccc2[n+](C)c2ccccc12)c1ccccc1 (protonated)
CCN(CCC[NH2+]c1c2ccccc2[n+](C)c2ccccc12)c1ccccc1 (3D coordinates assigned)
CCN(CCC[NH2+]c1c2ccccc2[n+](C)c2ccccc12)c1ccccc1 (optimized conformer: 88.97547396095537 kcal/mol)

>  <smiles>  (6) 
CCN(CCCNc1c2ccccc2[n+](C)c2ccccc12)c1ccccc1

>  <score_type>  (6) 
oracle

>  <origin>  (6) 
adg

>  <m_score__min__energy>  (6) 
-5.2000000000000002

>  <m_primary>  (6) 
energy

$$$$
6:0
     RDKit          3D

 37 40  0  0  0  0  0  0  0  0999 V2000
   60.3270   34.4930   45.6220 C   0  0  0  0  0  0  0  0  0  0  0  0
   59.4810   33.8550   46.6290 N   0  0  0  0  0  0  0  0  0  0  0  0
   59.8430   33.2580   47.7940 C   0  0  0  0  0  0  0  0  0  0  0  0
   61.2260   33.1300   48.3140 C   0  0  0  0  0  0  0  0  0  0  0  0
   61.6690   33.9480   49.3680 C   0  0  0  0  0  0  0  0  0  0  0  0
   62.9740   33.8090   49.8450 C   0  0  0  0  0  0  0  0  0  0  0  0
   63.8260   32.8620   49.2760 C   0  0  0  0  0  0  0  0  0  0  0  0
   63.3550   32.0630   48.2320 C   0  0  0  0  0  0  0  0  0  0  0  0
   62.0820   32.2140   47.7820 N   0  0  0  0  0  0  0  0  0  0  0  0
   58.7650   32.7620   48.4420 N   0  0  0  0  0  0  0  0  0  0  0  0
   57.7140   33.0380   47.6900 N   0  0  0  0  0  0  0  0  0  0  0  0
   58.1430   33.6900   46.5980 C   0  0  0  0  0  0  0  0  0  0  0  0
   57.0540   34.2280   45.2730 S   0  0  0  0  0  0  0  0  0  0  0  0
   57.7330   33.0660   44.0390 C   0  0  0  0  0  0  0  0  0  0  0  0
   57.7090   31.6610   44.5610 C   0  0  0  0  0  0  0  0  0  0  0  0
   56.5320   30.8880   44.4940 C   0  0  0  0  0  0  0  0  0  0  0  0
   56.5620   29.5660   44.9550 C   0  0  0  0  0  0  0  0  0  0  0  0
   55.5230   28.8530   44.9030 O   0  0  0  0  0  0  0  0  0  0  0  0
   57.7280   29.0700   45.4540 N   0  0  0  0  0  0  0  0  0  0  0  0
   57.9380   27.8160   45.9420 C   0  0  0  0  0  0  0  0  0  0  0  0
   59.2420   27.5890   46.3820 C   0  0  0  0  0  0  0  0  0  0  0  0
   60.1460   29.0020   46.1520 S   0  0  0  0  0  0  0  0  0  0  0  0
   58.8410   29.8330   45.5060 C   0  0  0  0  0  0  0  0  0  0  0  0
   58.8510   31.1130   45.0660 N   0  0  0  0  0  0  0  0  0  0  0  0
   61.1096   35.0832   46.1212 H   0  0  0  0  0  0  0  0  0  0  0  0
   60.7948   33.7209   44.9935 H   0  0  0  0  0  0  0  0  0  0  0  0
   59.7132   35.1550   44.9935 H   0  0  0  0  0  0  0  0  0  0  0  0
   60.9925   34.6921   49.8137 H   0  0  0  0  0  0  0  0  0  0  0  0
   63.3299   34.4455   50.6685 H   0  0  0  0  0  0  0  0  0  0  0  0
   64.8557   32.7462   49.6451 H   0  0  0  0  0  0  0  0  0  0  0  0
   64.0147   31.3113   47.7740 H   0  0  0  0  0  0  0  0  0  0  0  0
   56.7310   32.7720   47.9180 H   0  0  0  0  0  0  0  0  0  0  0  0
   57.1284   33.1203   43.1217 H   0  0  0  0  0  0  0  0  0  0  0  0
   58.7756   33.3458   43.8276 H   0  0  0  0  0  0  0  0  0  0  0  0
   55.6047   31.3165   44.0860 H   0  0  0  0  0  0  0  0  0  0  0  0
   57.1494   27.0503   45.9853 H   0  0  0  0  0  0  0  0  0  0  0  0
   59.6203   26.6480   46.8078 H   0  0  0  0  0  0  0  0  0  0  0  0
  1  2  1  0
  2  3  1  0
  3  4  1  0
  4  5  2  0
  5  6  1  0
  6  7  2  0
  7  8  1  0
  8  9  2  0
  3 10  2  0
 10 11  1  0
 11 12  2  0
 12 13  1  0
 13 14  1  0
 14 15  1  0
 15 16  2  0
 16 17  1  0
 17 18  2  0
 17 19  1  0
 19 20  1  0
 20 21  2  0
 21 22  1  0
 22 23  1  0
 23 24  2  0
 12  2  1  0
 24 15  1  0
  9  4  1  0
 23 19  1  0
  1 25  1  0
  1 26  1  0
  1 27  1  0
  5 28  1  0
  6 29  1  0
  7 30  1  0
  8 31  1  0
 11 32  1  0
 14 33  1  0
 14 34  1  0
 16 35  1  0
 20 36  1  0
 21 37  1  0
M  CHG  1  11   1
M  END
>  <UniqueID>  (7) 
7

>  <SMILES>  (7) 
Cn1c(-c2ccccn2)n[nH+]c1SCc1cc(=O)n2ccsc2n1

>  <Energy>  (7) 
108.59651825053074

>  <Genealogy>  (7) 
Cn1c(-c2ccccn2)n[nH+]c1SCc1cc(=O)n2ccsc2n1 (protonated)
Cn1c(-c2ccccn2)n[nH+]c1SCc1cc(=O)n2ccsc2n1 (3D coordinates assigned)
Cn1c(-c2ccccn2)n[nH+]c1SCc1cc(=O)n2ccsc2n1 (optimized conformer: 108.59651825053074 kcal/mol)

>  <smiles>  (7) 
Cn1c(SCc2cc(=O)n3ccsc3n2)nnc1-c1ccccn1

>  <score_type>  (7) 
oracle

>  <origin>  (7) 
adg

>  <m_score__min__energy>  (7) 
-6.4800000000000004

>  <m_primary>  (7) 
energy

$$$$
7:0
     RDKit          3D

 45 47  0  0  0  0  0  0  0  0999 V2000
   59.9770   34.1140   49.4180 C   0  0  0  0  0  0  0  0  0  0  0  0
   58.9560   33.0860   48.9560 C   0  0  0  0  0  0  0  0  0  0  0  0
   58.7430   33.2290   47.5660 O   0  0  0  0  0  0  0  0  0  0  0  0
   59.0170   34.5570   47.1590 C   0  0  0  0  0  0  0  0  0  0  0  0
   59.9240   34.5550   45.9220 C   0  0  0  0  0  0  0  0  0  0  0  0
   59.1630   34.1830   44.6420 C   0  0  0  0  0  0  0  0  0  0  0  0
   57.8730   33.5410   44.9540 N   0  0  0  0  0  0  0  0  0  0  0  0
   57.4060   32.6420   43.8870 C   0  0  0  0  0  0  0  0  0  0  0  0
   57.2240   31.2460   44.3980 C   0  0  0  0  0  0  0  0  0  0  0  0
   56.2350   30.3350   44.0350 C   0  0  0  0  0  0  0  0  0  0  0  0
   56.3750   29.2120   44.7230 O   0  0  0  0  0  0  0  0  0  0  0  0
   57.4100   29.3570   45.5170 C   0  0  0  0  0  0  0  0  0  0  0  0
   57.9250   28.4570   46.4390 C   0  0  0  0  0  0  0  0  0  0  0  0
   59.0320   28.8710   47.2000 C   0  0  0  0  0  0  0  0  0  0  0  0
   59.5850   30.1680   47.0120 C   0  0  0  0  0  0  0  0  0  0  0  0
   60.7290   30.6210   47.8390 C   0  0  0  0  0  0  0  0  0  0  0  0
   60.9930   30.0370   49.0910 C   0  0  0  0  0  0  0  0  0  0  0  0
   62.0350   30.4750   49.8470 N   0  0  0  0  0  0  0  0  0  0  0  0
   62.8510   31.4780   49.4290 C   0  0  0  0  0  0  0  0  0  0  0  0
   62.6290   32.0910   48.1950 C   0  0  0  0  0  0  0  0  0  0  0  0
   63.7650   33.5070   47.6010 Br  0  0  0  0  0  0  0  0  0  0  0  0
   61.5640   31.6610   47.3990 C   0  0  0  0  0  0  0  0  0  0  0  0
   59.0380   31.0090   46.0720 N   0  0  0  0  0  0  0  0  0  0  0  0
   57.9700   30.5870   45.3490 C   0  0  0  0  0  0  0  0  0  0  0  0
   60.0011   34.1383   50.5175 H   0  0  0  0  0  0  0  0  0  0  0  0
   60.9714   33.8407   49.0354 H   0  0  0  0  0  0  0  0  0  0  0  0
   59.6969   35.1065   49.0354 H   0  0  0  0  0  0  0  0  0  0  0  0
   59.3321   32.0742   49.1676 H   0  0  0  0  0  0  0  0  0  0  0  0
   58.0080   33.2428   49.4914 H   0  0  0  0  0  0  0  0  0  0  0  0
   58.0720   35.0649   46.9160 H   0  0  0  0  0  0  0  0  0  0  0  0
   59.5274   35.0854   47.9777 H   0  0  0  0  0  0  0  0  0  0  0  0
   60.3551   35.5594   45.7979 H   0  0  0  0  0  0  0  0  0  0  0  0
   60.7067   33.7984   46.0800 H   0  0  0  0  0  0  0  0  0  0  0  0
   58.9769   35.0961   44.0575 H   0  0  0  0  0  0  0  0  0  0  0  0
   59.7752   33.4719   44.0680 H   0  0  0  0  0  0  0  0  0  0  0  0
   58.0050   32.9560   45.8120 H   0  0  0  0  0  0  0  0  0  0  0  0
   56.4443   33.0115   43.5015 H   0  0  0  0  0  0  0  0  0  0  0  0
   58.1625   32.6255   43.0886 H   0  0  0  0  0  0  0  0  0  0  0  0
   55.4515   30.5212   43.2857 H   0  0  0  0  0  0  0  0  0  0  0  0
   57.4839   27.4578   46.5694 H   0  0  0  0  0  0  0  0  0  0  0  0
   59.4720   28.1898   47.9432 H   0  0  0  0  0  0  0  0  0  0  0  0
   60.3534   29.2219   49.4605 H   0  0  0  0  0  0  0  0  0  0  0  0
   63.6871   31.8070   50.0637 H   0  0  0  0  0  0  0  0  0  0  0  0
   61.3792   32.1383   46.4253 H   0  0  0  0  0  0  0  0  0  0  0  0
   59.4100   31.9750   45.9310 H   0  0  0  0  0  0  0  0  0  0  0  0
  1  2  1  0
  2  3  1  0
  3  4  1  0
  4  5  1  0
  5  6  1  0
  6  7  1  0
  7  8  1  0
  8  9  1  0
  9 10  2  0
 10 11  1  0
 11 12  1  0
 12 13  2  0
 13 14  1  0
 14 15  2  0
 15 16  1  0
 16 17  2  0
 17 18  1  0
 18 19  2  0
 19 20  1  0
 20 21  1  0
 20 22  2  0
 15 23  1  0
 23 24  2  0
 24  9  1  0
 24 12  1  0
 22 16  1  0
  1 25  1  0
  1 26  1  0
  1 27  1  0
  2 28  1  0
  2 29  1  0
  4 30  1  0
  4 31  1  0
  5 32  1  0
  5 33  1  0
  6 34  1  0
  6 35  1  0
  7 36  1  0
  8 37  1  0
  8 38  1  0
 10 39  1  0
 13 40  1  0
 14 41  1  0
 17 42  1  0
 19 43  1  0
 22 44  1  0
 23 45  1  0
M  CHG  1  23   1
M  END
>  <UniqueID>  (8) 
8

>  <SMILES>  (8) 
CCOCCCNCc1coc2ccc(-c3cncc(Br)c3)[nH+]c12

>  <Energy>  (8) 
79.26738202588645

>  <Genealogy>  (8) 
CCOCCCNCc1coc2ccc(-c3cncc(Br)c3)[nH+]c12 (protonated)
CCOCCCNCc1coc2ccc(-c3cncc(Br)c3)[nH+]c12 (3D coordinates assigned)
CCOCCCNCc1coc2ccc(-c3cncc(Br)c3)[nH+]c12 (optimized conformer: 79.26738202588645 kcal/mol)

>  <smiles>  (8) 
CCOCCCNCc1coc2ccc(-c3cncc(Br)c3)nc12

>  <score_type>  (8) 
oracle

>  <origin>  (8) 
adg

>  <m_score__min__energy>  (8) 
-5.3200000000000003

>  <m_primary>  (8) 
energy

$$$$
8:0
     RDKit          3D

 63 65  0  0  0  0  0  0  0  0999 V2000
   65.3300   32.7210   49.8170 C   0  0  0  0  0  0  0  0  0  0  0  0
   64.0530   32.2450   49.1160 C   0  0  0  0  0  0  0  0  0  0  0  0
   64.1160   32.4350   47.6520 N   0  0  0  0  0  0  0  0  0  0  0  0
   62.8580   32.9540   47.0810 C   0  0  0  0  0  0  0  0  0  0  0  0
   62.0720   33.8070   48.0890 C   0  0  0  0  0  0  0  0  0  0  0  0
   60.8740   33.1020   48.5390 N   0  0  0  0  0  0  0  0  0  0  0  0
   60.1920   32.1990   47.6580 C   0  0  0  0  0  0  0  0  0  0  0  0
   59.4380   32.6960   46.5840 C   0  0  0  0  0  0  0  0  0  0  0  0
   59.2960   34.0860   46.3860 C   0  0  0  0  0  0  0  0  0  0  0  0
   58.5060   34.5780   45.3500 C   0  0  0  0  0  0  0  0  0  0  0  0
   57.8350   33.6990   44.5080 C   0  0  0  0  0  0  0  0  0  0  0  0
   57.9690   32.3210   44.6790 C   0  0  0  0  0  0  0  0  0  0  0  0
   58.7990   31.7870   45.6990 C   0  0  0  0  0  0  0  0  0  0  0  0
   58.9770   30.4240   45.8580 N   0  0  0  0  0  0  0  0  0  0  0  0
   58.5510   29.4920   44.7890 C   0  0  0  0  0  0  0  0  0  0  0  0
   59.5690   29.9330   47.0080 C   0  0  0  0  0  0  0  0  0  0  0  0
   59.5410   28.5550   47.3350 C   0  0  0  0  0  0  0  0  0  0  0  0
   60.1840   28.0670   48.4720 C   0  0  0  0  0  0  0  0  0  0  0  0
   60.8580   28.9400   49.3380 C   0  0  0  0  0  0  0  0  0  0  0  0
   61.5240   28.5020   50.4950 O   0  0  0  0  0  0  0  0  0  0  0  0
   60.9330   27.7590   51.5630 C   0  0  0  0  0  0  0  0  0  0  0  0
   61.5130   26.3270   51.6030 C   0  0  0  0  0  0  0  0  0  0  0  0
   62.7780   26.1730   52.3860 N   0  0  0  0  0  0  0  0  0  0  0  0
   62.5020   25.7070   53.7680 C   0  0  0  0  0  0  0  0  0  0  0  0
   63.7150   25.2330   51.7200 C   0  0  0  0  0  0  0  0  0  0  0  0
   63.4310   27.5040   52.4660 C   0  0  0  0  0  0  0  0  0  0  0  0
   60.8700   30.3050   49.0490 C   0  0  0  0  0  0  0  0  0  0  0  0
   60.2170   30.8170   47.9090 C   0  0  0  0  0  0  0  0  0  0  0  0
   65.1910   32.6692   50.9070 H   0  0  0  0  0  0  0  0  0  0  0  0
   66.1715   32.0761   49.5236 H   0  0  0  0  0  0  0  0  0  0  0  0
   65.5441   33.7593   49.5236 H   0  0  0  0  0  0  0  0  0  0  0  0
   63.9099   31.1753   49.3286 H   0  0  0  0  0  0  0  0  0  0  0  0
   63.2141   32.8449   49.4986 H   0  0  0  0  0  0  0  0  0  0  0  0
   64.3470   31.5240   47.1900 H   0  0  0  0  0  0  0  0  0  0  0  0
   64.9010   33.0910   47.4290 H   0  0  0  0  0  0  0  0  0  0  0  0
   63.0960   33.5725   46.2030 H   0  0  0  0  0  0  0  0  0  0  0  0
   62.2313   32.0929   46.8058 H   0  0  0  0  0  0  0  0  0  0  0  0
   62.7123   34.0214   48.9573 H   0  0  0  0  0  0  0  0  0  0  0  0
   61.7679   34.7434   47.5985 H   0  0  0  0  0  0  0  0  0  0  0  0
   60.5260   33.2040   49.5190 H   0  0  0  0  0  0  0  0  0  0  0  0
   59.8142   34.7875   47.0563 H   0  0  0  0  0  0  0  0  0  0  0  0
   58.4130   35.6635   45.1979 H   0  0  0  0  0  0  0  0  0  0  0  0
   57.1957   34.0915   43.7035 H   0  0  0  0  0  0  0  0  0  0  0  0
   57.4226   31.6373   44.0126 H   0  0  0  0  0  0  0  0  0  0  0  0
   58.1343   28.5803   45.2420 H   0  0  0  0  0  0  0  0  0  0  0  0
   57.7843   29.9751   44.1655 H   0  0  0  0  0  0  0  0  0  0  0  0
   59.4180   29.2283   44.1655 H   0  0  0  0  0  0  0  0  0  0  0  0
   59.0014   27.8561   46.6790 H   0  0  0  0  0  0  0  0  0  0  0  0
   60.1624   26.9893   48.6912 H   0  0  0  0  0  0  0  0  0  0  0  0
   61.1450   28.2635   52.5172 H   0  0  0  0  0  0  0  0  0  0  0  0
   59.8465   27.7014   51.4014 H   0  0  0  0  0  0  0  0  0  0  0  0
   60.7551   25.6653   52.0477 H   0  0  0  0  0  0  0  0  0  0  0  0
   61.7649   26.0710   50.5633 H   0  0  0  0  0  0  0  0  0  0  0  0
   62.9259   26.4227   54.4878 H   0  0  0  0  0  0  0  0  0  0  0  0
   61.4150   25.6342   53.9202 H   0  0  0  0  0  0  0  0  0  0  0  0
   62.9606   24.7188   53.9202 H   0  0  0  0  0  0  0  0  0  0  0  0
   64.2747   24.6715   52.4825 H   0  0  0  0  0  0  0  0  0  0  0  0
   63.1461   24.5315   51.0921 H   0  0  0  0  0  0  0  0  0  0  0  0
   64.4183   25.7997   51.0921 H   0  0  0  0  0  0  0  0  0  0  0  0
   63.5677   27.7825   53.5213 H   0  0  0  0  0  0  0  0  0  0  0  0
   64.4109   27.4622   51.9680 H   0  0  0  0  0  0  0  0  0  0  0  0
   62.7982   28.2534   51.9680 H   0  0  0  0  0  0  0  0  0  0  0  0
   61.3989   30.9947   49.7232 H   0  0  0  0  0  0  0  0  0  0  0  0
  1  2  1  0
  2  3  1  0
  3  4  1  0
  4  5  1  0
  5  6  1  0
  6  7  1  0
  7  8  2  0
  8  9  1  0
  9 10  2  0
 10 11  1  0
 11 12  2  0
 12 13  1  0
 13 14  2  0
 14 15  1  0
 14 16  1  0
 16 17  2  0
 17 18  1  0
 18 19  2  0
 19 20  1  0
 20 21  1  0
 21 22  1  0
 22 23  1  0
 23 24  1  0
 23 25  1  0
 23 26  1  0
 19 27  1  0
 27 28  2  0
 28  7  1  0
 13  8  1  0
 28 16  1  0
  1 29  1  0
  1 30  1  0
  1 31  1  0
  2 32  1  0
  2 33  1  0
  3 34  1  0
  3 35  1  0
  4 36  1  0
  4 37  1  0
  5 38  1  0
  5 39  1  0
  6 40  1  0
  9 41  1  0
 10 42  1  0
 11 43  1  0
 12 44  1  0
 15 45  1  0
 15 46  1  0
 15 47  1  0
 17 48  1  0
 18 49  1  0
 21 50  1  0
 21 51  1  0
 22 52  1  0
 22 53  1  0
 24 54  1  0
 24 55  1  0
 24 56  1  0
 25 57  1  0
 25 58  1  0
 25 59  1  0
 26 60  1  0
 26 61  1  0
 26 62  1  0
 27 63  1  0
M  CHG  3   3   1  14   1  23   1
M  END
>  <UniqueID>  (9) 
9

>  <SMILES>  (9) 
CC[NH2+]CCNc1c2ccccc2[n+](C)c2ccc(OCC[N+](C)(C)C)cc12

>  <Energy>  (9) 
93.40440319249424

>  <Genealogy>  (9) 
CC[NH2+]CCNc1c2ccccc2[n+](C)c2ccc(OCC[N+](C)(C)C)cc12 (protonated)
CC[NH2+]CCNc1c2ccccc2[n+](C)c2ccc(OCC[N+](C)(C)C)cc12 (3D coordinates assigned)
CC[NH2+]CCNc1c2ccccc2[n+](C)c2ccc(OCC[N+](C)(C)C)cc12 (optimized conformer: 93.40440319249424 kcal/mol)

>  <smiles>  (9) 
CCNCCNc1c2ccccc2[n+](C)c2ccc(OCC[N+](C)(C)C)cc12

>  <score_type>  (9) 
oracle

>  <origin>  (9) 
adg

>  <m_score__min__energy>  (9) 
-2.5600000000000001

>  <m_primary>  (9) 
energy

$$$$
9:0
     RDKit          3D

 43 45  0  0  0  0  0  0  0  0999 V2000
   58.6040   31.8930   49.7170 C   0  0  0  0  0  0  0  0  0  0  0  0
   59.2720   30.5300   49.5680 C   0  0  0  0  0  0  0  0  0  0  0  0
   59.7960   30.3660   48.2500 O   0  0  0  0  0  0  0  0  0  0  0  0
   59.6310   29.2350   47.4280 C   0  0  0  0  0  0  0  0  0  0  0  0
   60.1970   27.9870   47.7610 C   0  0  0  0  0  0  0  0  0  0  0  0
   60.0090   26.8800   46.9330 C   0  0  0  0  0  0  0  0  0  0  0  0
   59.2630   26.9990   45.7640 C   0  0  0  0  0  0  0  0  0  0  0  0
   58.7010   28.2270   45.4150 C   0  0  0  0  0  0  0  0  0  0  0  0
   58.8740   29.3570   46.2370 C   0  0  0  0  0  0  0  0  0  0  0  0
   58.2730   30.6580   45.8480 C   0  0  0  0  0  0  0  0  0  0  0  0
   58.6650   31.8600   46.3240 N   0  0  0  0  0  0  0  0  0  0  0  0
   57.8630   32.7440   45.7070 C   0  0  0  0  0  0  0  0  0  0  0  0
   57.9450   34.2350   45.8770 C   0  0  0  0  0  0  0  0  0  0  0  0
   59.1710   34.6480   46.5810 N   0  0  0  0  0  0  0  0  0  0  0  0
   60.3960   34.2930   45.8500 C   0  0  0  0  0  0  0  0  0  0  0  0
   61.4330   33.7450   46.7870 C   0  0  0  0  0  0  0  0  0  0  0  0
   62.8000   33.8520   46.4930 C   0  0  0  0  0  0  0  0  0  0  0  0
   63.7380   33.3490   47.3960 C   0  0  0  0  0  0  0  0  0  0  0  0
   63.3080   32.7470   48.5810 C   0  0  0  0  0  0  0  0  0  0  0  0
   64.4740   32.1120   49.7270 Cl  0  0  0  0  0  0  0  0  0  0  0  0
   61.9380   32.6600   48.8440 C   0  0  0  0  0  0  0  0  0  0  0  0
   61.0410   33.1570   47.9520 N   0  0  0  0  0  0  0  0  0  0  0  0
   57.0080   32.0590   44.8730 C   0  0  0  0  0  0  0  0  0  0  0  0
   57.2860   30.7810   44.9850 O   0  0  0  0  0  0  0  0  0  0  0  0
   58.4880   32.1297   50.7849 H   0  0  0  0  0  0  0  0  0  0  0  0
   59.2276   32.6614   49.2368 H   0  0  0  0  0  0  0  0  0  0  0  0
   57.6146   31.8709   49.2368 H   0  0  0  0  0  0  0  0  0  0  0  0
   60.0929   30.4488   50.2956 H   0  0  0  0  0  0  0  0  0  0  0  0
   58.5216   29.7466   49.7502 H   0  0  0  0  0  0  0  0  0  0  0  0
   60.7915   27.8856   48.6810 H   0  0  0  0  0  0  0  0  0  0  0  0
   60.4516   25.9104   47.2048 H   0  0  0  0  0  0  0  0  0  0  0  0
   59.1164   26.1234   45.1145 H   0  0  0  0  0  0  0  0  0  0  0  0
   58.1162   28.3136   44.4874 H   0  0  0  0  0  0  0  0  0  0  0  0
   59.4370   32.0760   46.9930 H   0  0  0  0  0  0  0  0  0  0  0  0
   57.9314   34.7062   44.8831 H   0  0  0  0  0  0  0  0  0  0  0  0
   57.0840   34.5537   46.4829 H   0  0  0  0  0  0  0  0  0  0  0  0
   59.1960   34.1840   47.5180 H   0  0  0  0  0  0  0  0  0  0  0  0
   60.1566   33.5328   45.0918 H   0  0  0  0  0  0  0  0  0  0  0  0
   60.7962   35.1981   45.3698 H   0  0  0  0  0  0  0  0  0  0  0  0
   63.1304   34.3285   45.5582 H   0  0  0  0  0  0  0  0  0  0  0  0
   64.8128   33.4264   47.1752 H   0  0  0  0  0  0  0  0  0  0  0  0
   61.5856   32.1890   49.7735 H   0  0  0  0  0  0  0  0  0  0  0  0
   56.2332   32.5020   44.2300 H   0  0  0  0  0  0  0  0  0  0  0  0
  1  2  1  0
  2  3  1  0
  3  4  1  0
  4  5  2  0
  5  6  1  0
  6  7  2  0
  7  8  1  0
  8  9  2  0
  9 10  1  0
 10 11  2  0
 11 12  1  0
 12 13  1  0
 13 14  1  0
 14 15  1  0
 15 16  1  0
 16 17  2  0
 17 18  1  0
 18 19  2  0
 19 20  1  0
 19 21  1  0
 21 22  2  0
 12 23  2  0
 23 24  1  0
  9  4  1  0
 24 10  1  0
 22 16  1  0
  1 25  1  0
  1 26  1  0
  1 27  1  0
  2 28  1  0
  2 29  1  0
  5 30  1  0
  6 31  1  0
  7 32  1  0
  8 33  1  0
 11 34  1  0
 13 35  1  0
 13 36  1  0
 14 37  1  0
 15 38  1  0
 15 39  1  0
 17 40  1  0
 18 41  1  0
 21 42  1  0
 23 43  1  0
M  CHG  1  11   1
M  END
>  <UniqueID>  (10) 
10

>  <SMILES>  (10) 
CCOc1ccccc1-c1[nH+]c(CNCc2ccc(Cl)cn2)co1

>  <Energy>  (10) 
75.99226538734928

>  <Genealogy>  (10) 
CCOc1ccccc1-c1[nH+]c(CNCc2ccc(Cl)cn2)co1 (protonated)
CCOc1ccccc1-c1[nH+]c(CNCc2ccc(Cl)cn2)co1 (3D coordinates assigned)
CCOc1ccccc1-c1[nH+]c(CNCc2ccc(Cl)cn2)co1 (optimized conformer: 75.99226538734928 kcal/mol)

>  <smiles>  (10) 
CCOc1ccccc1-c1nc(CNCc2ccc(Cl)cn2)co1

>  <score_type>  (10) 
oracle

>  <origin>  (10) 
adg

>  <m_score__min__energy>  (10) 
-5.1100000000000003

>  <m_primary>  (10) 
energy

$$$$
10:0
     RDKit          3D

 47 49  0  0  0  0  0  0  0  0999 V2000
   56.2900   22.6950   42.9860 C   0  0  0  0  0  0  0  0  0  0  0  0
   57.0180   21.3610   43.1250 C   0  0  0  0  0  0  0  0  0  0  0  0
   57.7660   21.3200   44.3890 N   0  0  0  0  0  0  0  0  0  0  0  0
   56.8900   21.5460   45.5510 C   0  0  0  0  0  0  0  0  0  0  0  0
   57.2550   22.8440   46.2910 C   0  0  0  0  0  0  0  0  0  0  0  0
   58.0630   23.7410   45.4590 N   0  0  0  0  0  0  0  0  0  0  0  0
   58.1640   25.1590   45.6950 C   0  0  0  0  0  0  0  0  0  0  0  0
   58.5600   25.6170   46.9570 C   0  0  0  0  0  0  0  0  0  0  0  0
   58.6680   26.9850   47.2220 C   0  0  0  0  0  0  0  0  0  0  0  0
   58.3840   27.9470   46.2260 C   0  0  0  0  0  0  0  0  0  0  0  0
   58.5040   29.3410   46.5290 C   0  0  0  0  0  0  0  0  0  0  0  0
   58.8660   29.6570   47.6980 O   0  0  0  0  0  0  0  0  0  0  0  0
   58.2440   30.4040   45.6050 C   0  0  0  0  0  0  0  0  0  0  0  0
   58.3960   31.7480   46.0180 C   0  0  0  0  0  0  0  0  0  0  0  0
   58.1470   32.8210   45.1440 C   0  0  0  0  0  0  0  0  0  0  0  0
   58.3220   34.1680   45.6240 N   0  0  0  0  0  0  0  0  0  0  0  0
   59.7570   34.7570   46.4030 S   0  0  0  0  0  0  0  0  0  0  0  0
   59.6130   34.5890   48.1700 C   0  0  0  0  0  0  0  0  0  0  0  0
   60.9300   33.9400   45.9410 O   0  0  0  0  0  0  0  0  0  0  0  0
   59.9940   36.1940   46.0290 O   0  0  0  0  0  0  0  0  0  0  0  0
   57.7480   32.5490   43.8260 C   0  0  0  0  0  0  0  0  0  0  0  0
   57.5910   31.2330   43.3950 C   0  0  0  0  0  0  0  0  0  0  0  0
   57.8340   30.1740   44.2730 C   0  0  0  0  0  0  0  0  0  0  0  0
   57.6430   28.5870   43.7470 S   0  0  0  0  0  0  0  0  0  0  0  0
   57.9880   27.4700   44.9560 C   0  0  0  0  0  0  0  0  0  0  0  0
   57.8790   26.1000   44.6920 C   0  0  0  0  0  0  0  0  0  0  0  0
   56.0698   23.0984   43.9854 H   0  0  0  0  0  0  0  0  0  0  0  0
   56.9261   23.4043   42.4362 H   0  0  0  0  0  0  0  0  0  0  0  0
   55.3493   22.5438   42.4362 H   0  0  0  0  0  0  0  0  0  0  0  0
   56.2829   20.5428   43.1112 H   0  0  0  0  0  0  0  0  0  0  0  0
   57.7222   21.2476   42.2876 H   0  0  0  0  0  0  0  0  0  0  0  0
   58.1630   20.3570   44.4900 H   0  0  0  0  0  0  0  0  0  0  0  0
   55.8480   21.6133   45.2049 H   0  0  0  0  0  0  0  0  0  0  0  0
   57.0188   20.7047   46.2479 H   0  0  0  0  0  0  0  0  0  0  0  0
   56.3281   23.3630   46.5764 H   0  0  0  0  0  0  0  0  0  0  0  0
   57.8488   22.5749   47.1770 H   0  0  0  0  0  0  0  0  0  0  0  0
   58.5900   23.3440   44.6480 H   0  0  0  0  0  0  0  0  0  0  0  0
   58.7892   24.8907   47.7507 H   0  0  0  0  0  0  0  0  0  0  0  0
   58.9793   27.3188   48.2228 H   0  0  0  0  0  0  0  0  0  0  0  0
   58.7170   31.9593   47.0487 H   0  0  0  0  0  0  0  0  0  0  0  0
   57.5710   34.8700   45.4390 H   0  0  0  0  0  0  0  0  0  0  0  0
   60.2531   35.3357   48.6627 H   0  0  0  0  0  0  0  0  0  0  0  0
   58.5666   34.7483   48.4694 H   0  0  0  0  0  0  0  0  0  0  0  0
   59.9304   33.5792   48.4694 H   0  0  0  0  0  0  0  0  0  0  0  0
   57.5582   33.3790   43.1296 H   0  0  0  0  0  0  0  0  0  0  0  0
   57.2751   31.0278   42.3615 H   0  0  0  0  0  0  0  0  0  0  0  0
   57.5685   25.7583   43.6936 H   0  0  0  0  0  0  0  0  0  0  0  0
  1  2  1  0
  2  3  1  0
  3  4  1  0
  4  5  1  0
  5  6  1  0
  6  7  1  0
  7  8  2  0
  8  9  1  0
  9 10  2  0
 10 11  1  0
 11 12  2  0
 11 13  1  0
 13 14  2  0
 14 15  1  0
 15 16  1  0
 16 17  1  0
 17 18  1  0
 17 19  2  0
 17 20  2  0
 15 21  2  0
 21 22  1  0
 22 23  2  0
 23 24  1  0
 24 25  1  0
 25 26  2  0
 26  7  1  0
 25 10  1  0
 23 13  1  0
  1 27  1  0
  1 28  1  0
  1 29  1  0
  2 30  1  0
  2 31  1  0
  3 32  1  0
  4 33  1  0
  4 34  1  0
  5 35  1  0
  5 36  1  0
  6 37  1  0
  8 38  1  0
  9 39  1  0
 14 40  1  0
 16 41  1  0
 18 42  1  0
 18 43  1  0
 18 44  1  0
 21 45  1  0
 22 46  1  0
 26 47  1  0
M  END
>  <UniqueID>  (11) 
11

>  <SMILES>  (11) 
CCNCCNc1ccc2c(=O)c3cc(NS(C)(=O)=O)ccc3sc2c1

>  <Energy>  (11) 
55.93768137496737

>  <Genealogy>  (11) 
CCNCCNc1ccc2c(=O)c3cc(NS(C)(=O)=O)ccc3sc2c1 (3D coordinates assigned)
CCNCCNc1ccc2c(=O)c3cc(NS(C)(=O)=O)ccc3sc2c1 (optimized conformer: 55.93768137496737 kcal/mol)

>  <smiles>  (11) 
CCNCCNc1ccc2c(=O)c3cc(NS(C)(=O)=O)ccc3sc2c1

>  <score_type>  (11) 
oracle

>  <origin>  (11) 
adg

>  <m_score__min__energy>  (11) 
-7.5999999999999996

>  <m_primary>  (11) 
energy

$$$$
11:0
     RDKit          3D

 44 46  0  0  0  0  0  0  0  0999 V2000
   55.5360   29.7350   43.3800 C   0  0  0  0  0  0  0  0  0  0  0  0
   56.6850   29.8910   44.3320 C   0  0  0  0  0  0  0  0  0  0  0  0
   57.3200   31.1330   44.4750 C   0  0  0  0  0  0  0  0  0  0  0  0
   58.3660   31.2880   45.3900 C   0  0  0  0  0  0  0  0  0  0  0  0
   58.7890   30.2080   46.1830 C   0  0  0  0  0  0  0  0  0  0  0  0
   59.8920   30.4020   47.1530 C   0  0  0  0  0  0  0  0  0  0  0  0
   61.0080   31.1310   46.9260 N   0  0  0  0  0  0  0  0  0  0  0  0
   61.7390   30.9960   48.0460 C   0  0  0  0  0  0  0  0  0  0  0  0
   63.1170   31.5620   48.2260 C   0  0  0  0  0  0  0  0  0  0  0  0
   63.4810   32.4300   47.0960 N   0  0  0  0  0  0  0  0  0  0  0  0
   63.1300   33.8420   47.3220 C   0  0  0  0  0  0  0  0  0  0  0  0
   61.6400   34.0170   47.4190 C   0  0  0  0  0  0  0  0  0  0  0  0
   60.7850   34.1540   46.3410 C   0  0  0  0  0  0  0  0  0  0  0  0
   59.5170   34.3120   46.8650 C   0  0  0  0  0  0  0  0  0  0  0  0
   59.6440   34.2520   48.2390 C   0  0  0  0  0  0  0  0  0  0  0  0
   60.9390   34.0800   48.5730 N   0  0  0  0  0  0  0  0  0  0  0  0
   61.4500   33.8890   49.9280 C   0  0  0  0  0  0  0  0  0  0  0  0
   61.0320   30.2020   48.9300 C   0  0  0  0  0  0  0  0  0  0  0  0
   61.4470   29.7500   50.2910 C   0  0  0  0  0  0  0  0  0  0  0  0
   59.9070   29.8530   48.3510 O   0  0  0  0  0  0  0  0  0  0  0  0
   58.1330   28.9690   46.0500 C   0  0  0  0  0  0  0  0  0  0  0  0
   57.0870   28.8160   45.1370 C   0  0  0  0  0  0  0  0  0  0  0  0
   54.6031   29.6083   43.9489 H   0  0  0  0  0  0  0  0  0  0  0  0
   55.4604   30.6311   42.7466 H   0  0  0  0  0  0  0  0  0  0  0  0
   55.7021   28.8512   42.7466 H   0  0  0  0  0  0  0  0  0  0  0  0
   56.9941   31.9885   43.8652 H   0  0  0  0  0  0  0  0  0  0  0  0
   58.8623   32.2646   45.4899 H   0  0  0  0  0  0  0  0  0  0  0  0
   61.2790   31.6610   46.0690 H   0  0  0  0  0  0  0  0  0  0  0  0
   63.1461   32.1499   49.1553 H   0  0  0  0  0  0  0  0  0  0  0  0
   63.8346   30.7297   48.2745 H   0  0  0  0  0  0  0  0  0  0  0  0
   64.5230   32.3840   46.9960 H   0  0  0  0  0  0  0  0  0  0  0  0
   63.5941   34.1826   48.2593 H   0  0  0  0  0  0  0  0  0  0  0  0
   63.4984   34.4354   46.4722 H   0  0  0  0  0  0  0  0  0  0  0  0
   61.0604   34.1399   45.2761 H   0  0  0  0  0  0  0  0  0  0  0  0
   58.5859   34.4575   46.2977 H   0  0  0  0  0  0  0  0  0  0  0  0
   58.8124   34.3325   48.9545 H   0  0  0  0  0  0  0  0  0  0  0  0
   60.6771   34.1779   50.6555 H   0  0  0  0  0  0  0  0  0  0  0  0
   61.7144   32.8313   50.0745 H   0  0  0  0  0  0  0  0  0  0  0  0
   62.3433   34.5139   50.0745 H   0  0  0  0  0  0  0  0  0  0  0  0
   60.9095   30.3354   51.0515 H   0  0  0  0  0  0  0  0  0  0  0  0
   61.2070   28.6833   50.4121 H   0  0  0  0  0  0  0  0  0  0  0  0
   62.5302   29.8982   50.4121 H   0  0  0  0  0  0  0  0  0  0  0  0
   58.4465   28.1157   46.6694 H   0  0  0  0  0  0  0  0  0  0  0  0
   56.5756   27.8461   45.0491 H   0  0  0  0  0  0  0  0  0  0  0  0
  1  2  1  0
  2  3  2  0
  3  4  1  0
  4  5  2  0
  5  6  1  0
  6  7  2  0
  7  8  1  0
  8  9  1  0
  9 10  1  0
 10 11  1  0
 11 12  1  0
 12 13  2  0
 13 14  1  0
 14 15  2  0
 15 16  1  0
 16 17  1  0
  8 18  2  0
 18 19  1  0
 18 20  1  0
  5 21  1  0
 21 22  2  0
 22  2  1  0
 20  6  1  0
 16 12  1  0
  1 23  1  0
  1 24  1  0
  1 25  1  0
  3 26  1  0
  4 27  1  0
  7 28  1  0
  9 29  1  0
  9 30  1  0
 10 31  1  0
 11 32  1  0
 11 33  1  0
 13 34  1  0
 14 35  1  0
 15 36  1  0
 17 37  1  0
 17 38  1  0
 17 39  1  0
 19 40  1  0
 19 41  1  0
 19 42  1  0
 21 43  1  0
 22 44  1  0
M  CHG  1   7   1
M  END
>  <UniqueID>  (12) 
12

>  <SMILES>  (12) 
Cc1ccc(-c2[nH+]c(CNCc3cccn3C)c(C)o2)cc1

>  <Energy>  (12) 
96.0505202954307

>  <Genealogy>  (12) 
Cc1ccc(-c2[nH+]c(CNCc3cccn3C)c(C)o2)cc1 (protonated)
Cc1ccc(-c2[nH+]c(CNCc3cccn3C)c(C)o2)cc1 (3D coordinates assigned)
Cc1ccc(-c2[nH+]c(CNCc3cccn3C)c(C)o2)cc1 (optimized conformer: 96.0505202954307 kcal/mol)

>  <smiles>  (12) 
Cc1ccc(-c2nc(CNCc3cccn3C)c(C)o2)cc1

>  <score_type>  (12) 
oracle

>  <origin>  (12) 
adg

>  <m_score__min__energy>  (12) 
-5.2300000000000004

>  <m_primary>  (12) 
energy

$$$$
12:0
     RDKit          3D

 36 38  0  0  0  0  0  0  0  0999 V2000
   63.2630   33.8580   48.5080 C   0  0  0  0  0  0  0  0  0  0  0  0
   61.8600   33.3230   48.7830 C   0  0  0  0  0  0  0  0  0  0  0  0
   60.8280   34.2450   48.2670 N   0  0  0  0  0  0  0  0  0  0  0  0
   59.5160   34.1200   48.9430 C   0  0  0  0  0  0  0  0  0  0  0  0
   59.4090   32.9450   49.9310 C   0  0  0  0  0  0  0  0  0  0  0  0
   60.6750   34.2350   46.5150 S   0  0  0  0  0  0  0  0  0  0  0  0
   60.3840   35.6390   46.0620 O   0  0  0  0  0  0  0  0  0  0  0  0
   61.9750   33.8420   45.8750 O   0  0  0  0  0  0  0  0  0  0  0  0
   59.3660   33.1870   45.9290 C   0  0  0  0  0  0  0  0  0  0  0  0
   58.4150   33.7490   45.0280 C   0  0  0  0  0  0  0  0  0  0  0  0
   57.3430   32.9870   44.5160 C   0  0  0  0  0  0  0  0  0  0  0  0
   57.2370   31.6580   44.9100 C   0  0  0  0  0  0  0  0  0  0  0  0
   58.1530   31.1250   45.7680 C   0  0  0  0  0  0  0  0  0  0  0  0
   57.8740   29.8220   46.0240 C   0  0  0  0  0  0  0  0  0  0  0  0
   58.6800   29.0720   46.8770 C   0  0  0  0  0  0  0  0  0  0  0  0
   59.7920   29.7190   47.4580 C   0  0  0  0  0  0  0  0  0  0  0  0
   60.0700   31.0840   47.1790 C   0  0  0  0  0  0  0  0  0  0  0  0
   59.2290   31.8190   46.3080 C   0  0  0  0  0  0  0  0  0  0  0  0
   56.6730   29.5340   45.2490 C   0  0  0  0  0  0  0  0  0  0  0  0
   56.0770   28.4250   45.2070 O   0  0  0  0  0  0  0  0  0  0  0  0
   56.2450   30.6990   44.5250 N   0  0  0  0  0  0  0  0  0  0  0  0
   63.7746   34.0531   49.4621 H   0  0  0  0  0  0  0  0  0  0  0  0
   63.8327   33.1140   47.9319 H   0  0  0  0  0  0  0  0  0  0  0  0
   63.1927   34.7924   47.9319 H   0  0  0  0  0  0  0  0  0  0  0  0
   61.7459   32.3453   48.2921 H   0  0  0  0  0  0  0  0  0  0  0  0
   61.7300   33.2273   49.8711 H   0  0  0  0  0  0  0  0  0  0  0  0
   59.3262   35.0513   49.4968 H   0  0  0  0  0  0  0  0  0  0  0  0
   58.7767   33.9277   48.1515 H   0  0  0  0  0  0  0  0  0  0  0  0
   59.4439   33.3281   50.9615 H   0  0  0  0  0  0  0  0  0  0  0  0
   58.4589   32.4149   49.7688 H   0  0  0  0  0  0  0  0  0  0  0  0
   60.2478   32.2520   49.7688 H   0  0  0  0  0  0  0  0  0  0  0  0
   58.5191   34.8012   44.7247 H   0  0  0  0  0  0  0  0  0  0  0  0
   56.6121   33.4320   43.8248 H   0  0  0  0  0  0  0  0  0  0  0  0
   58.4585   28.0158   47.0898 H   0  0  0  0  0  0  0  0  0  0  0  0
   60.4524   29.1586   48.1361 H   0  0  0  0  0  0  0  0  0  0  0  0
   60.9411   31.5716   47.6409 H   0  0  0  0  0  0  0  0  0  0  0  0
  1  2  1  0
  2  3  1  0
  3  4  1  0
  4  5  1  0
  3  6  1  0
  6  7  2  0
  6  8  2  0
  6  9  1  0
  9 10  2  0
 10 11  1  0
 11 12  2  0
 12 13  1  0
 13 14  2  0
 14 15  1  0
 15 16  2  0
 16 17  1  0
 17 18  2  0
 14 19  1  0
 19 20  2  0
 19 21  1  0
 18  9  1  0
 21 12  1  0
 18 13  1  0
  1 22  1  0
  1 23  1  0
  1 24  1  0
  2 25  1  0
  2 26  1  0
  4 27  1  0
  4 28  1  0
  5 29  1  0
  5 30  1  0
  5 31  1  0
 10 32  1  0
 11 33  1  0
 15 34  1  0
 16 35  1  0
 17 36  1  0
M  CHG  1  21  -1
M  END
>  <UniqueID>  (13) 
13

>  <SMILES>  (13) 
CCN(CC)S(=O)(=O)c1ccc2c3c(cccc13)C(=O)[N-]2

>  <Energy>  (13) 
84.03702798438363

>  <Genealogy>  (13) 
CCN(CC)S(=O)(=O)c1ccc2c3c(cccc13)C(=O)[N-]2 (protonated)
CCN(CC)S(=O)(=O)c1ccc2c3c(cccc13)C(=O)[N-]2 (3D coordinates assigned)
CCN(CC)S(=O)(=O)c1ccc2c3c(cccc13)C(=O)[N-]2 (nonaromatic ring conformer: 84.03702798438363 kcal/mol)

>  <smiles>  (13) 
CCN(CC)S(=O)(=O)c1ccc2c3c(cccc13)C(=O)N2

>  <score_type>  (13) 
oracle

>  <origin>  (13) 
adg

>  <m_score__min__energy>  (13) 
-8.6799999999999997

>  <m_primary>  (13) 
energy

$$$$
13:0
     RDKit          3D

 61 63  0  0  0  0  0  0  0  0999 V2000
   60.5600   33.2960   49.8160 C   0  0  0  0  0  0  0  0  0  0  0  0
   61.3320   34.2230   48.8690 C   0  0  0  0  0  0  0  0  0  0  0  0
   61.2420   33.8440   47.4360 N   0  0  0  0  0  0  0  0  0  0  0  0
   62.5420   33.6480   46.7600 C   0  0  0  0  0  0  0  0  0  0  0  0
   63.3900   32.5890   47.4610 C   0  0  0  0  0  0  0  0  0  0  0  0
   60.3260   34.7190   46.6690 C   0  0  0  0  0  0  0  0  0  0  0  0
   58.8710   34.5020   47.1130 C   0  0  0  0  0  0  0  0  0  0  0  0
   58.4200   33.0230   47.1200 C   0  0  0  0  0  0  0  0  0  0  0  0
   59.5200   32.0610   46.8960 N   0  0  0  0  0  0  0  0  0  0  0  0
   59.0450   30.7510   46.4650 C   0  0  0  0  0  0  0  0  0  0  0  0
   58.3260   30.6230   45.2410 C   0  0  0  0  0  0  0  0  0  0  0  0
   58.0730   31.7400   44.4020 C   0  0  0  0  0  0  0  0  0  0  0  0
   57.4090   31.5950   43.1870 C   0  0  0  0  0  0  0  0  0  0  0  0
   56.9900   30.3410   42.7670 C   0  0  0  0  0  0  0  0  0  0  0  0
   57.2050   29.2290   43.5750 C   0  0  0  0  0  0  0  0  0  0  0  0
   57.8390   29.3470   44.8390 C   0  0  0  0  0  0  0  0  0  0  0  0
   57.9950   28.2530   45.6620 N   0  0  0  0  0  0  0  0  0  0  0  0
   57.2080   27.0240   45.4090 C   0  0  0  0  0  0  0  0  0  0  0  0
   58.8450   28.3150   46.7450 C   0  0  0  0  0  0  0  0  0  0  0  0
   59.2550   27.1360   47.4130 C   0  0  0  0  0  0  0  0  0  0  0  0
   60.0260   27.1870   48.5670 C   0  0  0  0  0  0  0  0  0  0  0  0
   60.4200   28.4120   49.1040 C   0  0  0  0  0  0  0  0  0  0  0  0
   61.1730   28.4670   50.3410 N   0  0  0  0  0  0  0  0  0  0  0  0
   61.2720   27.2840   51.2060 C   0  0  0  0  0  0  0  0  0  0  0  0
   61.8820   29.6930   50.7270 C   0  0  0  0  0  0  0  0  0  0  0  0
   60.0810   29.5890   48.4170 C   0  0  0  0  0  0  0  0  0  0  0  0
   59.3360   29.5670   47.2080 C   0  0  0  0  0  0  0  0  0  0  0  0
   60.7852   33.5665   50.8582 H   0  0  0  0  0  0  0  0  0  0  0  0
   59.4804   33.4031   49.6345 H   0  0  0  0  0  0  0  0  0  0  0  0
   60.8607   32.2536   49.6345 H   0  0  0  0  0  0  0  0  0  0  0  0
   60.9321   35.2415   48.9819 H   0  0  0  0  0  0  0  0  0  0  0  0
   62.3930   34.1472   49.1491 H   0  0  0  0  0  0  0  0  0  0  0  0
   62.3599   33.3296   45.7230 H   0  0  0  0  0  0  0  0  0  0  0  0
   63.0906   34.6009   46.7896 H   0  0  0  0  0  0  0  0  0  0  0  0
   63.2960   32.7063   48.5507 H   0  0  0  0  0  0  0  0  0  0  0  0
   63.0413   31.5875   47.1686 H   0  0  0  0  0  0  0  0  0  0  0  0
   64.4435   32.7103   47.1686 H   0  0  0  0  0  0  0  0  0  0  0  0
   60.6029   35.7698   46.8395 H   0  0  0  0  0  0  0  0  0  0  0  0
   60.4111   34.4711   45.6007 H   0  0  0  0  0  0  0  0  0  0  0  0
   58.7590   34.9008   48.1320 H   0  0  0  0  0  0  0  0  0  0  0  0
   58.2375   35.0203   46.3781 H   0  0  0  0  0  0  0  0  0  0  0  0
   57.9624   32.8049   48.0962 H   0  0  0  0  0  0  0  0  0  0  0  0
   57.7133   32.9004   46.2860 H   0  0  0  0  0  0  0  0  0  0  0  0
   60.1500   32.0390   47.7200 H   0  0  0  0  0  0  0  0  0  0  0  0
   60.1620   32.4430   46.1670 H   0  0  0  0  0  0  0  0  0  0  0  0
   58.4080   32.7390   44.7180 H   0  0  0  0  0  0  0  0  0  0  0  0
   57.2161   32.4769   42.5585 H   0  0  0  0  0  0  0  0  0  0  0  0
   56.4878   30.2259   41.7951 H   0  0  0  0  0  0  0  0  0  0  0  0
   56.8769   28.2384   43.2270 H   0  0  0  0  0  0  0  0  0  0  0  0
   56.9176   26.5706   46.3682 H   0  0  0  0  0  0  0  0  0  0  0  0
   56.3046   27.2787   44.8354 H   0  0  0  0  0  0  0  0  0  0  0  0
   57.8173   26.3100   44.8354 H   0  0  0  0  0  0  0  0  0  0  0  0
   58.9562   26.1575   47.0089 H   0  0  0  0  0  0  0  0  0  0  0  0
   60.3286   26.2524   49.0619 H   0  0  0  0  0  0  0  0  0  0  0  0
   61.2458   27.5973   52.2601 H   0  0  0  0  0  0  0  0  0  0  0  0
   60.4272   26.6095   51.0028 H   0  0  0  0  0  0  0  0  0  0  0  0
   62.2172   26.7593   51.0028 H   0  0  0  0  0  0  0  0  0  0  0  0
   61.9226   29.7632   51.8240 H   0  0  0  0  0  0  0  0  0  0  0  0
   62.9049   29.6677   50.3231 H   0  0  0  0  0  0  0  0  0  0  0  0
   61.3499   30.5669   50.3231 H   0  0  0  0  0  0  0  0  0  0  0  0
   60.4023   30.5575   48.8278 H   0  0  0  0  0  0  0  0  0  0  0  0
  1  2  1  0
  2  3  1  0
  3  4  1  0
  4  5  1  0
  3  6  1  0
  6  7  1  0
  7  8  1  0
  8  9  1  0
  9 10  1  0
 10 11  2  0
 11 12  1  0
 12 13  2  0
 13 14  1  0
 14 15  2  0
 15 16  1  0
 16 17  2  0
 17 18  1  0
 17 19  1  0
 19 20  2  0
 20 21  1  0
 21 22  2  0
 22 23  1  0
 23 24  1  0
 23 25  1  0
 22 26  1  0
 26 27  2  0
 27 10  1  0
 16 11  1  0
 27 19  1  0
  1 28  1  0
  1 29  1  0
  1 30  1  0
  2 31  1  0
  2 32  1  0
  4 33  1  0
  4 34  1  0
  5 35  1  0
  5 36  1  0
  5 37  1  0
  6 38  1  0
  6 39  1  0
  7 40  1  0
  7 41  1  0
  8 42  1  0
  8 43  1  0
  9 44  1  0
  9 45  1  0
 12 46  1  0
 13 47  1  0
 14 48  1  0
 15 49  1  0
 18 50  1  0
 18 51  1  0
 18 52  1  0
 20 53  1  0
 21 54  1  0
 24 55  1  0
 24 56  1  0
 24 57  1  0
 25 58  1  0
 25 59  1  0
 25 60  1  0
 26 61  1  0
M  CHG  2   9   1  17   1
M  END
>  <UniqueID>  (14) 
14

>  <SMILES>  (14) 
CCN(CC)CCC[NH2+]c1c2ccccc2[n+](C)c2ccc(N(C)C)cc12

>  <Energy>  (14) 
93.52833058249203

>  <Genealogy>  (14) 
CCN(CC)CCC[NH2+]c1c2ccccc2[n+](C)c2ccc(N(C)C)cc12 (protonated)
CCN(CC)CCC[NH2+]c1c2ccccc2[n+](C)c2ccc(N(C)C)cc12 (3D coordinates assigned)
CCN(CC)CCC[NH2+]c1c2ccccc2[n+](C)c2ccc(N(C)C)cc12 (optimized conformer: 93.52833058249203 kcal/mol)

>  <smiles>  (14) 
CCN(CC)CCCNc1c2ccccc2[n+](C)c2ccc(N(C)C)cc12

>  <score_type>  (14) 
oracle

>  <origin>  (14) 
adg

>  <m_score__min__energy>  (14) 
-4.2199999999999998

>  <m_primary>  (14) 
energy

$$$$
14:0
     RDKit          3D

 40 42  0  0  0  0  0  0  0  0999 V2000
   64.2580   31.5700   50.3010 C   0  0  0  0  0  0  0  0  0  0  0  0
   63.9930   32.8520   49.5000 C   0  0  2  0  0  0  0  0  0  0  0  0
   62.8250   33.6450   50.1290 C   0  0  0  0  0  0  0  0  0  0  0  0
   62.1690   34.5720   49.0940 C   0  0  0  0  0  0  0  0  0  0  0  0
   61.6150   33.8320   47.9260 N   0  0  2  0  0  0  0  0  0  0  0  0
   59.8790   33.6470   48.0550 S   0  0  0  0  0  0  0  0  0  0  0  0
   59.2660   34.9530   48.4830 O   0  0  0  0  0  0  0  0  0  0  0  0
   59.5650   32.6200   49.1060 O   0  0  0  0  0  0  0  0  0  0  0  0
   59.1610   33.1460   46.5230 C   0  0  0  0  0  0  0  0  0  0  0  0
   59.4300   33.8770   45.3370 C   0  0  0  0  0  0  0  0  0  0  0  0
   58.8870   33.4730   44.1050 C   0  0  0  0  0  0  0  0  0  0  0  0
   58.0810   32.3360   44.0970 C   0  0  0  0  0  0  0  0  0  0  0  0
   57.8060   31.6380   45.2400 C   0  0  0  0  0  0  0  0  0  0  0  0
   58.3260   32.0090   46.4760 C   0  0  0  0  0  0  0  0  0  0  0  0
   57.0110   30.6330   44.9540 O   0  0  0  0  0  0  0  0  0  0  0  0
   56.7960   30.7110   43.6520 C   0  0  0  0  0  0  0  0  0  0  0  0
   56.0540   29.9080   43.0250 O   0  0  0  0  0  0  0  0  0  0  0  0
   57.4490   31.7450   43.0670 N   0  0  0  0  0  0  0  0  0  0  0  0
   57.3890   32.1830   41.6750 C   0  0  0  0  0  0  0  0  0  0  0  0
   62.2490   32.5130   47.6810 C   0  0  0  0  0  0  0  0  0  0  0  0
   63.7470   32.5400   48.0030 C   0  0  0  0  0  0  0  0  0  0  0  0
   64.2117   31.7938   51.3770 H   0  0  0  0  0  0  0  0  0  0  0  0
   63.4966   30.8169   50.0501 H   0  0  0  0  0  0  0  0  0  0  0  0
   65.2557   31.1805   50.0501 H   0  0  0  0  0  0  0  0  0  0  0  0
   64.8909   33.4858   49.5456 H   0  0  0  0  0  0  0  0  0  0  0  0
   63.2094   34.2512   50.9625 H   0  0  0  0  0  0  0  0  0  0  0  0
   62.0697   32.9307   50.4886 H   0  0  0  0  0  0  0  0  0  0  0  0
   62.9243   35.2852   48.7322 H   0  0  0  0  0  0  0  0  0  0  0  0
   61.3308   35.0826   49.5907 H   0  0  0  0  0  0  0  0  0  0  0  0
   61.7800   34.4220   47.0750 H   0  0  0  0  0  0  0  0  0  0  0  0
   60.0707   34.7700   45.3822 H   0  0  0  0  0  0  0  0  0  0  0  0
   59.0908   34.0338   43.1809 H   0  0  0  0  0  0  0  0  0  0  0  0
   58.0942   31.4357   47.3857 H   0  0  0  0  0  0  0  0  0  0  0  0
   57.2398   33.2723   41.6395 H   0  0  0  0  0  0  0  0  0  0  0  0
   58.3308   31.9252   41.1686 H   0  0  0  0  0  0  0  0  0  0  0  0
   56.5512   31.6814   41.1686 H   0  0  0  0  0  0  0  0  0  0  0  0
   62.1159   32.2437   46.6228 H   0  0  0  0  0  0  0  0  0  0  0  0
   61.7687   31.7725   48.3375 H   0  0  0  0  0  0  0  0  0  0  0  0
   64.2316   33.3148   47.3907 H   0  0  0  0  0  0  0  0  0  0  0  0
   64.1689   31.5489   47.7800 H   0  0  0  0  0  0  0  0  0  0  0  0
  1  2  1  0
  2  3  1  0
  3  4  1  0
  4  5  1  0
  5  6  1  0
  6  7  2  0
  6  8  2  0
  6  9  1  0
  9 10  2  0
 10 11  1  0
 11 12  2  0
 12 13  1  0
 13 14  2  0
 13 15  1  0
 15 16  1  0
 16 17  2  0
 16 18  1  0
 18 19  1  0
  5 20  1  0
 20 21  1  0
 21  2  1  0
 14  9  1  0
 18 12  1  0
  1 22  1  0
  1 23  1  0
  1 24  1  0
  2 25  1  1
  3 26  1  0
  3 27  1  0
  4 28  1  0
  4 29  1  0
  5 30  1  1
 10 31  1  0
 11 32  1  0
 14 33  1  0
 19 34  1  0
 19 35  1  0
 19 36  1  0
 20 37  1  0
 20 38  1  0
 21 39  1  0
 21 40  1  0
M  CHG  1   5   1
M  END
>  <UniqueID>  (15) 
15

>  <SMILES>  (15) 
CC1CC[NH+](S(=O)(=O)c2ccc3c(c2)oc(=O)n3C)CC1

>  <Energy>  (15) 
84.97468289728735

>  <Genealogy>  (15) 
CC1CC[NH+](S(=O)(=O)c2ccc3c(c2)oc(=O)n3C)CC1 (protonated)
CC1CC[NH+](S(=O)(=O)c2ccc3c(c2)oc(=O)n3C)CC1 (3D coordinates assigned)
CC1CC[NH+](S(=O)(=O)c2ccc3c(c2)oc(=O)n3C)CC1 (nonaromatic ring conformer: 84.97468289728735 kcal/mol)

>  <smiles>  (15) 
CC1CCN(S(=O)(=O)c2ccc3c(c2)oc(=O)n3C)CC1

>  <score_type>  (15) 
oracle

>  <origin>  (15) 
adg

>  <m_score__min__energy>  (15) 
-6.9800000000000004

>  <m_primary>  (15) 
energy

$$$$
15:0
     RDKit          3D

 50 52  0  0  0  0  0  0  0  0999 V2000
   57.0080   31.9940   52.0120 C   0  0  0  0  0  0  0  0  0  0  0  0
   57.8540   30.7330   52.1380 C   0  0  0  0  0  0  0  0  0  0  0  0
   57.9300   30.0510   50.8400 N   0  0  0  0  0  0  0  0  0  0  0  0
   59.3150   29.7170   50.4810 C   0  0  0  0  0  0  0  0  0  0  0  0
   59.7320   30.4070   49.1770 C   0  0  0  0  0  0  0  0  0  0  0  0
   58.6080   31.1130   48.5570 N   0  0  0  0  0  0  0  0  0  0  0  0
   58.5800   31.4200   47.1520 C   0  0  0  0  0  0  0  0  0  0  0  0
   58.9120   32.7110   46.7060 C   0  0  0  0  0  0  0  0  0  0  0  0
   59.4140   33.6810   47.6020 C   0  0  0  0  0  0  0  0  0  0  0  0
   59.7650   34.9510   47.1520 C   0  0  0  0  0  0  0  0  0  0  0  0
   59.6400   35.2720   45.8050 C   0  0  0  0  0  0  0  0  0  0  0  0
   59.1420   34.3330   44.9030 C   0  0  0  0  0  0  0  0  0  0  0  0
   58.7390   33.0430   45.3350 C   0  0  0  0  0  0  0  0  0  0  0  0
   58.1980   32.1180   44.4630 N   0  0  0  0  0  0  0  0  0  0  0  0
   57.7380   32.5440   43.1220 C   0  0  0  0  0  0  0  0  0  0  0  0
   58.0790   30.7950   44.8470 C   0  0  0  0  0  0  0  0  0  0  0  0
   57.8210   29.7660   43.9080 C   0  0  0  0  0  0  0  0  0  0  0  0
   57.6850   28.4400   44.3100 C   0  0  0  0  0  0  0  0  0  0  0  0
   57.8140   28.0860   45.6530 C   0  0  0  0  0  0  0  0  0  0  0  0
   57.7020   26.7040   46.0330 N   0  0  0  0  0  0  0  0  0  0  0  0
   56.4570   26.0520   46.3320 C   0  0  0  0  0  0  0  0  0  0  0  0
   56.4590   24.6680   46.8930 C   0  0  0  0  0  0  0  0  0  0  0  0
   55.3590   26.6020   46.0500 O   0  0  0  0  0  0  0  0  0  0  0  0
   58.1320   29.0780   46.5910 C   0  0  0  0  0  0  0  0  0  0  0  0
   58.2490   30.4310   46.2080 C   0  0  0  0  0  0  0  0  0  0  0  0
   56.7566   32.3687   53.0152 H   0  0  0  0  0  0  0  0  0  0  0  0
   57.5741   32.7622   51.4649 H   0  0  0  0  0  0  0  0  0  0  0  0
   56.0825   31.7615   51.4649 H   0  0  0  0  0  0  0  0  0  0  0  0
   58.8677   31.0052   52.4670 H   0  0  0  0  0  0  0  0  0  0  0  0
   57.3925   30.0592   52.8749 H   0  0  0  0  0  0  0  0  0  0  0  0
   57.3980   29.1530   50.9230 H   0  0  0  0  0  0  0  0  0  0  0  0
   59.9843   30.0446   51.2901 H   0  0  0  0  0  0  0  0  0  0  0  0
   59.3844   28.6287   50.3366 H   0  0  0  0  0  0  0  0  0  0  0  0
   60.5311   31.1306   49.3958 H   0  0  0  0  0  0  0  0  0  0  0  0
   60.0821   29.6350   48.4760 H   0  0  0  0  0  0  0  0  0  0  0  0
   57.7700   31.3320   49.1400 H   0  0  0  0  0  0  0  0  0  0  0  0
   59.5288   33.4302   48.6669 H   0  0  0  0  0  0  0  0  0  0  0  0
   60.1416   35.7012   47.8629 H   0  0  0  0  0  0  0  0  0  0  0  0
   59.9351   36.2704   45.4498 H   0  0  0  0  0  0  0  0  0  0  0  0
   59.0601   34.5967   43.8382 H   0  0  0  0  0  0  0  0  0  0  0  0
   56.9348   33.2879   43.2291 H   0  0  0  0  0  0  0  0  0  0  0  0
   58.5790   32.9893   42.5702 H   0  0  0  0  0  0  0  0  0  0  0  0
   57.3584   31.6714   42.5702 H   0  0  0  0  0  0  0  0  0  0  0  0
   57.7264   30.0193   42.8418 H   0  0  0  0  0  0  0  0  0  0  0  0
   57.4735   27.6632   43.5605 H   0  0  0  0  0  0  0  0  0  0  0  0
   58.5640   26.1140   46.0060 H   0  0  0  0  0  0  0  0  0  0  0  0
   56.4589   24.7178   47.9919 H   0  0  0  0  0  0  0  0  0  0  0  0
   55.5616   24.1321   46.5502 H   0  0  0  0  0  0  0  0  0  0  0  0
   57.3579   24.1347   46.5502 H   0  0  0  0  0  0  0  0  0  0  0  0
   58.2929   28.7972   47.6423 H   0  0  0  0  0  0  0  0  0  0  0  0
  1  2  1  0
  2  3  1  0
  3  4  1  0
  4  5  1  0
  5  6  1  0
  6  7  1  0
  7  8  2  0
  8  9  1  0
  9 10  2  0
 10 11  1  0
 11 12  2  0
 12 13  1  0
 13 14  2  0
 14 15  1  0
 14 16  1  0
 16 17  2  0
 17 18  1  0
 18 19  2  0
 19 20  1  0
 20 21  1  0
 21 22  1  0
 21 23  2  0
 19 24  1  0
 24 25  2  0
 25  7  1  0
 13  8  1  0
 25 16  1  0
  1 26  1  0
  1 27  1  0
  1 28  1  0
  2 29  1  0
  2 30  1  0
  3 31  1  0
  4 32  1  0
  4 33  1  0
  5 34  1  0
  5 35  1  0
  6 36  1  0
  9 37  1  0
 10 38  1  0
 11 39  1  0
 12 40  1  0
 15 41  1  0
 15 42  1  0
 15 43  1  0
 17 44  1  0
 18 45  1  0
 20 46  1  0
 22 47  1  0
 22 48  1  0
 22 49  1  0
 24 50  1  0
M  CHG  1  14   1
M  END
>  <UniqueID>  (16) 
16

>  <SMILES>  (16) 
CCNCCNc1c2ccccc2[n+](C)c2ccc(NC(C)=O)cc12

>  <Energy>  (16) 
73.10788417272958

>  <Genealogy>  (16) 
CCNCCNc1c2ccccc2[n+](C)c2ccc(NC(C)=O)cc12 (3D coordinates assigned)
CCNCCNc1c2ccccc2[n+](C)c2ccc(NC(C)=O)cc12 (optimized conformer: 73.10788417272958 kcal/mol)

>  <smiles>  (16) 
CCNCCNc1c2ccccc2[n+](C)c2ccc(NC(C)=O)cc12

>  <score_type>  (16) 
oracle

>  <origin>  (16) 
adg

>  <m_score__min__energy>  (16) 
-7.0599999999999996

>  <m_primary>  (16) 
energy

$$$$
16:0
     RDKit          3D

 96 98  0  0  0  0  0  0  0  0999 V2000
   59.2430   32.6070   53.3230 C   0  0  0  0  0  0  0  0  0  0  0  0
   58.3420   33.3650   52.3420 C   0  0  0  0  0  0  0  0  0  0  0  0
   57.5100   32.3990   51.5580 N   0  0  0  0  0  0  0  0  0  0  0  0
   57.4320   31.0910   52.2570 C   0  0  0  0  0  0  0  0  0  0  0  0
   56.0000   30.5640   52.3000 C   0  0  0  0  0  0  0  0  0  0  0  0
   58.0730   32.1890   50.2050 C   0  0  0  0  0  0  0  0  0  0  0  0
   58.7810   30.8290   50.1100 C   0  0  0  0  0  0  0  0  0  0  0  0
   59.4630   30.6710   48.8750 O   0  0  0  0  0  0  0  0  0  0  0  0
   58.9350   29.5940   48.1080 C   0  0  0  0  0  0  0  0  0  0  0  0
   59.6240   29.4560   46.7110 C   0  0  2  0  0  0  0  0  0  0  0  0
   60.1410   27.9960   46.5660 C   0  0  0  0  0  0  0  0  0  0  0  0
   60.8250   30.4400   46.6200 C   0  0  0  0  0  0  0  0  0  0  0  0
   61.5670   30.4380   47.8120 O   0  0  0  0  0  0  0  0  0  0  0  0
   58.5000   29.7680   45.6380 C   0  0  0  0  0  0  0  0  0  0  0  0
   57.7490   31.0510   45.7200 N   0  0  0  0  0  0  0  0  0  0  0  0
   57.1470   31.5050   44.4570 C   0  0  0  0  0  0  0  0  0  0  0  0
   58.3870   32.1250   46.5150 C   0  0  0  0  0  0  0  0  0  0  0  0
   59.1070   33.1530   45.6140 C   0  0  0  0  0  0  0  0  0  0  0  0
   59.9510   34.1450   46.3180 N   0  0  0  0  0  0  0  0  0  0  0  0
   59.6620   35.5350   45.9280 C   0  0  0  0  0  0  0  0  0  0  0  0
   61.3880   33.7810   46.3340 C   0  0  0  0  0  0  0  0  0  0  0  0
   61.8420   33.3630   47.7460 C   0  0  0  0  0  0  0  0  0  0  0  0
   60.7360   33.1060   48.6870 N   0  0  0  0  0  0  0  0  0  0  0  0
   60.8690   33.8310   49.9570 C   0  0  0  0  0  0  0  0  0  0  0  0
   61.7130   33.0230   50.9370 C   0  0  0  0  0  0  0  0  0  0  0  0
   61.9470   31.6600   50.4450 N   0  0  0  0  0  0  0  0  0  0  0  0
   63.0050   30.8140   50.9290 C   0  0  0  0  0  0  0  0  0  0  0  0
   62.7230   29.5500   51.4860 C   0  0  0  0  0  0  0  0  0  0  0  0
   61.3990   29.0820   51.6270 C   0  0  0  0  0  0  0  0  0  0  0  0
   61.1470   27.8120   52.1240 C   0  0  0  0  0  0  0  0  0  0  0  0
   62.2010   26.9760   52.4680 C   0  0  0  0  0  0  0  0  0  0  0  0
   63.5070   27.4200   52.3680 C   0  0  0  0  0  0  0  0  0  0  0  0
   63.7910   28.7490   51.9470 C   0  0  0  0  0  0  0  0  0  0  0  0
   65.0680   29.2540   51.9900 N   0  0  0  0  0  0  0  0  0  0  0  0
   66.1110   28.5660   52.7810 C   0  0  0  0  0  0  0  0  0  0  0  0
   65.3750   30.4370   51.3380 C   0  0  0  0  0  0  0  0  0  0  0  0
   66.7190   30.8710   51.1740 C   0  0  0  0  0  0  0  0  0  0  0  0
   67.0080   32.0770   50.5340 C   0  0  0  0  0  0  0  0  0  0  0  0
   65.9850   32.8760   50.0360 C   0  0  0  0  0  0  0  0  0  0  0  0
   64.6580   32.4750   50.2000 C   0  0  0  0  0  0  0  0  0  0  0  0
   64.3420   31.2530   50.8310 C   0  0  0  0  0  0  0  0  0  0  0  0
   58.9506   32.8530   54.3545 H   0  0  0  0  0  0  0  0  0  0  0  0
   59.1344   31.5247   53.1593 H   0  0  0  0  0  0  0  0  0  0  0  0
   60.2908   32.8992   53.1593 H   0  0  0  0  0  0  0  0  0  0  0  0
   57.6815   34.0423   52.9033 H   0  0  0  0  0  0  0  0  0  0  0  0
   58.9702   33.9445   51.6495 H   0  0  0  0  0  0  0  0  0  0  0  0
   58.0646   30.3640   51.7266 H   0  0  0  0  0  0  0  0  0  0  0  0
   57.7793   31.2312   53.2913 H   0  0  0  0  0  0  0  0  0  0  0  0
   55.6835   30.4475   53.3470 H   0  0  0  0  0  0  0  0  0  0  0  0
   55.3321   31.2752   51.7920 H   0  0  0  0  0  0  0  0  0  0  0  0
   55.9525   29.5895   51.7920 H   0  0  0  0  0  0  0  0  0  0  0  0
   57.2582   32.2230   49.4668 H   0  0  0  0  0  0  0  0  0  0  0  0
   58.8079   32.9823   50.0035 H   0  0  0  0  0  0  0  0  0  0  0  0
   59.5090   30.7492   50.9307 H   0  0  0  0  0  0  0  0  0  0  0  0
   58.0161   30.0415   50.1796 H   0  0  0  0  0  0  0  0  0  0  0  0
   59.0818   28.6582   48.6672 H   0  0  0  0  0  0  0  0  0  0  0  0
   57.8685   29.8001   47.9345 H   0  0  0  0  0  0  0  0  0  0  0  0
   60.2951   27.5608   47.5644 H   0  0  0  0  0  0  0  0  0  0  0  0
   59.4001   27.3976   46.0155 H   0  0  0  0  0  0  0  0  0  0  0  0
   61.0934   27.9972   46.0155 H   0  0  0  0  0  0  0  0  0  0  0  0
   61.4780   30.1351   45.7890 H   0  0  0  0  0  0  0  0  0  0  0  0
   60.4354   31.4547   46.4508 H   0  0  0  0  0  0  0  0  0  0  0  0
   61.0350   30.9700   48.4590 H   0  0  0  0  0  0  0  0  0  0  0  0
   58.9835   29.7420   44.6503 H   0  0  0  0  0  0  0  0  0  0  0  0
   57.7330   29.0047   45.8354 H   0  0  0  0  0  0  0  0  0  0  0  0
   56.2860   32.1543   44.6738 H   0  0  0  0  0  0  0  0  0  0  0  0
   57.8932   32.0672   43.8764 H   0  0  0  0  0  0  0  0  0  0  0  0
   56.8116   30.6330   43.8764 H   0  0  0  0  0  0  0  0  0  0  0  0
   57.6127   32.6438   47.0992 H   0  0  0  0  0  0  0  0  0  0  0  0
   59.1364   31.6637   47.1750 H   0  0  0  0  0  0  0  0  0  0  0  0
   59.7499   32.5978   44.9151 H   0  0  0  0  0  0  0  0  0  0  0  0
   58.3101   33.7318   45.1241 H   0  0  0  0  0  0  0  0  0  0  0  0
   59.5341   36.1501   46.8309 H   0  0  0  0  0  0  0  0  0  0  0  0
   60.4973   35.9295   45.3309 H   0  0  0  0  0  0  0  0  0  0  0  0
   58.7386   35.5639   45.3309 H   0  0  0  0  0  0  0  0  0  0  0  0
   61.5534   32.9427   45.6412 H   0  0  0  0  0  0  0  0  0  0  0  0
   61.9732   34.6602   46.0263 H   0  0  0  0  0  0  0  0  0  0  0  0
   62.4400   32.4440   47.6578 H   0  0  0  0  0  0  0  0  0  0  0  0
   62.4150   34.2077   48.1560 H   0  0  0  0  0  0  0  0  0  0  0  0
   60.6100   32.0800   48.8710 H   0  0  0  0  0  0  0  0  0  0  0  0
   61.3542   34.8009   49.7729 H   0  0  0  0  0  0  0  0  0  0  0  0
   59.8691   33.9879   50.3879 H   0  0  0  0  0  0  0  0  0  0  0  0
   62.6820   33.5254   51.0737 H   0  0  0  0  0  0  0  0  0  0  0  0
   61.1690   32.9581   51.8908 H   0  0  0  0  0  0  0  0  0  0  0  0
   61.3100   31.2900   49.7020 H   0  0  0  0  0  0  0  0  0  0  0  0
   60.5586   29.7310   51.3398 H   0  0  0  0  0  0  0  0  0  0  0  0
   60.1099   27.4662   52.2460 H   0  0  0  0  0  0  0  0  0  0  0  0
   61.9961   25.9549   52.8220 H   0  0  0  0  0  0  0  0  0  0  0  0
   64.3343   26.7389   52.6164 H   0  0  0  0  0  0  0  0  0  0  0  0
   65.9065   28.7009   53.8534 H   0  0  0  0  0  0  0  0  0  0  0  0
   66.1066   27.4930   52.5390 H   0  0  0  0  0  0  0  0  0  0  0  0
   67.0957   28.9924   52.5390 H   0  0  0  0  0  0  0  0  0  0  0  0
   67.5413   30.2484   51.5564 H   0  0  0  0  0  0  0  0  0  0  0  0
   68.0542   32.3982   50.4226 H   0  0  0  0  0  0  0  0  0  0  0  0
   66.2195   33.8169   49.5167 H   0  0  0  0  0  0  0  0  0  0  0  0
   63.8471   33.1208   49.8321 H   0  0  0  0  0  0  0  0  0  0  0  0
  1  2  1  0
  2  3  1  0
  3  4  1  0
  4  5  1  0
  3  6  1  0
  6  7  1  0
  7  8  1  0
  8  9  1  0
 10  9  1  1
 10 11  1  0
 10 12  1  0
 12 13  1  0
 10 14  1  0
 14 15  1  0
 15 16  1  0
 15 17  1  0
 17 18  1  0
 18 19  1  0
 19 20  1  0
 19 21  1  0
 21 22  1  0
 22 23  1  0
 23 24  1  0
 24 25  1  0
 25 26  1  0
 26 27  1  0
 27 28  2  0
 28 29  1  0
 29 30  2  0
 30 31  1  0
 31 32  2  0
 32 33  1  0
 33 34  2  0
 34 35  1  0
 34 36  1  0
 36 37  2  0
 37 38  1  0
 38 39  2  0
 39 40  1  0
 40 41  2  0
 41 27  1  0
 33 28  1  0
 41 36  1  0
  1 42  1  0
  1 43  1  0
  1 44  1  0
  2 45  1  0
  2 46  1  0
  4 47  1  0
  4 48  1  0
  5 49  1  0
  5 50  1  0
  5 51  1  0
  6 52  1  0
  6 53  1  0
  7 54  1  0
  7 55  1  0
  9 56  1  0
  9 57  1  0
 11 58  1  0
 11 59  1  0
 11 60  1  0
 12 61  1  0
 12 62  1  0
 13 63  1  0
 14 64  1  0
 14 65  1  0
 16 66  1  0
 16 67  1  0
 16 68  1  0
 17 69  1  0
 17 70  1  0
 18 71  1  0
 18 72  1  0
 20 73  1  0
 20 74  1  0
 20 75  1  0
 21 76  1  0
 21 77  1  0
 22 78  1  0
 22 79  1  0
 23 80  1  0
 24 81  1  0
 24 82  1  0
 25 83  1  0
 25 84  1  0
 26 85  1  0
 29 86  1  0
 30 87  1  0
 31 88  1  0
 32 89  1  0
 35 90  1  0
 35 91  1  0
 35 92  1  0
 37 93  1  0
 38 94  1  0
 39 95  1  0
 40 96  1  0
M  CHG  1  34   1
M  END
>  <UniqueID>  (17) 
17

>  <SMILES>  (17) 
CCN(CC)CCOC[C@](C)(CO)CN(C)CCN(C)CCNCCNc1c2ccccc2[n+](C)c2ccccc12

>  <Energy>  (17) 
152.8275842804418

>  <Genealogy>  (17) 
CCN(CC)CCOC[C@](C)(CO)CN(C)CCN(C)CCNCCNc1c2ccccc2[n+](C)c2ccccc12 (chirality)
CCN(CC)CCOC[C@](C)(CO)CN(C)CCN(C)CCNCCNc1c2ccccc2[n+](C)c2ccccc12 (3D coordinates assigned)
CCN(CC)CCOC[C@](C)(CO)CN(C)CCN(C)CCNCCNc1c2ccccc2[n+](C)c2ccccc12 (optimized conformer: 152.8275842804418 kcal/mol)

>  <smiles>  (17) 
CCN(CC)CCOCC(C)(CO)CN(C)CCN(C)CCNCCNc1c2ccccc2[n+](C)c2ccccc12

>  <score_type>  (17) 
oracle

>  <origin>  (17) 
adg

>  <m_score__min__energy>  (17) 
-7.6799999999999997

>  <m_primary>  (17) 
energy

$$$$
17:0
     RDKit          3D

 53 56  0  0  0  0  0  0  0  0999 V2000
   54.5880   30.8120   51.9940 C   0  0  0  0  0  0  0  0  0  0  0  0
   55.5780   29.8160   52.5880 C   0  0  0  0  0  0  0  0  0  0  0  0
   56.7990   29.8460   51.8630 O   0  0  0  0  0  0  0  0  0  0  0  0
   57.3120   31.1630   51.7720 C   0  0  0  0  0  0  0  0  0  0  0  0
   58.3800   31.2320   50.6780 C   0  0  0  0  0  0  0  0  0  0  0  0
   59.6860   31.8310   51.2150 C   0  0  0  0  0  0  0  0  0  0  0  0
   60.8190   31.5040   50.3300 N   0  0  0  0  0  0  0  0  0  0  0  0
   60.3470   30.9330   49.0830 C   0  0  0  0  0  0  0  0  0  0  0  0
   60.3560   29.5160   48.8830 C   0  0  0  0  0  0  0  0  0  0  0  0
   60.7230   28.6150   49.9160 C   0  0  0  0  0  0  0  0  0  0  0  0
   60.7430   27.2380   49.6970 C   0  0  0  0  0  0  0  0  0  0  0  0
   60.4030   26.7190   48.4540 C   0  0  0  0  0  0  0  0  0  0  0  0
   60.0440   27.5740   47.4170 C   0  0  0  0  0  0  0  0  0  0  0  0
   60.0130   28.9780   47.6010 C   0  0  0  0  0  0  0  0  0  0  0  0
   59.6710   29.8160   46.5620 N   0  0  0  0  0  0  0  0  0  0  0  0
   59.8480   29.3580   45.1730 C   0  0  0  0  0  0  0  0  0  0  0  0
   59.3940   31.1270   46.8480 C   0  0  0  0  0  0  0  0  0  0  0  0
   58.8770   32.1350   46.0300 C   0  0  0  0  0  0  0  0  0  0  0  0
   58.0910   32.1340   44.8540 C   0  0  0  0  0  0  0  0  0  0  0  0
   57.1200   30.6140   44.1990 Br  0  0  0  0  0  0  0  0  0  0  0  0
   57.7760   33.3730   44.2710 C   0  0  0  0  0  0  0  0  0  0  0  0
   58.1630   34.5760   44.8850 C   0  0  0  0  0  0  0  0  0  0  0  0
   58.8120   34.5580   46.1250 C   0  0  0  0  0  0  0  0  0  0  0  0
   59.1270   33.3170   46.7050 C   0  0  0  0  0  0  0  0  0  0  0  0
   59.6550   33.0910   47.9370 N   0  0  0  0  0  0  0  0  0  0  0  0
   59.9720   34.1400   48.9160 C   0  0  0  0  0  0  0  0  0  0  0  0
   59.8160   31.7310   48.0270 C   0  0  0  0  0  0  0  0  0  0  0  0
   54.0651   31.3381   52.8063 H   0  0  0  0  0  0  0  0  0  0  0  0
   55.1293   31.5414   51.3736 H   0  0  0  0  0  0  0  0  0  0  0  0
   53.8553   30.2751   51.3736 H   0  0  0  0  0  0  0  0  0  0  0  0
   55.7725   30.0794   53.6381 H   0  0  0  0  0  0  0  0  0  0  0  0
   55.1495   28.8047   52.5275 H   0  0  0  0  0  0  0  0  0  0  0  0
   56.4942   31.8568   51.5275 H   0  0  0  0  0  0  0  0  0  0  0  0
   57.7623   31.4435   52.7356 H   0  0  0  0  0  0  0  0  0  0  0  0
   58.5778   30.2162   50.3050 H   0  0  0  0  0  0  0  0  0  0  0  0
   58.0080   31.8769   49.8682 H   0  0  0  0  0  0  0  0  0  0  0  0
   59.5817   32.9243   51.2772 H   0  0  0  0  0  0  0  0  0  0  0  0
   59.8839   31.4061   52.2101 H   0  0  0  0  0  0  0  0  0  0  0  0
   61.4650   30.8400   50.8120 H   0  0  0  0  0  0  0  0  0  0  0  0
   61.4260   32.3280   50.1620 H   0  0  0  0  0  0  0  0  0  0  0  0
   60.9962   29.0093   50.9059 H   0  0  0  0  0  0  0  0  0  0  0  0
   61.0297   26.5587   50.5133 H   0  0  0  0  0  0  0  0  0  0  0  0
   60.4177   25.6314   48.2897 H   0  0  0  0  0  0  0  0  0  0  0  0
   59.7794   27.1520   46.4363 H   0  0  0  0  0  0  0  0  0  0  0  0
   60.2445   28.3320   45.1730 H   0  0  0  0  0  0  0  0  0  0  0  0
   58.8781   29.3763   44.6545 H   0  0  0  0  0  0  0  0  0  0  0  0
   60.5536   30.0238   44.6545 H   0  0  0  0  0  0  0  0  0  0  0  0
   57.2197   33.4015   43.3225 H   0  0  0  0  0  0  0  0  0  0  0  0
   57.9551   35.5357   44.3893 H   0  0  0  0  0  0  0  0  0  0  0  0
   59.0706   35.4972   46.6359 H   0  0  0  0  0  0  0  0  0  0  0  0
   59.8512   33.7403   49.9337 H   0  0  0  0  0  0  0  0  0  0  0  0
   61.0108   34.4726   48.7736 H   0  0  0  0  0  0  0  0  0  0  0  0
   59.2913   34.9923   48.7736 H   0  0  0  0  0  0  0  0  0  0  0  0
  1  2  1  0
  2  3  1  0
  3  4  1  0
  4  5  1  0
  5  6  1  0
  6  7  1  0
  7  8  1  0
  8  9  2  0
  9 10  1  0
 10 11  2  0
 11 12  1  0
 12 13  2  0
 13 14  1  0
 14 15  2  0
 15 16  1  0
 15 17  1  0
 17 18  1  0
 18 19  2  0
 19 20  1  0
 19 21  1  0
 21 22  2  0
 22 23  1  0
 23 24  2  0
 24 25  1  0
 25 26  1  0
 25 27  1  0
 27  8  1  0
 14  9  1  0
 27 17  2  0
 24 18  1  0
  1 28  1  0
  1 29  1  0
  1 30  1  0
  2 31  1  0
  2 32  1  0
  4 33  1  0
  4 34  1  0
  5 35  1  0
  5 36  1  0
  6 37  1  0
  6 38  1  0
  7 39  1  0
  7 40  1  0
 10 41  1  0
 11 42  1  0
 12 43  1  0
 13 44  1  0
 16 45  1  0
 16 46  1  0
 16 47  1  0
 21 48  1  0
 22 49  1  0
 23 50  1  0
 26 51  1  0
 26 52  1  0
 26 53  1  0
M  CHG  2   7   1  15   1
M  END
>  <UniqueID>  (18) 
18

>  <SMILES>  (18) 
CCOCCC[NH2+]c1c2ccccc2[n+](C)c2c3c(Br)cccc3n(C)c12

>  <Energy>  (18) 
132.8135054258624

>  <Genealogy>  (18) 
CCOCCC[NH2+]c1c2ccccc2[n+](C)c2c3c(Br)cccc3n(C)c12 (protonated)
CCOCCC[NH2+]c1c2ccccc2[n+](C)c2c3c(Br)cccc3n(C)c12 (3D coordinates assigned)
CCOCCC[NH2+]c1c2ccccc2[n+](C)c2c3c(Br)cccc3n(C)c12 (optimized conformer: 132.8135054258624 kcal/mol)

>  <smiles>  (18) 
CCOCCCNc1c2ccccc2[n+](C)c2c3c(Br)cccc3n(C)c12

>  <score_type>  (18) 
oracle

>  <origin>  (18) 
adg

>  <m_score__min__energy>  (18) 
-5.1299999999999999

>  <m_primary>  (18) 
energy

$$$$
18:0
     RDKit          3D

 34 33  0  0  0  0  0  0  0  0999 V2000
   59.6410   34.9570   46.0210 C   0  0  0  0  0  0  0  0  0  0  0  0
   58.8630   34.3310   47.1760 C   0  0  0  0  0  0  0  0  0  0  0  0
   57.6880   33.5950   46.6780 N   0  0  0  0  0  0  0  0  0  0  0  0
   57.7340   33.4120   45.2180 C   0  0  0  0  0  0  0  0  0  0  0  0
   57.0500   32.1760   44.8080 C   0  0  0  0  0  0  0  0  0  0  0  0
   56.4960   31.1640   44.4580 C   0  0  0  0  0  0  0  0  0  0  0  0
   55.8120   29.9410   44.0250 C   0  0  0  0  0  0  0  0  0  0  0  0
   55.9000   28.9160   45.0730 N   0  0  0  0  0  0  0  0  0  0  0  0
   57.2330   28.2860   45.1390 C   0  0  0  0  0  0  0  0  0  0  0  0
   57.1690   26.7570   45.3390 C   0  0  0  0  0  0  0  0  0  0  0  0
   56.2290   26.3490   46.4770 C   0  0  0  0  0  0  0  0  0  0  0  0
   54.9030   26.3340   45.9920 O   0  0  0  0  0  0  0  0  0  0  0  0
   54.5550   25.0180   45.6220 C   0  0  0  0  0  0  0  0  0  0  0  0
   60.4391   35.5991   46.4219 H   0  0  0  0  0  0  0  0  0  0  0  0
   60.0853   34.1617   45.4045 H   0  0  0  0  0  0  0  0  0  0  0  0
   58.9592   35.5612   45.4045 H   0  0  0  0  0  0  0  0  0  0  0  0
   59.5205   33.6358   47.7187 H   0  0  0  0  0  0  0  0  0  0  0  0
   58.5186   35.1336   47.8447 H   0  0  0  0  0  0  0  0  0  0  0  0
   57.6230   32.6610   47.1490 H   0  0  0  0  0  0  0  0  0  0  0  0
   56.8240   34.1400   46.9090 H   0  0  0  0  0  0  0  0  0  0  0  0
   57.2430   34.2695   44.7346 H   0  0  0  0  0  0  0  0  0  0  0  0
   58.7882   33.3409   44.9120 H   0  0  0  0  0  0  0  0  0  0  0  0
   54.7542   30.1670   43.8250 H   0  0  0  0  0  0  0  0  0  0  0  0
   56.2933   29.5636   43.1107 H   0  0  0  0  0  0  0  0  0  0  0  0
   55.1660   28.1930   44.8970 H   0  0  0  0  0  0  0  0  0  0  0  0
   57.7660   28.4945   44.1996 H   0  0  0  0  0  0  0  0  0  0  0  0
   57.7541   28.7099   46.0101 H   0  0  0  0  0  0  0  0  0  0  0  0
   56.8139   26.2946   44.4062 H   0  0  0  0  0  0  0  0  0  0  0  0
   58.1800   26.4138   45.6038 H   0  0  0  0  0  0  0  0  0  0  0  0
   56.5010   25.3466   46.8392 H   0  0  0  0  0  0  0  0  0  0  0  0
   56.3144   27.0667   47.3062 H   0  0  0  0  0  0  0  0  0  0  0  0
   54.3950   24.4129   46.5266 H   0  0  0  0  0  0  0  0  0  0  0  0
   53.6310   25.0370   45.0254 H   0  0  0  0  0  0  0  0  0  0  0  0
   55.3676   24.5778   45.0254 H   0  0  0  0  0  0  0  0  0  0  0  0
  1  2  1  0
  2  3  1  0
  3  4  1  0
  4  5  1  0
  5  6  3  0
  6  7  1  0
  7  8  1  0
  8  9  1  0
  9 10  1  0
 10 11  1  0
 11 12  1  0
 12 13  1  0
  1 14  1  0
  1 15  1  0
  1 16  1  0
  2 17  1  0
  2 18  1  0
  3 19  1  0
  3 20  1  0
  4 21  1  0
  4 22  1  0
  7 23  1  0
  7 24  1  0
  8 25  1  0
  9 26  1  0
  9 27  1  0
 10 28  1  0
 10 29  1  0
 11 30  1  0
 11 31  1  0
 13 32  1  0
 13 33  1  0
 13 34  1  0
M  CHG  1   3   1
M  END
>  <UniqueID>  (19) 
19

>  <SMILES>  (19) 
CC[NH2+]CC#CCNCCCOC

>  <Energy>  (19) 
20.179252127942238

>  <Genealogy>  (19) 
CC[NH2+]CC#CCNCCCOC (protonated)
CC[NH2+]CC#CCNCCCOC (3D coordinates assigned)
CC[NH2+]CC#CCNCCCOC (optimized conformer: 20.179252127942238 kcal/mol)

>  <smiles>  (19) 
CCNCC#CCNCCCOC

>  <score_type>  (19) 
oracle

>  <origin>  (19) 
adg

>  <m_score__min__energy>  (19) 
-3.1000000000000001

>  <m_primary>  (19) 
energy

$$$$
19:0
     RDKit          3D

 64 67  0  0  0  0  0  0  0  0999 V2000
   58.9890   28.8500   47.3430 C   0  0  0  0  0  0  0  0  0  0  0  0
   57.9550   28.5170   46.2620 C   0  0  0  0  0  0  0  0  0  0  0  0
   57.4960   29.7170   45.5350 N   0  0  0  0  0  0  0  0  0  0  0  0
   57.2200   29.4310   44.1170 C   0  0  0  0  0  0  0  0  0  0  0  0
   57.2080   30.7150   43.2850 C   0  0  0  0  0  0  0  0  0  0  0  0
   57.8570   31.7450   43.9940 O   0  0  0  0  0  0  0  0  0  0  0  0
   56.9940   32.1340   44.9700 N   0  0  0  0  0  0  0  0  0  0  0  0
   57.0320   33.5960   45.0570 C   0  0  0  0  0  0  0  0  0  0  0  0
   58.2950   34.0650   45.7870 C   0  0  0  0  0  0  0  0  0  0  0  0
   59.1170   32.9360   46.2360 N   0  0  0  0  0  0  0  0  0  0  0  0
   59.7780   32.8830   47.5170 C   0  0  0  0  0  0  0  0  0  0  0  0
   59.0710   32.4770   48.6450 C   0  0  0  0  0  0  0  0  0  0  0  0
   59.6810   32.4310   49.9120 C   0  0  0  0  0  0  0  0  0  0  0  0
   58.9610   31.9480   51.0510 C   0  0  0  0  0  0  0  0  0  0  0  0
   57.7340   31.2470   50.9540 C   0  0  0  0  0  0  0  0  0  0  0  0
   57.0430   30.8240   52.1050 C   0  0  0  0  0  0  0  0  0  0  0  0
   55.8190   30.1380   52.0300 O   0  0  0  0  0  0  0  0  0  0  0  0
   54.5370   30.7570   52.0720 C   0  0  0  0  0  0  0  0  0  0  0  0
   57.5790   31.0800   53.3720 C   0  0  0  0  0  0  0  0  0  0  0  0
   56.8550   30.6600   54.4990 O   0  0  0  0  0  0  0  0  0  0  0  0
   57.4320   30.3760   55.7710 C   0  0  0  0  0  0  0  0  0  0  0  0
   58.8170   31.7320   53.4800 C   0  0  0  0  0  0  0  0  0  0  0  0
   59.5100   32.1450   52.3330 C   0  0  0  0  0  0  0  0  0  0  0  0
   60.7480   32.7640   52.4600 C   0  0  0  0  0  0  0  0  0  0  0  0
   61.4630   33.1280   51.3290 C   0  0  0  0  0  0  0  0  0  0  0  0
   60.9730   32.9170   50.0590 N   0  0  0  0  0  0  0  0  0  0  0  0
   61.7360   33.2190   48.9360 C   0  0  0  0  0  0  0  0  0  0  0  0
   63.1330   33.4820   49.0100 C   0  0  0  0  0  0  0  0  0  0  0  0
   63.8740   33.7860   47.8690 C   0  0  0  0  0  0  0  0  0  0  0  0
   63.2660   33.8090   46.6230 C   0  0  0  0  0  0  0  0  0  0  0  0
   61.9120   33.5170   46.5050 C   0  0  0  0  0  0  0  0  0  0  0  0
   61.1340   33.2200   47.6450 C   0  0  0  0  0  0  0  0  0  0  0  0
   58.5401   28.7054   48.3368 H   0  0  0  0  0  0  0  0  0  0  0  0
   59.8599   28.1869   47.2341 H   0  0  0  0  0  0  0  0  0  0  0  0
   59.3092   29.8967   47.2341 H   0  0  0  0  0  0  0  0  0  0  0  0
   58.4083   27.8195   45.5422 H   0  0  0  0  0  0  0  0  0  0  0  0
   57.0811   28.0708   46.7592 H   0  0  0  0  0  0  0  0  0  0  0  0
   58.2540   30.4350   45.5920 H   0  0  0  0  0  0  0  0  0  0  0  0
   56.6430   30.1070   45.9950 H   0  0  0  0  0  0  0  0  0  0  0  0
   57.9994   28.7590   43.7283 H   0  0  0  0  0  0  0  0  0  0  0  0
   56.2289   28.9595   44.0436 H   0  0  0  0  0  0  0  0  0  0  0  0
   57.7317   30.5394   42.3337 H   0  0  0  0  0  0  0  0  0  0  0  0
   56.1674   31.0099   43.0843 H   0  0  0  0  0  0  0  0  0  0  0  0
   57.3650   31.7500   45.8730 H   0  0  0  0  0  0  0  0  0  0  0  0
   57.0249   34.0180   44.0412 H   0  0  0  0  0  0  0  0  0  0  0  0
   56.1514   33.9387   45.6202 H   0  0  0  0  0  0  0  0  0  0  0  0
   58.8900   34.6888   45.1037 H   0  0  0  0  0  0  0  0  0  0  0  0
   57.9843   34.6354   46.6747 H   0  0  0  0  0  0  0  0  0  0  0  0
   59.2630   32.1500   45.5650 H   0  0  0  0  0  0  0  0  0  0  0  0
   58.0149   32.1865   48.5440 H   0  0  0  0  0  0  0  0  0  0  0  0
   57.3135   31.0292   49.9611 H   0  0  0  0  0  0  0  0  0  0  0  0
   54.2345   30.9031   53.1195 H   0  0  0  0  0  0  0  0  0  0  0  0
   54.5837   31.7318   51.5645 H   0  0  0  0  0  0  0  0  0  0  0  0
   53.8027   30.1142   51.5645 H   0  0  0  0  0  0  0  0  0  0  0  0
   56.7500   30.7117   56.5662 H   0  0  0  0  0  0  0  0  0  0  0  0
   57.5990   29.2928   55.8643 H   0  0  0  0  0  0  0  0  0  0  0  0
   58.3923   30.9044   55.8643 H   0  0  0  0  0  0  0  0  0  0  0  0
   59.2480   31.9210   54.4742 H   0  0  0  0  0  0  0  0  0  0  0  0
   61.1612   32.9655   53.4593 H   0  0  0  0  0  0  0  0  0  0  0  0
   62.4498   33.5988   51.4494 H   0  0  0  0  0  0  0  0  0  0  0  0
   63.6377   33.4446   49.9866 H   0  0  0  0  0  0  0  0  0  0  0  0
   64.9475   34.0090   47.9577 H   0  0  0  0  0  0  0  0  0  0  0  0
   63.8550   34.0583   45.7280 H   0  0  0  0  0  0  0  0  0  0  0  0
   61.4409   33.5174   45.5110 H   0  0  0  0  0  0  0  0  0  0  0  0
  1  2  1  0
  2  3  1  0
  3  4  1  0
  4  5  1  0
  5  6  1  0
  6  7  1  0
  7  8  1  0
  8  9  1  0
  9 10  1  0
 10 11  1  0
 11 12  2  0
 12 13  1  0
 13 14  2  0
 14 15  1  0
 15 16  2  0
 16 17  1  0
 17 18  1  0
 16 19  1  0
 19 20  1  0
 20 21  1  0
 19 22  2  0
 22 23  1  0
 23 24  2  0
 24 25  1  0
 25 26  2  0
 26 27  1  0
 27 28  2  0
 28 29  1  0
 29 30  2  0
 30 31  1  0
 31 32  2  0
 32 11  1  0
 26 13  1  0
 32 27  1  0
 23 14  1  0
  1 33  1  0
  1 34  1  0
  1 35  1  0
  2 36  1  0
  2 37  1  0
  3 38  1  0
  3 39  1  0
  4 40  1  0
  4 41  1  0
  5 42  1  0
  5 43  1  0
  7 44  1  0
  8 45  1  0
  8 46  1  0
  9 47  1  0
  9 48  1  0
 10 49  1  0
 12 50  1  0
 15 51  1  0
 18 52  1  0
 18 53  1  0
 18 54  1  0
 21 55  1  0
 21 56  1  0
 21 57  1  0
 22 58  1  0
 24 59  1  0
 25 60  1  0
 28 61  1  0
 29 62  1  0
 30 63  1  0
 31 64  1  0
M  CHG  2   3   1  26   1
M  END
>  <UniqueID>  (20) 
20

>  <SMILES>  (20) 
CC[NH2+]CCONCCNc1cc2c3cc(OC)c(OC)cc3cc[n+]2c2ccccc12

>  <Energy>  (20) 
87.38210557650117

>  <Genealogy>  (20) 
CC[NH2+]CCONCCNc1cc2c3cc(OC)c(OC)cc3cc[n+]2c2ccccc12 (protonated)
CC[NH2+]CCONCCNc1cc2c3cc(OC)c(OC)cc3cc[n+]2c2ccccc12 (3D coordinates assigned)
CC[NH2+]CCONCCNc1cc2c3cc(OC)c(OC)cc3cc[n+]2c2ccccc12 (optimized conformer: 87.38210557650117 kcal/mol)

>  <smiles>  (20) 
CCNCCONCCNc1cc2c3cc(OC)c(OC)cc3cc[n+]2c2ccccc12

>  <score_type>  (20) 
oracle

>  <origin>  (20) 
adg

>  <m_score__min__energy>  (20) 
-5.5800000000000001

>  <m_primary>  (20) 
energy

$$$$
20:0
     RDKit          3D

 57 59  0  0  0  0  0  0  0  0999 V2000
   56.6400   30.4530   42.4770 C   0  0  0  0  0  0  0  0  0  0  0  0
   55.8700   29.7030   43.5510 C   0  0  0  0  0  0  0  0  0  0  0  0
   56.2340   30.2010   44.8360 O   0  0  0  0  0  0  0  0  0  0  0  0
   57.4880   30.0100   45.4350 C   0  0  0  0  0  0  0  0  0  0  0  0
   57.7670   28.8550   46.1940 C   0  0  0  0  0  0  0  0  0  0  0  0
   59.0080   28.6960   46.8130 C   0  0  0  0  0  0  0  0  0  0  0  0
   59.9880   29.6760   46.6760 C   0  0  0  0  0  0  0  0  0  0  0  0
   59.7360   30.8130   45.9090 C   0  0  0  0  0  0  0  0  0  0  0  0
   58.4890   30.9950   45.2820 C   0  0  0  0  0  0  0  0  0  0  0  0
   58.2730   32.2190   44.4140 C   0  0  0  0  0  0  0  0  0  0  0  0
   58.1550   33.4870   45.1670 N   0  0  0  0  0  0  0  0  0  0  0  0
   59.1880   34.5130   44.9340 C   0  0  0  0  0  0  0  0  0  0  0  0
   60.3390   34.4600   45.9660 C   0  0  0  0  0  0  0  0  0  0  0  0
   59.9520   33.8830   47.2800 N   0  0  0  0  0  0  0  0  0  0  0  0
   60.8070   34.4340   48.3640 C   0  0  0  0  0  0  0  0  0  0  0  0
   61.8710   33.4450   48.8060 C   0  0  0  0  0  0  0  0  0  0  0  0
   63.2090   33.8650   48.9150 C   0  0  0  0  0  0  0  0  0  0  0  0
   64.1930   32.9860   49.3700 C   0  0  0  0  0  0  0  0  0  0  0  0
   63.8580   31.6760   49.7060 C   0  0  0  0  0  0  0  0  0  0  0  0
   62.5400   31.2330   49.5710 C   0  0  0  0  0  0  0  0  0  0  0  0
   61.5340   32.1080   49.1130 C   0  0  0  0  0  0  0  0  0  0  0  0
   60.2060   31.6810   48.9300 O   0  0  0  0  0  0  0  0  0  0  0  0
   59.2480   31.4940   49.9730 C   0  0  0  0  0  0  0  0  0  0  0  0
   58.9020   30.0210   50.1360 C   0  0  0  0  0  0  0  0  0  0  0  0
   58.5210   34.1200   47.5650 C   0  0  0  0  0  0  0  0  0  0  0  0
   57.6350   33.3910   46.5470 C   0  0  0  0  0  0  0  0  0  0  0  0
   57.3509   31.1454   42.9515 H   0  0  0  0  0  0  0  0  0  0  0  0
   57.1899   29.7349   41.8510 H   0  0  0  0  0  0  0  0  0  0  0  0
   55.9366   31.0216   41.8510 H   0  0  0  0  0  0  0  0  0  0  0  0
   54.7906   29.8463   43.3951 H   0  0  0  0  0  0  0  0  0  0  0  0
   56.1113   28.6314   43.4926 H   0  0  0  0  0  0  0  0  0  0  0  0
   57.0006   28.0730   46.2992 H   0  0  0  0  0  0  0  0  0  0  0  0
   59.2123   27.7950   47.4101 H   0  0  0  0  0  0  0  0  0  0  0  0
   60.9615   29.5531   47.1732 H   0  0  0  0  0  0  0  0  0  0  0  0
   60.5200   31.5757   45.7927 H   0  0  0  0  0  0  0  0  0  0  0  0
   59.1250   32.3064   43.7238 H   0  0  0  0  0  0  0  0  0  0  0  0
   57.3148   32.0712   43.8944 H   0  0  0  0  0  0  0  0  0  0  0  0
   59.6109   34.3624   43.9298 H   0  0  0  0  0  0  0  0  0  0  0  0
   58.7031   35.4954   45.0334 H   0  0  0  0  0  0  0  0  0  0  0  0
   61.1511   33.8482   45.5461 H   0  0  0  0  0  0  0  0  0  0  0  0
   60.6433   35.5002   46.1544 H   0  0  0  0  0  0  0  0  0  0  0  0
   60.1110   32.8500   47.2330 H   0  0  0  0  0  0  0  0  0  0  0  0
   61.3002   35.3467   47.9983 H   0  0  0  0  0  0  0  0  0  0  0  0
   60.1627   34.6498   49.2290 H   0  0  0  0  0  0  0  0  0  0  0  0
   63.4820   34.8944   48.6395 H   0  0  0  0  0  0  0  0  0  0  0  0
   65.2343   33.3279   49.4634 H   0  0  0  0  0  0  0  0  0  0  0  0
   64.6326   30.9894   50.0782 H   0  0  0  0  0  0  0  0  0  0  0  0
   62.2852   30.1933   49.8240 H   0  0  0  0  0  0  0  0  0  0  0  0
   59.6658   31.8723   50.9176 H   0  0  0  0  0  0  0  0  0  0  0  0
   58.3316   32.0430   49.7106 H   0  0  0  0  0  0  0  0  0  0  0  0
   58.8440   29.7742   51.2064 H   0  0  0  0  0  0  0  0  0  0  0  0
   57.9316   29.8174   49.6597 H   0  0  0  0  0  0  0  0  0  0  0  0
   59.6803   29.4067   49.6597 H   0  0  0  0  0  0  0  0  0  0  0  0
   58.2885   33.7512   48.5749 H   0  0  0  0  0  0  0  0  0  0  0  0
   58.3219   35.1997   47.4965 H   0  0  0  0  0  0  0  0  0  0  0  0
   57.5764   32.3291   46.8280 H   0  0  0  0  0  0  0  0  0  0  0  0
   56.6454   33.8711   46.5635 H   0  0  0  0  0  0  0  0  0  0  0  0
  1  2  1  0
  2  3  1  0
  3  4  1  0
  4  5  2  0
  5  6  1  0
  6  7  2  0
  7  8  1  0
  8  9  2  0
  9 10  1  0
 10 11  1  0
 11 12  1  0
 12 13  1  0
 13 14  1  0
 14 15  1  0
 15 16  1  0
 16 17  2  0
 17 18  1  0
 18 19  2  0
 19 20  1  0
 20 21  2  0
 21 22  1  0
 22 23  1  0
 23 24  1  0
 14 25  1  0
 25 26  1  0
  9  4  1  0
 26 11  1  0
 21 16  1  0
  1 27  1  0
  1 28  1  0
  1 29  1  0
  2 30  1  0
  2 31  1  0
  5 32  1  0
  6 33  1  0
  7 34  1  0
  8 35  1  0
 10 36  1  0
 10 37  1  0
 12 38  1  0
 12 39  1  0
 13 40  1  0
 13 41  1  0
 14 42  1  0
 15 43  1  0
 15 44  1  0
 17 45  1  0
 18 46  1  0
 19 47  1  0
 20 48  1  0
 23 49  1  0
 23 50  1  0
 24 51  1  0
 24 52  1  0
 24 53  1  0
 25 54  1  0
 25 55  1  0
 26 56  1  0
 26 57  1  0
M  CHG  1  14   1
M  END
>  <UniqueID>  (21) 
21

>  <SMILES>  (21) 
CCOc1ccccc1CN1CC[NH+](Cc2ccccc2OCC)CC1

>  <Energy>  (21) 
68.88554474580482

>  <Genealogy>  (21) 
CCOc1ccccc1CN1CC[NH+](Cc2ccccc2OCC)CC1 (protonated)
CCOc1ccccc1CN1CC[NH+](Cc2ccccc2OCC)CC1 (3D coordinates assigned)
CCOc1ccccc1CN1CC[NH+](Cc2ccccc2OCC)CC1 (nonaromatic ring conformer: 68.88554474580482 kcal/mol)

>  <smiles>  (21) 
CCOc1ccccc1CN1CCN(Cc2ccccc2OCC)CC1

>  <score_type>  (21) 
oracle

>  <origin>  (21) 
adg

>  <m_score__min__energy>  (21) 
-5.7800000000000002

>  <m_primary>  (21) 
energy

$$$$
21:0
     RDKit          3D

 25 24  0  0  0  0  0  0  0  0999 V2000
   58.5830   32.4390   47.7040 C   0  0  0  0  0  0  0  0  0  0  0  0
   58.5530   31.6930   46.3590 C   0  0  0  0  0  0  0  0  0  0  0  0
   57.5070   32.1350   45.3900 N   0  0  0  0  0  0  0  0  0  0  0  0
   57.1130   33.5660   45.4790 C   0  0  0  0  0  0  0  0  0  0  0  0
   58.1950   34.5010   44.9270 C   0  0  0  0  0  0  0  0  0  0  0  0
   57.7680   31.7010   43.9900 C   0  0  0  0  0  0  0  0  0  0  0  0
   56.7370   30.7280   43.3920 C   0  0  0  0  0  0  0  0  0  0  0  0
   56.0210   30.0290   44.4530 N   0  0  0  0  0  0  0  0  0  0  0  0
   56.4770   28.9540   44.9560 C   0  0  0  0  0  0  0  0  0  0  0  0
   57.0540   27.5920   45.5940 S   0  0  0  0  0  0  0  0  0  0  0  0
   58.5537   31.7108   48.5279 H   0  0  0  0  0  0  0  0  0  0  0  0
   59.5058   33.0337   47.7729 H   0  0  0  0  0  0  0  0  0  0  0  0
   57.7109   33.1059   47.7729 H   0  0  0  0  0  0  0  0  0  0  0  0
   59.5339   31.8246   45.8790 H   0  0  0  0  0  0  0  0  0  0  0  0
   58.3089   30.6488   46.6039 H   0  0  0  0  0  0  0  0  0  0  0  0
   56.6490   31.5910   45.6520 H   0  0  0  0  0  0  0  0  0  0  0  0
   56.1883   33.7152   44.9022 H   0  0  0  0  0  0  0  0  0  0  0  0
   56.9665   33.8100   46.5415 H   0  0  0  0  0  0  0  0  0  0  0  0
   58.7364   34.9688   45.7625 H   0  0  0  0  0  0  0  0  0  0  0  0
   58.8998   33.9230   44.3112 H   0  0  0  0  0  0  0  0  0  0  0  0
   57.7253   35.2821   44.3112 H   0  0  0  0  0  0  0  0  0  0  0  0
   57.7924   32.5997   43.3562 H   0  0  0  0  0  0  0  0  0  0  0  0
   58.7199   31.1505   44.0184 H   0  0  0  0  0  0  0  0  0  0  0  0
   56.0177   31.2929   42.7809 H   0  0  0  0  0  0  0  0  0  0  0  0
   57.2634   29.9888   42.7704 H   0  0  0  0  0  0  0  0  0  0  0  0
  1  2  1  0
  2  3  1  0
  3  4  1  0
  4  5  1  0
  3  6  1  0
  6  7  1  0
  7  8  1  0
  8  9  2  0
  9 10  2  0
  1 11  1  0
  1 12  1  0
  1 13  1  0
  2 14  1  0
  2 15  1  0
  3 16  1  0
  4 17  1  0
  4 18  1  0
  5 19  1  0
  5 20  1  0
  5 21  1  0
  6 22  1  0
  6 23  1  0
  7 24  1  0
  7 25  1  0
M  CHG  1   3   1
M  END
>  <UniqueID>  (22) 
22

>  <SMILES>  (22) 
CC[NH+](CC)CCN=C=S

>  <Energy>  (22) 
26.007139935387393

>  <Genealogy>  (22) 
CC[NH+](CC)CCN=C=S (protonated)
CC[NH+](CC)CCN=C=S (3D coordinates assigned)
CC[NH+](CC)CCN=C=S (optimized conformer: 26.007139935387393 kcal/mol)

>  <smiles>  (22) 
CCN(CC)CCN=C=S

>  <score_type>  (22) 
oracle

>  <origin>  (22) 
adg

>  <m_score__min__energy>  (22) 
-1.98

>  <m_primary>  (22) 
energy

$$$$
22:0
     RDKit          3D

 30 32  0  0  0  0  0  0  0  0999 V2000
   54.7690   26.3050   45.9960 O   0  0  0  0  0  0  0  0  0  0  0  0
   56.0150   26.4080   45.8420 C   0  0  0  0  0  0  0  0  0  0  0  0
   56.6840   27.6350   46.1580 N   0  0  0  0  0  0  0  0  0  0  0  0
   56.9770   28.7090   45.2520 C   0  0  0  0  0  0  0  0  0  0  0  0
   58.2880   29.1800   45.0530 C   0  0  0  0  0  0  0  0  0  0  0  0
   58.5260   30.2500   44.1830 C   0  0  0  0  0  0  0  0  0  0  0  0
   57.4600   30.8640   43.5180 C   0  0  0  0  0  0  0  0  0  0  0  0
   57.7610   32.2080   42.4310 Cl  0  0  0  0  0  0  0  0  0  0  0  0
   56.1530   30.4150   43.7330 C   0  0  0  0  0  0  0  0  0  0  0  0
   55.9140   29.3460   44.6020 C   0  0  0  0  0  0  0  0  0  0  0  0
   56.7930   25.2270   45.4340 C   0  0  0  0  0  0  0  0  0  0  0  0
   56.1700   23.9660   44.5080 S   0  0  0  0  0  0  0  0  0  0  0  0
   57.5260   22.9760   44.5780 C   0  0  0  0  0  0  0  0  0  0  0  0
   58.4970   23.6220   45.3310 C   0  0  0  0  0  0  0  0  0  0  0  0
   58.0990   24.8830   45.8020 C   0  0  0  0  0  0  0  0  0  0  0  0
   58.9940   25.7440   46.5250 N   0  0  0  0  0  0  0  0  0  0  0  0
   60.1210   26.3000   46.0400 C   0  0  0  0  0  0  0  0  0  0  0  0
   60.6790   27.1290   46.9920 C   0  0  0  0  0  0  0  0  0  0  0  0
   59.8420   27.0860   48.0910 C   0  0  0  0  0  0  0  0  0  0  0  0
   58.8070   26.2330   47.7670 C   0  0  0  0  0  0  0  0  0  0  0  0
   59.1276   28.7061   45.5825 H   0  0  0  0  0  0  0  0  0  0  0  0
   59.5533   30.6087   44.0220 H   0  0  0  0  0  0  0  0  0  0  0  0
   55.3125   30.9032   43.2181 H   0  0  0  0  0  0  0  0  0  0  0  0
   54.8833   29.0034   44.7759 H   0  0  0  0  0  0  0  0  0  0  0  0
   57.6269   21.9865   44.1081 H   0  0  0  0  0  0  0  0  0  0  0  0
   59.4855   23.1866   45.5390 H   0  0  0  0  0  0  0  0  0  0  0  0
   60.5343   26.1204   45.0365 H   0  0  0  0  0  0  0  0  0  0  0  0
   61.6079   27.7101   46.8951 H   0  0  0  0  0  0  0  0  0  0  0  0
   59.9751   27.6267   49.0396 H   0  0  0  0  0  0  0  0  0  0  0  0
   57.9582   25.9891   48.4227 H   0  0  0  0  0  0  0  0  0  0  0  0
  1  2  2  0
  2  3  1  0
  3  4  1  0
  4  5  2  0
  5  6  1  0
  6  7  2  0
  7  8  1  0
  7  9  1  0
  9 10  2  0
  2 11  1  0
 11 12  1  0
 12 13  1  0
 13 14  2  0
 14 15  1  0
 15 16  1  0
 16 17  1  0
 17 18  2  0
 18 19  1  0
 19 20  2  0
 10  4  1  0
 15 11  2  0
 20 16  1  0
  5 21  1  0
  6 22  1  0
  9 23  1  0
 10 24  1  0
 13 25  1  0
 14 26  1  0
 17 27  1  0
 18 28  1  0
 19 29  1  0
 20 30  1  0
M  CHG  1   3  -1
M  END
>  <UniqueID>  (23) 
23

>  <SMILES>  (23) 
O=C([N-]c1ccc(Cl)cc1)c1sccc1-n1cccc1

>  <Energy>  (23) 
92.69192713401004

>  <Genealogy>  (23) 
O=C([N-]c1ccc(Cl)cc1)c1sccc1-n1cccc1 (protonated)
O=C([N-]c1ccc(Cl)cc1)c1sccc1-n1cccc1 (3D coordinates assigned)
O=C([N-]c1ccc(Cl)cc1)c1sccc1-n1cccc1 (optimized conformer: 92.69192713401004 kcal/mol)

>  <smiles>  (23) 
O=C(Nc1ccc(Cl)cc1)c1sccc1-n1cccc1

>  <score_type>  (23) 
oracle

>  <origin>  (23) 
adg

>  <m_score__min__energy>  (23) 
-8.5500000000000007

>  <m_primary>  (23) 
energy

$$$$
23:0
     RDKit          3D

 67 69  0  0  0  0  0  0  0  0999 V2000
   63.9360   30.9830   51.0830 C   0  0  0  0  0  0  0  0  0  0  0  0
   62.9830   30.6050   52.2220 C   0  0  0  0  0  0  0  0  0  0  0  0
   61.5640   30.5440   51.7830 N   0  0  0  0  0  0  0  0  0  0  0  0
   60.6520   31.0330   52.8520 C   0  0  0  0  0  0  0  0  0  0  0  0
   60.4080   32.5520   52.8210 C   0  0  0  0  0  0  0  0  0  0  0  0
   61.1680   29.1880   51.2980 C   0  0  0  0  0  0  0  0  0  0  0  0
   59.9190   29.2360   50.4010 C   0  0  0  0  0  0  0  0  0  0  0  0
   60.2620   29.7570   49.0310 C   0  0  0  0  0  0  0  0  0  0  0  0
   61.4780   30.4180   48.8110 C   0  0  0  0  0  0  0  0  0  0  0  0
   61.8100   30.8870   47.5300 C   0  0  0  0  0  0  0  0  0  0  0  0
   63.1170   31.5940   47.2920 C   0  0  0  0  0  0  0  0  0  0  0  0
   62.8900   33.0540   46.8950 C   0  0  0  0  0  0  0  0  0  0  0  0
   63.0440   33.9170   48.0750 N   0  0  0  0  0  0  0  0  0  0  0  0
   62.3280   33.3900   49.2520 C   0  0  0  0  0  0  0  0  0  0  0  0
   61.0690   34.2090   49.5730 C   0  0  0  0  0  0  0  0  0  0  0  0
   60.0740   34.1270   48.4360 C   0  0  0  0  0  0  0  0  0  0  0  0
   60.2950   34.9150   47.2890 C   0  0  0  0  0  0  0  0  0  0  0  0
   59.3940   34.8870   46.2210 C   0  0  0  0  0  0  0  0  0  0  0  0
   58.2630   34.0670   46.2840 C   0  0  0  0  0  0  0  0  0  0  0  0
   57.1410   34.0230   44.9350 Cl  0  0  0  0  0  0  0  0  0  0  0  0
   58.0250   33.2860   47.4200 C   0  0  0  0  0  0  0  0  0  0  0  0
   58.9120   33.3200   48.5050 C   0  0  0  0  0  0  0  0  0  0  0  0
   58.5290   32.3380   49.9230 Cl  0  0  0  0  0  0  0  0  0  0  0  0
   60.9290   30.6660   46.4620 C   0  0  0  0  0  0  0  0  0  0  0  0
   59.7090   30.0030   46.6670 C   0  0  0  0  0  0  0  0  0  0  0  0
   58.7840   29.7880   45.5260 C   0  0  0  0  0  0  0  0  0  0  0  0
   58.0660   30.8820   45.0140 C   0  0  0  0  0  0  0  0  0  0  0  0
   57.1700   30.7100   43.9570 C   0  0  0  0  0  0  0  0  0  0  0  0
   56.9820   29.4460   43.3950 C   0  0  0  0  0  0  0  0  0  0  0  0
   57.6820   28.3500   43.8970 C   0  0  0  0  0  0  0  0  0  0  0  0
   58.5760   28.5070   44.9640 C   0  0  0  0  0  0  0  0  0  0  0  0
   59.3530   27.0610   45.6060 Cl  0  0  0  0  0  0  0  0  0  0  0  0
   59.3920   29.5320   47.9530 C   0  0  0  0  0  0  0  0  0  0  0  0
   64.8805   31.3576   51.5043 H   0  0  0  0  0  0  0  0  0  0  0  0
   64.1369   30.0965   50.4636 H   0  0  0  0  0  0  0  0  0  0  0  0
   63.4746   31.7662   50.4636 H   0  0  0  0  0  0  0  0  0  0  0  0
   63.2739   29.6185   52.6121 H   0  0  0  0  0  0  0  0  0  0  0  0
   63.0600   31.3850   52.9938 H   0  0  0  0  0  0  0  0  0  0  0  0
   61.4550   31.2380   51.0030 H   0  0  0  0  0  0  0  0  0  0  0  0
   59.6830   30.5248   52.7390 H   0  0  0  0  0  0  0  0  0  0  0  0
   61.1389   30.8087   53.8125 H   0  0  0  0  0  0  0  0  0  0  0  0
   60.3465   32.9346   53.8505 H   0  0  0  0  0  0  0  0  0  0  0  0
   61.2383   33.0461   52.2952 H   0  0  0  0  0  0  0  0  0  0  0  0
   59.4647   32.7612   52.2952 H   0  0  0  0  0  0  0  0  0  0  0  0
   62.0018   28.7597   50.7224 H   0  0  0  0  0  0  0  0  0  0  0  0
   60.9305   28.5701   52.1765 H   0  0  0  0  0  0  0  0  0  0  0  0
   59.5037   28.2218   50.3071 H   0  0  0  0  0  0  0  0  0  0  0  0
   59.1822   29.9116   50.8599 H   0  0  0  0  0  0  0  0  0  0  0  0
   62.1765   30.5703   49.6470 H   0  0  0  0  0  0  0  0  0  0  0  0
   63.7160   31.5615   48.2141 H   0  0  0  0  0  0  0  0  0  0  0  0
   63.6437   31.0867   46.4703 H   0  0  0  0  0  0  0  0  0  0  0  0
   63.6263   33.3441   46.1310 H   0  0  0  0  0  0  0  0  0  0  0  0
   61.8737   33.1680   46.4899 H   0  0  0  0  0  0  0  0  0  0  0  0
   62.7070   34.8800   47.8410 H   0  0  0  0  0  0  0  0  0  0  0  0
   62.0334   32.3492   49.0520 H   0  0  0  0  0  0  0  0  0  0  0  0
   63.0041   33.4524   50.1174 H   0  0  0  0  0  0  0  0  0  0  0  0
   60.6047   33.8137   50.4885 H   0  0  0  0  0  0  0  0  0  0  0  0
   61.3578   35.2608   49.7154 H   0  0  0  0  0  0  0  0  0  0  0  0
   61.1854   35.5585   47.2336 H   0  0  0  0  0  0  0  0  0  0  0  0
   59.5743   35.5092   45.3320 H   0  0  0  0  0  0  0  0  0  0  0  0
   57.1353   32.6405   47.4622 H   0  0  0  0  0  0  0  0  0  0  0  0
   61.1964   31.0155   45.4539 H   0  0  0  0  0  0  0  0  0  0  0  0
   58.2109   31.8818   45.4493 H   0  0  0  0  0  0  0  0  0  0  0  0
   56.6108   31.5728   43.5661 H   0  0  0  0  0  0  0  0  0  0  0  0
   56.2820   29.3150   42.5566 H   0  0  0  0  0  0  0  0  0  0  0  0
   57.5314   27.3552   43.4523 H   0  0  0  0  0  0  0  0  0  0  0  0
   58.4534   28.9820   48.1159 H   0  0  0  0  0  0  0  0  0  0  0  0
  1  2  1  0
  2  3  1  0
  3  4  1  0
  4  5  1  0
  3  6  1  0
  6  7  1  0
  7  8  1  0
  8  9  2  0
  9 10  1  0
 10 11  1  0
 11 12  1  0
 12 13  1  0
 13 14  1  0
 14 15  1  0
 15 16  1  0
 16 17  2  0
 17 18  1  0
 18 19  2  0
 19 20  1  0
 19 21  1  0
 21 22  2  0
 22 23  1  0
 10 24  2  0
 24 25  1  0
 25 26  1  0
 26 27  2  0
 27 28  1  0
 28 29  2  0
 29 30  1  0
 30 31  2  0
 31 32  1  0
 25 33  2  0
 33  8  1  0
 22 16  1  0
 31 26  1  0
  1 34  1  0
  1 35  1  0
  1 36  1  0
  2 37  1  0
  2 38  1  0
  3 39  1  0
  4 40  1  0
  4 41  1  0
  5 42  1  0
  5 43  1  0
  5 44  1  0
  6 45  1  0
  6 46  1  0
  7 47  1  0
  7 48  1  0
  9 49  1  0
 11 50  1  0
 11 51  1  0
 12 52  1  0
 12 53  1  0
 13 54  1  0
 14 55  1  0
 14 56  1  0
 15 57  1  0
 15 58  1  0
 17 59  1  0
 18 60  1  0
 21 61  1  0
 24 62  1  0
 27 63  1  0
 28 64  1  0
 29 65  1  0
 30 66  1  0
 33 67  1  0
M  CHG  1   3   1
M  END
>  <UniqueID>  (24) 
24

>  <SMILES>  (24) 
CC[NH+](CC)CCc1cc(CCNCCc2ccc(Cl)cc2Cl)cc(-c2ccccc2Cl)c1

>  <Energy>  (24) 
76.05287921057099

>  <Genealogy>  (24) 
CC[NH+](CC)CCc1cc(CCNCCc2ccc(Cl)cc2Cl)cc(-c2ccccc2Cl)c1 (protonated)
CC[NH+](CC)CCc1cc(CCNCCc2ccc(Cl)cc2Cl)cc(-c2ccccc2Cl)c1 (3D coordinates assigned)
CC[NH+](CC)CCc1cc(CCNCCc2ccc(Cl)cc2Cl)cc(-c2ccccc2Cl)c1 (optimized conformer: 76.05287921057099 kcal/mol)

>  <smiles>  (24) 
CCN(CC)CCc1cc(CCNCCc2ccc(Cl)cc2Cl)cc(-c2ccccc2Cl)c1

>  <score_type>  (24) 
oracle

>  <origin>  (24) 
adg

>  <m_score__min__energy>  (24) 
-8.1899999999999995

>  <m_primary>  (24) 
energy

$$$$
24:0
     RDKit          3D

 68 69  0  0  0  0  0  0  0  0999 V2000
   62.9270   32.5170   47.1380 C   0  0  0  0  0  0  0  0  0  0  0  0
   63.0060   33.8510   46.4130 C   0  0  0  0  0  0  0  0  0  0  0  0
   61.7600   34.5310   46.5360 O   0  0  0  0  0  0  0  0  0  0  0  0
   60.5180   33.9000   46.7120 C   0  0  0  0  0  0  0  0  0  0  0  0
   59.7360   33.4800   45.6220 C   0  0  0  0  0  0  0  0  0  0  0  0
   58.5080   32.8360   45.8260 C   0  0  0  0  0  0  0  0  0  0  0  0
   57.7000   32.3800   44.6700 C   0  0  0  0  0  0  0  0  0  0  0  0
   57.9480   32.8170   43.5120 O   0  0  0  0  0  0  0  0  0  0  0  0
   56.6390   31.4380   44.8630 N   0  0  0  0  0  0  0  0  0  0  0  0
   56.3950   30.2900   43.9980 C   0  0  0  0  0  0  0  0  0  0  0  0
   56.2950   29.0100   44.8320 C   0  0  0  0  0  0  0  0  0  0  0  0
   57.6300   28.6310   45.3440 N   0  0  0  0  0  0  0  0  0  0  0  0
   57.7850   27.1630   45.3980 C   0  0  0  0  0  0  0  0  0  0  0  0
   59.0710   26.7750   46.1590 C   0  0  0  0  0  0  0  0  0  0  0  0
   60.0930   27.9420   46.2750 C   0  0  0  0  0  0  0  0  0  0  0  0
   59.7770   28.7850   47.4760 N   0  0  0  0  0  0  0  0  0  0  0  0
   60.0600   28.0160   48.7120 C   0  0  0  0  0  0  0  0  0  0  0  0
   60.5120   30.0770   47.5250 C   0  0  0  0  0  0  0  0  0  0  0  0
   61.2230   30.2970   48.8640 C   0  0  0  0  0  0  0  0  0  0  0  0
   60.0980   28.6930   44.9140 C   0  0  0  0  0  0  0  0  0  0  0  0
   58.7000   29.2120   44.5050 C   0  0  0  0  0  0  0  0  0  0  0  0
   58.0670   32.6070   47.1380 C   0  0  0  0  0  0  0  0  0  0  0  0
   58.8350   33.0240   48.2450 C   0  0  0  0  0  0  0  0  0  0  0  0
   58.4370   32.7510   49.5630 O   0  0  0  0  0  0  0  0  0  0  0  0
   58.4520   31.4750   50.2070 C   0  0  0  0  0  0  0  0  0  0  0  0
   57.5940   31.4980   51.4690 C   0  0  0  0  0  0  0  0  0  0  0  0
   60.0600   33.6970   48.0210 C   0  0  0  0  0  0  0  0  0  0  0  0
   60.8800   34.1650   49.0660 O   0  0  0  0  0  0  0  0  0  0  0  0
   61.4500   33.3770   50.1150 C   0  0  0  0  0  0  0  0  0  0  0  0
   62.9000   33.7770   50.3790 C   0  0  0  0  0  0  0  0  0  0  0  0
   62.9372   32.6890   48.2244 H   0  0  0  0  0  0  0  0  0  0  0  0
   61.9968   32.0015   46.8571 H   0  0  0  0  0  0  0  0  0  0  0  0
   63.7899   31.8953   46.8571 H   0  0  0  0  0  0  0  0  0  0  0  0
   63.8040   34.4637   46.8578 H   0  0  0  0  0  0  0  0  0  0  0  0
   63.2270   33.6786   45.3493 H   0  0  0  0  0  0  0  0  0  0  0  0
   60.0921   33.6589   44.5967 H   0  0  0  0  0  0  0  0  0  0  0  0
   55.4529   30.4414   43.4507 H   0  0  0  0  0  0  0  0  0  0  0  0
   57.2302   30.1915   43.2889 H   0  0  0  0  0  0  0  0  0  0  0  0
   55.6152   29.1804   45.6798 H   0  0  0  0  0  0  0  0  0  0  0  0
   55.9082   28.1975   44.1993 H   0  0  0  0  0  0  0  0  0  0  0  0
   56.9160   26.7273   45.9128 H   0  0  0  0  0  0  0  0  0  0  0  0
   57.8539   26.7777   44.3700 H   0  0  0  0  0  0  0  0  0  0  0  0
   58.7927   26.4525   47.1732 H   0  0  0  0  0  0  0  0  0  0  0  0
   59.5579   25.9711   45.5874 H   0  0  0  0  0  0  0  0  0  0  0  0
   61.1204   27.5918   46.4533 H   0  0  0  0  0  0  0  0  0  0  0  0
   59.8314   28.6371   49.5907 H   0  0  0  0  0  0  0  0  0  0  0  0
   59.4364   27.1101   48.7311 H   0  0  0  0  0  0  0  0  0  0  0  0
   61.1221   27.7305   48.7311 H   0  0  0  0  0  0  0  0  0  0  0  0
   61.2628   30.0864   46.7212 H   0  0  0  0  0  0  0  0  0  0  0  0
   59.7761   30.8851   47.4006 H   0  0  0  0  0  0  0  0  0  0  0  0
   60.5272   30.0817   49.6883 H   0  0  0  0  0  0  0  0  0  0  0  0
   62.0916   29.6256   48.9326 H   0  0  0  0  0  0  0  0  0  0  0  0
   61.5607   31.3416   48.9326 H   0  0  0  0  0  0  0  0  0  0  0  0
   60.7821   29.5511   44.9897 H   0  0  0  0  0  0  0  0  0  0  0  0
   60.4212   27.9767   44.1442 H   0  0  0  0  0  0  0  0  0  0  0  0
   58.6814   30.3066   44.6123 H   0  0  0  0  0  0  0  0  0  0  0  0
   58.5165   28.9130   43.4624 H   0  0  0  0  0  0  0  0  0  0  0  0
   57.1082   32.0947   47.3058 H   0  0  0  0  0  0  0  0  0  0  0  0
   58.0566   30.7166   49.5152 H   0  0  0  0  0  0  0  0  0  0  0  0
   59.4876   31.2324   50.4876 H   0  0  0  0  0  0  0  0  0  0  0  0
   58.2451   31.4805   52.3554 H   0  0  0  0  0  0  0  0  0  0  0  0
   56.9833   32.4128   51.4806 H   0  0  0  0  0  0  0  0  0  0  0  0
   56.9352   30.6172   51.4806 H   0  0  0  0  0  0  0  0  0  0  0  0
   60.8638   33.5246   51.0340 H   0  0  0  0  0  0  0  0  0  0  0  0
   61.4298   32.3208   49.8083 H   0  0  0  0  0  0  0  0  0  0  0  0
   63.0753   33.8254   51.4639 H   0  0  0  0  0  0  0  0  0  0  0  0
   63.5734   33.0311   49.9316 H   0  0  0  0  0  0  0  0  0  0  0  0
   63.0957   34.7627   49.9316 H   0  0  0  0  0  0  0  0  0  0  0  0
  1  2  1  0
  2  3  1  0
  3  4  1  0
  4  5  2  0
  5  6  1  0
  6  7  1  0
  7  8  2  0
  7  9  1  0
  9 10  1  0
 10 11  1  0
 11 12  1  0
 12 13  1  0
 13 14  1  0
 14 15  1  0
 15 16  1  0
 16 17  1  0
 16 18  1  0
 18 19  1  0
 15 20  1  0
 20 21  1  0
  6 22  2  0
 22 23  1  0
 23 24  1  0
 24 25  1  0
 25 26  1  0
 23 27  2  0
 27 28  1  0
 28 29  1  0
 29 30  1  0
 27  4  1  0
 21 12  1  0
  1 31  1  0
  1 32  1  0
  1 33  1  0
  2 34  1  0
  2 35  1  0
  5 36  1  0
 10 37  1  0
 10 38  1  0
 11 39  1  0
 11 40  1  0
 13 41  1  0
 13 42  1  0
 14 43  1  0
 14 44  1  0
 15 45  1  0
 17 46  1  0
 17 47  1  0
 17 48  1  0
 18 49  1  0
 18 50  1  0
 19 51  1  0
 19 52  1  0
 19 53  1  0
 20 54  1  0
 20 55  1  0
 21 56  1  0
 21 57  1  0
 22 58  1  0
 25 59  1  0
 25 60  1  0
 26 61  1  0
 26 62  1  0
 26 63  1  0
 29 64  1  0
 29 65  1  0
 30 66  1  0
 30 67  1  0
 30 68  1  0
M  CHG  1   9  -1
M  END
>  <UniqueID>  (25) 
25

>  <SMILES>  (25) 
CCOc1cc(C(=O)[N-]CCN2CCC(N(C)CC)CC2)cc(OCC)c1OCC

>  <Energy>  (25) 
76.45695365730137

>  <Genealogy>  (25) 
CCOc1cc(C(=O)[N-]CCN2CCC(N(C)CC)CC2)cc(OCC)c1OCC (protonated)
CCOc1cc(C(=O)[N-]CCN2CCC(N(C)CC)CC2)cc(OCC)c1OCC (3D coordinates assigned)
CCOc1cc(C(=O)[N-]CCN2CCC(N(C)CC)CC2)cc(OCC)c1OCC (nonaromatic ring conformer: 76.45695365730137 kcal/mol)

>  <smiles>  (25) 
CCOc1cc(C(=O)NCCN2CCC(N(C)CC)CC2)cc(OCC)c1OCC

>  <score_type>  (25) 
oracle

>  <origin>  (25) 
adg

>  <m_score__min__energy>  (25) 
-8.5500000000000007

>  <m_primary>  (25) 
energy

$$$$
25:0
     RDKit          3D

 53 55  0  0  0  0  0  0  0  0999 V2000
   58.5010   27.4550   43.7420 C   0  0  0  0  0  0  0  0  0  0  0  0
   59.4070   28.3840   44.5450 C   0  0  0  0  0  0  0  0  0  0  0  0
   60.1530   27.6030   45.6570 C   0  0  0  0  0  0  0  0  0  0  0  0
   59.6510   27.8180   47.0610 N   0  0  2  0  0  0  0  0  0  0  0  0
   60.4090   26.8450   47.8970 C   0  0  0  0  0  0  0  0  0  0  0  0
   58.1860   27.4880   47.0900 C   0  0  0  0  0  0  0  0  0  0  0  0
   57.8200   26.0170   46.8400 C   0  0  0  0  0  0  0  0  0  0  0  0
   59.9160   29.2490   47.4560 C   0  0  0  0  0  0  0  0  0  0  0  0
   59.1310   29.8310   48.6700 C   0  0  0  0  0  0  0  0  0  0  0  0
   59.0430   31.3700   48.6850 C   0  0  0  0  0  0  0  0  0  0  0  0
   59.6480   31.9670   47.4820 N   0  0  0  0  0  0  0  0  0  0  0  0
   61.0340   32.3770   47.4560 C   0  0  0  0  0  0  0  0  0  0  0  0
   62.0430   31.5670   48.0060 C   0  0  0  0  0  0  0  0  0  0  0  0
   63.3880   31.9070   47.8350 C   0  0  0  0  0  0  0  0  0  0  0  0
   63.7380   33.0440   47.1030 C   0  0  0  0  0  0  0  0  0  0  0  0
   62.7430   33.8580   46.5550 C   0  0  0  0  0  0  0  0  0  0  0  0
   61.3950   33.5360   46.7430 C   0  0  0  0  0  0  0  0  0  0  0  0
   60.1150   34.6550   46.1660 S   0  0  0  0  0  0  0  0  0  0  0  0
   59.0950   33.3310   45.5090 C   0  0  0  0  0  0  0  0  0  0  0  0
   58.4810   33.4740   44.2610 C   0  0  0  0  0  0  0  0  0  0  0  0
   57.6160   32.4830   43.7900 C   0  0  0  0  0  0  0  0  0  0  0  0
   57.3710   31.3420   44.5600 C   0  0  0  0  0  0  0  0  0  0  0  0
   56.3010   30.0910   43.9560 Cl  0  0  0  0  0  0  0  0  0  0  0  0
   58.0030   31.1830   45.7990 C   0  0  0  0  0  0  0  0  0  0  0  0
   58.8670   32.1800   46.2860 C   0  0  0  0  0  0  0  0  0  0  0  0
   57.9023   26.8411   44.4310 H   0  0  0  0  0  0  0  0  0  0  0  0
   57.8308   28.0542   43.1081 H   0  0  0  0  0  0  0  0  0  0  0  0
   59.1168   26.8001   43.1081 H   0  0  0  0  0  0  0  0  0  0  0  0
   60.1446   28.8409   43.8688 H   0  0  0  0  0  0  0  0  0  0  0  0
   58.7859   29.1600   45.0164 H   0  0  0  0  0  0  0  0  0  0  0  0
   60.0693   26.5300   45.4296 H   0  0  0  0  0  0  0  0  0  0  0  0
   61.1848   27.9841   45.6478 H   0  0  0  0  0  0  0  0  0  0  0  0
   60.2379   27.0646   48.9612 H   0  0  0  0  0  0  0  0  0  0  0  0
   60.0658   25.8241   47.6735 H   0  0  0  0  0  0  0  0  0  0  0  0
   61.4828   26.9280   47.6735 H   0  0  0  0  0  0  0  0  0  0  0  0
   57.7980   27.7673   48.0807 H   0  0  0  0  0  0  0  0  0  0  0  0
   57.7398   28.0496   46.2560 H   0  0  0  0  0  0  0  0  0  0  0  0
   57.6919   25.5022   47.8036 H   0  0  0  0  0  0  0  0  0  0  0  0
   56.8814   25.9647   46.2687 H   0  0  0  0  0  0  0  0  0  0  0  0
   58.6246   25.5310   46.2687 H   0  0  0  0  0  0  0  0  0  0  0  0
   60.9877   29.3304   47.6902 H   0  0  0  0  0  0  0  0  0  0  0  0
   59.5686   29.8400   46.5957 H   0  0  0  0  0  0  0  0  0  0  0  0
   58.1082   29.4270   48.6454 H   0  0  0  0  0  0  0  0  0  0  0  0
   59.6832   29.5366   49.5746 H   0  0  0  0  0  0  0  0  0  0  0  0
   57.9845   31.6651   48.7344 H   0  0  0  0  0  0  0  0  0  0  0  0
   59.5979   31.7344   49.5621 H   0  0  0  0  0  0  0  0  0  0  0  0
   61.7733   30.6634   48.5723 H   0  0  0  0  0  0  0  0  0  0  0  0
   64.1733   31.2771   48.2783 H   0  0  0  0  0  0  0  0  0  0  0  0
   64.7981   33.2990   46.9577 H   0  0  0  0  0  0  0  0  0  0  0  0
   63.0198   34.7515   45.9761 H   0  0  0  0  0  0  0  0  0  0  0  0
   58.6790   34.3669   43.6498 H   0  0  0  0  0  0  0  0  0  0  0  0
   57.1269   32.6007   42.8118 H   0  0  0  0  0  0  0  0  0  0  0  0
   57.8232   30.2752   46.3936 H   0  0  0  0  0  0  0  0  0  0  0  0
  1  2  1  0
  2  3  1  0
  4  3  1  6
  4  5  1  0
  4  6  1  0
  6  7  1  0
  4  8  1  0
  8  9  1  0
  9 10  1  0
 10 11  1  0
 11 12  1  0
 12 13  2  0
 13 14  1  0
 14 15  2  0
 15 16  1  0
 16 17  2  0
 17 18  1  0
 18 19  1  0
 19 20  2  0
 20 21  1  0
 21 22  2  0
 22 23  1  0
 22 24  1  0
 24 25  2  0
 25 11  1  0
 17 12  1  0
 25 19  1  0
  1 26  1  0
  1 27  1  0
  1 28  1  0
  2 29  1  0
  2 30  1  0
  3 31  1  0
  3 32  1  0
  5 33  1  0
  5 34  1  0
  5 35  1  0
  6 36  1  0
  6 37  1  0
  7 38  1  0
  7 39  1  0
  7 40  1  0
  8 41  1  0
  8 42  1  0
  9 43  1  0
  9 44  1  0
 10 45  1  0
 10 46  1  0
 13 47  1  0
 14 48  1  0
 15 49  1  0
 16 50  1  0
 20 51  1  0
 21 52  1  0
 24 53  1  0
M  CHG  1   4   1
M  END
>  <UniqueID>  (26) 
26

>  <SMILES>  (26) 
CCC[N@+](C)(CC)CCCN1c2ccccc2Sc2ccc(Cl)cc21

>  <Energy>  (26) 
86.03227909502691

>  <Genealogy>  (26) 
CCC[N@+](C)(CC)CCCN1c2ccccc2Sc2ccc(Cl)cc21 (chirality)
CCC[N@+](C)(CC)CCCN1c2ccccc2Sc2ccc(Cl)cc21 (3D coordinates assigned)
CCC[N@+](C)(CC)CCCN1c2ccccc2Sc2ccc(Cl)cc21 (nonaromatic ring conformer: 86.03227909502691 kcal/mol)

>  <smiles>  (26) 
CCC[N+](C)(CC)CCCN1c2ccccc2Sc2ccc(Cl)cc21

>  <score_type>  (26) 
oracle

>  <origin>  (26) 
adg

>  <m_score__min__energy>  (26) 
-6.4400000000000004

>  <m_primary>  (26) 
energy

$$$$
26:0
     RDKit          3D

 67 69  0  0  0  0  0  0  0  0999 V2000
   56.3670   29.8610   42.7870 C   0  0  0  0  0  0  0  0  0  0  0  0
   55.9700   30.4930   44.1170 C   0  0  0  0  0  0  0  0  0  0  0  0
   56.8650   30.0230   45.1820 N   0  0  0  0  0  0  0  0  0  0  0  0
   58.0980   29.4210   44.6450 C   0  0  0  0  0  0  0  0  0  0  0  0
   59.2810   29.4950   45.6220 C   0  0  0  0  0  0  0  0  0  0  0  0
   58.9020   30.2050   46.7810 O   0  0  0  0  0  0  0  0  0  0  0  0
   58.8870   29.3530   47.9120 C   0  0  0  0  0  0  0  0  0  0  0  0
   58.8920   30.2020   49.1820 C   0  0  0  0  0  0  0  0  0  0  0  0
   58.8560   31.6330   48.8660 N   0  0  0  0  0  0  0  0  0  0  0  0
   59.7260   32.5430   49.5590 C   0  0  0  0  0  0  0  0  0  0  0  0
   59.4470   32.8650   50.8980 C   0  0  0  0  0  0  0  0  0  0  0  0
   58.1590   32.6600   51.4400 C   0  0  0  0  0  0  0  0  0  0  0  0
   57.8750   33.0240   52.7550 C   0  0  0  0  0  0  0  0  0  0  0  0
   58.8610   33.6100   53.5430 C   0  0  0  0  0  0  0  0  0  0  0  0
   60.1440   33.8070   53.0300 C   0  0  0  0  0  0  0  0  0  0  0  0
   60.4740   33.3990   51.7130 C   0  0  0  0  0  0  0  0  0  0  0  0
   61.7630   33.4800   51.2240 N   0  0  0  0  0  0  0  0  0  0  0  0
   62.8980   33.6620   52.1580 C   0  0  0  0  0  0  0  0  0  0  0  0
   61.9930   33.3790   49.8630 C   0  0  0  0  0  0  0  0  0  0  0  0
   63.2620   33.6810   49.3110 C   0  0  0  0  0  0  0  0  0  0  0  0
   63.4960   33.5780   47.9470 C   0  0  0  0  0  0  0  0  0  0  0  0
   62.4590   33.2690   47.0820 C   0  0  0  0  0  0  0  0  0  0  0  0
   61.1630   33.0270   47.5650 C   0  0  0  0  0  0  0  0  0  0  0  0
   60.0880   33.0120   46.5930 N   0  0  0  0  0  0  0  0  0  0  0  0
   60.2860   34.0260   45.5320 C   0  0  0  0  0  0  0  0  0  0  0  0
   59.0680   34.9550   45.3960 C   0  0  0  0  0  0  0  0  0  0  0  0
   57.8790   34.2220   44.7580 C   0  0  0  0  0  0  0  0  0  0  0  0
   57.0480   33.4380   45.7870 C   0  0  0  0  0  0  0  0  0  0  0  0
   57.7420   32.2480   46.2790 N   0  0  0  0  0  0  0  0  0  0  0  0
   60.9430   32.9760   48.9810 C   0  0  0  0  0  0  0  0  0  0  0  0
   56.9435   28.9432   42.9748 H   0  0  0  0  0  0  0  0  0  0  0  0
   55.4614   29.6142   42.2135 H   0  0  0  0  0  0  0  0  0  0  0  0
   56.9824   30.5697   42.2135 H   0  0  0  0  0  0  0  0  0  0  0  0
   56.0426   31.5876   44.0365 H   0  0  0  0  0  0  0  0  0  0  0  0
   54.9365   30.2052   44.3599 H   0  0  0  0  0  0  0  0  0  0  0  0
   57.1030   30.8260   45.8130 H   0  0  0  0  0  0  0  0  0  0  0  0
   57.8998   28.3637   44.4150 H   0  0  0  0  0  0  0  0  0  0  0  0
   58.3778   29.9928   43.7479 H   0  0  0  0  0  0  0  0  0  0  0  0
   59.5873   28.4763   45.9020 H   0  0  0  0  0  0  0  0  0  0  0  0
   60.1201   30.0149   45.1366 H   0  0  0  0  0  0  0  0  0  0  0  0
   57.9813   28.7291   47.8904 H   0  0  0  0  0  0  0  0  0  0  0  0
   59.7758   28.7050   47.8977 H   0  0  0  0  0  0  0  0  0  0  0  0
   58.0099   29.9464   49.7874 H   0  0  0  0  0  0  0  0  0  0  0  0
   59.8185   29.9920   49.7365 H   0  0  0  0  0  0  0  0  0  0  0  0
   57.9620   32.0100   48.4780 H   0  0  0  0  0  0  0  0  0  0  0  0
   57.3721   32.2085   50.8180 H   0  0  0  0  0  0  0  0  0  0  0  0
   56.8716   32.8481   53.1700 H   0  0  0  0  0  0  0  0  0  0  0  0
   58.6286   33.9188   54.5729 H   0  0  0  0  0  0  0  0  0  0  0  0
   60.9105   34.2860   53.6569 H   0  0  0  0  0  0  0  0  0  0  0  0
   62.5332   33.6035   53.1941 H   0  0  0  0  0  0  0  0  0  0  0  0
   63.6441   32.8720   51.9868 H   0  0  0  0  0  0  0  0  0  0  0  0
   63.3597   34.6456   51.9868 H   0  0  0  0  0  0  0  0  0  0  0  0
   64.0771   34.0031   49.9758 H   0  0  0  0  0  0  0  0  0  0  0  0
   64.5090   33.7424   47.5511 H   0  0  0  0  0  0  0  0  0  0  0  0
   62.6538   33.2124   46.0009 H   0  0  0  0  0  0  0  0  0  0  0  0
   59.9570   32.0630   46.1800 H   0  0  0  0  0  0  0  0  0  0  0  0
   59.1930   33.1860   47.1080 H   0  0  0  0  0  0  0  0  0  0  0  0
   61.1702   34.6319   45.7790 H   0  0  0  0  0  0  0  0  0  0  0  0
   60.4226   33.4989   44.5762 H   0  0  0  0  0  0  0  0  0  0  0  0
   58.7756   35.3118   46.3946 H   0  0  0  0  0  0  0  0  0  0  0  0
   59.3448   35.7997   44.7480 H   0  0  0  0  0  0  0  0  0  0  0  0
   57.2285   34.9631   44.2705 H   0  0  0  0  0  0  0  0  0  0  0  0
   58.2825   33.4986   44.0341 H   0  0  0  0  0  0  0  0  0  0  0  0
   56.8302   34.0972   46.6402 H   0  0  0  0  0  0  0  0  0  0  0  0
   56.1264   33.1045   45.2875 H   0  0  0  0  0  0  0  0  0  0  0  0
   58.1830   31.7480   45.4740 H   0  0  0  0  0  0  0  0  0  0  0  0
   57.0490   31.6030   46.7270 H   0  0  0  0  0  0  0  0  0  0  0  0
  1  2  1  0
  2  3  1  0
  3  4  1  0
  4  5  1  0
  5  6  1  0
  6  7  1  0
  7  8  1  0
  8  9  1  0
  9 10  1  0
 10 11  2  0
 11 12  1  0
 12 13  2  0
 13 14  1  0
 14 15  2  0
 15 16  1  0
 16 17  2  0
 17 18  1  0
 17 19  1  0
 19 20  2  0
 20 21  1  0
 21 22  2  0
 22 23  1  0
 23 24  1  0
 24 25  1  0
 25 26  1  0
 26 27  1  0
 27 28  1  0
 28 29  1  0
 23 30  2  0
 30 10  1  0
 16 11  1  0
 30 19  1  0
  1 31  1  0
  1 32  1  0
  1 33  1  0
  2 34  1  0
  2 35  1  0
  3 36  1  0
  4 37  1  0
  4 38  1  0
  5 39  1  0
  5 40  1  0
  7 41  1  0
  7 42  1  0
  8 43  1  0
  8 44  1  0
  9 45  1  0
 12 46  1  0
 13 47  1  0
 14 48  1  0
 15 49  1  0
 18 50  1  0
 18 51  1  0
 18 52  1  0
 20 53  1  0
 21 54  1  0
 22 55  1  0
 24 56  1  0
 24 57  1  0
 25 58  1  0
 25 59  1  0
 26 60  1  0
 26 61  1  0
 27 62  1  0
 27 63  1  0
 28 64  1  0
 28 65  1  0
 29 66  1  0
 29 67  1  0
M  CHG  2  17   1  24   1
M  END
>  <UniqueID>  (27) 
27

>  <SMILES>  (27) 
CCNCCOCCNc1c2ccccc2[n+](C)c2cccc([NH2+]CCCCN)c12

>  <Energy>  (27) 
100.72391919172357

>  <Genealogy>  (27) 
CCNCCOCCNc1c2ccccc2[n+](C)c2cccc([NH2+]CCCCN)c12 (protonated)
CCNCCOCCNc1c2ccccc2[n+](C)c2cccc([NH2+]CCCCN)c12 (3D coordinates assigned)
CCNCCOCCNc1c2ccccc2[n+](C)c2cccc([NH2+]CCCCN)c12 (optimized conformer: 100.72391919172357 kcal/mol)

>  <smiles>  (27) 
CCNCCOCCNc1c2ccccc2[n+](C)c2cccc(NCCCCN)c12

>  <score_type>  (27) 
oracle

>  <origin>  (27) 
adg

>  <m_score__min__energy>  (27) 
-3.1699999999999999

>  <m_primary>  (27) 
energy

$$$$
27:0
     RDKit          3D

 67 69  0  0  0  0  0  0  0  0999 V2000
   56.5660   30.4020   42.9430 C   0  0  0  0  0  0  0  0  0  0  0  0
   55.4660   30.0320   43.9550 C   0  0  0  0  0  0  0  0  0  0  0  0
   55.8790   28.9570   44.8750 N   0  0  0  0  0  0  0  0  0  0  0  0
   57.2170   28.4190   44.5610 C   0  0  0  0  0  0  0  0  0  0  0  0
   58.2640   28.8250   45.6250 C   0  0  0  0  0  0  0  0  0  0  0  0
   57.7180   29.7630   46.6360 N   0  0  0  0  0  0  0  0  0  0  0  0
   58.6670   30.8260   46.9490 C   0  0  0  0  0  0  0  0  0  0  0  0
   58.5490   32.0960   46.3300 C   0  0  0  0  0  0  0  0  0  0  0  0
   57.4120   32.4500   45.5610 C   0  0  0  0  0  0  0  0  0  0  0  0
   57.3580   33.6560   44.8670 C   0  0  0  0  0  0  0  0  0  0  0  0
   58.4510   34.5100   44.8740 C   0  0  0  0  0  0  0  0  0  0  0  0
   59.5620   34.2110   45.6640 C   0  0  0  0  0  0  0  0  0  0  0  0
   59.5970   33.0510   46.4830 C   0  0  0  0  0  0  0  0  0  0  0  0
   60.6260   32.8210   47.3720 N   0  0  0  0  0  0  0  0  0  0  0  0
   61.5960   33.8970   47.6900 C   0  0  0  0  0  0  0  0  0  0  0  0
   60.7250   31.6100   48.0310 C   0  0  0  0  0  0  0  0  0  0  0  0
   61.7820   31.3540   48.9380 C   0  0  0  0  0  0  0  0  0  0  0  0
   61.7790   30.2320   49.7630 C   0  0  0  0  0  0  0  0  0  0  0  0
   62.6890   30.1590   50.8170 O   0  0  0  0  0  0  0  0  0  0  0  0
   62.2130   30.1750   52.1570 C   0  0  0  0  0  0  0  0  0  0  0  0
   63.3270   29.8790   53.1800 C   0  0  0  0  0  0  0  0  0  0  0  0
   64.1550   28.6530   52.9260 N   0  0  0  0  0  0  0  0  0  0  0  0
   64.7770   28.1290   54.1710 C   0  0  0  0  0  0  0  0  0  0  0  0
   63.2680   27.6040   52.3740 C   0  0  0  0  0  0  0  0  0  0  0  0
   65.2150   28.9270   51.9200 C   0  0  0  0  0  0  0  0  0  0  0  0
   60.8190   29.2500   49.5990 C   0  0  0  0  0  0  0  0  0  0  0  0
   60.8770   28.1140   50.4270 O   0  0  0  0  0  0  0  0  0  0  0  0
   60.7810   26.7710   49.9580 C   0  0  0  0  0  0  0  0  0  0  0  0
   59.8150   29.4170   48.6310 C   0  0  0  0  0  0  0  0  0  0  0  0
   59.7330   30.6060   47.8590 C   0  0  0  0  0  0  0  0  0  0  0  0
   57.4740   30.7074   43.4837 H   0  0  0  0  0  0  0  0  0  0  0  0
   56.7913   29.5302   42.3112 H   0  0  0  0  0  0  0  0  0  0  0  0
   56.2186   31.2327   42.3112 H   0  0  0  0  0  0  0  0  0  0  0  0
   55.2169   30.9253   44.5466 H   0  0  0  0  0  0  0  0  0  0  0  0
   54.5987   29.6672   43.3851 H   0  0  0  0  0  0  0  0  0  0  0  0
   55.1460   28.2120   44.8620 H   0  0  0  0  0  0  0  0  0  0  0  0
   57.1586   27.3213   44.5197 H   0  0  0  0  0  0  0  0  0  0  0  0
   57.5341   28.8349   43.5933 H   0  0  0  0  0  0  0  0  0  0  0  0
   58.6134   27.9175   46.1392 H   0  0  0  0  0  0  0  0  0  0  0  0
   59.0853   29.3389   45.1041 H   0  0  0  0  0  0  0  0  0  0  0  0
   57.4140   29.2730   47.5120 H   0  0  0  0  0  0  0  0  0  0  0  0
   56.8190   30.1740   46.2890 H   0  0  0  0  0  0  0  0  0  0  0  0
   56.5570   31.7596   45.5116 H   0  0  0  0  0  0  0  0  0  0  0  0
   56.4484   33.9315   44.3131 H   0  0  0  0  0  0  0  0  0  0  0  0
   58.4421   35.4213   44.2580 H   0  0  0  0  0  0  0  0  0  0  0  0
   60.4289   34.8880   45.6522 H   0  0  0  0  0  0  0  0  0  0  0  0
   61.6869   33.9978   48.7816 H   0  0  0  0  0  0  0  0  0  0  0  0
   62.5773   33.6442   47.2621 H   0  0  0  0  0  0  0  0  0  0  0  0
   61.2432   34.8470   47.2621 H   0  0  0  0  0  0  0  0  0  0  0  0
   62.6254   32.0581   48.9922 H   0  0  0  0  0  0  0  0  0  0  0  0
   61.7923   31.1687   52.3705 H   0  0  0  0  0  0  0  0  0  0  0  0
   61.4523   29.3862   52.2520 H   0  0  0  0  0  0  0  0  0  0  0  0
   64.0058   30.7444   53.1960 H   0  0  0  0  0  0  0  0  0  0  0  0
   62.8085   29.6906   54.1317 H   0  0  0  0  0  0  0  0  0  0  0  0
   64.2663   28.5592   55.0452 H   0  0  0  0  0  0  0  0  0  0  0  0
   64.6837   27.0332   54.1944 H   0  0  0  0  0  0  0  0  0  0  0  0
   65.8410   28.4070   54.1944 H   0  0  0  0  0  0  0  0  0  0  0  0
   62.7987   27.0489   53.1996 H   0  0  0  0  0  0  0  0  0  0  0  0
   62.4873   28.0717   51.7561 H   0  0  0  0  0  0  0  0  0  0  0  0
   63.8590   26.9119   51.7561 H   0  0  0  0  0  0  0  0  0  0  0  0
   66.1558   29.1702   52.4356 H   0  0  0  0  0  0  0  0  0  0  0  0
   65.3615   28.0372   51.2901 H   0  0  0  0  0  0  0  0  0  0  0  0
   64.9119   29.7763   51.2901 H   0  0  0  0  0  0  0  0  0  0  0  0
   60.7320   26.0853   50.8168 H   0  0  0  0  0  0  0  0  0  0  0  0
   59.8726   26.6598   49.3477 H   0  0  0  0  0  0  0  0  0  0  0  0
   61.6643   26.5317   49.3477 H   0  0  0  0  0  0  0  0  0  0  0  0
   59.0808   28.6142   48.4684 H   0  0  0  0  0  0  0  0  0  0  0  0
  1  2  1  0
  2  3  1  0
  3  4  1  0
  4  5  1  0
  5  6  1  0
  6  7  1  0
  7  8  2  0
  8  9  1  0
  9 10  2  0
 10 11  1  0
 11 12  2  0
 12 13  1  0
 13 14  2  0
 14 15  1  0
 14 16  1  0
 16 17  2  0
 17 18  1  0
 18 19  1  0
 19 20  1  0
 20 21  1  0
 21 22  1  0
 22 23  1  0
 22 24  1  0
 22 25  1  0
 18 26  2  0
 26 27  1  0
 27 28  1  0
 26 29  1  0
 29 30  2  0
 30  7  1  0
 13  8  1  0
 30 16  1  0
  1 31  1  0
  1 32  1  0
  1 33  1  0
  2 34  1  0
  2 35  1  0
  3 36  1  0
  4 37  1  0
  4 38  1  0
  5 39  1  0
  5 40  1  0
  6 41  1  0
  6 42  1  0
  9 43  1  0
 10 44  1  0
 11 45  1  0
 12 46  1  0
 15 47  1  0
 15 48  1  0
 15 49  1  0
 17 50  1  0
 20 51  1  0
 20 52  1  0
 21 53  1  0
 21 54  1  0
 23 55  1  0
 23 56  1  0
 23 57  1  0
 24 58  1  0
 24 59  1  0
 24 60  1  0
 25 61  1  0
 25 62  1  0
 25 63  1  0
 28 64  1  0
 28 65  1  0
 28 66  1  0
 29 67  1  0
M  CHG  3   6   1  14   1  22   1
M  END
>  <UniqueID>  (28) 
28

>  <SMILES>  (28) 
CCNCC[NH2+]c1c2ccccc2[n+](C)c2cc(OCC[N+](C)(C)C)c(OC)cc12

>  <Energy>  (28) 
118.75185617218828

>  <Genealogy>  (28) 
CCNCC[NH2+]c1c2ccccc2[n+](C)c2cc(OCC[N+](C)(C)C)c(OC)cc12 (protonated)
CCNCC[NH2+]c1c2ccccc2[n+](C)c2cc(OCC[N+](C)(C)C)c(OC)cc12 (3D coordinates assigned)
CCNCC[NH2+]c1c2ccccc2[n+](C)c2cc(OCC[N+](C)(C)C)c(OC)cc12 (optimized conformer: 118.75185617218828 kcal/mol)

>  <smiles>  (28) 
CCNCCNc1c2ccccc2[n+](C)c2cc(OCC[N+](C)(C)C)c(OC)cc12

>  <score_type>  (28) 
oracle

>  <origin>  (28) 
adg

>  <m_score__min__energy>  (28) 
-2.6200000000000001

>  <m_primary>  (28) 
energy

$$$$
