0:0
     RDKit          3D

 44 46  0  0  0  0  0  0  0  0999 V2000
   61.4530   34.5820   49.0810 C   0  0  0  0  0  0  0  0  0  0  0  0
   60.6530   33.5660   48.3220 C   0  0  0  0  0  0  0  0  0  0  0  0
   59.2570   33.6830   48.2410 C   0  0  0  0  0  0  0  0  0  0  0  0
   58.5150   32.7570   47.5030 C   0  0  0  0  0  0  0  0  0  0  0  0
   59.1560   31.7010   46.8350 C   0  0  0  0  0  0  0  0  0  0  0  0
   58.3810   30.7680   46.0610 N   0  0  0  0  0  0  0  0  0  0  0  0
   57.4440   31.1520   45.2050 N   0  0  0  0  0  0  0  0  0  0  0  0
   56.9010   30.0470   44.6590 C   0  0  0  0  0  0  0  0  0  0  0  0
   55.7650   30.0650   43.6900 C   0  0  0  0  0  0  0  0  0  0  0  0
   57.5110   28.9280   45.1900 C   0  0  0  0  0  0  0  0  0  0  0  0
   57.1400   27.5640   44.9450 N   0  0  0  0  0  0  0  0  0  0  0  0
   58.0810   26.4810   44.9920 C   0  0  0  0  0  0  0  0  0  0  0  0
   59.3150   26.7250   44.8940 O   0  0  0  0  0  0  0  0  0  0  0  0
   57.6200   25.0760   45.1120 C   0  0  0  0  0  0  0  0  0  0  0  0
   57.8050   24.3580   46.3060 C   0  0  0  0  0  0  0  0  0  0  0  0
   57.3760   23.0330   46.4070 C   0  0  0  0  0  0  0  0  0  0  0  0
   56.7600   22.4080   45.3210 C   0  0  0  0  0  0  0  0  0  0  0  0
   56.5710   23.1010   44.1150 C   0  0  0  0  0  0  0  0  0  0  0  0
   55.9410   22.4510   42.9950 N   0  0  0  0  0  0  0  0  0  0  0  0
   56.3100   21.3170   42.6260 O   0  0  0  0  0  0  0  0  0  0  0  0
   54.9180   23.0690   42.3120 O   0  0  0  0  0  0  0  0  0  0  0  0
   57.0080   24.4360   44.0190 C   0  0  0  0  0  0  0  0  0  0  0  0
   58.4350   29.4130   46.1020 C   0  0  0  0  0  0  0  0  0  0  0  0
   59.2310   28.6020   47.0830 C   0  0  0  0  0  0  0  0  0  0  0  0
   60.5570   31.6100   46.8860 C   0  0  0  0  0  0  0  0  0  0  0  0
   61.2990   32.5350   47.6240 C   0  0  0  0  0  0  0  0  0  0  0  0
   61.3239   34.4180   50.1610 H   0  0  0  0  0  0  0  0  0  0  0  0
   62.5167   34.4810   48.8194 H   0  0  0  0  0  0  0  0  0  0  0  0
   61.1054   35.5923   48.8194 H   0  0  0  0  0  0  0  0  0  0  0  0
   58.7450   34.5065   48.7603 H   0  0  0  0  0  0  0  0  0  0  0  0
   57.4210   32.8559   47.4449 H   0  0  0  0  0  0  0  0  0  0  0  0
   54.8132   30.0801   44.2411 H   0  0  0  0  0  0  0  0  0  0  0  0
   55.8367   30.9621   43.0575 H   0  0  0  0  0  0  0  0  0  0  0  0
   55.8083   29.1661   43.0575 H   0  0  0  0  0  0  0  0  0  0  0  0
   56.1880   27.3810   44.5580 H   0  0  0  0  0  0  0  0  0  0  0  0
   58.2905   24.8426   47.1659 H   0  0  0  0  0  0  0  0  0  0  0  0
   57.5240   22.4794   47.3459 H   0  0  0  0  0  0  0  0  0  0  0  0
   56.4205   21.3656   45.4111 H   0  0  0  0  0  0  0  0  0  0  0  0
   56.8690   24.9860   43.0766 H   0  0  0  0  0  0  0  0  0  0  0  0
   58.9507   28.8876   48.1076 H   0  0  0  0  0  0  0  0  0  0  0  0
   59.0218   27.5330   46.9301 H   0  0  0  0  0  0  0  0  0  0  0  0
   60.3038   28.7912   46.9301 H   0  0  0  0  0  0  0  0  0  0  0  0
   61.0727   30.8054   46.3414 H   0  0  0  0  0  0  0  0  0  0  0  0
   62.3955   32.4546   47.6580 H   0  0  0  0  0  0  0  0  0  0  0  0
  1  2  1  0
  2  3  2  0
  3  4  1  0
  4  5  2  0
  5  6  1  0
  6  7  1  0
  7  8  2  0
  8  9  1  0
  8 10  1  0
 10 11  1  0
 11 12  1  0
 12 13  2  0
 12 14  1  0
 14 15  2  0
 15 16  1  0
 16 17  2  0
 17 18  1  0
 18 19  1  0
 19 20  2  0
 19 21  1  0
 18 22  2  0
 10 23  2  0
 23 24  1  0
  5 25  1  0
 25 26  2  0
 26  2  1  0
 23  6  1  0
 22 14  1  0
  1 27  1  0
  1 28  1  0
  1 29  1  0
  3 30  1  0
  4 31  1  0
  9 32  1  0
  9 33  1  0
  9 34  1  0
 11 35  1  0
 15 36  1  0
 16 37  1  0
 17 38  1  0
 22 39  1  0
 24 40  1  0
 24 41  1  0
 24 42  1  0
 25 43  1  0
 26 44  1  0
M  CHG  2  19   1  21  -1
M  END
>  <UniqueID>  (1) 
1

>  <SMILES>  (1) 
Cc1ccc(-n2nc(C)c(NC(=O)c3cccc([N+](=O)[O-])c3)c2C)cc1

>  <Energy>  (1) 
87.29122340454799

>  <Genealogy>  (1) 
Cc1ccc(-n2nc(C)c(NC(=O)c3cccc([N+](=O)[O-])c3)c2C)cc1 (3D coordinates assigned)
Cc1ccc(-n2nc(C)c(NC(=O)c3cccc([N+](=O)[O-])c3)c2C)cc1 (optimized conformer: 87.29122340454799 kcal/mol)

>  <smiles>  (1) 
Cc1ccc(-n2nc(C)c(NC(=O)c3cccc([N+](=O)[O-])c3)c2C)cc1

>  <score_type>  (1) 
oracle

>  <origin>  (1) 
adg

>  <m_score__min__energy>  (1) 
-8.4600000000000009

>  <m_primary>  (1) 
energy

$$$$
1:0
     RDKit          3D

 66 70  0  0  0  0  0  0  0  0999 V2000
   62.2650   30.9110   52.0430 C   0  0  0  0  0  0  0  0  0  0  0  0
   60.8780   30.6220   51.9220 O   0  0  0  0  0  0  0  0  0  0  0  0
   60.3370   29.9680   50.8100 C   0  0  0  0  0  0  0  0  0  0  0  0
   61.1070   29.0260   50.1240 C   0  0  0  0  0  0  0  0  0  0  0  0
   60.5710   28.3820   49.0090 C   0  0  0  0  0  0  0  0  0  0  0  0
   59.2640   28.6720   48.5800 C   0  0  0  0  0  0  0  0  0  0  0  0
   58.6640   28.0430   47.3260 C   0  0  2  0  0  0  0  0  0  0  0  0
   58.5580   26.4940   47.4220 C   0  0  0  0  0  0  0  0  0  0  0  0
   59.4220   25.7680   46.3810 C   0  0  0  0  0  0  0  0  0  0  0  0
   60.7570   26.3710   46.3220 N   0  0  0  0  0  0  0  0  0  0  0  0
   60.7460   27.7610   45.8230 C   0  0  0  0  0  0  0  0  0  0  0  0
   59.3910   28.4910   46.0310 C   0  0  2  0  0  0  0  0  0  0  0  0
   59.5200   30.0050   45.9550 C   0  0  0  0  0  0  0  0  0  0  0  0
   60.5750   30.5570   46.3730 O   0  0  0  0  0  0  0  0  0  0  0  0
   58.4260   30.8340   45.5000 N   0  0  0  0  0  0  0  0  0  0  0  0
   57.7700   31.7560   46.4540 C   0  0  0  0  0  0  0  0  0  0  0  0
   58.7540   32.7790   46.9840 C   0  0  0  0  0  0  0  0  0  0  0  0
   59.1520   32.7000   48.3310 C   0  0  0  0  0  0  0  0  0  0  0  0
   60.1090   33.5830   48.8540 C   0  0  0  0  0  0  0  0  0  0  0  0
   60.5480   33.4650   50.2900 C   0  0  0  0  0  0  0  0  0  0  0  0
   59.4110   33.1000   51.1440 N   0  0  0  0  0  0  0  0  0  0  0  0
   59.5960   33.6730   52.4770 C   0  0  0  0  0  0  0  0  0  0  0  0
   58.5370   33.2050   53.4630 C   0  0  0  0  0  0  0  0  0  0  0  0
   58.4860   34.6200   52.9050 C   0  0  0  0  0  0  0  0  0  0  0  0
   60.6250   34.5970   48.0350 C   0  0  0  0  0  0  0  0  0  0  0  0
   60.2030   34.7150   46.7090 C   0  0  0  0  0  0  0  0  0  0  0  0
   59.2720   33.8180   46.1760 C   0  0  0  0  0  0  0  0  0  0  0  0
   58.7870   34.0400   44.4960 Cl  0  0  0  0  0  0  0  0  0  0  0  0
   58.0460   30.6830   44.0750 C   0  0  0  0  0  0  0  0  0  0  0  0
   56.5700   30.8540   43.7420 C   0  0  0  0  0  0  0  0  0  0  0  0
   57.2080   29.4650   43.7130 C   0  0  0  0  0  0  0  0  0  0  0  0
   58.5270   29.6260   49.3050 C   0  0  0  0  0  0  0  0  0  0  0  0
   59.0720   30.2420   50.3870 N   0  0  0  0  0  0  0  0  0  0  0  0
   62.5363   30.9675   53.1075 H   0  0  0  0  0  0  0  0  0  0  0  0
   62.8491   30.1153   51.5575 H   0  0  0  0  0  0  0  0  0  0  0  0
   62.4826   31.8738   51.5575 H   0  0  0  0  0  0  0  0  0  0  0  0
   62.1282   28.7938   50.4605 H   0  0  0  0  0  0  0  0  0  0  0  0
   61.1746   27.6427   48.4620 H   0  0  0  0  0  0  0  0  0  0  0  0
   57.6345   28.4253   47.2628 H   0  0  0  0  0  0  0  0  0  0  0  0
   58.8823   26.1820   48.4257 H   0  0  0  0  0  0  0  0  0  0  0  0
   57.5100   26.2231   47.2264 H   0  0  0  0  0  0  0  0  0  0  0  0
   59.5140   24.7081   46.6606 H   0  0  0  0  0  0  0  0  0  0  0  0
   58.9445   25.8558   45.3940 H   0  0  0  0  0  0  0  0  0  0  0  0
   61.3510   25.7910   45.6840 H   0  0  0  0  0  0  0  0  0  0  0  0
   61.5286   28.3253   46.3513 H   0  0  0  0  0  0  0  0  0  0  0  0
   60.9209   27.7133   44.7381 H   0  0  0  0  0  0  0  0  0  0  0  0
   58.7569   28.1843   45.1861 H   0  0  0  0  0  0  0  0  0  0  0  0
   56.9485   32.2786   45.9422 H   0  0  0  0  0  0  0  0  0  0  0  0
   57.3848   31.1687   47.3006 H   0  0  0  0  0  0  0  0  0  0  0  0
   58.7065   31.9349   48.9838 H   0  0  0  0  0  0  0  0  0  0  0  0
   61.3244   32.6898   50.3692 H   0  0  0  0  0  0  0  0  0  0  0  0
   60.9471   34.4348   50.6221 H   0  0  0  0  0  0  0  0  0  0  0  0
   59.4090   32.0590   51.2580 H   0  0  0  0  0  0  0  0  0  0  0  0
   60.6946   33.7273   52.4639 H   0  0  0  0  0  0  0  0  0  0  0  0
   57.7857   32.4639   53.1527 H   0  0  0  0  0  0  0  0  0  0  0  0
   58.5527   32.7666   54.4717 H   0  0  0  0  0  0  0  0  0  0  0  0
   57.6977   34.9018   52.1914 H   0  0  0  0  0  0  0  0  0  0  0  0
   58.4495   35.6282   53.3433 H   0  0  0  0  0  0  0  0  0  0  0  0
   61.3657   35.3030   48.4387 H   0  0  0  0  0  0  0  0  0  0  0  0
   60.6066   35.5207   46.0782 H   0  0  0  0  0  0  0  0  0  0  0  0
   58.9842   31.1182   43.7003 H   0  0  0  0  0  0  0  0  0  0  0  0
   55.8534   31.1141   44.5350 H   0  0  0  0  0  0  0  0  0  0  0  0
   55.9986   31.4636   43.0265 H   0  0  0  0  0  0  0  0  0  0  0  0
   56.9506   28.7249   44.4850 H   0  0  0  0  0  0  0  0  0  0  0  0
   57.2864   28.6597   42.9678 H   0  0  0  0  0  0  0  0  0  0  0  0
   57.5018   29.8753   48.9938 H   0  0  0  0  0  0  0  0  0  0  0  0
  1  2  1  0
  2  3  1  0
  3  4  2  0
  4  5  1  0
  5  6  2  0
  6  7  1  0
  7  8  1  0
  8  9  1  0
  9 10  1  0
 10 11  1  0
 11 12  1  0
 12 13  1  0
 13 14  2  0
 13 15  1  0
 15 16  1  0
 16 17  1  0
 17 18  2  0
 18 19  1  0
 19 20  1  0
 20 21  1  0
 21 22  1  0
 22 23  1  0
 23 24  1  0
 19 25  2  0
 25 26  1  0
 26 27  2  0
 27 28  1  0
 15 29  1  0
 29 30  1  0
 30 31  1  0
  6 32  1  0
 32 33  2  0
 33  3  1  0
 12  7  1  0
 27 17  1  0
 31 29  1  0
 24 22  1  0
  1 34  1  0
  1 35  1  0
  1 36  1  0
  4 37  1  0
  5 38  1  0
  7 39  1  6
  8 40  1  0
  8 41  1  0
  9 42  1  0
  9 43  1  0
 10 44  1  0
 11 45  1  0
 11 46  1  0
 12 47  1  6
 16 48  1  0
 16 49  1  0
 18 50  1  0
 20 51  1  0
 20 52  1  0
 21 53  1  0
 22 54  1  0
 23 55  1  0
 23 56  1  0
 24 57  1  0
 24 58  1  0
 25 59  1  0
 26 60  1  0
 29 61  1  0
 30 62  1  0
 30 63  1  0
 31 64  1  0
 31 65  1  0
 32 66  1  0
M  END
>  <UniqueID>  (2) 
2

>  <SMILES>  (2) 
COc1ccc([C@@H]2CCNC[C@@H]2C(=O)N(Cc2cc(CNC3CC3)ccc2Cl)C2CC2)cn1

>  <Energy>  (2) 
611.4042645297081

>  <Genealogy>  (2) 
COc1ccc([C@@H]2CCNC[C@@H]2C(=O)N(Cc2cc(CNC3CC3)ccc2Cl)C2CC2)cn1 (chirality)
COc1ccc([C@@H]2CCNC[C@@H]2C(=O)N(Cc2cc(CNC3CC3)ccc2Cl)C2CC2)cn1 (3D coordinates assigned)
COc1ccc([C@@H]2CCNC[C@@H]2C(=O)N(Cc2cc(CNC3CC3)ccc2Cl)C2CC2)cn1 (nonaromatic ring conformer: 611.4042645297081 kcal/mol)

>  <smiles>  (2) 
COc1ccc(C2CCNCC2C(=O)N(Cc2cc(CNC3CC3)ccc2Cl)C2CC2)cn1

>  <score_type>  (2) 
oracle

>  <origin>  (2) 
adg

>  <m_score__min__energy>  (2) 
-8.8200000000000003

>  <m_primary>  (2) 
energy

$$$$
2:0
     RDKit          3D

 44 47  0  0  0  0  0  0  0  0999 V2000
   63.5960   29.9460   51.5380 C   0  0  0  0  0  0  0  0  0  0  0  0
   62.3590   29.3360   51.1850 O   0  0  0  0  0  0  0  0  0  0  0  0
   61.5150   29.7890   50.1600 C   0  0  0  0  0  0  0  0  0  0  0  0
   60.2490   29.2290   49.9230 C   0  0  0  0  0  0  0  0  0  0  0  0
   59.4490   29.7030   48.8800 C   0  0  0  0  0  0  0  0  0  0  0  0
   59.9100   30.7240   48.0260 C   0  0  0  0  0  0  0  0  0  0  0  0
   61.1450   31.3430   48.3240 C   0  0  0  0  0  0  0  0  0  0  0  0
   61.9510   30.8490   49.3610 C   0  0  0  0  0  0  0  0  0  0  0  0
   61.5930   32.5360   47.5220 C   0  0  0  0  0  0  0  0  0  0  0  0
   60.3810   33.4200   47.1820 C   0  0  1  0  0  0  0  0  0  0  0  0
   60.8110   34.5700   46.3680 N   0  0  0  0  0  0  0  0  0  0  0  0
   59.6510   35.3760   45.9750 C   0  0  0  0  0  0  0  0  0  0  0  0
   58.7390   34.5930   45.0230 C   0  0  0  0  0  0  0  0  0  0  0  0
   58.5070   33.1760   45.4890 C   0  0  0  0  0  0  0  0  0  0  0  0
   57.5340   32.4070   44.8510 C   0  0  0  0  0  0  0  0  0  0  0  0
   57.3580   31.0480   45.1650 C   0  0  0  0  0  0  0  0  0  0  0  0
   56.3900   30.2800   44.4980 O   0  0  0  0  0  0  0  0  0  0  0  0
   56.4760   29.8470   43.1440 C   0  0  0  0  0  0  0  0  0  0  0  0
   58.1700   30.4520   46.1650 C   0  0  0  0  0  0  0  0  0  0  0  0
   58.1400   29.0710   46.4450 O   0  0  0  0  0  0  0  0  0  0  0  0
   58.8110   28.0350   45.7360 C   0  0  0  0  0  0  0  0  0  0  0  0
   59.0890   31.2570   46.8890 C   0  0  0  0  0  0  0  0  0  0  0  0
   59.3120   32.5930   46.4840 C   0  0  0  0  0  0  0  0  0  0  0  0
   63.6840   29.9894   52.6336 H   0  0  0  0  0  0  0  0  0  0  0  0
   64.4271   29.3544   51.1266 H   0  0  0  0  0  0  0  0  0  0  0  0
   63.6327   30.9655   51.1266 H   0  0  0  0  0  0  0  0  0  0  0  0
   59.8847   28.4117   50.5628 H   0  0  0  0  0  0  0  0  0  0  0  0
   58.4481   29.2741   48.7241 H   0  0  0  0  0  0  0  0  0  0  0  0
   62.9365   31.3010   49.5468 H   0  0  0  0  0  0  0  0  0  0  0  0
   62.3174   33.1196   48.1091 H   0  0  0  0  0  0  0  0  0  0  0  0
   62.0638   32.1909   46.5897 H   0  0  0  0  0  0  0  0  0  0  0  0
   59.9391   33.8158   48.1083 H   0  0  0  0  0  0  0  0  0  0  0  0
   61.2920   34.2280   45.5010 H   0  0  0  0  0  0  0  0  0  0  0  0
   59.0814   35.6506   46.8751 H   0  0  0  0  0  0  0  0  0  0  0  0
   60.0086   36.2781   45.4571 H   0  0  0  0  0  0  0  0  0  0  0  0
   57.7690   35.1077   44.9589 H   0  0  0  0  0  0  0  0  0  0  0  0
   59.2351   34.5481   44.0422 H   0  0  0  0  0  0  0  0  0  0  0  0
   56.8925   32.8723   44.0881 H   0  0  0  0  0  0  0  0  0  0  0  0
   56.6902   28.7684   43.1169 H   0  0  0  0  0  0  0  0  0  0  0  0
   55.5212   30.0441   42.6347 H   0  0  0  0  0  0  0  0  0  0  0  0
   57.2830   30.3940   42.6347 H   0  0  0  0  0  0  0  0  0  0  0  0
   59.2647   27.3346   46.4527 H   0  0  0  0  0  0  0  0  0  0  0  0
   58.0896   27.4967   45.1037 H   0  0  0  0  0  0  0  0  0  0  0  0
   59.5973   28.4732   45.1037 H   0  0  0  0  0  0  0  0  0  0  0  0
  1  2  1  0
  2  3  1  0
  3  4  2  0
  4  5  1  0
  5  6  2  0
  6  7  1  0
  7  8  2  0
  7  9  1  0
  9 10  1  0
 10 11  1  0
 11 12  1  0
 12 13  1  0
 13 14  1  0
 14 15  1  0
 15 16  2  0
 16 17  1  0
 17 18  1  0
 16 19  1  0
 19 20  1  0
 20 21  1  0
 19 22  2  0
 22 23  1  0
  8  3  1  0
 23 10  1  0
 22  6  1  0
 23 14  2  0
  1 24  1  0
  1 25  1  0
  1 26  1  0
  4 27  1  0
  5 28  1  0
  8 29  1  0
  9 30  1  0
  9 31  1  0
 10 32  1  1
 11 33  1  0
 12 34  1  0
 12 35  1  0
 13 36  1  0
 13 37  1  0
 15 38  1  0
 18 39  1  0
 18 40  1  0
 18 41  1  0
 21 42  1  0
 21 43  1  0
 21 44  1  0
M  END
>  <UniqueID>  (3) 
3

>  <SMILES>  (3) 
COc1ccc2c(c1)C[C@H]1NCCc3cc(OC)c(OC)c-2c31

>  <Energy>  (3) 
61.34614258408857

>  <Genealogy>  (3) 
COc1ccc2c(c1)C[C@H]1NCCc3cc(OC)c(OC)c-2c31 (chirality)
COc1ccc2c(c1)C[C@H]1NCCc3cc(OC)c(OC)c-2c31 (3D coordinates assigned)
COc1ccc2c(c1)C[C@H]1NCCc3cc(OC)c(OC)c-2c31 (nonaromatic ring conformer: 61.34614258408857 kcal/mol)

>  <smiles>  (3) 
COc1ccc2c(c1)CC1NCCc3cc(OC)c(OC)c-2c31

>  <score_type>  (3) 
oracle

>  <origin>  (3) 
adg

>  <m_score__min__energy>  (3) 
-6.46

>  <m_primary>  (3) 
energy

$$$$
3:0
     RDKit          3D

 37 38  0  0  0  0  0  0  0  0999 V2000
   57.3690   32.6940   40.5760 C   0  0  0  0  0  0  0  0  0  0  0  0
   57.7860   31.9890   41.8560 C   0  0  0  0  0  0  0  0  0  0  0  0
   56.7190   31.1950   42.3150 O   0  0  0  0  0  0  0  0  0  0  0  0
   57.0170   30.7620   43.9260 S   0  0  0  0  0  0  0  0  0  0  0  0
   57.8760   29.5290   43.9740 O   0  0  0  0  0  0  0  0  0  0  0  0
   55.7080   30.4620   44.6020 O   0  0  0  0  0  0  0  0  0  0  0  0
   57.8090   32.0770   44.7910 C   0  0  0  0  0  0  0  0  0  0  0  0
   57.4000   33.3590   44.7160 N   0  0  0  0  0  0  0  0  0  0  0  0
   58.2200   34.0500   45.5270 C   0  0  0  0  0  0  0  0  0  0  0  0
   59.1180   33.1680   46.0980 C   0  0  0  0  0  0  0  0  0  0  0  0
   60.1610   33.5340   47.0810 C   0  0  0  0  0  0  0  0  0  0  0  0
   61.5220   33.4950   46.7360 C   0  0  0  0  0  0  0  0  0  0  0  0
   62.5010   33.8250   47.6770 C   0  0  0  0  0  0  0  0  0  0  0  0
   62.1350   34.1890   48.9860 C   0  0  0  0  0  0  0  0  0  0  0  0
   63.0760   34.5330   49.9710 O   0  0  0  0  0  0  0  0  0  0  0  0
   64.0680   33.6570   50.5030 C   0  0  0  0  0  0  0  0  0  0  0  0
   63.4680   32.5540   51.0840 F   0  0  0  0  0  0  0  0  0  0  0  0
   64.7890   34.3310   51.4690 F   0  0  0  0  0  0  0  0  0  0  0  0
   64.9320   33.2520   49.5030 F   0  0  0  0  0  0  0  0  0  0  0  0
   60.7790   34.2100   49.3330 C   0  0  0  0  0  0  0  0  0  0  0  0
   59.8000   33.8790   48.3920 C   0  0  0  0  0  0  0  0  0  0  0  0
   58.8710   31.9270   45.6160 N   0  0  0  0  0  0  0  0  0  0  0  0
   59.5830   30.6850   45.9140 C   0  0  0  0  0  0  0  0  0  0  0  0
   56.8237   33.6160   40.8262 H   0  0  0  0  0  0  0  0  0  0  0  0
   58.2638   32.9454   39.9877 H   0  0  0  0  0  0  0  0  0  0  0  0
   56.7177   32.0309   39.9877 H   0  0  0  0  0  0  0  0  0  0  0  0
   58.6601   31.3515   41.6570 H   0  0  0  0  0  0  0  0  0  0  0  0
   58.0474   32.7352   42.6208 H   0  0  0  0  0  0  0  0  0  0  0  0
   56.6050   33.7390   44.1560 H   0  0  0  0  0  0  0  0  0  0  0  0
   58.1825   35.1347   45.7060 H   0  0  0  0  0  0  0  0  0  0  0  0
   61.8193   33.2027   45.7181 H   0  0  0  0  0  0  0  0  0  0  0  0
   63.5634   33.8001   47.3929 H   0  0  0  0  0  0  0  0  0  0  0  0
   60.4815   34.4893   50.3545 H   0  0  0  0  0  0  0  0  0  0  0  0
   58.7388   33.8891   48.6814 H   0  0  0  0  0  0  0  0  0  0  0  0
   59.6564   30.5569   47.0041 H   0  0  0  0  0  0  0  0  0  0  0  0
   59.0349   29.8352   45.4811 H   0  0  0  0  0  0  0  0  0  0  0  0
   60.5933   30.7286   45.4811 H   0  0  0  0  0  0  0  0  0  0  0  0
  1  2  1  0
  2  3  1  0
  3  4  1  0
  4  5  2  0
  4  6  2  0
  4  7  1  0
  7  8  2  0
  8  9  1  0
  9 10  2  0
 10 11  1  0
 11 12  2  0
 12 13  1  0
 13 14  2  0
 14 15  1  0
 15 16  1  0
 16 17  1  0
 16 18  1  0
 16 19  1  0
 14 20  1  0
 20 21  2  0
 10 22  1  0
 22 23  1  0
 22  7  1  0
 21 11  1  0
  1 24  1  0
  1 25  1  0
  1 26  1  0
  2 27  1  0
  2 28  1  0
  8 29  1  0
  9 30  1  0
 12 31  1  0
 13 32  1  0
 20 33  1  0
 21 34  1  0
 23 35  1  0
 23 36  1  0
 23 37  1  0
M  CHG  1   8   1
M  END
>  <UniqueID>  (4) 
4

>  <SMILES>  (4) 
CCOS(=O)(=O)c1[nH+]cc(-c2ccc(OC(F)(F)F)cc2)n1C

>  <Energy>  (4) 
70.86147597404342

>  <Genealogy>  (4) 
CCOS(=O)(=O)c1[nH+]cc(-c2ccc(OC(F)(F)F)cc2)n1C (protonated)
CCOS(=O)(=O)c1[nH+]cc(-c2ccc(OC(F)(F)F)cc2)n1C (3D coordinates assigned)
CCOS(=O)(=O)c1[nH+]cc(-c2ccc(OC(F)(F)F)cc2)n1C (optimized conformer: 70.86147597404342 kcal/mol)

>  <smiles>  (4) 
CCOS(=O)(=O)c1ncc(-c2ccc(OC(F)(F)F)cc2)n1C

>  <score_type>  (4) 
oracle

>  <origin>  (4) 
adg

>  <m_score__min__energy>  (4) 
-5.1200000000000001

>  <m_primary>  (4) 
energy

$$$$
4:0
     RDKit          3D

 29 30  0  0  0  0  0  0  0  0999 V2000
   55.5150   28.9060   44.8710 O   0  0  0  0  0  0  0  0  0  0  0  0
   55.7750   29.9120   43.9300 C   0  0  0  0  0  0  0  0  0  0  0  0
   57.2870   30.1820   43.7780 C   0  0  1  0  0  0  0  0  0  0  0  0
   57.6630   31.3790   44.5290 N   0  0  0  0  0  0  0  0  0  0  0  0
   58.2910   31.3070   45.8240 C   0  0  0  0  0  0  0  0  0  0  0  0
   58.5790   32.5080   46.5610 N   0  0  0  0  0  0  0  0  0  0  0  0
   58.1940   33.8340   46.0860 C   0  0  0  0  0  0  0  0  0  0  0  0
   58.9910   34.3140   44.8850 C   0  0  0  0  0  0  0  0  0  0  0  0
   59.2850   34.8770   46.2670 C   0  0  0  0  0  0  0  0  0  0  0  0
   58.6280   30.1510   46.3280 N   0  0  0  0  0  0  0  0  0  0  0  0
   58.3040   28.8680   45.6980 C   0  0  0  0  0  0  0  0  0  0  0  0
   58.1950   28.9950   44.1740 C   0  0  1  0  0  0  0  0  0  0  0  0
   57.7280   27.7880   43.6330 O   0  0  0  0  0  0  0  0  0  0  0  0
   55.9470   28.0780   44.5340 H   0  0  0  0  0  0  0  0  0  0  0  0
   55.3697   29.6009   42.9558 H   0  0  0  0  0  0  0  0  0  0  0  0
   55.2972   30.8385   44.2811 H   0  0  0  0  0  0  0  0  0  0  0  0
   57.4546   30.3358   42.7018 H   0  0  0  0  0  0  0  0  0  0  0  0
   57.3870   32.3040   44.1320 H   0  0  0  0  0  0  0  0  0  0  0  0
   59.1400   32.4430   47.4400 H   0  0  0  0  0  0  0  0  0  0  0  0
   57.1239   33.7672   46.3320 H   0  0  0  0  0  0  0  0  0  0  0  0
   59.7137   33.6413   44.4000 H   0  0  0  0  0  0  0  0  0  0  0  0
   58.7377   34.7475   43.9063 H   0  0  0  0  0  0  0  0  0  0  0  0
   60.2201   34.6114   46.7818 H   0  0  0  0  0  0  0  0  0  0  0  0
   59.3323   35.8861   46.7022 H   0  0  0  0  0  0  0  0  0  0  0  0
   59.0800   30.1150   47.2710 H   0  0  0  0  0  0  0  0  0  0  0  0
   59.0950   28.1427   45.9394 H   0  0  0  0  0  0  0  0  0  0  0  0
   57.3301   28.5330   46.0843 H   0  0  0  0  0  0  0  0  0  0  0  0
   59.1930   29.2013   43.7600 H   0  0  0  0  0  0  0  0  0  0  0  0
   56.7770   27.9340   43.3860 H   0  0  0  0  0  0  0  0  0  0  0  0
  1  2  1  0
  2  3  1  0
  3  4  1  0
  4  5  1  0
  5  6  1  0
  6  7  1  0
  7  8  1  0
  8  9  1  0
  5 10  2  0
 10 11  1  0
 11 12  1  0
 12 13  1  0
 12  3  1  0
  9  7  1  0
  1 14  1  0
  2 15  1  0
  2 16  1  0
  3 17  1  6
  4 18  1  0
  6 19  1  0
  7 20  1  0
  8 21  1  0
  8 22  1  0
  9 23  1  0
  9 24  1  0
 10 25  1  0
 11 26  1  0
 11 27  1  0
 12 28  1  6
 13 29  1  0
M  CHG  1  10   1
M  END
>  <UniqueID>  (5) 
5

>  <SMILES>  (5) 
OC[C@H]1NC(NC2CC2)=[NH+]C[C@H]1O

>  <Energy>  (5) 
289.07093101765133

>  <Genealogy>  (5) 
OCC1NC(NC2CC2)=[NH+]CC1O (protonated)
OC[C@H]1NC(NC2CC2)=[NH+]C[C@H]1O (chirality)
OC[C@H]1NC(NC2CC2)=[NH+]C[C@H]1O (3D coordinates assigned)
OC[C@H]1NC(NC2CC2)=[NH+]C[C@H]1O (nonaromatic ring conformer: 289.07093101765133 kcal/mol)

>  <smiles>  (5) 
OCC1NC(NC2CC2)=NCC1O

>  <score_type>  (5) 
oracle

>  <origin>  (5) 
adg

>  <m_score__min__energy>  (5) 
-3.6499999999999999

>  <m_primary>  (5) 
energy

$$$$
5:0
     RDKit          3D

 52 55  0  0  0  0  0  0  0  0999 V2000
   56.4794   24.7397   44.7375 H   0  0  0  0  0  0  0  0  0  0  0  0
   57.0910   25.5370   45.1850 C   0  0  0  0  0  0  0  0  0  0  0  0
   56.9630   25.8360   46.5400 C   0  0  0  0  0  0  0  0  0  0  0  0
   56.2491   25.2722   47.1585 H   0  0  0  0  0  0  0  0  0  0  0  0
   57.7350   26.8470   47.1190 C   0  0  0  0  0  0  0  0  0  0  0  0
   57.6252   27.0717   48.1902 H   0  0  0  0  0  0  0  0  0  0  0  0
   58.6570   27.5840   46.3380 C   0  0  0  0  0  0  0  0  0  0  0  0
   58.7740   27.2660   44.9590 C   0  0  0  0  0  0  0  0  0  0  0  0
   59.6450   27.9450   44.1670 N   0  0  0  0  0  0  0  0  0  0  0  0
   60.4290   28.9410   44.6460 C   0  0  0  0  0  0  0  0  0  0  0  0
   61.1192   29.4680   43.9708 H   0  0  0  0  0  0  0  0  0  0  0  0
   60.3640   29.3000   45.9910 C   0  0  0  0  0  0  0  0  0  0  0  0
   61.1600   30.3000   46.4540 N   0  0  0  0  0  0  0  0  0  0  0  0
   61.1420   30.6990   47.7560 C   0  0  0  0  0  0  0  0  0  0  0  0
   61.9140   31.6580   48.1720 N   0  0  0  0  0  0  0  0  0  0  0  0
   61.9590   33.0050   47.6010 C   0  0  0  0  0  0  0  0  0  0  0  0
   62.1219   32.9324   46.5156 H   0  0  0  0  0  0  0  0  0  0  0  0
   62.7814   33.5630   48.0724 H   0  0  0  0  0  0  0  0  0  0  0  0
   60.6420   33.7470   47.8650 C   0  0  0  0  0  0  0  0  0  0  0  0
   60.7896   34.4487   48.6992 H   0  0  0  0  0  0  0  0  0  0  0  0
   59.8716   33.0004   48.1081 H   0  0  0  0  0  0  0  0  0  0  0  0
   60.1730   34.5330   46.6310 C   0  0  0  0  0  0  0  0  0  0  0  0
   60.8599   34.3332   45.7954 H   0  0  0  0  0  0  0  0  0  0  0  0
   60.1685   35.6044   46.8802 H   0  0  0  0  0  0  0  0  0  0  0  0
   58.8040   34.1370   46.2360 N   0  0  0  0  0  0  0  0  0  0  0  0
   58.2350   33.0930   47.1280 C   0  0  0  0  0  0  0  0  0  0  0  0
   57.2244   33.4027   47.4327 H   0  0  0  0  0  0  0  0  0  0  0  0
   58.9068   32.9920   47.9931 H   0  0  0  0  0  0  0  0  0  0  0  0
   58.1440   31.7190   46.4470 C   0  0  0  0  0  0  0  0  0  0  0  0
   57.7121   30.9958   47.1544 H   0  0  0  0  0  0  0  0  0  0  0  0
   59.1565   31.4109   46.1473 H   0  0  0  0  0  0  0  0  0  0  0  0
   57.2950   31.7770   45.2380 N   0  0  0  0  0  0  0  0  0  0  0  0
   57.4920   30.5690   44.4070 C   0  0  0  0  0  0  0  0  0  0  0  0
   58.1118   29.8471   44.9590 H   0  0  0  0  0  0  0  0  0  0  0  0
   57.9906   30.8592   43.4704 H   0  0  0  0  0  0  0  0  0  0  0  0
   56.1490   29.9250   44.0720 C   0  0  0  0  0  0  0  0  0  0  0  0
   55.6212   29.6719   45.0034 H   0  0  0  0  0  0  0  0  0  0  0  0
   55.5407   30.6294   43.4856 H   0  0  0  0  0  0  0  0  0  0  0  0
   56.3174   29.0097   43.4856 H   0  0  0  0  0  0  0  0  0  0  0  0
   57.4620   33.0330   44.4580 C   0  0  0  0  0  0  0  0  0  0  0  0
   56.6105   33.6959   44.6714 H   0  0  0  0  0  0  0  0  0  0  0  0
   57.5074   32.7600   43.3934 H   0  0  0  0  0  0  0  0  0  0  0  0
   58.7610   33.7750   44.8030 C   0  0  0  0  0  0  0  0  0  0  0  0
   58.8218   34.6923   44.1990 H   0  0  0  0  0  0  0  0  0  0  0  0
   59.6105   33.1110   44.5852 H   0  0  0  0  0  0  0  0  0  0  0  0
   60.2850   30.0650   48.6560 C   0  0  0  0  0  0  0  0  0  0  0  0
   60.2638   30.3772   49.7105 H   0  0  0  0  0  0  0  0  0  0  0  0
   59.4550   29.0340   48.2150 C   0  0  0  0  0  0  0  0  0  0  0  0
   58.7800   28.5353   48.9261 H   0  0  0  0  0  0  0  0  0  0  0  0
   59.4740   28.6250   46.8630 C   0  0  0  0  0  0  0  0  0  0  0  0
   57.9950   26.2490   44.3960 C   0  0  0  0  0  0  0  0  0  0  0  0
   58.0958   26.0099   43.3270 H   0  0  0  0  0  0  0  0  0  0  0  0
  1  2  1  0
  2  3  2  0
  3  4  1  0
  3  5  1  0
  5  6  1  0
  5  7  2  0
  7  8  1  0
  8  9  1  0
  9 10  2  0
 10 11  1  0
 10 12  1  0
 12 13  1  0
 13 14  1  0
 14 15  2  0
 15 16  1  0
 16 17  1  0
 16 18  1  0
 16 19  1  0
 19 20  1  0
 19 21  1  0
 19 22  1  0
 22 23  1  0
 22 24  1  0
 22 25  1  0
 25 26  1  0
 26 27  1  0
 26 28  1  0
 26 29  1  0
 29 30  1  0
 29 31  1  0
 29 32  1  0
 32 33  1  0
 33 34  1  0
 33 35  1  0
 33 36  1  0
 36 37  1  0
 36 38  1  0
 36 39  1  0
 32 40  1  0
 40 41  1  0
 40 42  1  0
 40 43  1  0
 43 44  1  0
 43 45  1  0
 14 46  1  0
 46 47  1  0
 46 48  2  0
 48 49  1  0
 48 50  1  0
  8 51  2  0
 51 52  1  0
 51  2  1  0
 50  7  1  0
 50 12  2  0
 43 25  1  0
M  CHG  1  13  -1
M  END
>  <UniqueID>  (6) 
6

>  <SMILES>  (6) 
CCN1CCN(CCC/N=c2/ccc3c(cnc4ccccc43)[n-]2)CC1

>  <Energy>  (6) 
73.3474462704426

>  <Genealogy>  (6) 
CCN1CCN(CCCN=c2ccc3c(cnc4ccccc43)[n-]2)CC1 (protonated)
CCN1CCN(CCC/N=c2/ccc3c(cnc4ccccc43)[n-]2)CC1 (cis-trans isomerization)
CCN1CCN(CCC/N=c2/ccc3c(cnc4ccccc43)[n-]2)CC1 (3D coordinates assigned)
CCN1CCN(CCC/N=c2/ccc3c(cnc4ccccc43)[n-]2)CC1 (nonaromatic ring conformer: 73.3474462704426 kcal/mol)

>  <smiles>  (6) 
CCN1CCN(CCCN=c2ccc3c(cnc4ccccc43)[nH]2)CC1

>  <score_type>  (6) 
oracle

>  <origin>  (6) 
adg

>  <m_score__min__energy>  (6) 
-9.5399999999999991

>  <m_primary>  (6) 
energy

$$$$
6:0
     RDKit          3D

 46 48  0  0  0  0  0  0  0  0999 V2000
   64.1090   32.5000   48.8030 C   0  0  0  0  0  0  0  0  0  0  0  0
   63.4850   33.8070   48.3240 C   0  0  0  0  0  0  0  0  0  0  0  0
   63.3160   33.8120   46.7970 C   0  0  0  0  0  0  0  0  0  0  0  0
   61.8450   33.6990   46.3650 C   0  0  0  0  0  0  0  0  0  0  0  0
   61.0030   32.8690   47.3460 C   0  0  0  0  0  0  0  0  0  0  0  0
   59.5180   33.2440   47.2470 C   0  0  0  0  0  0  0  0  0  0  0  0
   58.8960   32.6810   45.9710 C   0  0  0  0  0  0  0  0  0  0  0  0
   58.5370   31.3010   45.8940 C   0  0  0  0  0  0  0  0  0  0  0  0
   58.6960   30.4010   46.9720 C   0  0  0  0  0  0  0  0  0  0  0  0
   58.3370   29.0580   46.8460 C   0  0  0  0  0  0  0  0  0  0  0  0
   57.8080   28.5650   45.6440 C   0  0  0  0  0  0  0  0  0  0  0  0
   57.4420   27.1760   45.5190 N   0  0  0  0  0  0  0  0  0  0  0  0
   57.7730   26.3310   44.5240 C   0  0  0  0  0  0  0  0  0  0  0  0
   57.2180   25.1030   44.8020 C   0  0  0  0  0  0  0  0  0  0  0  0
   56.5370   25.1680   45.9630 N   0  0  0  0  0  0  0  0  0  0  0  0
   56.6950   26.4430   46.3730 C   0  0  0  0  0  0  0  0  0  0  0  0
   57.6380   29.4490   44.5690 C   0  0  0  0  0  0  0  0  0  0  0  0
   57.9910   30.8030   44.6870 C   0  0  0  0  0  0  0  0  0  0  0  0
   57.7980   31.6630   43.6090 C   0  0  0  0  0  0  0  0  0  0  0  0
   58.1270   33.0060   43.7300 C   0  0  0  0  0  0  0  0  0  0  0  0
   58.6450   33.5090   44.8910 N   0  0  0  0  0  0  0  0  0  0  0  0
   58.9610   34.9470   44.9250 C   0  0  0  0  0  0  0  0  0  0  0  0
   64.1187   32.4797   49.9028 H   0  0  0  0  0  0  0  0  0  0  0  0
   63.5186   31.6519   48.4258 H   0  0  0  0  0  0  0  0  0  0  0  0
   65.1396   32.4259   48.4258 H   0  0  0  0  0  0  0  0  0  0  0  0
   62.4984   33.9279   48.7951 H   0  0  0  0  0  0  0  0  0  0  0  0
   64.1515   34.6359   48.6045 H   0  0  0  0  0  0  0  0  0  0  0  0
   63.7287   34.7511   46.3999 H   0  0  0  0  0  0  0  0  0  0  0  0
   63.8483   32.9351   46.3999 H   0  0  0  0  0  0  0  0  0  0  0  0
   61.4176   34.7106   46.3024 H   0  0  0  0  0  0  0  0  0  0  0  0
   61.8222   33.1878   45.3913 H   0  0  0  0  0  0  0  0  0  0  0  0
   61.1214   31.8015   47.1084 H   0  0  0  0  0  0  0  0  0  0  0  0
   61.3501   33.0759   48.3691 H   0  0  0  0  0  0  0  0  0  0  0  0
   58.9848   32.8352   48.1180 H   0  0  0  0  0  0  0  0  0  0  0  0
   59.4339   34.3405   47.2239 H   0  0  0  0  0  0  0  0  0  0  0  0
   59.1089   30.7643   47.9247 H   0  0  0  0  0  0  0  0  0  0  0  0
   58.4706   28.3777   47.7000 H   0  0  0  0  0  0  0  0  0  0  0  0
   58.3815   26.5794   43.6420 H   0  0  0  0  0  0  0  0  0  0  0  0
   57.3153   24.2058   44.1730 H   0  0  0  0  0  0  0  0  0  0  0  0
   56.2625   26.8427   47.3021 H   0  0  0  0  0  0  0  0  0  0  0  0
   57.2227   29.0770   43.6208 H   0  0  0  0  0  0  0  0  0  0  0  0
   57.3859   31.2791   42.6641 H   0  0  0  0  0  0  0  0  0  0  0  0
   57.9678   33.6791   42.8747 H   0  0  0  0  0  0  0  0  0  0  0  0
   59.0345   35.2816   45.9703 H   0  0  0  0  0  0  0  0  0  0  0  0
   59.9195   35.1240   44.4151 H   0  0  0  0  0  0  0  0  0  0  0  0
   58.1650   35.5095   44.4151 H   0  0  0  0  0  0  0  0  0  0  0  0
  1  2  1  0
  2  3  1  0
  3  4  1  0
  4  5  1  0
  5  6  1  0
  6  7  1  0
  7  8  2  0
  8  9  1  0
  9 10  2  0
 10 11  1  0
 11 12  1  0
 12 13  1  0
 13 14  2  0
 14 15  1  0
 15 16  2  0
 11 17  2  0
 17 18  1  0
 18 19  2  0
 19 20  1  0
 20 21  2  0
 21 22  1  0
 21  7  1  0
 18  8  1  0
 16 12  1  0
  1 23  1  0
  1 24  1  0
  1 25  1  0
  2 26  1  0
  2 27  1  0
  3 28  1  0
  3 29  1  0
  4 30  1  0
  4 31  1  0
  5 32  1  0
  5 33  1  0
  6 34  1  0
  6 35  1  0
  9 36  1  0
 10 37  1  0
 13 38  1  0
 14 39  1  0
 16 40  1  0
 17 41  1  0
 19 42  1  0
 20 43  1  0
 22 44  1  0
 22 45  1  0
 22 46  1  0
M  CHG  1  21   1
M  END
>  <UniqueID>  (7) 
7

>  <SMILES>  (7) 
CCCCCCc1c2ccc(-n3ccnc3)cc2cc[n+]1C

>  <Energy>  (7) 
80.0106478249519

>  <Genealogy>  (7) 
CCCCCCc1c2ccc(-n3ccnc3)cc2cc[n+]1C (3D coordinates assigned)
CCCCCCc1c2ccc(-n3ccnc3)cc2cc[n+]1C (optimized conformer: 80.0106478249519 kcal/mol)

>  <smiles>  (7) 
CCCCCCc1c2ccc(-n3ccnc3)cc2cc[n+]1C

>  <score_type>  (7) 
oracle

>  <origin>  (7) 
adg

>  <m_score__min__energy>  (7) 
-5.79

>  <m_primary>  (7) 
energy

$$$$
7:0
     RDKit          3D

 19 19  0  0  0  0  0  0  0  0999 V2000
   57.5010   33.8440   45.2630 C   0  0  0  0  0  0  0  0  0  0  0  0
   58.3980   34.2190   45.9770 C   0  0  0  0  0  0  0  0  0  0  0  0
   59.4890   34.6730   46.8460 C   0  0  0  0  0  0  0  0  0  0  0  0
   60.7640   34.1220   46.3880 N   0  0  0  0  0  0  0  0  0  0  0  0
   61.8640   33.7810   47.2550 C   0  0  0  0  0  0  0  0  0  0  0  0
   61.7900   34.0960   48.6190 C   0  0  0  0  0  0  0  0  0  0  0  0
   62.8430   33.7740   49.4740 C   0  0  0  0  0  0  0  0  0  0  0  0
   63.9720   33.1350   48.9590 C   0  0  0  0  0  0  0  0  0  0  0  0
   65.4240   32.6880   50.1180 Br  0  0  0  0  0  0  0  0  0  0  0  0
   64.0380   32.8300   47.6340 N   0  0  0  0  0  0  0  0  0  0  0  0
   63.0210   33.1340   46.7810 C   0  0  0  0  0  0  0  0  0  0  0  0
   56.6830   33.5020   44.6119 H   0  0  0  0  0  0  0  0  0  0  0  0
   59.5388   35.7716   46.8224 H   0  0  0  0  0  0  0  0  0  0  0  0
   59.2972   34.3270   47.8724 H   0  0  0  0  0  0  0  0  0  0  0  0
   60.8870   34.0030   45.3570 H   0  0  0  0  0  0  0  0  0  0  0  0
   60.8966   34.5998   49.0166 H   0  0  0  0  0  0  0  0  0  0  0  0
   62.7847   34.0212   50.5443 H   0  0  0  0  0  0  0  0  0  0  0  0
   64.8860   32.3500   47.2600 H   0  0  0  0  0  0  0  0  0  0  0  0
   63.1040   32.8726   45.7157 H   0  0  0  0  0  0  0  0  0  0  0  0
  1  2  3  0
  2  3  1  0
  3  4  1  0
  4  5  1  0
  5  6  2  0
  6  7  1  0
  7  8  2  0
  8  9  1  0
  8 10  1  0
 10 11  2  0
 11  5  1  0
  1 12  1  0
  3 13  1  0
  3 14  1  0
  4 15  1  0
  6 16  1  0
  7 17  1  0
 10 18  1  0
 11 19  1  0
M  CHG  1  10   1
M  END
>  <UniqueID>  (8) 
8

>  <SMILES>  (8) 
C#CCNc1ccc(Br)[nH+]c1

>  <Energy>  (8) 
14.115377222274667

>  <Genealogy>  (8) 
C#CCNc1ccc(Br)[nH+]c1 (protonated)
C#CCNc1ccc(Br)[nH+]c1 (3D coordinates assigned)
C#CCNc1ccc(Br)[nH+]c1 (optimized conformer: 14.115377222274667 kcal/mol)

>  <smiles>  (8) 
C#CCNc1ccc(Br)nc1

>  <score_type>  (8) 
oracle

>  <origin>  (8) 
adg

>  <m_score__min__energy>  (8) 
-3.3399999999999999

>  <m_primary>  (8) 
energy

$$$$
8:0
     RDKit          3D

 41 44  0  0  0  0  0  0  0  0999 V2000
   64.6710   33.1120   50.1980 C   0  0  0  0  0  0  0  0  0  0  0  0
   63.3580   33.8680   50.0300 C   0  0  0  0  0  0  0  0  0  0  0  0
   62.9410   33.8610   48.6290 N   0  0  0  0  0  0  0  0  0  0  0  0
   63.7640   33.8670   47.5530 C   0  0  0  0  0  0  0  0  0  0  0  0
   63.0300   33.7960   46.3740 C   0  0  0  0  0  0  0  0  0  0  0  0
   61.7110   33.7370   46.7690 C   0  0  0  0  0  0  0  0  0  0  0  0
   60.5470   33.6380   46.0120 C   0  0  0  0  0  0  0  0  0  0  0  0
   59.3180   33.5710   46.6970 C   0  0  0  0  0  0  0  0  0  0  0  0
   57.8080   33.4140   45.8080 S   0  0  0  0  0  0  0  0  0  0  0  0
   57.6530   34.5310   44.8130 O   0  0  0  0  0  0  0  0  0  0  0  0
   56.6600   33.4730   46.7780 O   0  0  0  0  0  0  0  0  0  0  0  0
   57.7920   31.8970   44.9730 N   0  0  0  0  0  0  0  0  0  0  0  0
   57.2600   31.6950   43.6290 C   0  0  0  0  0  0  0  0  0  0  0  0
   57.3410   30.1700   43.3670 C   0  0  0  0  0  0  0  0  0  0  0  0
   57.8860   29.6280   44.6450 C   0  0  0  0  0  0  0  0  0  0  0  0
   58.1500   28.2960   44.9760 C   0  0  0  0  0  0  0  0  0  0  0  0
   58.6760   28.0120   46.2480 C   0  0  0  0  0  0  0  0  0  0  0  0
   58.9270   29.0550   47.1610 C   0  0  0  0  0  0  0  0  0  0  0  0
   58.6570   30.3870   46.8030 C   0  0  0  0  0  0  0  0  0  0  0  0
   58.1360   30.6410   45.5300 C   0  0  0  0  0  0  0  0  0  0  0  0
   59.2920   33.6040   48.1100 C   0  0  0  0  0  0  0  0  0  0  0  0
   60.4850   33.7080   48.8460 C   0  0  0  0  0  0  0  0  0  0  0  0
   61.6870   33.7740   48.1390 C   0  0  0  0  0  0  0  0  0  0  0  0
   64.8878   32.9872   51.2692 H   0  0  0  0  0  0  0  0  0  0  0  0
   64.5882   32.1233   49.7230 H   0  0  0  0  0  0  0  0  0  0  0  0
   65.4845   33.6800   49.7230 H   0  0  0  0  0  0  0  0  0  0  0  0
   62.5813   33.3856   50.6416 H   0  0  0  0  0  0  0  0  0  0  0  0
   63.5021   34.9093   50.3539 H   0  0  0  0  0  0  0  0  0  0  0  0
   64.8615   33.9206   47.6047 H   0  0  0  0  0  0  0  0  0  0  0  0
   63.4193   33.7885   45.3452 H   0  0  0  0  0  0  0  0  0  0  0  0
   60.5857   33.6129   44.9130 H   0  0  0  0  0  0  0  0  0  0  0  0
   56.2162   32.0380   43.5748 H   0  0  0  0  0  0  0  0  0  0  0  0
   57.8280   32.2651   42.8791 H   0  0  0  0  0  0  0  0  0  0  0  0
   56.3450   29.7535   43.1558 H   0  0  0  0  0  0  0  0  0  0  0  0
   57.9607   29.9166   42.4942 H   0  0  0  0  0  0  0  0  0  0  0  0
   57.9505   27.4879   44.2569 H   0  0  0  0  0  0  0  0  0  0  0  0
   58.8925   26.9715   46.5317 H   0  0  0  0  0  0  0  0  0  0  0  0
   59.3353   28.8264   48.1565 H   0  0  0  0  0  0  0  0  0  0  0  0
   58.8507   31.2098   47.5069 H   0  0  0  0  0  0  0  0  0  0  0  0
   58.3290   33.5478   48.6386 H   0  0  0  0  0  0  0  0  0  0  0  0
   60.4719   33.7365   49.9456 H   0  0  0  0  0  0  0  0  0  0  0  0
  1  2  1  0
  2  3  1  0
  3  4  1  0
  4  5  2  0
  5  6  1  0
  6  7  2  0
  7  8  1  0
  8  9  1  0
  9 10  2  0
  9 11  2  0
  9 12  1  0
 12 13  1  0
 13 14  1  0
 14 15  1  0
 15 16  2  0
 16 17  1  0
 17 18  2  0
 18 19  1  0
 19 20  2  0
  8 21  2  0
 21 22  1  0
 22 23  2  0
 23  3  1  0
 23  6  1  0
 20 12  1  0
 20 15  1  0
  1 24  1  0
  1 25  1  0
  1 26  1  0
  2 27  1  0
  2 28  1  0
  4 29  1  0
  5 30  1  0
  7 31  1  0
 13 32  1  0
 13 33  1  0
 14 34  1  0
 14 35  1  0
 16 36  1  0
 17 37  1  0
 18 38  1  0
 19 39  1  0
 21 40  1  0
 22 41  1  0
M  END
>  <UniqueID>  (9) 
9

>  <SMILES>  (9) 
CCn1ccc2cc(S(=O)(=O)N3CCc4ccccc43)ccc21

>  <Energy>  (9) 
89.67613579079305

>  <Genealogy>  (9) 
CCn1ccc2cc(S(=O)(=O)N3CCc4ccccc43)ccc21 (3D coordinates assigned)
CCn1ccc2cc(S(=O)(=O)N3CCc4ccccc43)ccc21 (nonaromatic ring conformer: 89.67613579079305 kcal/mol)

>  <smiles>  (9) 
CCn1ccc2cc(S(=O)(=O)N3CCc4ccccc43)ccc21

>  <score_type>  (9) 
oracle

>  <origin>  (9) 
adg

>  <m_score__min__energy>  (9) 
-8.2300000000000004

>  <m_primary>  (9) 
energy

$$$$
9:0
     RDKit          3D

 16 17  0  0  0  0  0  0  0  0999 V2000
   59.3230   28.1070   45.2220 C   0  0  0  0  0  0  0  0  0  0  0  0
   58.5840   27.1660   44.4690 C   0  0  0  0  0  0  0  0  0  0  0  0
   57.6300   27.5820   43.5810 N   0  0  0  0  0  0  0  0  0  0  0  0
   57.4050   28.9120   43.4330 C   0  0  0  0  0  0  0  0  0  0  0  0
   56.5120   29.4830   42.6100 N   0  0  0  0  0  0  0  0  0  0  0  0
   56.6440   30.8160   42.8040 C   0  0  0  0  0  0  0  0  0  0  0  0
   57.6270   31.0850   43.7550 C   0  0  0  0  0  0  0  0  0  0  0  0
   58.0980   29.8500   44.1420 C   0  0  0  0  0  0  0  0  0  0  0  0
   59.0780   29.4820   45.0580 C   0  0  0  0  0  0  0  0  0  0  0  0
   60.0878   27.7644   45.9345 H   0  0  0  0  0  0  0  0  0  0  0  0
   58.7776   26.0909   44.5981 H   0  0  0  0  0  0  0  0  0  0  0  0
   57.0860   26.8840   43.0260 H   0  0  0  0  0  0  0  0  0  0  0  0
   55.8540   29.0030   41.9580 H   0  0  0  0  0  0  0  0  0  0  0  0
   56.0547   31.5839   42.2814 H   0  0  0  0  0  0  0  0  0  0  0  0
   57.9554   32.0702   44.1178 H   0  0  0  0  0  0  0  0  0  0  0  0
   59.6384   30.2357   45.6306 H   0  0  0  0  0  0  0  0  0  0  0  0
  1  2  2  0
  2  3  1  0
  3  4  2  0
  4  5  1  0
  5  6  1  0
  6  7  2  0
  7  8  1  0
  8  9  2  0
  9  1  1  0
  8  4  1  0
  1 10  1  0
  2 11  1  0
  3 12  1  0
  5 13  1  0
  6 14  1  0
  7 15  1  0
  9 16  1  0
M  CHG  1   3   1
M  END
>  <UniqueID>  (10) 
10

>  <SMILES>  (10) 
c1c[nH+]c2[nH]ccc2c1

>  <Energy>  (10) 
50.21825298715881

>  <Genealogy>  (10) 
c1c[nH+]c2[nH]ccc2c1 (protonated)
c1c[nH+]c2[nH]ccc2c1 (3D coordinates assigned)
c1c[nH+]c2[nH]ccc2c1 (optimized conformer: 50.21825298715881 kcal/mol)

>  <smiles>  (10) 
c1cnc2[nH]ccc2c1

>  <score_type>  (10) 
oracle

>  <origin>  (10) 
adg

>  <m_score__min__energy>  (10) 
-2.8900000000000001

>  <m_primary>  (10) 
energy

$$$$
10:0
     RDKit          3D

 37 39  0  0  0  0  0  0  0  0999 V2000
   58.0840   22.3800   45.6140 C   0  0  0  0  0  0  0  0  0  0  0  0
   57.6740   23.0800   46.7830 O   0  0  0  0  0  0  0  0  0  0  0  0
   57.0950   24.3530   46.7380 C   0  0  0  0  0  0  0  0  0  0  0  0
   55.9040   24.5180   47.1240 O   0  0  0  0  0  0  0  0  0  0  0  0
   57.8800   25.5040   46.2390 C   0  0  0  0  0  0  0  0  0  0  0  0
   59.1920   25.7280   46.6940 C   0  0  0  0  0  0  0  0  0  0  0  0
   59.9320   26.8090   46.2120 C   0  0  0  0  0  0  0  0  0  0  0  0
   59.3750   27.6810   45.2750 C   0  0  0  0  0  0  0  0  0  0  0  0
   58.0620   27.4840   44.8220 C   0  0  0  0  0  0  0  0  0  0  0  0
   57.4750   28.3960   43.7810 C   0  0  0  0  0  0  0  0  0  0  0  0
   57.3310   29.7410   44.3260 N   0  0  0  0  0  0  0  0  0  0  0  0
   58.3210   30.5500   44.7400 C   0  0  0  0  0  0  0  0  0  0  0  0
   57.7190   31.7430   45.0930 C   0  0  0  0  0  0  0  0  0  0  0  0
   58.3700   32.9700   45.6100 C   0  0  0  0  0  0  0  0  0  0  0  0
   58.7040   34.0360   44.7530 C   0  0  0  0  0  0  0  0  0  0  0  0
   59.3180   35.1860   45.2590 C   0  0  0  0  0  0  0  0  0  0  0  0
   59.6050   35.2850   46.6230 C   0  0  0  0  0  0  0  0  0  0  0  0
   59.2780   34.2350   47.4820 C   0  0  0  0  0  0  0  0  0  0  0  0
   58.6640   33.0830   46.9820 C   0  0  0  0  0  0  0  0  0  0  0  0
   56.3920   31.6210   44.8710 N   0  0  0  0  0  0  0  0  0  0  0  0
   56.1870   30.3990   44.4010 N   0  0  0  0  0  0  0  0  0  0  0  0
   57.3240   26.3870   45.2960 C   0  0  0  0  0  0  0  0  0  0  0  0
   58.6203   21.4644   45.9040 H   0  0  0  0  0  0  0  0  0  0  0  0
   57.1993   22.1133   45.0171 H   0  0  0  0  0  0  0  0  0  0  0  0
   58.7493   23.0211   45.0171 H   0  0  0  0  0  0  0  0  0  0  0  0
   59.6376   25.0471   47.4342 H   0  0  0  0  0  0  0  0  0  0  0  0
   60.9582   26.9744   46.5720 H   0  0  0  0  0  0  0  0  0  0  0  0
   59.9671   28.5247   44.8909 H   0  0  0  0  0  0  0  0  0  0  0  0
   58.1400   28.4262   42.9053 H   0  0  0  0  0  0  0  0  0  0  0  0
   56.4861   28.0175   43.4830 H   0  0  0  0  0  0  0  0  0  0  0  0
   59.3936   30.3110   44.7882 H   0  0  0  0  0  0  0  0  0  0  0  0
   58.4805   33.9638   43.6784 H   0  0  0  0  0  0  0  0  0  0  0  0
   59.5755   36.0140   44.5822 H   0  0  0  0  0  0  0  0  0  0  0  0
   60.0884   36.1901   47.0194 H   0  0  0  0  0  0  0  0  0  0  0  0
   59.5040   34.3140   48.5556 H   0  0  0  0  0  0  0  0  0  0  0  0
   58.4089   32.2594   47.6651 H   0  0  0  0  0  0  0  0  0  0  0  0
   56.3020   26.2169   44.9264 H   0  0  0  0  0  0  0  0  0  0  0  0
  1  2  1  0
  2  3  1  0
  3  4  2  0
  3  5  1  0
  5  6  2  0
  6  7  1  0
  7  8  2  0
  8  9  1  0
  9 10  1  0
 10 11  1  0
 11 12  1  0
 12 13  2  0
 13 14  1  0
 14 15  2  0
 15 16  1  0
 16 17  2  0
 17 18  1  0
 18 19  2  0
 13 20  1  0
 20 21  2  0
  9 22  2  0
 22  5  1  0
 21 11  1  0
 19 14  1  0
  1 23  1  0
  1 24  1  0
  1 25  1  0
  6 26  1  0
  7 27  1  0
  8 28  1  0
 10 29  1  0
 10 30  1  0
 12 31  1  0
 15 32  1  0
 16 33  1  0
 17 34  1  0
 18 35  1  0
 19 36  1  0
 22 37  1  0
M  END
>  <UniqueID>  (11) 
11

>  <SMILES>  (11) 
COC(=O)c1cccc(Cn2cc(-c3ccccc3)nn2)c1

>  <Energy>  (11) 
72.23325063384114

>  <Genealogy>  (11) 
COC(=O)c1cccc(Cn2cc(-c3ccccc3)nn2)c1 (3D coordinates assigned)
COC(=O)c1cccc(Cn2cc(-c3ccccc3)nn2)c1 (optimized conformer: 72.23325063384114 kcal/mol)

>  <smiles>  (11) 
COC(=O)c1cccc(Cn2cc(-c3ccccc3)nn2)c1

>  <score_type>  (11) 
oracle

>  <origin>  (11) 
adg

>  <m_score__min__energy>  (11) 
-8.3300000000000001

>  <m_primary>  (11) 
energy

$$$$
11:0
     RDKit          3D

 50 52  0  0  0  0  0  0  0  0999 V2000
   57.0160   26.4290   45.7640 C   0  0  0  0  0  0  0  0  0  0  0  0
   56.1540   27.5450   45.5630 O   0  0  0  0  0  0  0  0  0  0  0  0
   56.5930   28.8380   45.2450 C   0  0  0  0  0  0  0  0  0  0  0  0
   55.8570   29.7030   44.4160 C   0  0  0  0  0  0  0  0  0  0  0  0
   56.3370   30.9840   44.1270 C   0  0  0  0  0  0  0  0  0  0  0  0
   57.5650   31.4280   44.6560 C   0  0  0  0  0  0  0  0  0  0  0  0
   58.0970   32.7900   44.3690 C   0  0  0  0  0  0  0  0  0  0  0  0
   58.5570   33.0300   43.2190 O   0  0  0  0  0  0  0  0  0  0  0  0
   58.1360   33.8800   45.4300 C   0  0  0  0  0  0  0  0  0  0  0  0
   57.8230   33.3100   46.8360 C   0  0  0  0  0  0  0  0  0  0  0  0
   59.0870   33.0730   47.6760 C   0  0  0  0  0  0  0  0  0  0  0  0
   60.2050   32.6550   46.7970 N   0  0  0  0  0  0  0  0  0  0  0  0
   61.2950   32.0060   47.5910 C   0  0  2  0  0  0  0  0  0  0  0  0
   61.0780   32.0640   49.1320 C   0  0  0  0  0  0  0  0  0  0  0  0
   61.1440   33.4950   49.7040 C   0  0  0  0  0  0  0  0  0  0  0  0
   62.1440   34.3970   48.9640 C   0  0  0  0  0  0  0  0  0  0  0  0
   63.2590   33.5740   48.3180 C   0  0  0  0  0  0  0  0  0  0  0  0
   62.6890   32.6390   47.2290 C   0  0  1  0  0  0  0  0  0  0  0  0
   63.6110   31.6110   46.9670 O   0  0  0  0  0  0  0  0  0  0  0  0
   60.6520   33.8410   46.0200 C   0  0  0  0  0  0  0  0  0  0  0  0
   59.4720   34.6540   45.4280 C   0  0  0  0  0  0  0  0  0  0  0  0
   58.2900   30.5570   45.4900 C   0  0  0  0  0  0  0  0  0  0  0  0
   57.8090   29.2770   45.7770 C   0  0  0  0  0  0  0  0  0  0  0  0
   57.1484   26.2575   46.8425 H   0  0  0  0  0  0  0  0  0  0  0  0
   56.5718   25.5348   45.3024 H   0  0  0  0  0  0  0  0  0  0  0  0
   57.9934   26.6328   45.3024 H   0  0  0  0  0  0  0  0  0  0  0  0
   54.8980   29.3699   43.9924 H   0  0  0  0  0  0  0  0  0  0  0  0
   55.7498   31.6521   43.4799 H   0  0  0  0  0  0  0  0  0  0  0  0
   57.3470   34.6015   45.1713 H   0  0  0  0  0  0  0  0  0  0  0  0
   57.1756   34.0225   47.3682 H   0  0  0  0  0  0  0  0  0  0  0  0
   57.3299   32.3366   46.6970 H   0  0  0  0  0  0  0  0  0  0  0  0
   59.3596   34.0035   48.1955 H   0  0  0  0  0  0  0  0  0  0  0  0
   58.8893   32.2804   48.4127 H   0  0  0  0  0  0  0  0  0  0  0  0
   61.2726   30.9422   47.3122 H   0  0  0  0  0  0  0  0  0  0  0  0
   60.0886   31.6416   49.3614 H   0  0  0  0  0  0  0  0  0  0  0  0
   61.8922   31.4892   49.5975 H   0  0  0  0  0  0  0  0  0  0  0  0
   60.1441   33.9475   49.6303 H   0  0  0  0  0  0  0  0  0  0  0  0
   61.4854   33.4149   50.7466 H   0  0  0  0  0  0  0  0  0  0  0  0
   61.6112   34.9562   48.1808 H   0  0  0  0  0  0  0  0  0  0  0  0
   62.5970   35.0854   49.6926 H   0  0  0  0  0  0  0  0  0  0  0  0
   63.9918   34.2553   47.8611 H   0  0  0  0  0  0  0  0  0  0  0  0
   63.7394   32.9601   49.0941 H   0  0  0  0  0  0  0  0  0  0  0  0
   62.5241   33.2660   46.3403 H   0  0  0  0  0  0  0  0  0  0  0  0
   64.5130   32.0270   46.9520 H   0  0  0  0  0  0  0  0  0  0  0  0
   61.2322   34.4978   46.6848 H   0  0  0  0  0  0  0  0  0  0  0  0
   61.2564   33.4748   45.1770 H   0  0  0  0  0  0  0  0  0  0  0  0
   59.3457   35.5703   46.0234 H   0  0  0  0  0  0  0  0  0  0  0  0
   59.7205   34.8727   44.3790 H   0  0  0  0  0  0  0  0  0  0  0  0
   59.2465   30.8876   45.9210 H   0  0  0  0  0  0  0  0  0  0  0  0
   58.3924   28.6087   46.4274 H   0  0  0  0  0  0  0  0  0  0  0  0
  1  2  1  0
  2  3  1  0
  3  4  2  0
  4  5  1  0
  5  6  2  0
  6  7  1  0
  7  8  2  0
  7  9  1  0
  9 10  1  0
 10 11  1  0
 11 12  1  0
 12 13  1  0
 13 14  1  0
 14 15  1  0
 15 16  1  0
 16 17  1  0
 17 18  1  0
 18 19  1  0
 12 20  1  0
 20 21  1  0
  6 22  1  0
 22 23  2  0
 23  3  1  0
 21  9  1  0
 18 13  1  0
  1 24  1  0
  1 25  1  0
  1 26  1  0
  4 27  1  0
  5 28  1  0
  9 29  1  0
 10 30  1  0
 10 31  1  0
 11 32  1  0
 11 33  1  0
 13 34  1  6
 14 35  1  0
 14 36  1  0
 15 37  1  0
 15 38  1  0
 16 39  1  0
 16 40  1  0
 17 41  1  0
 17 42  1  0
 18 43  1  6
 19 44  1  0
 20 45  1  0
 20 46  1  0
 21 47  1  0
 21 48  1  0
 22 49  1  0
 23 50  1  0
M  END
>  <UniqueID>  (12) 
12

>  <SMILES>  (12) 
COc1ccc(C(=O)C2CCN([C@@H]3CCCC[C@H]3O)CC2)cc1

>  <Energy>  (12) 
69.86186918301638

>  <Genealogy>  (12) 
COc1ccc(C(=O)C2CCN([C@@H]3CCCC[C@H]3O)CC2)cc1 (chirality)
COc1ccc(C(=O)C2CCN([C@@H]3CCCC[C@H]3O)CC2)cc1 (3D coordinates assigned)
COc1ccc(C(=O)C2CCN([C@@H]3CCCC[C@H]3O)CC2)cc1 (nonaromatic ring conformer: 69.86186918301638 kcal/mol)

>  <smiles>  (12) 
COc1ccc(C(=O)C2CCN(C3CCCCC3O)CC2)cc1

>  <score_type>  (12) 
oracle

>  <origin>  (12) 
adg

>  <m_score__min__energy>  (12) 
-8.4800000000000004

>  <m_primary>  (12) 
energy

$$$$
12:0
     RDKit          3D

 35 37  0  0  1  0  0  0  0  0999 V2000
   61.8700   33.8250   49.0200 C   0  0  0  0  0  0  0  0  0  0  0  0
   61.8980   33.9060   47.5240 C   0  0  0  0  0  0  0  0  0  0  0  0
   63.2790   33.4500   47.0600 C   0  0  0  0  0  0  0  0  0  0  0  0
   60.8580   33.0360   46.8940 C   0  0  0  0  0  0  0  0  0  0  0  0
   59.9140   33.6490   46.1140 C   0  0  0  0  0  0  0  0  0  0  0  0
   58.9100   32.9030   45.4940 C   0  0  0  0  0  0  0  0  0  0  0  0
   58.8920   31.5340   45.6830 C   0  0  0  0  0  0  0  0  0  0  0  0
   57.8720   30.6730   45.0660 C   0  0  0  0  0  0  0  0  0  0  0  0
   57.9390   29.3410   44.9120 C   0  0  0  0  0  0  0  0  0  0  0  0
   56.6470   28.9230   44.2870 C   0  0  2  0  0  0  0  0  0  0  0  0
   56.6330   29.3580   42.8540 C   0  0  0  0  0  0  0  0  0  0  0  0
   56.6420   30.8720   43.0030 C   0  0  0  0  0  0  0  0  0  0  0  0
   56.5720   31.0740   44.4920 C   0  0  1  0  0  0  0  0  0  0  0  0
   55.7550   29.9110   44.8760 N   0  0  0  0  0  0  0  0  0  0  0  0
   59.8580   30.9510   46.4730 C   0  0  0  0  0  0  0  0  0  0  0  0
   60.8470   31.6550   47.0900 C   0  0  0  0  0  0  0  0  0  0  0  0
   62.2014   34.7838   49.4454 H   0  0  0  0  0  0  0  0  0  0  0  0
   60.8452   33.6093   49.3564 H   0  0  0  0  0  0  0  0  0  0  0  0
   62.5429   33.0225   49.3564 H   0  0  0  0  0  0  0  0  0  0  0  0
   61.6869   34.9422   47.2213 H   0  0  0  0  0  0  0  0  0  0  0  0
   63.9100   33.2416   47.9366 H   0  0  0  0  0  0  0  0  0  0  0  0
   63.1794   32.5370   46.4545 H   0  0  0  0  0  0  0  0  0  0  0  0
   63.7426   34.2427   46.4545 H   0  0  0  0  0  0  0  0  0  0  0  0
   59.9471   34.7396   45.9746 H   0  0  0  0  0  0  0  0  0  0  0  0
   58.1498   33.3941   44.8687 H   0  0  0  0  0  0  0  0  0  0  0  0
   58.7783   28.6868   45.1905 H   0  0  0  0  0  0  0  0  0  0  0  0
   56.4388   27.8491   44.4023 H   0  0  0  0  0  0  0  0  0  0  0  0
   57.5234   29.0009   42.3159 H   0  0  0  0  0  0  0  0  0  0  0  0
   55.7850   28.9672   42.2725 H   0  0  0  0  0  0  0  0  0  0  0  0
   57.5659   31.3031   42.5899 H   0  0  0  0  0  0  0  0  0  0  0  0
   55.8186   31.3624   42.4630 H   0  0  0  0  0  0  0  0  0  0  0  0
   56.2567   32.0876   44.7804 H   0  0  0  0  0  0  0  0  0  0  0  0
   55.7540   29.8350   45.9180 H   0  0  0  0  0  0  0  0  0  0  0  0
   59.8291   29.8603   46.6127 H   0  0  0  0  0  0  0  0  0  0  0  0
   61.6031   31.1571   47.7148 H   0  0  0  0  0  0  0  0  0  0  0  0
  1  2  1  0
  2  3  1  0
  2  4  1  0
  4  5  2  0
  5  6  1  0
  6  7  2  0
  7  8  1  0
  8  9  2  0
  9 10  1  0
 10 11  1  0
 11 12  1  0
 12 13  1  0
 13 14  1  0
  7 15  1  0
 15 16  2  0
 16  4  1  0
 13  8  1  0
 14 10  1  0
  1 17  1  0
  1 18  1  0
  1 19  1  0
  2 20  1  0
  3 21  1  0
  3 22  1  0
  3 23  1  0
  5 24  1  0
  6 25  1  0
  9 26  1  0
 10 27  1  6
 11 28  1  0
 11 29  1  0
 12 30  1  0
 12 31  1  0
 13 32  1  6
 14 33  1  0
 15 34  1  0
 16 35  1  0
M  END
>  <smiles>  (13) 
CC(C)c1ccc(C2=CC3CCC2N3)cc1

>  <score_type>  (13) 
oracle

>  <origin>  (13) 
adg

>  <m_score__min__energy>  (13) 
-7.4100000000000001

>  <m_primary>  (13) 
energy

$$$$
13:0
     RDKit          3D

 36 38  0  0  0  0  0  0  0  0999 V2000
   57.9110   28.7610   45.9800 C   0  0  0  0  0  0  0  0  0  0  0  0
   57.0440   29.8130   45.5710 O   0  0  0  0  0  0  0  0  0  0  0  0
   57.2650   30.6400   44.4570 C   0  0  0  0  0  0  0  0  0  0  0  0
   56.6980   30.3600   43.1970 C   0  0  0  0  0  0  0  0  0  0  0  0
   56.9430   31.2020   42.1100 C   0  0  0  0  0  0  0  0  0  0  0  0
   57.7450   32.3320   42.2660 C   0  0  0  0  0  0  0  0  0  0  0  0
   58.3120   32.6210   43.5090 C   0  0  0  0  0  0  0  0  0  0  0  0
   58.0890   31.7720   44.6080 C   0  0  0  0  0  0  0  0  0  0  0  0
   58.6470   32.0770   45.8970 N   0  0  0  0  0  0  0  0  0  0  0  0
   59.4230   33.2560   46.1710 C   0  0  0  0  0  0  0  0  0  0  0  0
   59.5990   34.1310   45.2800 O   0  0  0  0  0  0  0  0  0  0  0  0
   60.0110   33.4640   47.5100 C   0  0  0  0  0  0  0  0  0  0  0  0
   59.1350   33.6560   48.5900 C   0  0  0  0  0  0  0  0  0  0  0  0
   59.6240   33.7990   49.8880 C   0  0  0  0  0  0  0  0  0  0  0  0
   60.9960   33.7590   50.1320 C   0  0  0  0  0  0  0  0  0  0  0  0
   61.8970   33.5960   49.0700 C   0  0  0  0  0  0  0  0  0  0  0  0
   63.2790   33.5810   49.3200 C   0  0  0  0  0  0  0  0  0  0  0  0
   64.1830   33.4530   48.2650 C   0  0  0  0  0  0  0  0  0  0  0  0
   63.7190   33.3500   46.9530 C   0  0  0  0  0  0  0  0  0  0  0  0
   62.3480   33.3600   46.6880 C   0  0  0  0  0  0  0  0  0  0  0  0
   61.4130   33.4600   47.7400 C   0  0  0  0  0  0  0  0  0  0  0  0
   57.9448   28.7200   47.0787 H   0  0  0  0  0  0  0  0  0  0  0  0
   57.5360   27.8038   45.5887 H   0  0  0  0  0  0  0  0  0  0  0  0
   58.9222   28.9462   45.5887 H   0  0  0  0  0  0  0  0  0  0  0  0
   56.0592   29.4736   43.0693 H   0  0  0  0  0  0  0  0  0  0  0  0
   56.5023   30.9732   41.1285 H   0  0  0  0  0  0  0  0  0  0  0  0
   57.9312   32.9963   41.4092 H   0  0  0  0  0  0  0  0  0  0  0  0
   58.9369   33.5182   43.6294 H   0  0  0  0  0  0  0  0  0  0  0  0
   58.5640   31.3570   46.6480 H   0  0  0  0  0  0  0  0  0  0  0  0
   58.0504   33.6941   48.4103 H   0  0  0  0  0  0  0  0  0  0  0  0
   58.9236   33.9441   50.7237 H   0  0  0  0  0  0  0  0  0  0  0  0
   61.3729   33.8556   51.1609 H   0  0  0  0  0  0  0  0  0  0  0  0
   63.6501   33.6705   50.3516 H   0  0  0  0  0  0  0  0  0  0  0  0
   65.2639   33.4332   48.4679 H   0  0  0  0  0  0  0  0  0  0  0  0
   64.4364   33.2605   46.1239 H   0  0  0  0  0  0  0  0  0  0  0  0
   61.9935   33.2892   45.6491 H   0  0  0  0  0  0  0  0  0  0  0  0
  1  2  1  0
  2  3  1  0
  3  4  2  0
  4  5  1  0
  5  6  2  0
  6  7  1  0
  7  8  2  0
  8  9  1  0
  9 10  1  0
 10 11  2  0
 10 12  1  0
 12 13  2  0
 13 14  1  0
 14 15  2  0
 15 16  1  0
 16 17  2  0
 17 18  1  0
 18 19  2  0
 19 20  1  0
 20 21  2  0
  8  3  1  0
 21 12  1  0
 21 16  1  0
  1 22  1  0
  1 23  1  0
  1 24  1  0
  4 25  1  0
  5 26  1  0
  6 27  1  0
  7 28  1  0
  9 29  1  0
 13 30  1  0
 14 31  1  0
 15 32  1  0
 17 33  1  0
 18 34  1  0
 19 35  1  0
 20 36  1  0
M  END
>  <UniqueID>  (14) 
13

>  <SMILES>  (14) 
COc1ccccc1NC(=O)c1cccc2ccccc12

>  <Energy>  (14) 
52.7020263970777

>  <Genealogy>  (14) 
COc1ccccc1NC(=O)c1cccc2ccccc12 (3D coordinates assigned)
COc1ccccc1NC(=O)c1cccc2ccccc12 (optimized conformer: 52.7020263970777 kcal/mol)

>  <smiles>  (14) 
COc1ccccc1NC(=O)c1cccc2ccccc12

>  <score_type>  (14) 
oracle

>  <origin>  (14) 
adg

>  <m_score__min__energy>  (14) 
-7.3200000000000003

>  <m_primary>  (14) 
energy

$$$$
14:0
     RDKit          3D

 60 64  0  0  0  0  0  0  0  0999 V2000
   62.3140   29.5600   51.1960 C   0  0  0  0  0  0  0  0  0  0  0  0
   62.5970   30.8240   50.6070 O   0  0  0  0  0  0  0  0  0  0  0  0
   63.8790   31.3820   50.4920 C   0  0  0  0  0  0  0  0  0  0  0  0
   64.9710   30.9000   51.2450 C   0  0  0  0  0  0  0  0  0  0  0  0
   66.2250   31.5100   51.1430 C   0  0  0  0  0  0  0  0  0  0  0  0
   66.4070   32.5990   50.2910 C   0  0  0  0  0  0  0  0  0  0  0  0
   65.3370   33.0780   49.5320 C   0  0  0  0  0  0  0  0  0  0  0  0
   64.0730   32.4720   49.6180 C   0  0  0  0  0  0  0  0  0  0  0  0
   62.9800   32.9910   48.8410 N   0  0  0  0  0  0  0  0  0  0  0  0
   62.3050   34.2240   49.2590 C   0  0  0  0  0  0  0  0  0  0  0  0
   60.8400   34.1940   48.8020 C   0  0  0  0  0  0  0  0  0  0  0  0
   60.6630   33.8690   47.3570 N   0  0  0  0  0  0  0  0  0  0  0  0
   60.0220   34.9730   46.6100 C   0  0  0  0  0  0  0  0  0  0  0  0
   59.0210   34.4320   45.5770 C   0  0  0  0  0  0  0  0  0  0  0  0
   57.8580   33.6660   46.2500 C   0  0  0  0  0  0  0  0  0  0  0  0
   58.1760   32.2400   46.4560 N   0  0  0  0  0  0  0  0  0  0  0  0
   58.6490   31.7540   47.7430 C   0  0  0  0  0  0  0  0  0  0  0  0
   58.2480   32.3510   48.9580 C   0  0  0  0  0  0  0  0  0  0  0  0
   58.5710   31.7620   50.1830 C   0  0  0  0  0  0  0  0  0  0  0  0
   59.2930   30.5680   50.2200 C   0  0  0  0  0  0  0  0  0  0  0  0
   59.7360   29.9860   49.0320 C   0  0  0  0  0  0  0  0  0  0  0  0
   59.4420   30.5880   47.8040 C   0  0  0  0  0  0  0  0  0  0  0  0
   60.2300   29.9730   46.3230 S   0  0  0  0  0  0  0  0  0  0  0  0
   58.7390   30.0930   45.3480 C   0  0  0  0  0  0  0  0  0  0  0  0
   58.4270   29.0670   44.4500 C   0  0  0  0  0  0  0  0  0  0  0  0
   57.3930   29.2360   43.5270 C   0  0  0  0  0  0  0  0  0  0  0  0
   56.6830   30.4350   43.4910 C   0  0  0  0  0  0  0  0  0  0  0  0
   56.9710   31.4520   44.4050 C   0  0  0  0  0  0  0  0  0  0  0  0
   57.9780   31.2810   45.3790 C   0  0  0  0  0  0  0  0  0  0  0  0
   61.8970   33.4260   46.6700 C   0  0  0  0  0  0  0  0  0  0  0  0
   62.6810   32.4220   47.5230 C   0  0  0  0  0  0  0  0  0  0  0  0
   62.3349   29.6532   52.2918 H   0  0  0  0  0  0  0  0  0  0  0  0
   61.3177   29.2211   50.8757 H   0  0  0  0  0  0  0  0  0  0  0  0
   63.0706   28.8286   50.8757 H   0  0  0  0  0  0  0  0  0  0  0  0
   64.8348   30.0392   51.9162 H   0  0  0  0  0  0  0  0  0  0  0  0
   67.0699   31.1301   51.7361 H   0  0  0  0  0  0  0  0  0  0  0  0
   67.3932   33.0806   50.2168 H   0  0  0  0  0  0  0  0  0  0  0  0
   65.4855   33.9371   48.8612 H   0  0  0  0  0  0  0  0  0  0  0  0
   62.3442   34.3084   50.3551 H   0  0  0  0  0  0  0  0  0  0  0  0
   62.8106   35.0879   48.8029 H   0  0  0  0  0  0  0  0  0  0  0  0
   60.3079   33.4356   49.3950 H   0  0  0  0  0  0  0  0  0  0  0  0
   60.4383   35.2069   48.9525 H   0  0  0  0  0  0  0  0  0  0  0  0
   59.4904   35.6254   47.3184 H   0  0  0  0  0  0  0  0  0  0  0  0
   60.8034   35.5361   46.0787 H   0  0  0  0  0  0  0  0  0  0  0  0
   58.6077   35.2763   45.0057 H   0  0  0  0  0  0  0  0  0  0  0  0
   59.5551   33.7319   44.9177 H   0  0  0  0  0  0  0  0  0  0  0  0
   57.6482   34.1269   47.2265 H   0  0  0  0  0  0  0  0  0  0  0  0
   56.9845   33.7247   45.5840 H   0  0  0  0  0  0  0  0  0  0  0  0
   57.6752   33.2899   48.9399 H   0  0  0  0  0  0  0  0  0  0  0  0
   58.2552   32.2409   51.1216 H   0  0  0  0  0  0  0  0  0  0  0  0
   59.5124   30.0866   51.1845 H   0  0  0  0  0  0  0  0  0  0  0  0
   60.3172   29.0525   49.0610 H   0  0  0  0  0  0  0  0  0  0  0  0
   58.9967   28.1262   44.4709 H   0  0  0  0  0  0  0  0  0  0  0  0
   57.1391   28.4243   42.8294 H   0  0  0  0  0  0  0  0  0  0  0  0
   55.8927   30.5812   42.7400 H   0  0  0  0  0  0  0  0  0  0  0  0
   56.4071   32.3956   44.3650 H   0  0  0  0  0  0  0  0  0  0  0  0
   61.6248   32.9501   45.7164 H   0  0  0  0  0  0  0  0  0  0  0  0
   62.5335   34.3066   46.4984 H   0  0  0  0  0  0  0  0  0  0  0  0
   62.0809   31.5090   47.6506 H   0  0  0  0  0  0  0  0  0  0  0  0
   63.6274   32.1858   47.0145 H   0  0  0  0  0  0  0  0  0  0  0  0
  1  2  1  0
  2  3  1  0
  3  4  2  0
  4  5  1  0
  5  6  2  0
  6  7  1  0
  7  8  2  0
  8  9  1  0
  9 10  1  0
 10 11  1  0
 11 12  1  0
 12 13  1  0
 13 14  1  0
 14 15  1  0
 15 16  1  0
 16 17  1  0
 17 18  2  0
 18 19  1  0
 19 20  2  0
 20 21  1  0
 21 22  2  0
 22 23  1  0
 23 24  1  0
 24 25  2  0
 25 26  1  0
 26 27  2  0
 27 28  1  0
 28 29  2  0
 12 30  1  0
 30 31  1  0
  8  3  1  0
 31  9  1  0
 29 16  1  0
 22 17  1  0
 29 24  1  0
  1 32  1  0
  1 33  1  0
  1 34  1  0
  4 35  1  0
  5 36  1  0
  6 37  1  0
  7 38  1  0
 10 39  1  0
 10 40  1  0
 11 41  1  0
 11 42  1  0
 13 43  1  0
 13 44  1  0
 14 45  1  0
 14 46  1  0
 15 47  1  0
 15 48  1  0
 18 49  1  0
 19 50  1  0
 20 51  1  0
 21 52  1  0
 25 53  1  0
 26 54  1  0
 27 55  1  0
 28 56  1  0
 30 57  1  0
 30 58  1  0
 31 59  1  0
 31 60  1  0
M  END
>  <UniqueID>  (15) 
14

>  <SMILES>  (15) 
COc1ccccc1N1CCN(CCCN2c3ccccc3Sc3ccccc32)CC1

>  <Energy>  (15) 
94.15670698795702

>  <Genealogy>  (15) 
COc1ccccc1N1CCN(CCCN2c3ccccc3Sc3ccccc32)CC1 (3D coordinates assigned)
COc1ccccc1N1CCN(CCCN2c3ccccc3Sc3ccccc32)CC1 (nonaromatic ring conformer: 94.15670698795702 kcal/mol)

>  <smiles>  (15) 
COc1ccccc1N1CCN(CCCN2c3ccccc3Sc3ccccc32)CC1

>  <score_type>  (15) 
oracle

>  <origin>  (15) 
adg

>  <m_score__min__energy>  (15) 
-8.9499999999999993

>  <m_primary>  (15) 
energy

$$$$
15:0
     RDKit          3D

 49 51  0  0  0  0  0  0  0  0999 V2000
   58.5400   26.9530   47.1600 C   0  0  0  0  0  0  0  0  0  0  0  0
   59.2810   28.1810   47.6810 C   0  0  0  0  0  0  0  0  0  0  0  0
   60.0110   28.9500   46.5690 C   0  0  0  0  0  0  0  0  0  0  0  0
   59.2140   30.1010   46.0880 N   0  0  0  0  0  0  0  0  0  0  0  0
   59.3630   31.3320   46.6950 C   0  0  0  0  0  0  0  0  0  0  0  0
   60.1690   31.4520   47.6620 O   0  0  0  0  0  0  0  0  0  0  0  0
   58.6550   32.4370   46.2550 N   0  0  0  0  0  0  0  0  0  0  0  0
   58.8320   33.7550   46.9040 C   0  0  0  0  0  0  0  0  0  0  0  0
   60.2230   34.3970   46.6360 C   0  0  0  0  0  0  0  0  0  0  0  0
   61.4090   33.7470   47.2680 N   0  0  1  0  0  0  0  0  0  0  0  0
   62.6070   33.8500   46.3980 C   0  0  0  0  0  0  0  0  0  0  0  0
   63.7550   32.9820   46.9250 C   0  0  0  0  0  0  0  0  0  0  0  0
   64.1150   33.4050   48.3470 C   0  0  0  0  0  0  0  0  0  0  0  0
   62.8820   33.3480   49.2480 C   0  0  0  0  0  0  0  0  0  0  0  0
   61.7130   34.1800   48.6650 C   0  0  2  0  0  0  0  0  0  0  0  0
   60.5020   34.0270   49.6100 C   0  0  0  0  0  0  0  0  0  0  0  0
   57.7260   32.2980   45.2530 C   0  0  0  0  0  0  0  0  0  0  0  0
   57.0160   33.2710   44.8790 O   0  0  0  0  0  0  0  0  0  0  0  0
   57.5720   31.0640   44.6510 C   0  0  0  0  0  0  0  0  0  0  0  0
   56.5370   30.6280   43.4020 S   0  0  0  0  0  0  0  0  0  0  0  0
   57.0260   29.0140   43.3630 C   0  0  0  0  0  0  0  0  0  0  0  0
   58.0050   28.8100   44.3330 C   0  0  0  0  0  0  0  0  0  0  0  0
   58.3120   29.9780   45.0610 C   0  0  0  0  0  0  0  0  0  0  0  0
   58.1790   26.3548   48.0096 H   0  0  0  0  0  0  0  0  0  0  0  0
   57.6844   27.2735   46.5474 H   0  0  0  0  0  0  0  0  0  0  0  0
   59.2224   26.3455   46.5474 H   0  0  0  0  0  0  0  0  0  0  0  0
   58.5535   28.8556   48.1560 H   0  0  0  0  0  0  0  0  0  0  0  0
   60.0400   27.8319   48.3965 H   0  0  0  0  0  0  0  0  0  0  0  0
   60.9703   29.3190   46.9609 H   0  0  0  0  0  0  0  0  0  0  0  0
   60.1693   28.2642   45.7237 H   0  0  0  0  0  0  0  0  0  0  0  0
   58.0555   34.4363   46.5260 H   0  0  0  0  0  0  0  0  0  0  0  0
   58.7537   33.5942   47.9894 H   0  0  0  0  0  0  0  0  0  0  0  0
   60.3847   34.3935   45.5480 H   0  0  0  0  0  0  0  0  0  0  0  0
   60.1679   35.3943   47.0969 H   0  0  0  0  0  0  0  0  0  0  0  0
   61.1640   32.7280   47.3160 H   0  0  0  0  0  0  0  0  0  0  0  0
   62.3427   33.5169   45.3835 H   0  0  0  0  0  0  0  0  0  0  0  0
   62.9404   34.8982   46.3893 H   0  0  0  0  0  0  0  0  0  0  0  0
   63.4439   31.9269   46.9259 H   0  0  0  0  0  0  0  0  0  0  0  0
   64.6336   33.1098   46.2755 H   0  0  0  0  0  0  0  0  0  0  0  0
   64.8850   32.7265   48.7430 H   0  0  0  0  0  0  0  0  0  0  0  0
   64.4948   34.4371   48.3269 H   0  0  0  0  0  0  0  0  0  0  0  0
   62.5604   32.3008   49.3476 H   0  0  0  0  0  0  0  0  0  0  0  0
   63.1509   33.7703   50.2275 H   0  0  0  0  0  0  0  0  0  0  0  0
   61.9812   35.2450   48.6036 H   0  0  0  0  0  0  0  0  0  0  0  0
   60.8442   34.0702   50.6545 H   0  0  0  0  0  0  0  0  0  0  0  0
   59.7868   34.8419   49.4244 H   0  0  0  0  0  0  0  0  0  0  0  0
   60.0120   33.0598   49.4244 H   0  0  0  0  0  0  0  0  0  0  0  0
   56.6344   28.2453   42.6806 H   0  0  0  0  0  0  0  0  0  0  0  0
   58.4885   27.8384   44.5124 H   0  0  0  0  0  0  0  0  0  0  0  0
  1  2  1  0
  2  3  1  0
  3  4  1  0
  4  5  1  0
  5  6  2  0
  5  7  1  0
  7  8  1  0
  8  9  1  0
  9 10  1  0
 10 11  1  0
 11 12  1  0
 12 13  1  0
 13 14  1  0
 14 15  1  0
 15 16  1  0
  7 17  1  0
 17 18  2  0
 17 19  1  0
 19 20  1  0
 20 21  1  0
 21 22  2  0
 22 23  1  0
 23  4  1  0
 15 10  1  0
 23 19  2  0
  1 24  1  0
  1 25  1  0
  1 26  1  0
  2 27  1  0
  2 28  1  0
  3 29  1  0
  3 30  1  0
  8 31  1  0
  8 32  1  0
  9 33  1  0
  9 34  1  0
 10 35  1  1
 11 36  1  0
 11 37  1  0
 12 38  1  0
 12 39  1  0
 13 40  1  0
 13 41  1  0
 14 42  1  0
 14 43  1  0
 15 44  1  6
 16 45  1  0
 16 46  1  0
 16 47  1  0
 21 48  1  0
 22 49  1  0
M  CHG  1  10   1
M  END
>  <UniqueID>  (16) 
15

>  <SMILES>  (16) 
CCCn1c(=O)n(CC[N@H+]2CCCC[C@@H]2C)c(=O)c2sccc21

>  <Energy>  (16) 
89.01362297168228

>  <Genealogy>  (16) 
CCCn1c(=O)n(CC[NH+]2CCCCC2C)c(=O)c2sccc21 (protonated)
CCCn1c(=O)n(CC[N@H+]2CCCC[C@@H]2C)c(=O)c2sccc21 (chirality)
CCCn1c(=O)n(CC[N@H+]2CCCC[C@@H]2C)c(=O)c2sccc21 (3D coordinates assigned)
CCCn1c(=O)n(CC[N@H+]2CCCC[C@@H]2C)c(=O)c2sccc21 (nonaromatic ring conformer: 89.01362297168228 kcal/mol)

>  <smiles>  (16) 
CCCn1c(=O)n(CCN2CCCCC2C)c(=O)c2sccc21

>  <score_type>  (16) 
oracle

>  <origin>  (16) 
adg

>  <m_score__min__energy>  (16) 
-5.8799999999999999

>  <m_primary>  (16) 
energy

$$$$
16:0
     RDKit          3D

 44 46  0  0  0  0  0  0  0  0999 V2000
   56.8380   30.8680   43.2980 C   0  0  0  0  0  0  0  0  0  0  0  0
   55.7770   30.2210   43.9370 C   0  0  0  0  0  0  0  0  0  0  0  0
   55.9990   29.5110   45.0750 N   0  0  0  0  0  0  0  0  0  0  0  0
   57.2400   29.4000   45.6190 C   0  0  0  0  0  0  0  0  0  0  0  0
   58.3370   30.0190   45.0020 C   0  0  0  0  0  0  0  0  0  0  0  0
   59.7100   29.9430   45.6160 C   0  0  0  0  0  0  0  0  0  0  0  0
   60.0240   31.1880   46.3340 N   0  0  0  0  0  0  0  0  0  0  0  0
   59.5510   31.1110   47.6980 C   0  0  0  0  0  0  0  0  0  0  0  0
   59.8390   29.9660   48.4640 C   0  0  0  0  0  0  0  0  0  0  0  0
   59.4480   29.8870   49.8020 C   0  0  0  0  0  0  0  0  0  0  0  0
   58.7690   30.9500   50.3960 C   0  0  0  0  0  0  0  0  0  0  0  0
   58.4770   32.0950   49.6540 C   0  0  0  0  0  0  0  0  0  0  0  0
   58.8590   32.1900   48.3070 C   0  0  0  0  0  0  0  0  0  0  0  0
   58.5170   33.3720   47.5670 N   0  0  0  0  0  0  0  0  0  0  0  0
   57.2520   33.4040   46.8150 C   0  0  0  0  0  0  0  0  0  0  0  0
   57.3350   34.2660   45.5400 C   0  0  0  0  0  0  0  0  0  0  0  0
   58.4700   33.8970   44.5700 C   0  0  0  0  0  0  0  0  0  0  0  0
   59.8050   33.9360   45.1880 N   0  0  0  0  0  0  0  0  0  0  0  0
   59.9950   34.9390   46.2550 C   0  0  0  0  0  0  0  0  0  0  0  0
   59.4310   34.5280   47.6300 C   0  0  0  0  0  0  0  0  0  0  0  0
   58.1220   30.7710   43.8380 C   0  0  0  0  0  0  0  0  0  0  0  0
   56.6636   31.4475   42.3794 H   0  0  0  0  0  0  0  0  0  0  0  0
   54.7616   30.2862   43.5190 H   0  0  0  0  0  0  0  0  0  0  0  0
   57.3840   28.8236   46.5448 H   0  0  0  0  0  0  0  0  0  0  0  0
   59.7446   29.0998   46.3216 H   0  0  0  0  0  0  0  0  0  0  0  0
   60.4499   29.7985   44.8150 H   0  0  0  0  0  0  0  0  0  0  0  0
   61.0530   31.3640   46.3060 H   0  0  0  0  0  0  0  0  0  0  0  0
   59.5590   31.9920   45.8500 H   0  0  0  0  0  0  0  0  0  0  0  0
   60.3777   29.1246   48.0038 H   0  0  0  0  0  0  0  0  0  0  0  0
   59.6760   28.9847   50.3884 H   0  0  0  0  0  0  0  0  0  0  0  0
   58.4632   30.8859   51.4507 H   0  0  0  0  0  0  0  0  0  0  0  0
   57.9425   32.9308   50.1292 H   0  0  0  0  0  0  0  0  0  0  0  0
   56.9885   32.3756   46.5271 H   0  0  0  0  0  0  0  0  0  0  0  0
   56.4901   33.8534   47.4688 H   0  0  0  0  0  0  0  0  0  0  0  0
   56.3814   34.1675   45.0005 H   0  0  0  0  0  0  0  0  0  0  0  0
   57.5457   35.2910   45.8790 H   0  0  0  0  0  0  0  0  0  0  0  0
   58.2898   32.8791   44.1940 H   0  0  0  0  0  0  0  0  0  0  0  0
   58.4639   34.6459   43.7643 H   0  0  0  0  0  0  0  0  0  0  0  0
   60.4910   34.1420   44.4230 H   0  0  0  0  0  0  0  0  0  0  0  0
   61.0741   35.1205   46.3671 H   0  0  0  0  0  0  0  0  0  0  0  0
   59.4369   35.8345   45.9441 H   0  0  0  0  0  0  0  0  0  0  0  0
   60.2730   34.2711   48.2895 H   0  0  0  0  0  0  0  0  0  0  0  0
   58.8498   35.3809   48.0104 H   0  0  0  0  0  0  0  0  0  0  0  0
   58.9642   31.2841   43.3508 H   0  0  0  0  0  0  0  0  0  0  0  0
  1  2  2  0
  2  3  1  0
  3  4  2  0
  4  5  1  0
  5  6  1  0
  6  7  1  0
  7  8  1  0
  8  9  2  0
  9 10  1  0
 10 11  2  0
 11 12  1  0
 12 13  2  0
 13 14  1  0
 14 15  1  0
 15 16  1  0
 16 17  1  0
 17 18  1  0
 18 19  1  0
 19 20  1  0
  5 21  2  0
 21  1  1  0
 13  8  1  0
 20 14  1  0
  1 22  1  0
  2 23  1  0
  4 24  1  0
  6 25  1  0
  6 26  1  0
  7 27  1  0
  7 28  1  0
  9 29  1  0
 10 30  1  0
 11 31  1  0
 12 32  1  0
 15 33  1  0
 15 34  1  0
 16 35  1  0
 16 36  1  0
 17 37  1  0
 17 38  1  0
 18 39  1  0
 19 40  1  0
 19 41  1  0
 20 42  1  0
 20 43  1  0
 21 44  1  0
M  CHG  1   7   1
M  END
>  <UniqueID>  (17) 
16

>  <SMILES>  (17) 
c1cncc(C[NH2+]c2ccccc2N2CCCNCC2)c1

>  <Energy>  (17) 
61.050003155458406

>  <Genealogy>  (17) 
c1cncc(C[NH2+]c2ccccc2N2CCCNCC2)c1 (protonated)
c1cncc(C[NH2+]c2ccccc2N2CCCNCC2)c1 (3D coordinates assigned)
c1cncc(C[NH2+]c2ccccc2N2CCCNCC2)c1 (nonaromatic ring conformer: 61.050003155458406 kcal/mol)

>  <smiles>  (17) 
c1cncc(CNc2ccccc2N2CCCNCC2)c1

>  <score_type>  (17) 
oracle

>  <origin>  (17) 
adg

>  <m_score__min__energy>  (17) 
-3.8399999999999999

>  <m_primary>  (17) 
energy

$$$$
17:0
     RDKit          3D

 40 42  0  0  0  0  0  0  0  0999 V2000
   65.2560   33.0400   49.9390 C   0  0  0  0  0  0  0  0  0  0  0  0
   63.9960   33.1680   49.1440 C   0  0  0  0  0  0  0  0  0  0  0  0
   62.8840   33.6940   49.7220 N   0  0  0  0  0  0  0  0  0  0  0  0
   61.7210   33.8070   49.0300 C   0  0  0  0  0  0  0  0  0  0  0  0
   61.6560   33.3840   47.6990 C   0  0  0  0  0  0  0  0  0  0  0  0
   60.3980   33.4750   46.9290 C   0  0  0  0  0  0  0  0  0  0  0  0
   60.1090   34.6840   46.2770 C   0  0  0  0  0  0  0  0  0  0  0  0
   58.9410   34.8260   45.5270 C   0  0  0  0  0  0  0  0  0  0  0  0
   58.0450   33.7650   45.4250 C   0  0  0  0  0  0  0  0  0  0  0  0
   58.3070   32.5580   46.0760 C   0  0  0  0  0  0  0  0  0  0  0  0
   57.4010   31.5500   45.9810 F   0  0  0  0  0  0  0  0  0  0  0  0
   59.4850   32.3910   46.8320 C   0  0  0  0  0  0  0  0  0  0  0  0
   59.6780   31.0930   47.5890 C   0  0  0  0  0  0  0  0  0  0  0  0
   58.7370   31.0210   48.7220 N   0  0  0  0  0  0  0  0  0  0  0  0
   58.6040   32.3010   49.4260 C   0  0  0  0  0  0  0  0  0  0  0  0
   58.1700   31.9760   50.8490 C   0  0  0  0  0  0  0  0  0  0  0  0
   58.5460   30.5100   51.0550 C   0  0  1  0  0  0  0  0  0  0  0  0
   57.4170   29.7280   51.3660 O   0  0  0  0  0  0  0  0  0  0  0  0
   59.1870   30.0690   49.7410 C   0  0  0  0  0  0  0  0  0  0  0  0
   62.8030   32.8190   47.1310 C   0  0  0  0  0  0  0  0  0  0  0  0
   63.9480   32.7250   47.8570 N   0  0  0  0  0  0  0  0  0  0  0  0
   65.0164   33.0643   51.0123 H   0  0  0  0  0  0  0  0  0  0  0  0
   65.7485   32.0872   49.6948 H   0  0  0  0  0  0  0  0  0  0  0  0
   65.9300   33.8743   49.6948 H   0  0  0  0  0  0  0  0  0  0  0  0
   60.8303   34.2312   49.5165 H   0  0  0  0  0  0  0  0  0  0  0  0
   60.8101   35.5277   46.3581 H   0  0  0  0  0  0  0  0  0  0  0  0
   58.7279   35.7766   45.0161 H   0  0  0  0  0  0  0  0  0  0  0  0
   57.1273   33.8782   44.8292 H   0  0  0  0  0  0  0  0  0  0  0  0
   59.4961   30.2461   46.9109 H   0  0  0  0  0  0  0  0  0  0  0  0
   60.7077   31.0509   47.9737 H   0  0  0  0  0  0  0  0  0  0  0  0
   59.5683   32.8302   49.4355 H   0  0  0  0  0  0  0  0  0  0  0  0
   57.8702   32.9516   48.9279 H   0  0  0  0  0  0  0  0  0  0  0  0
   58.7002   32.6156   51.5700 H   0  0  0  0  0  0  0  0  0  0  0  0
   57.0948   32.1510   51.0020 H   0  0  0  0  0  0  0  0  0  0  0  0
   59.2343   30.3833   51.9036 H   0  0  0  0  0  0  0  0  0  0  0  0
   56.6440   30.0960   50.8600 H   0  0  0  0  0  0  0  0  0  0  0  0
   60.2835   30.0923   49.8258 H   0  0  0  0  0  0  0  0  0  0  0  0
   58.8976   29.0400   49.4814 H   0  0  0  0  0  0  0  0  0  0  0  0
   62.7780   32.4502   46.0950 H   0  0  0  0  0  0  0  0  0  0  0  0
   64.7960   32.3040   47.4140 H   0  0  0  0  0  0  0  0  0  0  0  0
  1  2  1  0
  2  3  2  0
  3  4  1  0
  4  5  2  0
  5  6  1  0
  6  7  2  0
  7  8  1  0
  8  9  2  0
  9 10  1  0
 10 11  1  0
 10 12  2  0
 12 13  1  0
 13 14  1  0
 14 15  1  0
 15 16  1  0
 16 17  1  0
 17 18  1  0
 17 19  1  0
  5 20  1  0
 20 21  2  0
 21  2  1  0
 12  6  1  0
 19 14  1  0
  1 22  1  0
  1 23  1  0
  1 24  1  0
  4 25  1  0
  7 26  1  0
  8 27  1  0
  9 28  1  0
 13 29  1  0
 13 30  1  0
 15 31  1  0
 15 32  1  0
 16 33  1  0
 16 34  1  0
 17 35  1  1
 18 36  1  0
 19 37  1  0
 19 38  1  0
 20 39  1  0
 21 40  1  0
M  CHG  1  21   1
M  END
>  <UniqueID>  (18) 
17

>  <SMILES>  (18) 
Cc1ncc(-c2cccc(F)c2CN2CC[C@@H](O)C2)c[nH+]1

>  <Energy>  (18) 
52.37786994175007

>  <Genealogy>  (18) 
Cc1ncc(-c2cccc(F)c2CN2CCC(O)C2)c[nH+]1 (protonated)
Cc1ncc(-c2cccc(F)c2CN2CC[C@@H](O)C2)c[nH+]1 (chirality)
Cc1ncc(-c2cccc(F)c2CN2CC[C@@H](O)C2)c[nH+]1 (3D coordinates assigned)
Cc1ncc(-c2cccc(F)c2CN2CC[C@@H](O)C2)c[nH+]1 (nonaromatic ring conformer: 52.37786994175007 kcal/mol)

>  <smiles>  (18) 
Cc1ncc(-c2cccc(F)c2CN2CCC(O)C2)cn1

>  <score_type>  (18) 
oracle

>  <origin>  (18) 
adg

>  <m_score__min__energy>  (18) 
-6.2699999999999996

>  <m_primary>  (18) 
energy

$$$$
18:0
     RDKit          3D

 33 35  0  0  0  0  0  0  0  0999 V2000
   55.6400   28.9700   44.8710 O   0  0  0  0  0  0  0  0  0  0  0  0
   56.9840   29.1070   44.2130 S   0  0  0  0  0  0  0  0  0  0  0  0
   56.8240   28.7960   42.7510 O   0  0  0  0  0  0  0  0  0  0  0  0
   57.5420   30.7730   44.3880 C   0  0  0  0  0  0  0  0  0  0  0  0
   57.8160   31.2950   45.6610 C   0  0  0  0  0  0  0  0  0  0  0  0
   58.2550   32.6160   45.7990 C   0  0  0  0  0  0  0  0  0  0  0  0
   58.4220   33.4200   44.6670 C   0  0  0  0  0  0  0  0  0  0  0  0
   58.1530   32.9040   43.3980 C   0  0  0  0  0  0  0  0  0  0  0  0
   57.7140   31.5830   43.2560 C   0  0  0  0  0  0  0  0  0  0  0  0
   58.1050   27.9090   44.9360 C   0  0  0  0  0  0  0  0  0  0  0  0
   57.8940   26.4910   44.6200 C   0  0  0  0  0  0  0  0  0  0  0  0
   57.7210   25.3270   44.3580 C   0  0  0  0  0  0  0  0  0  0  0  0
   57.5150   23.9380   44.0460 C   0  0  0  0  0  0  0  0  0  0  0  0
   56.4250   23.5330   43.2740 C   0  0  0  0  0  0  0  0  0  0  0  0
   56.2480   22.2160   42.9900 N   0  0  0  0  0  0  0  0  0  0  0  0
   57.1210   21.2810   43.4490 C   0  0  0  0  0  0  0  0  0  0  0  0
   58.1900   21.6550   44.2020 N   0  0  0  0  0  0  0  0  0  0  0  0
   58.4020   22.9630   44.5080 C   0  0  0  0  0  0  0  0  0  0  0  0
   59.5510   28.3340   45.1230 C   0  0  0  0  0  0  0  0  0  0  0  0
   58.6300   28.2010   46.3330 C   0  0  0  0  0  0  0  0  0  0  0  0
   57.6854   30.6641   46.5526 H   0  0  0  0  0  0  0  0  0  0  0  0
   58.4690   33.0226   46.7985 H   0  0  0  0  0  0  0  0  0  0  0  0
   58.7654   34.4593   44.7765 H   0  0  0  0  0  0  0  0  0  0  0  0
   58.2864   33.5369   42.5083 H   0  0  0  0  0  0  0  0  0  0  0  0
   57.5034   31.1791   42.2548 H   0  0  0  0  0  0  0  0  0  0  0  0
   55.7103   24.2789   42.8960 H   0  0  0  0  0  0  0  0  0  0  0  0
   56.9625   20.2188   43.2108 H   0  0  0  0  0  0  0  0  0  0  0  0
   58.8560   20.9290   44.5500 H   0  0  0  0  0  0  0  0  0  0  0  0
   59.2703   23.2525   45.1181 H   0  0  0  0  0  0  0  0  0  0  0  0
   60.3625   27.6080   44.9667 H   0  0  0  0  0  0  0  0  0  0  0  0
   60.1868   29.1325   44.7129 H   0  0  0  0  0  0  0  0  0  0  0  0
   58.7768   27.3789   47.0490 H   0  0  0  0  0  0  0  0  0  0  0  0
   58.3257   28.8632   47.1570 H   0  0  0  0  0  0  0  0  0  0  0  0
  1  2  2  0
  2  3  2  0
  2  4  1  0
  4  5  2  0
  5  6  1  0
  6  7  2  0
  7  8  1  0
  8  9  2  0
  2 10  1  0
 10 11  1  0
 11 12  3  0
 12 13  1  0
 13 14  2  0
 14 15  1  0
 15 16  2  0
 16 17  1  0
 17 18  2  0
 10 19  1  0
 19 20  1  0
  9  4  1  0
 20 10  1  0
 18 13  1  0
  5 21  1  0
  6 22  1  0
  7 23  1  0
  8 24  1  0
  9 25  1  0
 14 26  1  0
 16 27  1  0
 17 28  1  0
 18 29  1  0
 19 30  1  0
 19 31  1  0
 20 32  1  0
 20 33  1  0
M  CHG  1  17   1
M  END
>  <UniqueID>  (19) 
18

>  <SMILES>  (19) 
O=S(=O)(c1ccccc1)C1(C#Cc2cnc[nH+]c2)CC1

>  <Energy>  (19) 
296.66879028122725

>  <Genealogy>  (19) 
O=S(=O)(c1ccccc1)C1(C#Cc2cnc[nH+]c2)CC1 (protonated)
O=S(=O)(c1ccccc1)C1(C#Cc2cnc[nH+]c2)CC1 (3D coordinates assigned)
O=S(=O)(c1ccccc1)C1(C#Cc2cnc[nH+]c2)CC1 (nonaromatic ring conformer: 296.66879028122725 kcal/mol)

>  <smiles>  (19) 
O=S(=O)(c1ccccc1)C1(C#Cc2cncnc2)CC1

>  <score_type>  (19) 
oracle

>  <origin>  (19) 
adg

>  <m_score__min__energy>  (19) 
-6.8099999999999996

>  <m_primary>  (19) 
energy

$$$$
19:0
     RDKit          3D

 57 61  0  0  0  0  0  0  0  0999 V2000
   55.3370   24.1050   44.7110 C   0  0  0  0  0  0  0  0  0  0  0  0
   55.2230   25.1110   45.7120 O   0  0  0  0  0  0  0  0  0  0  0  0
   56.3090   25.7870   46.2930 C   0  0  0  0  0  0  0  0  0  0  0  0
   56.6050   27.1280   45.9870 C   0  0  0  0  0  0  0  0  0  0  0  0
   57.6990   27.7780   46.5850 C   0  0  0  0  0  0  0  0  0  0  0  0
   58.0210   29.1160   46.3230 C   0  0  0  0  0  0  0  0  0  0  0  0
   59.1030   29.7340   46.9490 C   0  0  0  0  0  0  0  0  0  0  0  0
   59.9380   29.0310   47.7900 N   0  0  0  0  0  0  0  0  0  0  0  0
   61.1570   29.6240   48.3740 C   0  0  0  0  0  0  0  0  0  0  0  0
   60.9050   30.0590   49.8310 C   0  0  0  0  0  0  0  0  0  0  0  0
   61.7530   29.2910   50.8770 C   0  0  0  0  0  0  0  0  0  0  0  0
   61.1680   28.0290   51.3990 N   0  0  0  0  0  0  0  0  0  0  0  0
   60.0600   28.2540   52.3460 C   0  0  0  0  0  0  0  0  0  0  0  0
   62.1700   27.1070   51.9620 C   0  0  0  0  0  0  0  0  0  0  0  0
   59.6260   27.7220   48.0970 C   0  0  0  0  0  0  0  0  0  0  0  0
   60.3400   27.0810   48.9200 O   0  0  0  0  0  0  0  0  0  0  0  0
   58.5120   27.0740   47.5020 C   0  0  0  0  0  0  0  0  0  0  0  0
   58.2070   25.7330   47.8050 C   0  0  0  0  0  0  0  0  0  0  0  0
   57.1110   25.0890   47.2040 C   0  0  0  0  0  0  0  0  0  0  0  0
   56.7850   23.7520   47.4870 O   0  0  0  0  0  0  0  0  0  0  0  0
   55.5930   23.3310   48.1410 C   0  0  0  0  0  0  0  0  0  0  0  0
   59.1450   31.1570   46.5010 C   0  0  0  0  0  0  0  0  0  0  0  0
   59.9390   32.2610   46.8860 C   0  0  0  0  0  0  0  0  0  0  0  0
   59.6610   33.4860   46.2680 C   0  0  0  0  0  0  0  0  0  0  0  0
   58.6610   33.6340   45.3520 C   0  0  0  0  0  0  0  0  0  0  0  0
   57.8380   32.5740   44.9730 C   0  0  0  0  0  0  0  0  0  0  0  0
   58.1050   31.3380   45.5780 C   0  0  0  0  0  0  0  0  0  0  0  0
   57.3790   30.0930   45.4380 C   0  0  0  0  0  0  0  0  0  0  0  0
   56.3820   29.9120   44.6910 O   0  0  0  0  0  0  0  0  0  0  0  0
   58.6200   34.9470   44.9280 O   0  0  0  0  0  0  0  0  0  0  0  0
   59.6520   35.6700   45.6140 C   0  0  0  0  0  0  0  0  0  0  0  0
   60.2880   34.7010   46.4600 O   0  0  0  0  0  0  0  0  0  0  0  0
   55.4485   23.1214   45.1907 H   0  0  0  0  0  0  0  0  0  0  0  0
   54.4329   24.1070   44.0845 H   0  0  0  0  0  0  0  0  0  0  0  0
   56.2177   24.3093   44.0845 H   0  0  0  0  0  0  0  0  0  0  0  0
   55.9730   27.6744   45.2714 H   0  0  0  0  0  0  0  0  0  0  0  0
   61.9664   28.8794   48.3540 H   0  0  0  0  0  0  0  0  0  0  0  0
   61.4386   30.5085   47.7838 H   0  0  0  0  0  0  0  0  0  0  0  0
   61.1383   31.1305   49.9168 H   0  0  0  0  0  0  0  0  0  0  0  0
   59.8509   29.8345   50.0510 H   0  0  0  0  0  0  0  0  0  0  0  0
   62.7185   29.0453   50.4108 H   0  0  0  0  0  0  0  0  0  0  0  0
   61.8262   29.9620   51.7455 H   0  0  0  0  0  0  0  0  0  0  0  0
   60.7530   27.5420   50.5690 H   0  0  0  0  0  0  0  0  0  0  0  0
   60.4371   28.1774   53.3765 H   0  0  0  0  0  0  0  0  0  0  0  0
   59.6370   29.2564   52.1839 H   0  0  0  0  0  0  0  0  0  0  0  0
   59.2795   27.4960   52.1839 H   0  0  0  0  0  0  0  0  0  0  0  0
   62.1277   27.1459   53.0605 H   0  0  0  0  0  0  0  0  0  0  0  0
   61.9570   26.0825   51.6229 H   0  0  0  0  0  0  0  0  0  0  0  0
   63.1733   27.4043   51.6229 H   0  0  0  0  0  0  0  0  0  0  0  0
   58.8344   25.1821   48.5212 H   0  0  0  0  0  0  0  0  0  0  0  0
   55.7353   23.3812   49.2306 H   0  0  0  0  0  0  0  0  0  0  0  0
   54.7621   23.9901   47.8489 H   0  0  0  0  0  0  0  0  0  0  0  0
   55.3604   22.2963   47.8489 H   0  0  0  0  0  0  0  0  0  0  0  0
   60.7377   32.1624   47.6359 H   0  0  0  0  0  0  0  0  0  0  0  0
   57.0262   32.7004   44.2416 H   0  0  0  0  0  0  0  0  0  0  0  0
   60.3729   36.0884   44.8962 H   0  0  0  0  0  0  0  0  0  0  0  0
   59.2496   36.5176   46.1882 H   0  0  0  0  0  0  0  0  0  0  0  0
  1  2  1  0
  2  3  1  0
  3  4  2  0
  4  5  1  0
  5  6  1  0
  6  7  2  0
  7  8  1  0
  8  9  1  0
  9 10  1  0
 10 11  1  0
 11 12  1  0
 12 13  1  0
 12 14  1  0
  8 15  1  0
 15 16  2  0
 15 17  1  0
 17 18  1  0
 18 19  2  0
 19 20  1  0
 20 21  1  0
  7 22  1  0
 22 23  2  0
 23 24  1  0
 24 25  2  0
 25 26  1  0
 26 27  2  0
 27 28  1  0
 28 29  2  0
 25 30  1  0
 30 31  1  0
 31 32  1  0
 19  3  1  0
 27 22  1  0
 17  5  2  0
 32 24  1  0
 28  6  1  0
  1 33  1  0
  1 34  1  0
  1 35  1  0
  4 36  1  0
  9 37  1  0
  9 38  1  0
 10 39  1  0
 10 40  1  0
 11 41  1  0
 11 42  1  0
 12 43  1  0
 13 44  1  0
 13 45  1  0
 13 46  1  0
 14 47  1  0
 14 48  1  0
 14 49  1  0
 18 50  1  0
 21 51  1  0
 21 52  1  0
 21 53  1  0
 23 54  1  0
 26 55  1  0
 31 56  1  0
 31 57  1  0
M  CHG  1  12   1
M  END
>  <UniqueID>  (20) 
19

>  <SMILES>  (20) 
COc1cc2c3c(n(CCC[NH+](C)C)c(=O)c2cc1OC)-c1cc2c(cc1C3=O)OCO2

>  <Energy>  (20) 
140.81871930059617

>  <Genealogy>  (20) 
COc1cc2c3c(n(CCC[NH+](C)C)c(=O)c2cc1OC)-c1cc2c(cc1C3=O)OCO2 (protonated)
COc1cc2c3c(n(CCC[NH+](C)C)c(=O)c2cc1OC)-c1cc2c(cc1C3=O)OCO2 (3D coordinates assigned)
COc1cc2c3c(n(CCC[NH+](C)C)c(=O)c2cc1OC)-c1cc2c(cc1C3=O)OCO2 (nonaromatic ring conformer: 140.81871930059617 kcal/mol)

>  <smiles>  (20) 
COc1cc2c3c(n(CCCN(C)C)c(=O)c2cc1OC)-c1cc2c(cc1C3=O)OCO2

>  <score_type>  (20) 
oracle

>  <origin>  (20) 
adg

>  <m_score__min__energy>  (20) 
-5.5300000000000002

>  <m_primary>  (20) 
energy

$$$$
20:0
     RDKit          3D

 45 46  0  0  0  0  0  0  0  0999 V2000
   58.0743   33.7480   48.3582 H   0  0  0  0  0  0  0  0  0  0  0  0
   58.8750   33.7560   47.6040 C   0  0  0  0  0  0  0  0  0  0  0  0
   58.7130   32.9640   46.3620 C   0  0  0  0  0  0  0  0  0  0  0  0
   58.7640   31.6040   46.4240 C   0  0  0  0  0  0  0  0  0  0  0  0
   59.0820   30.8930   47.7190 C   0  0  0  0  0  0  0  0  0  0  0  0
   58.7963   31.5318   48.5677 H   0  0  0  0  0  0  0  0  0  0  0  0
   58.5207   29.9481   47.7660 H   0  0  0  0  0  0  0  0  0  0  0  0
   60.1605   30.6815   47.7660 H   0  0  0  0  0  0  0  0  0  0  0  0
   58.6010   30.7370   45.1950 C   0  0  0  0  0  0  0  0  0  0  0  0
   58.0841   29.8103   45.4848 H   0  0  0  0  0  0  0  0  0  0  0  0
   59.6062   30.5362   44.7959 H   0  0  0  0  0  0  0  0  0  0  0  0
   57.7970   31.4190   44.0920 C   0  0  0  0  0  0  0  0  0  0  0  0
   56.7475   31.5128   44.4078 H   0  0  0  0  0  0  0  0  0  0  0  0
   57.8510   30.8168   43.1731 H   0  0  0  0  0  0  0  0  0  0  0  0
   58.3730   32.8040   43.8260 C   0  0  0  0  0  0  0  0  0  0  0  0
   57.8034   33.2760   43.0119 H   0  0  0  0  0  0  0  0  0  0  0  0
   59.4318   32.6868   43.5519 H   0  0  0  0  0  0  0  0  0  0  0  0
   58.2980   33.7120   45.0840 C   0  0  0  0  0  0  0  0  0  0  0  0
   59.2390   34.9130   44.8470 C   0  0  0  0  0  0  0  0  0  0  0  0
   59.5606   35.3235   45.8155 H   0  0  0  0  0  0  0  0  0  0  0  0
   60.1204   34.5816   44.2783 H   0  0  0  0  0  0  0  0  0  0  0  0
   58.7064   35.6895   44.2783 H   0  0  0  0  0  0  0  0  0  0  0  0
   56.8570   34.2430   45.2590 C   0  0  0  0  0  0  0  0  0  0  0  0
   56.6253   34.3284   46.3309 H   0  0  0  0  0  0  0  0  0  0  0  0
   56.7706   35.2320   44.7853 H   0  0  0  0  0  0  0  0  0  0  0  0
   56.1495   33.5465   44.7853 H   0  0  0  0  0  0  0  0  0  0  0  0
   59.9770   34.4800   47.8240 C   0  0  0  0  0  0  0  0  0  0  0  0
   59.8851   35.5705   47.9350 H   0  0  0  0  0  0  0  0  0  0  0  0
   61.3200   33.8580   47.9230 C   0  0  0  0  0  0  0  0  0  0  0  0
   62.0850   33.8360   46.7500 C   0  0  0  0  0  0  0  0  0  0  0  0
   61.7110   34.3268   45.8394 H   0  0  0  0  0  0  0  0  0  0  0  0
   63.3160   33.1940   46.7380 C   0  0  0  0  0  0  0  0  0  0  0  0
   63.9256   33.1859   45.8224 H   0  0  0  0  0  0  0  0  0  0  0  0
   63.7740   32.5630   47.8850 C   0  0  0  0  0  0  0  0  0  0  0  0
   64.7379   32.0331   47.8742 H   0  0  0  0  0  0  0  0  0  0  0  0
   63.0070   32.6010   49.0590 C   0  0  0  0  0  0  0  0  0  0  0  0
   63.5470   31.8930   50.2790 C   0  0  0  0  0  0  0  0  0  0  0  0
   63.1701   32.3872   51.1866 H   0  0  0  0  0  0  0  0  0  0  0  0
   63.2180   30.8434   50.2695 H   0  0  0  0  0  0  0  0  0  0  0  0
   64.6462   31.9328   50.2695 H   0  0  0  0  0  0  0  0  0  0  0  0
   61.8180   33.3050   49.0870 N   0  0  0  0  0  0  0  0  0  0  0  0
   61.0960   33.4700   50.3630 C   0  0  0  0  0  0  0  0  0  0  0  0
   61.7910   33.3112   51.2007 H   0  0  0  0  0  0  0  0  0  0  0  0
   60.6795   34.4865   50.4198 H   0  0  0  0  0  0  0  0  0  0  0  0
   60.2793   32.7354   50.4198 H   0  0  0  0  0  0  0  0  0  0  0  0
  1  2  1  0
  2  3  1  0
  3  4  2  0
  4  5  1  0
  5  6  1  0
  5  7  1  0
  5  8  1  0
  4  9  1  0
  9 10  1  0
  9 11  1  0
  9 12  1  0
 12 13  1  0
 12 14  1  0
 12 15  1  0
 15 16  1  0
 15 17  1  0
 15 18  1  0
 18 19  1  0
 19 20  1  0
 19 21  1  0
 19 22  1  0
 18 23  1  0
 23 24  1  0
 23 25  1  0
 23 26  1  0
  2 27  2  0
 27 28  1  0
 27 29  1  0
 29 30  2  0
 30 31  1  0
 30 32  1  0
 32 33  1  0
 32 34  2  0
 34 35  1  0
 34 36  1  0
 36 37  1  0
 37 38  1  0
 37 39  1  0
 37 40  1  0
 36 41  2  0
 41 42  1  0
 42 43  1  0
 42 44  1  0
 42 45  1  0
 18  3  1  0
 41 29  1  0
M  CHG  1  41   1
M  END
>  <UniqueID>  (21) 
20

>  <SMILES>  (21) 
CC1=C(/C=C/c2cccc(C)[n+]2C)C(C)(C)CCC1

>  <Energy>  (21) 
59.563898438926856

>  <Genealogy>  (21) 
CC1=C(/C=C/c2cccc(C)[n+]2C)C(C)(C)CCC1 (cis-trans isomerization)
CC1=C(/C=C/c2cccc(C)[n+]2C)C(C)(C)CCC1 (3D coordinates assigned)
CC1=C(/C=C/c2cccc(C)[n+]2C)C(C)(C)CCC1 (nonaromatic ring conformer: 59.563898438926856 kcal/mol)

>  <smiles>  (21) 
CC1=C(C=Cc2cccc(C)[n+]2C)C(C)(C)CCC1

>  <score_type>  (21) 
oracle

>  <origin>  (21) 
adg

>  <m_score__min__energy>  (21) 
-6.2999999999999998

>  <m_primary>  (21) 
energy

$$$$
21:0
     RDKit          3D

 45 47  0  0  0  0  0  0  0  0999 V2000
   61.2140   33.8410   46.3610 C   0  0  0  0  0  0  0  0  0  0  0  0
   60.1880   34.7440   47.0490 C   0  0  0  0  0  0  0  0  0  0  0  0
   58.8810   34.7890   46.3610 N   0  0  0  0  0  0  0  0  0  0  0  0
   58.9320   34.8120   44.8840 C   0  0  0  0  0  0  0  0  0  0  0  0
   58.7510   33.4230   44.2240 C   0  0  0  0  0  0  0  0  0  0  0  0
   58.0380   32.4340   45.0710 N   0  0  0  0  0  0  0  0  0  0  0  0
   57.3830   31.4160   44.2180 C   0  0  0  0  0  0  0  0  0  0  0  0
   57.6330   30.0490   44.7060 N   0  0  0  0  0  0  0  0  0  0  0  0
   56.5970   29.0960   44.9180 C   0  0  0  0  0  0  0  0  0  0  0  0
   55.3780   29.4070   44.8630 O   0  0  0  0  0  0  0  0  0  0  0  0
   57.0370   27.7180   45.2250 C   0  0  0  0  0  0  0  0  0  0  0  0
   58.8300   27.6670   44.9020 S   0  0  0  0  0  0  0  0  0  0  0  0
   58.9720   29.4910   44.8550 C   0  0  2  0  0  0  0  0  0  0  0  0
   59.5980   29.9580   46.1320 C   0  0  0  0  0  0  0  0  0  0  0  0
   60.7800   29.4870   46.6720 C   0  0  0  0  0  0  0  0  0  0  0  0
   60.9660   30.1960   47.8400 C   0  0  0  0  0  0  0  0  0  0  0  0
   59.8850   31.0500   47.9350 C   0  0  0  0  0  0  0  0  0  0  0  0
   59.6530   32.0380   49.0270 C   0  0  0  0  0  0  0  0  0  0  0  0
   59.0840   30.8840   46.9090 O   0  0  0  0  0  0  0  0  0  0  0  0
   57.0690   33.1000   45.9600 C   0  0  0  0  0  0  0  0  0  0  0  0
   57.8060   33.9820   46.9760 C   0  0  0  0  0  0  0  0  0  0  0  0
   61.8099   33.3165   47.1225 H   0  0  0  0  0  0  0  0  0  0  0  0
   60.6915   33.1044   45.7330 H   0  0  0  0  0  0  0  0  0  0  0  0
   61.8782   34.4529   45.7330 H   0  0  0  0  0  0  0  0  0  0  0  0
   60.0293   34.3727   48.0722 H   0  0  0  0  0  0  0  0  0  0  0  0
   60.5958   35.7655   47.0319 H   0  0  0  0  0  0  0  0  0  0  0  0
   58.1320   35.4740   44.5209 H   0  0  0  0  0  0  0  0  0  0  0  0
   59.9355   35.1670   44.6065 H   0  0  0  0  0  0  0  0  0  0  0  0
   58.1798   33.5553   43.2933 H   0  0  0  0  0  0  0  0  0  0  0  0
   59.7605   33.0215   44.0517 H   0  0  0  0  0  0  0  0  0  0  0  0
   58.7530   31.9470   45.6570 H   0  0  0  0  0  0  0  0  0  0  0  0
   56.2984   31.5996   44.2139 H   0  0  0  0  0  0  0  0  0  0  0  0
   57.8024   31.4987   43.2045 H   0  0  0  0  0  0  0  0  0  0  0  0
   56.8334   27.4795   46.2793 H   0  0  0  0  0  0  0  0  0  0  0  0
   56.4997   26.9812   44.6098 H   0  0  0  0  0  0  0  0  0  0  0  0
   59.5987   29.8187   44.0124 H   0  0  0  0  0  0  0  0  0  0  0  0
   61.4362   28.7082   46.2563 H   0  0  0  0  0  0  0  0  0  0  0  0
   61.8018   30.1010   48.5488 H   0  0  0  0  0  0  0  0  0  0  0  0
   59.7696   31.5414   50.0016 H   0  0  0  0  0  0  0  0  0  0  0  0
   60.3835   32.8561   48.9426 H   0  0  0  0  0  0  0  0  0  0  0  0
   58.6347   32.4455   48.9426 H   0  0  0  0  0  0  0  0  0  0  0  0
   56.3930   33.7252   45.3582 H   0  0  0  0  0  0  0  0  0  0  0  0
   56.4905   32.3355   46.4994 H   0  0  0  0  0  0  0  0  0  0  0  0
   57.0790   34.6627   47.4430 H   0  0  0  0  0  0  0  0  0  0  0  0
   58.2742   33.3152   47.7151 H   0  0  0  0  0  0  0  0  0  0  0  0
  1  2  1  0
  2  3  1  0
  3  4  1  0
  4  5  1  0
  5  6  1  0
  6  7  1  0
  7  8  1  0
  8  9  1  0
  9 10  2  0
  9 11  1  0
 11 12  1  0
 12 13  1  0
 13 14  1  0
 14 15  2  0
 15 16  1  0
 16 17  2  0
 17 18  1  0
 17 19  1  0
  6 20  1  0
 20 21  1  0
 21  3  1  0
 13  8  1  0
 19 14  1  0
  1 22  1  0
  1 23  1  0
  1 24  1  0
  2 25  1  0
  2 26  1  0
  4 27  1  0
  4 28  1  0
  5 29  1  0
  5 30  1  0
  6 31  1  0
  7 32  1  0
  7 33  1  0
 11 34  1  0
 11 35  1  0
 13 36  1  6
 15 37  1  0
 16 38  1  0
 18 39  1  0
 18 40  1  0
 18 41  1  0
 20 42  1  0
 20 43  1  0
 21 44  1  0
 21 45  1  0
M  CHG  1   6   1
M  END
>  <UniqueID>  (22) 
21

>  <SMILES>  (22) 
CCN1CC[NH+](CN2C(=O)CS[C@@H]2c2ccc(C)o2)CC1

>  <Energy>  (22) 
78.68049913153794

>  <Genealogy>  (22) 
CCN1CC[NH+](CN2C(=O)CSC2c2ccc(C)o2)CC1 (protonated)
CCN1CC[NH+](CN2C(=O)CS[C@@H]2c2ccc(C)o2)CC1 (chirality)
CCN1CC[NH+](CN2C(=O)CS[C@@H]2c2ccc(C)o2)CC1 (3D coordinates assigned)
CCN1CC[NH+](CN2C(=O)CS[C@@H]2c2ccc(C)o2)CC1 (nonaromatic ring conformer: 78.68049913153794 kcal/mol)

>  <smiles>  (22) 
CCN1CCN(CN2C(=O)CSC2c2ccc(C)o2)CC1

>  <score_type>  (22) 
oracle

>  <origin>  (22) 
adg

>  <m_score__min__energy>  (22) 
-4.8399999999999999

>  <m_primary>  (22) 
energy

$$$$
22:0
     RDKit          3D

 48 51  0  0  0  0  0  0  0  0999 V2000
   64.2930   32.1030   49.3100 C   0  0  0  0  0  0  0  0  0  0  0  0
   63.6100   33.1630   48.5540 N   0  0  0  0  0  0  0  0  0  0  0  0
   62.8460   32.6830   47.3770 C   0  0  0  0  0  0  0  0  0  0  0  0
   61.9500   33.7550   46.7120 C   0  0  0  0  0  0  0  0  0  0  0  0
   60.7660   34.2010   47.5760 C   0  0  0  0  0  0  0  0  0  0  0  0
   60.6970   33.4360   48.8260 N   0  0  0  0  0  0  0  0  0  0  0  0
   59.7880   32.3270   48.9930 C   0  0  0  0  0  0  0  0  0  0  0  0
   58.8350   32.4260   49.8130 O   0  0  0  0  0  0  0  0  0  0  0  0
   59.9040   31.0840   48.1460 C   0  0  0  0  0  0  0  0  0  0  0  0
   58.5910   30.7090   47.4270 C   0  0  0  0  0  0  0  0  0  0  0  0
   58.7270   29.4680   46.5730 C   0  0  0  0  0  0  0  0  0  0  0  0
   58.8970   28.1440   46.9900 C   0  0  0  0  0  0  0  0  0  0  0  0
   58.9770   27.1330   46.0190 C   0  0  0  0  0  0  0  0  0  0  0  0
   58.8620   27.4470   44.6510 C   0  0  0  0  0  0  0  0  0  0  0  0
   58.6530   28.7740   44.2450 C   0  0  0  0  0  0  0  0  0  0  0  0
   58.5880   29.7630   45.2270 C   0  0  0  0  0  0  0  0  0  0  0  0
   58.3030   31.1750   45.0970 C   0  0  0  0  0  0  0  0  0  0  0  0
   58.0380   31.9310   43.9550 C   0  0  0  0  0  0  0  0  0  0  0  0
   57.7390   33.2940   44.1150 C   0  0  0  0  0  0  0  0  0  0  0  0
   57.7030   33.8670   45.4010 C   0  0  0  0  0  0  0  0  0  0  0  0
   57.9680   33.0830   46.5370 C   0  0  0  0  0  0  0  0  0  0  0  0
   58.2720   31.7310   46.3630 C   0  0  0  0  0  0  0  0  0  0  0  0
   61.5710   33.8470   49.9280 C   0  0  0  0  0  0  0  0  0  0  0  0
   62.9760   34.1930   49.4160 C   0  0  0  0  0  0  0  0  0  0  0  0
   64.1745   32.2869   50.3880 H   0  0  0  0  0  0  0  0  0  0  0  0
   63.8528   31.1280   49.0538 H   0  0  0  0  0  0  0  0  0  0  0  0
   65.3627   32.1010   49.0538 H   0  0  0  0  0  0  0  0  0  0  0  0
   63.5637   32.3212   46.6260 H   0  0  0  0  0  0  0  0  0  0  0  0
   62.1714   31.8948   47.7426 H   0  0  0  0  0  0  0  0  0  0  0  0
   62.5701   34.6368   46.4933 H   0  0  0  0  0  0  0  0  0  0  0  0
   61.5277   33.2985   45.8047 H   0  0  0  0  0  0  0  0  0  0  0  0
   60.8799   35.2685   47.8156 H   0  0  0  0  0  0  0  0  0  0  0  0
   59.8391   34.0245   47.0106 H   0  0  0  0  0  0  0  0  0  0  0  0
   60.6823   31.2506   47.3867 H   0  0  0  0  0  0  0  0  0  0  0  0
   60.1540   30.2524   48.8213 H   0  0  0  0  0  0  0  0  0  0  0  0
   57.8548   30.6084   48.2381 H   0  0  0  0  0  0  0  0  0  0  0  0
   58.9668   27.8989   48.0601 H   0  0  0  0  0  0  0  0  0  0  0  0
   59.1305   26.0888   46.3289 H   0  0  0  0  0  0  0  0  0  0  0  0
   58.9363   26.6489   43.8977 H   0  0  0  0  0  0  0  0  0  0  0  0
   58.5433   29.0278   43.1803 H   0  0  0  0  0  0  0  0  0  0  0  0
   58.0625   31.4719   42.9557 H   0  0  0  0  0  0  0  0  0  0  0  0
   57.5321   33.9166   43.2321 H   0  0  0  0  0  0  0  0  0  0  0  0
   57.4660   34.9349   45.5171 H   0  0  0  0  0  0  0  0  0  0  0  0
   57.9366   33.5256   47.5435 H   0  0  0  0  0  0  0  0  0  0  0  0
   61.1391   34.7315   50.4190 H   0  0  0  0  0  0  0  0  0  0  0  0
   61.6531   33.0126   50.6401 H   0  0  0  0  0  0  0  0  0  0  0  0
   62.9062   35.1251   48.8361 H   0  0  0  0  0  0  0  0  0  0  0  0
   63.6129   34.2756   50.3091 H   0  0  0  0  0  0  0  0  0  0  0  0
  1  2  1  0
  2  3  1  0
  3  4  1  0
  4  5  1  0
  5  6  1  0
  6  7  1  0
  7  8  2  0
  7  9  1  0
  9 10  1  0
 10 11  1  0
 11 12  2  0
 12 13  1  0
 13 14  2  0
 14 15  1  0
 15 16  2  0
 16 17  1  0
 17 18  2  0
 18 19  1  0
 19 20  2  0
 20 21  1  0
 21 22  2  0
  6 23  1  0
 23 24  1  0
 24  2  1  0
 22 10  1  0
 16 11  1  0
 22 17  1  0
  1 25  1  0
  1 26  1  0
  1 27  1  0
  3 28  1  0
  3 29  1  0
  4 30  1  0
  4 31  1  0
  5 32  1  0
  5 33  1  0
  9 34  1  0
  9 35  1  0
 10 36  1  0
 12 37  1  0
 13 38  1  0
 14 39  1  0
 15 40  1  0
 18 41  1  0
 19 42  1  0
 20 43  1  0
 21 44  1  0
 23 45  1  0
 23 46  1  0
 24 47  1  0
 24 48  1  0
M  END
>  <UniqueID>  (23) 
22

>  <SMILES>  (23) 
CN1CCCN(C(=O)CC2c3ccccc3-c3ccccc32)CC1

>  <Energy>  (23) 
81.32262086206569

>  <Genealogy>  (23) 
CN1CCCN(C(=O)CC2c3ccccc3-c3ccccc32)CC1 (3D coordinates assigned)
CN1CCCN(C(=O)CC2c3ccccc3-c3ccccc32)CC1 (nonaromatic ring conformer: 81.32262086206569 kcal/mol)

>  <smiles>  (23) 
CN1CCCN(C(=O)CC2c3ccccc3-c3ccccc32)CC1

>  <score_type>  (23) 
oracle

>  <origin>  (23) 
adg

>  <m_score__min__energy>  (23) 
-6.0700000000000003

>  <m_primary>  (23) 
energy

$$$$
23:0
     RDKit          3D

 50 53  0  0  0  0  0  0  0  0999 V2000
   54.7710   29.2970   44.1070 H   0  0  0  0  0  0  0  0  0  0  0  0
   55.7820   29.6880   44.2940 C   0  0  0  0  0  0  0  0  0  0  0  0
   56.5590   29.1310   45.2580 N   0  0  0  0  0  0  0  0  0  0  0  0
   57.8090   29.5970   45.5130 C   0  0  0  0  0  0  0  0  0  0  0  0
   58.5170   29.0370   46.4470 N   0  0  0  0  0  0  0  0  0  0  0  0
   59.4930   29.6490   47.3080 C   0  0  0  0  0  0  0  0  0  0  0  0
   59.2000   29.7450   48.6740 C   0  0  0  0  0  0  0  0  0  0  0  0
   58.2789   29.2910   49.0683 H   0  0  0  0  0  0  0  0  0  0  0  0
   60.0690   30.4130   49.5390 C   0  0  0  0  0  0  0  0  0  0  0  0
   59.8389   30.4637   50.6135 H   0  0  0  0  0  0  0  0  0  0  0  0
   61.2340   31.0200   49.0460 C   0  0  0  0  0  0  0  0  0  0  0  0
   61.5530   30.9050   47.6820 C   0  0  0  0  0  0  0  0  0  0  0  0
   60.6630   30.2470   46.8160 C   0  0  0  0  0  0  0  0  0  0  0  0
   60.8863   30.2003   45.7399 H   0  0  0  0  0  0  0  0  0  0  0  0
   62.7980   31.5350   47.1130 C   0  0  0  0  0  0  0  0  0  0  0  0
   63.4140   30.7367   46.6735 H   0  0  0  0  0  0  0  0  0  0  0  0
   62.4574   32.2790   46.3779 H   0  0  0  0  0  0  0  0  0  0  0  0
   63.6650   32.3020   48.1320 C   0  0  0  0  0  0  0  0  0  0  0  0
   64.4533   31.6230   48.4892 H   0  0  0  0  0  0  0  0  0  0  0  0
   64.0557   33.1833   47.6023 H   0  0  0  0  0  0  0  0  0  0  0  0
   62.9330   32.8180   49.3120 N   0  0  1  0  0  0  0  0  0  0  0  0
   63.6840   33.0570   50.0020 H   0  0  0  0  0  0  0  0  0  0  0  0
   62.2110   34.1060   49.1190 C   0  0  0  0  0  0  0  0  0  0  0  0
   61.8801   34.4595   50.1067 H   0  0  0  0  0  0  0  0  0  0  0  0
   62.9249   34.7788   48.6212 H   0  0  0  0  0  0  0  0  0  0  0  0
   60.9900   34.0480   48.2090 C   0  0  0  0  0  0  0  0  0  0  0  0
   61.2040   34.2000   46.8230 C   0  0  0  0  0  0  0  0  0  0  0  0
   62.2299   34.3131   46.4425 H   0  0  0  0  0  0  0  0  0  0  0  0
   60.1360   34.2090   45.9290 C   0  0  0  0  0  0  0  0  0  0  0  0
   60.3202   34.3585   44.8549 H   0  0  0  0  0  0  0  0  0  0  0  0
   58.8350   34.0290   46.3930 C   0  0  0  0  0  0  0  0  0  0  0  0
   57.9917   34.0519   45.6871 H   0  0  0  0  0  0  0  0  0  0  0  0
   58.6010   33.8200   47.7500 C   0  0  0  0  0  0  0  0  0  0  0  0
   57.5710   33.6666   48.1045 H   0  0  0  0  0  0  0  0  0  0  0  0
   59.6610   33.8020   48.6740 C   0  0  0  0  0  0  0  0  0  0  0  0
   59.2950   33.5490   50.1160 C   0  0  0  0  0  0  0  0  0  0  0  0
   60.0213   34.0510   50.7721 H   0  0  0  0  0  0  0  0  0  0  0  0
   58.2878   33.9446   50.3135 H   0  0  0  0  0  0  0  0  0  0  0  0
   59.3092   32.4670   50.3135 H   0  0  0  0  0  0  0  0  0  0  0  0
   62.1420   31.7640   49.9860 C   0  0  0  0  0  0  0  0  0  0  0  0
   62.8359   31.0449   50.4459 H   0  0  0  0  0  0  0  0  0  0  0  0
   61.5065   32.2579   50.7358 H   0  0  0  0  0  0  0  0  0  0  0  0
   58.3030   30.6370   44.7760 N   0  0  0  0  0  0  0  0  0  0  0  0
   57.5620   31.2230   43.7990 C   0  0  0  0  0  0  0  0  0  0  0  0
   58.1150   32.3900   43.0430 C   0  0  0  0  0  0  0  0  0  0  0  0
   58.4749   33.1494   43.7528 H   0  0  0  0  0  0  0  0  0  0  0  0
   58.9500   32.0546   42.4103 H   0  0  0  0  0  0  0  0  0  0  0  0
   57.3267   32.8238   42.4103 H   0  0  0  0  0  0  0  0  0  0  0  0
   56.2680   30.7570   43.5410 C   0  0  0  0  0  0  0  0  0  0  0  0
   55.6476   31.2234   42.7615 H   0  0  0  0  0  0  0  0  0  0  0  0
  1  2  1  0
  2  3  1  0
  3  4  1  0
  4  5  2  0
  5  6  1  0
  6  7  2  0
  7  8  1  0
  7  9  1  0
  9 10  1  0
  9 11  2  0
 11 12  1  0
 12 13  2  0
 13 14  1  0
 12 15  1  0
 15 16  1  0
 15 17  1  0
 15 18  1  0
 18 19  1  0
 18 20  1  0
 18 21  1  0
 21 22  1  1
 21 23  1  0
 23 24  1  0
 23 25  1  0
 23 26  1  0
 26 27  2  0
 27 28  1  0
 27 29  1  0
 29 30  1  0
 29 31  2  0
 31 32  1  0
 31 33  1  0
 33 34  1  0
 33 35  2  0
 35 36  1  0
 36 37  1  0
 36 38  1  0
 36 39  1  0
 21 40  1  0
 40 41  1  0
 40 42  1  0
  4 43  1  0
 43 44  2  0
 44 45  1  0
 45 46  1  0
 45 47  1  0
 45 48  1  0
 44 49  1  0
 49 50  1  0
 49  2  2  0
 13  6  1  0
 35 26  1  0
 40 11  1  0
M  CHG  2   3  -1  21   1
M  END
>  <UniqueID>  (24) 
23

>  <SMILES>  (24) 
Cc1cc[n-]/c(=N/c2ccc3c(c2)CC[N@@H+](Cc2ccccc2C)C3)n1

>  <Energy>  (24) 
74.96819557978675

>  <Genealogy>  (24) 
Cc1cc[n-]c(=Nc2ccc3c(c2)CC[NH+](Cc2ccccc2C)C3)n1 (protonated)
Cc1cc[n-]c(=Nc2ccc3c(c2)CC[N@@H+](Cc2ccccc2C)C3)n1 (chirality)
Cc1cc[n-]/c(=N/c2ccc3c(c2)CC[N@@H+](Cc2ccccc2C)C3)n1 (cis-trans isomerization)
Cc1cc[n-]/c(=N/c2ccc3c(c2)CC[N@@H+](Cc2ccccc2C)C3)n1 (3D coordinates assigned)
Cc1cc[n-]/c(=N/c2ccc3c(c2)CC[N@@H+](Cc2ccccc2C)C3)n1 (nonaromatic ring conformer: 74.96819557978675 kcal/mol)

>  <smiles>  (24) 
Cc1cc[nH]c(=Nc2ccc3c(c2)CCN(Cc2ccccc2C)C3)n1

>  <score_type>  (24) 
oracle

>  <origin>  (24) 
adg

>  <m_score__min__energy>  (24) 
-8.9000000000000004

>  <m_primary>  (24) 
energy

$$$$
24:0
     RDKit          3D

 47 50  0  0  0  0  0  0  0  0999 V2000
   55.6652   30.6810   52.4088 H   0  0  0  0  0  0  0  0  0  0  0  0
   56.6330   30.9980   51.9930 C   0  0  0  0  0  0  0  0  0  0  0  0
   57.4550   30.0830   51.4140 N   0  0  0  0  0  0  0  0  0  0  0  0
   58.6660   30.4320   50.8960 C   0  0  0  0  0  0  0  0  0  0  0  0
   59.5170   29.3880   50.2320 C   0  0  0  0  0  0  0  0  0  0  0  0
   58.8697   28.5785   49.8636 H   0  0  0  0  0  0  0  0  0  0  0  0
   60.2363   29.0037   50.9702 H   0  0  0  0  0  0  0  0  0  0  0  0
   60.2990   29.9780   49.0540 C   0  0  0  0  0  0  0  0  0  0  0  0
   61.3620   29.7166   49.1624 H   0  0  0  0  0  0  0  0  0  0  0  0
   60.1647   31.0698   49.0595 H   0  0  0  0  0  0  0  0  0  0  0  0
   59.8200   29.4710   47.8090 O   0  0  0  0  0  0  0  0  0  0  0  0
   59.0020   30.2020   46.9410 C   0  0  0  0  0  0  0  0  0  0  0  0
   58.6860   31.5100   47.1840 N   0  0  0  0  0  0  0  0  0  0  0  0
   57.8680   32.2200   46.3430 C   0  0  0  0  0  0  0  0  0  0  0  0
   57.5850   33.4560   46.6270 N   0  0  0  0  0  0  0  0  0  0  0  0
   58.5140   34.5780   46.4880 C   0  0  0  0  0  0  0  0  0  0  0  0
   58.6420   34.8109   45.4206 H   0  0  0  0  0  0  0  0  0  0  0  0
   58.1015   35.4473   47.0211 H   0  0  0  0  0  0  0  0  0  0  0  0
   59.8550   34.2350   47.0840 C   0  0  0  0  0  0  0  0  0  0  0  0
   60.9210   33.8650   46.2480 C   0  0  0  0  0  0  0  0  0  0  0  0
   60.7831   33.8529   45.1567 H   0  0  0  0  0  0  0  0  0  0  0  0
   62.1570   33.5120   46.7980 C   0  0  0  0  0  0  0  0  0  0  0  0
   62.9900   33.2267   46.1387 H   0  0  0  0  0  0  0  0  0  0  0  0
   62.3360   33.5210   48.1850 C   0  0  0  0  0  0  0  0  0  0  0  0
   63.8860   33.0720   48.8740 Cl  0  0  0  0  0  0  0  0  0  0  0  0
   61.2770   33.8850   49.0240 C   0  0  0  0  0  0  0  0  0  0  0  0
   61.4177   33.8919   50.1149 H   0  0  0  0  0  0  0  0  0  0  0  0
   60.0400   34.2400   48.4770 C   0  0  0  0  0  0  0  0  0  0  0  0
   59.2090   34.5241   49.1393 H   0  0  0  0  0  0  0  0  0  0  0  0
   57.3490   31.6200   45.2260 N   0  0  0  0  0  0  0  0  0  0  0  0
   57.6640   30.3260   44.9790 C   0  0  0  0  0  0  0  0  0  0  0  0
   58.4710   29.6090   45.8050 C   0  0  0  0  0  0  0  0  0  0  0  0
   58.5450   28.3270   45.3020 C   0  0  0  0  0  0  0  0  0  0  0  0
   59.1104   27.4779   45.7135 H   0  0  0  0  0  0  0  0  0  0  0  0
   57.7470   28.3410   44.1580 C   0  0  0  0  0  0  0  0  0  0  0  0
   57.5700   27.4722   43.5070 H   0  0  0  0  0  0  0  0  0  0  0  0
   57.2200   29.5740   43.9600 N   0  0  0  0  0  0  0  0  0  0  0  0
   56.2610   29.9620   42.9330 C   0  0  0  0  0  0  0  0  0  0  0  0
   55.3425   30.3336   43.4107 H   0  0  0  0  0  0  0  0  0  0  0  0
   56.6953   30.7552   42.3067 H   0  0  0  0  0  0  0  0  0  0  0  0
   56.0216   29.0900   42.3067 H   0  0  0  0  0  0  0  0  0  0  0  0
   59.0780   31.7740   50.9390 C   0  0  0  0  0  0  0  0  0  0  0  0
   60.0478   32.0711   50.5134 H   0  0  0  0  0  0  0  0  0  0  0  0
   58.2450   32.7270   51.5270 C   0  0  0  0  0  0  0  0  0  0  0  0
   58.5572   33.7809   51.5695 H   0  0  0  0  0  0  0  0  0  0  0  0
   57.0150   32.3400   52.0610 C   0  0  0  0  0  0  0  0  0  0  0  0
   56.3537   33.0834   52.5302 H   0  0  0  0  0  0  0  0  0  0  0  0
  1  2  1  0
  2  3  2  0
  3  4  1  0
  4  5  1  0
  5  6  1  0
  5  7  1  0
  5  8  1  0
  8  9  1  0
  8 10  1  0
  8 11  1  0
 11 12  1  0
 12 13  2  0
 13 14  1  0
 14 15  2  0
 15 16  1  0
 16 17  1  0
 16 18  1  0
 16 19  1  0
 19 20  2  0
 20 21  1  0
 20 22  1  0
 22 23  1  0
 22 24  2  0
 24 25  1  0
 24 26  1  0
 26 27  1  0
 26 28  2  0
 28 29  1  0
 14 30  1  0
 30 31  1  0
 31 32  2  0
 32 33  1  0
 33 34  1  0
 33 35  2  0
 35 36  1  0
 35 37  1  0
 37 38  1  0
 38 39  1  0
 38 40  1  0
 38 41  1  0
  4 42  2  0
 42 43  1  0
 42 44  1  0
 44 45  1  0
 44 46  2  0
 46 47  1  0
 46  2  1  0
 32 12  1  0
 28 19  1  0
 37 31  1  0
M  CHG  1  30  -1
M  END
>  <UniqueID>  (25) 
24

>  <SMILES>  (25) 
Cn1ccc2c(OCCc3ccccn3)n/c(=N/Cc3ccc(Cl)cc3)[n-]c21

>  <Energy>  (25) 
80.37528323247982

>  <Genealogy>  (25) 
Cn1ccc2c(OCCc3ccccn3)nc(=NCc3ccc(Cl)cc3)[n-]c21 (protonated)
Cn1ccc2c(OCCc3ccccn3)n/c(=N/Cc3ccc(Cl)cc3)[n-]c21 (cis-trans isomerization)
Cn1ccc2c(OCCc3ccccn3)n/c(=N/Cc3ccc(Cl)cc3)[n-]c21 (3D coordinates assigned)
Cn1ccc2c(OCCc3ccccn3)n/c(=N/Cc3ccc(Cl)cc3)[n-]c21 (optimized conformer: 80.37528323247982 kcal/mol)

>  <smiles>  (25) 
Cn1ccc2c(OCCc3ccccn3)nc(=NCc3ccc(Cl)cc3)[nH]c21

>  <score_type>  (25) 
oracle

>  <origin>  (25) 
adg

>  <m_score__min__energy>  (25) 
-9.8200000000000003

>  <m_primary>  (25) 
energy

$$$$
25:0
     RDKit          3D

 47 49  0  0  0  0  0  0  0  0999 V2000
   58.1050   32.2850   49.6150 C   0  0  0  0  0  0  0  0  0  0  0  0
   58.9830   33.0600   48.8040 O   0  0  0  0  0  0  0  0  0  0  0  0
   58.6920   33.5040   47.5050 C   0  0  0  0  0  0  0  0  0  0  0  0
   57.3960   33.4130   46.9600 C   0  0  0  0  0  0  0  0  0  0  0  0
   57.1490   33.8330   45.6510 C   0  0  0  0  0  0  0  0  0  0  0  0
   58.1860   34.3450   44.8710 C   0  0  0  0  0  0  0  0  0  0  0  0
   59.4740   34.4450   45.4000 C   0  0  0  0  0  0  0  0  0  0  0  0
   59.7350   34.0390   46.7180 C   0  0  0  0  0  0  0  0  0  0  0  0
   61.0700   34.1460   47.2460 N   0  0  0  0  0  0  0  0  0  0  0  0
   61.3070   34.5760   48.6220 C   0  0  0  0  0  0  0  0  0  0  0  0
   62.1450   33.5250   49.3690 C   0  0  0  0  0  0  0  0  0  0  0  0
   63.1280   32.8040   48.5070 N   0  0  0  0  0  0  0  0  0  0  0  0
   62.6970   31.4420   48.2300 C   0  0  0  0  0  0  0  0  0  0  0  0
   62.9020   30.9380   47.1340 O   0  0  0  0  0  0  0  0  0  0  0  0
   61.9770   30.6220   49.2710 C   0  0  0  0  0  0  0  0  0  0  0  0
   60.5780   30.5760   48.9860 O   0  0  0  0  0  0  0  0  0  0  0  0
   60.0050   29.9820   47.8500 C   0  0  0  0  0  0  0  0  0  0  0  0
   59.8920   30.6550   46.6170 C   0  0  0  0  0  0  0  0  0  0  0  0
   59.3400   30.0060   45.5090 C   0  0  0  0  0  0  0  0  0  0  0  0
   58.8870   28.6880   45.6210 C   0  0  0  0  0  0  0  0  0  0  0  0
   58.1410   27.8020   44.1030 Br  0  0  0  0  0  0  0  0  0  0  0  0
   58.9800   28.0210   46.8450 C   0  0  0  0  0  0  0  0  0  0  0  0
   59.5330   28.6670   47.9550 C   0  0  0  0  0  0  0  0  0  0  0  0
   63.4660   33.5260   47.2560 C   0  0  0  0  0  0  0  0  0  0  0  0
   62.2270   33.8460   46.3980 C   0  0  0  0  0  0  0  0  0  0  0  0
   58.3217   32.4762   50.6764 H   0  0  0  0  0  0  0  0  0  0  0  0
   57.0633   32.5635   49.3974 H   0  0  0  0  0  0  0  0  0  0  0  0
   58.2520   31.2168   49.3974 H   0  0  0  0  0  0  0  0  0  0  0  0
   56.5739   33.0088   47.5689 H   0  0  0  0  0  0  0  0  0  0  0  0
   56.1338   33.7598   45.2339 H   0  0  0  0  0  0  0  0  0  0  0  0
   57.9888   34.6700   43.8388 H   0  0  0  0  0  0  0  0  0  0  0  0
   60.2898   34.8447   44.7798 H   0  0  0  0  0  0  0  0  0  0  0  0
   61.8474   35.5341   48.6155 H   0  0  0  0  0  0  0  0  0  0  0  0
   60.3401   34.6941   49.1331 H   0  0  0  0  0  0  0  0  0  0  0  0
   62.6978   34.0322   50.1735 H   0  0  0  0  0  0  0  0  0  0  0  0
   61.4413   32.7692   49.7480 H   0  0  0  0  0  0  0  0  0  0  0  0
   64.0210   32.7490   49.0510 H   0  0  0  0  0  0  0  0  0  0  0  0
   62.3812   29.5990   49.2703 H   0  0  0  0  0  0  0  0  0  0  0  0
   62.1260   31.0856   50.2573 H   0  0  0  0  0  0  0  0  0  0  0  0
   60.2394   31.6947   46.5263 H   0  0  0  0  0  0  0  0  0  0  0  0
   59.2618   30.5333   44.5468 H   0  0  0  0  0  0  0  0  0  0  0  0
   58.6177   26.9863   46.9357 H   0  0  0  0  0  0  0  0  0  0  0  0
   59.5979   28.1389   48.9177 H   0  0  0  0  0  0  0  0  0  0  0  0
   63.9648   34.4705   47.5191 H   0  0  0  0  0  0  0  0  0  0  0  0
   64.1201   32.8708   46.6619 H   0  0  0  0  0  0  0  0  0  0  0  0
   62.4438   34.7172   45.7623 H   0  0  0  0  0  0  0  0  0  0  0  0
   61.9915   32.9686   45.7778 H   0  0  0  0  0  0  0  0  0  0  0  0
  1  2  1  0
  2  3  1  0
  3  4  2  0
  4  5  1  0
  5  6  2  0
  6  7  1  0
  7  8  2  0
  8  9  1  0
  9 10  1  0
 10 11  1  0
 11 12  1  0
 12 13  1  0
 13 14  2  0
 13 15  1  0
 15 16  1  0
 16 17  1  0
 17 18  2  0
 18 19  1  0
 19 20  2  0
 20 21  1  0
 20 22  1  0
 22 23  2  0
 12 24  1  0
 24 25  1  0
  8  3  1  0
 25  9  1  0
 23 17  1  0
  1 26  1  0
  1 27  1  0
  1 28  1  0
  4 29  1  0
  5 30  1  0
  6 31  1  0
  7 32  1  0
 10 33  1  0
 10 34  1  0
 11 35  1  0
 11 36  1  0
 12 37  1  0
 15 38  1  0
 15 39  1  0
 18 40  1  0
 19 41  1  0
 22 42  1  0
 23 43  1  0
 24 44  1  0
 24 45  1  0
 25 46  1  0
 25 47  1  0
M  CHG  1  12   1
M  END
>  <UniqueID>  (26) 
25

>  <SMILES>  (26) 
COc1ccccc1N1CC[NH+](C(=O)COc2ccc(Br)cc2)CC1

>  <Energy>  (26) 
58.76863492388554

>  <Genealogy>  (26) 
COc1ccccc1N1CC[NH+](C(=O)COc2ccc(Br)cc2)CC1 (protonated)
COc1ccccc1N1CC[NH+](C(=O)COc2ccc(Br)cc2)CC1 (3D coordinates assigned)
COc1ccccc1N1CC[NH+](C(=O)COc2ccc(Br)cc2)CC1 (nonaromatic ring conformer: 58.76863492388554 kcal/mol)

>  <smiles>  (26) 
COc1ccccc1N1CCN(C(=O)COc2ccc(Br)cc2)CC1

>  <score_type>  (26) 
oracle

>  <origin>  (26) 
adg

>  <m_score__min__energy>  (26) 
-5.7000000000000002

>  <m_primary>  (26) 
energy

$$$$
26:0
     RDKit          3D

 39 40  0  0  0  0  0  0  0  0999 V2000
   59.8770   29.6910   45.1340 C   0  0  0  0  0  0  0  0  0  0  0  0
   58.6510   30.3570   45.7650 C   0  0  2  0  0  0  0  0  0  0  0  0
   57.6840   29.3130   46.3820 C   0  0  0  0  0  0  0  0  0  0  0  0
   56.8860   28.5540   45.3850 N   0  0  0  0  0  0  0  0  0  0  0  0
   57.4210   27.1970   45.1390 C   0  0  0  0  0  0  0  0  0  0  0  0
   56.4560   26.1200   45.6490 C   0  0  0  0  0  0  0  0  0  0  0  0
   55.2270   26.6970   45.9980 O   0  0  0  0  0  0  0  0  0  0  0  0
   56.6160   29.2940   44.1290 C   0  0  0  0  0  0  0  0  0  0  0  0
   56.6420   30.8050   44.3500 C   0  0  0  0  0  0  0  0  0  0  0  0
   57.9960   31.2260   44.7530 N   0  0  0  0  0  0  0  0  0  0  0  0
   58.1210   32.6790   45.0050 C   0  0  0  0  0  0  0  0  0  0  0  0
   59.0210   33.0210   46.1760 C   0  0  0  0  0  0  0  0  0  0  0  0
   58.4800   33.1670   47.4640 C   0  0  0  0  0  0  0  0  0  0  0  0
   59.3060   33.4780   48.5460 C   0  0  0  0  0  0  0  0  0  0  0  0
   60.6790   33.6610   48.3580 C   0  0  0  0  0  0  0  0  0  0  0  0
   61.7650   34.0820   49.8790 Br  0  0  0  0  0  0  0  0  0  0  0  0
   61.2280   33.5420   47.0700 C   0  0  0  0  0  0  0  0  0  0  0  0
   63.0980   33.8020   46.7450 Br  0  0  0  0  0  0  0  0  0  0  0  0
   60.3970   33.2310   45.9860 C   0  0  0  0  0  0  0  0  0  0  0  0
   60.5461   29.3275   45.9279 H   0  0  0  0  0  0  0  0  0  0  0  0
   59.5541   28.8443   44.5104 H   0  0  0  0  0  0  0  0  0  0  0  0
   60.4115   30.4227   44.5104 H   0  0  0  0  0  0  0  0  0  0  0  0
   58.9699   30.9900   46.6062 H   0  0  0  0  0  0  0  0  0  0  0  0
   58.2790   28.5950   46.9655 H   0  0  0  0  0  0  0  0  0  0  0  0
   56.9662   29.8743   46.9982 H   0  0  0  0  0  0  0  0  0  0  0  0
   57.5715   27.0611   44.0578 H   0  0  0  0  0  0  0  0  0  0  0  0
   58.3739   27.0950   45.6789 H   0  0  0  0  0  0  0  0  0  0  0  0
   56.2949   25.3726   44.8582 H   0  0  0  0  0  0  0  0  0  0  0  0
   56.8918   25.6392   46.5372 H   0  0  0  0  0  0  0  0  0  0  0  0
   55.1380   27.5260   45.4590 H   0  0  0  0  0  0  0  0  0  0  0  0
   57.3829   29.0286   43.3864 H   0  0  0  0  0  0  0  0  0  0  0  0
   55.6127   29.0154   43.7744 H   0  0  0  0  0  0  0  0  0  0  0  0
   56.3632   31.3157   43.4165 H   0  0  0  0  0  0  0  0  0  0  0  0
   55.9276   31.0690   45.1437 H   0  0  0  0  0  0  0  0  0  0  0  0
   58.5316   33.1537   44.1016 H   0  0  0  0  0  0  0  0  0  0  0  0
   57.1156   33.0488   45.2546 H   0  0  0  0  0  0  0  0  0  0  0  0
   57.3993   33.0356   47.6212 H   0  0  0  0  0  0  0  0  0  0  0  0
   58.8737   33.5796   49.5524 H   0  0  0  0  0  0  0  0  0  0  0  0
   60.8260   33.1504   44.9763 H   0  0  0  0  0  0  0  0  0  0  0  0
  1  2  1  0
  2  3  1  0
  3  4  1  0
  4  5  1  0
  5  6  1  0
  6  7  1  0
  4  8  1  0
  8  9  1  0
  9 10  1  0
 10 11  1  0
 11 12  1  0
 12 13  2  0
 13 14  1  0
 14 15  2  0
 15 16  1  0
 15 17  1  0
 17 18  1  0
 17 19  2  0
 10  2  1  0
 19 12  1  0
  1 20  1  0
  1 21  1  0
  1 22  1  0
  2 23  1  1
  3 24  1  0
  3 25  1  0
  5 26  1  0
  5 27  1  0
  6 28  1  0
  6 29  1  0
  7 30  1  0
  8 31  1  0
  8 32  1  0
  9 33  1  0
  9 34  1  0
 11 35  1  0
 11 36  1  0
 13 37  1  0
 14 38  1  0
 19 39  1  0
M  END
>  <UniqueID>  (27) 
26

>  <SMILES>  (27) 
C[C@@H]1CN(CCO)CCN1Cc1ccc(Br)c(Br)c1

>  <Energy>  (27) 
52.8922300740135

>  <Genealogy>  (27) 
C[C@@H]1CN(CCO)CCN1Cc1ccc(Br)c(Br)c1 (chirality)
C[C@@H]1CN(CCO)CCN1Cc1ccc(Br)c(Br)c1 (3D coordinates assigned)
C[C@@H]1CN(CCO)CCN1Cc1ccc(Br)c(Br)c1 (nonaromatic ring conformer: 52.8922300740135 kcal/mol)

>  <smiles>  (27) 
CC1CN(CCO)CCN1Cc1ccc(Br)c(Br)c1

>  <score_type>  (27) 
oracle

>  <origin>  (27) 
adg

>  <m_score__min__energy>  (27) 
-8.2300000000000004

>  <m_primary>  (27) 
energy

$$$$
27:0
     RDKit          3D

 43 45  0  0  0  0  0  0  0  0999 V2000
   63.3370   34.0030   50.3780 C   0  0  0  0  0  0  0  0  0  0  0  0
   62.5540   34.6520   49.3820 O   0  0  0  0  0  0  0  0  0  0  0  0
   61.6320   34.0000   48.5490 C   0  0  0  0  0  0  0  0  0  0  0  0
   61.8500   33.8350   47.1700 C   0  0  0  0  0  0  0  0  0  0  0  0
   60.9030   33.1810   46.3820 C   0  0  0  0  0  0  0  0  0  0  0  0
   59.7300   32.6680   46.9550 C   0  0  0  0  0  0  0  0  0  0  0  0
   58.7230   31.9970   46.1040 C   0  0  0  0  0  0  0  0  0  0  0  0
   58.7350   30.6410   46.0300 N   0  0  0  0  0  0  0  0  0  0  0  0
   57.8460   29.9420   45.2750 C   0  0  0  0  0  0  0  0  0  0  0  0
   57.9520   28.4680   45.2540 C   0  0  0  0  0  0  0  0  0  0  0  0
   58.0650   27.7890   44.0330 C   0  0  0  0  0  0  0  0  0  0  0  0
   58.1390   26.3950   44.0120 C   0  0  0  0  0  0  0  0  0  0  0  0
   58.0830   25.6890   45.2130 C   0  0  0  0  0  0  0  0  0  0  0  0
   57.9480   26.3570   46.3900 N   0  0  0  0  0  0  0  0  0  0  0  0
   57.8760   27.7150   46.4370 C   0  0  0  0  0  0  0  0  0  0  0  0
   56.8510   30.6530   44.5700 C   0  0  0  0  0  0  0  0  0  0  0  0
   55.7820   29.9730   43.7650 C   0  0  0  0  0  0  0  0  0  0  0  0
   56.8570   32.0120   44.6210 N   0  0  0  0  0  0  0  0  0  0  0  0
   57.7670   32.7090   45.3480 C   0  0  0  0  0  0  0  0  0  0  0  0
   57.7110   34.2090   45.3240 C   0  0  0  0  0  0  0  0  0  0  0  0
   59.4940   32.8390   48.3330 C   0  0  0  0  0  0  0  0  0  0  0  0
   58.3080   32.3300   48.8880 O   0  0  0  0  0  0  0  0  0  0  0  0
   58.1460   31.9580   50.2530 C   0  0  0  0  0  0  0  0  0  0  0  0
   60.4550   33.5040   49.1200 C   0  0  0  0  0  0  0  0  0  0  0  0
   62.9800   34.2989   51.3755 H   0  0  0  0  0  0  0  0  0  0  0  0
   63.2449   32.9128   50.2641 H   0  0  0  0  0  0  0  0  0  0  0  0
   64.3912   34.2958   50.2641 H   0  0  0  0  0  0  0  0  0  0  0  0
   62.7710   34.2232   46.7106 H   0  0  0  0  0  0  0  0  0  0  0  0
   61.0775   33.0666   45.3020 H   0  0  0  0  0  0  0  0  0  0  0  0
   58.0954   28.3551   43.0903 H   0  0  0  0  0  0  0  0  0  0  0  0
   58.2405   25.8587   43.0570 H   0  0  0  0  0  0  0  0  0  0  0  0
   58.1481   24.5909   45.2086 H   0  0  0  0  0  0  0  0  0  0  0  0
   57.7579   28.2246   47.4047 H   0  0  0  0  0  0  0  0  0  0  0  0
   55.0516   29.5084   44.4437 H   0  0  0  0  0  0  0  0  0  0  0  0
   55.2735   30.7140   43.1307 H   0  0  0  0  0  0  0  0  0  0  0  0
   56.2376   29.1983   43.1307 H   0  0  0  0  0  0  0  0  0  0  0  0
   57.6967   34.5919   46.3551 H   0  0  0  0  0  0  0  0  0  0  0  0
   58.5951   34.6006   44.7997 H   0  0  0  0  0  0  0  0  0  0  0  0
   56.8001   34.5336   44.7997 H   0  0  0  0  0  0  0  0  0  0  0  0
   58.5012   32.7736   50.9000 H   0  0  0  0  0  0  0  0  0  0  0  0
   57.0824   31.7651   50.4567 H   0  0  0  0  0  0  0  0  0  0  0  0
   58.7293   31.0479   50.4567 H   0  0  0  0  0  0  0  0  0  0  0  0
   60.2775   33.6349   50.1977 H   0  0  0  0  0  0  0  0  0  0  0  0
  1  2  1  0
  2  3  1  0
  3  4  2  0
  4  5  1  0
  5  6  2  0
  6  7  1  0
  7  8  2  0
  8  9  1  0
  9 10  1  0
 10 11  2  0
 11 12  1  0
 12 13  2  0
 13 14  1  0
 14 15  2  0
  9 16  2  0
 16 17  1  0
 16 18  1  0
 18 19  2  0
 19 20  1  0
  6 21  1  0
 21 22  1  0
 22 23  1  0
 21 24  2  0
 24  3  1  0
 19  7  1  0
 15 10  1  0
  1 25  1  0
  1 26  1  0
  1 27  1  0
  4 28  1  0
  5 29  1  0
 11 30  1  0
 12 31  1  0
 13 32  1  0
 15 33  1  0
 17 34  1  0
 17 35  1  0
 17 36  1  0
 20 37  1  0
 20 38  1  0
 20 39  1  0
 23 40  1  0
 23 41  1  0
 23 42  1  0
 24 43  1  0
M  END
>  <UniqueID>  (28) 
27

>  <SMILES>  (28) 
COc1ccc(-c2nc(-c3cccnc3)c(C)nc2C)c(OC)c1

>  <Energy>  (28) 
58.94091461087518

>  <Genealogy>  (28) 
COc1ccc(-c2nc(-c3cccnc3)c(C)nc2C)c(OC)c1 (3D coordinates assigned)
COc1ccc(-c2nc(-c3cccnc3)c(C)nc2C)c(OC)c1 (optimized conformer: 58.94091461087518 kcal/mol)

>  <smiles>  (28) 
COc1ccc(-c2nc(-c3cccnc3)c(C)nc2C)c(OC)c1

>  <score_type>  (28) 
oracle

>  <origin>  (28) 
adg

>  <m_score__min__energy>  (28) 
-6.8499999999999996

>  <m_primary>  (28) 
energy

$$$$
28:0
     RDKit          3D

 32 33  0  0  0  0  0  0  0  0999 V2000
   57.0190   34.2480   45.2460 C   0  0  0  0  0  0  0  0  0  0  0  0
   58.5050   34.2630   44.9000 C   0  0  0  0  0  0  0  0  0  0  0  0
   59.2250   33.2700   45.6980 N   0  0  0  0  0  0  0  0  0  0  0  0
   60.2540   33.5860   46.4690 N   0  0  0  0  0  0  0  0  0  0  0  0
   60.7840   32.4360   46.9310 C   0  0  0  0  0  0  0  0  0  0  0  0
   61.9300   32.3700   47.8840 C   0  0  0  0  0  0  0  0  0  0  0  0
   60.0780   31.3550   46.4410 C   0  0  0  0  0  0  0  0  0  0  0  0
   59.0920   31.9230   45.6580 C   0  0  0  0  0  0  0  0  0  0  0  0
   58.1000   31.1690   44.8680 C   0  0  0  0  0  0  0  0  0  0  0  0
   57.8180   31.5540   43.5500 C   0  0  0  0  0  0  0  0  0  0  0  0
   56.8860   30.8390   42.7930 C   0  0  0  0  0  0  0  0  0  0  0  0
   56.2400   29.7280   43.3410 C   0  0  0  0  0  0  0  0  0  0  0  0
   56.5310   29.3160   44.6550 C   0  0  0  0  0  0  0  0  0  0  0  0
   55.9210   28.2000   45.2460 O   0  0  0  0  0  0  0  0  0  0  0  0
   56.6240   27.0590   45.7260 C   0  0  0  0  0  0  0  0  0  0  0  0
   57.4660   30.0390   45.4070 C   0  0  0  0  0  0  0  0  0  0  0  0
   56.8971   34.2468   46.3392 H   0  0  0  0  0  0  0  0  0  0  0  0
   56.5353   35.1413   44.8241 H   0  0  0  0  0  0  0  0  0  0  0  0
   56.5534   33.3451   44.8241 H   0  0  0  0  0  0  0  0  0  0  0  0
   58.6308   34.0302   43.8323 H   0  0  0  0  0  0  0  0  0  0  0  0
   58.9124   35.2608   45.1201 H   0  0  0  0  0  0  0  0  0  0  0  0
   61.5503   32.3919   48.9161 H   0  0  0  0  0  0  0  0  0  0  0  0
   62.4907   31.4381   47.7192 H   0  0  0  0  0  0  0  0  0  0  0  0
   62.5940   33.2314   47.7192 H   0  0  0  0  0  0  0  0  0  0  0  0
   60.2593   30.2868   46.6307 H   0  0  0  0  0  0  0  0  0  0  0  0
   58.3319   32.4215   43.1103 H   0  0  0  0  0  0  0  0  0  0  0  0
   56.6604   31.1518   41.7628 H   0  0  0  0  0  0  0  0  0  0  0  0
   55.5015   29.1734   42.7435 H   0  0  0  0  0  0  0  0  0  0  0  0
   56.6216   27.0628   46.8260 H   0  0  0  0  0  0  0  0  0  0  0  0
   56.1321   26.1451   45.3615 H   0  0  0  0  0  0  0  0  0  0  0  0
   57.6615   27.0874   45.3615 H   0  0  0  0  0  0  0  0  0  0  0  0
   57.7059   29.7174   46.4312 H   0  0  0  0  0  0  0  0  0  0  0  0
  1  2  1  0
  2  3  1  0
  3  4  1  0
  4  5  2  0
  5  6  1  0
  5  7  1  0
  7  8  2  0
  8  9  1  0
  9 10  2  0
 10 11  1  0
 11 12  2  0
 12 13  1  0
 13 14  1  0
 14 15  1  0
 13 16  2  0
  8  3  1  0
 16  9  1  0
  1 17  1  0
  1 18  1  0
  1 19  1  0
  2 20  1  0
  2 21  1  0
  6 22  1  0
  6 23  1  0
  6 24  1  0
  7 25  1  0
 10 26  1  0
 11 27  1  0
 12 28  1  0
 15 29  1  0
 15 30  1  0
 15 31  1  0
 16 32  1  0
M  END
>  <UniqueID>  (29) 
28

>  <SMILES>  (29) 
CCn1nc(C)cc1-c1cccc(OC)c1

>  <Energy>  (29) 
62.07247918257929

>  <Genealogy>  (29) 
CCn1nc(C)cc1-c1cccc(OC)c1 (3D coordinates assigned)
CCn1nc(C)cc1-c1cccc(OC)c1 (optimized conformer: 62.07247918257929 kcal/mol)

>  <smiles>  (29) 
CCn1nc(C)cc1-c1cccc(OC)c1

>  <score_type>  (29) 
oracle

>  <origin>  (29) 
adg

>  <m_score__min__energy>  (29) 
-6.0599999999999996

>  <m_primary>  (29) 
energy

$$$$
29:0
     RDKit          3D

 39 41  0  0  1  0  0  0  0  0999 V2000
   63.9060   33.3700   50.1450 C   0  0  0  0  0  0  0  0  0  0  0  0
   63.3040   33.5620   48.7900 C   0  0  0  0  0  0  0  0  0  0  0  0
   61.9970   33.9880   48.7340 C   0  0  0  0  0  0  0  0  0  0  0  0
   61.4480   34.1630   47.4810 C   0  0  0  0  0  0  0  0  0  0  0  0
   60.2420   34.5550   47.2900 N   0  0  0  0  0  0  0  0  0  0  0  0
   59.3260   33.7150   46.5810 C   0  0  0  0  0  0  0  0  0  0  0  0
   59.0870   32.5240   47.1120 C   0  0  0  0  0  0  0  0  0  0  0  0
   58.1620   31.6170   46.4420 C   0  0  0  0  0  0  0  0  0  0  0  0
   57.9050   30.4740   46.9130 O   0  0  0  0  0  0  0  0  0  0  0  0
   57.4890   31.9990   45.1850 C   0  0  0  0  0  0  0  0  0  0  0  0
   56.6150   31.1810   44.5230 O   0  0  0  0  0  0  0  0  0  0  0  0
   56.9400   30.0710   43.7440 C   0  0  0  0  0  0  0  0  0  0  0  0
   57.7290   29.0500   44.5110 C   0  0  0  0  0  0  0  0  0  0  0  0
   59.1170   29.0440   44.4960 C   0  0  0  0  0  0  0  0  0  0  0  0
   59.7620   28.0510   45.2420 C   0  0  0  0  0  0  0  0  0  0  0  0
   59.0260   27.1180   45.9640 C   0  0  0  0  0  0  0  0  0  0  0  0
   59.6440   26.1390   46.7000 F   0  0  0  0  0  0  0  0  0  0  0  0
   57.6450   27.1320   45.9720 C   0  0  0  0  0  0  0  0  0  0  0  0
   57.0090   28.1000   45.2450 C   0  0  0  0  0  0  0  0  0  0  0  0
   57.7340   33.2040   44.6510 C   0  0  0  0  0  0  0  0  0  0  0  0
   58.6750   34.1030   45.3510 C   0  0  0  0  0  0  0  0  0  0  0  0
   58.9450   35.2530   44.8930 O   0  0  0  0  0  0  0  0  0  0  0  0
   62.2000   33.9160   46.3850 N   0  0  0  0  0  0  0  0  0  0  0  0
   63.4780   33.4990   46.4700 C   0  0  0  0  0  0  0  0  0  0  0  0
   64.0500   33.3170   47.6900 N   0  0  0  0  0  0  0  0  0  0  0  0
   63.1582   33.6085   50.9156 H   0  0  0  0  0  0  0  0  0  0  0  0
   64.2285   32.3244   50.2582 H   0  0  0  0  0  0  0  0  0  0  0  0
   64.7743   34.0358   50.2582 H   0  0  0  0  0  0  0  0  0  0  0  0
   61.4158   34.1804   49.6479 H   0  0  0  0  0  0  0  0  0  0  0  0
   59.5809   32.2231   48.0477 H   0  0  0  0  0  0  0  0  0  0  0  0
   56.0100   29.6046   43.3869 H   0  0  0  0  0  0  0  0  0  0  0  0
   57.5621   30.4178   42.9058 H   0  0  0  0  0  0  0  0  0  0  0  0
   59.6866   29.7892   43.9213 H   0  0  0  0  0  0  0  0  0  0  0  0
   60.8611   28.0082   45.2573 H   0  0  0  0  0  0  0  0  0  0  0  0
   57.0740   26.3871   46.5457 H   0  0  0  0  0  0  0  0  0  0  0  0
   55.9095   28.1328   45.2368 H   0  0  0  0  0  0  0  0  0  0  0  0
   57.2468   33.5157   43.7153 H   0  0  0  0  0  0  0  0  0  0  0  0
   64.0573   33.3062   45.5550 H   0  0  0  0  0  0  0  0  0  0  0  0
   65.0430   32.9940   47.7500 H   0  0  0  0  0  0  0  0  0  0  0  0
  1  2  1  0
  2  3  2  0
  3  4  1  0
  4  5  2  0
  5  6  1  0
  6  7  2  0
  7  8  1  0
  8  9  2  0
  8 10  1  0
 10 11  1  0
 11 12  1  0
 12 13  1  0
 13 14  2  0
 14 15  1  0
 15 16  2  0
 16 17  1  0
 16 18  1  0
 18 19  2  0
 10 20  2  0
 20 21  1  0
 21 22  2  0
  4 23  1  0
 23 24  2  0
 24 25  1  0
 25  2  1  0
 21  6  1  0
 19 13  1  0
  1 26  1  0
  1 27  1  0
  1 28  1  0
  3 29  1  0
  7 30  1  0
 12 31  1  0
 12 32  1  0
 14 33  1  0
 15 34  1  0
 18 35  1  0
 19 36  1  0
 20 37  1  0
 24 38  1  0
 25 39  1  0
M  END
>  <smiles>  (30) 
Cc1cc(=NC2=CC(=O)C(OCc3ccc(F)cc3)=CC2=O)nc[nH]1

>  <score_type>  (30) 
oracle

>  <origin>  (30) 
adg

>  <m_score__min__energy>  (30) 
-8.1600000000000001

>  <m_primary>  (30) 
energy

$$$$
30:0
     RDKit          3D

 44 46  0  0  0  0  0  0  0  0999 V2000
   59.5460   35.0400   45.7720 C   0  0  0  0  0  0  0  0  0  0  0  0
   58.6590   34.5650   44.7640 O   0  0  0  0  0  0  0  0  0  0  0  0
   58.2750   33.2240   44.6180 C   0  0  0  0  0  0  0  0  0  0  0  0
   58.2550   32.4110   45.7550 C   0  0  0  0  0  0  0  0  0  0  0  0
   57.8400   31.0800   45.6690 C   0  0  0  0  0  0  0  0  0  0  0  0
   57.4460   30.5380   44.4350 C   0  0  0  0  0  0  0  0  0  0  0  0
   56.9690   29.1090   44.3460 C   0  0  0  0  0  0  0  0  0  0  0  0
   57.3780   28.4500   43.0900 N   0  0  0  0  0  0  0  0  0  0  0  0
   58.4400   27.4310   43.2750 C   0  0  0  0  0  0  0  0  0  0  0  0
   58.4830   26.8660   44.6950 C   0  0  0  0  0  0  0  0  0  0  0  0
   57.7510   25.6860   44.9290 C   0  0  0  0  0  0  0  0  0  0  0  0
   57.4280   25.2860   46.2210 C   0  0  0  0  0  0  0  0  0  0  0  0
   57.8290   26.0510   47.3080 C   0  0  0  0  0  0  0  0  0  0  0  0
   58.6610   27.1620   47.1200 C   0  0  0  0  0  0  0  0  0  0  0  0
   59.0620   27.9060   48.2370 C   0  0  0  0  0  0  0  0  0  0  0  0
   59.9340   28.9790   48.0900 C   0  0  0  0  0  0  0  0  0  0  0  0
   60.4860   29.2600   46.8450 C   0  0  0  0  0  0  0  0  0  0  0  0
   60.1400   28.5040   45.7110 C   0  0  0  0  0  0  0  0  0  0  0  0
   61.0370   28.6630   44.5100 C   0  0  0  0  0  0  0  0  0  0  0  0
   59.1000   27.5240   45.8100 C   0  0  0  0  0  0  0  0  0  0  0  0
   57.4980   31.3420   43.2860 C   0  0  0  0  0  0  0  0  0  0  0  0
   57.9020   32.6770   43.3750 C   0  0  0  0  0  0  0  0  0  0  0  0
   59.1273   34.8158   46.7642 H   0  0  0  0  0  0  0  0  0  0  0  0
   60.5219   34.5438   45.6652 H   0  0  0  0  0  0  0  0  0  0  0  0
   59.6739   36.1273   45.6652 H   0  0  0  0  0  0  0  0  0  0  0  0
   58.5687   32.8229   46.7256 H   0  0  0  0  0  0  0  0  0  0  0  0
   57.8217   30.4531   46.5727 H   0  0  0  0  0  0  0  0  0  0  0  0
   57.3878   28.5447   45.1923 H   0  0  0  0  0  0  0  0  0  0  0  0
   55.8694   29.1232   44.3715 H   0  0  0  0  0  0  0  0  0  0  0  0
   57.7660   29.1970   42.4680 H   0  0  0  0  0  0  0  0  0  0  0  0
   56.5370   28.0730   42.6000 H   0  0  0  0  0  0  0  0  0  0  0  0
   58.2581   26.6034   42.5735 H   0  0  0  0  0  0  0  0  0  0  0  0
   59.4055   27.9232   43.0867 H   0  0  0  0  0  0  0  0  0  0  0  0
   57.4295   25.0706   44.0758 H   0  0  0  0  0  0  0  0  0  0  0  0
   56.8537   24.3618   46.3821 H   0  0  0  0  0  0  0  0  0  0  0  0
   57.4921   25.7837   48.3204 H   0  0  0  0  0  0  0  0  0  0  0  0
   58.6851   27.6400   49.2356 H   0  0  0  0  0  0  0  0  0  0  0  0
   60.1871   29.6053   48.9582 H   0  0  0  0  0  0  0  0  0  0  0  0
   61.2047   30.0868   46.7457 H   0  0  0  0  0  0  0  0  0  0  0  0
   62.0688   28.8459   44.8446 H   0  0  0  0  0  0  0  0  0  0  0  0
   61.0051   27.7452   43.9045 H   0  0  0  0  0  0  0  0  0  0  0  0
   60.6916   29.5139   43.9045 H   0  0  0  0  0  0  0  0  0  0  0  0
   57.2192   30.9190   42.3096 H   0  0  0  0  0  0  0  0  0  0  0  0
   57.9287   33.3028   42.4708 H   0  0  0  0  0  0  0  0  0  0  0  0
  1  2  1  0
  2  3  1  0
  3  4  2  0
  4  5  1  0
  5  6  2  0
  6  7  1  0
  7  8  1  0
  8  9  1  0
  9 10  1  0
 10 11  2  0
 11 12  1  0
 12 13  2  0
 13 14  1  0
 14 15  2  0
 15 16  1  0
 16 17  2  0
 17 18  1  0
 18 19  1  0
 18 20  2  0
  6 21  1  0
 21 22  2  0
 22  3  1  0
 20 10  1  0
 20 14  1  0
  1 23  1  0
  1 24  1  0
  1 25  1  0
  4 26  1  0
  5 27  1  0
  7 28  1  0
  7 29  1  0
  8 30  1  0
  8 31  1  0
  9 32  1  0
  9 33  1  0
 11 34  1  0
 12 35  1  0
 13 36  1  0
 15 37  1  0
 16 38  1  0
 17 39  1  0
 19 40  1  0
 19 41  1  0
 19 42  1  0
 21 43  1  0
 22 44  1  0
M  CHG  1   8   1
M  END
>  <UniqueID>  (31) 
29

>  <SMILES>  (31) 
COc1ccc(C[NH2+]Cc2cccc3cccc(C)c23)cc1

>  <Energy>  (31) 
62.518710732108815

>  <Genealogy>  (31) 
COc1ccc(C[NH2+]Cc2cccc3cccc(C)c23)cc1 (protonated)
COc1ccc(C[NH2+]Cc2cccc3cccc(C)c23)cc1 (3D coordinates assigned)
COc1ccc(C[NH2+]Cc2cccc3cccc(C)c23)cc1 (optimized conformer: 62.518710732108815 kcal/mol)

>  <smiles>  (31) 
COc1ccc(CNCc2cccc3cccc(C)c23)cc1

>  <score_type>  (31) 
oracle

>  <origin>  (31) 
adg

>  <m_score__min__energy>  (31) 
-6.1600000000000001

>  <m_primary>  (31) 
energy

$$$$
31:0
     RDKit          3D

 47 50  0  0  0  0  0  0  0  0999 V2000
   59.6400   35.6260   45.6290 C   0  0  0  0  0  0  0  0  0  0  0  0
   58.4350   34.9740   45.2440 O   0  0  0  0  0  0  0  0  0  0  0  0
   58.2730   33.5820   45.1470 C   0  0  0  0  0  0  0  0  0  0  0  0
   58.0440   32.9530   43.9100 C   0  0  0  0  0  0  0  0  0  0  0  0
   57.8890   31.5690   43.8350 C   0  0  0  0  0  0  0  0  0  0  0  0
   57.9580   30.7790   44.9900 C   0  0  0  0  0  0  0  0  0  0  0  0
   57.7900   29.3090   44.8770 C   0  0  0  0  0  0  0  0  0  0  0  0
   58.0140   28.5840   43.7470 N   0  0  0  0  0  0  0  0  0  0  0  0
   57.7340   27.3270   44.1220 C   0  0  0  0  0  0  0  0  0  0  0  0
   57.7890   26.1600   43.3650 C   0  0  0  0  0  0  0  0  0  0  0  0
   57.4410   24.9540   44.0030 C   0  0  0  0  0  0  0  0  0  0  0  0
   57.0530   24.9490   45.3640 C   0  0  0  0  0  0  0  0  0  0  0  0
   57.0090   26.1510   46.0970 C   0  0  0  0  0  0  0  0  0  0  0  0
   57.3600   27.3220   45.4320 C   0  0  0  0  0  0  0  0  0  0  0  0
   57.3970   28.5480   45.8890 O   0  0  0  0  0  0  0  0  0  0  0  0
   58.1840   31.4030   46.2300 C   0  0  0  0  0  0  0  0  0  0  0  0
   58.3440   32.8020   46.3200 C   0  0  0  0  0  0  0  0  0  0  0  0
   58.5780   33.4440   47.5930 N   0  0  0  0  0  0  0  0  0  0  0  0
   59.4420   32.8840   48.6340 C   0  0  0  0  0  0  0  0  0  0  0  0
   60.8620   32.7460   48.1340 C   0  0  0  0  0  0  0  0  0  0  0  0
   61.5960   33.9120   47.8490 C   0  0  0  0  0  0  0  0  0  0  0  0
   62.9010   33.8270   47.3620 C   0  0  0  0  0  0  0  0  0  0  0  0
   63.4890   32.5810   47.1470 C   0  0  0  0  0  0  0  0  0  0  0  0
   62.7700   31.4130   47.4090 C   0  0  0  0  0  0  0  0  0  0  0  0
   61.4490   31.4790   47.8880 C   0  0  0  0  0  0  0  0  0  0  0  0
   60.7030   30.1980   48.1580 C   0  0  0  0  0  0  0  0  0  0  0  0
   59.7037   35.6605   46.7266 H   0  0  0  0  0  0  0  0  0  0  0  0
   60.5013   35.0708   45.2290 H   0  0  0  0  0  0  0  0  0  0  0  0
   59.6464   36.6507   45.2290 H   0  0  0  0  0  0  0  0  0  0  0  0
   57.9866   33.5582   42.9933 H   0  0  0  0  0  0  0  0  0  0  0  0
   57.7108   31.0930   42.8595 H   0  0  0  0  0  0  0  0  0  0  0  0
   58.3240   28.9010   42.8030 H   0  0  0  0  0  0  0  0  0  0  0  0
   58.0929   26.1793   42.3080 H   0  0  0  0  0  0  0  0  0  0  0  0
   57.4709   24.0095   43.4399 H   0  0  0  0  0  0  0  0  0  0  0  0
   56.7842   24.0007   45.8524 H   0  0  0  0  0  0  0  0  0  0  0  0
   56.7085   26.1636   47.1551 H   0  0  0  0  0  0  0  0  0  0  0  0
   58.2368   30.7915   47.1429 H   0  0  0  0  0  0  0  0  0  0  0  0
   58.1180   34.3650   47.7810 H   0  0  0  0  0  0  0  0  0  0  0  0
   59.4307   33.5501   49.5093 H   0  0  0  0  0  0  0  0  0  0  0  0
   59.0653   31.8873   48.9074 H   0  0  0  0  0  0  0  0  0  0  0  0
   61.1375   34.8986   48.0114 H   0  0  0  0  0  0  0  0  0  0  0  0
   63.4673   34.7452   47.1472 H   0  0  0  0  0  0  0  0  0  0  0  0
   64.5206   32.5181   46.7705 H   0  0  0  0  0  0  0  0  0  0  0  0
   63.2404   30.4332   47.2394 H   0  0  0  0  0  0  0  0  0  0  0  0
   60.6150   30.0469   49.2440 H   0  0  0  0  0  0  0  0  0  0  0  0
   59.6986   30.2580   47.7136 H   0  0  0  0  0  0  0  0  0  0  0  0
   61.2508   29.3540   47.7136 H   0  0  0  0  0  0  0  0  0  0  0  0
  1  2  1  0
  2  3  1  0
  3  4  2  0
  4  5  1  0
  5  6  2  0
  6  7  1  0
  7  8  2  0
  8  9  1  0
  9 10  2  0
 10 11  1  0
 11 12  2  0
 12 13  1  0
 13 14  2  0
 14 15  1  0
  6 16  1  0
 16 17  2  0
 17 18  1  0
 18 19  1  0
 19 20  1  0
 20 21  2  0
 21 22  1  0
 22 23  2  0
 23 24  1  0
 24 25  2  0
 25 26  1  0
 17  3  1  0
 25 20  1  0
 15  7  1  0
 14  9  1  0
  1 27  1  0
  1 28  1  0
  1 29  1  0
  4 30  1  0
  5 31  1  0
  8 32  1  0
 10 33  1  0
 11 34  1  0
 12 35  1  0
 13 36  1  0
 16 37  1  0
 18 38  1  0
 19 39  1  0
 19 40  1  0
 21 41  1  0
 22 42  1  0
 23 43  1  0
 24 44  1  0
 26 45  1  0
 26 46  1  0
 26 47  1  0
M  CHG  1   8   1
M  END
>  <UniqueID>  (32) 
30

>  <SMILES>  (32) 
COc1ccc(-c2[nH+]c3ccccc3o2)cc1NCc1ccccc1C

>  <Energy>  (32) 
92.22309325279446

>  <Genealogy>  (32) 
COc1ccc(-c2[nH+]c3ccccc3o2)cc1NCc1ccccc1C (protonated)
COc1ccc(-c2[nH+]c3ccccc3o2)cc1NCc1ccccc1C (3D coordinates assigned)
COc1ccc(-c2[nH+]c3ccccc3o2)cc1NCc1ccccc1C (optimized conformer: 92.22309325279446 kcal/mol)

>  <smiles>  (32) 
COc1ccc(-c2nc3ccccc3o2)cc1NCc1ccccc1C

>  <score_type>  (32) 
oracle

>  <origin>  (32) 
adg

>  <m_score__min__energy>  (32) 
-6.2699999999999996

>  <m_primary>  (32) 
energy

$$$$
32:0
     RDKit          3D

 60 62  0  0  0  0  0  0  0  0999 V2000
   68.2880   34.0980   50.4990 C   0  0  0  0  0  0  0  0  0  0  0  0
   68.0990   32.8450   51.3510 C   0  0  0  0  0  0  0  0  0  0  0  0
   67.1360   31.8580   50.6750 C   0  0  0  0  0  0  0  0  0  0  0  0
   65.8700   31.7090   51.4150 N   0  0  0  0  0  0  0  0  0  0  0  0
   64.7180   32.0120   50.5880 C   0  0  0  0  0  0  0  0  0  0  0  0
   64.7680   33.1570   49.7730 C   0  0  0  0  0  0  0  0  0  0  0  0
   63.6950   33.5180   48.9640 C   0  0  0  0  0  0  0  0  0  0  0  0
   62.5250   32.7520   48.9470 C   0  0  0  0  0  0  0  0  0  0  0  0
   61.3910   33.1860   48.0950 C   0  0  0  0  0  0  0  0  0  0  0  0
   61.5910   33.4390   46.7290 C   0  0  0  0  0  0  0  0  0  0  0  0
   60.5310   33.8690   45.9280 C   0  0  0  0  0  0  0  0  0  0  0  0
   59.2540   34.0730   46.4860 C   0  0  0  0  0  0  0  0  0  0  0  0
   58.1580   34.5370   45.7400 O   0  0  0  0  0  0  0  0  0  0  0  0
   57.0280   33.7620   45.3360 C   0  0  0  0  0  0  0  0  0  0  0  0
   57.4500   32.6030   44.4260 C   0  0  0  0  0  0  0  0  0  0  0  0
   57.2080   31.2990   45.0870 N   0  0  0  0  0  0  0  0  0  0  0  0
   58.4510   30.5610   45.3970 C   0  0  0  0  0  0  0  0  0  0  0  0
   58.6710   30.4780   46.9060 C   0  0  0  0  0  0  0  0  0  0  0  0
   56.2010   30.4690   44.3830 C   0  0  0  0  0  0  0  0  0  0  0  0
   56.6100   30.0410   42.9630 C   0  0  0  0  0  0  0  0  0  0  0  0
   59.0560   33.8040   47.8450 C   0  0  0  0  0  0  0  0  0  0  0  0
   60.1130   33.3690   48.6470 C   0  0  0  0  0  0  0  0  0  0  0  0
   62.4500   31.5860   49.7360 C   0  0  0  0  0  0  0  0  0  0  0  0
   61.3300   30.8100   49.6910 N   0  0  0  0  0  0  0  0  0  0  0  0
   61.2040   29.6710   50.4150 C   0  0  0  0  0  0  0  0  0  0  0  0
   62.2450   29.2520   51.2370 C   0  0  0  0  0  0  0  0  0  0  0  0
   63.4140   30.0110   51.3090 C   0  0  0  0  0  0  0  0  0  0  0  0
   63.5450   31.2010   50.5590 C   0  0  0  0  0  0  0  0  0  0  0  0
   68.4197   34.9711   51.1551 H   0  0  0  0  0  0  0  0  0  0  0  0
   69.1783   33.9788   49.8641 H   0  0  0  0  0  0  0  0  0  0  0  0
   67.4021   34.2467   49.8641 H   0  0  0  0  0  0  0  0  0  0  0  0
   69.0741   32.3560   51.4924 H   0  0  0  0  0  0  0  0  0  0  0  0
   67.6719   33.1422   52.3202 H   0  0  0  0  0  0  0  0  0  0  0  0
   66.9116   32.2220   49.6615 H   0  0  0  0  0  0  0  0  0  0  0  0
   67.6275   30.8742   50.6514 H   0  0  0  0  0  0  0  0  0  0  0  0
   65.8880   32.3900   52.2110 H   0  0  0  0  0  0  0  0  0  0  0  0
   65.8150   30.7720   51.8700 H   0  0  0  0  0  0  0  0  0  0  0  0
   65.6744   33.7803   49.7751 H   0  0  0  0  0  0  0  0  0  0  0  0
   63.7677   34.4150   48.3314 H   0  0  0  0  0  0  0  0  0  0  0  0
   62.5883   33.2978   46.2869 H   0  0  0  0  0  0  0  0  0  0  0  0
   60.6943   34.0494   44.8553 H   0  0  0  0  0  0  0  0  0  0  0  0
   56.5335   33.3548   46.2302 H   0  0  0  0  0  0  0  0  0  0  0  0
   56.3403   34.4129   44.7762 H   0  0  0  0  0  0  0  0  0  0  0  0
   56.8692   32.6474   43.4929 H   0  0  0  0  0  0  0  0  0  0  0  0
   58.5252   32.6958   44.2130 H   0  0  0  0  0  0  0  0  0  0  0  0
   58.3777   29.5430   44.9868 H   0  0  0  0  0  0  0  0  0  0  0  0
   59.3000   31.0956   44.9460 H   0  0  0  0  0  0  0  0  0  0  0  0
   57.7651   30.8198   47.4280 H   0  0  0  0  0  0  0  0  0  0  0  0
   58.8862   29.4369   47.1885 H   0  0  0  0  0  0  0  0  0  0  0  0
   59.5202   31.1175   47.1885 H   0  0  0  0  0  0  0  0  0  0  0  0
   56.0263   29.5611   44.9790 H   0  0  0  0  0  0  0  0  0  0  0  0
   55.3007   31.0918   44.2758 H   0  0  0  0  0  0  0  0  0  0  0  0
   57.3688   29.2469   43.0236 H   0  0  0  0  0  0  0  0  0  0  0  0
   55.7275   29.6645   42.4250 H   0  0  0  0  0  0  0  0  0  0  0  0
   57.0261   30.9055   42.4250 H   0  0  0  0  0  0  0  0  0  0  0  0
   58.0571   33.9367   48.2861 H   0  0  0  0  0  0  0  0  0  0  0  0
   59.9438   33.1689   49.7153 H   0  0  0  0  0  0  0  0  0  0  0  0
   60.2793   29.0785   50.3526 H   0  0  0  0  0  0  0  0  0  0  0  0
   62.1475   28.3284   51.8265 H   0  0  0  0  0  0  0  0  0  0  0  0
   64.2403   29.6798   51.9552 H   0  0  0  0  0  0  0  0  0  0  0  0
  1  2  1  0
  2  3  1  0
  3  4  1  0
  4  5  1  0
  5  6  2  0
  6  7  1  0
  7  8  2  0
  8  9  1  0
  9 10  2  0
 10 11  1  0
 11 12  2  0
 12 13  1  0
 13 14  1  0
 14 15  1  0
 15 16  1  0
 16 17  1  0
 17 18  1  0
 16 19  1  0
 19 20  1  0
 12 21  1  0
 21 22  2  0
  8 23  1  0
 23 24  2  0
 24 25  1  0
 25 26  2  0
 26 27  1  0
 27 28  2  0
 28  5  1  0
 22  9  1  0
 28 23  1  0
  1 29  1  0
  1 30  1  0
  1 31  1  0
  2 32  1  0
  2 33  1  0
  3 34  1  0
  3 35  1  0
  4 36  1  0
  4 37  1  0
  6 38  1  0
  7 39  1  0
 10 40  1  0
 11 41  1  0
 14 42  1  0
 14 43  1  0
 15 44  1  0
 15 45  1  0
 17 46  1  0
 17 47  1  0
 18 48  1  0
 18 49  1  0
 18 50  1  0
 19 51  1  0
 19 52  1  0
 20 53  1  0
 20 54  1  0
 20 55  1  0
 21 56  1  0
 22 57  1  0
 25 58  1  0
 26 59  1  0
 27 60  1  0
M  CHG  1   4   1
M  END
>  <UniqueID>  (33) 
31

>  <SMILES>  (33) 
CCC[NH2+]c1ccc(-c2ccc(OCCN(CC)CC)cc2)c2ncccc12

>  <Energy>  (33) 
71.94670079673118

>  <Genealogy>  (33) 
CCC[NH2+]c1ccc(-c2ccc(OCCN(CC)CC)cc2)c2ncccc12 (protonated)
CCC[NH2+]c1ccc(-c2ccc(OCCN(CC)CC)cc2)c2ncccc12 (3D coordinates assigned)
CCC[NH2+]c1ccc(-c2ccc(OCCN(CC)CC)cc2)c2ncccc12 (optimized conformer: 71.94670079673118 kcal/mol)

>  <smiles>  (33) 
CCCNc1ccc(-c2ccc(OCCN(CC)CC)cc2)c2ncccc12

>  <score_type>  (33) 
oracle

>  <origin>  (33) 
adg

>  <m_score__min__energy>  (33) 
-5.9500000000000002

>  <m_primary>  (33) 
energy

$$$$
33:0
     RDKit          3D

 39 40  0  0  0  0  0  0  0  0999 V2000
   57.8496   24.6797   47.6804 H   0  0  0  0  0  0  0  0  0  0  0  0
   56.9310   24.3940   47.1470 C   0  0  0  0  0  0  0  0  0  0  0  0
   56.3560   23.1410   47.3640 C   0  0  0  0  0  0  0  0  0  0  0  0
   56.9580   22.2560   48.2630 O   0  0  0  0  0  0  0  0  0  0  0  0
   56.2280   21.5670   49.2710 C   0  0  0  0  0  0  0  0  0  0  0  0
   56.5743   21.8938   50.2626 H   0  0  0  0  0  0  0  0  0  0  0  0
   55.1562   21.7904   49.1649 H   0  0  0  0  0  0  0  0  0  0  0  0
   56.3891   20.4840   49.1649 H   0  0  0  0  0  0  0  0  0  0  0  0
   55.2200   22.7940   46.6990 N   0  0  0  0  0  0  0  0  0  0  0  0
   54.6070   23.6240   45.8150 C   0  0  0  0  0  0  0  0  0  0  0  0
   53.5210   23.2070   45.2260 N   0  0  0  0  0  0  0  0  0  0  0  0
   52.1920   23.8270   45.2430 C   0  0  0  0  0  0  0  0  0  0  0  0
   52.2535   24.8164   45.7197 H   0  0  0  0  0  0  0  0  0  0  0  0
   51.2400   22.9320   46.0340 C   0  0  0  0  0  0  0  0  0  0  0  0
   51.4028   23.0850   47.1111 H   0  0  0  0  0  0  0  0  0  0  0  0
   50.2006   23.1876   45.7803 H   0  0  0  0  0  0  0  0  0  0  0  0
   51.4310   21.8788   45.7803 H   0  0  0  0  0  0  0  0  0  0  0  0
   51.6740   24.0150   43.8130 C   0  0  0  0  0  0  0  0  0  0  0  0
   50.6404   24.3901   43.8438 H   0  0  0  0  0  0  0  0  0  0  0  0
   52.3113   24.7392   43.2844 H   0  0  0  0  0  0  0  0  0  0  0  0
   51.6985   23.0506   43.2844 H   0  0  0  0  0  0  0  0  0  0  0  0
   55.1600   24.9000   45.5790 C   0  0  0  0  0  0  0  0  0  0  0  0
   54.6732   25.5897   44.8738 H   0  0  0  0  0  0  0  0  0  0  0  0
   56.3330   25.2880   46.2460 C   0  0  0  0  0  0  0  0  0  0  0  0
   56.9310   26.6250   45.9970 C   0  0  0  0  0  0  0  0  0  0  0  0
   58.2900   26.8550   46.2620 C   0  0  0  0  0  0  0  0  0  0  0  0
   58.9231   26.0431   46.6493 H   0  0  0  0  0  0  0  0  0  0  0  0
   58.8320   28.1160   46.0320 C   0  0  0  0  0  0  0  0  0  0  0  0
   59.8965   28.3024   46.2371 H   0  0  0  0  0  0  0  0  0  0  0  0
   58.0270   29.1430   45.5420 C   0  0  0  0  0  0  0  0  0  0  0  0
   58.4517   30.1414   45.3611 H   0  0  0  0  0  0  0  0  0  0  0  0
   56.6650   28.8930   45.2800 C   0  0  0  0  0  0  0  0  0  0  0  0
   55.8680   29.8170   44.8180 N   0  0  0  0  0  0  0  0  0  0  0  0
   55.9160   30.4070   43.4830 C   0  0  0  0  0  0  0  0  0  0  0  0
   56.0049   31.5001   43.5682 H   0  0  0  0  0  0  0  0  0  0  0  0
   56.7848   30.0098   42.9376 H   0  0  0  0  0  0  0  0  0  0  0  0
   54.9944   30.1555   42.9376 H   0  0  0  0  0  0  0  0  0  0  0  0
   56.1590   27.6470   45.5160 N   0  0  0  0  0  0  0  0  0  0  0  0
   55.1510   27.4690   45.2980 H   0  0  0  0  0  0  0  0  0  0  0  0
  1  2  1  0
  2  3  2  0
  3  4  1  0
  4  5  1  0
  5  6  1  0
  5  7  1  0
  5  8  1  0
  3  9  1  0
  9 10  1  0
 10 11  2  0
 11 12  1  0
 12 13  1  0
 12 14  1  0
 14 15  1  0
 14 16  1  0
 14 17  1  0
 12 18  1  0
 18 19  1  0
 18 20  1  0
 18 21  1  0
 10 22  1  0
 22 23  1  0
 22 24  2  0
 24 25  1  0
 25 26  2  0
 26 27  1  0
 26 28  1  0
 28 29  1  0
 28 30  2  0
 30 31  1  0
 30 32  1  0
 32 33  2  0
 33 34  1  0
 34 35  1  0
 34 36  1  0
 34 37  1  0
 32 38  1  0
 38 39  1  0
 24  2  1  0
 38 25  1  0
M  CHG  1   9  -1
M  END
>  <UniqueID>  (34) 
32

>  <SMILES>  (34) 
C/N=c1\cccc(-c2cc(OC)[n-]/c(=N/C(C)C)c2)[nH]1

>  <Energy>  (34) 
41.327787370522415

>  <Genealogy>  (34) 
CN=c1cccc(-c2cc(OC)[n-]c(=NC(C)C)c2)[nH]1 (protonated)
C/N=c1\cccc(-c2cc(OC)[n-]/c(=N/C(C)C)c2)[nH]1 (cis-trans isomerization)
C/N=c1\cccc(-c2cc(OC)[n-]/c(=N/C(C)C)c2)[nH]1 (3D coordinates assigned)
C/N=c1\cccc(-c2cc(OC)[n-]/c(=N/C(C)C)c2)[nH]1 (optimized conformer: 41.327787370522415 kcal/mol)

>  <smiles>  (34) 
CN=c1cccc(-c2cc(OC)[nH]c(=NC(C)C)c2)[nH]1

>  <score_type>  (34) 
oracle

>  <origin>  (34) 
adg

>  <m_score__min__energy>  (34) 
-8.0399999999999991

>  <m_primary>  (34) 
energy

$$$$
34:0
     RDKit          3D

 21 20  0  0  0  0  0  0  0  0999 V2000
   57.7730   26.3250   42.7310 C   0  0  0  0  0  0  0  0  0  0  0  0
   58.4090   27.5450   43.0420 O   0  0  0  0  0  0  0  0  0  0  0  0
   58.8910   27.4950   44.3690 C   0  0  0  0  0  0  0  0  0  0  0  0
   59.5100   28.8430   44.7360 C   0  0  0  0  0  0  0  0  0  0  0  0
   58.7590   29.9500   44.1220 N   0  0  0  0  0  0  0  0  0  0  0  0
   57.5060   30.2530   44.8330 C   0  0  0  0  0  0  0  0  0  0  0  0
   56.2940   29.8960   44.0160 C   0  0  0  0  0  0  0  0  0  0  0  0
   56.4350   29.4050   42.6820 N   0  0  0  0  0  0  0  0  0  0  0  0
   55.1430   30.0450   44.5060 O   0  0  0  0  0  0  0  0  0  0  0  0
   57.5020   25.8051   43.6617 H   0  0  0  0  0  0  0  0  0  0  0  0
   56.8641   26.5244   42.1444 H   0  0  0  0  0  0  0  0  0  0  0  0
   58.4569   25.6941   42.1444 H   0  0  0  0  0  0  0  0  0  0  0  0
   58.0586   27.2750   45.0536 H   0  0  0  0  0  0  0  0  0  0  0  0
   59.6528   26.7060   44.4534 H   0  0  0  0  0  0  0  0  0  0  0  0
   59.4950   28.9605   45.8296 H   0  0  0  0  0  0  0  0  0  0  0  0
   60.5438   28.8689   44.3611 H   0  0  0  0  0  0  0  0  0  0  0  0
   58.5380   29.7030   43.1280 H   0  0  0  0  0  0  0  0  0  0  0  0
   57.4829   29.6801   45.7718 H   0  0  0  0  0  0  0  0  0  0  0  0
   57.4784   31.3355   45.0268 H   0  0  0  0  0  0  0  0  0  0  0  0
   55.5910   29.1660   42.1170 H   0  0  0  0  0  0  0  0  0  0  0  0
   57.3810   29.2810   42.2560 H   0  0  0  0  0  0  0  0  0  0  0  0
  1  2  1  0
  2  3  1  0
  3  4  1  0
  4  5  1  0
  5  6  1  0
  6  7  1  0
  7  8  1  0
  7  9  2  0
  1 10  1  0
  1 11  1  0
  1 12  1  0
  3 13  1  0
  3 14  1  0
  4 15  1  0
  4 16  1  0
  5 17  1  0
  6 18  1  0
  6 19  1  0
  8 20  1  0
  8 21  1  0
M  END
>  <UniqueID>  (35) 
33

>  <SMILES>  (35) 
COCCNCC(N)=O

>  <Energy>  (35) 
13.897736169599197

>  <Genealogy>  (35) 
COCCNCC(N)=O (3D coordinates assigned)
COCCNCC(N)=O (optimized conformer: 13.897736169599197 kcal/mol)

>  <smiles>  (35) 
COCCNCC(N)=O

>  <score_type>  (35) 
oracle

>  <origin>  (35) 
adg

>  <m_score__min__energy>  (35) 
-4.5999999999999996

>  <m_primary>  (35) 
energy

$$$$
35:0
     RDKit          3D

 56 60  0  0  0  0  0  0  0  0999 V2000
   66.3380   32.9320   50.1340 C   0  0  0  0  0  0  0  0  0  0  0  0
   65.1410   33.4820   49.5920 O   0  0  0  0  0  0  0  0  0  0  0  0
   64.0530   32.7190   49.1440 C   0  0  0  0  0  0  0  0  0  0  0  0
   63.2410   31.9730   50.0190 C   0  0  0  0  0  0  0  0  0  0  0  0
   62.1660   31.2310   49.5230 C   0  0  0  0  0  0  0  0  0  0  0  0
   61.8770   31.2320   48.1490 C   0  0  0  0  0  0  0  0  0  0  0  0
   60.7370   30.4470   47.6150 C   0  0  0  0  0  0  0  0  0  0  0  0
   60.7590   29.0880   47.7330 N   0  0  0  0  0  0  0  0  0  0  0  0
   59.7080   28.3140   47.3410 C   0  0  0  0  0  0  0  0  0  0  0  0
   58.5800   28.9320   46.7680 C   0  0  0  0  0  0  0  0  0  0  0  0
   58.5650   30.2820   46.6360 N   0  0  0  0  0  0  0  0  0  0  0  0
   59.6070   31.0630   47.0250 C   0  0  0  0  0  0  0  0  0  0  0  0
   59.5160   32.5200   46.7790 C   0  0  0  0  0  0  0  0  0  0  0  0
   59.7400   33.4440   47.8170 C   0  0  0  0  0  0  0  0  0  0  0  0
   59.6580   34.8170   47.5660 C   0  0  0  0  0  0  0  0  0  0  0  0
   59.3690   35.2790   46.2800 C   0  0  0  0  0  0  0  0  0  0  0  0
   59.1670   34.3690   45.2390 C   0  0  0  0  0  0  0  0  0  0  0  0
   59.2460   32.9940   45.4850 C   0  0  0  0  0  0  0  0  0  0  0  0
   57.3710   28.1450   46.3310 C   0  0  0  0  0  0  0  0  0  0  0  0
   57.6180   26.6990   46.3790 N   0  0  0  0  0  0  0  0  0  0  0  0
   56.8650   25.8240   45.5210 C   0  0  0  0  0  0  0  0  0  0  0  0
   55.7220   25.4290   45.8820 O   0  0  0  0  0  0  0  0  0  0  0  0
   57.4060   25.3860   44.1890 C   0  0  0  0  0  0  0  0  0  0  0  0
   57.3560   23.8950   44.0700 C   0  0  0  0  0  0  0  0  0  0  0  0
   56.5250   23.1710   43.2240 C   0  0  0  0  0  0  0  0  0  0  0  0
   56.7540   21.7910   43.2790 C   0  0  0  0  0  0  0  0  0  0  0  0
   57.7710   21.4280   44.1530 C   0  0  0  0  0  0  0  0  0  0  0  0
   58.3870   22.8250   44.8580 S   0  0  0  0  0  0  0  0  0  0  0  0
   58.4170   26.1710   47.4870 C   0  0  0  0  0  0  0  0  0  0  0  0
   59.8010   26.8140   47.4570 C   0  0  0  0  0  0  0  0  0  0  0  0
   62.6960   31.9630   47.2760 C   0  0  0  0  0  0  0  0  0  0  0  0
   63.7720   32.7030   47.7730 C   0  0  0  0  0  0  0  0  0  0  0  0
   66.2875   32.9552   51.2326 H   0  0  0  0  0  0  0  0  0  0  0  0
   66.4504   31.8919   49.7940 H   0  0  0  0  0  0  0  0  0  0  0  0
   67.2004   33.5242   49.7940 H   0  0  0  0  0  0  0  0  0  0  0  0
   63.4538   31.9742   51.0982 H   0  0  0  0  0  0  0  0  0  0  0  0
   61.5427   30.6429   50.2127 H   0  0  0  0  0  0  0  0  0  0  0  0
   61.5940   28.6240   48.1600 H   0  0  0  0  0  0  0  0  0  0  0  0
   59.9803   33.0848   48.8286 H   0  0  0  0  0  0  0  0  0  0  0  0
   59.8215   35.5350   48.3832 H   0  0  0  0  0  0  0  0  0  0  0  0
   59.3004   36.3597   46.0866 H   0  0  0  0  0  0  0  0  0  0  0  0
   58.9457   34.7340   44.2252 H   0  0  0  0  0  0  0  0  0  0  0  0
   59.0959   32.2809   44.6610 H   0  0  0  0  0  0  0  0  0  0  0  0
   56.5294   28.3852   46.9973 H   0  0  0  0  0  0  0  0  0  0  0  0
   57.1410   28.4192   45.2908 H   0  0  0  0  0  0  0  0  0  0  0  0
   56.8009   25.8340   43.3870 H   0  0  0  0  0  0  0  0  0  0  0  0
   58.4518   25.7158   44.1029 H   0  0  0  0  0  0  0  0  0  0  0  0
   55.7653   23.6345   42.5775 H   0  0  0  0  0  0  0  0  0  0  0  0
   56.1822   21.0623   42.6857 H   0  0  0  0  0  0  0  0  0  0  0  0
   58.1147   20.4019   44.3502 H   0  0  0  0  0  0  0  0  0  0  0  0
   57.9229   26.4051   48.4415 H   0  0  0  0  0  0  0  0  0  0  0  0
   58.5136   25.0799   47.3866 H   0  0  0  0  0  0  0  0  0  0  0  0
   60.3343   26.5591   48.3847 H   0  0  0  0  0  0  0  0  0  0  0  0
   60.3415   26.4316   46.5785 H   0  0  0  0  0  0  0  0  0  0  0  0
   62.4904   31.9537   46.1954 H   0  0  0  0  0  0  0  0  0  0  0  0
   64.4040   33.2782   47.0804 H   0  0  0  0  0  0  0  0  0  0  0  0
  1  2  1  0
  2  3  1  0
  3  4  2  0
  4  5  1  0
  5  6  2  0
  6  7  1  0
  7  8  2  0
  8  9  1  0
  9 10  2  0
 10 11  1  0
 11 12  2  0
 12 13  1  0
 13 14  2  0
 14 15  1  0
 15 16  2  0
 16 17  1  0
 17 18  2  0
 10 19  1  0
 19 20  1  0
 20 21  1  0
 21 22  2  0
 21 23  1  0
 23 24  1  0
 24 25  2  0
 25 26  1  0
 26 27  2  0
 27 28  1  0
 20 29  1  0
 29 30  1  0
  6 31  1  0
 31 32  2  0
 32  3  1  0
 12  7  1  0
 18 13  1  0
 28 24  1  0
 30  9  1  0
  1 33  1  0
  1 34  1  0
  1 35  1  0
  4 36  1  0
  5 37  1  0
  8 38  1  0
 14 39  1  0
 15 40  1  0
 16 41  1  0
 17 42  1  0
 18 43  1  0
 19 44  1  0
 19 45  1  0
 23 46  1  0
 23 47  1  0
 25 48  1  0
 26 49  1  0
 27 50  1  0
 29 51  1  0
 29 52  1  0
 30 53  1  0
 30 54  1  0
 31 55  1  0
 32 56  1  0
M  CHG  1   8   1
M  END
>  <UniqueID>  (36) 
34

>  <SMILES>  (36) 
COc1ccc(-c2[nH+]c3c(nc2-c2ccccc2)CN(C(=O)Cc2cccs2)CC3)cc1

>  <Energy>  (36) 
101.6276002898221

>  <Genealogy>  (36) 
COc1ccc(-c2[nH+]c3c(nc2-c2ccccc2)CN(C(=O)Cc2cccs2)CC3)cc1 (protonated)
COc1ccc(-c2[nH+]c3c(nc2-c2ccccc2)CN(C(=O)Cc2cccs2)CC3)cc1 (3D coordinates assigned)
COc1ccc(-c2[nH+]c3c(nc2-c2ccccc2)CN(C(=O)Cc2cccs2)CC3)cc1 (nonaromatic ring conformer: 101.6276002898221 kcal/mol)

>  <smiles>  (36) 
COc1ccc(-c2nc3c(nc2-c2ccccc2)CN(C(=O)Cc2cccs2)CC3)cc1

>  <score_type>  (36) 
oracle

>  <origin>  (36) 
adg

>  <m_score__min__energy>  (36) 
-7.7599999999999998

>  <m_primary>  (36) 
energy

$$$$
36:0
     RDKit          3D

 62 66  0  0  0  0  0  0  0  0999 V2000
   58.8570   34.1260   52.3560 C   0  0  0  0  0  0  0  0  0  0  0  0
   58.8420   32.8220   51.7810 O   0  0  0  0  0  0  0  0  0  0  0  0
   58.1440   31.7270   52.3170 C   0  0  0  0  0  0  0  0  0  0  0  0
   57.3080   31.8530   53.4450 C   0  0  0  0  0  0  0  0  0  0  0  0
   56.6500   30.7360   53.9660 C   0  0  0  0  0  0  0  0  0  0  0  0
   56.8170   29.4850   53.3700 C   0  0  0  0  0  0  0  0  0  0  0  0
   57.6390   29.3480   52.2500 C   0  0  0  0  0  0  0  0  0  0  0  0
   58.3000   30.4640   51.7150 C   0  0  0  0  0  0  0  0  0  0  0  0
   59.1140   30.3100   50.5440 N   0  0  0  0  0  0  0  0  0  0  0  0
   58.9150   31.2200   49.4080 C   0  0  0  0  0  0  0  0  0  0  0  0
   59.7920   30.8330   48.2110 C   0  0  0  0  0  0  0  0  0  0  0  0
   59.7320   29.3800   47.9730 N   0  0  0  0  0  0  0  0  0  0  0  0
   59.7000   28.8320   46.6360 C   0  0  0  0  0  0  0  0  0  0  0  0
   59.4680   27.6010   46.4760 O   0  0  0  0  0  0  0  0  0  0  0  0
   59.9000   29.7030   45.4200 C   0  0  0  0  0  0  0  0  0  0  0  0
   58.7510   30.5890   45.2010 N   0  0  0  0  0  0  0  0  0  0  0  0
   57.5020   30.2590   44.7650 C   0  0  0  0  0  0  0  0  0  0  0  0
   57.0820   28.8760   44.3530 C   0  0  0  0  0  0  0  0  0  0  0  0
   56.7740   28.0770   45.4950 O   0  0  0  0  0  0  0  0  0  0  0  0
   56.9610   26.6900   45.5950 C   0  0  0  0  0  0  0  0  0  0  0  0
   56.5840   25.9490   46.7330 C   0  0  0  0  0  0  0  0  0  0  0  0
   56.7870   24.5660   46.7710 C   0  0  0  0  0  0  0  0  0  0  0  0
   57.3750   23.9120   45.6830 C   0  0  0  0  0  0  0  0  0  0  0  0
   57.6300   22.1760   45.7340 Cl  0  0  0  0  0  0  0  0  0  0  0  0
   57.7580   24.6430   44.5550 C   0  0  0  0  0  0  0  0  0  0  0  0
   57.5530   26.0250   44.5130 C   0  0  0  0  0  0  0  0  0  0  0  0
   56.6430   31.3140   44.7450 N   0  0  0  0  0  0  0  0  0  0  0  0
   57.4000   32.3310   45.1930 C   0  0  0  0  0  0  0  0  0  0  0  0
   57.0110   33.6550   45.3900 C   0  0  0  0  0  0  0  0  0  0  0  0
   57.9710   34.5510   45.8980 C   0  0  0  0  0  0  0  0  0  0  0  0
   59.2790   34.1050   46.1960 C   0  0  0  0  0  0  0  0  0  0  0  0
   59.6400   32.7620   45.9880 C   0  0  0  0  0  0  0  0  0  0  0  0
   58.6650   31.9020   45.4750 C   0  0  0  0  0  0  0  0  0  0  0  0
   59.8060   28.4460   49.1110 C   0  0  0  0  0  0  0  0  0  0  0  0
   60.0380   29.1780   50.4350 C   0  0  0  0  0  0  0  0  0  0  0  0
   58.8560   34.0431   53.4529 H   0  0  0  0  0  0  0  0  0  0  0  0
   59.7613   34.6603   52.0295 H   0  0  0  0  0  0  0  0  0  0  0  0
   57.9652   34.6810   52.0295 H   0  0  0  0  0  0  0  0  0  0  0  0
   57.1728   32.8369   53.9180 H   0  0  0  0  0  0  0  0  0  0  0  0
   55.9997   30.8426   54.8468 H   0  0  0  0  0  0  0  0  0  0  0  0
   56.3004   28.6062   53.7832 H   0  0  0  0  0  0  0  0  0  0  0  0
   57.7692   28.3599   51.7845 H   0  0  0  0  0  0  0  0  0  0  0  0
   57.8588   31.1835   49.1027 H   0  0  0  0  0  0  0  0  0  0  0  0
   59.1982   32.2339   49.7271 H   0  0  0  0  0  0  0  0  0  0  0  0
   59.4343   31.3613   47.3149 H   0  0  0  0  0  0  0  0  0  0  0  0
   60.8330   31.1143   48.4281 H   0  0  0  0  0  0  0  0  0  0  0  0
   60.8022   30.3158   45.5632 H   0  0  0  0  0  0  0  0  0  0  0  0
   60.0066   29.0507   44.5407 H   0  0  0  0  0  0  0  0  0  0  0  0
   56.1913   28.9460   43.7114 H   0  0  0  0  0  0  0  0  0  0  0  0
   57.9121   28.4041   43.8068 H   0  0  0  0  0  0  0  0  0  0  0  0
   56.1286   26.4602   47.5940 H   0  0  0  0  0  0  0  0  0  0  0  0
   56.4837   23.9910   47.6583 H   0  0  0  0  0  0  0  0  0  0  0  0
   58.2213   24.1301   43.6993 H   0  0  0  0  0  0  0  0  0  0  0  0
   57.8589   26.5951   43.6234 H   0  0  0  0  0  0  0  0  0  0  0  0
   55.9891   33.9884   45.1566 H   0  0  0  0  0  0  0  0  0  0  0  0
   57.7016   35.6045   46.0640 H   0  0  0  0  0  0  0  0  0  0  0  0
   60.0200   34.8140   46.5936 H   0  0  0  0  0  0  0  0  0  0  0  0
   60.6529   32.4014   46.2206 H   0  0  0  0  0  0  0  0  0  0  0  0
   58.8608   27.8869   49.1744 H   0  0  0  0  0  0  0  0  0  0  0  0
   60.6562   27.7688   48.9419 H   0  0  0  0  0  0  0  0  0  0  0  0
   59.8659   28.4842   51.2711 H   0  0  0  0  0  0  0  0  0  0  0  0
   61.0730   29.5490   50.4687 H   0  0  0  0  0  0  0  0  0  0  0  0
  1  2  1  0
  2  3  1  0
  3  4  2  0
  4  5  1  0
  5  6  2  0
  6  7  1  0
  7  8  2  0
  8  9  1  0
  9 10  1  0
 10 11  1  0
 11 12  1  0
 12 13  1  0
 13 14  2  0
 13 15  1  0
 15 16  1  0
 16 17  1  0
 17 18  1  0
 18 19  1  0
 19 20  1  0
 20 21  2  0
 21 22  1  0
 22 23  2  0
 23 24  1  0
 23 25  1  0
 25 26  2  0
 17 27  2  0
 27 28  1  0
 28 29  2  0
 29 30  1  0
 30 31  2  0
 31 32  1  0
 32 33  2  0
 12 34  1  0
 34 35  1  0
  8  3  1  0
 35  9  1  0
 33 16  1  0
 26 20  1  0
 33 28  1  0
  1 36  1  0
  1 37  1  0
  1 38  1  0
  4 39  1  0
  5 40  1  0
  6 41  1  0
  7 42  1  0
 10 43  1  0
 10 44  1  0
 11 45  1  0
 11 46  1  0
 15 47  1  0
 15 48  1  0
 18 49  1  0
 18 50  1  0
 21 51  1  0
 22 52  1  0
 25 53  1  0
 26 54  1  0
 29 55  1  0
 30 56  1  0
 31 57  1  0
 32 58  1  0
 34 59  1  0
 34 60  1  0
 35 61  1  0
 35 62  1  0
M  END
>  <UniqueID>  (37) 
35

>  <SMILES>  (37) 
COc1ccccc1N1CCN(C(=O)Cn2c(COc3ccc(Cl)cc3)nc3ccccc32)CC1

>  <Energy>  (37) 
108.88457841138631

>  <Genealogy>  (37) 
COc1ccccc1N1CCN(C(=O)Cn2c(COc3ccc(Cl)cc3)nc3ccccc32)CC1 (3D coordinates assigned)
COc1ccccc1N1CCN(C(=O)Cn2c(COc3ccc(Cl)cc3)nc3ccccc32)CC1 (nonaromatic ring conformer: 108.88457841138631 kcal/mol)

>  <smiles>  (37) 
COc1ccccc1N1CCN(C(=O)Cn2c(COc3ccc(Cl)cc3)nc3ccccc32)CC1

>  <score_type>  (37) 
oracle

>  <origin>  (37) 
adg

>  <m_score__min__energy>  (37) 
-8.8300000000000001

>  <m_primary>  (37) 
energy

$$$$
37:0
     RDKit          3D

 25 27  0  0  0  0  0  0  0  0999 V2000
   55.8180   23.3010   46.0990 C   0  0  0  0  0  0  0  0  0  0  0  0
   55.8500   24.4570   46.9260 O   0  0  0  0  0  0  0  0  0  0  0  0
   56.3850   25.6710   46.4910 C   0  0  0  0  0  0  0  0  0  0  0  0
   55.6360   26.6680   45.9360 N   0  0  0  0  0  0  0  0  0  0  0  0
   56.4420   27.6680   45.6200 N   0  0  0  0  0  0  0  0  0  0  0  0
   56.3050   28.9170   45.1800 C   0  0  0  0  0  0  0  0  0  0  0  0
   55.2070   29.4570   44.8750 O   0  0  0  0  0  0  0  0  0  0  0  0
   57.5220   29.5290   45.1880 N   0  0  0  0  0  0  0  0  0  0  0  0
   57.8400   30.8850   44.8170 C   0  0  0  0  0  0  0  0  0  0  0  0
   58.2080   31.8130   45.8080 C   0  0  0  0  0  0  0  0  0  0  0  0
   58.5280   33.1290   45.4620 C   0  0  0  0  0  0  0  0  0  0  0  0
   58.4930   33.5310   44.1250 C   0  0  0  0  0  0  0  0  0  0  0  0
   58.1450   32.6140   43.1310 C   0  0  0  0  0  0  0  0  0  0  0  0
   57.8230   31.2970   43.4710 C   0  0  0  0  0  0  0  0  0  0  0  0
   58.4230   28.6620   45.6700 N   0  0  0  0  0  0  0  0  0  0  0  0
   57.7130   27.5420   45.9070 C   0  0  0  0  0  0  0  0  0  0  0  0
   58.0600   26.0670   46.6220 S   0  0  0  0  0  0  0  0  0  0  0  0
   55.7931   22.3998   46.7293 H   0  0  0  0  0  0  0  0  0  0  0  0
   54.9203   23.3292   45.4639 H   0  0  0  0  0  0  0  0  0  0  0  0
   56.7159   23.2795   45.4639 H   0  0  0  0  0  0  0  0  0  0  0  0
   58.2442   31.5010   46.8622 H   0  0  0  0  0  0  0  0  0  0  0  0
   58.8080   33.8496   46.2446 H   0  0  0  0  0  0  0  0  0  0  0  0
   58.7392   34.5686   43.8553 H   0  0  0  0  0  0  0  0  0  0  0  0
   58.1242   32.9290   42.0773 H   0  0  0  0  0  0  0  0  0  0  0  0
   57.5548   30.5785   42.6824 H   0  0  0  0  0  0  0  0  0  0  0  0
  1  2  1  0
  2  3  1  0
  3  4  2  0
  4  5  1  0
  5  6  1  0
  6  7  2  0
  6  8  1  0
  8  9  1  0
  9 10  2  0
 10 11  1  0
 11 12  2  0
 12 13  1  0
 13 14  2  0
  8 15  1  0
 15 16  2  0
 16 17  1  0
 17  3  1  0
 16  5  1  0
 14  9  1  0
  1 18  1  0
  1 19  1  0
  1 20  1  0
 10 21  1  0
 11 22  1  0
 12 23  1  0
 13 24  1  0
 14 25  1  0
M  END
>  <UniqueID>  (38) 
36

>  <SMILES>  (38) 
COc1nn2c(=O)n(-c3ccccc3)nc2s1

>  <Energy>  (38) 
125.74467492564594

>  <Genealogy>  (38) 
COc1nn2c(=O)n(-c3ccccc3)nc2s1 (3D coordinates assigned)
COc1nn2c(=O)n(-c3ccccc3)nc2s1 (optimized conformer: 125.74467492564594 kcal/mol)

>  <smiles>  (38) 
COc1nn2c(=O)n(-c3ccccc3)nc2s1

>  <score_type>  (38) 
oracle

>  <origin>  (38) 
adg

>  <m_score__min__energy>  (38) 
-6.2400000000000002

>  <m_primary>  (38) 
energy

$$$$
38:0
     RDKit          3D

 47 50  0  0  0  0  0  0  0  0999 V2000
   63.3930   31.6380   47.4910 C   0  0  0  0  0  0  0  0  0  0  0  0
   64.0210   32.8460   48.0480 N   0  0  0  0  0  0  0  0  0  0  0  0
   64.4700   32.6190   49.4340 C   0  0  0  0  0  0  0  0  0  0  0  0
   63.1770   34.0580   47.9000 C   0  0  0  0  0  0  0  0  0  0  0  0
   61.7640   33.9840   48.5350 C   0  0  0  0  0  0  0  0  0  0  0  0
   60.8260   33.1560   47.7650 N   0  0  0  0  0  0  0  0  0  0  0  0
   60.5920   33.4830   46.3780 C   0  0  0  0  0  0  0  0  0  0  0  0
   59.5650   32.9660   45.6990 C   0  0  0  0  0  0  0  0  0  0  0  0
   58.5280   32.1030   46.3710 C   0  0  1  0  0  0  0  0  0  0  0  0
   57.8930   31.1600   45.3700 C   0  0  0  0  0  0  0  0  0  0  0  0
   56.8820   31.6380   44.5210 C   0  0  0  0  0  0  0  0  0  0  0  0
   56.2910   30.7970   43.5760 C   0  0  0  0  0  0  0  0  0  0  0  0
   56.7030   29.4690   43.4600 C   0  0  0  0  0  0  0  0  0  0  0  0
   57.7170   28.9700   44.2910 C   0  0  0  0  0  0  0  0  0  0  0  0
   58.1360   27.6370   44.1720 C   0  0  0  0  0  0  0  0  0  0  0  0
   59.1510   27.1440   44.9930 C   0  0  0  0  0  0  0  0  0  0  0  0
   59.7550   27.9720   45.9400 C   0  0  0  0  0  0  0  0  0  0  0  0
   59.3410   29.3040   46.0900 C   0  0  0  0  0  0  0  0  0  0  0  0
   58.3250   29.8170   45.2510 C   0  0  0  0  0  0  0  0  0  0  0  0
   60.0500   30.1930   47.0790 C   0  0  0  0  0  0  0  0  0  0  0  0
   59.1310   31.3310   47.5640 C   0  0  1  0  0  0  0  0  0  0  0  0
   59.8730   32.3060   48.4980 C   0  0  0  0  0  0  0  0  0  0  0  0
   63.0553   30.9885   48.3120 H   0  0  0  0  0  0  0  0  0  0  0  0
   62.5301   31.9254   46.8722 H   0  0  0  0  0  0  0  0  0  0  0  0
   64.1239   31.0968   46.8722 H   0  0  0  0  0  0  0  0  0  0  0  0
   64.8840   33.0220   47.4780 H   0  0  0  0  0  0  0  0  0  0  0  0
   63.7117   33.0024   50.1325 H   0  0  0  0  0  0  0  0  0  0  0  0
   64.6114   31.5411   49.6017 H   0  0  0  0  0  0  0  0  0  0  0  0
   65.4219   33.1442   49.6017 H   0  0  0  0  0  0  0  0  0  0  0  0
   63.7115   34.8992   48.3654 H   0  0  0  0  0  0  0  0  0  0  0  0
   63.0106   34.1734   46.8188 H   0  0  0  0  0  0  0  0  0  0  0  0
   61.8567   33.5595   49.5456 H   0  0  0  0  0  0  0  0  0  0  0  0
   61.3593   35.0067   48.5519 H   0  0  0  0  0  0  0  0  0  0  0  0
   61.2774   34.1758   45.8677 H   0  0  0  0  0  0  0  0  0  0  0  0
   59.4736   33.1750   44.6229 H   0  0  0  0  0  0  0  0  0  0  0  0
   57.7407   32.7597   46.7696 H   0  0  0  0  0  0  0  0  0  0  0  0
   56.5526   32.6845   44.6011 H   0  0  0  0  0  0  0  0  0  0  0  0
   55.4970   31.1832   42.9200 H   0  0  0  0  0  0  0  0  0  0  0  0
   56.2314   28.8115   42.7148 H   0  0  0  0  0  0  0  0  0  0  0  0
   57.6630   26.9779   43.4291 H   0  0  0  0  0  0  0  0  0  0  0  0
   59.4764   26.0980   44.8932 H   0  0  0  0  0  0  0  0  0  0  0  0
   60.5624   27.5770   46.5741 H   0  0  0  0  0  0  0  0  0  0  0  0
   60.3616   29.5899   47.9445 H   0  0  0  0  0  0  0  0  0  0  0  0
   60.9242   30.6390   46.5822 H   0  0  0  0  0  0  0  0  0  0  0  0
   58.3156   30.8630   48.1350 H   0  0  0  0  0  0  0  0  0  0  0  0
   59.1345   32.9501   48.9978 H   0  0  0  0  0  0  0  0  0  0  0  0
   60.4411   31.7106   49.2279 H   0  0  0  0  0  0  0  0  0  0  0  0
  1  2  1  0
  2  3  1  0
  2  4  1  0
  4  5  1  0
  5  6  1  0
  6  7  1  0
  7  8  2  0
  8  9  1  0
  9 10  1  0
 10 11  2  0
 11 12  1  0
 12 13  2  0
 13 14  1  0
 14 15  2  0
 15 16  1  0
 16 17  2  0
 17 18  1  0
 18 19  2  0
 18 20  1  0
 20 21  1  0
 21 22  1  0
 22  6  1  0
 21  9  1  0
 19 10  1  0
 19 14  1  0
  1 23  1  0
  1 24  1  0
  1 25  1  0
  2 26  1  0
  3 27  1  0
  3 28  1  0
  3 29  1  0
  4 30  1  0
  4 31  1  0
  5 32  1  0
  5 33  1  0
  7 34  1  0
  8 35  1  0
  9 36  1  1
 11 37  1  0
 12 38  1  0
 13 39  1  0
 15 40  1  0
 16 41  1  0
 17 42  1  0
 20 43  1  0
 20 44  1  0
 21 45  1  1
 22 46  1  0
 22 47  1  0
M  CHG  1   2   1
M  END
>  <UniqueID>  (39) 
37

>  <SMILES>  (39) 
C[NH+](C)CCN1C=C[C@H]2c3cccc4cccc(c34)C[C@H]2C1

>  <Energy>  (39) 
56.58751383356863

>  <Genealogy>  (39) 
C[NH+](C)CCN1C=CC2c3cccc4cccc(c34)CC2C1 (protonated)
C[NH+](C)CCN1C=C[C@H]2c3cccc4cccc(c34)C[C@H]2C1 (chirality)
C[NH+](C)CCN1C=C[C@H]2c3cccc4cccc(c34)C[C@H]2C1 (3D coordinates assigned)
C[NH+](C)CCN1C=C[C@H]2c3cccc4cccc(c34)C[C@H]2C1 (nonaromatic ring conformer: 56.58751383356863 kcal/mol)

>  <smiles>  (39) 
CN(C)CCN1C=CC2c3cccc4cccc(c34)CC2C1

>  <score_type>  (39) 
oracle

>  <origin>  (39) 
adg

>  <m_score__min__energy>  (39) 
-6.6200000000000001

>  <m_primary>  (39) 
energy

$$$$
39:0
     RDKit          3D

 55 56  0  0  0  0  0  0  0  0999 V2000
   56.9730   34.3700   44.8710 C   0  0  0  0  0  0  0  0  0  0  0  0
   58.3290   33.6970   44.6490 C   0  0  0  0  0  0  0  0  0  0  0  0
   58.8890   33.1070   45.9450 C   0  0  0  0  0  0  0  0  0  0  0  0
   58.7680   31.7090   46.1970 C   0  0  0  0  0  0  0  0  0  0  0  0
   58.0360   30.8440   45.3470 C   0  0  0  0  0  0  0  0  0  0  0  0
   57.9300   29.4680   45.6140 C   0  0  0  0  0  0  0  0  0  0  0  0
   57.2100   28.5970   44.7800 O   0  0  0  0  0  0  0  0  0  0  0  0
   57.7780   27.8280   43.7240 C   0  0  0  0  0  0  0  0  0  0  0  0
   58.5540   28.9340   46.7410 C   0  0  0  0  0  0  0  0  0  0  0  0
   58.4360   27.5540   46.9770 O   0  0  0  0  0  0  0  0  0  0  0  0
   59.5150   26.7010   47.3480 C   0  0  0  0  0  0  0  0  0  0  0  0
   59.2730   29.7780   47.5990 C   0  0  0  0  0  0  0  0  0  0  0  0
   59.4000   31.1560   47.3320 C   0  0  0  0  0  0  0  0  0  0  0  0
   60.1730   31.9810   48.1690 C   0  0  0  0  0  0  0  0  0  0  0  0
   60.9160   31.4060   49.2580 N   0  0  0  0  0  0  0  0  0  0  0  0
   62.3630   31.2150   49.1660 C   0  0  0  0  0  0  0  0  0  0  0  0
   62.8470   31.4530   47.7260 C   0  0  0  0  0  0  0  0  0  0  0  0
   63.8740   32.5180   47.6370 N   0  0  0  0  0  0  0  0  0  0  0  0
   63.4030   33.5920   46.7450 C   0  0  0  0  0  0  0  0  0  0  0  0
   64.1910   33.0820   48.9640 C   0  0  0  0  0  0  0  0  0  0  0  0
   60.2190   33.3720   47.9330 C   0  0  0  0  0  0  0  0  0  0  0  0
   60.9940   34.2590   48.8940 C   0  0  0  0  0  0  0  0  0  0  0  0
   59.5200   33.9200   46.8730 N   0  0  0  0  0  0  0  0  0  0  0  0
   59.5160   35.3910   46.6960 C   0  0  0  0  0  0  0  0  0  0  0  0
   56.7828   34.4644   45.9503 H   0  0  0  0  0  0  0  0  0  0  0  0
   56.9799   35.3692   44.4111 H   0  0  0  0  0  0  0  0  0  0  0  0
   56.1814   33.7602   44.4111 H   0  0  0  0  0  0  0  0  0  0  0  0
   58.2092   32.8889   43.9124 H   0  0  0  0  0  0  0  0  0  0  0  0
   59.0344   34.4597   44.2875 H   0  0  0  0  0  0  0  0  0  0  0  0
   57.5391   31.2586   44.4575 H   0  0  0  0  0  0  0  0  0  0  0  0
   58.3810   27.0116   44.1482 H   0  0  0  0  0  0  0  0  0  0  0  0
   56.9734   27.4057   43.1042 H   0  0  0  0  0  0  0  0  0  0  0  0
   58.4183   28.4729   43.1042 H   0  0  0  0  0  0  0  0  0  0  0  0
   59.5808   26.6490   48.4448 H   0  0  0  0  0  0  0  0  0  0  0  0
   59.3417   25.6931   46.9428 H   0  0  0  0  0  0  0  0  0  0  0  0
   60.4556   27.1023   46.9428 H   0  0  0  0  0  0  0  0  0  0  0  0
   59.7471   29.3567   48.4977 H   0  0  0  0  0  0  0  0  0  0  0  0
   60.3930   30.8990   50.0080 H   0  0  0  0  0  0  0  0  0  0  0  0
   62.8654   31.9255   49.8389 H   0  0  0  0  0  0  0  0  0  0  0  0
   62.6047   30.1819   49.4565 H   0  0  0  0  0  0  0  0  0  0  0  0
   63.2763   30.5168   47.3397 H   0  0  0  0  0  0  0  0  0  0  0  0
   61.9793   31.7775   47.1329 H   0  0  0  0  0  0  0  0  0  0  0  0
   64.7520   32.1230   47.2240 H   0  0  0  0  0  0  0  0  0  0  0  0
   63.0336   34.4343   47.3485 H   0  0  0  0  0  0  0  0  0  0  0  0
   64.2344   33.9325   46.1103 H   0  0  0  0  0  0  0  0  0  0  0  0
   62.5893   33.2111   46.1103 H   0  0  0  0  0  0  0  0  0  0  0  0
   63.8130   32.4094   49.7481 H   0  0  0  0  0  0  0  0  0  0  0  0
   65.2811   33.1883   49.0663 H   0  0  0  0  0  0  0  0  0  0  0  0
   63.7152   34.0685   49.0663 H   0  0  0  0  0  0  0  0  0  0  0  0
   60.7496   33.9792   49.9294 H   0  0  0  0  0  0  0  0  0  0  0  0
   62.0730   34.1289   48.7240 H   0  0  0  0  0  0  0  0  0  0  0  0
   60.7203   35.3107   48.7240 H   0  0  0  0  0  0  0  0  0  0  0  0
   59.5147   35.8789   47.6819 H   0  0  0  0  0  0  0  0  0  0  0  0
   60.4133   35.6955   46.1374 H   0  0  0  0  0  0  0  0  0  0  0  0
   58.6170   35.6906   46.1374 H   0  0  0  0  0  0  0  0  0  0  0  0
  1  2  1  0
  2  3  1  0
  3  4  2  0
  4  5  1  0
  5  6  2  0
  6  7  1  0
  7  8  1  0
  6  9  1  0
  9 10  1  0
 10 11  1  0
  9 12  2  0
 12 13  1  0
 13 14  2  0
 14 15  1  0
 15 16  1  0
 16 17  1  0
 17 18  1  0
 18 19  1  0
 18 20  1  0
 14 21  1  0
 21 22  1  0
 21 23  2  0
 23 24  1  0
 23  3  1  0
 13  4  1  0
  1 25  1  0
  1 26  1  0
  1 27  1  0
  2 28  1  0
  2 29  1  0
  5 30  1  0
  8 31  1  0
  8 32  1  0
  8 33  1  0
 11 34  1  0
 11 35  1  0
 11 36  1  0
 12 37  1  0
 15 38  1  0
 16 39  1  0
 16 40  1  0
 17 41  1  0
 17 42  1  0
 18 43  1  0
 19 44  1  0
 19 45  1  0
 19 46  1  0
 20 47  1  0
 20 48  1  0
 20 49  1  0
 22 50  1  0
 22 51  1  0
 22 52  1  0
 24 53  1  0
 24 54  1  0
 24 55  1  0
M  CHG  2  18   1  23   1
M  END
>  <UniqueID>  (40) 
38

>  <SMILES>  (40) 
CCc1c2cc(OC)c(OC)cc2c(NCC[NH+](C)C)c(C)[n+]1C

>  <Energy>  (40) 
73.32094402016679

>  <Genealogy>  (40) 
CCc1c2cc(OC)c(OC)cc2c(NCC[NH+](C)C)c(C)[n+]1C (protonated)
CCc1c2cc(OC)c(OC)cc2c(NCC[NH+](C)C)c(C)[n+]1C (3D coordinates assigned)
CCc1c2cc(OC)c(OC)cc2c(NCC[NH+](C)C)c(C)[n+]1C (optimized conformer: 73.32094402016679 kcal/mol)

>  <smiles>  (40) 
CCc1c2cc(OC)c(OC)cc2c(NCCN(C)C)c(C)[n+]1C

>  <score_type>  (40) 
oracle

>  <origin>  (40) 
adg

>  <m_score__min__energy>  (40) 
-3.6600000000000001

>  <m_primary>  (40) 
energy

$$$$
40:0
     RDKit          3D

 52 53  0  0  0  0  0  0  0  0999 V2000
   67.7820   33.2370   50.4920 C   0  0  0  0  0  0  0  0  0  0  0  0
   66.7870   32.0950   50.6700 C   0  0  0  0  0  0  0  0  0  0  0  0
   65.7300   32.2150   49.7370 O   0  0  0  0  0  0  0  0  0  0  0  0
   64.7340   33.1140   50.1920 C   0  0  0  0  0  0  0  0  0  0  0  0
   63.7550   33.4750   49.0570 C   0  0  0  0  0  0  0  0  0  0  0  0
   63.6470   32.4090   48.0240 N   0  0  2  0  0  0  0  0  0  0  0  0
   63.2700   33.0220   46.7280 C   0  0  0  0  0  0  0  0  0  0  0  0
   62.0380   33.9440   46.8180 C   0  0  0  0  0  0  0  0  0  0  0  0
   60.8190   33.2240   47.4220 C   0  0  0  0  0  0  0  0  0  0  0  0
   60.6470   31.8250   46.9550 N   0  0  0  0  0  0  0  0  0  0  0  0
   59.3460   31.2700   47.3950 C   0  0  0  0  0  0  0  0  0  0  0  0
   58.4880   30.9050   46.2100 C   0  0  0  0  0  0  0  0  0  0  0  0
   58.5500   31.6550   45.0250 C   0  0  0  0  0  0  0  0  0  0  0  0
   57.7820   31.2860   43.9190 C   0  0  0  0  0  0  0  0  0  0  0  0
   56.9400   30.1740   43.9880 C   0  0  0  0  0  0  0  0  0  0  0  0
   56.8490   29.4280   45.1760 C   0  0  0  0  0  0  0  0  0  0  0  0
   56.0230   28.2590   45.2700 N   0  0  0  0  0  0  0  0  0  0  0  0
   56.4040   26.9820   45.7990 C   0  0  0  0  0  0  0  0  0  0  0  0
   57.8230   26.5040   45.7820 C   0  0  0  0  0  0  0  0  0  0  0  0
   55.5110   26.2230   46.2600 O   0  0  0  0  0  0  0  0  0  0  0  0
   57.6450   29.7840   46.2720 C   0  0  0  0  0  0  0  0  0  0  0  0
   61.7640   30.9020   47.2730 C   0  0  0  0  0  0  0  0  0  0  0  0
   62.6610   31.3760   48.4450 C   0  0  0  0  0  0  0  0  0  0  0  0
   68.1007   33.6028   51.4792 H   0  0  0  0  0  0  0  0  0  0  0  0
   68.6586   32.8759   49.9342 H   0  0  0  0  0  0  0  0  0  0  0  0
   67.3043   34.0559   49.9342 H   0  0  0  0  0  0  0  0  0  0  0  0
   67.3029   31.1363   50.5126 H   0  0  0  0  0  0  0  0  0  0  0  0
   66.3723   32.1370   51.6880 H   0  0  0  0  0  0  0  0  0  0  0  0
   64.1741   32.6444   51.0141 H   0  0  0  0  0  0  0  0  0  0  0  0
   65.2253   34.0356   50.5373 H   0  0  0  0  0  0  0  0  0  0  0  0
   62.7592   33.6435   49.4928 H   0  0  0  0  0  0  0  0  0  0  0  0
   64.1429   34.3770   48.5611 H   0  0  0  0  0  0  0  0  0  0  0  0
   64.5910   31.9700   47.9020 H   0  0  0  0  0  0  0  0  0  0  0  0
   64.1218   33.6142   46.3623 H   0  0  0  0  0  0  0  0  0  0  0  0
   63.0091   32.1998   46.0454 H   0  0  0  0  0  0  0  0  0  0  0  0
   62.2878   34.8092   47.4497 H   0  0  0  0  0  0  0  0  0  0  0  0
   61.7745   34.2580   45.7972 H   0  0  0  0  0  0  0  0  0  0  0  0
   60.9327   33.2112   48.5160 H   0  0  0  0  0  0  0  0  0  0  0  0
   59.9282   33.7794   47.0933 H   0  0  0  0  0  0  0  0  0  0  0  0
   59.5251   30.3695   48.0009 H   0  0  0  0  0  0  0  0  0  0  0  0
   58.8206   32.0336   47.9873 H   0  0  0  0  0  0  0  0  0  0  0  0
   59.2058   32.5363   44.9676 H   0  0  0  0  0  0  0  0  0  0  0  0
   57.8403   31.8729   42.9905 H   0  0  0  0  0  0  0  0  0  0  0  0
   56.3460   29.8809   43.1098 H   0  0  0  0  0  0  0  0  0  0  0  0
   58.1816   26.3832   46.8149 H   0  0  0  0  0  0  0  0  0  0  0  0
   57.8782   25.5377   45.2593 H   0  0  0  0  0  0  0  0  0  0  0  0
   58.4516   27.2400   45.2593 H   0  0  0  0  0  0  0  0  0  0  0  0
   57.6094   29.1794   47.1903 H   0  0  0  0  0  0  0  0  0  0  0  0
   61.3386   29.9227   47.5375 H   0  0  0  0  0  0  0  0  0  0  0  0
   62.4047   30.8590   46.3799 H   0  0  0  0  0  0  0  0  0  0  0  0
   62.0195   31.7999   49.2316 H   0  0  0  0  0  0  0  0  0  0  0  0
   63.2240   30.5043   48.8099 H   0  0  0  0  0  0  0  0  0  0  0  0
  1  2  1  0
  2  3  1  0
  3  4  1  0
  4  5  1  0
  5  6  1  0
  6  7  1  0
  7  8  1  0
  8  9  1  0
  9 10  1  0
 10 11  1  0
 11 12  1  0
 12 13  2  0
 13 14  1  0
 14 15  2  0
 15 16  1  0
 16 17  1  0
 17 18  1  0
 18 19  1  0
 18 20  2  0
 16 21  2  0
 10 22  1  0
 22 23  1  0
 23  6  1  0
 21 12  1  0
  1 24  1  0
  1 25  1  0
  1 26  1  0
  2 27  1  0
  2 28  1  0
  4 29  1  0
  4 30  1  0
  5 31  1  0
  5 32  1  0
  6 33  1  6
  7 34  1  0
  7 35  1  0
  8 36  1  0
  8 37  1  0
  9 38  1  0
  9 39  1  0
 11 40  1  0
 11 41  1  0
 13 42  1  0
 14 43  1  0
 15 44  1  0
 19 45  1  0
 19 46  1  0
 19 47  1  0
 21 48  1  0
 22 49  1  0
 22 50  1  0
 23 51  1  0
 23 52  1  0
M  CHG  2   6   1  17  -1
M  END
>  <UniqueID>  (41) 
39

>  <SMILES>  (41) 
CCOCC[N@@H+]1CCCN(Cc2cccc([N-]C(C)=O)c2)CC1

>  <Energy>  (41) 
69.47383001347413

>  <Genealogy>  (41) 
CCOCC[NH+]1CCCN(Cc2cccc([N-]C(C)=O)c2)CC1 (protonated)
CCOCC[N@@H+]1CCCN(Cc2cccc([N-]C(C)=O)c2)CC1 (chirality)
CCOCC[N@@H+]1CCCN(Cc2cccc([N-]C(C)=O)c2)CC1 (3D coordinates assigned)
CCOCC[N@@H+]1CCCN(Cc2cccc([N-]C(C)=O)c2)CC1 (nonaromatic ring conformer: 69.47383001347413 kcal/mol)

>  <smiles>  (41) 
CCOCCN1CCCN(Cc2cccc(NC(C)=O)c2)CC1

>  <score_type>  (41) 
oracle

>  <origin>  (41) 
adg

>  <m_score__min__energy>  (41) 
-5.5099999999999998

>  <m_primary>  (41) 
energy

$$$$
41:0
     RDKit          3D

 37 39  0  0  0  0  0  0  0  0999 V2000
   56.2660   29.9330   43.4140 Br  0  0  0  0  0  0  0  0  0  0  0  0
   57.5430   30.6550   44.6470 C   0  0  0  0  0  0  0  0  0  0  0  0
   57.7390   32.0370   44.6630 C   0  0  0  0  0  0  0  0  0  0  0  0
   58.7080   32.6150   45.4880 C   0  0  0  0  0  0  0  0  0  0  0  0
   58.8890   34.5260   45.4340 Br  0  0  0  0  0  0  0  0  0  0  0  0
   59.5160   31.7940   46.3030 C   0  0  0  0  0  0  0  0  0  0  0  0
   60.5140   32.3320   47.1330 C   0  0  0  0  0  0  0  0  0  0  0  0
   61.2960   31.4830   47.9160 C   0  0  0  0  0  0  0  0  0  0  0  0
   61.0990   30.1400   47.8760 N   0  0  0  0  0  0  0  0  0  0  0  0
   60.1440   29.5800   47.0910 C   0  0  0  0  0  0  0  0  0  0  0  0
   59.3210   30.3880   46.2870 C   0  0  0  0  0  0  0  0  0  0  0  0
   58.3120   29.8240   45.4780 C   0  0  0  0  0  0  0  0  0  0  0  0
   58.0910   28.4400   45.4970 O   0  0  0  0  0  0  0  0  0  0  0  0
   58.7660   27.5450   44.6120 C   0  0  0  0  0  0  0  0  0  0  0  0
   57.7770   26.5590   43.9840 C   0  0  0  0  0  0  0  0  0  0  0  0
   57.7680   25.2900   44.7460 N   0  0  0  0  0  0  0  0  0  0  0  0
   56.5670   24.4670   44.4590 C   0  0  0  0  0  0  0  0  0  0  0  0
   55.4130   24.7430   45.4450 C   0  0  0  0  0  0  0  0  0  0  0  0
   55.5070   26.0500   45.9680 O   0  0  0  0  0  0  0  0  0  0  0  0
   56.6450   26.1580   46.8070 C   0  0  0  0  0  0  0  0  0  0  0  0
   57.9140   25.5150   46.1980 C   0  0  0  0  0  0  0  0  0  0  0  0
   57.1225   32.6799   44.0176 H   0  0  0  0  0  0  0  0  0  0  0  0
   60.6780   33.4192   47.1651 H   0  0  0  0  0  0  0  0  0  0  0  0
   62.0755   31.9030   48.5686 H   0  0  0  0  0  0  0  0  0  0  0  0
   60.0131   28.4878   47.0838 H   0  0  0  0  0  0  0  0  0  0  0  0
   59.2539   28.1248   43.8146 H   0  0  0  0  0  0  0  0  0  0  0  0
   59.5156   26.9789   45.1844 H   0  0  0  0  0  0  0  0  0  0  0  0
   56.7684   26.9979   43.9969 H   0  0  0  0  0  0  0  0  0  0  0  0
   58.0835   26.3536   42.9477 H   0  0  0  0  0  0  0  0  0  0  0  0
   56.2210   24.6912   43.4392 H   0  0  0  0  0  0  0  0  0  0  0  0
   56.8525   23.4101   44.5656 H   0  0  0  0  0  0  0  0  0  0  0  0
   54.4536   24.6328   44.9183 H   0  0  0  0  0  0  0  0  0  0  0  0
   55.4769   24.0240   46.2751 H   0  0  0  0  0  0  0  0  0  0  0  0
   56.8458   27.2242   46.9883 H   0  0  0  0  0  0  0  0  0  0  0  0
   56.4181   25.6165   47.7372 H   0  0  0  0  0  0  0  0  0  0  0  0
   58.7705   26.1832   46.3710 H   0  0  0  0  0  0  0  0  0  0  0  0
   58.0711   24.5400   46.6824 H   0  0  0  0  0  0  0  0  0  0  0  0
  1  2  1  0
  2  3  2  0
  3  4  1  0
  4  5  1  0
  4  6  2  0
  6  7  1  0
  7  8  2  0
  8  9  1  0
  9 10  2  0
 10 11  1  0
 11 12  2  0
 12 13  1  0
 13 14  1  0
 14 15  1  0
 15 16  1  0
 16 17  1  0
 17 18  1  0
 18 19  1  0
 19 20  1  0
 20 21  1  0
 12  2  1  0
 21 16  1  0
 11  6  1  0
  3 22  1  0
  7 23  1  0
  8 24  1  0
 10 25  1  0
 14 26  1  0
 14 27  1  0
 15 28  1  0
 15 29  1  0
 17 30  1  0
 17 31  1  0
 18 32  1  0
 18 33  1  0
 20 34  1  0
 20 35  1  0
 21 36  1  0
 21 37  1  0
M  END
>  <UniqueID>  (42) 
40

>  <SMILES>  (42) 
Brc1cc(Br)c2ccncc2c1OCCN1CCOCC1

>  <Energy>  (42) 
61.63487760883175

>  <Genealogy>  (42) 
Brc1cc(Br)c2ccncc2c1OCCN1CCOCC1 (3D coordinates assigned)
Brc1cc(Br)c2ccncc2c1OCCN1CCOCC1 (nonaromatic ring conformer: 61.63487760883175 kcal/mol)

>  <smiles>  (42) 
Brc1cc(Br)c2ccncc2c1OCCN1CCOCC1

>  <score_type>  (42) 
oracle

>  <origin>  (42) 
adg

>  <m_score__min__energy>  (42) 
-7.2699999999999996

>  <m_primary>  (42) 
energy

$$$$
42:0
     RDKit          3D

 36 38  0  0  0  0  0  0  0  0999 V2000
   67.6090   33.0900   50.1130 F   0  0  0  0  0  0  0  0  0  0  0  0
   67.2140   33.4880   51.3760 C   0  0  0  0  0  0  0  0  0  0  0  0
   67.3170   34.8620   51.4660 F   0  0  0  0  0  0  0  0  0  0  0  0
   65.8600   33.1050   51.6070 O   0  0  0  0  0  0  0  0  0  0  0  0
   64.8160   33.2660   50.6840 C   0  0  0  0  0  0  0  0  0  0  0  0
   64.7350   32.5220   49.4930 C   0  0  0  0  0  0  0  0  0  0  0  0
   63.6720   32.7220   48.6070 C   0  0  0  0  0  0  0  0  0  0  0  0
   62.6690   33.6640   48.8930 C   0  0  0  0  0  0  0  0  0  0  0  0
   61.5400   33.8750   47.9520 C   0  0  0  0  0  0  0  0  0  0  0  0
   61.7140   33.6750   46.5710 C   0  0  0  0  0  0  0  0  0  0  0  0
   60.6510   33.8760   45.6840 C   0  0  0  0  0  0  0  0  0  0  0  0
   59.3930   34.2680   46.1650 C   0  0  0  0  0  0  0  0  0  0  0  0
   58.2630   34.5260   45.2070 C   0  0  0  0  0  0  0  0  0  0  0  0
   57.7580   33.2610   44.6820 N   0  0  0  0  0  0  0  0  0  0  0  0
   58.0220   32.7230   43.4810 C   0  0  0  0  0  0  0  0  0  0  0  0
   57.4120   31.4890   43.4300 C   0  0  0  0  0  0  0  0  0  0  0  0
   56.7800   31.2480   44.5980 N   0  0  0  0  0  0  0  0  0  0  0  0
   57.0180   32.3490   45.3410 C   0  0  0  0  0  0  0  0  0  0  0  0
   59.2190   34.4840   47.5390 C   0  0  0  0  0  0  0  0  0  0  0  0
   60.2800   34.2840   48.4260 C   0  0  0  0  0  0  0  0  0  0  0  0
   62.7540   34.4030   50.0860 C   0  0  0  0  0  0  0  0  0  0  0  0
   63.8170   34.2040   50.9710 C   0  0  0  0  0  0  0  0  0  0  0  0
   67.8585   33.0083   52.1274 H   0  0  0  0  0  0  0  0  0  0  0  0
   65.5116   31.7794   49.2576 H   0  0  0  0  0  0  0  0  0  0  0  0
   63.6203   32.1365   47.6772 H   0  0  0  0  0  0  0  0  0  0  0  0
   62.6940   33.3579   46.1850 H   0  0  0  0  0  0  0  0  0  0  0  0
   60.8023   33.7260   44.6048 H   0  0  0  0  0  0  0  0  0  0  0  0
   57.4525   35.0524   45.7323 H   0  0  0  0  0  0  0  0  0  0  0  0
   58.6287   35.1437   44.3736 H   0  0  0  0  0  0  0  0  0  0  0  0
   58.6187   33.1849   42.6806 H   0  0  0  0  0  0  0  0  0  0  0  0
   57.4362   30.8047   42.5691 H   0  0  0  0  0  0  0  0  0  0  0  0
   56.6494   32.4860   46.3683 H   0  0  0  0  0  0  0  0  0  0  0  0
   58.2414   34.8129   47.9213 H   0  0  0  0  0  0  0  0  0  0  0  0
   60.1290   34.4476   49.5032 H   0  0  0  0  0  0  0  0  0  0  0  0
   61.9771   35.1442   50.3248 H   0  0  0  0  0  0  0  0  0  0  0  0
   63.8693   34.7892   51.9009 H   0  0  0  0  0  0  0  0  0  0  0  0
  1  2  1  0
  2  3  1  0
  2  4  1  0
  4  5  1  0
  5  6  2  0
  6  7  1  0
  7  8  2  0
  8  9  1  0
  9 10  2  0
 10 11  1  0
 11 12  2  0
 12 13  1  0
 13 14  1  0
 14 15  1  0
 15 16  2  0
 16 17  1  0
 17 18  2  0
 12 19  1  0
 19 20  2  0
  8 21  1  0
 21 22  2  0
 22  5  1  0
 20  9  1  0
 18 14  1  0
  2 23  1  0
  6 24  1  0
  7 25  1  0
 10 26  1  0
 11 27  1  0
 13 28  1  0
 13 29  1  0
 15 30  1  0
 16 31  1  0
 18 32  1  0
 19 33  1  0
 20 34  1  0
 21 35  1  0
 22 36  1  0
M  END
>  <UniqueID>  (43) 
41

>  <SMILES>  (43) 
FC(F)Oc1ccc(-c2ccc(Cn3ccnc3)cc2)cc1

>  <Energy>  (43) 
70.72039513779846

>  <Genealogy>  (43) 
FC(F)Oc1ccc(-c2ccc(Cn3ccnc3)cc2)cc1 (3D coordinates assigned)
FC(F)Oc1ccc(-c2ccc(Cn3ccnc3)cc2)cc1 (optimized conformer: 70.72039513779846 kcal/mol)

>  <smiles>  (43) 
FC(F)Oc1ccc(-c2ccc(Cn3ccnc3)cc2)cc1

>  <score_type>  (43) 
oracle

>  <origin>  (43) 
adg

>  <m_score__min__energy>  (43) 
-6.29

>  <m_primary>  (43) 
energy

$$$$
43:0
     RDKit          3D

 47 50  0  0  0  0  0  0  0  0999 V2000
   55.7410   24.1200   44.8330 C   0  0  0  0  0  0  0  0  0  0  0  0
   54.7970   24.9490   45.6360 C   0  0  0  0  0  0  0  0  0  0  0  0
   53.6850   24.4700   45.9860 O   0  0  0  0  0  0  0  0  0  0  0  0
   55.1460   26.2970   45.9640 N   0  0  0  0  0  0  0  0  0  0  0  0
   56.4690   26.7070   46.4310 C   0  0  0  0  0  0  0  0  0  0  0  0
   57.3850   27.1310   45.2580 C   0  0  1  0  0  0  0  0  0  0  0  0
   57.2500   28.6460   44.9600 C   0  0  0  0  0  0  0  0  0  0  0  0
   58.5170   29.4510   45.3110 C   0  0  1  0  0  0  0  0  0  0  0  0
   58.2350   30.9480   45.3950 C   0  0  0  0  0  0  0  0  0  0  0  0
   57.3850   31.6730   44.5280 C   0  0  0  0  0  0  0  0  0  0  0  0
   57.3160   33.0890   44.6170 C   0  0  0  0  0  0  0  0  0  0  0  0
   58.1220   33.7940   45.5410 C   0  0  0  0  0  0  0  0  0  0  0  0
   58.9660   33.0460   46.3640 C   0  0  0  0  0  0  0  0  0  0  0  0
   58.9960   31.6900   46.2740 C   0  0  0  0  0  0  0  0  0  0  0  0
   59.9550   31.2190   47.1070 C   0  0  0  0  0  0  0  0  0  0  0  0
   60.5300   32.3420   47.6960 C   0  0  0  0  0  0  0  0  0  0  0  0
   59.8960   33.4620   47.2510 N   0  0  0  0  0  0  0  0  0  0  0  0
   60.2610   34.8400   47.5610 C   0  0  0  0  0  0  0  0  0  0  0  0
   60.3460   29.7760   47.1290 C   0  0  0  0  0  0  0  0  0  0  0  0
   59.1520   28.8950   46.6400 C   0  0  2  0  0  0  0  0  0  0  0  0
   59.6040   27.4870   46.4720 N   0  0  0  0  0  0  0  0  0  0  0  0
   59.6820   26.7640   47.7550 C   0  0  0  0  0  0  0  0  0  0  0  0
   58.8660   26.7080   45.4450 C   0  0  0  0  0  0  0  0  0  0  0  0
   56.3928   23.5476   45.5094 H   0  0  0  0  0  0  0  0  0  0  0  0
   55.1707   23.4256   44.1986 H   0  0  0  0  0  0  0  0  0  0  0  0
   56.3560   24.7753   44.1986 H   0  0  0  0  0  0  0  0  0  0  0  0
   56.3560   27.5569   47.1201 H   0  0  0  0  0  0  0  0  0  0  0  0
   56.9351   25.8484   46.9365 H   0  0  0  0  0  0  0  0  0  0  0  0
   57.0309   26.5772   44.3760 H   0  0  0  0  0  0  0  0  0  0  0  0
   57.0409   28.7738   43.8876 H   0  0  0  0  0  0  0  0  0  0  0  0
   56.4343   29.0308   45.5897 H   0  0  0  0  0  0  0  0  0  0  0  0
   59.2472   29.3229   44.4983 H   0  0  0  0  0  0  0  0  0  0  0  0
   56.7761   31.1394   43.7833 H   0  0  0  0  0  0  0  0  0  0  0  0
   56.6287   33.6429   43.9606 H   0  0  0  0  0  0  0  0  0  0  0  0
   58.0852   34.8913   45.6087 H   0  0  0  0  0  0  0  0  0  0  0  0
   61.3666   32.3268   48.4100 H   0  0  0  0  0  0  0  0  0  0  0  0
   60.2963   34.9733   48.6523 H   0  0  0  0  0  0  0  0  0  0  0  0
   61.2492   35.0629   47.1322 H   0  0  0  0  0  0  0  0  0  0  0  0
   59.5128   35.5228   47.1322 H   0  0  0  0  0  0  0  0  0  0  0  0
   61.2093   29.6217   46.4650 H   0  0  0  0  0  0  0  0  0  0  0  0
   60.6119   29.4881   48.1568 H   0  0  0  0  0  0  0  0  0  0  0  0
   58.3624   28.9295   47.4051 H   0  0  0  0  0  0  0  0  0  0  0  0
   59.6046   27.4813   48.5854 H   0  0  0  0  0  0  0  0  0  0  0  0
   58.8568   26.0394   47.8183 H   0  0  0  0  0  0  0  0  0  0  0  0
   60.6427   26.2321   47.8183 H   0  0  0  0  0  0  0  0  0  0  0  0
   59.3831   26.8324   44.4821 H   0  0  0  0  0  0  0  0  0  0  0  0
   58.8518   25.6649   45.7939 H   0  0  0  0  0  0  0  0  0  0  0  0
  1  2  1  0
  2  3  2  0
  2  4  1  0
  4  5  1  0
  5  6  1  0
  6  7  1  0
  7  8  1  0
  8  9  1  0
  9 10  2  0
 10 11  1  0
 11 12  2  0
 12 13  1  0
 13 14  2  0
 14 15  1  0
 15 16  2  0
 16 17  1  0
 17 18  1  0
 15 19  1  0
 19 20  1  0
 20 21  1  0
 21 22  1  0
 21 23  1  0
 23  6  1  0
 20  8  1  0
 14  9  1  0
 17 13  1  0
  1 24  1  0
  1 25  1  0
  1 26  1  0
  5 27  1  0
  5 28  1  0
  6 29  1  6
  7 30  1  0
  7 31  1  0
  8 32  1  6
 10 33  1  0
 11 34  1  0
 12 35  1  0
 16 36  1  0
 18 37  1  0
 18 38  1  0
 18 39  1  0
 19 40  1  0
 19 41  1  0
 20 42  1  1
 22 43  1  0
 22 44  1  0
 22 45  1  0
 23 46  1  0
 23 47  1  0
M  CHG  1   4  -1
M  END
>  <UniqueID>  (44) 
42

>  <SMILES>  (44) 
CC(=O)[N-]C[C@H]1C[C@H]2c3cccc4c3c(cn4C)CC2N(C)C1

>  <Energy>  (44) 
99.14402912767079

>  <Genealogy>  (44) 
CC(=O)[N-]CC1CC2c3cccc4c3c(cn4C)CC2N(C)C1 (protonated)
CC(=O)[N-]C[C@H]1C[C@H]2c3cccc4c3c(cn4C)CC2N(C)C1 (chirality)
CC(=O)[N-]C[C@H]1C[C@H]2c3cccc4c3c(cn4C)CC2N(C)C1 (3D coordinates assigned)
CC(=O)[N-]C[C@H]1C[C@H]2c3cccc4c3c(cn4C)CC2N(C)C1 (nonaromatic ring conformer: 99.14402912767079 kcal/mol)

>  <smiles>  (44) 
CC(=O)NCC1CC2c3cccc4c3c(cn4C)CC2N(C)C1

>  <score_type>  (44) 
oracle

>  <origin>  (44) 
adg

>  <m_score__min__energy>  (44) 
-10.49

>  <m_primary>  (44) 
energy

$$$$
