0:0
     RDKit          3D

 41 42  0  0  1  0  0  0  0  0999 V2000
   61.5210   33.8400   48.7770 C   0  0  0  0  0  0  0  0  0  0  0  0
   60.3670   34.6110   48.5160 O   0  0  0  0  0  0  0  0  0  0  0  0
   59.3200   33.7270   48.3530 C   0  0  0  0  0  0  0  0  0  0  0  0
   59.0180   33.4310   46.9120 C   0  0  0  0  0  0  0  0  0  0  0  0
   59.4670   32.0820   46.4730 C   0  0  0  0  0  0  0  0  0  0  0  0
   58.6510   30.9890   46.9120 N   0  0  0  0  0  0  0  0  0  0  0  0
   58.2380   30.1640   46.0100 C   0  0  0  0  0  0  0  0  0  0  0  0
   57.1550   30.4270   45.2520 N   0  0  0  0  0  0  0  0  0  0  0  0
   56.7180   29.5620   44.3040 C   0  0  0  0  0  0  0  0  0  0  0  0
   55.5220   29.8520   43.4680 C   0  0  0  0  0  0  0  0  0  0  0  0
   57.3690   28.4000   44.0960 N   0  0  0  0  0  0  0  0  0  0  0  0
   58.4600   28.0740   44.8200 C   0  0  0  0  0  0  0  0  0  0  0  0
   58.9040   28.9640   45.7890 C   0  0  0  0  0  0  0  0  0  0  0  0
   60.0860   28.6290   46.5860 C   0  0  0  0  0  0  0  0  0  0  0  0
   59.4800   34.5470   46.0170 C   0  0  0  0  0  0  0  0  0  0  0  0
   58.4940   34.6100   44.8720 C   0  0  0  0  0  0  0  0  0  0  0  0
   57.2680   33.8520   45.3100 C   0  0  0  0  0  0  0  0  0  0  0  0
   57.4990   33.4530   46.7510 C   0  0  0  0  0  0  0  0  0  0  0  0
   61.6612   33.7463   49.8640 H   0  0  0  0  0  0  0  0  0  0  0  0
   61.4014   32.8398   48.3352 H   0  0  0  0  0  0  0  0  0  0  0  0
   62.3993   34.3334   48.3352 H   0  0  0  0  0  0  0  0  0  0  0  0
   59.5762   32.7839   48.8579 H   0  0  0  0  0  0  0  0  0  0  0  0
   58.4242   34.1959   48.7863 H   0  0  0  0  0  0  0  0  0  0  0  0
   59.4849   32.0717   45.3732 H   0  0  0  0  0  0  0  0  0  0  0  0
   60.4541   31.9268   46.9330 H   0  0  0  0  0  0  0  0  0  0  0  0
   54.6609   30.0608   44.1198 H   0  0  0  0  0  0  0  0  0  0  0  0
   55.7221   30.7277   42.8330 H   0  0  0  0  0  0  0  0  0  0  0  0
   55.2988   28.9820   42.8330 H   0  0  0  0  0  0  0  0  0  0  0  0
   57.0660   27.7020   43.3740 H   0  0  0  0  0  0  0  0  0  0  0  0
   58.9863   27.1238   44.6464 H   0  0  0  0  0  0  0  0  0  0  0  0
   59.8389   28.6990   47.6556 H   0  0  0  0  0  0  0  0  0  0  0  0
   60.4086   27.6041   46.3505 H   0  0  0  0  0  0  0  0  0  0  0  0
   60.8984   29.3323   46.3505 H   0  0  0  0  0  0  0  0  0  0  0  0
   59.4853   35.4992   46.5677 H   0  0  0  0  0  0  0  0  0  0  0  0
   60.5031   34.3702   45.6538 H   0  0  0  0  0  0  0  0  0  0  0  0
   58.2341   35.6563   44.6534 H   0  0  0  0  0  0  0  0  0  0  0  0
   58.9225   34.1727   43.9581 H   0  0  0  0  0  0  0  0  0  0  0  0
   56.3773   34.4928   45.2316 H   0  0  0  0  0  0  0  0  0  0  0  0
   57.0996   32.9691   44.6758 H   0  0  0  0  0  0  0  0  0  0  0  0
   57.0477   34.1881   47.4336 H   0  0  0  0  0  0  0  0  0  0  0  0
   57.0423   32.4815   46.9908 H   0  0  0  0  0  0  0  0  0  0  0  0
  1  2  1  0
  2  3  1  0
  3  4  1  0
  4  5  1  0
  5  6  1  0
  6  7  2  0
  7  8  1  0
  8  9  2  0
  9 10  1  0
  9 11  1  0
 11 12  1  0
 12 13  2  0
 13 14  1  0
  4 15  1  0
 15 16  1  0
 16 17  1  0
 17 18  1  0
 18  4  1  0
 13  7  1  0
  1 19  1  0
  1 20  1  0
  1 21  1  0
  3 22  1  0
  3 23  1  0
  5 24  1  0
  5 25  1  0
 10 26  1  0
 10 27  1  0
 10 28  1  0
 11 29  1  0
 12 30  1  0
 14 31  1  0
 14 32  1  0
 14 33  1  0
 15 34  1  0
 15 35  1  0
 16 36  1  0
 16 37  1  0
 17 38  1  0
 17 39  1  0
 18 40  1  0
 18 41  1  0
M  END
>  <smiles>  (1) 
COCC1(CN=c2nc(C)[nH]cc2C)CCCC1

>  <score_type>  (1) 
oracle

>  <origin>  (1) 
adg

>  <m_score__min__energy>  (1) 
-6.7000000000000002

>  <m_primary>  (1) 
energy

$$$$
1:0
     RDKit          3D

 42 44  0  0  0  0  0  0  0  0999 V2000
   56.2714   24.4125   48.2079 H   0  0  0  0  0  0  0  0  0  0  0  0
   56.8550   24.6160   47.2980 C   0  0  0  0  0  0  0  0  0  0  0  0
   57.4690   23.6180   46.7260 N   0  0  0  0  0  0  0  0  0  0  0  0
   57.1900   23.0810   45.4230 C   0  0  0  0  0  0  0  0  0  0  0  0
   55.9410   23.3540   44.8460 C   0  0  0  0  0  0  0  0  0  0  0  0
   55.2139   23.9758   45.3888 H   0  0  0  0  0  0  0  0  0  0  0  0
   55.6130   22.8440   43.5900 C   0  0  0  0  0  0  0  0  0  0  0  0
   54.6238   23.0492   43.1549 H   0  0  0  0  0  0  0  0  0  0  0  0
   56.5380   22.0740   42.8850 C   0  0  0  0  0  0  0  0  0  0  0  0
   56.2711   21.6578   41.9024 H   0  0  0  0  0  0  0  0  0  0  0  0
   57.8020   21.8310   43.4250 C   0  0  0  0  0  0  0  0  0  0  0  0
   58.5282   21.2262   42.8621 H   0  0  0  0  0  0  0  0  0  0  0  0
   58.1550   22.3520   44.6810 C   0  0  0  0  0  0  0  0  0  0  0  0
   59.5520   22.1170   45.1880 C   0  0  0  0  0  0  0  0  0  0  0  0
   59.5478   22.1177   46.2880 H   0  0  0  0  0  0  0  0  0  0  0  0
   59.9158   21.1450   44.8233 H   0  0  0  0  0  0  0  0  0  0  0  0
   60.2137   22.9164   44.8233 H   0  0  0  0  0  0  0  0  0  0  0  0
   56.8980   26.0090   46.7930 C   0  0  0  0  0  0  0  0  0  0  0  0
   55.8670   26.5390   46.0070 C   0  0  0  0  0  0  0  0  0  0  0  0
   54.7810   25.7530   45.6350 O   0  0  0  0  0  0  0  0  0  0  0  0
   55.9360   27.8240   45.5760 N   0  0  0  0  0  0  0  0  0  0  0  0
   55.1530   28.2090   45.0010 H   0  0  0  0  0  0  0  0  0  0  0  0
   57.0080   28.6080   45.8610 C   0  0  0  0  0  0  0  0  0  0  0  0
   57.0360   29.7940   45.4300 O   0  0  0  0  0  0  0  0  0  0  0  0
   58.0550   28.1100   46.5920 N   0  0  0  0  0  0  0  0  0  0  0  0
   59.1930   28.9460   46.8860 C   0  0  0  0  0  0  0  0  0  0  0  0
   60.1190   29.2600   45.8810 C   0  0  0  0  0  0  0  0  0  0  0  0
   59.9781   28.8643   44.8643 H   0  0  0  0  0  0  0  0  0  0  0  0
   61.2200   30.0730   46.1640 C   0  0  0  0  0  0  0  0  0  0  0  0
   61.9420   30.3135   45.3697 H   0  0  0  0  0  0  0  0  0  0  0  0
   61.4090   30.5860   47.4630 C   0  0  0  0  0  0  0  0  0  0  0  0
   62.4960   31.4070   47.7960 O   0  0  0  0  0  0  0  0  0  0  0  0
   62.7920   32.6470   47.1620 C   0  0  0  0  0  0  0  0  0  0  0  0
   62.9755   33.4155   47.9273 H   0  0  0  0  0  0  0  0  0  0  0  0
   63.6882   32.5332   46.5344 H   0  0  0  0  0  0  0  0  0  0  0  0
   61.9410   32.9503   46.5344 H   0  0  0  0  0  0  0  0  0  0  0  0
   60.4810   30.2720   48.4620 C   0  0  0  0  0  0  0  0  0  0  0  0
   60.6188   30.6689   49.4786 H   0  0  0  0  0  0  0  0  0  0  0  0
   59.3800   29.4580   48.1790 C   0  0  0  0  0  0  0  0  0  0  0  0
   58.6576   29.2180   48.9731 H   0  0  0  0  0  0  0  0  0  0  0  0
   58.0160   26.8180   47.0500 C   0  0  0  0  0  0  0  0  0  0  0  0
   58.9750   26.3560   47.7330 O   0  0  0  0  0  0  0  0  0  0  0  0
  1  2  1  0
  2  3  2  0
  3  4  1  0
  4  5  2  0
  5  6  1  0
  5  7  1  0
  7  8  1  0
  7  9  2  0
  9 10  1  0
  9 11  1  0
 11 12  1  0
 11 13  2  0
 13 14  1  0
 14 15  1  0
 14 16  1  0
 14 17  1  0
  2 18  1  0
 18 19  2  0
 19 20  1  0
 19 21  1  0
 21 22  1  0
 21 23  1  0
 23 24  2  0
 23 25  1  0
 25 26  1  0
 26 27  2  0
 27 28  1  0
 27 29  1  0
 29 30  1  0
 29 31  2  0
 31 32  1  0
 32 33  1  0
 33 34  1  0
 33 35  1  0
 33 36  1  0
 31 37  1  0
 37 38  1  0
 37 39  2  0
 39 40  1  0
 25 41  1  0
 41 42  2  0
 13  4  1  0
 41 18  1  0
 39 26  1  0
M  CHG  1  20  -1
M  END
>  <UniqueID>  (2) 
1

>  <SMILES>  (2) 
COc1ccc(-n2c(=O)[nH]c([O-])c(/C=N\c3ccccc3C)c2=O)cc1

>  <Energy>  (2) 
69.79271715003887

>  <Genealogy>  (2) 
COc1ccc(-n2c(=O)[nH]c([O-])c(C=Nc3ccccc3C)c2=O)cc1 (protonated)
COc1ccc(-n2c(=O)[nH]c([O-])c(/C=N\c3ccccc3C)c2=O)cc1 (cis-trans isomerization)
COc1ccc(-n2c(=O)[nH]c([O-])c(/C=N\c3ccccc3C)c2=O)cc1 (3D coordinates assigned)
COc1ccc(-n2c(=O)[nH]c([O-])c(/C=N\c3ccccc3C)c2=O)cc1 (optimized conformer: 69.79271715003887 kcal/mol)

>  <smiles>  (2) 
COc1ccc(-n2c(=O)[nH]c(O)c(C=Nc3ccccc3C)c2=O)cc1

>  <score_type>  (2) 
oracle

>  <origin>  (2) 
adg

>  <m_score__min__energy>  (2) 
-9.3300000000000001

>  <m_primary>  (2) 
energy

$$$$
2:0
     RDKit          3D

 28 30  0  0  0  0  0  0  0  0999 V2000
   59.0740   31.3190   48.7380 C   0  0  0  0  0  0  0  0  0  0  0  0
   58.1840   32.1350   47.9840 O   0  0  0  0  0  0  0  0  0  0  0  0
   58.5860   33.0880   47.0340 C   0  0  0  0  0  0  0  0  0  0  0  0
   59.2340   34.2820   47.4080 C   0  0  0  0  0  0  0  0  0  0  0  0
   59.5750   35.2330   46.4410 C   0  0  0  0  0  0  0  0  0  0  0  0
   59.2690   35.0080   45.0990 C   0  0  0  0  0  0  0  0  0  0  0  0
   58.6340   33.8260   44.7160 C   0  0  0  0  0  0  0  0  0  0  0  0
   58.3090   32.8520   45.6720 C   0  0  0  0  0  0  0  0  0  0  0  0
   57.6610   31.6430   45.2500 N   0  0  0  0  0  0  0  0  0  0  0  0
   56.3900   31.5690   44.8650 N   0  0  0  0  0  0  0  0  0  0  0  0
   56.0700   30.3300   44.4970 N   0  0  0  0  0  0  0  0  0  0  0  0
   57.1930   29.6030   44.6520 C   0  0  0  0  0  0  0  0  0  0  0  0
   57.4050   28.2580   44.3670 C   0  0  0  0  0  0  0  0  0  0  0  0
   58.7050   27.7510   44.5620 C   0  0  0  0  0  0  0  0  0  0  0  0
   59.7440   28.5980   45.0190 C   0  0  0  0  0  0  0  0  0  0  0  0
   59.4920   29.9570   45.2920 C   0  0  0  0  0  0  0  0  0  0  0  0
   58.1850   30.4130   45.1120 C   0  0  0  0  0  0  0  0  0  0  0  0
   58.8984   31.4800   49.8119 H   0  0  0  0  0  0  0  0  0  0  0  0
   58.8987   30.2612   48.4924 H   0  0  0  0  0  0  0  0  0  0  0  0
   60.1127   31.5852   48.4924 H   0  0  0  0  0  0  0  0  0  0  0  0
   59.4728   34.4670   48.4657 H   0  0  0  0  0  0  0  0  0  0  0  0
   60.0856   36.1605   46.7395 H   0  0  0  0  0  0  0  0  0  0  0  0
   59.5284   35.7628   44.3420 H   0  0  0  0  0  0  0  0  0  0  0  0
   58.3866   33.6568   43.6576 H   0  0  0  0  0  0  0  0  0  0  0  0
   56.5895   27.6154   44.0036 H   0  0  0  0  0  0  0  0  0  0  0  0
   58.9143   26.6905   44.3580 H   0  0  0  0  0  0  0  0  0  0  0  0
   60.7561   28.1915   45.1620 H   0  0  0  0  0  0  0  0  0  0  0  0
   60.2919   30.6307   45.6328 H   0  0  0  0  0  0  0  0  0  0  0  0
  1  2  1  0
  2  3  1  0
  3  4  2  0
  4  5  1  0
  5  6  2  0
  6  7  1  0
  7  8  2  0
  8  9  1  0
  9 10  1  0
 10 11  2  0
 11 12  1  0
 12 13  2  0
 13 14  1  0
 14 15  2  0
 15 16  1  0
 16 17  2  0
  8  3  1  0
 17  9  1  0
 17 12  1  0
  1 18  1  0
  1 19  1  0
  1 20  1  0
  4 21  1  0
  5 22  1  0
  6 23  1  0
  7 24  1  0
 13 25  1  0
 14 26  1  0
 15 27  1  0
 16 28  1  0
M  END
>  <UniqueID>  (3) 
2

>  <SMILES>  (3) 
COc1ccccc1-n1nnc2ccccc21

>  <Energy>  (3) 
80.70132916747481

>  <Genealogy>  (3) 
COc1ccccc1-n1nnc2ccccc21 (3D coordinates assigned)
COc1ccccc1-n1nnc2ccccc21 (optimized conformer: 80.70132916747481 kcal/mol)

>  <smiles>  (3) 
COc1ccccc1-n1nnc2ccccc21

>  <score_type>  (3) 
oracle

>  <origin>  (3) 
adg

>  <m_score__min__energy>  (3) 
-7.0999999999999996

>  <m_primary>  (3) 
energy

$$$$
3:0
     RDKit          3D

 44 46  0  0  0  0  0  0  0  0999 V2000
   57.1930   29.9570   45.0580 C   0  0  0  0  0  0  0  0  0  0  0  0
   58.9250   30.5120   45.0150 S   0  0  0  0  0  0  0  0  0  0  0  0
   59.4570   29.3370   46.2670 C   0  0  0  0  0  0  0  0  0  0  0  0
   59.3150   27.9650   46.0260 C   0  0  0  0  0  0  0  0  0  0  0  0
   59.7110   27.0390   46.9940 C   0  0  0  0  0  0  0  0  0  0  0  0
   60.2420   27.4790   48.2080 C   0  0  0  0  0  0  0  0  0  0  0  0
   60.3850   28.8470   48.4550 C   0  0  0  0  0  0  0  0  0  0  0  0
   60.0080   29.7880   47.4780 C   0  0  0  0  0  0  0  0  0  0  0  0
   60.1240   31.1670   47.7010 O   0  0  0  0  0  0  0  0  0  0  0  0
   61.3170   31.9010   47.6480 C   0  0  0  0  0  0  0  0  0  0  0  0
   62.4860   31.3700   48.1190 N   0  0  0  0  0  0  0  0  0  0  0  0
   63.6610   32.0500   48.0410 C   0  0  0  0  0  0  0  0  0  0  0  0
   63.7030   33.3150   47.4600 C   0  0  0  0  0  0  0  0  0  0  0  0
   62.5300   33.8760   46.9560 C   0  0  0  0  0  0  0  0  0  0  0  0
   61.3200   33.1730   47.0460 C   0  0  0  0  0  0  0  0  0  0  0  0
   60.0690   33.7750   46.5230 C   0  0  0  0  0  0  0  0  0  0  0  0
   59.9950   34.1430   45.2300 C   0  0  0  0  0  0  0  0  0  0  0  0
   58.7880   33.8470   44.3800 C   0  0  0  0  0  0  0  0  0  0  0  0
   57.4780   34.4340   44.9500 C   0  0  0  0  0  0  0  0  0  0  0  0
   56.7570   33.5640   45.9980 C   0  0  0  0  0  0  0  0  0  0  0  0
   57.6590   33.0990   47.1560 C   0  0  0  0  0  0  0  0  0  0  0  0
   58.8890   33.9890   47.4540 C   0  0  0  0  0  0  0  0  0  0  0  0
   56.8673   29.8526   46.1035 H   0  0  0  0  0  0  0  0  0  0  0  0
   56.5582   30.6967   44.5483 H   0  0  0  0  0  0  0  0  0  0  0  0
   57.1063   28.9861   44.5483 H   0  0  0  0  0  0  0  0  0  0  0  0
   58.8910   27.6158   45.0730 H   0  0  0  0  0  0  0  0  0  0  0  0
   59.6043   25.9616   46.7995 H   0  0  0  0  0  0  0  0  0  0  0  0
   60.5481   26.7480   48.9709 H   0  0  0  0  0  0  0  0  0  0  0  0
   60.7938   29.1901   49.4169 H   0  0  0  0  0  0  0  0  0  0  0  0
   62.5000   30.4060   48.5200 H   0  0  0  0  0  0  0  0  0  0  0  0
   64.5822   31.5990   48.4385 H   0  0  0  0  0  0  0  0  0  0  0  0
   64.6528   33.8666   47.3992 H   0  0  0  0  0  0  0  0  0  0  0  0
   62.5539   34.8709   46.4874 H   0  0  0  0  0  0  0  0  0  0  0  0
   60.8444   34.6776   44.7797 H   0  0  0  0  0  0  0  0  0  0  0  0
   58.9538   34.2716   43.3789 H   0  0  0  0  0  0  0  0  0  0  0  0
   58.6696   32.7537   44.3533 H   0  0  0  0  0  0  0  0  0  0  0  0
   57.7163   35.4001   45.4188 H   0  0  0  0  0  0  0  0  0  0  0  0
   56.7874   34.5107   44.0972 H   0  0  0  0  0  0  0  0  0  0  0  0
   55.9265   34.1488   46.4202 H   0  0  0  0  0  0  0  0  0  0  0  0
   56.4159   32.6570   45.4773 H   0  0  0  0  0  0  0  0  0  0  0  0
   57.0438   33.0584   48.0670 H   0  0  0  0  0  0  0  0  0  0  0  0
   58.0648   32.1251   46.8446 H   0  0  0  0  0  0  0  0  0  0  0  0
   58.5774   35.0410   47.3756 H   0  0  0  0  0  0  0  0  0  0  0  0
   59.2346   33.7132   48.4612 H   0  0  0  0  0  0  0  0  0  0  0  0
  1  2  1  0
  2  3  1  0
  3  4  2  0
  4  5  1  0
  5  6  2  0
  6  7  1  0
  7  8  2  0
  8  9  1  0
  9 10  1  0
 10 11  2  0
 11 12  1  0
 12 13  2  0
 13 14  1  0
 14 15  2  0
 15 16  1  0
 16 17  2  0
 17 18  1  0
 18 19  1  0
 19 20  1  0
 20 21  1  0
 21 22  1  0
  8  3  1  0
 15 10  1  0
 22 16  1  0
  1 23  1  0
  1 24  1  0
  1 25  1  0
  4 26  1  0
  5 27  1  0
  6 28  1  0
  7 29  1  0
 11 30  1  0
 12 31  1  0
 13 32  1  0
 14 33  1  0
 17 34  1  0
 18 35  1  0
 18 36  1  0
 19 37  1  0
 19 38  1  0
 20 39  1  0
 20 40  1  0
 21 41  1  0
 21 42  1  0
 22 43  1  0
 22 44  1  0
M  CHG  1  11   1
M  END
>  <UniqueID>  (4) 
3

>  <SMILES>  (4) 
CSc1ccccc1Oc1[nH+]cccc1C1=CCCCCC1

>  <Energy>  (4) 
54.86783706040626

>  <Genealogy>  (4) 
CSc1ccccc1Oc1[nH+]cccc1C1=CCCCCC1 (protonated)
CSc1ccccc1Oc1[nH+]cccc1C1=CCCCCC1 (3D coordinates assigned)
CSc1ccccc1Oc1[nH+]cccc1C1=CCCCCC1 (nonaromatic ring conformer: 54.86783706040626 kcal/mol)

>  <smiles>  (4) 
CSc1ccccc1Oc1ncccc1C1=CCCCCC1

>  <score_type>  (4) 
oracle

>  <origin>  (4) 
adg

>  <m_score__min__energy>  (4) 
-4.3600000000000003

>  <m_primary>  (4) 
energy

$$$$
4:0
     RDKit          3D

 41 43  0  0  0  0  0  0  0  0999 V2000
   57.2380   25.1760   47.4840 C   0  0  0  0  0  0  0  0  0  0  0  0
   57.6190   26.4100   46.7720 N   0  0  0  0  0  0  0  0  0  0  0  0
   56.6810   27.0940   46.0480 C   0  0  0  0  0  0  0  0  0  0  0  0
   55.4950   26.6630   45.9820 O   0  0  0  0  0  0  0  0  0  0  0  0
   57.0300   28.2710   45.3760 C   0  0  0  0  0  0  0  0  0  0  0  0
   56.0850   28.9690   44.5970 C   0  0  0  0  0  0  0  0  0  0  0  0
   56.4480   30.1320   43.9230 C   0  0  0  0  0  0  0  0  0  0  0  0
   57.7510   30.6120   44.0130 C   0  0  0  0  0  0  0  0  0  0  0  0
   58.6980   29.9360   44.7820 C   0  0  0  0  0  0  0  0  0  0  0  0
   58.3570   28.7510   45.4860 C   0  0  0  0  0  0  0  0  0  0  0  0
   59.2690   28.0680   46.2650 N   0  0  0  0  0  0  0  0  0  0  0  0
   60.6630   28.5530   46.4210 C   0  0  0  0  0  0  0  0  0  0  0  0
   60.6890   29.9610   46.9420 C   0  0  0  0  0  0  0  0  0  0  0  0
   61.7080   30.6770   46.7420 O   0  0  0  0  0  0  0  0  0  0  0  0
   59.5530   30.4990   47.6360 N   0  0  0  0  0  0  0  0  0  0  0  0
   59.5290   31.8600   48.1660 C   0  0  0  0  0  0  0  0  0  0  0  0
   59.1180   32.8360   47.0900 C   0  0  0  0  0  0  0  0  0  0  0  0
   57.7740   32.8520   46.6770 C   0  0  0  0  0  0  0  0  0  0  0  0
   57.3470   33.7260   45.6760 C   0  0  0  0  0  0  0  0  0  0  0  0
   58.2550   34.5980   45.0750 C   0  0  0  0  0  0  0  0  0  0  0  0
   59.5940   34.5970   45.4740 C   0  0  0  0  0  0  0  0  0  0  0  0
   60.0350   33.7240   46.4770 C   0  0  0  0  0  0  0  0  0  0  0  0
   61.7350   33.7850   46.9300 Cl  0  0  0  0  0  0  0  0  0  0  0  0
   58.8910   26.9060   46.9010 C   0  0  0  0  0  0  0  0  0  0  0  0
   59.7260   26.2800   47.6160 O   0  0  0  0  0  0  0  0  0  0  0  0
   57.2910   25.3476   48.5692 H   0  0  0  0  0  0  0  0  0  0  0  0
   56.2112   24.8949   47.2069 H   0  0  0  0  0  0  0  0  0  0  0  0
   57.9276   24.3650   47.2069 H   0  0  0  0  0  0  0  0  0  0  0  0
   55.0542   28.5925   44.5211 H   0  0  0  0  0  0  0  0  0  0  0  0
   55.7040   30.6719   43.3188 H   0  0  0  0  0  0  0  0  0  0  0  0
   58.0353   31.5285   43.4753 H   0  0  0  0  0  0  0  0  0  0  0  0
   59.7244   30.3267   44.8441 H   0  0  0  0  0  0  0  0  0  0  0  0
   61.1944   27.8984   47.1275 H   0  0  0  0  0  0  0  0  0  0  0  0
   61.1520   28.5353   45.4358 H   0  0  0  0  0  0  0  0  0  0  0  0
   58.7100   29.8990   47.7780 H   0  0  0  0  0  0  0  0  0  0  0  0
   58.8103   31.9128   48.9971 H   0  0  0  0  0  0  0  0  0  0  0  0
   60.5365   32.1229   48.5206 H   0  0  0  0  0  0  0  0  0  0  0  0
   57.0517   32.1687   47.1476 H   0  0  0  0  0  0  0  0  0  0  0  0
   56.2932   33.7272   45.3606 H   0  0  0  0  0  0  0  0  0  0  0  0
   57.9167   35.2866   44.2867 H   0  0  0  0  0  0  0  0  0  0  0  0
   60.3066   35.2862   44.9974 H   0  0  0  0  0  0  0  0  0  0  0  0
  1  2  1  0
  2  3  1  0
  3  4  2  0
  3  5  1  0
  5  6  2  0
  6  7  1  0
  7  8  2  0
  8  9  1  0
  9 10  2  0
 10 11  1  0
 11 12  1  0
 12 13  1  0
 13 14  2  0
 13 15  1  0
 15 16  1  0
 16 17  1  0
 17 18  2  0
 18 19  1  0
 19 20  2  0
 20 21  1  0
 21 22  2  0
 22 23  1  0
 11 24  1  0
 24 25  2  0
 24  2  1  0
 10  5  1  0
 22 17  1  0
  1 26  1  0
  1 27  1  0
  1 28  1  0
  6 29  1  0
  7 30  1  0
  8 31  1  0
  9 32  1  0
 12 33  1  0
 12 34  1  0
 15 35  1  0
 16 36  1  0
 16 37  1  0
 18 38  1  0
 19 39  1  0
 20 40  1  0
 21 41  1  0
M  END
>  <UniqueID>  (5) 
4

>  <SMILES>  (5) 
Cn1c(=O)c2ccccc2n(CC(=O)NCc2ccccc2Cl)c1=O

>  <Energy>  (5) 
57.29074666877661

>  <Genealogy>  (5) 
Cn1c(=O)c2ccccc2n(CC(=O)NCc2ccccc2Cl)c1=O (3D coordinates assigned)
Cn1c(=O)c2ccccc2n(CC(=O)NCc2ccccc2Cl)c1=O (optimized conformer: 57.29074666877661 kcal/mol)

>  <smiles>  (5) 
Cn1c(=O)c2ccccc2n(CC(=O)NCc2ccccc2Cl)c1=O

>  <score_type>  (5) 
oracle

>  <origin>  (5) 
adg

>  <m_score__min__energy>  (5) 
-7.75

>  <m_primary>  (5) 
energy

$$$$
5:0
     RDKit          3D

 38 40  0  0  0  0  0  0  0  0999 V2000
   57.9130   32.3230   41.7620 C   0  0  0  0  0  0  0  0  0  0  0  0
   57.9790   32.5280   43.2460 C   0  0  0  0  0  0  0  0  0  0  0  0
   58.7280   33.5630   43.7180 N   0  0  0  0  0  0  0  0  0  0  0  0
   58.8480   33.8330   45.0430 C   0  0  0  0  0  0  0  0  0  0  0  0
   59.6330   34.9080   45.4750 C   0  0  0  0  0  0  0  0  0  0  0  0
   59.7540   35.1810   46.8400 C   0  0  0  0  0  0  0  0  0  0  0  0
   59.0930   34.3820   47.7790 C   0  0  0  0  0  0  0  0  0  0  0  0
   58.3050   33.3060   47.3560 C   0  0  0  0  0  0  0  0  0  0  0  0
   58.1780   33.0260   45.9860 C   0  0  0  0  0  0  0  0  0  0  0  0
   57.3990   31.9580   45.5320 C   0  0  0  0  0  0  0  0  0  0  0  0
   57.2880   31.6930   44.1570 C   0  0  0  0  0  0  0  0  0  0  0  0
   56.4520   30.5090   43.7190 C   0  0  0  0  0  0  0  0  0  0  0  0
   55.8110   29.8720   44.8770 N   0  0  0  0  0  0  0  0  0  0  0  0
   56.4340   28.5780   45.1860 C   0  0  0  0  0  0  0  0  0  0  0  0
   57.8990   28.7780   45.4600 C   0  0  0  0  0  0  0  0  0  0  0  0
   58.8540   28.4900   44.4710 C   0  0  0  0  0  0  0  0  0  0  0  0
   60.2160   28.6450   44.7430 C   0  0  0  0  0  0  0  0  0  0  0  0
   60.6350   29.0760   46.0050 C   0  0  0  0  0  0  0  0  0  0  0  0
   59.6910   29.3490   46.9990 C   0  0  0  0  0  0  0  0  0  0  0  0
   60.0980   29.7570   48.2260 F   0  0  0  0  0  0  0  0  0  0  0  0
   58.3270   29.1950   46.7310 C   0  0  0  0  0  0  0  0  0  0  0  0
   57.5823   31.2959   41.5481 H   0  0  0  0  0  0  0  0  0  0  0  0
   57.1992   33.0366   41.3247 H   0  0  0  0  0  0  0  0  0  0  0  0
   58.9091   32.4861   41.3247 H   0  0  0  0  0  0  0  0  0  0  0  0
   60.1549   35.5382   44.7398 H   0  0  0  0  0  0  0  0  0  0  0  0
   60.3710   36.0269   47.1773 H   0  0  0  0  0  0  0  0  0  0  0  0
   59.1930   34.6002   48.8525 H   0  0  0  0  0  0  0  0  0  0  0  0
   57.7854   32.6799   48.0962 H   0  0  0  0  0  0  0  0  0  0  0  0
   56.8696   31.3211   46.2559 H   0  0  0  0  0  0  0  0  0  0  0  0
   55.6755   30.8535   43.0201 H   0  0  0  0  0  0  0  0  0  0  0  0
   57.1073   29.7745   43.2279 H   0  0  0  0  0  0  0  0  0  0  0  0
   54.8110   29.6910   44.6220 H   0  0  0  0  0  0  0  0  0  0  0  0
   55.9516   28.1416   46.0730 H   0  0  0  0  0  0  0  0  0  0  0  0
   56.3112   27.8988   44.3295 H   0  0  0  0  0  0  0  0  0  0  0  0
   58.5289   28.1415   43.4796 H   0  0  0  0  0  0  0  0  0  0  0  0
   60.9598   28.4274   43.9624 H   0  0  0  0  0  0  0  0  0  0  0  0
   61.7074   29.2003   46.2158 H   0  0  0  0  0  0  0  0  0  0  0  0
   57.5870   29.4012   47.5183 H   0  0  0  0  0  0  0  0  0  0  0  0
  1  2  1  0
  2  3  2  0
  3  4  1  0
  4  5  2  0
  5  6  1  0
  6  7  2  0
  7  8  1  0
  8  9  2  0
  9 10  1  0
 10 11  2  0
 11 12  1  0
 12 13  1  0
 13 14  1  0
 14 15  1  0
 15 16  2  0
 16 17  1  0
 17 18  2  0
 18 19  1  0
 19 20  1  0
 19 21  2  0
 11  2  1  0
 21 15  1  0
  9  4  1  0
  1 22  1  0
  1 23  1  0
  1 24  1  0
  5 25  1  0
  6 26  1  0
  7 27  1  0
  8 28  1  0
 10 29  1  0
 12 30  1  0
 12 31  1  0
 13 32  1  0
 14 33  1  0
 14 34  1  0
 16 35  1  0
 17 36  1  0
 18 37  1  0
 21 38  1  0
M  END
>  <UniqueID>  (6) 
5

>  <SMILES>  (6) 
Cc1nc2ccccc2cc1CNCc1cccc(F)c1

>  <Energy>  (6) 
42.12893052681614

>  <Genealogy>  (6) 
Cc1nc2ccccc2cc1CNCc1cccc(F)c1 (3D coordinates assigned)
Cc1nc2ccccc2cc1CNCc1cccc(F)c1 (optimized conformer: 42.12893052681614 kcal/mol)

>  <smiles>  (6) 
Cc1nc2ccccc2cc1CNCc1cccc(F)c1

>  <score_type>  (6) 
oracle

>  <origin>  (6) 
adg

>  <m_score__min__energy>  (6) 
-7.71

>  <m_primary>  (6) 
energy

$$$$
6:0
     RDKit          3D

 34 35  0  0  0  0  0  0  0  0999 V2000
   57.9920   26.5320   45.7900 C   0  0  0  0  0  0  0  0  0  0  0  0
   56.5320   26.8630   45.8380 C   0  0  0  0  0  0  0  0  0  0  0  0
   55.7410   26.0510   46.3860 O   0  0  0  0  0  0  0  0  0  0  0  0
   56.0010   28.0550   45.2440 N   0  0  0  0  0  0  0  0  0  0  0  0
   56.6230   29.3480   45.2140 C   0  0  0  0  0  0  0  0  0  0  0  0
   57.6750   29.6810   46.0830 C   0  0  0  0  0  0  0  0  0  0  0  0
   58.2390   30.9600   46.0480 C   0  0  0  0  0  0  0  0  0  0  0  0
   57.7510   31.9220   45.1540 C   0  0  0  0  0  0  0  0  0  0  0  0
   58.4420   33.5390   45.1290 S   0  0  0  0  0  0  0  0  0  0  0  0
   57.3480   34.5660   45.2260 O   0  0  0  0  0  0  0  0  0  0  0  0
   59.1770   33.7610   43.8360 O   0  0  0  0  0  0  0  0  0  0  0  0
   59.5490   33.7110   46.4850 C   0  0  0  0  0  0  0  0  0  0  0  0
   60.9330   33.6430   46.2770 C   0  0  0  0  0  0  0  0  0  0  0  0
   61.8140   33.7990   47.3520 C   0  0  0  0  0  0  0  0  0  0  0  0
   61.3200   34.0430   48.6420 C   0  0  0  0  0  0  0  0  0  0  0  0
   62.2640   34.1720   49.8010 C   0  0  0  0  0  0  0  0  0  0  0  0
   59.9340   34.1020   48.8490 C   0  0  0  0  0  0  0  0  0  0  0  0
   59.0530   33.9460   47.7740 C   0  0  0  0  0  0  0  0  0  0  0  0
   56.6770   31.6020   44.3130 C   0  0  0  0  0  0  0  0  0  0  0  0
   56.1120   30.3240   44.3490 C   0  0  0  0  0  0  0  0  0  0  0  0
   58.3818   26.4436   46.8148 H   0  0  0  0  0  0  0  0  0  0  0  0
   58.1346   25.5787   45.2600 H   0  0  0  0  0  0  0  0  0  0  0  0
   58.5318   27.3306   45.2600 H   0  0  0  0  0  0  0  0  0  0  0  0
   58.0565   28.9330   46.7936 H   0  0  0  0  0  0  0  0  0  0  0  0
   59.0688   31.2118   46.7248 H   0  0  0  0  0  0  0  0  0  0  0  0
   61.3277   33.4665   45.2655 H   0  0  0  0  0  0  0  0  0  0  0  0
   62.8991   33.7300   47.1851 H   0  0  0  0  0  0  0  0  0  0  0  0
   61.7009   34.0951   50.7428 H   0  0  0  0  0  0  0  0  0  0  0  0
   63.0132   33.3679   49.7550 H   0  0  0  0  0  0  0  0  0  0  0  0
   62.7700   35.1476   49.7550 H   0  0  0  0  0  0  0  0  0  0  0  0
   59.5382   34.2717   49.8612 H   0  0  0  0  0  0  0  0  0  0  0  0
   57.9675   34.0080   47.9411 H   0  0  0  0  0  0  0  0  0  0  0  0
   56.2772   32.3589   43.6222 H   0  0  0  0  0  0  0  0  0  0  0  0
   55.2613   30.0834   43.6944 H   0  0  0  0  0  0  0  0  0  0  0  0
  1  2  1  0
  2  3  2  0
  2  4  1  0
  4  5  1  0
  5  6  2  0
  6  7  1  0
  7  8  2  0
  8  9  1  0
  9 10  2  0
  9 11  2  0
  9 12  1  0
 12 13  2  0
 13 14  1  0
 14 15  2  0
 15 16  1  0
 15 17  1  0
 17 18  2  0
  8 19  1  0
 19 20  2  0
 20  5  1  0
 18 12  1  0
  1 21  1  0
  1 22  1  0
  1 23  1  0
  6 24  1  0
  7 25  1  0
 13 26  1  0
 14 27  1  0
 16 28  1  0
 16 29  1  0
 16 30  1  0
 17 31  1  0
 18 32  1  0
 19 33  1  0
 20 34  1  0
M  CHG  1   4  -1
M  END
>  <UniqueID>  (7) 
6

>  <SMILES>  (7) 
CC(=O)[N-]c1ccc(S(=O)(=O)c2ccc(C)cc2)cc1

>  <Energy>  (7) 
38.69370438776776

>  <Genealogy>  (7) 
CC(=O)[N-]c1ccc(S(=O)(=O)c2ccc(C)cc2)cc1 (protonated)
CC(=O)[N-]c1ccc(S(=O)(=O)c2ccc(C)cc2)cc1 (3D coordinates assigned)
CC(=O)[N-]c1ccc(S(=O)(=O)c2ccc(C)cc2)cc1 (optimized conformer: 38.69370438776776 kcal/mol)

>  <smiles>  (7) 
CC(=O)Nc1ccc(S(=O)(=O)c2ccc(C)cc2)cc1

>  <score_type>  (7) 
oracle

>  <origin>  (7) 
adg

>  <m_score__min__energy>  (7) 
-9.5700000000000003

>  <m_primary>  (7) 
energy

$$$$
7:0
     RDKit          3D

 52 55  0  0  0  0  0  0  0  0999 V2000
   58.8930   31.5720   47.2360 C   0  0  0  0  0  0  0  0  0  0  0  0
   58.8100   32.9120   46.5650 C   0  0  0  0  0  0  0  0  0  0  0  0
   58.2860   33.1760   45.3100 C   0  0  0  0  0  0  0  0  0  0  0  0
   57.6650   32.2020   44.3490 C   0  0  0  0  0  0  0  0  0  0  0  0
   56.9700   31.1200   45.0710 N   0  0  0  0  0  0  0  0  0  0  0  0
   57.0140   29.7640   44.4730 C   0  0  1  0  0  0  0  0  0  0  0  0
   58.4100   29.2410   44.1190 C   0  0  0  0  0  0  0  0  0  0  0  0
   58.1700   28.0280   45.0360 C   0  0  2  0  0  0  0  0  0  0  0  0
   59.1470   27.8660   46.1940 C   0  0  0  0  0  0  0  0  0  0  0  0
   59.1910   26.3660   46.4600 C   0  0  0  0  0  0  0  0  0  0  0  0
   58.5620   25.6670   45.3250 N   0  0  0  0  0  0  0  0  0  0  0  0
   57.5250   24.6760   45.7100 C   0  0  0  0  0  0  0  0  0  0  0  0
   57.4430   23.4540   44.8140 C   0  0  0  0  0  0  0  0  0  0  0  0
   56.6740   23.4910   43.6390 C   0  0  0  0  0  0  0  0  0  0  0  0
   56.6000   22.3670   42.8150 C   0  0  0  0  0  0  0  0  0  0  0  0
   57.3120   21.2180   43.1570 C   0  0  0  0  0  0  0  0  0  0  0  0
   58.0810   21.2020   44.2780 N   0  0  0  0  0  0  0  0  0  0  0  0
   58.1680   22.2850   45.0980 C   0  0  0  0  0  0  0  0  0  0  0  0
   58.1510   26.6720   44.3330 C   0  0  0  0  0  0  0  0  0  0  0  0
   56.7850   28.5820   45.4200 C   0  0  0  0  0  0  0  0  0  0  0  0
   58.5680   34.5120   45.0820 C   0  0  0  0  0  0  0  0  0  0  0  0
   59.2200   35.0180   46.1470 N   0  0  0  0  0  0  0  0  0  0  0  0
   59.3710   34.0460   47.0330 N   0  0  0  0  0  0  0  0  0  0  0  0
   60.0590   34.2190   48.3070 C   0  0  0  0  0  0  0  0  0  0  0  0
   58.8846   31.7074   48.3276 H   0  0  0  0  0  0  0  0  0  0  0  0
   58.0312   30.9577   46.9361 H   0  0  0  0  0  0  0  0  0  0  0  0
   59.8240   31.0688   46.9361 H   0  0  0  0  0  0  0  0  0  0  0  0
   56.9411   32.7342   43.7144 H   0  0  0  0  0  0  0  0  0  0  0  0
   58.4621   31.7585   43.7343 H   0  0  0  0  0  0  0  0  0  0  0  0
   55.9600   31.3810   45.1690 H   0  0  0  0  0  0  0  0  0  0  0  0
   56.2790   29.9632   43.6792 H   0  0  0  0  0  0  0  0  0  0  0  0
   59.2328   29.8956   44.4423 H   0  0  0  0  0  0  0  0  0  0  0  0
   58.7088   29.1019   43.0695 H   0  0  0  0  0  0  0  0  0  0  0  0
   60.1434   28.2394   45.9153 H   0  0  0  0  0  0  0  0  0  0  0  0
   58.8363   28.4360   47.0820 H   0  0  0  0  0  0  0  0  0  0  0  0
   60.2361   26.0387   46.5633 H   0  0  0  0  0  0  0  0  0  0  0  0
   58.6507   26.1338   47.3896 H   0  0  0  0  0  0  0  0  0  0  0  0
   57.7416   24.3352   46.7332 H   0  0  0  0  0  0  0  0  0  0  0  0
   56.5575   25.1911   45.6174 H   0  0  0  0  0  0  0  0  0  0  0  0
   56.1293   24.4074   43.3679 H   0  0  0  0  0  0  0  0  0  0  0  0
   55.9850   22.3874   41.9032 H   0  0  0  0  0  0  0  0  0  0  0  0
   57.2515   20.3238   42.5193 H   0  0  0  0  0  0  0  0  0  0  0  0
   58.6300   20.3430   44.5070 H   0  0  0  0  0  0  0  0  0  0  0  0
   58.8109   22.2444   45.9897 H   0  0  0  0  0  0  0  0  0  0  0  0
   58.8529   26.6758   43.4861 H   0  0  0  0  0  0  0  0  0  0  0  0
   57.1484   26.4480   43.9397 H   0  0  0  0  0  0  0  0  0  0  0  0
   56.6892   28.8638   46.4790 H   0  0  0  0  0  0  0  0  0  0  0  0
   55.8847   27.9563   45.3309 H   0  0  0  0  0  0  0  0  0  0  0  0
   58.3016   35.0725   44.1738 H   0  0  0  0  0  0  0  0  0  0  0  0
   59.3533   34.0415   49.1319 H   0  0  0  0  0  0  0  0  0  0  0  0
   60.8904   33.5020   48.3751 H   0  0  0  0  0  0  0  0  0  0  0  0
   60.4523   35.2440   48.3751 H   0  0  0  0  0  0  0  0  0  0  0  0
  1  2  1  0
  2  3  2  0
  3  4  1  0
  4  5  1  0
  5  6  1  0
  6  7  1  0
  8  7  1  6
  8  9  1  0
  9 10  1  0
 10 11  1  0
 11 12  1  0
 12 13  1  0
 13 14  2  0
 14 15  1  0
 15 16  2  0
 16 17  1  0
 17 18  2  0
 11 19  1  0
  8 20  1  0
  3 21  1  0
 21 22  2  0
 22 23  1  0
 23 24  1  0
 23  2  1  0
 20  6  1  0
 19  8  1  0
 18 13  1  0
  1 25  1  0
  1 26  1  0
  1 27  1  0
  4 28  1  0
  4 29  1  0
  5 30  1  0
  6 31  1  6
  7 32  1  0
  7 33  1  0
  9 34  1  0
  9 35  1  0
 10 36  1  0
 10 37  1  0
 12 38  1  0
 12 39  1  0
 14 40  1  0
 15 41  1  0
 16 42  1  0
 17 43  1  0
 18 44  1  0
 19 45  1  0
 19 46  1  0
 20 47  1  0
 20 48  1  0
 21 49  1  0
 24 50  1  0
 24 51  1  0
 24 52  1  0
M  CHG  1  17   1
M  END
>  <UniqueID>  (8) 
7

>  <SMILES>  (8) 
Cc1c(CNC2CC3(CCN(Cc4ccc[nH+]c4)C3)C2)cnn1C

>  <Energy>  (8) 
160.71196532063468

>  <Genealogy>  (8) 
Cc1c(CNC2CC3(CCN(Cc4ccc[nH+]c4)C3)C2)cnn1C (protonated)
Cc1c(CNC2CC3(CCN(Cc4ccc[nH+]c4)C3)C2)cnn1C (3D coordinates assigned)
Cc1c(CNC2CC3(CCN(Cc4ccc[nH+]c4)C3)C2)cnn1C (nonaromatic ring conformer: 160.71196532063468 kcal/mol)

>  <smiles>  (8) 
Cc1c(CNC2CC3(CCN(Cc4cccnc4)C3)C2)cnn1C

>  <score_type>  (8) 
oracle

>  <origin>  (8) 
adg

>  <m_score__min__energy>  (8) 
-7.9000000000000004

>  <m_primary>  (8) 
energy

$$$$
8:0
     RDKit          3D

 51 54  0  0  1  0  0  0  0  0999 V2000
   66.4790   32.7420   50.2960 C   0  0  0  0  0  0  0  0  0  0  0  0
   65.4580   31.9860   49.6790 O   0  0  0  0  0  0  0  0  0  0  0  0
   64.1760   32.4460   49.4540 C   0  0  0  0  0  0  0  0  0  0  0  0
   63.8510   33.3600   48.4710 C   0  0  0  0  0  0  0  0  0  0  0  0
   62.5530   33.7920   48.2830 C   0  0  0  0  0  0  0  0  0  0  0  0
   61.5490   33.3140   49.0790 C   0  0  0  0  0  0  0  0  0  0  0  0
   60.1260   33.7090   48.9620 C   0  0  0  0  0  0  0  0  0  0  0  0
   59.8250   34.2220   47.6330 N   0  0  0  0  0  0  0  0  0  0  0  0
   59.1470   33.5450   46.7690 C   0  0  0  0  0  0  0  0  0  0  0  0
   58.0960   34.1080   46.1430 N   0  0  0  0  0  0  0  0  0  0  0  0
   57.3580   33.4290   45.2260 C   0  0  0  0  0  0  0  0  0  0  0  0
   57.6960   32.1390   44.9350 N   0  0  0  0  0  0  0  0  0  0  0  0
   58.7390   31.5350   45.5370 C   0  0  0  0  0  0  0  0  0  0  0  0
   59.5020   32.2310   46.4810 C   0  0  0  0  0  0  0  0  0  0  0  0
   60.4660   31.4000   46.9160 N   0  0  0  0  0  0  0  0  0  0  0  0
   60.3390   30.2140   46.2850 C   0  0  0  0  0  0  0  0  0  0  0  0
   59.2910   30.3020   45.4490 N   0  0  0  0  0  0  0  0  0  0  0  0
   58.7460   29.2930   44.5460 C   0  0  1  0  0  0  0  0  0  0  0  0
   58.5920   27.9500   45.1860 C   0  0  0  0  0  0  0  0  0  0  0  0
   57.1120   27.6240   45.1680 C   0  0  1  0  0  0  0  0  0  0  0  0
   56.6750   26.8460   46.3960 C   0  0  0  0  0  0  0  0  0  0  0  0
   55.3000   26.6440   46.2910 O   0  0  0  0  0  0  0  0  0  0  0  0
   56.5040   29.0150   45.1610 C   0  0  2  0  0  0  0  0  0  0  0  0
   55.1610   29.0110   44.8040 O   0  0  0  0  0  0  0  0  0  0  0  0
   57.3690   29.6690   44.1100 C   0  0  2  0  0  0  0  0  0  0  0  0
   57.1210   28.9700   42.9130 O   0  0  0  0  0  0  0  0  0  0  0  0
   61.8850   32.3900   50.0710 C   0  0  0  0  0  0  0  0  0  0  0  0
   63.1670   31.9520   50.2710 C   0  0  0  0  0  0  0  0  0  0  0  0
   63.5430   30.6790   51.6590 Br  0  0  0  0  0  0  0  0  0  0  0  0
   66.3799   32.6687   51.3891 H   0  0  0  0  0  0  0  0  0  0  0  0
   67.4606   32.3513   49.9897 H   0  0  0  0  0  0  0  0  0  0  0  0
   66.3917   33.7949   49.9897 H   0  0  0  0  0  0  0  0  0  0  0  0
   64.6464   33.7539   47.8213 H   0  0  0  0  0  0  0  0  0  0  0  0
   62.3263   34.5217   47.4918 H   0  0  0  0  0  0  0  0  0  0  0  0
   59.4934   32.8308   49.1585 H   0  0  0  0  0  0  0  0  0  0  0  0
   59.9263   34.5053   49.6941 H   0  0  0  0  0  0  0  0  0  0  0  0
   57.8250   35.1040   46.3590 H   0  0  0  0  0  0  0  0  0  0  0  0
   56.5038   33.9102   44.7273 H   0  0  0  0  0  0  0  0  0  0  0  0
   60.9798   29.3317   46.4295 H   0  0  0  0  0  0  0  0  0  0  0  0
   59.4646   29.2431   43.7147 H   0  0  0  0  0  0  0  0  0  0  0  0
   59.1535   27.1933   44.6184 H   0  0  0  0  0  0  0  0  0  0  0  0
   58.9827   27.9554   46.2143 H   0  0  0  0  0  0  0  0  0  0  0  0
   56.8141   26.9842   44.3242 H   0  0  0  0  0  0  0  0  0  0  0  0
   57.1959   25.8779   46.4334 H   0  0  0  0  0  0  0  0  0  0  0  0
   56.9182   27.3998   47.3148 H   0  0  0  0  0  0  0  0  0  0  0  0
   54.7660   27.4620   46.3500 H   0  0  0  0  0  0  0  0  0  0  0  0
   56.4969   29.5168   46.1399 H   0  0  0  0  0  0  0  0  0  0  0  0
   55.1350   28.8940   43.8220 H   0  0  0  0  0  0  0  0  0  0  0  0
   57.2100   30.7501   43.9837 H   0  0  0  0  0  0  0  0  0  0  0  0
   56.3580   28.3510   42.9780 H   0  0  0  0  0  0  0  0  0  0  0  0
   61.0868   31.9979   50.7184 H   0  0  0  0  0  0  0  0  0  0  0  0
  1  2  1  0
  2  3  1  0
  3  4  2  0
  4  5  1  0
  5  6  2  0
  6  7  1  0
  7  8  1  0
  8  9  2  0
  9 10  1  0
 10 11  1  0
 11 12  2  0
 12 13  1  0
 13 14  2  0
 14 15  1  0
 15 16  2  0
 16 17  1  0
 17 18  1  0
 18 19  1  0
 19 20  1  0
 20 21  1  0
 21 22  1  0
 20 23  1  0
 23 24  1  0
 23 25  1  0
 25 26  1  0
  6 27  1  0
 27 28  2  0
 28 29  1  0
 28  3  1  0
 14  9  1  0
 25 18  1  0
 17 13  1  0
  1 30  1  0
  1 31  1  0
  1 32  1  0
  4 33  1  0
  5 34  1  0
  7 35  1  0
  7 36  1  0
 10 37  1  0
 11 38  1  0
 16 39  1  0
 18 40  1  6
 19 41  1  0
 19 42  1  0
 20 43  1  6
 21 44  1  0
 21 45  1  0
 22 46  1  0
 23 47  1  1
 24 48  1  0
 25 49  1  6
 26 50  1  0
 27 51  1  0
M  END
>  <smiles>  (9) 
COc1ccc(CN=c2[nH]cnc3c2ncn3C2CC(CO)C(O)C2O)cc1Br

>  <score_type>  (9) 
oracle

>  <origin>  (9) 
adg

>  <m_score__min__energy>  (9) 
-9.1099999999999994

>  <m_primary>  (9) 
energy

$$$$
9:0
     RDKit          3D

 59 61  0  0  1  0  0  0  0  0999 V2000
   61.1220   33.6790   47.7120 C   0  0  0  0  0  0  0  0  0  0  0  0
   60.5040   34.1920   46.5440 O   0  0  0  0  0  0  0  0  0  0  0  0
   59.4390   33.4660   46.0080 C   0  0  0  0  0  0  0  0  0  0  0  0
   58.6460   34.0180   45.0120 C   0  0  0  0  0  0  0  0  0  0  0  0
   57.6010   33.2720   44.5050 C   0  0  0  0  0  0  0  0  0  0  0  0
   57.3380   32.0000   44.9660 C   0  0  0  0  0  0  0  0  0  0  0  0
   56.2990   31.2170   44.4850 O   0  0  0  0  0  0  0  0  0  0  0  0
   56.4650   30.2340   43.4860 C   0  0  0  0  0  0  0  0  0  0  0  0
   58.1540   31.4470   45.9830 C   0  0  0  0  0  0  0  0  0  0  0  0
   57.9720   30.1640   46.3540 N   0  0  0  0  0  0  0  0  0  0  0  0
   58.7360   29.2720   46.7120 C   0  0  0  0  0  0  0  0  0  0  0  0
   59.0750   28.3210   45.8150 N   0  0  0  0  0  0  0  0  0  0  0  0
   59.8950   27.3210   46.1170 C   0  0  0  0  0  0  0  0  0  0  0  0
   60.4180   27.2320   47.3430 N   0  0  0  0  0  0  0  0  0  0  0  0
   60.0950   28.1650   48.2500 C   0  0  0  0  0  0  0  0  0  0  0  0
   60.6460   28.0460   49.4980 C   0  0  0  0  0  0  0  0  0  0  0  0
   60.3190   29.0000   50.4280 C   0  0  0  0  0  0  0  0  0  0  0  0
   60.8690   28.8920   51.6910 O   0  0  0  0  0  0  0  0  0  0  0  0
   62.0840   29.5100   51.9640 C   0  0  0  0  0  0  0  0  0  0  0  0
   59.4890   30.0600   50.2150 C   0  0  0  0  0  0  0  0  0  0  0  0
   59.2090   30.9950   51.2400 N   0  0  0  0  0  0  0  0  0  0  0  0
   57.8770   30.9970   51.7610 C   0  0  0  0  0  0  0  0  0  0  0  0
   57.1000   30.1600   51.2490 O   0  0  0  0  0  0  0  0  0  0  0  0
   57.5620   31.9400   52.8050 C   0  0  0  0  0  0  0  0  0  0  0  0
   58.1330   33.1000   53.0130 C   0  0  0  0  0  0  0  0  0  0  0  0
   59.5560   33.3710   53.1640 C   0  0  0  0  0  0  0  0  0  0  0  0
   60.1760   33.8520   51.9410 N   0  0  0  0  0  0  0  0  0  0  0  0
   61.4400   33.1990   51.6830 C   0  0  0  0  0  0  0  0  0  0  0  0
   59.3000   33.8470   50.8110 C   0  0  0  0  0  0  0  0  0  0  0  0
   58.9340   30.1630   48.9290 C   0  0  0  0  0  0  0  0  0  0  0  0
   59.2410   29.2290   47.9830 C   0  0  0  0  0  0  0  0  0  0  0  0
   59.2180   32.1960   46.5050 C   0  0  0  0  0  0  0  0  0  0  0  0
   60.6243   34.0921   48.6018 H   0  0  0  0  0  0  0  0  0  0  0  0
   61.0370   32.5823   47.7203 H   0  0  0  0  0  0  0  0  0  0  0  0
   62.1843   33.9645   47.7203 H   0  0  0  0  0  0  0  0  0  0  0  0
   58.8464   35.0312   44.6335 H   0  0  0  0  0  0  0  0  0  0  0  0
   56.9651   33.7015   43.7169 H   0  0  0  0  0  0  0  0  0  0  0  0
   56.6304   29.2548   43.9590 H   0  0  0  0  0  0  0  0  0  0  0  0
   55.5614   30.1910   42.8602 H   0  0  0  0  0  0  0  0  0  0  0  0
   57.3326   30.4901   42.8602 H   0  0  0  0  0  0  0  0  0  0  0  0
   60.1437   26.5655   45.3571 H   0  0  0  0  0  0  0  0  0  0  0  0
   61.0640   26.4330   47.5580 H   0  0  0  0  0  0  0  0  0  0  0  0
   61.3251   27.2168   49.7454 H   0  0  0  0  0  0  0  0  0  0  0  0
   62.2229   29.5807   53.0529 H   0  0  0  0  0  0  0  0  0  0  0  0
   62.9024   28.9186   51.5276 H   0  0  0  0  0  0  0  0  0  0  0  0
   62.0880   30.5197   51.5276 H   0  0  0  0  0  0  0  0  0  0  0  0
   59.9340   31.6410   51.5870 H   0  0  0  0  0  0  0  0  0  0  0  0
   56.7579   31.6553   53.4995 H   0  0  0  0  0  0  0  0  0  0  0  0
   57.4615   33.9685   53.0815 H   0  0  0  0  0  0  0  0  0  0  0  0
   59.6864   34.1333   53.9462 H   0  0  0  0  0  0  0  0  0  0  0  0
   60.0450   32.4220   53.4292 H   0  0  0  0  0  0  0  0  0  0  0  0
   61.9249   32.9485   52.6380 H   0  0  0  0  0  0  0  0  0  0  0  0
   61.2661   32.2779   51.1073 H   0  0  0  0  0  0  0  0  0  0  0  0
   62.0906   33.8738   51.1073 H   0  0  0  0  0  0  0  0  0  0  0  0
   58.2557   33.8410   51.1566 H   0  0  0  0  0  0  0  0  0  0  0  0
   59.4800   34.7462   50.2035 H   0  0  0  0  0  0  0  0  0  0  0  0
   59.4903   32.9499   50.2035 H   0  0  0  0  0  0  0  0  0  0  0  0
   58.2547   30.9932   48.6855 H   0  0  0  0  0  0  0  0  0  0  0  0
   59.8632   31.7813   47.2935 H   0  0  0  0  0  0  0  0  0  0  0  0
  1  2  1  0
  2  3  1  0
  3  4  2  0
  4  5  1  0
  5  6  2  0
  6  7  1  0
  7  8  1  0
  6  9  1  0
  9 10  1  0
 10 11  2  0
 11 12  1  0
 12 13  2  0
 13 14  1  0
 14 15  1  0
 15 16  2  0
 16 17  1  0
 17 18  1  0
 18 19  1  0
 17 20  2  0
 20 21  1  0
 21 22  1  0
 22 23  2  0
 22 24  1  0
 24 25  2  0
 25 26  1  0
 26 27  1  0
 27 28  1  0
 27 29  1  0
 20 30  1  0
 30 31  2  0
  9 32  2  0
 32  3  1  0
 31 11  1  0
 31 15  1  0
  1 33  1  0
  1 34  1  0
  1 35  1  0
  4 36  1  0
  5 37  1  0
  8 38  1  0
  8 39  1  0
  8 40  1  0
 13 41  1  0
 14 42  1  0
 16 43  1  0
 19 44  1  0
 19 45  1  0
 19 46  1  0
 21 47  1  0
 24 48  1  0
 25 49  1  0
 26 50  1  0
 26 51  1  0
 28 52  1  0
 28 53  1  0
 28 54  1  0
 29 55  1  0
 29 56  1  0
 29 57  1  0
 30 58  1  0
 32 59  1  0
M  END
>  <smiles>  (10) 
COc1ccc(OC)c(N=c2nc[nH]c3cc(OC)c(NC(=O)C=CCN(C)C)cc23)c1

>  <score_type>  (10) 
oracle

>  <origin>  (10) 
adg

>  <m_score__min__energy>  (10) 
-7.6299999999999999

>  <m_primary>  (10) 
energy

$$$$
10:0
     RDKit          3D

 42 44  0  0  0  0  0  0  0  0999 V2000
   65.6010   32.3480   50.1270 C   0  0  0  0  0  0  0  0  0  0  0  0
   64.9270   33.4970   49.6230 O   0  0  0  0  0  0  0  0  0  0  0  0
   63.7160   33.4580   48.9160 C   0  0  0  0  0  0  0  0  0  0  0  0
   63.7620   33.3420   47.5220 C   0  0  0  0  0  0  0  0  0  0  0  0
   62.5830   33.3000   46.7740 C   0  0  0  0  0  0  0  0  0  0  0  0
   61.3350   33.3910   47.4090 C   0  0  0  0  0  0  0  0  0  0  0  0
   60.0970   33.3200   46.6060 C   0  0  0  0  0  0  0  0  0  0  0  0
   59.6770   32.1900   46.0000 N   0  0  0  0  0  0  0  0  0  0  0  0
   58.5300   32.4860   45.4020 N   0  0  0  0  0  0  0  0  0  0  0  0
   57.7610   31.5280   44.6570 C   0  0  0  0  0  0  0  0  0  0  0  0
   57.5970   31.6900   43.2730 C   0  0  0  0  0  0  0  0  0  0  0  0
   56.8720   30.7520   42.5350 C   0  0  0  0  0  0  0  0  0  0  0  0
   56.3160   29.6370   43.1680 C   0  0  0  0  0  0  0  0  0  0  0  0
   56.4920   29.4470   44.5530 C   0  0  0  0  0  0  0  0  0  0  0  0
   55.9680   28.3380   45.2320 O   0  0  0  0  0  0  0  0  0  0  0  0
   56.7460   27.2430   45.7050 C   0  0  0  0  0  0  0  0  0  0  0  0
   57.2210   30.3930   45.2850 C   0  0  0  0  0  0  0  0  0  0  0  0
   58.2660   33.7970   45.6190 C   0  0  0  0  0  0  0  0  0  0  0  0
   57.1260   34.5700   45.0190 C   0  0  0  0  0  0  0  0  0  0  0  0
   59.2320   34.3350   46.3900 N   0  0  0  0  0  0  0  0  0  0  0  0
   59.3860   35.6890   46.7350 N   0  0  0  0  0  0  0  0  0  0  0  0
   61.2850   33.4850   48.8090 C   0  0  0  0  0  0  0  0  0  0  0  0
   62.4650   33.5260   49.5580 C   0  0  0  0  0  0  0  0  0  0  0  0
   65.5888   32.3687   51.2267 H   0  0  0  0  0  0  0  0  0  0  0  0
   65.0927   31.4395   49.7718 H   0  0  0  0  0  0  0  0  0  0  0  0
   66.6421   32.3483   49.7718 H   0  0  0  0  0  0  0  0  0  0  0  0
   64.7345   33.2834   47.0113 H   0  0  0  0  0  0  0  0  0  0  0  0
   62.6332   33.1949   45.6802 H   0  0  0  0  0  0  0  0  0  0  0  0
   58.0415   32.5597   42.7670 H   0  0  0  0  0  0  0  0  0  0  0  0
   56.7381   30.8912   41.4521 H   0  0  0  0  0  0  0  0  0  0  0  0
   55.7392   28.9054   42.5832 H   0  0  0  0  0  0  0  0  0  0  0  0
   56.7468   27.2419   46.8050 H   0  0  0  0  0  0  0  0  0  0  0  0
   56.3139   26.3005   45.3377 H   0  0  0  0  0  0  0  0  0  0  0  0
   57.7782   27.3409   45.3377 H   0  0  0  0  0  0  0  0  0  0  0  0
   57.3725   30.2455   46.3645 H   0  0  0  0  0  0  0  0  0  0  0  0
   56.5050   34.9911   45.8234 H   0  0  0  0  0  0  0  0  0  0  0  0
   57.5232   35.3858   44.3972 H   0  0  0  0  0  0  0  0  0  0  0  0
   56.5151   33.8991   44.3972 H   0  0  0  0  0  0  0  0  0  0  0  0
   58.8390   36.1080   47.5190 H   0  0  0  0  0  0  0  0  0  0  0  0
   60.0130   36.3150   46.1850 H   0  0  0  0  0  0  0  0  0  0  0  0
   60.3116   33.5266   49.3197 H   0  0  0  0  0  0  0  0  0  0  0  0
   62.4156   33.6118   50.6535 H   0  0  0  0  0  0  0  0  0  0  0  0
  1  2  1  0
  2  3  1  0
  3  4  2  0
  4  5  1  0
  5  6  2  0
  6  7  1  0
  7  8  2  0
  8  9  1  0
  9 10  1  0
 10 11  2  0
 11 12  1  0
 12 13  2  0
 13 14  1  0
 14 15  1  0
 15 16  1  0
 14 17  2  0
  9 18  2  0
 18 19  1  0
 18 20  1  0
 20 21  1  0
  6 22  1  0
 22 23  2  0
 23  3  1  0
 20  7  1  0
 17 10  1  0
  1 24  1  0
  1 25  1  0
  1 26  1  0
  4 27  1  0
  5 28  1  0
 11 29  1  0
 12 30  1  0
 13 31  1  0
 16 32  1  0
 16 33  1  0
 16 34  1  0
 17 35  1  0
 19 36  1  0
 19 37  1  0
 19 38  1  0
 21 39  1  0
 21 40  1  0
 22 41  1  0
 23 42  1  0
M  CHG  1   9   1
M  END
>  <UniqueID>  (11) 
8

>  <SMILES>  (11) 
COc1ccc(-c2n[n+](-c3cccc(OC)c3)c(C)n2N)cc1

>  <Energy>  (11) 
89.21268140678134

>  <Genealogy>  (11) 
COc1ccc(-c2n[n+](-c3cccc(OC)c3)c(C)n2N)cc1 (3D coordinates assigned)
COc1ccc(-c2n[n+](-c3cccc(OC)c3)c(C)n2N)cc1 (optimized conformer: 89.21268140678134 kcal/mol)

>  <smiles>  (11) 
COc1ccc(-c2n[n+](-c3cccc(OC)c3)c(C)n2N)cc1

>  <score_type>  (11) 
oracle

>  <origin>  (11) 
adg

>  <m_score__min__energy>  (11) 
-6.5

>  <m_primary>  (11) 
energy

$$$$
11:0
     RDKit          3D

 37 37  0  0  0  0  0  0  0  0999 V2000
   61.7490   31.0480   47.4280 C   0  0  0  0  0  0  0  0  0  0  0  0
   62.0310   31.6410   48.8140 C   0  0  0  0  0  0  0  0  0  0  0  0
   62.8650   32.8700   48.7430 N   0  0  0  0  0  0  0  0  0  0  0  0
   63.7010   32.9180   47.5150 C   0  0  0  0  0  0  0  0  0  0  0  0
   63.1780   33.8460   46.4130 C   0  0  0  0  0  0  0  0  0  0  0  0
   62.1500   34.1510   49.0230 C   0  0  0  0  0  0  0  0  0  0  0  0
   60.7370   34.0150   49.6370 C   0  0  0  0  0  0  0  0  0  0  0  0
   59.7350   34.5940   48.7410 N   0  0  0  0  0  0  0  0  0  0  0  0
   59.1390   33.9090   47.6210 C   0  0  0  0  0  0  0  0  0  0  0  0
   58.9190   34.5460   46.3850 C   0  0  0  0  0  0  0  0  0  0  0  0
   58.3340   33.8520   45.3220 C   0  0  0  0  0  0  0  0  0  0  0  0
   57.9540   32.5090   45.4750 C   0  0  0  0  0  0  0  0  0  0  0  0
   57.3370   31.7580   44.3650 C   0  0  0  0  0  0  0  0  0  0  0  0
   56.4190   30.9220   44.5770 O   0  0  0  0  0  0  0  0  0  0  0  0
   58.1640   31.8740   46.7080 C   0  0  0  0  0  0  0  0  0  0  0  0
   58.7490   32.5690   47.7700 C   0  0  0  0  0  0  0  0  0  0  0  0
   61.2791   30.0598   47.5407 H   0  0  0  0  0  0  0  0  0  0  0  0
   61.0717   31.7151   46.8746 H   0  0  0  0  0  0  0  0  0  0  0  0
   62.6939   30.9437   46.8746 H   0  0  0  0  0  0  0  0  0  0  0  0
   61.0730   31.8908   49.2934 H   0  0  0  0  0  0  0  0  0  0  0  0
   62.5870   30.8901   49.3945 H   0  0  0  0  0  0  0  0  0  0  0  0
   63.5720   32.7770   49.5120 H   0  0  0  0  0  0  0  0  0  0  0  0
   64.7071   33.2593   47.7999 H   0  0  0  0  0  0  0  0  0  0  0  0
   63.6884   31.9019   47.0938 H   0  0  0  0  0  0  0  0  0  0  0  0
   62.6868   34.7176   46.8702 H   0  0  0  0  0  0  0  0  0  0  0  0
   64.0184   34.1842   45.7890 H   0  0  0  0  0  0  0  0  0  0  0  0
   62.4535   33.3022   45.7890 H   0  0  0  0  0  0  0  0  0  0  0  0
   62.7665   34.7354   49.7219 H   0  0  0  0  0  0  0  0  0  0  0  0
   62.0045   34.6311   48.0441 H   0  0  0  0  0  0  0  0  0  0  0  0
   60.5108   32.9501   49.7942 H   0  0  0  0  0  0  0  0  0  0  0  0
   60.7111   34.5519   50.5967 H   0  0  0  0  0  0  0  0  0  0  0  0
   59.4250   35.5720   48.9450 H   0  0  0  0  0  0  0  0  0  0  0  0
   59.2099   35.5988   46.2547 H   0  0  0  0  0  0  0  0  0  0  0  0
   58.1705   34.3607   44.3605 H   0  0  0  0  0  0  0  0  0  0  0  0
   57.6843   31.9309   43.3357 H   0  0  0  0  0  0  0  0  0  0  0  0
   57.8666   30.8232   46.8397 H   0  0  0  0  0  0  0  0  0  0  0  0
   58.9054   32.0605   48.7328 H   0  0  0  0  0  0  0  0  0  0  0  0
  1  2  1  0
  2  3  1  0
  3  4  1  0
  4  5  1  0
  3  6  1  0
  6  7  1  0
  7  8  1  0
  8  9  1  0
  9 10  2  0
 10 11  1  0
 11 12  2  0
 12 13  1  0
 13 14  2  0
 12 15  1  0
 15 16  2  0
 16  9  1  0
  1 17  1  0
  1 18  1  0
  1 19  1  0
  2 20  1  0
  2 21  1  0
  3 22  1  0
  4 23  1  0
  4 24  1  0
  5 25  1  0
  5 26  1  0
  5 27  1  0
  6 28  1  0
  6 29  1  0
  7 30  1  0
  7 31  1  0
  8 32  1  0
 10 33  1  0
 11 34  1  0
 13 35  1  0
 15 36  1  0
 16 37  1  0
M  CHG  1   3   1
M  END
>  <UniqueID>  (12) 
9

>  <SMILES>  (12) 
CC[NH+](CC)CCNc1ccc(C=O)cc1

>  <Energy>  (12) 
40.47744039498882

>  <Genealogy>  (12) 
CC[NH+](CC)CCNc1ccc(C=O)cc1 (protonated)
CC[NH+](CC)CCNc1ccc(C=O)cc1 (3D coordinates assigned)
CC[NH+](CC)CCNc1ccc(C=O)cc1 (optimized conformer: 40.47744039498882 kcal/mol)

>  <smiles>  (12) 
CCN(CC)CCNc1ccc(C=O)cc1

>  <score_type>  (12) 
oracle

>  <origin>  (12) 
adg

>  <m_score__min__energy>  (12) 
-3.9500000000000002

>  <m_primary>  (12) 
energy

$$$$
12:0
     RDKit          3D

 51 54  0  0  0  0  0  0  0  0999 V2000
   54.0130   23.7140   45.8020 C   0  0  0  0  0  0  0  0  0  0  0  0
   55.1330   24.0340   46.6220 O   0  0  0  0  0  0  0  0  0  0  0  0
   56.1820   24.8800   46.2340 C   0  0  0  0  0  0  0  0  0  0  0  0
   57.5010   24.4150   46.0550 C   0  0  0  0  0  0  0  0  0  0  0  0
   58.5140   25.2970   45.6670 C   0  0  0  0  0  0  0  0  0  0  0  0
   58.2280   26.6480   45.4540 C   0  0  0  0  0  0  0  0  0  0  0  0
   59.1950   27.4820   45.0890 O   0  0  0  0  0  0  0  0  0  0  0  0
   58.9870   28.7770   44.8710 C   0  0  0  0  0  0  0  0  0  0  0  0
   59.9590   29.4970   44.5140 O   0  0  0  0  0  0  0  0  0  0  0  0
   57.6960   29.3330   45.0200 C   0  0  0  0  0  0  0  0  0  0  0  0
   57.4490   30.7840   44.7950 C   0  0  0  0  0  0  0  0  0  0  0  0
   56.2830   31.1660   44.4950 O   0  0  0  0  0  0  0  0  0  0  0  0
   58.5170   31.7620   44.8920 N   0  0  0  0  0  0  0  0  0  0  0  0
   58.1390   32.9950   44.1560 C   0  0  0  0  0  0  0  0  0  0  0  0
   58.9100   34.2100   44.6840 C   0  0  0  0  0  0  0  0  0  0  0  0
   58.5590   34.4970   46.0950 N   0  0  0  0  0  0  0  0  0  0  0  0
   59.6140   35.3040   46.7400 C   0  0  0  0  0  0  0  0  0  0  0  0
   60.6700   34.4110   47.3340 C   0  0  0  0  0  0  0  0  0  0  0  0
   60.6590   34.1320   48.7120 C   0  0  0  0  0  0  0  0  0  0  0  0
   61.6320   33.2970   49.2690 C   0  0  0  0  0  0  0  0  0  0  0  0
   62.6210   32.7340   48.4570 C   0  0  0  0  0  0  0  0  0  0  0  0
   62.6390   33.0070   47.0870 C   0  0  0  0  0  0  0  0  0  0  0  0
   61.6690   33.8420   46.5250 C   0  0  0  0  0  0  0  0  0  0  0  0
   58.2220   33.2800   46.8790 C   0  0  0  0  0  0  0  0  0  0  0  0
   58.8850   32.0110   46.3140 C   0  0  0  0  0  0  0  0  0  0  0  0
   56.6560   28.4760   45.4090 C   0  0  0  0  0  0  0  0  0  0  0  0
   56.9130   27.1200   45.6290 C   0  0  0  0  0  0  0  0  0  0  0  0
   55.8970   26.2350   46.0190 C   0  0  0  0  0  0  0  0  0  0  0  0
   53.1507   23.4676   46.4390 H   0  0  0  0  0  0  0  0  0  0  0  0
   53.7650   24.5772   45.1669 H   0  0  0  0  0  0  0  0  0  0  0  0
   54.2585   22.8500   45.1669 H   0  0  0  0  0  0  0  0  0  0  0  0
   57.7342   23.3530   46.2215 H   0  0  0  0  0  0  0  0  0  0  0  0
   59.5403   24.9259   45.5289 H   0  0  0  0  0  0  0  0  0  0  0  0
   59.3740   31.3680   44.4360 H   0  0  0  0  0  0  0  0  0  0  0  0
   58.3674   32.8606   43.0884 H   0  0  0  0  0  0  0  0  0  0  0  0
   57.0633   33.1732   44.3013 H   0  0  0  0  0  0  0  0  0  0  0  0
   59.9890   34.0068   44.6171 H   0  0  0  0  0  0  0  0  0  0  0  0
   58.6409   35.0848   44.0738 H   0  0  0  0  0  0  0  0  0  0  0  0
   60.0764   35.9621   45.9896 H   0  0  0  0  0  0  0  0  0  0  0  0
   59.1622   35.9045   47.5433 H   0  0  0  0  0  0  0  0  0  0  0  0
   59.8820   34.5724   49.3541 H   0  0  0  0  0  0  0  0  0  0  0  0
   61.6194   33.0826   50.3478 H   0  0  0  0  0  0  0  0  0  0  0  0
   63.3850   32.0761   48.8968 H   0  0  0  0  0  0  0  0  0  0  0  0
   63.4181   32.5640   46.4492 H   0  0  0  0  0  0  0  0  0  0  0  0
   61.6874   34.0546   45.4459 H   0  0  0  0  0  0  0  0  0  0  0  0
   58.5612   33.4233   47.9156 H   0  0  0  0  0  0  0  0  0  0  0  0
   57.1323   33.1394   46.8251 H   0  0  0  0  0  0  0  0  0  0  0  0
   59.9772   32.1232   46.3816 H   0  0  0  0  0  0  0  0  0  0  0  0
   58.5298   31.1552   46.9068 H   0  0  0  0  0  0  0  0  0  0  0  0
   55.6380   28.8712   45.5409 H   0  0  0  0  0  0  0  0  0  0  0  0
   54.8709   26.6067   46.1568 H   0  0  0  0  0  0  0  0  0  0  0  0
  1  2  1  0
  2  3  1  0
  3  4  2  0
  4  5  1  0
  5  6  2  0
  6  7  1  0
  7  8  1  0
  8  9  2  0
  8 10  1  0
 10 11  1  0
 11 12  2  0
 11 13  1  0
 13 14  1  0
 14 15  1  0
 15 16  1  0
 16 17  1  0
 17 18  1  0
 18 19  2  0
 19 20  1  0
 20 21  2  0
 21 22  1  0
 22 23  2  0
 16 24  1  0
 24 25  1  0
 10 26  2  0
 26 27  1  0
 27 28  2  0
 28  3  1  0
 27  6  1  0
 25 13  1  0
 23 18  1  0
  1 29  1  0
  1 30  1  0
  1 31  1  0
  4 32  1  0
  5 33  1  0
 13 34  1  0
 14 35  1  0
 14 36  1  0
 15 37  1  0
 15 38  1  0
 17 39  1  0
 17 40  1  0
 19 41  1  0
 20 42  1  0
 21 43  1  0
 22 44  1  0
 23 45  1  0
 24 46  1  0
 24 47  1  0
 25 48  1  0
 25 49  1  0
 26 50  1  0
 28 51  1  0
M  CHG  1  13   1
M  END
>  <UniqueID>  (13) 
10

>  <SMILES>  (13) 
COc1ccc2oc(=O)c(C(=O)[NH+]3CCN(Cc4ccccc4)CC3)cc2c1

>  <Energy>  (13) 
76.7062569855934

>  <Genealogy>  (13) 
COc1ccc2oc(=O)c(C(=O)[NH+]3CCN(Cc4ccccc4)CC3)cc2c1 (protonated)
COc1ccc2oc(=O)c(C(=O)[NH+]3CCN(Cc4ccccc4)CC3)cc2c1 (3D coordinates assigned)
COc1ccc2oc(=O)c(C(=O)[NH+]3CCN(Cc4ccccc4)CC3)cc2c1 (nonaromatic ring conformer: 76.7062569855934 kcal/mol)

>  <smiles>  (13) 
COc1ccc2oc(=O)c(C(=O)N3CCN(Cc4ccccc4)CC3)cc2c1

>  <score_type>  (13) 
oracle

>  <origin>  (13) 
adg

>  <m_score__min__energy>  (13) 
-7.9299999999999997

>  <m_primary>  (13) 
energy

$$$$
13:0
     RDKit          3D

 52 56  0  0  0  0  0  0  0  0999 V2000
   56.2540   29.9010   42.4630 C   0  0  0  0  0  0  0  0  0  0  0  0
   56.7190   30.7420   43.6110 C   0  0  0  0  0  0  0  0  0  0  0  0
   56.0310   30.7880   44.6660 O   0  0  0  0  0  0  0  0  0  0  0  0
   57.8970   31.5470   43.4720 N   0  0  0  0  0  0  0  0  0  0  0  0
   58.5360   32.2230   44.5740 C   0  0  0  0  0  0  0  0  0  0  0  0
   58.6510   33.6260   44.5770 C   0  0  0  0  0  0  0  0  0  0  0  0
   59.2150   34.2900   45.6670 C   0  0  0  0  0  0  0  0  0  0  0  0
   59.6560   33.5680   46.7770 C   0  0  0  0  0  0  0  0  0  0  0  0
   59.5310   32.1770   46.8000 C   0  0  0  0  0  0  0  0  0  0  0  0
   58.9750   31.4950   45.7030 C   0  0  0  0  0  0  0  0  0  0  0  0
   58.9000   30.0200   45.7440 C   0  0  0  0  0  0  0  0  0  0  0  0
   57.8480   29.3850   46.4190 C   0  0  0  0  0  0  0  0  0  0  0  0
   57.7700   27.9890   46.4500 C   0  0  0  0  0  0  0  0  0  0  0  0
   58.7520   27.2100   45.8130 C   0  0  0  0  0  0  0  0  0  0  0  0
   58.7310   25.8080   45.8370 O   0  0  0  0  0  0  0  0  0  0  0  0
   57.5580   25.0520   45.8840 C   0  0  0  0  0  0  0  0  0  0  0  0
   56.9900   24.7180   47.1150 C   0  0  0  0  0  0  0  0  0  0  0  0
   55.8120   23.9650   47.1650 C   0  0  0  0  0  0  0  0  0  0  0  0
   55.2000   23.5250   45.9790 C   0  0  0  0  0  0  0  0  0  0  0  0
   53.9660   22.7120   46.0290 C   0  0  0  0  0  0  0  0  0  0  0  0
   53.8360   21.6110   46.8200 N   0  0  0  0  0  0  0  0  0  0  0  0
   52.5920   21.1950   46.5450 C   0  0  0  0  0  0  0  0  0  0  0  0
   51.9230   20.0940   47.0730 C   0  0  0  0  0  0  0  0  0  0  0  0
   50.6130   19.8470   46.6200 C   0  0  0  0  0  0  0  0  0  0  0  0
   50.0150   20.6990   45.6620 C   0  0  0  0  0  0  0  0  0  0  0  0
   50.7220   21.8040   45.1520 C   0  0  0  0  0  0  0  0  0  0  0  0
   52.0160   22.0160   45.6250 C   0  0  0  0  0  0  0  0  0  0  0  0
   52.8650   22.9930   45.2790 N   0  0  0  0  0  0  0  0  0  0  0  0
   55.7840   23.8590   44.7440 C   0  0  0  0  0  0  0  0  0  0  0  0
   56.9530   24.6220   44.6980 C   0  0  0  0  0  0  0  0  0  0  0  0
   59.8010   27.8480   45.1400 C   0  0  0  0  0  0  0  0  0  0  0  0
   59.8710   29.2440   45.0980 C   0  0  0  0  0  0  0  0  0  0  0  0
   55.7553   28.9991   42.8475 H   0  0  0  0  0  0  0  0  0  0  0  0
   55.5465   30.4776   41.8490 H   0  0  0  0  0  0  0  0  0  0  0  0
   57.1185   29.6084   41.8490 H   0  0  0  0  0  0  0  0  0  0  0  0
   58.2890   31.6740   42.5110 H   0  0  0  0  0  0  0  0  0  0  0  0
   58.2930   34.2041   43.7123 H   0  0  0  0  0  0  0  0  0  0  0  0
   59.3123   35.3856   45.6514 H   0  0  0  0  0  0  0  0  0  0  0  0
   60.1020   34.0944   47.6337 H   0  0  0  0  0  0  0  0  0  0  0  0
   59.8693   31.6119   47.6810 H   0  0  0  0  0  0  0  0  0  0  0  0
   57.0804   29.9876   46.9266 H   0  0  0  0  0  0  0  0  0  0  0  0
   56.9370   27.4984   46.9749 H   0  0  0  0  0  0  0  0  0  0  0  0
   57.4701   25.0479   48.0481 H   0  0  0  0  0  0  0  0  0  0  0  0
   55.3625   23.7161   48.1376 H   0  0  0  0  0  0  0  0  0  0  0  0
   52.4009   19.4404   47.8176 H   0  0  0  0  0  0  0  0  0  0  0  0
   50.0514   18.9868   47.0132 H   0  0  0  0  0  0  0  0  0  0  0  0
   48.9914   20.4967   45.3136 H   0  0  0  0  0  0  0  0  0  0  0  0
   50.2700   22.4757   44.4074 H   0  0  0  0  0  0  0  0  0  0  0  0
   55.3172   23.5172   43.8084 H   0  0  0  0  0  0  0  0  0  0  0  0
   57.3988   24.8853   43.7275 H   0  0  0  0  0  0  0  0  0  0  0  0
   60.5754   27.2470   44.6409 H   0  0  0  0  0  0  0  0  0  0  0  0
   60.6922   29.7350   44.5553 H   0  0  0  0  0  0  0  0  0  0  0  0
  1  2  1  0
  2  3  2  0
  2  4  1  0
  4  5  1  0
  5  6  2  0
  6  7  1  0
  7  8  2  0
  8  9  1  0
  9 10  2  0
 10 11  1  0
 11 12  2  0
 12 13  1  0
 13 14  2  0
 14 15  1  0
 15 16  1  0
 16 17  2  0
 17 18  1  0
 18 19  2  0
 19 20  1  0
 20 21  2  0
 21 22  1  0
 22 23  2  0
 23 24  1  0
 24 25  2  0
 25 26  1  0
 26 27  2  0
 27 28  1  0
 19 29  1  0
 29 30  2  0
 14 31  1  0
 31 32  2  0
 10  5  1  0
 32 11  1  0
 30 16  1  0
 28 20  1  0
 27 22  1  0
  1 33  1  0
  1 34  1  0
  1 35  1  0
  4 36  1  0
  6 37  1  0
  7 38  1  0
  8 39  1  0
  9 40  1  0
 12 41  1  0
 13 42  1  0
 17 43  1  0
 18 44  1  0
 23 45  1  0
 24 46  1  0
 25 47  1  0
 26 48  1  0
 29 49  1  0
 30 50  1  0
 31 51  1  0
 32 52  1  0
M  CHG  1  28  -1
M  END
>  <UniqueID>  (14) 
11

>  <SMILES>  (14) 
CC(=O)Nc1ccccc1-c1ccc(Oc2ccc(-c3nc4ccccc4[n-]3)cc2)cc1

>  <Energy>  (14) 
112.65095362374242

>  <Genealogy>  (14) 
CC(=O)Nc1ccccc1-c1ccc(Oc2ccc(-c3nc4ccccc4[n-]3)cc2)cc1 (protonated)
CC(=O)Nc1ccccc1-c1ccc(Oc2ccc(-c3nc4ccccc4[n-]3)cc2)cc1 (3D coordinates assigned)
CC(=O)Nc1ccccc1-c1ccc(Oc2ccc(-c3nc4ccccc4[n-]3)cc2)cc1 (optimized conformer: 112.65095362374242 kcal/mol)

>  <smiles>  (14) 
CC(=O)Nc1ccccc1-c1ccc(Oc2ccc(-c3nc4ccccc4[nH]3)cc2)cc1

>  <score_type>  (14) 
oracle

>  <origin>  (14) 
adg

>  <m_score__min__energy>  (14) 
-9.4700000000000006

>  <m_primary>  (14) 
energy

$$$$
14:0
     RDKit          3D

 65 67  0  0  0  0  0  0  0  0999 V2000
   58.5838   34.5597   47.0382 H   0  0  0  0  0  0  0  0  0  0  0  0
   58.8070   33.7270   46.3550 C   0  0  0  0  0  0  0  0  0  0  0  0
   59.5770   32.5890   46.8980 C   0  0  0  0  0  0  0  0  0  0  0  0
   58.9660   31.5060   47.1150 O   0  0  0  0  0  0  0  0  0  0  0  0
   60.9840   32.6820   47.2080 N   0  0  0  0  0  0  0  0  0  0  0  0
   61.7870   31.4480   47.2170 C   0  0  0  0  0  0  0  0  0  0  0  0
   61.6738   30.9413   46.2473 H   0  0  0  0  0  0  0  0  0  0  0  0
   61.4281   30.8097   48.0378 H   0  0  0  0  0  0  0  0  0  0  0  0
   63.2690   31.7430   47.4530 C   0  0  0  0  0  0  0  0  0  0  0  0
   63.6954   32.2117   46.5538 H   0  0  0  0  0  0  0  0  0  0  0  0
   63.7963   30.8016   47.6669 H   0  0  0  0  0  0  0  0  0  0  0  0
   63.4210   32.6520   48.5940 N   0  0  0  0  0  0  0  0  0  0  0  0
   64.3380   32.3630   49.6660 C   0  0  0  0  0  0  0  0  0  0  0  0
   65.5480   33.0720   49.7140 C   0  0  0  0  0  0  0  0  0  0  0  0
   65.7032   33.9291   49.0422 H   0  0  0  0  0  0  0  0  0  0  0  0
   66.5560   32.7020   50.6040 C   0  0  0  0  0  0  0  0  0  0  0  0
   68.0690   33.5880   50.6310 Cl  0  0  0  0  0  0  0  0  0  0  0  0
   66.3800   31.5980   51.4320 C   0  0  0  0  0  0  0  0  0  0  0  0
   67.1884   31.2861   52.1097 H   0  0  0  0  0  0  0  0  0  0  0  0
   65.1800   30.8850   51.4050 C   0  0  0  0  0  0  0  0  0  0  0  0
   65.0661   29.9912   52.0360 H   0  0  0  0  0  0  0  0  0  0  0  0
   64.1100   31.2950   50.5790 C   0  0  0  0  0  0  0  0  0  0  0  0
   62.8620   30.5490   50.5610 N   0  0  0  0  0  0  0  0  0  0  0  0
   62.9110   29.8220   51.3130 H   0  0  0  0  0  0  0  0  0  0  0  0
   62.7410   30.0490   49.6560 H   0  0  0  0  0  0  0  0  0  0  0  0
   61.6390   31.3560   50.7680 C   0  0  0  0  0  0  0  0  0  0  0  0
   61.7722   32.3186   50.2526 H   0  0  0  0  0  0  0  0  0  0  0  0
   61.5165   31.4615   51.8561 H   0  0  0  0  0  0  0  0  0  0  0  0
   60.3370   30.7030   50.2420 C   0  0  0  0  0  0  0  0  0  0  0  0
   59.8560   31.3942   49.5343 H   0  0  0  0  0  0  0  0  0  0  0  0
   59.6904   30.4988   51.1081 H   0  0  0  0  0  0  0  0  0  0  0  0
   60.5900   29.4140   49.5520 N   0  0  0  0  0  0  0  0  0  0  0  0
   60.7650   28.3180   50.5380 C   0  0  0  0  0  0  0  0  0  0  0  0
   61.8358   28.1960   50.7580 H   0  0  0  0  0  0  0  0  0  0  0  0
   60.3578   27.3883   50.1139 H   0  0  0  0  0  0  0  0  0  0  0  0
   60.0210   28.6400   51.8280 C   0  0  0  0  0  0  0  0  0  0  0  0
   60.6478   28.3687   52.6903 H   0  0  0  0  0  0  0  0  0  0  0  0
   59.7958   29.7161   51.8625 H   0  0  0  0  0  0  0  0  0  0  0  0
   59.0823   28.0676   51.8625 H   0  0  0  0  0  0  0  0  0  0  0  0
   59.4710   29.0930   48.6290 C   0  0  0  0  0  0  0  0  0  0  0  0
   58.7781   28.4046   49.1349 H   0  0  0  0  0  0  0  0  0  0  0  0
   58.9673   30.0335   48.3610 H   0  0  0  0  0  0  0  0  0  0  0  0
   59.9700   28.4360   47.3410 C   0  0  0  0  0  0  0  0  0  0  0  0
   60.6178   27.5831   47.5916 H   0  0  0  0  0  0  0  0  0  0  0  0
   59.1103   28.0830   46.7525 H   0  0  0  0  0  0  0  0  0  0  0  0
   60.5408   29.1695   46.7525 H   0  0  0  0  0  0  0  0  0  0  0  0
   62.5540   33.8320   48.7230 C   0  0  0  0  0  0  0  0  0  0  0  0
   63.1834   34.7314   48.7941 H   0  0  0  0  0  0  0  0  0  0  0  0
   61.9394   33.7102   49.6271 H   0  0  0  0  0  0  0  0  0  0  0  0
   61.6150   33.9760   47.5210 C   0  0  0  0  0  0  0  0  0  0  0  0
   62.1914   34.3191   46.6492 H   0  0  0  0  0  0  0  0  0  0  0  0
   60.8304   34.7073   47.7651 H   0  0  0  0  0  0  0  0  0  0  0  0
   58.3580   33.8250   45.0930 C   0  0  0  0  0  0  0  0  0  0  0  0
   58.4184   34.8119   44.6110 H   0  0  0  0  0  0  0  0  0  0  0  0
   57.7890   32.7150   44.2980 C   0  0  0  0  0  0  0  0  0  0  0  0
   57.9760   32.7080   42.9070 C   0  0  0  0  0  0  0  0  0  0  0  0
   58.5222   33.5318   42.4243 H   0  0  0  0  0  0  0  0  0  0  0  0
   57.4720   31.6600   42.1320 C   0  0  0  0  0  0  0  0  0  0  0  0
   57.6395   31.6502   41.0449 H   0  0  0  0  0  0  0  0  0  0  0  0
   56.7550   30.6240   42.7380 C   0  0  0  0  0  0  0  0  0  0  0  0
   56.3695   29.7928   42.1293 H   0  0  0  0  0  0  0  0  0  0  0  0
   56.5280   30.6440   44.1160 C   0  0  0  0  0  0  0  0  0  0  0  0
   55.9520   29.8352   44.5893 H   0  0  0  0  0  0  0  0  0  0  0  0
   57.0310   31.6890   44.8940 C   0  0  0  0  0  0  0  0  0  0  0  0
   56.8343   31.7106   45.9761 H   0  0  0  0  0  0  0  0  0  0  0  0
  1  2  1  0
  2  3  1  0
  3  4  2  0
  3  5  1  0
  5  6  1  0
  6  7  1  0
  6  8  1  0
  6  9  1  0
  9 10  1  0
  9 11  1  0
  9 12  1  0
 12 13  1  0
 13 14  2  0
 14 15  1  0
 14 16  1  0
 16 17  1  0
 16 18  2  0
 18 19  1  0
 18 20  1  0
 20 21  1  0
 20 22  2  0
 22 23  1  0
 23 24  1  0
 23 25  1  0
 23 26  1  0
 26 27  1  0
 26 28  1  0
 26 29  1  0
 29 30  1  0
 29 31  1  0
 29 32  1  0
 32 33  1  0
 33 34  1  0
 33 35  1  0
 33 36  1  0
 36 37  1  0
 36 38  1  0
 36 39  1  0
 32 40  1  0
 40 41  1  0
 40 42  1  0
 40 43  1  0
 43 44  1  0
 43 45  1  0
 43 46  1  0
 12 47  1  0
 47 48  1  0
 47 49  1  0
 47 50  1  0
 50 51  1  0
 50 52  1  0
  2 53  2  0
 53 54  1  0
 53 55  1  0
 55 56  2  0
 56 57  1  0
 56 58  1  0
 58 59  1  0
 58 60  2  0
 60 61  1  0
 60 62  1  0
 62 63  1  0
 62 64  2  0
 64 65  1  0
 50  5  1  0
 64 55  1  0
 22 13  1  0
M  CHG  1  23   1
M  END
>  <UniqueID>  (15) 
12

>  <SMILES>  (15) 
CCN(CC)CC[NH2+]c1ccc(Cl)cc1N1CCN(C(=O)/C=C\c2ccccc2)CC1

>  <Energy>  (15) 
82.03545129586729

>  <Genealogy>  (15) 
CCN(CC)CC[NH2+]c1ccc(Cl)cc1N1CCN(C(=O)C=Cc2ccccc2)CC1 (protonated)
CCN(CC)CC[NH2+]c1ccc(Cl)cc1N1CCN(C(=O)/C=C\c2ccccc2)CC1 (cis-trans isomerization)
CCN(CC)CC[NH2+]c1ccc(Cl)cc1N1CCN(C(=O)/C=C\c2ccccc2)CC1 (3D coordinates assigned)
CCN(CC)CC[NH2+]c1ccc(Cl)cc1N1CCN(C(=O)/C=C\c2ccccc2)CC1 (nonaromatic ring conformer: 82.03545129586729 kcal/mol)

>  <smiles>  (15) 
CCN(CC)CCNc1ccc(Cl)cc1N1CCN(C(=O)C=Cc2ccccc2)CC1

>  <score_type>  (15) 
oracle

>  <origin>  (15) 
adg

>  <m_score__min__energy>  (15) 
-6.8099999999999996

>  <m_primary>  (15) 
energy

$$$$
15:0
     RDKit          3D

 40 42  0  0  0  0  0  0  0  0999 V2000
   60.3290   34.2210   46.4020 C   0  0  0  0  0  0  0  0  0  0  0  0
   59.2310   33.6570   47.3000 C   0  0  0  0  0  0  0  0  0  0  0  0
   58.6940   32.3590   46.7420 C   0  0  0  0  0  0  0  0  0  0  0  0
   59.1810   31.1480   47.2570 C   0  0  0  0  0  0  0  0  0  0  0  0
   58.7270   29.9270   46.7470 C   0  0  0  0  0  0  0  0  0  0  0  0
   59.1950   28.7080   47.2530 C   0  0  0  0  0  0  0  0  0  0  0  0
   58.7210   27.5030   46.7260 C   0  0  0  0  0  0  0  0  0  0  0  0
   57.7760   27.4980   45.6830 C   0  0  0  0  0  0  0  0  0  0  0  0
   57.2770   26.2150   45.1250 C   0  0  0  0  0  0  0  0  0  0  0  0
   57.7660   25.7290   43.9000 C   0  0  0  0  0  0  0  0  0  0  0  0
   57.2960   24.5220   43.3760 C   0  0  0  0  0  0  0  0  0  0  0  0
   56.3290   23.7770   44.0600 C   0  0  0  0  0  0  0  0  0  0  0  0
   55.8910   22.5720   43.4920 O   0  0  0  0  0  0  0  0  0  0  0  0
   56.7560   21.5590   42.9870 C   0  0  0  0  0  0  0  0  0  0  0  0
   55.8340   24.2580   45.2870 C   0  0  0  0  0  0  0  0  0  0  0  0
   56.3050   25.4660   45.8120 C   0  0  0  0  0  0  0  0  0  0  0  0
   57.3100   28.7260   45.1780 C   0  0  0  0  0  0  0  0  0  0  0  0
   57.7810   29.9340   45.7040 C   0  0  0  0  0  0  0  0  0  0  0  0
   57.3280   31.1140   45.2090 N   0  0  0  0  0  0  0  0  0  0  0  0
   57.7540   32.3170   45.6820 C   0  0  0  0  0  0  0  0  0  0  0  0
   57.1840   33.5640   45.0710 C   0  0  0  0  0  0  0  0  0  0  0  0
   61.1354   34.6352   47.0249 H   0  0  0  0  0  0  0  0  0  0  0  0
   60.7318   33.4182   45.7670 H   0  0  0  0  0  0  0  0  0  0  0  0
   59.9110   35.0160   45.7670 H   0  0  0  0  0  0  0  0  0  0  0  0
   59.6439   33.4747   48.3031 H   0  0  0  0  0  0  0  0  0  0  0  0
   58.4085   34.3856   47.3506 H   0  0  0  0  0  0  0  0  0  0  0  0
   59.9249   31.1588   48.0673 H   0  0  0  0  0  0  0  0  0  0  0  0
   59.9362   28.6986   48.0658 H   0  0  0  0  0  0  0  0  0  0  0  0
   59.0903   26.5491   47.1306 H   0  0  0  0  0  0  0  0  0  0  0  0
   58.5251   26.3038   43.3492 H   0  0  0  0  0  0  0  0  0  0  0  0
   57.6898   24.1541   42.4170 H   0  0  0  0  0  0  0  0  0  0  0  0
   57.2174   21.0187   43.8268 H   0  0  0  0  0  0  0  0  0  0  0  0
   56.1763   20.8548   42.3721 H   0  0  0  0  0  0  0  0  0  0  0  0
   57.5423   22.0213   42.3721 H   0  0  0  0  0  0  0  0  0  0  0  0
   55.0740   23.6817   45.8350 H   0  0  0  0  0  0  0  0  0  0  0  0
   55.9114   25.8335   46.7712 H   0  0  0  0  0  0  0  0  0  0  0  0
   56.5702   28.7363   44.3640 H   0  0  0  0  0  0  0  0  0  0  0  0
   56.8693   34.2525   45.8690 H   0  0  0  0  0  0  0  0  0  0  0  0
   57.9494   34.0500   44.4481 H   0  0  0  0  0  0  0  0  0  0  0  0
   56.3157   33.3033   44.4481 H   0  0  0  0  0  0  0  0  0  0  0  0
  1  2  1  0
  2  3  1  0
  3  4  2  0
  4  5  1  0
  5  6  2  0
  6  7  1  0
  7  8  2  0
  8  9  1  0
  9 10  2  0
 10 11  1  0
 11 12  2  0
 12 13  1  0
 13 14  1  0
 12 15  1  0
 15 16  2  0
  8 17  1  0
 17 18  2  0
 18 19  1  0
 19 20  2  0
 20 21  1  0
 20  3  1  0
 18  5  1  0
 16  9  1  0
  1 22  1  0
  1 23  1  0
  1 24  1  0
  2 25  1  0
  2 26  1  0
  4 27  1  0
  6 28  1  0
  7 29  1  0
 10 30  1  0
 11 31  1  0
 14 32  1  0
 14 33  1  0
 14 34  1  0
 15 35  1  0
 16 36  1  0
 17 37  1  0
 21 38  1  0
 21 39  1  0
 21 40  1  0
M  END
>  <UniqueID>  (16) 
13

>  <SMILES>  (16) 
CCc1cc2ccc(-c3ccc(OC)cc3)cc2nc1C

>  <Energy>  (16) 
47.0899932771248

>  <Genealogy>  (16) 
CCc1cc2ccc(-c3ccc(OC)cc3)cc2nc1C (3D coordinates assigned)
CCc1cc2ccc(-c3ccc(OC)cc3)cc2nc1C (optimized conformer: 47.0899932771248 kcal/mol)

>  <smiles>  (16) 
CCc1cc2ccc(-c3ccc(OC)cc3)cc2nc1C

>  <score_type>  (16) 
oracle

>  <origin>  (16) 
adg

>  <m_score__min__energy>  (16) 
-7.4900000000000002

>  <m_primary>  (16) 
energy

$$$$
16:0
     RDKit          3D

 41 43  0  0  0  0  0  0  0  0999 V2000
   57.1860   32.0590   41.3160 C   0  0  0  0  0  0  0  0  0  0  0  0
   58.1470   32.1530   42.5000 C   0  0  0  0  0  0  0  0  0  0  0  0
   57.6460   31.4030   43.6580 N   0  0  0  0  0  0  0  0  0  0  0  0
   56.2910   30.8360   43.6500 C   0  0  0  0  0  0  0  0  0  0  0  0
   56.3250   29.3780   44.1260 C   0  0  0  0  0  0  0  0  0  0  0  0
   57.3920   28.6270   43.4690 N   0  0  0  0  0  0  0  0  0  0  0  0
   58.3660   31.4650   44.9020 C   0  0  0  0  0  0  0  0  0  0  0  0
   58.7100   30.3130   45.5490 N   0  0  0  0  0  0  0  0  0  0  0  0
   59.4090   30.3450   46.7270 C   0  0  0  0  0  0  0  0  0  0  0  0
   59.7870   29.1060   47.4440 C   0  0  0  0  0  0  0  0  0  0  0  0
   60.3830   29.1310   48.7190 C   0  0  0  0  0  0  0  0  0  0  0  0
   60.7050   27.9270   49.3500 C   0  0  0  0  0  0  0  0  0  0  0  0
   60.4300   26.7140   48.7200 C   0  0  0  0  0  0  0  0  0  0  0  0
   59.8240   26.7220   47.4630 C   0  0  0  0  0  0  0  0  0  0  0  0
   59.5170   27.9030   46.8630 N   0  0  0  0  0  0  0  0  0  0  0  0
   59.7480   31.5450   47.2740 N   0  0  0  0  0  0  0  0  0  0  0  0
   59.4180   32.7050   46.6530 C   0  0  0  0  0  0  0  0  0  0  0  0
   58.7260   32.6950   45.4670 C   0  0  0  0  0  0  0  0  0  0  0  0
   58.4290   34.0330   44.8940 C   0  0  0  0  0  0  0  0  0  0  0  0
   59.2760   35.2700   45.9400 S   0  0  0  0  0  0  0  0  0  0  0  0
   59.7700   34.0360   47.1950 C   0  0  0  0  0  0  0  0  0  0  0  0
   56.1555   31.9582   41.6873 H   0  0  0  0  0  0  0  0  0  0  0  0
   57.2679   32.9694   40.7041 H   0  0  0  0  0  0  0  0  0  0  0  0
   57.4427   31.1817   40.7041 H   0  0  0  0  0  0  0  0  0  0  0  0
   59.1228   31.7417   42.2023 H   0  0  0  0  0  0  0  0  0  0  0  0
   58.2400   33.2108   42.7869 H   0  0  0  0  0  0  0  0  0  0  0  0
   55.6474   31.4228   44.3219 H   0  0  0  0  0  0  0  0  0  0  0  0
   55.8932   30.8702   42.6250 H   0  0  0  0  0  0  0  0  0  0  0  0
   56.4921   29.3603   45.2131 H   0  0  0  0  0  0  0  0  0  0  0  0
   55.3636   28.9083   43.8709 H   0  0  0  0  0  0  0  0  0  0  0  0
   56.9690   27.8200   42.9550 H   0  0  0  0  0  0  0  0  0  0  0  0
   57.8570   29.2450   42.7660 H   0  0  0  0  0  0  0  0  0  0  0  0
   58.3920   29.4050   45.1460 H   0  0  0  0  0  0  0  0  0  0  0  0
   60.5934   30.0904   49.2142 H   0  0  0  0  0  0  0  0  0  0  0  0
   61.1757   27.9359   50.3442 H   0  0  0  0  0  0  0  0  0  0  0  0
   60.6876   25.7623   49.2078 H   0  0  0  0  0  0  0  0  0  0  0  0
   59.5946   25.7725   46.9573 H   0  0  0  0  0  0  0  0  0  0  0  0
   58.8040   34.0924   43.8616 H   0  0  0  0  0  0  0  0  0  0  0  0
   57.3446   34.2166   44.8731 H   0  0  0  0  0  0  0  0  0  0  0  0
   60.8531   34.0954   47.3777 H   0  0  0  0  0  0  0  0  0  0  0  0
   59.2566   34.2197   48.1504 H   0  0  0  0  0  0  0  0  0  0  0  0
  1  2  1  0
  2  3  1  0
  3  4  1  0
  4  5  1  0
  5  6  1  0
  3  7  1  0
  7  8  2  0
  8  9  1  0
  9 10  1  0
 10 11  2  0
 11 12  1  0
 12 13  2  0
 13 14  1  0
 14 15  2  0
  9 16  2  0
 16 17  1  0
 17 18  2  0
 18 19  1  0
 19 20  1  0
 20 21  1  0
 18  7  1  0
 15 10  1  0
 21 17  1  0
  1 22  1  0
  1 23  1  0
  1 24  1  0
  2 25  1  0
  2 26  1  0
  4 27  1  0
  4 28  1  0
  5 29  1  0
  5 30  1  0
  6 31  1  0
  6 32  1  0
  8 33  1  0
 11 34  1  0
 12 35  1  0
 13 36  1  0
 14 37  1  0
 19 38  1  0
 19 39  1  0
 21 40  1  0
 21 41  1  0
M  CHG  1   8   1
M  END
>  <UniqueID>  (17) 
14

>  <SMILES>  (17) 
CCN(CCN)c1[nH+]c(-c2ccccn2)nc2c1CSC2

>  <Energy>  (17) 
43.237377198598764

>  <Genealogy>  (17) 
CCN(CCN)c1[nH+]c(-c2ccccn2)nc2c1CSC2 (protonated)
CCN(CCN)c1[nH+]c(-c2ccccn2)nc2c1CSC2 (3D coordinates assigned)
CCN(CCN)c1[nH+]c(-c2ccccn2)nc2c1CSC2 (nonaromatic ring conformer: 43.237377198598764 kcal/mol)

>  <smiles>  (17) 
CCN(CCN)c1nc(-c2ccccn2)nc2c1CSC2

>  <score_type>  (17) 
oracle

>  <origin>  (17) 
adg

>  <m_score__min__energy>  (17) 
-5.8300000000000001

>  <m_primary>  (17) 
energy

$$$$
17:0
     RDKit          3D

 49 52  0  0  0  0  0  0  0  0999 V2000
   58.4660   27.0450   43.8300 C   0  0  0  0  0  0  0  0  0  0  0  0
   58.5910   28.2570   44.7150 C   0  0  0  0  0  0  0  0  0  0  0  0
   57.9090   29.4400   44.3830 C   0  0  0  0  0  0  0  0  0  0  0  0
   57.9870   30.5620   45.2110 C   0  0  0  0  0  0  0  0  0  0  0  0
   58.7720   30.5340   46.3770 C   0  0  0  0  0  0  0  0  0  0  0  0
   59.4350   29.3410   46.7230 C   0  0  0  0  0  0  0  0  0  0  0  0
   59.3430   28.2090   45.9060 C   0  0  0  0  0  0  0  0  0  0  0  0
   60.1900   26.7460   46.4000 Cl  0  0  0  0  0  0  0  0  0  0  0  0
   58.9560   31.7450   47.1450 N   0  0  0  0  0  0  0  0  0  0  0  0
   59.2440   31.6860   48.5490 C   0  0  0  0  0  0  0  0  0  0  0  0
   58.3530   32.0060   49.3820 O   0  0  0  0  0  0  0  0  0  0  0  0
   60.6050   31.2510   49.0330 C   0  0  0  0  0  0  0  0  0  0  0  0
   61.2710   32.3130   49.8380 N   0  0  1  0  0  0  0  0  0  0  0  0
   62.3740   31.7680   50.6630 C   0  0  0  0  0  0  0  0  0  0  0  0
   63.5410   31.2390   49.8000 C   0  0  0  0  0  0  0  0  0  0  0  0
   63.5750   31.8450   48.4610 N   0  0  0  0  0  0  0  0  0  0  0  0
   63.2210   33.2690   48.5140 C   0  0  1  0  0  0  0  0  0  0  0  0
   63.4200   33.9140   47.1370 C   0  0  0  0  0  0  0  0  0  0  0  0
   61.7510   33.4410   48.9960 C   0  0  0  0  0  0  0  0  0  0  0  0
   58.9770   33.0130   46.4500 C   0  0  0  0  0  0  0  0  0  0  0  0
   59.8530   34.0440   46.8420 C   0  0  0  0  0  0  0  0  0  0  0  0
   59.9860   35.1980   46.0610 C   0  0  0  0  0  0  0  0  0  0  0  0
   59.2510   35.3340   44.8810 C   0  0  0  0  0  0  0  0  0  0  0  0
   58.3600   34.3290   44.4940 C   0  0  0  0  0  0  0  0  0  0  0  0
   58.2110   33.1790   45.2810 C   0  0  0  0  0  0  0  0  0  0  0  0
   56.9410   31.9820   44.8760 S   0  0  0  0  0  0  0  0  0  0  0  0
   58.3730   26.1436   44.4536 H   0  0  0  0  0  0  0  0  0  0  0  0
   57.5734   27.1452   43.1950 H   0  0  0  0  0  0  0  0  0  0  0  0
   59.3602   26.9609   43.1950 H   0  0  0  0  0  0  0  0  0  0  0  0
   57.3082   29.4827   43.4625 H   0  0  0  0  0  0  0  0  0  0  0  0
   60.0320   29.2985   47.6460 H   0  0  0  0  0  0  0  0  0  0  0  0
   60.4908   30.3512   49.6554 H   0  0  0  0  0  0  0  0  0  0  0  0
   61.2316   31.0456   48.1526 H   0  0  0  0  0  0  0  0  0  0  0  0
   60.5690   32.7040   50.5150 H   0  0  0  0  0  0  0  0  0  0  0  0
   62.7522   32.5650   51.3202 H   0  0  0  0  0  0  0  0  0  0  0  0
   61.9752   30.9245   51.2457 H   0  0  0  0  0  0  0  0  0  0  0  0
   64.4880   31.4639   50.3124 H   0  0  0  0  0  0  0  0  0  0  0  0
   63.3958   30.1562   49.6716 H   0  0  0  0  0  0  0  0  0  0  0  0
   64.5540   31.7460   48.0950 H   0  0  0  0  0  0  0  0  0  0  0  0
   63.8819   33.7746   49.2335 H   0  0  0  0  0  0  0  0  0  0  0  0
   63.7421   34.9581   47.2643 H   0  0  0  0  0  0  0  0  0  0  0  0
   64.1885   33.3585   46.5795 H   0  0  0  0  0  0  0  0  0  0  0  0
   62.4721   33.8881   46.5795 H   0  0  0  0  0  0  0  0  0  0  0  0
   61.6827   34.3685   49.5834 H   0  0  0  0  0  0  0  0  0  0  0  0
   61.1157   33.4702   48.0985 H   0  0  0  0  0  0  0  0  0  0  0  0
   60.4368   33.9415   47.7686 H   0  0  0  0  0  0  0  0  0  0  0  0
   60.6704   35.9991   46.3770 H   0  0  0  0  0  0  0  0  0  0  0  0
   59.3733   36.2314   44.2567 H   0  0  0  0  0  0  0  0  0  0  0  0
   57.7744   34.4410   43.5696 H   0  0  0  0  0  0  0  0  0  0  0  0
  1  2  1  0
  2  3  2  0
  3  4  1  0
  4  5  2  0
  5  6  1  0
  6  7  2  0
  7  8  1  0
  5  9  1  0
  9 10  1  0
 10 11  2  0
 10 12  1  0
 12 13  1  0
 13 14  1  0
 14 15  1  0
 15 16  1  0
 16 17  1  0
 17 18  1  0
 17 19  1  0
  9 20  1  0
 20 21  2  0
 21 22  1  0
 22 23  2  0
 23 24  1  0
 24 25  2  0
 25 26  1  0
  7  2  1  0
 19 13  1  0
 25 20  1  0
 26  4  1  0
  1 27  1  0
  1 28  1  0
  1 29  1  0
  3 30  1  0
  6 31  1  0
 12 32  1  0
 12 33  1  0
 13 34  1  1
 14 35  1  0
 14 36  1  0
 15 37  1  0
 15 38  1  0
 16 39  1  0
 17 40  1  1
 18 41  1  0
 18 42  1  0
 18 43  1  0
 19 44  1  0
 19 45  1  0
 21 46  1  0
 22 47  1  0
 23 48  1  0
 24 49  1  0
M  CHG  1  13   1
M  END
>  <UniqueID>  (18) 
15

>  <SMILES>  (18) 
Cc1cc2c(cc1Cl)N(C(=O)C[N@H+]1CCN[C@@H](C)C1)c1ccccc1S2

>  <Energy>  (18) 
84.38280046936319

>  <Genealogy>  (18) 
Cc1cc2c(cc1Cl)N(C(=O)C[NH+]1CCNC(C)C1)c1ccccc1S2 (protonated)
Cc1cc2c(cc1Cl)N(C(=O)C[N@H+]1CCN[C@@H](C)C1)c1ccccc1S2 (chirality)
Cc1cc2c(cc1Cl)N(C(=O)C[N@H+]1CCN[C@@H](C)C1)c1ccccc1S2 (3D coordinates assigned)
Cc1cc2c(cc1Cl)N(C(=O)C[N@H+]1CCN[C@@H](C)C1)c1ccccc1S2 (nonaromatic ring conformer: 84.38280046936319 kcal/mol)

>  <smiles>  (18) 
Cc1cc2c(cc1Cl)N(C(=O)CN1CCNC(C)C1)c1ccccc1S2

>  <score_type>  (18) 
oracle

>  <origin>  (18) 
adg

>  <m_score__min__energy>  (18) 
-7.3899999999999997

>  <m_primary>  (18) 
energy

$$$$
18:0
     RDKit          3D

 32 33  0  0  0  0  0  0  0  0999 V2000
   62.7390   33.8430   46.3710 C   0  0  0  0  0  0  0  0  0  0  0  0
   61.3170   33.7720   46.8290 C   0  0  0  0  0  0  0  0  0  0  0  0
   61.0160   33.4650   48.1600 C   0  0  0  0  0  0  0  0  0  0  0  0
   59.6730   33.4060   48.5450 C   0  0  0  0  0  0  0  0  0  0  0  0
   59.3030   33.0750   49.9550 C   0  0  0  0  0  0  0  0  0  0  0  0
   58.6990   33.6370   47.6250 N   0  0  0  0  0  0  0  0  0  0  0  0
   59.0090   33.9290   46.3340 C   0  0  0  0  0  0  0  0  0  0  0  0
   57.7040   34.2200   45.1440 S   0  0  0  0  0  0  0  0  0  0  0  0
   58.1380   32.7900   44.0920 C   0  0  0  0  0  0  0  0  0  0  0  0
   57.7190   31.5010   44.7370 C   0  0  0  0  0  0  0  0  0  0  0  0
   56.5010   31.1770   44.7240 O   0  0  0  0  0  0  0  0  0  0  0  0
   58.6950   30.6210   45.4070 C   0  0  0  0  0  0  0  0  0  0  0  0
   58.8250   29.2590   45.2160 C   0  0  0  0  0  0  0  0  0  0  0  0
   59.8560   28.9040   46.0640 C   0  0  0  0  0  0  0  0  0  0  0  0
   60.4230   27.5370   46.2380 C   0  0  0  0  0  0  0  0  0  0  0  0
   60.2880   29.9760   46.6870 O   0  0  0  0  0  0  0  0  0  0  0  0
   59.6090   31.0200   46.3150 N   0  0  0  0  0  0  0  0  0  0  0  0
   60.3080   33.9980   45.9470 N   0  0  0  0  0  0  0  0  0  0  0  0
   63.4048   33.8762   47.2460 H   0  0  0  0  0  0  0  0  0  0  0  0
   62.9738   32.9555   45.7651 H   0  0  0  0  0  0  0  0  0  0  0  0
   62.8842   34.7495   45.7651 H   0  0  0  0  0  0  0  0  0  0  0  0
   61.8182   33.2741   48.8880 H   0  0  0  0  0  0  0  0  0  0  0  0
   59.9413   33.6460   50.6453 H   0  0  0  0  0  0  0  0  0  0  0  0
   58.2489   33.3371   50.1286 H   0  0  0  0  0  0  0  0  0  0  0  0
   59.4465   31.9983   50.1286 H   0  0  0  0  0  0  0  0  0  0  0  0
   57.6286   32.8892   43.1221 H   0  0  0  0  0  0  0  0  0  0  0  0
   59.2292   32.7745   43.9543 H   0  0  0  0  0  0  0  0  0  0  0  0
   58.2435   28.6092   44.5455 H   0  0  0  0  0  0  0  0  0  0  0  0
   60.5161   27.3125   47.3108 H   0  0  0  0  0  0  0  0  0  0  0  0
   59.7561   26.8006   45.7658 H   0  0  0  0  0  0  0  0  0  0  0  0
   61.4153   27.4888   45.7658 H   0  0  0  0  0  0  0  0  0  0  0  0
   59.7670   31.9870   46.6730 H   0  0  0  0  0  0  0  0  0  0  0  0
  1  2  1  0
  2  3  2  0
  3  4  1  0
  4  5  1  0
  4  6  2  0
  6  7  1  0
  7  8  1  0
  8  9  1  0
  9 10  1  0
 10 11  2  0
 10 12  1  0
 12 13  1  0
 13 14  2  0
 14 15  1  0
 14 16  1  0
 16 17  1  0
  7 18  2  0
 18  2  1  0
 17 12  2  0
  1 19  1  0
  1 20  1  0
  1 21  1  0
  3 22  1  0
  5 23  1  0
  5 24  1  0
  5 25  1  0
  9 26  1  0
  9 27  1  0
 13 28  1  0
 15 29  1  0
 15 30  1  0
 15 31  1  0
 17 32  1  0
M  CHG  1  17   1
M  END
>  <UniqueID>  (19) 
16

>  <SMILES>  (19) 
Cc1cc(C)nc(SCC(=O)c2cc(C)o[nH+]2)n1

>  <Energy>  (19) 
54.175144268709495

>  <Genealogy>  (19) 
Cc1cc(C)nc(SCC(=O)c2cc(C)o[nH+]2)n1 (protonated)
Cc1cc(C)nc(SCC(=O)c2cc(C)o[nH+]2)n1 (3D coordinates assigned)
Cc1cc(C)nc(SCC(=O)c2cc(C)o[nH+]2)n1 (optimized conformer: 54.175144268709495 kcal/mol)

>  <smiles>  (19) 
Cc1cc(C)nc(SCC(=O)c2cc(C)on2)n1

>  <score_type>  (19) 
oracle

>  <origin>  (19) 
adg

>  <m_score__min__energy>  (19) 
-5.2000000000000002

>  <m_primary>  (19) 
energy

$$$$
19:0
     RDKit          3D

 42 43  0  0  0  0  0  0  0  0999 V2000
   56.6450   26.6550   45.9830 C   0  0  0  0  0  0  0  0  0  0  0  0
   55.9240   27.8220   45.6000 O   0  0  0  0  0  0  0  0  0  0  0  0
   56.5030   28.9450   44.9920 C   0  0  0  0  0  0  0  0  0  0  0  0
   55.7630   29.6310   44.0210 C   0  0  0  0  0  0  0  0  0  0  0  0
   56.2950   30.7580   43.3880 C   0  0  0  0  0  0  0  0  0  0  0  0
   57.5810   31.2130   43.7160 C   0  0  0  0  0  0  0  0  0  0  0  0
   58.1440   32.4520   43.0720 C   0  0  0  0  0  0  0  0  0  0  0  0
   58.6740   33.3550   44.1000 N   0  0  0  0  0  0  0  0  0  0  0  0
   57.6080   33.8630   44.9740 C   0  0  0  0  0  0  0  0  0  0  0  0
   57.8780   33.4740   46.4350 C   0  0  0  0  0  0  0  0  0  0  0  0
   58.9150   34.3780   47.1300 C   0  0  0  0  0  0  0  0  0  0  0  0
   60.2370   34.5410   46.3610 C   0  0  0  0  0  0  0  0  0  0  0  0
   61.2700   33.5150   46.7580 C   0  0  0  0  0  0  0  0  0  0  0  0
   60.8840   32.2200   47.1360 C   0  0  0  0  0  0  0  0  0  0  0  0
   61.8600   31.2870   47.4930 C   0  0  0  0  0  0  0  0  0  0  0  0
   63.1730   31.6340   47.4810 N   0  0  0  0  0  0  0  0  0  0  0  0
   63.5770   32.8830   47.1290 C   0  0  0  0  0  0  0  0  0  0  0  0
   62.6340   33.8470   46.7640 C   0  0  0  0  0  0  0  0  0  0  0  0
   58.3240   30.5290   44.6880 C   0  0  0  0  0  0  0  0  0  0  0  0
   57.7930   29.4020   45.3230 C   0  0  0  0  0  0  0  0  0  0  0  0
   56.6840   26.5918   47.0805 H   0  0  0  0  0  0  0  0  0  0  0  0
   56.1398   25.7639   45.5822 H   0  0  0  0  0  0  0  0  0  0  0  0
   57.6680   26.7080   45.5822 H   0  0  0  0  0  0  0  0  0  0  0  0
   54.7551   29.2802   43.7543 H   0  0  0  0  0  0  0  0  0  0  0  0
   55.7027   31.2905   42.6293 H   0  0  0  0  0  0  0  0  0  0  0  0
   58.9536   32.1688   42.3833 H   0  0  0  0  0  0  0  0  0  0  0  0
   57.3450   32.9656   42.5172 H   0  0  0  0  0  0  0  0  0  0  0  0
   59.1070   34.1770   43.6160 H   0  0  0  0  0  0  0  0  0  0  0  0
   57.5656   34.9592   44.8933 H   0  0  0  0  0  0  0  0  0  0  0  0
   56.6505   33.4219   44.6599 H   0  0  0  0  0  0  0  0  0  0  0  0
   56.9319   33.5368   46.9926 H   0  0  0  0  0  0  0  0  0  0  0  0
   58.2907   32.4544   46.4275 H   0  0  0  0  0  0  0  0  0  0  0  0
   58.4687   35.3748   47.2610 H   0  0  0  0  0  0  0  0  0  0  0  0
   59.1660   33.8901   48.0834 H   0  0  0  0  0  0  0  0  0  0  0  0
   60.0336   34.4379   45.2849 H   0  0  0  0  0  0  0  0  0  0  0  0
   60.6433   35.5339   46.6039 H   0  0  0  0  0  0  0  0  0  0  0  0
   59.8199   31.9416   47.1510 H   0  0  0  0  0  0  0  0  0  0  0  0
   61.5645   30.2684   47.7847 H   0  0  0  0  0  0  0  0  0  0  0  0
   64.6477   33.1352   47.1315 H   0  0  0  0  0  0  0  0  0  0  0  0
   62.9583   34.8599   46.4831 H   0  0  0  0  0  0  0  0  0  0  0  0
   59.3318   30.8812   44.9531 H   0  0  0  0  0  0  0  0  0  0  0  0
   58.3847   28.8710   46.0832 H   0  0  0  0  0  0  0  0  0  0  0  0
  1  2  1  0
  2  3  1  0
  3  4  2  0
  4  5  1  0
  5  6  2  0
  6  7  1  0
  7  8  1  0
  8  9  1  0
  9 10  1  0
 10 11  1  0
 11 12  1  0
 12 13  1  0
 13 14  2  0
 14 15  1  0
 15 16  2  0
 16 17  1  0
 17 18  2  0
  6 19  1  0
 19 20  2  0
 20  3  1  0
 18 13  1  0
  1 21  1  0
  1 22  1  0
  1 23  1  0
  4 24  1  0
  5 25  1  0
  7 26  1  0
  7 27  1  0
  8 28  1  0
  9 29  1  0
  9 30  1  0
 10 31  1  0
 10 32  1  0
 11 33  1  0
 11 34  1  0
 12 35  1  0
 12 36  1  0
 14 37  1  0
 15 38  1  0
 17 39  1  0
 18 40  1  0
 19 41  1  0
 20 42  1  0
M  END
>  <UniqueID>  (20) 
17

>  <SMILES>  (20) 
COc1ccc(CNCCCCc2ccncc2)cc1

>  <Energy>  (20) 
35.02961901159508

>  <Genealogy>  (20) 
COc1ccc(CNCCCCc2ccncc2)cc1 (3D coordinates assigned)
COc1ccc(CNCCCCc2ccncc2)cc1 (optimized conformer: 35.02961901159508 kcal/mol)

>  <smiles>  (20) 
COc1ccc(CNCCCCc2ccncc2)cc1

>  <score_type>  (20) 
oracle

>  <origin>  (20) 
adg

>  <m_score__min__energy>  (20) 
-6.6799999999999997

>  <m_primary>  (20) 
energy

$$$$
20:0
     RDKit          3D

 43 45  0  0  0  0  0  0  0  0999 V2000
   55.6290   29.7130   43.4420 C   0  0  0  0  0  0  0  0  0  0  0  0
   55.8990   29.6490   44.8380 O   0  0  0  0  0  0  0  0  0  0  0  0
   57.1640   29.8270   45.4170 C   0  0  0  0  0  0  0  0  0  0  0  0
   57.8300   28.7680   46.0660 C   0  0  0  0  0  0  0  0  0  0  0  0
   59.0960   28.9590   46.6210 C   0  0  0  0  0  0  0  0  0  0  0  0
   59.7190   30.2030   46.5310 C   0  0  0  0  0  0  0  0  0  0  0  0
   61.4530   30.4590   47.2880 Br  0  0  0  0  0  0  0  0  0  0  0  0
   59.0730   31.2620   45.8910 C   0  0  0  0  0  0  0  0  0  0  0  0
   57.7880   31.0940   45.3420 C   0  0  0  0  0  0  0  0  0  0  0  0
   57.1010   32.2840   44.6970 C   0  0  0  0  0  0  0  0  0  0  0  0
   57.2930   33.5640   45.4220 N   0  0  0  0  0  0  0  0  0  0  0  0
   57.3940   33.4580   46.8970 C   0  0  0  0  0  0  0  0  0  0  0  0
   58.5280   34.2990   47.4980 C   0  0  0  0  0  0  0  0  0  0  0  0
   59.7300   34.1980   46.6640 N   0  0  0  0  0  0  0  0  0  0  0  0
   61.0290   34.0570   47.2720 C   0  0  0  0  0  0  0  0  0  0  0  0
   62.1690   33.8420   46.4780 C   0  0  0  0  0  0  0  0  0  0  0  0
   63.4270   33.6990   47.0700 C   0  0  0  0  0  0  0  0  0  0  0  0
   63.5600   33.7720   48.4580 C   0  0  0  0  0  0  0  0  0  0  0  0
   62.4350   33.9870   49.2580 C   0  0  0  0  0  0  0  0  0  0  0  0
   61.1740   34.1290   48.6700 C   0  0  0  0  0  0  0  0  0  0  0  0
   59.6260   34.4470   45.2210 C   0  0  0  0  0  0  0  0  0  0  0  0
   58.1590   34.5720   44.7750 C   0  0  0  0  0  0  0  0  0  0  0  0
   54.5697   29.9641   43.2846 H   0  0  0  0  0  0  0  0  0  0  0  0
   56.2615   30.4861   42.9813 H   0  0  0  0  0  0  0  0  0  0  0  0
   55.8472   28.7383   42.9813 H   0  0  0  0  0  0  0  0  0  0  0  0
   57.3475   27.7819   46.1357 H   0  0  0  0  0  0  0  0  0  0  0  0
   59.6034   28.1265   47.1304 H   0  0  0  0  0  0  0  0  0  0  0  0
   59.5737   32.2385   45.8149 H   0  0  0  0  0  0  0  0  0  0  0  0
   57.4990   32.4016   43.6783 H   0  0  0  0  0  0  0  0  0  0  0  0
   56.0218   32.0717   44.7113 H   0  0  0  0  0  0  0  0  0  0  0  0
   56.4426   33.7933   47.3355 H   0  0  0  0  0  0  0  0  0  0  0  0
   57.6148   32.4059   47.1300 H   0  0  0  0  0  0  0  0  0  0  0  0
   58.2108   35.3509   47.5524 H   0  0  0  0  0  0  0  0  0  0  0  0
   58.7579   33.9236   48.5061 H   0  0  0  0  0  0  0  0  0  0  0  0
   62.0703   33.7860   45.3839 H   0  0  0  0  0  0  0  0  0  0  0  0
   64.3136   33.5287   46.4415 H   0  0  0  0  0  0  0  0  0  0  0  0
   64.5511   33.6602   48.9219 H   0  0  0  0  0  0  0  0  0  0  0  0
   62.5411   34.0446   50.3514 H   0  0  0  0  0  0  0  0  0  0  0  0
   60.2908   34.2979   49.3036 H   0  0  0  0  0  0  0  0  0  0  0  0
   60.1536   35.3818   44.9806 H   0  0  0  0  0  0  0  0  0  0  0  0
   60.0768   33.5954   44.6903 H   0  0  0  0  0  0  0  0  0  0  0  0
   57.7927   35.5754   45.0378 H   0  0  0  0  0  0  0  0  0  0  0  0
   58.1200   34.4046   43.6885 H   0  0  0  0  0  0  0  0  0  0  0  0
  1  2  1  0
  2  3  1  0
  3  4  2  0
  4  5  1  0
  5  6  2  0
  6  7  1  0
  6  8  1  0
  8  9  2  0
  9 10  1  0
 10 11  1  0
 11 12  1  0
 12 13  1  0
 13 14  1  0
 14 15  1  0
 15 16  2  0
 16 17  1  0
 17 18  2  0
 18 19  1  0
 19 20  2  0
 14 21  1  0
 21 22  1  0
  9  3  1  0
 22 11  1  0
 20 15  1  0
  1 23  1  0
  1 24  1  0
  1 25  1  0
  4 26  1  0
  5 27  1  0
  8 28  1  0
 10 29  1  0
 10 30  1  0
 12 31  1  0
 12 32  1  0
 13 33  1  0
 13 34  1  0
 16 35  1  0
 17 36  1  0
 18 37  1  0
 19 38  1  0
 20 39  1  0
 21 40  1  0
 21 41  1  0
 22 42  1  0
 22 43  1  0
M  END
>  <UniqueID>  (21) 
18

>  <SMILES>  (21) 
COc1ccc(Br)cc1CN1CCN(c2ccccc2)CC1

>  <Energy>  (21) 
59.02009526344624

>  <Genealogy>  (21) 
COc1ccc(Br)cc1CN1CCN(c2ccccc2)CC1 (3D coordinates assigned)
COc1ccc(Br)cc1CN1CCN(c2ccccc2)CC1 (nonaromatic ring conformer: 59.02009526344624 kcal/mol)

>  <smiles>  (21) 
COc1ccc(Br)cc1CN1CCN(c2ccccc2)CC1

>  <score_type>  (21) 
oracle

>  <origin>  (21) 
adg

>  <m_score__min__energy>  (21) 
-7.8499999999999996

>  <m_primary>  (21) 
energy

$$$$
21:0
     RDKit          3D

 43 45  0  0  0  0  0  0  0  0999 V2000
   64.1100   32.2210   51.0900 C   0  0  0  0  0  0  0  0  0  0  0  0
   64.3290   32.9060   49.7740 C   0  0  0  0  0  0  0  0  0  0  0  0
   65.5140   33.0890   49.3800 O   0  0  0  0  0  0  0  0  0  0  0  0
   63.2210   33.3720   48.9730 N   0  0  0  0  0  0  0  0  0  0  0  0
   63.4570   33.8750   47.6120 C   0  0  0  0  0  0  0  0  0  0  0  0
   62.3150   33.4530   46.6820 C   0  0  0  0  0  0  0  0  0  0  0  0
   61.0000   33.7610   47.2640 N   0  0  0  0  0  0  0  0  0  0  0  0
   59.8270   33.6050   46.4430 C   0  0  0  0  0  0  0  0  0  0  0  0
   59.4110   34.6430   45.6690 N   0  0  0  0  0  0  0  0  0  0  0  0
   58.3100   34.5440   44.8830 C   0  0  0  0  0  0  0  0  0  0  0  0
   57.5980   33.3890   44.8530 N   0  0  0  0  0  0  0  0  0  0  0  0
   57.9610   32.3150   45.6010 C   0  0  0  0  0  0  0  0  0  0  0  0
   57.1750   31.1540   45.5250 O   0  0  0  0  0  0  0  0  0  0  0  0
   57.6300   29.9050   45.0790 C   0  0  0  0  0  0  0  0  0  0  0  0
   58.4790   29.1720   45.9180 C   0  0  0  0  0  0  0  0  0  0  0  0
   58.9820   27.9360   45.5090 C   0  0  0  0  0  0  0  0  0  0  0  0
   58.6330   27.4160   44.2610 C   0  0  0  0  0  0  0  0  0  0  0  0
   57.7640   28.1240   43.4270 C   0  0  0  0  0  0  0  0  0  0  0  0
   57.2340   29.3600   43.8330 C   0  0  0  0  0  0  0  0  0  0  0  0
   56.2680   30.0750   42.9290 C   0  0  0  0  0  0  0  0  0  0  0  0
   59.0840   32.4100   46.4430 C   0  0  0  0  0  0  0  0  0  0  0  0
   59.4020   31.4010   47.2910 F   0  0  0  0  0  0  0  0  0  0  0  0
   60.8970   34.2170   48.6580 C   0  0  0  0  0  0  0  0  0  0  0  0
   61.8690   33.4390   49.5530 C   0  0  0  0  0  0  0  0  0  0  0  0
   64.3336   32.9204   51.9091 H   0  0  0  0  0  0  0  0  0  0  0  0
   63.0624   31.8936   51.1631 H   0  0  0  0  0  0  0  0  0  0  0  0
   64.7734   31.3466   51.1631 H   0  0  0  0  0  0  0  0  0  0  0  0
   63.5176   34.9731   47.6367 H   0  0  0  0  0  0  0  0  0  0  0  0
   64.3999   33.4532   47.2339 H   0  0  0  0  0  0  0  0  0  0  0  0
   62.4166   33.9884   45.7265 H   0  0  0  0  0  0  0  0  0  0  0  0
   62.3782   32.3651   46.5318 H   0  0  0  0  0  0  0  0  0  0  0  0
   57.9940   35.4005   44.2694 H   0  0  0  0  0  0  0  0  0  0  0  0
   58.7510   29.5731   46.9055 H   0  0  0  0  0  0  0  0  0  0  0  0
   59.6545   27.3706   46.1709 H   0  0  0  0  0  0  0  0  0  0  0  0
   59.0424   26.4487   43.9344 H   0  0  0  0  0  0  0  0  0  0  0  0
   57.4926   27.7103   42.4446 H   0  0  0  0  0  0  0  0  0  0  0  0
   55.5314   30.6202   43.5374 H   0  0  0  0  0  0  0  0  0  0  0  0
   56.8173   30.7858   42.2942 H   0  0  0  0  0  0  0  0  0  0  0  0
   55.7487   29.3420   42.2942 H   0  0  0  0  0  0  0  0  0  0  0  0
   61.1396   35.2888   48.7067 H   0  0  0  0  0  0  0  0  0  0  0  0
   59.8707   34.0429   49.0134 H   0  0  0  0  0  0  0  0  0  0  0  0
   61.9269   33.9377   50.5317 H   0  0  0  0  0  0  0  0  0  0  0  0
   61.4907   32.4108   49.6516 H   0  0  0  0  0  0  0  0  0  0  0  0
  1  2  1  0
  2  3  2  0
  2  4  1  0
  4  5  1  0
  5  6  1  0
  6  7  1  0
  7  8  1  0
  8  9  2  0
  9 10  1  0
 10 11  2  0
 11 12  1  0
 12 13  1  0
 13 14  1  0
 14 15  2  0
 15 16  1  0
 16 17  2  0
 17 18  1  0
 18 19  2  0
 19 20  1  0
 12 21  2  0
 21 22  1  0
  7 23  1  0
 23 24  1  0
 24  4  1  0
 21  8  1  0
 19 14  1  0
  1 25  1  0
  1 26  1  0
  1 27  1  0
  5 28  1  0
  5 29  1  0
  6 30  1  0
  6 31  1  0
 10 32  1  0
 15 33  1  0
 16 34  1  0
 17 35  1  0
 18 36  1  0
 20 37  1  0
 20 38  1  0
 20 39  1  0
 23 40  1  0
 23 41  1  0
 24 42  1  0
 24 43  1  0
M  END
>  <UniqueID>  (22) 
19

>  <SMILES>  (22) 
CC(=O)N1CCN(c2ncnc(Oc3ccccc3C)c2F)CC1

>  <Energy>  (22) 
56.853168896390635

>  <Genealogy>  (22) 
CC(=O)N1CCN(c2ncnc(Oc3ccccc3C)c2F)CC1 (3D coordinates assigned)
CC(=O)N1CCN(c2ncnc(Oc3ccccc3C)c2F)CC1 (nonaromatic ring conformer: 56.853168896390635 kcal/mol)

>  <smiles>  (22) 
CC(=O)N1CCN(c2ncnc(Oc3ccccc3C)c2F)CC1

>  <score_type>  (22) 
oracle

>  <origin>  (22) 
adg

>  <m_score__min__energy>  (22) 
-7.5099999999999998

>  <m_primary>  (22) 
energy

$$$$
22:0
     RDKit          3D

 47 50  0  0  0  0  0  0  0  0999 V2000
   65.4200   31.9340   50.5720 C   0  0  0  0  0  0  0  0  0  0  0  0
   65.2770   32.7070   49.3840 O   0  0  0  0  0  0  0  0  0  0  0  0
   64.0860   32.8210   48.6520 C   0  0  0  0  0  0  0  0  0  0  0  0
   63.9920   33.6140   47.4790 C   0  0  0  0  0  0  0  0  0  0  0  0
   62.7820   33.6980   46.7710 C   0  0  0  0  0  0  0  0  0  0  0  0
   61.6720   33.0130   47.2650 C   0  0  0  0  0  0  0  0  0  0  0  0
   61.7600   32.2240   48.3950 C   0  0  0  0  0  0  0  0  0  0  0  0
   62.9570   32.1160   49.1040 C   0  0  0  0  0  0  0  0  0  0  0  0
   60.4640   31.5390   48.6900 C   0  0  0  0  0  0  0  0  0  0  0  0
   59.5050   32.3780   47.8310 C   0  0  1  0  0  0  0  0  0  0  0  0
   60.3390   32.8380   46.6390 C   0  0  1  0  0  0  0  0  0  0  0  0
   59.6490   34.0390   46.0030 C   0  0  0  0  0  0  0  0  0  0  0  0
   58.1800   33.7050   45.7480 C   0  0  0  0  0  0  0  0  0  0  0  0
   57.3940   34.6070   44.8450 C   0  0  0  0  0  0  0  0  0  0  0  0
   57.5540   32.7570   46.3880 N   0  0  0  0  0  0  0  0  0  0  0  0
   58.1610   31.8190   47.3360 C   0  0  1  0  0  0  0  0  0  0  0  0
   58.2620   30.4270   46.7360 C   0  0  0  0  0  0  0  0  0  0  0  0
   57.9560   30.2370   45.3750 C   0  0  0  0  0  0  0  0  0  0  0  0
   58.0220   28.9650   44.8010 C   0  0  0  0  0  0  0  0  0  0  0  0
   58.3980   27.8640   45.5770 C   0  0  0  0  0  0  0  0  0  0  0  0
   58.4770   26.2300   44.8400 S   0  0  0  0  0  0  0  0  0  0  0  0
   58.1280   26.8380   43.1610 C   0  0  0  0  0  0  0  0  0  0  0  0
   58.7020   28.0370   46.9310 C   0  0  0  0  0  0  0  0  0  0  0  0
   58.6370   29.3080   47.5080 C   0  0  0  0  0  0  0  0  0  0  0  0
   65.2995   32.5855   51.4501 H   0  0  0  0  0  0  0  0  0  0  0  0
   64.6523   31.1464   50.5916 H   0  0  0  0  0  0  0  0  0  0  0  0
   66.4186   31.4732   50.5916 H   0  0  0  0  0  0  0  0  0  0  0  0
   64.8732   34.1669   47.1217 H   0  0  0  0  0  0  0  0  0  0  0  0
   62.7113   34.2910   45.8472 H   0  0  0  0  0  0  0  0  0  0  0  0
   63.0163   31.4874   50.0048 H   0  0  0  0  0  0  0  0  0  0  0  0
   60.4791   30.4861   48.3720 H   0  0  0  0  0  0  0  0  0  0  0  0
   60.2022   31.4911   49.7573 H   0  0  0  0  0  0  0  0  0  0  0  0
   59.1293   33.1484   48.5205 H   0  0  0  0  0  0  0  0  0  0  0  0
   60.4499   32.1708   45.7715 H   0  0  0  0  0  0  0  0  0  0  0  0
   59.7165   34.9025   46.6811 H   0  0  0  0  0  0  0  0  0  0  0  0
   60.1409   34.2827   45.0498 H   0  0  0  0  0  0  0  0  0  0  0  0
   56.7913   35.2987   45.4519 H   0  0  0  0  0  0  0  0  0  0  0  0
   58.0841   35.1822   44.2102 H   0  0  0  0  0  0  0  0  0  0  0  0
   56.7298   34.0021   44.2102 H   0  0  0  0  0  0  0  0  0  0  0  0
   57.5149   31.7117   48.2197 H   0  0  0  0  0  0  0  0  0  0  0  0
   57.6621   31.0985   44.7575 H   0  0  0  0  0  0  0  0  0  0  0  0
   57.7778   28.8293   43.7371 H   0  0  0  0  0  0  0  0  0  0  0  0
   57.5812   27.7905   43.2222 H   0  0  0  0  0  0  0  0  0  0  0  0
   59.0748   26.9927   42.6228 H   0  0  0  0  0  0  0  0  0  0  0  0
   57.5169   26.0984   42.6228 H   0  0  0  0  0  0  0  0  0  0  0  0
   58.9929   27.1706   47.5432 H   0  0  0  0  0  0  0  0  0  0  0  0
   58.8803   29.4367   48.5730 H   0  0  0  0  0  0  0  0  0  0  0  0
  1  2  1  0
  2  3  1  0
  3  4  2  0
  4  5  1  0
  5  6  2  0
  6  7  1  0
  7  8  2  0
  7  9  1  0
  9 10  1  0
 10 11  1  0
 11 12  1  0
 12 13  1  0
 13 14  1  0
 13 15  2  0
 15 16  1  0
 16 17  1  0
 17 18  2  0
 18 19  1  0
 19 20  2  0
 20 21  1  0
 21 22  1  0
 20 23  1  0
 23 24  2  0
  8  3  1  0
 16 10  1  0
 24 17  1  0
 11  6  1  0
  1 25  1  0
  1 26  1  0
  1 27  1  0
  4 28  1  0
  5 29  1  0
  8 30  1  0
  9 31  1  0
  9 32  1  0
 10 33  1  1
 11 34  1  6
 12 35  1  0
 12 36  1  0
 14 37  1  0
 14 38  1  0
 14 39  1  0
 16 40  1  1
 18 41  1  0
 19 42  1  0
 22 43  1  0
 22 44  1  0
 22 45  1  0
 23 46  1  0
 24 47  1  0
M  END
>  <UniqueID>  (23) 
20

>  <SMILES>  (23) 
COc1ccc2c(c1)C[C@@H]1C(c3ccc(SC)cc3)N=C(C)C[C@@H]21

>  <Energy>  (23) 
68.625677909983

>  <Genealogy>  (23) 
COc1ccc2c(c1)C[C@@H]1C(c3ccc(SC)cc3)N=C(C)C[C@@H]21 (chirality)
COc1ccc2c(c1)C[C@@H]1C(c3ccc(SC)cc3)N=C(C)C[C@@H]21 (3D coordinates assigned)
COc1ccc2c(c1)C[C@@H]1C(c3ccc(SC)cc3)N=C(C)C[C@@H]21 (nonaromatic ring conformer: 68.625677909983 kcal/mol)

>  <smiles>  (23) 
COc1ccc2c(c1)CC1C2CC(C)=NC1c1ccc(SC)cc1

>  <score_type>  (23) 
oracle

>  <origin>  (23) 
adg

>  <m_score__min__energy>  (23) 
-7.71

>  <m_primary>  (23) 
energy

$$$$
23:0
     RDKit          3D

 41 43  0  0  0  0  0  0  0  0999 V2000
   57.6100   28.4900   43.7650 N   0  0  0  0  0  0  0  0  0  0  0  0
   56.5420   29.8490   43.7780 S   0  0  0  0  0  0  0  0  0  0  0  0
   56.2620   30.2800   42.3660 O   0  0  0  0  0  0  0  0  0  0  0  0
   55.2440   29.4600   44.4290 O   0  0  0  0  0  0  0  0  0  0  0  0
   57.2840   31.1730   44.6710 C   0  0  0  0  0  0  0  0  0  0  0  0
   57.3970   32.4410   44.0860 C   0  0  0  0  0  0  0  0  0  0  0  0
   58.0020   33.4890   44.7870 C   0  0  0  0  0  0  0  0  0  0  0  0
   58.5130   33.2760   46.0780 C   0  0  0  0  0  0  0  0  0  0  0  0
   59.1660   34.4070   46.8280 C   0  0  0  0  0  0  0  0  0  0  0  0
   60.5970   34.4710   46.5270 N   0  0  0  0  0  0  0  0  0  0  0  0
   61.6330   33.9540   47.3830 C   0  0  0  0  0  0  0  0  0  0  0  0
   61.4910   33.9100   48.7810 C   0  0  0  0  0  0  0  0  0  0  0  0
   62.5130   33.3940   49.5830 C   0  0  0  0  0  0  0  0  0  0  0  0
   63.7020   32.9160   49.0070 C   0  0  0  0  0  0  0  0  0  0  0  0
   64.7870   32.3650   49.8590 C   0  0  0  0  0  0  0  0  0  0  0  0
   64.5360   31.3090   50.7530 C   0  0  0  0  0  0  0  0  0  0  0  0
   65.5660   30.8020   51.5460 C   0  0  0  0  0  0  0  0  0  0  0  0
   66.8430   31.3540   51.4450 C   0  0  0  0  0  0  0  0  0  0  0  0
   67.0760   32.3760   50.5800 N   0  0  0  0  0  0  0  0  0  0  0  0
   66.0910   32.8870   49.7940 C   0  0  0  0  0  0  0  0  0  0  0  0
   63.8470   32.9690   47.6100 C   0  0  0  0  0  0  0  0  0  0  0  0
   62.8240   33.4850   46.8090 C   0  0  0  0  0  0  0  0  0  0  0  0
   58.3920   32.0050   46.6630 C   0  0  0  0  0  0  0  0  0  0  0  0
   57.7870   30.9590   45.9600 C   0  0  0  0  0  0  0  0  0  0  0  0
   57.0400   27.6580   43.4920 H   0  0  0  0  0  0  0  0  0  0  0  0
   58.2970   28.6500   42.9950 H   0  0  0  0  0  0  0  0  0  0  0  0
   57.0084   32.6129   43.0714 H   0  0  0  0  0  0  0  0  0  0  0  0
   58.0781   34.4845   44.3254 H   0  0  0  0  0  0  0  0  0  0  0  0
   58.6927   35.3555   46.5343 H   0  0  0  0  0  0  0  0  0  0  0  0
   59.0395   34.2347   47.9070 H   0  0  0  0  0  0  0  0  0  0  0  0
   60.8690   34.8740   45.6010 H   0  0  0  0  0  0  0  0  0  0  0  0
   60.5680   34.2847   49.2476 H   0  0  0  0  0  0  0  0  0  0  0  0
   62.3852   33.3619   50.6751 H   0  0  0  0  0  0  0  0  0  0  0  0
   63.5252   30.8816   50.8273 H   0  0  0  0  0  0  0  0  0  0  0  0
   65.3727   29.9745   52.2445 H   0  0  0  0  0  0  0  0  0  0  0  0
   67.6620   30.9619   52.0659 H   0  0  0  0  0  0  0  0  0  0  0  0
   66.3156   33.7133   49.1035 H   0  0  0  0  0  0  0  0  0  0  0  0
   64.7728   32.6015   47.1432 H   0  0  0  0  0  0  0  0  0  0  0  0
   62.9543   33.5237   45.7174 H   0  0  0  0  0  0  0  0  0  0  0  0
   58.7752   31.8317   47.6794 H   0  0  0  0  0  0  0  0  0  0  0  0
   57.7058   29.9638   46.4214 H   0  0  0  0  0  0  0  0  0  0  0  0
  1  2  1  0
  2  3  2  0
  2  4  2  0
  2  5  1  0
  5  6  2  0
  6  7  1  0
  7  8  2  0
  8  9  1  0
  9 10  1  0
 10 11  1  0
 11 12  2  0
 12 13  1  0
 13 14  2  0
 14 15  1  0
 15 16  2  0
 16 17  1  0
 17 18  2  0
 18 19  1  0
 19 20  2  0
 14 21  1  0
 21 22  2  0
  8 23  1  0
 23 24  2  0
 24  5  1  0
 22 11  1  0
 20 15  1  0
  1 25  1  0
  1 26  1  0
  6 27  1  0
  7 28  1  0
  9 29  1  0
  9 30  1  0
 10 31  1  0
 12 32  1  0
 13 33  1  0
 16 34  1  0
 17 35  1  0
 18 36  1  0
 20 37  1  0
 21 38  1  0
 22 39  1  0
 23 40  1  0
 24 41  1  0
M  END
>  <UniqueID>  (24) 
21

>  <SMILES>  (24) 
NS(=O)(=O)c1ccc(CNc2ccc(-c3cccnc3)cc2)cc1

>  <Energy>  (24) 
47.385341093094056

>  <Genealogy>  (24) 
NS(=O)(=O)c1ccc(CNc2ccc(-c3cccnc3)cc2)cc1 (3D coordinates assigned)
NS(=O)(=O)c1ccc(CNc2ccc(-c3cccnc3)cc2)cc1 (optimized conformer: 47.385341093094056 kcal/mol)

>  <smiles>  (24) 
NS(=O)(=O)c1ccc(CNc2ccc(-c3cccnc3)cc2)cc1

>  <score_type>  (24) 
oracle

>  <origin>  (24) 
adg

>  <m_score__min__energy>  (24) 
-9.1899999999999995

>  <m_primary>  (24) 
energy

$$$$
24:0
     RDKit          3D

 25 26  0  0  0  0  0  0  0  0999 V2000
   58.9490   25.8950   46.0860 C   0  0  0  0  0  0  0  0  0  0  0  0
   58.2680   27.0150   45.8130 C   0  0  0  0  0  0  0  0  0  0  0  0
   56.8860   27.1220   45.7160 C   0  0  0  0  0  0  0  0  0  0  0  0
   55.9100   26.0750   45.8860 C   0  0  0  0  0  0  0  0  0  0  0  0
   55.1260   25.2350   46.0240 N   0  0  0  0  0  0  0  0  0  0  0  0
   56.6150   28.4400   45.4210 C   0  0  0  0  0  0  0  0  0  0  0  0
   55.3450   28.9790   45.2420 O   0  0  0  0  0  0  0  0  0  0  0  0
   57.7550   29.1530   45.3310 N   0  0  0  0  0  0  0  0  0  0  0  0
   57.8370   30.5570   45.0410 C   0  0  0  0  0  0  0  0  0  0  0  0
   58.4100   31.4410   45.9740 C   0  0  0  0  0  0  0  0  0  0  0  0
   59.0230   30.8570   47.5150 Cl  0  0  0  0  0  0  0  0  0  0  0  0
   58.4890   32.8080   45.6850 C   0  0  0  0  0  0  0  0  0  0  0  0
   57.9980   33.2990   44.4730 C   0  0  0  0  0  0  0  0  0  0  0  0
   57.4260   32.4270   43.5440 C   0  0  0  0  0  0  0  0  0  0  0  0
   57.3430   31.0570   43.8220 C   0  0  0  0  0  0  0  0  0  0  0  0
   56.6330   29.9830   42.6240 Cl  0  0  0  0  0  0  0  0  0  0  0  0
   58.7790   28.2940   45.5670 C   0  0  0  0  0  0  0  0  0  0  0  0
   60.0720   28.6490   45.5500 C   0  0  0  0  0  0  0  0  0  0  0  0
   60.0474   25.9186   46.1402 H   0  0  0  0  0  0  0  0  0  0  0  0
   58.4101   24.9513   46.2561 H   0  0  0  0  0  0  0  0  0  0  0  0
   58.9390   33.4977   46.4143 H   0  0  0  0  0  0  0  0  0  0  0  0
   58.0620   34.3742   44.2499 H   0  0  0  0  0  0  0  0  0  0  0  0
   57.0395   32.8175   42.5910 H   0  0  0  0  0  0  0  0  0  0  0  0
   60.8510   27.8988   45.7507 H   0  0  0  0  0  0  0  0  0  0  0  0
   60.3536   29.6904   45.3353 H   0  0  0  0  0  0  0  0  0  0  0  0
  1  2  2  0
  2  3  1  0
  3  4  1  0
  4  5  3  0
  3  6  2  0
  6  7  1  0
  6  8  1  0
  8  9  1  0
  9 10  2  0
 10 11  1  0
 10 12  1  0
 12 13  2  0
 13 14  1  0
 14 15  2  0
 15 16  1  0
  8 17  1  0
 17 18  2  0
 17  2  1  0
 15  9  1  0
  1 19  1  0
  1 20  1  0
 12 21  1  0
 13 22  1  0
 14 23  1  0
 18 24  1  0
 18 25  1  0
M  CHG  1   7  -1
M  END
>  <UniqueID>  (25) 
22

>  <SMILES>  (25) 
C=c1c(C#N)c([O-])n(-c2c(Cl)cccc2Cl)c1=C

>  <Energy>  (25) 
64.62938546753571

>  <Genealogy>  (25) 
C=c1c(C#N)c([O-])n(-c2c(Cl)cccc2Cl)c1=C (protonated)
C=c1c(C#N)c([O-])n(-c2c(Cl)cccc2Cl)c1=C (3D coordinates assigned)
C=c1c(C#N)c([O-])n(-c2c(Cl)cccc2Cl)c1=C (optimized conformer: 64.62938546753571 kcal/mol)

>  <smiles>  (25) 
C=c1c(C#N)c(O)n(-c2c(Cl)cccc2Cl)c1=C

>  <score_type>  (25) 
oracle

>  <origin>  (25) 
adg

>  <m_score__min__energy>  (25) 
-10.68

>  <m_primary>  (25) 
energy

$$$$
25:0
     RDKit          3D

 35 37  0  0  0  0  0  0  0  0999 V2000
   56.1390   31.1790   44.8170 O   0  0  0  0  0  0  0  0  0  0  0  0
   57.4000   31.1050   44.8710 C   0  0  0  0  0  0  0  0  0  0  0  0
   58.1670   32.3240   45.1990 C   0  0  0  0  0  0  0  0  0  0  0  0
   58.4970   33.2480   44.1950 C   0  0  0  0  0  0  0  0  0  0  0  0
   59.1630   34.3920   44.5090 N   0  0  0  0  0  0  0  0  0  0  0  0
   59.5190   34.6850   45.7870 C   0  0  0  0  0  0  0  0  0  0  0  0
   59.1940   33.8050   46.8230 C   0  0  0  0  0  0  0  0  0  0  0  0
   59.6730   34.2150   48.6250 Br  0  0  0  0  0  0  0  0  0  0  0  0
   58.5050   32.6250   46.5270 C   0  0  0  0  0  0  0  0  0  0  0  0
   58.0540   29.8420   44.6260 N   0  0  0  0  0  0  0  0  0  0  0  0
   57.3750   28.6680   44.1010 C   0  0  0  0  0  0  0  0  0  0  0  0
   58.4720   27.6670   43.7660 C   0  0  0  0  0  0  0  0  0  0  0  0
   59.7270   28.1410   44.4950 C   0  0  0  0  0  0  0  0  0  0  0  0
   59.4670   29.5970   44.9010 C   0  0  2  0  0  0  0  0  0  0  0  0
   59.8060   29.8290   46.3620 C   0  0  0  0  0  0  0  0  0  0  0  0
   59.0080   29.2770   47.3820 C   0  0  0  0  0  0  0  0  0  0  0  0
   59.3320   29.4920   48.7250 C   0  0  0  0  0  0  0  0  0  0  0  0
   60.4570   30.2480   49.0630 C   0  0  0  0  0  0  0  0  0  0  0  0
   61.2640   30.7880   48.0580 C   0  0  0  0  0  0  0  0  0  0  0  0
   62.6820   31.7300   48.4850 Cl  0  0  0  0  0  0  0  0  0  0  0  0
   60.9430   30.5780   46.7110 C   0  0  0  0  0  0  0  0  0  0  0  0
   58.2161   33.0464   43.1508 H   0  0  0  0  0  0  0  0  0  0  0  0
   60.0633   35.6154   46.0064 H   0  0  0  0  0  0  0  0  0  0  0  0
   58.2279   31.9325   47.3355 H   0  0  0  0  0  0  0  0  0  0  0  0
   56.6935   28.2502   44.8566 H   0  0  0  0  0  0  0  0  0  0  0  0
   56.7685   28.9137   43.2168 H   0  0  0  0  0  0  0  0  0  0  0  0
   58.1882   26.6620   44.1117 H   0  0  0  0  0  0  0  0  0  0  0  0
   58.6400   27.6087   42.6805 H   0  0  0  0  0  0  0  0  0  0  0  0
   59.9050   27.5230   45.3874 H   0  0  0  0  0  0  0  0  0  0  0  0
   60.6166   28.0584   43.8532 H   0  0  0  0  0  0  0  0  0  0  0  0
   60.1040   30.2937   44.3362 H   0  0  0  0  0  0  0  0  0  0  0  0
   58.1258   28.6739   47.1213 H   0  0  0  0  0  0  0  0  0  0  0  0
   58.6996   29.0649   49.5172 H   0  0  0  0  0  0  0  0  0  0  0  0
   60.7077   30.4183   50.1204 H   0  0  0  0  0  0  0  0  0  0  0  0
   61.5834   31.0010   45.9229 H   0  0  0  0  0  0  0  0  0  0  0  0
  1  2  2  0
  2  3  1  0
  3  4  2  0
  4  5  1  0
  5  6  2  0
  6  7  1  0
  7  8  1  0
  7  9  2  0
  2 10  1  0
 10 11  1  0
 11 12  1  0
 12 13  1  0
 13 14  1  0
 14 15  1  0
 15 16  2  0
 16 17  1  0
 17 18  2  0
 18 19  1  0
 19 20  1  0
 19 21  2  0
  9  3  1  0
 14 10  1  0
 21 15  1  0
  4 22  1  0
  6 23  1  0
  9 24  1  0
 11 25  1  0
 11 26  1  0
 12 27  1  0
 12 28  1  0
 13 29  1  0
 13 30  1  0
 14 31  1  6
 16 32  1  0
 17 33  1  0
 18 34  1  0
 21 35  1  0
M  END
>  <UniqueID>  (26) 
23

>  <SMILES>  (26) 
O=C(c1cncc(Br)c1)N1CCC[C@@H]1c1cccc(Cl)c1

>  <Energy>  (26) 
44.511537202639815

>  <Genealogy>  (26) 
O=C(c1cncc(Br)c1)N1CCC[C@@H]1c1cccc(Cl)c1 (chirality)
O=C(c1cncc(Br)c1)N1CCC[C@@H]1c1cccc(Cl)c1 (3D coordinates assigned)
O=C(c1cncc(Br)c1)N1CCC[C@@H]1c1cccc(Cl)c1 (nonaromatic ring conformer: 44.511537202639815 kcal/mol)

>  <smiles>  (26) 
O=C(c1cncc(Br)c1)N1CCCC1c1cccc(Cl)c1

>  <score_type>  (26) 
oracle

>  <origin>  (26) 
adg

>  <m_score__min__energy>  (26) 
-7.7000000000000002

>  <m_primary>  (26) 
energy

$$$$
26:0
     RDKit          3D

 28 29  0  0  0  0  0  0  0  0999 V2000
   55.9030   30.0910   44.5560 O   0  0  0  0  0  0  0  0  0  0  0  0
   57.0800   29.8560   44.1680 C   0  0  0  0  0  0  0  0  0  0  0  0
   57.6070   28.4560   44.2310 C   0  0  0  0  0  0  0  0  0  0  0  0
   57.7900   27.9100   45.9640 S   0  0  0  0  0  0  0  0  0  0  0  0
   56.7730   26.4480   45.7710 C   0  0  0  0  0  0  0  0  0  0  0  0
   55.5170   26.3420   46.2500 N   0  0  0  0  0  0  0  0  0  0  0  0
   54.9510   25.1680   45.9740 N   0  0  0  0  0  0  0  0  0  0  0  0
   55.7510   24.3330   45.2740 C   0  0  0  0  0  0  0  0  0  0  0  0
   57.2400   25.0530   44.9570 S   0  0  0  0  0  0  0  0  0  0  0  0
   57.9110   30.9210   43.6840 N   0  0  0  0  0  0  0  0  0  0  0  0
   57.4900   32.3190   43.7000 C   0  0  0  0  0  0  0  0  0  0  0  0
   58.1080   33.0250   44.8730 C   0  0  0  0  0  0  0  0  0  0  0  0
   57.8050   32.6180   46.1830 C   0  0  0  0  0  0  0  0  0  0  0  0
   58.3490   33.2990   47.2770 C   0  0  0  0  0  0  0  0  0  0  0  0
   59.1870   34.3990   47.0700 C   0  0  0  0  0  0  0  0  0  0  0  0
   59.4810   34.8190   45.7700 C   0  0  0  0  0  0  0  0  0  0  0  0
   58.9430   34.1380   44.6740 C   0  0  0  0  0  0  0  0  0  0  0  0
   56.9074   27.7836   43.7129 H   0  0  0  0  0  0  0  0  0  0  0  0
   58.5941   28.4285   43.7463 H   0  0  0  0  0  0  0  0  0  0  0  0
   55.4675   23.3194   44.9544 H   0  0  0  0  0  0  0  0  0  0  0  0
   58.8970   30.7100   43.4120 H   0  0  0  0  0  0  0  0  0  0  0  0
   57.8124   32.8078   42.7688 H   0  0  0  0  0  0  0  0  0  0  0  0
   56.3943   32.3666   43.7846 H   0  0  0  0  0  0  0  0  0  0  0  0
   57.1370   31.7600   46.3491 H   0  0  0  0  0  0  0  0  0  0  0  0
   58.1175   32.9691   48.3005 H   0  0  0  0  0  0  0  0  0  0  0  0
   59.6149   34.9339   47.9307 H   0  0  0  0  0  0  0  0  0  0  0  0
   60.1370   35.6871   45.6088 H   0  0  0  0  0  0  0  0  0  0  0  0
   59.1739   34.4743   43.6525 H   0  0  0  0  0  0  0  0  0  0  0  0
  1  2  2  0
  2  3  1  0
  3  4  1  0
  4  5  1  0
  5  6  2  0
  6  7  1  0
  7  8  2  0
  8  9  1  0
  2 10  1  0
 10 11  1  0
 11 12  1  0
 12 13  2  0
 13 14  1  0
 14 15  2  0
 15 16  1  0
 16 17  2  0
  9  5  1  0
 17 12  1  0
  3 18  1  0
  3 19  1  0
  8 20  1  0
 10 21  1  0
 11 22  1  0
 11 23  1  0
 13 24  1  0
 14 25  1  0
 15 26  1  0
 16 27  1  0
 17 28  1  0
M  END
>  <UniqueID>  (27) 
24

>  <SMILES>  (27) 
O=C(CSc1nncs1)NCc1ccccc1

>  <Energy>  (27) 
52.59280844861894

>  <Genealogy>  (27) 
O=C(CSc1nncs1)NCc1ccccc1 (3D coordinates assigned)
O=C(CSc1nncs1)NCc1ccccc1 (optimized conformer: 52.59280844861894 kcal/mol)

>  <smiles>  (27) 
O=C(CSc1nncs1)NCc1ccccc1

>  <score_type>  (27) 
oracle

>  <origin>  (27) 
adg

>  <m_score__min__energy>  (27) 
-7.79

>  <m_primary>  (27) 
energy

$$$$
27:0
     RDKit          3D

 34 36  0  0  0  0  0  0  0  0999 V2000
   59.2690   26.2390   46.8290 C   0  0  0  0  0  0  0  0  0  0  0  0
   58.6000   25.2880   45.8730 C   0  0  0  0  0  0  0  0  0  0  0  0
   58.9350   23.9240   45.9130 C   0  0  0  0  0  0  0  0  0  0  0  0
   58.3290   23.0200   45.0380 C   0  0  0  0  0  0  0  0  0  0  0  0
   57.3930   23.4670   44.1060 C   0  0  0  0  0  0  0  0  0  0  0  0
   56.6460   22.3300   42.9970 Cl  0  0  0  0  0  0  0  0  0  0  0  0
   57.0580   24.8220   44.0480 C   0  0  0  0  0  0  0  0  0  0  0  0
   57.6490   25.7450   44.9310 C   0  0  0  0  0  0  0  0  0  0  0  0
   57.3240   27.1450   44.8360 N   0  0  0  0  0  0  0  0  0  0  0  0
   58.3050   28.1650   44.5820 C   0  0  0  0  0  0  0  0  0  0  0  0
   59.4280   27.8460   44.1060 O   0  0  0  0  0  0  0  0  0  0  0  0
   57.9950   29.5940   44.8440 C   0  0  0  0  0  0  0  0  0  0  0  0
   58.9970   30.4610   45.3080 C   0  0  0  0  0  0  0  0  0  0  0  0
   58.7000   31.8060   45.5410 C   0  0  0  0  0  0  0  0  0  0  0  0
   59.6760   32.7030   46.0040 C   0  0  0  0  0  0  0  0  0  0  0  0
   59.3410   34.0440   46.2230 C   0  0  0  0  0  0  0  0  0  0  0  0
   58.0390   34.4930   45.9820 C   0  0  0  0  0  0  0  0  0  0  0  0
   57.0640   33.6030   45.5190 C   0  0  0  0  0  0  0  0  0  0  0  0
   57.3880   32.2600   45.2960 C   0  0  0  0  0  0  0  0  0  0  0  0
   56.4610   31.4180   44.8530 O   0  0  0  0  0  0  0  0  0  0  0  0
   56.7060   30.1310   44.6210 C   0  0  0  0  0  0  0  0  0  0  0  0
   55.7660   29.3990   44.2120 O   0  0  0  0  0  0  0  0  0  0  0  0
   59.0530   25.9319   47.8630 H   0  0  0  0  0  0  0  0  0  0  0  0
   60.3560   26.2232   46.6613 H   0  0  0  0  0  0  0  0  0  0  0  0
   58.8869   27.2568   46.6613 H   0  0  0  0  0  0  0  0  0  0  0  0
   59.6799   23.5657   46.6387 H   0  0  0  0  0  0  0  0  0  0  0  0
   58.5907   21.9526   45.0841 H   0  0  0  0  0  0  0  0  0  0  0  0
   56.3254   25.1708   43.3052 H   0  0  0  0  0  0  0  0  0  0  0  0
   56.3200   27.4270   44.8710 H   0  0  0  0  0  0  0  0  0  0  0  0
   60.0139   30.0820   45.4877 H   0  0  0  0  0  0  0  0  0  0  0  0
   60.7012   32.3526   46.1941 H   0  0  0  0  0  0  0  0  0  0  0  0
   60.1048   34.7474   46.5861 H   0  0  0  0  0  0  0  0  0  0  0  0
   57.7809   35.5479   46.1568 H   0  0  0  0  0  0  0  0  0  0  0  0
   56.0407   33.9595   45.3299 H   0  0  0  0  0  0  0  0  0  0  0  0
  1  2  1  0
  2  3  2  0
  3  4  1  0
  4  5  2  0
  5  6  1  0
  5  7  1  0
  7  8  2  0
  8  9  1  0
  9 10  1  0
 10 11  2  0
 10 12  1  0
 12 13  2  0
 13 14  1  0
 14 15  2  0
 15 16  1  0
 16 17  2  0
 17 18  1  0
 18 19  2  0
 19 20  1  0
 20 21  1  0
 21 22  2  0
  8  2  1  0
 21 12  1  0
 19 14  1  0
  1 23  1  0
  1 24  1  0
  1 25  1  0
  3 26  1  0
  4 27  1  0
  7 28  1  0
  9 29  1  0
 13 30  1  0
 15 31  1  0
 16 32  1  0
 17 33  1  0
 18 34  1  0
M  END
>  <UniqueID>  (28) 
25

>  <SMILES>  (28) 
Cc1ccc(Cl)cc1NC(=O)c1cc2ccccc2oc1=O

>  <Energy>  (28) 
48.48210340817565

>  <Genealogy>  (28) 
Cc1ccc(Cl)cc1NC(=O)c1cc2ccccc2oc1=O (3D coordinates assigned)
Cc1ccc(Cl)cc1NC(=O)c1cc2ccccc2oc1=O (optimized conformer: 48.48210340817565 kcal/mol)

>  <smiles>  (28) 
Cc1ccc(Cl)cc1NC(=O)c1cc2ccccc2oc1=O

>  <score_type>  (28) 
oracle

>  <origin>  (28) 
adg

>  <m_score__min__energy>  (28) 
-8.1699999999999999

>  <m_primary>  (28) 
energy

$$$$
28:0
     RDKit          3D

 63 65  0  0  0  0  0  0  0  0999 V2000
   59.0230   29.3770   48.6090 C   0  0  0  0  0  0  0  0  0  0  0  0
   59.2270   28.1780   47.6870 C   0  0  0  0  0  0  0  0  0  0  0  0
   60.0480   28.5640   46.4500 C   0  0  0  0  0  0  0  0  0  0  0  0
   59.5430   27.8270   45.2010 C   0  0  0  0  0  0  0  0  0  0  0  0
   58.0740   27.9080   45.0820 N   0  0  0  0  0  0  0  0  0  0  0  0
   57.3210   26.6470   44.9350 C   0  0  0  0  0  0  0  0  0  0  0  0
   58.1600   25.4230   45.3360 C   0  0  0  0  0  0  0  0  0  0  0  0
   57.7640   24.1750   44.5920 C   0  0  0  0  0  0  0  0  0  0  0  0
   56.6920   24.2030   43.6830 C   0  0  0  0  0  0  0  0  0  0  0  0
   56.3110   23.0400   43.0060 C   0  0  0  0  0  0  0  0  0  0  0  0
   57.0000   21.8450   43.2260 C   0  0  0  0  0  0  0  0  0  0  0  0
   58.0740   21.8110   44.1190 C   0  0  0  0  0  0  0  0  0  0  0  0
   58.4550   22.9690   44.8030 C   0  0  0  0  0  0  0  0  0  0  0  0
   57.3870   29.1710   44.8600 C   0  0  0  0  0  0  0  0  0  0  0  0
   56.1250   29.1950   44.8810 O   0  0  0  0  0  0  0  0  0  0  0  0
   58.1370   30.4710   44.5930 C   0  0  1  0  0  0  0  0  0  0  0  0
   57.5310   31.2820   43.4230 C   0  0  0  0  0  0  0  0  0  0  0  0
   58.1350   32.6900   43.4130 C   0  0  0  0  0  0  0  0  0  0  0  0
   57.7400   33.4670   44.6190 N   0  0  2  0  0  0  0  0  0  0  0  0
   58.6660   34.5990   44.9000 C   0  0  0  0  0  0  0  0  0  0  0  0
   59.5110   34.4310   46.1510 C   0  0  0  0  0  0  0  0  0  0  0  0
   58.9790   34.7320   47.4170 C   0  0  0  0  0  0  0  0  0  0  0  0
   59.7640   34.5920   48.5660 C   0  0  0  0  0  0  0  0  0  0  0  0
   61.0790   34.1360   48.4650 C   0  0  0  0  0  0  0  0  0  0  0  0
   61.6070   33.7980   47.2160 C   0  0  0  0  0  0  0  0  0  0  0  0
   63.4050   33.1670   47.0790 Br  0  0  0  0  0  0  0  0  0  0  0  0
   60.8220   33.9270   46.0670 C   0  0  0  0  0  0  0  0  0  0  0  0
   57.4410   32.6310   45.8160 C   0  0  0  0  0  0  0  0  0  0  0  0
   58.2690   31.3340   45.8760 C   0  0  0  0  0  0  0  0  0  0  0  0
   59.0791   29.0474   49.6570 H   0  0  0  0  0  0  0  0  0  0  0  0
   59.8069   30.1245   48.4173 H   0  0  0  0  0  0  0  0  0  0  0  0
   58.0360   29.8232   48.4173 H   0  0  0  0  0  0  0  0  0  0  0  0
   59.7579   27.3877   48.2380 H   0  0  0  0  0  0  0  0  0  0  0  0
   58.2408   27.8224   47.3539 H   0  0  0  0  0  0  0  0  0  0  0  0
   59.9633   29.6485   46.2864 H   0  0  0  0  0  0  0  0  0  0  0  0
   61.0966   28.2806   46.6235 H   0  0  0  0  0  0  0  0  0  0  0  0
   59.9994   28.2810   44.3091 H   0  0  0  0  0  0  0  0  0  0  0  0
   59.8242   26.7672   45.2884 H   0  0  0  0  0  0  0  0  0  0  0  0
   56.4279   26.6903   45.5757 H   0  0  0  0  0  0  0  0  0  0  0  0
   57.0467   26.5375   43.8754 H   0  0  0  0  0  0  0  0  0  0  0  0
   59.2179   25.6375   45.1245 H   0  0  0  0  0  0  0  0  0  0  0  0
   57.9870   25.2393   46.4067 H   0  0  0  0  0  0  0  0  0  0  0  0
   56.1506   25.1435   43.5034 H   0  0  0  0  0  0  0  0  0  0  0  0
   55.4681   23.0664   42.2997 H   0  0  0  0  0  0  0  0  0  0  0  0
   56.6968   20.9301   42.6958 H   0  0  0  0  0  0  0  0  0  0  0  0
   58.6209   20.8710   44.2842 H   0  0  0  0  0  0  0  0  0  0  0  0
   59.2982   22.9365   45.5086 H   0  0  0  0  0  0  0  0  0  0  0  0
   59.1514   30.1820   44.2809 H   0  0  0  0  0  0  0  0  0  0  0  0
   56.4406   31.3513   43.5505 H   0  0  0  0  0  0  0  0  0  0  0  0
   57.7568   30.7786   42.4713 H   0  0  0  0  0  0  0  0  0  0  0  0
   57.7849   33.2217   42.5159 H   0  0  0  0  0  0  0  0  0  0  0  0
   59.2307   32.5930   43.4113 H   0  0  0  0  0  0  0  0  0  0  0  0
   56.8310   33.9270   44.3700 H   0  0  0  0  0  0  0  0  0  0  0  0
   59.3438   34.7089   44.0407 H   0  0  0  0  0  0  0  0  0  0  0  0
   58.0340   35.4836   45.0679 H   0  0  0  0  0  0  0  0  0  0  0  0
   57.9391   35.0797   47.5044 H   0  0  0  0  0  0  0  0  0  0  0  0
   59.3439   34.8419   49.5515 H   0  0  0  0  0  0  0  0  0  0  0  0
   61.6998   34.0426   49.3683 H   0  0  0  0  0  0  0  0  0  0  0  0
   61.2321   33.6323   45.0897 H   0  0  0  0  0  0  0  0  0  0  0  0
   56.3742   32.3635   45.7973 H   0  0  0  0  0  0  0  0  0  0  0  0
   57.7038   33.2264   46.7028 H   0  0  0  0  0  0  0  0  0  0  0  0
   57.9267   30.7390   46.7355 H   0  0  0  0  0  0  0  0  0  0  0  0
   59.3262   31.6224   45.9714 H   0  0  0  0  0  0  0  0  0  0  0  0
  1  2  1  0
  2  3  1  0
  3  4  1  0
  4  5  1  0
  5  6  1  0
  6  7  1  0
  7  8  1  0
  8  9  2  0
  9 10  1  0
 10 11  2  0
 11 12  1  0
 12 13  2  0
  5 14  1  0
 14 15  2  0
 14 16  1  0
 16 17  1  0
 17 18  1  0
 18 19  1  0
 19 20  1  0
 20 21  1  0
 21 22  2  0
 22 23  1  0
 23 24  2  0
 24 25  1  0
 25 26  1  0
 25 27  2  0
 19 28  1  0
 28 29  1  0
 13  8  1  0
 29 16  1  0
 27 21  1  0
  1 30  1  0
  1 31  1  0
  1 32  1  0
  2 33  1  0
  2 34  1  0
  3 35  1  0
  3 36  1  0
  4 37  1  0
  4 38  1  0
  6 39  1  0
  6 40  1  0
  7 41  1  0
  7 42  1  0
  9 43  1  0
 10 44  1  0
 11 45  1  0
 12 46  1  0
 13 47  1  0
 16 48  1  6
 17 49  1  0
 17 50  1  0
 18 51  1  0
 18 52  1  0
 19 53  1  6
 20 54  1  0
 20 55  1  0
 22 56  1  0
 23 57  1  0
 24 58  1  0
 27 59  1  0
 28 60  1  0
 28 61  1  0
 29 62  1  0
 29 63  1  0
M  CHG  1  19   1
M  END
>  <UniqueID>  (29) 
26

>  <SMILES>  (29) 
CCCCN(CCc1ccccc1)C(=O)C1CC[NH+](Cc2cccc(Br)c2)CC1

>  <Energy>  (29) 
66.65188725114703

>  <Genealogy>  (29) 
CCCCN(CCc1ccccc1)C(=O)C1CC[NH+](Cc2cccc(Br)c2)CC1 (protonated)
CCCCN(CCc1ccccc1)C(=O)C1CC[NH+](Cc2cccc(Br)c2)CC1 (3D coordinates assigned)
CCCCN(CCc1ccccc1)C(=O)C1CC[NH+](Cc2cccc(Br)c2)CC1 (nonaromatic ring conformer: 66.65188725114703 kcal/mol)

>  <smiles>  (29) 
CCCCN(CCc1ccccc1)C(=O)C1CCN(Cc2cccc(Br)c2)CC1

>  <score_type>  (29) 
oracle

>  <origin>  (29) 
adg

>  <m_score__min__energy>  (29) 
-8.0299999999999994

>  <m_primary>  (29) 
energy

$$$$
29:0
     RDKit          3D

 33 34  0  0  0  0  0  0  0  0999 V2000
   60.6780   27.3160   49.1100 C   0  0  0  0  0  0  0  0  0  0  0  0
   60.8020   27.5580   47.7120 O   0  0  0  0  0  0  0  0  0  0  0  0
   59.7910   28.1060   46.9110 C   0  0  0  0  0  0  0  0  0  0  0  0
   59.1440   29.2660   47.3550 C   0  0  0  0  0  0  0  0  0  0  0  0
   58.1280   29.8500   46.5930 C   0  0  0  0  0  0  0  0  0  0  0  0
   57.7440   29.2760   45.3750 C   0  0  0  0  0  0  0  0  0  0  0  0
   56.4550   30.0080   44.4250 S   0  0  0  0  0  0  0  0  0  0  0  0
   55.1550   29.2870   44.6490 O   0  0  0  0  0  0  0  0  0  0  0  0
   56.8170   29.9250   42.9690 O   0  0  0  0  0  0  0  0  0  0  0  0
   56.2630   31.6740   44.8680 N   0  0  0  0  0  0  0  0  0  0  0  0
   57.3300   32.5770   45.1980 C   0  0  0  0  0  0  0  0  0  0  0  0
   57.5430   33.0120   46.5200 C   0  0  0  0  0  0  0  0  0  0  0  0
   58.5940   33.8840   46.8160 C   0  0  0  0  0  0  0  0  0  0  0  0
   58.7910   34.2960   48.0930 F   0  0  0  0  0  0  0  0  0  0  0  0
   59.4410   34.3320   45.8020 C   0  0  0  0  0  0  0  0  0  0  0  0
   59.2400   33.9110   44.4870 C   0  0  0  0  0  0  0  0  0  0  0  0
   58.1860   33.0350   44.1730 C   0  0  0  0  0  0  0  0  0  0  0  0
   57.9850   32.5840   42.7530 C   0  0  0  0  0  0  0  0  0  0  0  0
   58.3910   28.1200   44.9210 C   0  0  0  0  0  0  0  0  0  0  0  0
   59.4070   27.5350   45.6820 C   0  0  0  0  0  0  0  0  0  0  0  0
   61.1103   28.1597   49.6679 H   0  0  0  0  0  0  0  0  0  0  0  0
   59.6146   27.2103   49.3709 H   0  0  0  0  0  0  0  0  0  0  0  0
   61.2133   26.3911   49.3709 H   0  0  0  0  0  0  0  0  0  0  0  0
   59.4380   29.7217   48.3120 H   0  0  0  0  0  0  0  0  0  0  0  0
   57.6290   30.7626   46.9511 H   0  0  0  0  0  0  0  0  0  0  0  0
   56.8784   32.6635   47.3243 H   0  0  0  0  0  0  0  0  0  0  0  0
   60.2678   35.0176   46.0393 H   0  0  0  0  0  0  0  0  0  0  0  0
   59.9105   34.2667   43.6908 H   0  0  0  0  0  0  0  0  0  0  0  0
   57.5372   31.5793   42.7473 H   0  0  0  0  0  0  0  0  0  0  0  0
   57.3150   33.2870   42.2364 H   0  0  0  0  0  0  0  0  0  0  0  0
   58.9557   32.5558   42.2364 H   0  0  0  0  0  0  0  0  0  0  0  0
   58.0982   27.6702   43.9608 H   0  0  0  0  0  0  0  0  0  0  0  0
   59.9085   26.6254   45.3198 H   0  0  0  0  0  0  0  0  0  0  0  0
  1  2  1  0
  2  3  1  0
  3  4  2  0
  4  5  1  0
  5  6  2  0
  6  7  1  0
  7  8  2  0
  7  9  2  0
  7 10  1  0
 10 11  1  0
 11 12  2  0
 12 13  1  0
 13 14  1  0
 13 15  2  0
 15 16  1  0
 16 17  2  0
 17 18  1  0
  6 19  1  0
 19 20  2  0
 20  3  1  0
 17 11  1  0
  1 21  1  0
  1 22  1  0
  1 23  1  0
  4 24  1  0
  5 25  1  0
 12 26  1  0
 15 27  1  0
 16 28  1  0
 18 29  1  0
 18 30  1  0
 18 31  1  0
 19 32  1  0
 20 33  1  0
M  CHG  1  10  -1
M  END
>  <UniqueID>  (30) 
27

>  <SMILES>  (30) 
COc1ccc(S(=O)(=O)[N-]c2cc(F)ccc2C)cc1

>  <Energy>  (30) 
35.84577175373363

>  <Genealogy>  (30) 
COc1ccc(S(=O)(=O)[N-]c2cc(F)ccc2C)cc1 (protonated)
COc1ccc(S(=O)(=O)[N-]c2cc(F)ccc2C)cc1 (3D coordinates assigned)
COc1ccc(S(=O)(=O)[N-]c2cc(F)ccc2C)cc1 (optimized conformer: 35.84577175373363 kcal/mol)

>  <smiles>  (30) 
COc1ccc(S(=O)(=O)Nc2cc(F)ccc2C)cc1

>  <score_type>  (30) 
oracle

>  <origin>  (30) 
adg

>  <m_score__min__energy>  (30) 
-8.1899999999999995

>  <m_primary>  (30) 
energy

$$$$
30:0
     RDKit          3D

 47 48  0  0  0  0  0  0  0  0999 V2000
   61.0230   29.1950   45.6480 C   0  0  0  0  0  0  0  0  0  0  0  0
   59.9610   28.3530   44.9390 C   0  0  0  0  0  0  0  0  0  0  0  0
   58.6400   28.1470   45.7330 C   0  0  1  0  0  0  0  0  0  0  0  0
   58.2930   29.3610   46.6400 C   0  0  0  0  0  0  0  0  0  0  0  0
   58.2110   30.7100   45.8960 C   0  0  2  0  0  0  0  0  0  0  0  0
   58.3400   31.8710   46.8530 C   0  0  0  0  0  0  0  0  0  0  0  0
   58.1840   31.6540   48.0860 O   0  0  0  0  0  0  0  0  0  0  0  0
   58.6780   33.2000   46.4140 N   0  0  0  0  0  0  0  0  0  0  0  0
   59.4800   34.0930   47.2340 C   0  0  0  0  0  0  0  0  0  0  0  0
   59.6430   35.3710   46.4210 C   0  0  0  0  0  0  0  0  0  0  0  0
   59.2480   35.0040   44.9930 C   0  0  0  0  0  0  0  0  0  0  0  0
   58.3360   33.7830   45.1220 C   0  0  2  0  0  0  0  0  0  0  0  0
   56.8580   34.1950   45.1040 C   0  0  0  0  0  0  0  0  0  0  0  0
   56.9640   30.8420   45.1430 N   0  0  0  0  0  0  0  0  0  0  0  0
   56.3870   29.8890   44.2430 C   0  0  0  0  0  0  0  0  0  0  0  0
   55.1730   30.0200   43.9330 O   0  0  0  0  0  0  0  0  0  0  0  0
   57.1280   28.6770   43.7380 C   0  0  0  0  0  0  0  0  0  0  0  0
   57.4640   27.6510   44.8410 C   0  0  2  0  0  0  0  0  0  0  0  0
   56.2850   27.4460   45.6840 N   0  0  0  0  0  0  0  0  0  0  0  0
   55.6860   26.1680   45.9230 C   0  0  0  0  0  0  0  0  0  0  0  0
   56.5550   24.9690   46.1000 C   0  0  0  0  0  0  0  0  0  0  0  0
   54.4330   26.0410   45.9350 O   0  0  0  0  0  0  0  0  0  0  0  0
   60.9009   29.0982   46.7369 H   0  0  0  0  0  0  0  0  0  0  0  0
   62.0239   28.8424   45.3585 H   0  0  0  0  0  0  0  0  0  0  0  0
   60.9079   30.2500   45.3585 H   0  0  0  0  0  0  0  0  0  0  0  0
   59.7130   28.8481   43.9886 H   0  0  0  0  0  0  0  0  0  0  0  0
   60.3998   27.3523   44.8121 H   0  0  0  0  0  0  0  0  0  0  0  0
   58.8200   27.3163   46.4313 H   0  0  0  0  0  0  0  0  0  0  0  0
   57.3187   29.1694   47.1132 H   0  0  0  0  0  0  0  0  0  0  0  0
   59.1127   29.4534   47.3678 H   0  0  0  0  0  0  0  0  0  0  0  0
   59.0523   30.7281   45.1876 H   0  0  0  0  0  0  0  0  0  0  0  0
   58.9663   34.3060   48.1831 H   0  0  0  0  0  0  0  0  0  0  0  0
   60.4535   33.6465   47.4849 H   0  0  0  0  0  0  0  0  0  0  0  0
   58.9835   36.1604   46.8107 H   0  0  0  0  0  0  0  0  0  0  0  0
   60.6720   35.7565   46.4717 H   0  0  0  0  0  0  0  0  0  0  0  0
   58.7100   35.8370   44.5168 H   0  0  0  0  0  0  0  0  0  0  0  0
   60.1280   34.7917   44.3680 H   0  0  0  0  0  0  0  0  0  0  0  0
   58.4757   33.0791   44.2883 H   0  0  0  0  0  0  0  0  0  0  0  0
   56.4931   34.2967   46.1367 H   0  0  0  0  0  0  0  0  0  0  0  0
   56.7519   35.1570   44.5812 H   0  0  0  0  0  0  0  0  0  0  0  0
   56.2695   33.4267   44.5812 H   0  0  0  0  0  0  0  0  0  0  0  0
   56.5051   28.1801   42.9797 H   0  0  0  0  0  0  0  0  0  0  0  0
   58.0846   29.0329   43.3278 H   0  0  0  0  0  0  0  0  0  0  0  0
   57.7630   26.7098   44.3565 H   0  0  0  0  0  0  0  0  0  0  0  0
   56.6964   24.7739   47.1733 H   0  0  0  0  0  0  0  0  0  0  0  0
   56.0775   24.0973   45.6286 H   0  0  0  0  0  0  0  0  0  0  0  0
   57.5320   25.1514   45.6286 H   0  0  0  0  0  0  0  0  0  0  0  0
  1  2  1  0
  2  3  1  0
  3  4  1  0
  4  5  1  0
  5  6  1  0
  6  7  2  0
  6  8  1  0
  8  9  1  0
  9 10  1  0
 10 11  1  0
 11 12  1  0
 12 13  1  0
  5 14  1  0
 14 15  1  0
 15 16  2  0
 15 17  1  0
 17 18  1  0
 18 19  1  0
 19 20  1  0
 20 21  1  0
 20 22  2  0
 18  3  1  0
 12  8  1  0
  1 23  1  0
  1 24  1  0
  1 25  1  0
  2 26  1  0
  2 27  1  0
  3 28  1  1
  4 29  1  0
  4 30  1  0
  5 31  1  6
  9 32  1  0
  9 33  1  0
 10 34  1  0
 10 35  1  0
 11 36  1  0
 11 37  1  0
 12 38  1  6
 13 39  1  0
 13 40  1  0
 13 41  1  0
 17 42  1  0
 17 43  1  0
 18 44  1  6
 21 45  1  0
 21 46  1  0
 21 47  1  0
M  CHG  2  14  -1  19  -1
M  END
>  <UniqueID>  (31) 
28

>  <SMILES>  (31) 
CC[C@H]1C[C@H](C(=O)N2CCCC2C)[N-]C(=O)CC1[N-]C(C)=O

>  <Energy>  (31) 
45.01747158085944

>  <Genealogy>  (31) 
CCC1CC(C(=O)N2CCCC2C)[N-]C(=O)CC1[N-]C(C)=O (protonated)
CC[C@H]1C[C@H](C(=O)N2CCCC2C)[N-]C(=O)CC1[N-]C(C)=O (chirality)
CC[C@H]1C[C@H](C(=O)N2CCCC2C)[N-]C(=O)CC1[N-]C(C)=O (3D coordinates assigned)
CC[C@H]1C[C@H](C(=O)N2CCCC2C)[N-]C(=O)CC1[N-]C(C)=O (nonaromatic ring conformer: 45.01747158085944 kcal/mol)

>  <smiles>  (31) 
CCC1CC(C(=O)N2CCCC2C)NC(=O)CC1NC(C)=O

>  <score_type>  (31) 
oracle

>  <origin>  (31) 
adg

>  <m_score__min__energy>  (31) 
-10.18

>  <m_primary>  (31) 
energy

$$$$
31:0
     RDKit          3D

 55 58  0  0  0  0  0  0  0  0999 V2000
   59.5580   27.8930   48.2150 C   0  0  0  0  0  0  0  0  0  0  0  0
   59.6230   26.6640   47.3160 C   0  0  0  0  0  0  0  0  0  0  0  0
   58.6000   26.7570   46.2380 N   0  0  0  0  0  0  0  0  0  0  0  0
   57.6990   25.5750   46.2640 C   0  0  0  0  0  0  0  0  0  0  0  0
   56.2090   25.9210   46.1020 C   0  0  0  0  0  0  0  0  0  0  0  0
   59.1860   27.0770   44.8960 C   0  0  0  0  0  0  0  0  0  0  0  0
   58.1200   27.4360   43.8230 C   0  0  0  0  0  0  0  0  0  0  0  0
   57.3790   28.7310   44.1690 C   0  0  0  0  0  0  0  0  0  0  0  0
   58.3390   29.8160   44.3940 N   0  0  0  0  0  0  0  0  0  0  0  0
   58.0720   31.1280   43.8610 C   0  0  0  0  0  0  0  0  0  0  0  0
   57.6850   31.2420   42.6670 O   0  0  0  0  0  0  0  0  0  0  0  0
   58.2200   32.3460   44.6810 C   0  0  0  0  0  0  0  0  0  0  0  0
   57.3970   33.4130   44.4930 N   0  0  0  0  0  0  0  0  0  0  0  0
   57.5410   34.5450   45.2250 C   0  0  0  0  0  0  0  0  0  0  0  0
   58.5490   34.6330   46.1830 C   0  0  0  0  0  0  0  0  0  0  0  0
   59.3990   33.5320   46.3730 C   0  0  0  0  0  0  0  0  0  0  0  0
   60.5020   33.5530   47.3680 C   0  0  0  0  0  0  0  0  0  0  0  0
   60.2480   34.0160   48.6880 C   0  0  0  0  0  0  0  0  0  0  0  0
   61.2730   34.0560   49.6500 C   0  0  0  0  0  0  0  0  0  0  0  0
   62.5410   33.6340   49.2660 C   0  0  0  0  0  0  0  0  0  0  0  0
   63.7190   33.5710   49.9790 C   0  0  0  0  0  0  0  0  0  0  0  0
   64.6600   33.0820   49.0780 C   0  0  0  0  0  0  0  0  0  0  0  0
   64.0960   32.8550   47.8690 N   0  0  0  0  0  0  0  0  0  0  0  0
   62.8040   33.1950   47.9980 C   0  0  0  0  0  0  0  0  0  0  0  0
   61.8130   33.1420   47.0190 C   0  0  0  0  0  0  0  0  0  0  0  0
   59.2140   32.4210   45.6060 N   0  0  0  0  0  0  0  0  0  0  0  0
   59.4490   29.5830   45.3240 C   0  0  0  0  0  0  0  0  0  0  0  0
   60.1690   28.2730   44.9750 C   0  0  0  0  0  0  0  0  0  0  0  0
   59.5747   27.5778   49.2687 H   0  0  0  0  0  0  0  0  0  0  0  0
   60.4231   28.5416   48.0126 H   0  0  0  0  0  0  0  0  0  0  0  0
   58.6293   28.4467   48.0126 H   0  0  0  0  0  0  0  0  0  0  0  0
   60.6230   26.5987   46.8625 H   0  0  0  0  0  0  0  0  0  0  0  0
   59.4242   25.7673   47.9213 H   0  0  0  0  0  0  0  0  0  0  0  0
   57.9888   24.9010   45.4444 H   0  0  0  0  0  0  0  0  0  0  0  0
   57.8121   25.1101   47.2545 H   0  0  0  0  0  0  0  0  0  0  0  0
   55.7474   26.0282   47.0947 H   0  0  0  0  0  0  0  0  0  0  0  0
   56.1102   26.8660   45.5477 H   0  0  0  0  0  0  0  0  0  0  0  0
   55.7039   25.1163   45.5477 H   0  0  0  0  0  0  0  0  0  0  0  0
   59.7038   26.1539   44.5964 H   0  0  0  0  0  0  0  0  0  0  0  0
   58.6206   27.5608   42.8515 H   0  0  0  0  0  0  0  0  0  0  0  0
   57.3835   26.6198   43.7861 H   0  0  0  0  0  0  0  0  0  0  0  0
   56.7121   29.0019   43.3372 H   0  0  0  0  0  0  0  0  0  0  0  0
   56.7904   28.5753   45.0851 H   0  0  0  0  0  0  0  0  0  0  0  0
   56.8616   35.3947   45.0625 H   0  0  0  0  0  0  0  0  0  0  0  0
   58.6764   35.5484   46.7795 H   0  0  0  0  0  0  0  0  0  0  0  0
   59.2353   34.3477   48.9607 H   0  0  0  0  0  0  0  0  0  0  0  0
   61.0779   34.4097   50.6732 H   0  0  0  0  0  0  0  0  0  0  0  0
   63.8802   33.8472   51.0315 H   0  0  0  0  0  0  0  0  0  0  0  0
   65.7190   32.9040   49.3163 H   0  0  0  0  0  0  0  0  0  0  0  0
   64.5730   32.4910   47.0140 H   0  0  0  0  0  0  0  0  0  0  0  0
   62.0424   32.7904   46.0022 H   0  0  0  0  0  0  0  0  0  0  0  0
   60.1615   30.4183   45.2555 H   0  0  0  0  0  0  0  0  0  0  0  0
   59.0504   29.5113   46.3467 H   0  0  0  0  0  0  0  0  0  0  0  0
   60.6668   28.3893   44.0010 H   0  0  0  0  0  0  0  0  0  0  0  0
   60.8990   28.0626   45.7705 H   0  0  0  0  0  0  0  0  0  0  0  0
  1  2  1  0
  2  3  1  0
  3  4  1  0
  4  5  1  0
  3  6  1  0
  6  7  1  0
  7  8  1  0
  8  9  1  0
  9 10  1  0
 10 11  2  0
 10 12  1  0
 12 13  2  0
 13 14  1  0
 14 15  2  0
 15 16  1  0
 16 17  1  0
 17 18  2  0
 18 19  1  0
 19 20  2  0
 20 21  1  0
 21 22  2  0
 22 23  1  0
 23 24  1  0
 24 25  2  0
 16 26  2  0
  9 27  1  0
 27 28  1  0
 28  6  1  0
 26 12  1  0
 25 17  1  0
 24 20  1  0
  1 29  1  0
  1 30  1  0
  1 31  1  0
  2 32  1  0
  2 33  1  0
  4 34  1  0
  4 35  1  0
  5 36  1  0
  5 37  1  0
  5 38  1  0
  6 39  1  0
  7 40  1  0
  7 41  1  0
  8 42  1  0
  8 43  1  0
 14 44  1  0
 15 45  1  0
 18 46  1  0
 19 47  1  0
 21 48  1  0
 22 49  1  0
 23 50  1  0
 25 51  1  0
 27 52  1  0
 27 53  1  0
 28 54  1  0
 28 55  1  0
M  END
>  <UniqueID>  (32) 
29

>  <SMILES>  (32) 
CCN(CC)C1CCN(C(=O)c2nccc(-c3ccc4cc[nH]c4c3)n2)CC1

>  <Energy>  (32) 
102.8629380374221

>  <Genealogy>  (32) 
CCN(CC)C1CCN(C(=O)c2nccc(-c3ccc4cc[nH]c4c3)n2)CC1 (3D coordinates assigned)
CCN(CC)C1CCN(C(=O)c2nccc(-c3ccc4cc[nH]c4c3)n2)CC1 (nonaromatic ring conformer: 102.8629380374221 kcal/mol)

>  <smiles>  (32) 
CCN(CC)C1CCN(C(=O)c2nccc(-c3ccc4cc[nH]c4c3)n2)CC1

>  <score_type>  (32) 
oracle

>  <origin>  (32) 
adg

>  <m_score__min__energy>  (32) 
-8.7599999999999998

>  <m_primary>  (32) 
energy

$$$$
32:0
     RDKit          3D

 49 52  0  0  0  0  0  0  0  0999 V2000
   57.4280   33.4330   45.2650 C   0  0  0  0  0  0  0  0  0  0  0  0
   57.3760   32.1060   45.7770 O   0  0  0  0  0  0  0  0  0  0  0  0
   57.3860   30.9450   44.9890 C   0  0  0  0  0  0  0  0  0  0  0  0
   56.6640   30.8610   43.7800 C   0  0  0  0  0  0  0  0  0  0  0  0
   56.6730   29.6820   43.0310 C   0  0  0  0  0  0  0  0  0  0  0  0
   57.3990   28.5770   43.4740 C   0  0  0  0  0  0  0  0  0  0  0  0
   58.1220   28.6480   44.6660 C   0  0  0  0  0  0  0  0  0  0  0  0
   58.1260   29.8270   45.4260 C   0  0  0  0  0  0  0  0  0  0  0  0
   58.8950   29.8840   46.6420 N   0  0  0  0  0  0  0  0  0  0  0  0
   59.6610   31.0900   46.9780 C   0  0  0  0  0  0  0  0  0  0  0  0
   59.2610   31.6250   48.3680 C   0  0  0  0  0  0  0  0  0  0  0  0
   58.6760   30.5790   49.2400 N   0  0  0  0  0  0  0  0  0  0  0  0
   58.6630   30.9610   50.6680 C   0  0  0  0  0  0  0  0  0  0  0  0
   57.4520   30.4650   51.4120 C   0  0  0  0  0  0  0  0  0  0  0  0
   57.4320   29.4650   52.3600 C   0  0  0  0  0  0  0  0  0  0  0  0
   56.1960   29.3460   52.7750 O   0  0  0  0  0  0  0  0  0  0  0  0
   55.4740   30.2280   52.1180 C   0  0  0  0  0  0  0  0  0  0  0  0
   54.0210   30.4040   52.3120 C   0  0  0  0  0  0  0  0  0  0  0  0
   53.3490   29.6830   53.3140 C   0  0  0  0  0  0  0  0  0  0  0  0
   51.9730   29.8490   53.5000 C   0  0  0  0  0  0  0  0  0  0  0  0
   51.2570   30.7330   52.6910 C   0  0  0  0  0  0  0  0  0  0  0  0
   51.9160   31.4550   51.6910 C   0  0  0  0  0  0  0  0  0  0  0  0
   51.2200   32.3140   50.9060 F   0  0  0  0  0  0  0  0  0  0  0  0
   53.2920   31.2930   51.5010 C   0  0  0  0  0  0  0  0  0  0  0  0
   56.2090   30.9570   51.2500 N   0  0  0  0  0  0  0  0  0  0  0  0
   59.2500   29.2430   48.9980 C   0  0  0  0  0  0  0  0  0  0  0  0
   58.8380   28.7730   47.6010 C   0  0  0  0  0  0  0  0  0  0  0  0
   57.4560   34.1476   46.1008 H   0  0  0  0  0  0  0  0  0  0  0  0
   58.3315   33.5533   44.6493 H   0  0  0  0  0  0  0  0  0  0  0  0
   56.5366   33.6236   44.6493 H   0  0  0  0  0  0  0  0  0  0  0  0
   56.0902   31.7296   43.4248 H   0  0  0  0  0  0  0  0  0  0  0  0
   56.1063   29.6251   42.0899 H   0  0  0  0  0  0  0  0  0  0  0  0
   57.4020   27.6488   42.8838 H   0  0  0  0  0  0  0  0  0  0  0  0
   58.6925   27.7734   45.0117 H   0  0  0  0  0  0  0  0  0  0  0  0
   60.7337   30.8465   46.9806 H   0  0  0  0  0  0  0  0  0  0  0  0
   59.4453   31.8645   46.2273 H   0  0  0  0  0  0  0  0  0  0  0  0
   60.1574   32.0312   48.8594 H   0  0  0  0  0  0  0  0  0  0  0  0
   58.4927   32.3976   48.2168 H   0  0  0  0  0  0  0  0  0  0  0  0
   59.5610   30.5446   51.1478 H   0  0  0  0  0  0  0  0  0  0  0  0
   58.6395   32.0600   50.7084 H   0  0  0  0  0  0  0  0  0  0  0  0
   58.2948   28.8759   52.7043 H   0  0  0  0  0  0  0  0  0  0  0  0
   53.9079   28.9851   53.9547 H   0  0  0  0  0  0  0  0  0  0  0  0
   51.4534   29.2814   54.2860 H   0  0  0  0  0  0  0  0  0  0  0  0
   50.1748   30.8616   52.8401 H   0  0  0  0  0  0  0  0  0  0  0  0
   53.8068   31.8633   50.7138 H   0  0  0  0  0  0  0  0  0  0  0  0
   60.3469   29.2952   49.0616 H   0  0  0  0  0  0  0  0  0  0  0  0
   58.8794   28.5352   49.7541 H   0  0  0  0  0  0  0  0  0  0  0  0
   59.5214   27.9764   47.2718 H   0  0  0  0  0  0  0  0  0  0  0  0
   57.8055   28.3960   47.6447 H   0  0  0  0  0  0  0  0  0  0  0  0
  1  2  1  0
  2  3  1  0
  3  4  2  0
  4  5  1  0
  5  6  2  0
  6  7  1  0
  7  8  2  0
  8  9  1  0
  9 10  1  0
 10 11  1  0
 11 12  1  0
 12 13  1  0
 13 14  1  0
 14 15  2  0
 15 16  1  0
 16 17  1  0
 17 18  1  0
 18 19  2  0
 19 20  1  0
 20 21  2  0
 21 22  1  0
 22 23  1  0
 22 24  2  0
 17 25  2  0
 12 26  1  0
 26 27  1  0
  8  3  1  0
 27  9  1  0
 25 14  1  0
 24 18  1  0
  1 28  1  0
  1 29  1  0
  1 30  1  0
  4 31  1  0
  5 32  1  0
  6 33  1  0
  7 34  1  0
 10 35  1  0
 10 36  1  0
 11 37  1  0
 11 38  1  0
 13 39  1  0
 13 40  1  0
 15 41  1  0
 19 42  1  0
 20 43  1  0
 21 44  1  0
 24 45  1  0
 26 46  1  0
 26 47  1  0
 27 48  1  0
 27 49  1  0
M  END
>  <UniqueID>  (33) 
30

>  <SMILES>  (33) 
COc1ccccc1N1CCN(Cc2coc(-c3cccc(F)c3)n2)CC1

>  <Energy>  (33) 
93.8771895209311

>  <Genealogy>  (33) 
COc1ccccc1N1CCN(Cc2coc(-c3cccc(F)c3)n2)CC1 (3D coordinates assigned)
COc1ccccc1N1CCN(Cc2coc(-c3cccc(F)c3)n2)CC1 (nonaromatic ring conformer: 93.8771895209311 kcal/mol)

>  <smiles>  (33) 
COc1ccccc1N1CCN(Cc2coc(-c3cccc(F)c3)n2)CC1

>  <score_type>  (33) 
oracle

>  <origin>  (33) 
adg

>  <m_score__min__energy>  (33) 
-8.4499999999999993

>  <m_primary>  (33) 
energy

$$$$
33:0
     RDKit          3D

 50 52  0  0  0  0  0  0  0  0999 V2000
   54.7360   28.2960   53.0730 C   0  0  0  0  0  0  0  0  0  0  0  0
   54.1310   29.4660   52.3610 C   0  0  0  0  0  0  0  0  0  0  0  0
   52.9990   29.3950   51.6370 N   0  0  0  0  0  0  0  0  0  0  0  0
   52.8590   30.6490   51.1630 C   0  0  0  0  0  0  0  0  0  0  0  0
   51.7830   31.0720   50.3230 N   0  0  0  0  0  0  0  0  0  0  0  0
   51.3690   30.3330   49.4070 O   0  0  0  0  0  0  0  0  0  0  0  0
   51.1970   32.3000   50.5210 O   0  0  0  0  0  0  0  0  0  0  0  0
   53.8560   31.4640   51.5650 N   0  0  0  0  0  0  0  0  0  0  0  0
   54.6500   30.7140   52.3120 N   0  0  0  0  0  0  0  0  0  0  0  0
   55.8770   31.2140   52.9380 C   0  0  0  0  0  0  0  0  0  0  0  0
   57.0850   30.3490   52.5490 C   0  0  0  0  0  0  0  0  0  0  0  0
   57.6310   30.6480   51.1410 C   0  0  0  0  0  0  0  0  0  0  0  0
   57.9380   32.1360   50.9050 C   0  0  0  0  0  0  0  0  0  0  0  0
   59.3820   32.3530   50.6550 N   0  0  0  0  0  0  0  0  0  0  0  0
   59.6790   33.6040   49.9440 C   0  0  0  0  0  0  0  0  0  0  0  0
   59.2080   33.6090   48.4770 C   0  0  0  0  0  0  0  0  0  0  0  0
   59.1830   32.2870   47.8110 N   0  0  0  0  0  0  0  0  0  0  0  0
   58.7510   32.2080   46.4150 C   0  0  0  0  0  0  0  0  0  0  0  0
   58.8640   33.3200   45.5470 C   0  0  0  0  0  0  0  0  0  0  0  0
   58.4510   33.2400   44.2150 C   0  0  0  0  0  0  0  0  0  0  0  0
   57.9120   32.0570   43.7100 C   0  0  0  0  0  0  0  0  0  0  0  0
   57.4040   32.0010   42.0270 Cl  0  0  0  0  0  0  0  0  0  0  0  0
   57.7820   30.9420   44.5480 C   0  0  0  0  0  0  0  0  0  0  0  0
   57.1000   29.4330   43.9540 Cl  0  0  0  0  0  0  0  0  0  0  0  0
   58.1950   31.0180   45.8840 C   0  0  0  0  0  0  0  0  0  0  0  0
   59.4470   31.0320   48.5460 C   0  0  0  0  0  0  0  0  0  0  0  0
   60.0200   31.2350   49.9510 C   0  0  0  0  0  0  0  0  0  0  0  0
   54.6576   28.4475   54.1597 H   0  0  0  0  0  0  0  0  0  0  0  0
   54.1996   27.3779   52.7912 H   0  0  0  0  0  0  0  0  0  0  0  0
   55.7952   28.2030   52.7912 H   0  0  0  0  0  0  0  0  0  0  0  0
   52.3830   28.5670   51.4760 H   0  0  0  0  0  0  0  0  0  0  0  0
   56.0538   32.2482   52.6076 H   0  0  0  0  0  0  0  0  0  0  0  0
   55.7546   31.1741   54.0304 H   0  0  0  0  0  0  0  0  0  0  0  0
   57.8889   30.5267   53.2784 H   0  0  0  0  0  0  0  0  0  0  0  0
   56.7447   29.3030   52.5469 H   0  0  0  0  0  0  0  0  0  0  0  0
   58.5586   30.0743   50.9983 H   0  0  0  0  0  0  0  0  0  0  0  0
   56.8484   30.3615   50.4231 H   0  0  0  0  0  0  0  0  0  0  0  0
   57.3665   32.4862   50.0328 H   0  0  0  0  0  0  0  0  0  0  0  0
   57.6529   32.6974   51.8070 H   0  0  0  0  0  0  0  0  0  0  0  0
   59.1803   34.4303   50.4718 H   0  0  0  0  0  0  0  0  0  0  0  0
   60.7734   33.7145   49.9308 H   0  0  0  0  0  0  0  0  0  0  0  0
   58.1886   34.0215   48.4498 H   0  0  0  0  0  0  0  0  0  0  0  0
   59.9449   34.2111   47.9253 H   0  0  0  0  0  0  0  0  0  0  0  0
   59.2839   34.2628   45.9275 H   0  0  0  0  0  0  0  0  0  0  0  0
   58.5517   34.1172   43.5590 H   0  0  0  0  0  0  0  0  0  0  0  0
   58.0856   30.1370   46.5335 H   0  0  0  0  0  0  0  0  0  0  0  0
   58.5000   30.4797   48.6364 H   0  0  0  0  0  0  0  0  0  0  0  0
   60.2078   30.4836   47.9711 H   0  0  0  0  0  0  0  0  0  0  0  0
   59.8641   30.3148   50.5332 H   0  0  0  0  0  0  0  0  0  0  0  0
   61.0901   31.4681   49.8482 H   0  0  0  0  0  0  0  0  0  0  0  0
  1  2  1  0
  2  3  2  0
  3  4  1  0
  4  5  1  0
  5  6  2  0
  5  7  1  0
  4  8  2  0
  8  9  1  0
  9 10  1  0
 10 11  1  0
 11 12  1  0
 12 13  1  0
 13 14  1  0
 14 15  1  0
 15 16  1  0
 16 17  1  0
 17 18  1  0
 18 19  2  0
 19 20  1  0
 20 21  2  0
 21 22  1  0
 21 23  1  0
 23 24  1  0
 23 25  2  0
 17 26  1  0
 26 27  1  0
  9  2  1  0
 27 14  1  0
 25 18  1  0
  1 28  1  0
  1 29  1  0
  1 30  1  0
  3 31  1  0
 10 32  1  0
 10 33  1  0
 11 34  1  0
 11 35  1  0
 12 36  1  0
 12 37  1  0
 13 38  1  0
 13 39  1  0
 15 40  1  0
 15 41  1  0
 16 42  1  0
 16 43  1  0
 19 44  1  0
 20 45  1  0
 25 46  1  0
 26 47  1  0
 26 48  1  0
 27 49  1  0
 27 50  1  0
M  CHG  3   3   1   5   1   7  -1
M  END
>  <UniqueID>  (34) 
31

>  <SMILES>  (34) 
Cc1[nH+]c([N+](=O)[O-])nn1CCCCN1CCN(c2ccc(Cl)c(Cl)c2)CC1

>  <Energy>  (34) 
91.6409363023512

>  <Genealogy>  (34) 
Cc1[nH+]c([N+](=O)[O-])nn1CCCCN1CCN(c2ccc(Cl)c(Cl)c2)CC1 (protonated)
Cc1[nH+]c([N+](=O)[O-])nn1CCCCN1CCN(c2ccc(Cl)c(Cl)c2)CC1 (3D coordinates assigned)
Cc1[nH+]c([N+](=O)[O-])nn1CCCCN1CCN(c2ccc(Cl)c(Cl)c2)CC1 (nonaromatic ring conformer: 91.6409363023512 kcal/mol)

>  <smiles>  (34) 
Cc1nc([N+](=O)[O-])nn1CCCCN1CCN(c2ccc(Cl)c(Cl)c2)CC1

>  <score_type>  (34) 
oracle

>  <origin>  (34) 
adg

>  <m_score__min__energy>  (34) 
-8.1600000000000001

>  <m_primary>  (34) 
energy

$$$$
34:0
     RDKit          3D

 40 41  0  0  0  0  0  0  0  0999 V2000
   58.8920   34.4850   45.3200 C   0  0  0  0  0  0  0  0  0  0  0  0
   58.0400   33.7840   44.4200 O   0  0  0  0  0  0  0  0  0  0  0  0
   57.8260   32.3970   44.4500 C   0  0  0  0  0  0  0  0  0  0  0  0
   57.3900   31.6750   43.3230 C   0  0  0  0  0  0  0  0  0  0  0  0
   57.1900   30.2950   43.4050 C   0  0  0  0  0  0  0  0  0  0  0  0
   57.4060   29.6130   44.6120 C   0  0  0  0  0  0  0  0  0  0  0  0
   57.2140   28.1890   44.6610 N   0  0  0  0  0  0  0  0  0  0  0  0
   58.2810   27.2300   44.5810 C   0  0  0  0  0  0  0  0  0  0  0  0
   59.4840   27.5980   44.6610 O   0  0  0  0  0  0  0  0  0  0  0  0
   57.9640   25.7680   44.4920 C   0  0  0  0  0  0  0  0  0  0  0  0
   57.2120   25.3400   45.6800 N   0  0  0  0  0  0  0  0  0  0  0  0
   57.9420   24.9180   46.8820 C   0  0  0  0  0  0  0  0  0  0  0  0
   55.7660   25.3110   45.6410 C   0  0  0  0  0  0  0  0  0  0  0  0
   55.1100   26.3360   45.9750 O   0  0  0  0  0  0  0  0  0  0  0  0
   54.9980   24.0750   45.2510 C   0  0  0  0  0  0  0  0  0  0  0  0
   55.9050   23.0480   44.6480 C   0  0  0  0  0  0  0  0  0  0  0  0
   56.6170   22.0760   45.3420 C   0  0  0  0  0  0  0  0  0  0  0  0
   57.3450   21.2230   44.5040 C   0  0  0  0  0  0  0  0  0  0  0  0
   57.2010   21.5110   43.1530 C   0  0  0  0  0  0  0  0  0  0  0  0
   56.1640   22.8270   43.0000 S   0  0  0  0  0  0  0  0  0  0  0  0
   57.8630   30.3320   45.7300 C   0  0  0  0  0  0  0  0  0  0  0  0
   58.0630   31.7130   45.6470 C   0  0  0  0  0  0  0  0  0  0  0  0
   58.6052   34.2490   46.3554 H   0  0  0  0  0  0  0  0  0  0  0  0
   59.9352   34.1802   45.1500 H   0  0  0  0  0  0  0  0  0  0  0  0
   58.7939   35.5673   45.1500 H   0  0  0  0  0  0  0  0  0  0  0  0
   57.2060   32.1997   42.3739 H   0  0  0  0  0  0  0  0  0  0  0  0
   56.8603   29.7381   42.5155 H   0  0  0  0  0  0  0  0  0  0  0  0
   56.2530   27.8310   44.8600 H   0  0  0  0  0  0  0  0  0  0  0  0
   57.3595   25.5811   43.5922 H   0  0  0  0  0  0  0  0  0  0  0  0
   58.9038   25.1990   44.4370 H   0  0  0  0  0  0  0  0  0  0  0  0
   57.3893   25.2375   47.7778 H   0  0  0  0  0  0  0  0  0  0  0  0
   58.0423   23.8226   46.8844 H   0  0  0  0  0  0  0  0  0  0  0  0
   58.9413   25.3777   46.8844 H   0  0  0  0  0  0  0  0  0  0  0  0
   54.5197   23.6512   46.1463 H   0  0  0  0  0  0  0  0  0  0  0  0
   54.2397   24.3544   44.5047 H   0  0  0  0  0  0  0  0  0  0  0  0
   56.6091   21.9864   46.4383 H   0  0  0  0  0  0  0  0  0  0  0  0
   57.9724   20.4015   44.8803 H   0  0  0  0  0  0  0  0  0  0  0  0
   57.6827   20.9710   42.3245 H   0  0  0  0  0  0  0  0  0  0  0  0
   58.0642   29.8055   46.6746 H   0  0  0  0  0  0  0  0  0  0  0  0
   58.4101   32.2672   46.5315 H   0  0  0  0  0  0  0  0  0  0  0  0
  1  2  1  0
  2  3  1  0
  3  4  2  0
  4  5  1  0
  5  6  2  0
  6  7  1  0
  7  8  1  0
  8  9  2  0
  8 10  1  0
 10 11  1  0
 11 12  1  0
 11 13  1  0
 13 14  2  0
 13 15  1  0
 15 16  1  0
 16 17  2  0
 17 18  1  0
 18 19  2  0
 19 20  1  0
  6 21  1  0
 21 22  2  0
 22  3  1  0
 20 16  1  0
  1 23  1  0
  1 24  1  0
  1 25  1  0
  4 26  1  0
  5 27  1  0
  7 28  1  0
 10 29  1  0
 10 30  1  0
 12 31  1  0
 12 32  1  0
 12 33  1  0
 15 34  1  0
 15 35  1  0
 17 36  1  0
 18 37  1  0
 19 38  1  0
 21 39  1  0
 22 40  1  0
M  END
>  <UniqueID>  (35) 
32

>  <SMILES>  (35) 
COc1ccc(NC(=O)CN(C)C(=O)Cc2cccs2)cc1

>  <Energy>  (35) 
63.39712471272094

>  <Genealogy>  (35) 
COc1ccc(NC(=O)CN(C)C(=O)Cc2cccs2)cc1 (3D coordinates assigned)
COc1ccc(NC(=O)CN(C)C(=O)Cc2cccs2)cc1 (optimized conformer: 63.39712471272094 kcal/mol)

>  <smiles>  (35) 
COc1ccc(NC(=O)CN(C)C(=O)Cc2cccs2)cc1

>  <score_type>  (35) 
oracle

>  <origin>  (35) 
adg

>  <m_score__min__energy>  (35) 
-6.7999999999999998

>  <m_primary>  (35) 
energy

$$$$
35:0
     RDKit          3D

 51 54  0  0  0  0  0  0  0  0999 V2000
   67.3620   33.4670   50.4610 C   0  0  0  0  0  0  0  0  0  0  0  0
   66.4180   32.3780   50.6960 N   0  0  0  0  0  0  0  0  0  0  0  0
   66.5240   31.4210   51.6390 C   0  0  0  0  0  0  0  0  0  0  0  0
   65.3830   30.6470   51.5990 C   0  0  0  0  0  0  0  0  0  0  0  0
   64.5660   31.1300   50.6440 N   0  0  0  0  0  0  0  0  0  0  0  0
   65.2170   32.1830   50.1120 C   0  0  0  0  0  0  0  0  0  0  0  0
   64.6290   33.0680   49.0480 C   0  0  0  0  0  0  0  0  0  0  0  0
   63.3430   32.5230   48.5740 N   0  0  0  0  0  0  0  0  0  0  0  0
   62.2090   32.9680   49.4320 C   0  0  0  0  0  0  0  0  0  0  0  0
   61.4390   33.9320   48.5610 C   0  0  2  0  0  0  0  0  0  0  0  0
   59.9620   34.2280   48.6130 C   0  0  0  0  0  0  0  0  0  0  0  0
   59.6490   34.7000   47.2350 N   0  0  0  0  0  0  0  0  0  0  0  0
   58.3260   34.2140   46.7770 C   0  0  0  0  0  0  0  0  0  0  0  0
   58.4580   33.1320   45.6830 C   0  0  0  0  0  0  0  0  0  0  0  0
   58.1760   31.7150   46.2280 C   0  0  0  0  0  0  0  0  0  0  0  0
   57.8820   30.7240   45.0850 C   0  0  0  0  0  0  0  0  0  0  0  0
   58.4810   31.1550   43.8780 O   0  0  0  0  0  0  0  0  0  0  0  0
   57.8090   32.3020   43.3770 C   0  0  0  0  0  0  0  0  0  0  0  0
   57.5920   33.4020   44.4430 C   0  0  0  0  0  0  0  0  0  0  0  0
   60.7770   34.2390   46.3730 C   0  0  0  0  0  0  0  0  0  0  0  0
   61.5450   33.2760   47.2450 C   0  0  1  0  0  0  0  0  0  0  0  0
   63.0210   32.9760   47.1900 C   0  0  0  0  0  0  0  0  0  0  0  0
   67.7084   33.8666   51.4256 H   0  0  0  0  0  0  0  0  0  0  0  0
   68.2230   33.0891   49.8902 H   0  0  0  0  0  0  0  0  0  0  0  0
   66.8657   34.2657   49.8902 H   0  0  0  0  0  0  0  0  0  0  0  0
   67.3742   31.2812   52.3229 H   0  0  0  0  0  0  0  0  0  0  0  0
   65.1749   29.7786   52.2413 H   0  0  0  0  0  0  0  0  0  0  0  0
   63.6190   30.7740   50.3890 H   0  0  0  0  0  0  0  0  0  0  0  0
   64.4648   34.0732   49.4635 H   0  0  0  0  0  0  0  0  0  0  0  0
   65.3282   33.1171   48.2002 H   0  0  0  0  0  0  0  0  0  0  0  0
   61.5788   32.1134   49.7192 H   0  0  0  0  0  0  0  0  0  0  0  0
   62.5481   33.4288   50.3715 H   0  0  0  0  0  0  0  0  0  0  0  0
   61.8718   34.8959   48.8669 H   0  0  0  0  0  0  0  0  0  0  0  0
   59.3884   33.3217   48.8572 H   0  0  0  0  0  0  0  0  0  0  0  0
   59.7015   34.9657   49.3863 H   0  0  0  0  0  0  0  0  0  0  0  0
   57.7868   33.7877   47.6358 H   0  0  0  0  0  0  0  0  0  0  0  0
   57.7786   35.0668   46.3492 H   0  0  0  0  0  0  0  0  0  0  0  0
   59.5088   33.1842   45.3618 H   0  0  0  0  0  0  0  0  0  0  0  0
   59.0554   31.3650   46.7884 H   0  0  0  0  0  0  0  0  0  0  0  0
   57.2924   31.7637   46.8814 H   0  0  0  0  0  0  0  0  0  0  0  0
   58.2828   29.7354   45.3532 H   0  0  0  0  0  0  0  0  0  0  0  0
   56.7933   30.6696   44.9377 H   0  0  0  0  0  0  0  0  0  0  0  0
   58.4064   32.7252   42.5560 H   0  0  0  0  0  0  0  0  0  0  0  0
   56.8140   31.9744   43.0415 H   0  0  0  0  0  0  0  0  0  0  0  0
   57.8661   34.3781   44.0162 H   0  0  0  0  0  0  0  0  0  0  0  0
   56.5336   33.4014   44.7427 H   0  0  0  0  0  0  0  0  0  0  0  0
   60.3977   33.7322   45.4734 H   0  0  0  0  0  0  0  0  0  0  0  0
   61.4009   35.0721   46.0171 H   0  0  0  0  0  0  0  0  0  0  0  0
   61.1105   32.3121   46.9415 H   0  0  0  0  0  0  0  0  0  0  0  0
   63.2327   32.1822   46.4585 H   0  0  0  0  0  0  0  0  0  0  0  0
   63.6202   33.8432   46.8757 H   0  0  0  0  0  0  0  0  0  0  0  0
  1  2  1  0
  2  3  1  0
  3  4  2  0
  4  5  1  0
  5  6  2  0
  6  7  1  0
  7  8  1  0
  8  9  1  0
  9 10  1  0
 10 11  1  0
 11 12  1  0
 12 13  1  0
 13 14  1  0
 14 15  1  0
 15 16  1  0
 16 17  1  0
 17 18  1  0
 18 19  1  0
 12 20  1  0
 20 21  1  0
 21 22  1  0
  6  2  1  0
 22  8  1  0
 21 10  1  0
 19 14  1  0
  1 23  1  0
  1 24  1  0
  1 25  1  0
  3 26  1  0
  4 27  1  0
  5 28  1  0
  7 29  1  0
  7 30  1  0
  9 31  1  0
  9 32  1  0
 10 33  1  6
 11 34  1  0
 11 35  1  0
 13 36  1  0
 13 37  1  0
 14 38  1  0
 15 39  1  0
 15 40  1  0
 16 41  1  0
 16 42  1  0
 18 43  1  0
 18 44  1  0
 19 45  1  0
 19 46  1  0
 20 47  1  0
 20 48  1  0
 21 49  1  1
 22 50  1  0
 22 51  1  0
M  CHG  1   5   1
M  END
>  <UniqueID>  (36) 
33

>  <SMILES>  (36) 
Cn1cc[nH+]c1CN1C[C@@H]2CN(CC3CCOCC3)C[C@H]2C1

>  <Energy>  (36) 
123.51252788253763

>  <Genealogy>  (36) 
Cn1cc[nH+]c1CN1CC2CN(CC3CCOCC3)CC2C1 (protonated)
Cn1cc[nH+]c1CN1C[C@@H]2CN(CC3CCOCC3)C[C@H]2C1 (chirality)
Cn1cc[nH+]c1CN1C[C@@H]2CN(CC3CCOCC3)C[C@H]2C1 (3D coordinates assigned)
Cn1cc[nH+]c1CN1C[C@@H]2CN(CC3CCOCC3)C[C@H]2C1 (nonaromatic ring conformer: 123.51252788253763 kcal/mol)

>  <smiles>  (36) 
Cn1ccnc1CN1CC2CN(CC3CCOCC3)CC2C1

>  <score_type>  (36) 
oracle

>  <origin>  (36) 
adg

>  <m_score__min__energy>  (36) 
-6.4100000000000001

>  <m_primary>  (36) 
energy

$$$$
36:0
     RDKit          3D

 52 54  0  0  0  0  0  0  0  0999 V2000
   59.2870   35.3930   44.8820 C   0  0  0  0  0  0  0  0  0  0  0  0
   59.7630   34.1160   45.5790 C   0  0  0  0  0  0  0  0  0  0  0  0
   58.6620   33.2600   46.0730 N   0  0  0  0  0  0  0  0  0  0  0  0
   58.3500   33.4470   47.5080 C   0  0  0  0  0  0  0  0  0  0  0  0
   59.2680   34.4950   48.1330 C   0  0  0  0  0  0  0  0  0  0  0  0
   57.5110   33.1260   45.1450 C   0  0  0  0  0  0  0  0  0  0  0  0
   57.7530   32.1900   43.9410 C   0  0  0  0  0  0  0  0  0  0  0  0
   57.0890   30.8260   44.1610 C   0  0  0  0  0  0  0  0  0  0  0  0
   58.0960   29.7660   44.2100 N   0  0  0  0  0  0  0  0  0  0  0  0
   58.6550   29.2220   45.4210 C   0  0  0  0  0  0  0  0  0  0  0  0
   58.9310   27.8470   45.5660 C   0  0  0  0  0  0  0  0  0  0  0  0
   59.4730   27.3580   46.7570 C   0  0  0  0  0  0  0  0  0  0  0  0
   59.7510   28.2270   47.8130 C   0  0  0  0  0  0  0  0  0  0  0  0
   59.4890   29.5980   47.6850 C   0  0  0  0  0  0  0  0  0  0  0  0
   59.7840   30.4950   48.7680 N   0  0  0  0  0  0  0  0  0  0  0  0
   59.2130   30.5110   49.9990 C   0  0  0  0  0  0  0  0  0  0  0  0
   58.1910   29.6580   50.4100 O   0  0  0  0  0  0  0  0  0  0  0  0
   59.7550   31.5100   50.7970 C   0  0  0  0  0  0  0  0  0  0  0  0
   60.6970   32.1250   50.0000 C   0  0  0  0  0  0  0  0  0  0  0  0
   61.5560   33.1850   50.2790 C   0  0  0  0  0  0  0  0  0  0  0  0
   62.4410   33.5980   49.2670 C   0  0  0  0  0  0  0  0  0  0  0  0
   62.4530   32.9440   48.0150 C   0  0  0  0  0  0  0  0  0  0  0  0
   63.5730   33.4640   46.7690 Cl  0  0  0  0  0  0  0  0  0  0  0  0
   61.5740   31.8740   47.7620 C   0  0  0  0  0  0  0  0  0  0  0  0
   60.6930   31.4930   48.7790 C   0  0  0  0  0  0  0  0  0  0  0  0
   58.9460   30.0880   46.4880 C   0  0  0  0  0  0  0  0  0  0  0  0
   59.0080   36.1414   45.6384 H   0  0  0  0  0  0  0  0  0  0  0  0
   60.0970   35.7913   44.2534 H   0  0  0  0  0  0  0  0  0  0  0  0
   58.4139   35.1640   44.2534 H   0  0  0  0  0  0  0  0  0  0  0  0
   60.3616   33.5329   44.8637 H   0  0  0  0  0  0  0  0  0  0  0  0
   60.3452   34.4287   46.4583 H   0  0  0  0  0  0  0  0  0  0  0  0
   57.3055   33.7766   47.6095 H   0  0  0  0  0  0  0  0  0  0  0  0
   58.5032   32.4902   48.0286 H   0  0  0  0  0  0  0  0  0  0  0  0
   59.2087   34.4273   49.2293 H   0  0  0  0  0  0  0  0  0  0  0  0
   60.3039   34.3145   47.8100 H   0  0  0  0  0  0  0  0  0  0  0  0
   58.9527   35.4981   47.8100 H   0  0  0  0  0  0  0  0  0  0  0  0
   56.6557   32.7349   45.7155 H   0  0  0  0  0  0  0  0  0  0  0  0
   57.3335   34.1277   44.7266 H   0  0  0  0  0  0  0  0  0  0  0  0
   57.3325   32.6526   43.0359 H   0  0  0  0  0  0  0  0  0  0  0  0
   58.8366   32.0374   43.8290 H   0  0  0  0  0  0  0  0  0  0  0  0
   56.5348   30.8426   45.1110 H   0  0  0  0  0  0  0  0  0  0  0  0
   56.4033   30.6259   43.3244 H   0  0  0  0  0  0  0  0  0  0  0  0
   58.4270   29.3830   43.2940 H   0  0  0  0  0  0  0  0  0  0  0  0
   58.7185   27.1558   44.7371 H   0  0  0  0  0  0  0  0  0  0  0  0
   59.6816   26.2832   46.8630 H   0  0  0  0  0  0  0  0  0  0  0  0
   60.1769   27.8350   48.7484 H   0  0  0  0  0  0  0  0  0  0  0  0
   57.4330   29.3980   49.7930 H   0  0  0  0  0  0  0  0  0  0  0  0
   59.4909   31.7563   51.8360 H   0  0  0  0  0  0  0  0  0  0  0  0
   61.5427   33.6833   51.2596 H   0  0  0  0  0  0  0  0  0  0  0  0
   63.1288   34.4363   49.4518 H   0  0  0  0  0  0  0  0  0  0  0  0
   61.5799   31.3531   46.7932 H   0  0  0  0  0  0  0  0  0  0  0  0
   58.7455   31.1645   46.3835 H   0  0  0  0  0  0  0  0  0  0  0  0
  1  2  1  0
  2  3  1  0
  3  4  1  0
  4  5  1  0
  3  6  1  0
  6  7  1  0
  7  8  1  0
  8  9  1  0
  9 10  1  0
 10 11  2  0
 11 12  1  0
 12 13  2  0
 13 14  1  0
 14 15  1  0
 15 16  1  0
 16 17  1  0
 16 18  2  0
 18 19  1  0
 19 20  2  0
 20 21  1  0
 21 22  2  0
 22 23  1  0
 22 24  1  0
 24 25  2  0
 14 26  2  0
 26 10  1  0
 25 15  1  0
 25 19  1  0
  1 27  1  0
  1 28  1  0
  1 29  1  0
  2 30  1  0
  2 31  1  0
  4 32  1  0
  4 33  1  0
  5 34  1  0
  5 35  1  0
  5 36  1  0
  6 37  1  0
  6 38  1  0
  7 39  1  0
  7 40  1  0
  8 41  1  0
  8 42  1  0
  9 43  1  0
 11 44  1  0
 12 45  1  0
 13 46  1  0
 17 47  1  0
 18 48  1  0
 20 49  1  0
 21 50  1  0
 24 51  1  0
 26 52  1  0
M  END
>  <UniqueID>  (37) 
34

>  <SMILES>  (37) 
CCN(CC)CCCNc1cccc(-n2c(O)cc3ccc(Cl)cc32)c1

>  <Energy>  (37) 
95.03458711036511

>  <Genealogy>  (37) 
CCN(CC)CCCNc1cccc(-n2c(O)cc3ccc(Cl)cc32)c1 (3D coordinates assigned)
CCN(CC)CCCNc1cccc(-n2c(O)cc3ccc(Cl)cc32)c1 (optimized conformer: 95.03458711036511 kcal/mol)

>  <smiles>  (37) 
CCN(CC)CCCNc1cccc(-n2c(O)cc3ccc(Cl)cc32)c1

>  <score_type>  (37) 
oracle

>  <origin>  (37) 
adg

>  <m_score__min__energy>  (37) 
-7.8300000000000001

>  <m_primary>  (37) 
energy

$$$$
37:0
     RDKit          3D

 57 58  0  0  0  0  0  0  0  0999 V2000
   63.2070   33.8310   46.3720 C   0  0  0  0  0  0  0  0  0  0  0  0
   63.6990   33.8410   47.8200 C   0  0  0  0  0  0  0  0  0  0  0  0
   62.7020   33.2600   48.7520 N   0  0  0  0  0  0  0  0  0  0  0  0
   61.6640   34.2720   49.0620 C   0  0  0  0  0  0  0  0  0  0  0  0
   60.2940   33.6200   49.2320 C   0  0  0  0  0  0  0  0  0  0  0  0
   63.3420   32.7470   49.9950 C   0  0  0  0  0  0  0  0  0  0  0  0
   62.9160   31.3010   50.2780 C   0  0  0  0  0  0  0  0  0  0  0  0
   62.0380   30.7960   49.2250 N   0  0  0  0  0  0  0  0  0  0  0  0
   61.1430   29.6890   49.4260 C   0  0  0  0  0  0  0  0  0  0  0  0
   61.1100   29.1020   50.5410 O   0  0  0  0  0  0  0  0  0  0  0  0
   60.2850   29.2040   48.3240 C   0  0  0  0  0  0  0  0  0  0  0  0
   60.4540   29.7130   47.0250 C   0  0  0  0  0  0  0  0  0  0  0  0
   59.6340   29.2780   45.9820 C   0  0  0  0  0  0  0  0  0  0  0  0
   58.6390   28.3160   46.2170 C   0  0  0  0  0  0  0  0  0  0  0  0
   57.7420   27.8690   45.0930 C   0  0  0  0  0  0  0  0  0  0  0  0
   56.4390   28.5310   45.1830 N   0  0  0  0  0  0  0  0  0  0  0  0
   56.2310   29.6960   43.9070 S   0  0  0  0  0  0  0  0  0  0  0  0
   56.7030   29.0940   42.6150 O   0  0  0  0  0  0  0  0  0  0  0  0
   54.7720   30.0300   43.7700 O   0  0  0  0  0  0  0  0  0  0  0  0
   57.1630   31.1570   44.2220 C   0  0  0  0  0  0  0  0  0  0  0  0
   57.6710   31.9030   43.1500 C   0  0  0  0  0  0  0  0  0  0  0  0
   58.4170   33.0610   43.3870 C   0  0  0  0  0  0  0  0  0  0  0  0
   58.6680   33.4840   44.7080 C   0  0  0  0  0  0  0  0  0  0  0  0
   59.4030   34.6430   45.0020 O   0  0  0  0  0  0  0  0  0  0  0  0
   59.6290   35.1390   46.3170 C   0  0  0  0  0  0  0  0  0  0  0  0
   58.1670   32.7280   45.7750 C   0  0  0  0  0  0  0  0  0  0  0  0
   57.4150   31.5750   45.5360 C   0  0  0  0  0  0  0  0  0  0  0  0
   58.4970   27.7750   47.5040 C   0  0  0  0  0  0  0  0  0  0  0  0
   59.3030   28.2250   48.5520 C   0  0  0  0  0  0  0  0  0  0  0  0
   62.1073   33.8087   46.3586 H   0  0  0  0  0  0  0  0  0  0  0  0
   63.5617   34.7365   45.8580 H   0  0  0  0  0  0  0  0  0  0  0  0
   63.5982   32.9406   45.8580 H   0  0  0  0  0  0  0  0  0  0  0  0
   64.6275   33.2546   47.8832 H   0  0  0  0  0  0  0  0  0  0  0  0
   63.8673   34.8877   48.1134 H   0  0  0  0  0  0  0  0  0  0  0  0
   61.9338   34.7894   49.9945 H   0  0  0  0  0  0  0  0  0  0  0  0
   61.6103   34.9848   48.2259 H   0  0  0  0  0  0  0  0  0  0  0  0
   60.0692   33.5130   50.3035 H   0  0  0  0  0  0  0  0  0  0  0  0
   59.5269   34.2496   48.7575 H   0  0  0  0  0  0  0  0  0  0  0  0
   60.2988   32.6276   48.7575 H   0  0  0  0  0  0  0  0  0  0  0  0
   64.4351   32.7833   49.8778 H   0  0  0  0  0  0  0  0  0  0  0  0
   63.0230   33.3771   50.8384 H   0  0  0  0  0  0  0  0  0  0  0  0
   63.8128   30.6664   50.3331 H   0  0  0  0  0  0  0  0  0  0  0  0
   62.3674   31.2784   51.2312 H   0  0  0  0  0  0  0  0  0  0  0  0
   62.1610   31.1860   48.2640 H   0  0  0  0  0  0  0  0  0  0  0  0
   61.2378   30.4594   46.8286 H   0  0  0  0  0  0  0  0  0  0  0  0
   59.7683   29.6910   44.9714 H   0  0  0  0  0  0  0  0  0  0  0  0
   58.2119   28.1237   44.1316 H   0  0  0  0  0  0  0  0  0  0  0  0
   57.5945   26.7814   45.1664 H   0  0  0  0  0  0  0  0  0  0  0  0
   57.4818   31.5757   42.1170 H   0  0  0  0  0  0  0  0  0  0  0  0
   58.8092   33.6437   42.5405 H   0  0  0  0  0  0  0  0  0  0  0  0
   59.2900   34.3949   47.0528 H   0  0  0  0  0  0  0  0  0  0  0  0
   60.7031   35.3303   46.4572 H   0  0  0  0  0  0  0  0  0  0  0  0
   59.0685   36.0751   46.4572 H   0  0  0  0  0  0  0  0  0  0  0  0
   58.3671   33.0444   46.8093 H   0  0  0  0  0  0  0  0  0  0  0  0
   57.0194   30.9934   46.3817 H   0  0  0  0  0  0  0  0  0  0  0  0
   57.7466   26.9921   47.6884 H   0  0  0  0  0  0  0  0  0  0  0  0
   59.1683   27.8106   49.5620 H   0  0  0  0  0  0  0  0  0  0  0  0
  1  2  1  0
  2  3  1  0
  3  4  1  0
  4  5  1  0
  3  6  1  0
  6  7  1  0
  7  8  1  0
  8  9  1  0
  9 10  2  0
  9 11  1  0
 11 12  2  0
 12 13  1  0
 13 14  2  0
 14 15  1  0
 15 16  1  0
 16 17  1  0
 17 18  2  0
 17 19  2  0
 17 20  1  0
 20 21  2  0
 21 22  1  0
 22 23  2  0
 23 24  1  0
 24 25  1  0
 23 26  1  0
 26 27  2  0
 14 28  1  0
 28 29  2  0
 29 11  1  0
 27 20  1  0
  1 30  1  0
  1 31  1  0
  1 32  1  0
  2 33  1  0
  2 34  1  0
  4 35  1  0
  4 36  1  0
  5 37  1  0
  5 38  1  0
  5 39  1  0
  6 40  1  0
  6 41  1  0
  7 42  1  0
  7 43  1  0
  8 44  1  0
 12 45  1  0
 13 46  1  0
 15 47  1  0
 15 48  1  0
 21 49  1  0
 22 50  1  0
 25 51  1  0
 25 52  1  0
 25 53  1  0
 26 54  1  0
 27 55  1  0
 28 56  1  0
 29 57  1  0
M  CHG  1  16  -1
M  END
>  <UniqueID>  (38) 
35

>  <SMILES>  (38) 
CCN(CC)CCNC(=O)c1ccc(C[N-]S(=O)(=O)c2ccc(OC)cc2)cc1

>  <Energy>  (38) 
47.869339413134256

>  <Genealogy>  (38) 
CCN(CC)CCNC(=O)c1ccc(C[N-]S(=O)(=O)c2ccc(OC)cc2)cc1 (protonated)
CCN(CC)CCNC(=O)c1ccc(C[N-]S(=O)(=O)c2ccc(OC)cc2)cc1 (3D coordinates assigned)
CCN(CC)CCNC(=O)c1ccc(C[N-]S(=O)(=O)c2ccc(OC)cc2)cc1 (optimized conformer: 47.869339413134256 kcal/mol)

>  <smiles>  (38) 
CCN(CC)CCNC(=O)c1ccc(CNS(=O)(=O)c2ccc(OC)cc2)cc1

>  <score_type>  (38) 
oracle

>  <origin>  (38) 
adg

>  <m_score__min__energy>  (38) 
-9.0899999999999999

>  <m_primary>  (38) 
energy

$$$$
38:0
     RDKit          3D

 44 45  0  0  0  0  0  0  0  0999 V2000
   60.0210   27.3300   47.1030 C   0  0  0  0  0  0  0  0  0  0  0  0
   59.0850   28.3050   47.5450 O   0  0  0  0  0  0  0  0  0  0  0  0
   59.4100   29.6580   47.6860 C   0  0  0  0  0  0  0  0  0  0  0  0
   60.5840   30.1460   47.1080 C   0  0  0  0  0  0  0  0  0  0  0  0
   60.9080   31.4960   47.2480 C   0  0  0  0  0  0  0  0  0  0  0  0
   60.0610   32.3480   47.9660 C   0  0  0  0  0  0  0  0  0  0  0  0
   60.4320   34.0610   48.1340 S   0  0  0  0  0  0  0  0  0  0  0  0
   61.8930   34.2400   48.4440 O   0  0  0  0  0  0  0  0  0  0  0  0
   59.6350   34.6260   49.2760 O   0  0  0  0  0  0  0  0  0  0  0  0
   60.0180   34.9480   46.6350 C   0  0  0  0  0  0  0  0  0  0  0  0
   59.4470   34.0360   45.5440 C   0  0  0  0  0  0  0  0  0  0  0  0
   57.6310   34.1980   45.3820 S   0  0  0  0  0  0  0  0  0  0  0  0
   57.3980   32.7480   44.2930 C   0  0  0  0  0  0  0  0  0  0  0  0
   58.0300   31.5050   44.9200 C   0  0  0  0  0  0  0  0  0  0  0  0
   58.0460   30.3850   43.9490 N   0  0  0  0  0  0  0  0  0  0  0  0
   56.8080   30.3260   43.1490 C   0  0  0  0  0  0  0  0  0  0  0  0
   55.6000   29.8620   43.9960 C   0  0  0  0  0  0  0  0  0  0  0  0
   55.9790   29.2530   45.2180 O   0  0  0  0  0  0  0  0  0  0  0  0
   57.0300   28.3360   44.9970 C   0  0  0  0  0  0  0  0  0  0  0  0
   58.3210   29.0780   44.5930 C   0  0  0  0  0  0  0  0  0  0  0  0
   58.8890   31.8230   48.5250 C   0  0  0  0  0  0  0  0  0  0  0  0
   58.5940   30.5040   48.3750 N   0  0  0  0  0  0  0  0  0  0  0  0
   60.4856   26.8461   47.9748 H   0  0  0  0  0  0  0  0  0  0  0  0
   59.5028   26.5729   46.4962 H   0  0  0  0  0  0  0  0  0  0  0  0
   60.7986   27.8169   46.4962 H   0  0  0  0  0  0  0  0  0  0  0  0
   61.2478   29.4717   46.5470 H   0  0  0  0  0  0  0  0  0  0  0  0
   61.8290   31.8906   46.7941 H   0  0  0  0  0  0  0  0  0  0  0  0
   59.2700   35.7173   46.8770 H   0  0  0  0  0  0  0  0  0  0  0  0
   60.9465   35.3902   46.2446 H   0  0  0  0  0  0  0  0  0  0  0  0
   59.9127   34.2999   44.5830 H   0  0  0  0  0  0  0  0  0  0  0  0
   59.6679   32.9959   45.8257 H   0  0  0  0  0  0  0  0  0  0  0  0
   56.3218   32.5733   44.1470 H   0  0  0  0  0  0  0  0  0  0  0  0
   57.8828   32.9461   43.3257 H   0  0  0  0  0  0  0  0  0  0  0  0
   59.0619   31.7368   45.2223 H   0  0  0  0  0  0  0  0  0  0  0  0
   57.4359   31.2075   45.7967 H   0  0  0  0  0  0  0  0  0  0  0  0
   56.5966   31.3272   42.7453 H   0  0  0  0  0  0  0  0  0  0  0  0
   56.9582   29.5974   42.3387 H   0  0  0  0  0  0  0  0  0  0  0  0
   54.9731   30.7375   44.2208 H   0  0  0  0  0  0  0  0  0  0  0  0
   55.0576   29.1072   43.4078 H   0  0  0  0  0  0  0  0  0  0  0  0
   57.2137   27.7671   45.9204 H   0  0  0  0  0  0  0  0  0  0  0  0
   56.7419   27.6555   44.1822 H   0  0  0  0  0  0  0  0  0  0  0  0
   58.9265   29.2496   45.4952 H   0  0  0  0  0  0  0  0  0  0  0  0
   58.8529   28.4505   43.8627 H   0  0  0  0  0  0  0  0  0  0  0  0
   58.2064   32.4783   49.0860 H   0  0  0  0  0  0  0  0  0  0  0  0
  1  2  1  0
  2  3  1  0
  3  4  2  0
  4  5  1  0
  5  6  2  0
  6  7  1  0
  7  8  2  0
  7  9  2  0
  7 10  1  0
 10 11  1  0
 11 12  1  0
 12 13  1  0
 13 14  1  0
 14 15  1  0
 15 16  1  0
 16 17  1  0
 17 18  1  0
 18 19  1  0
 19 20  1  0
  6 21  1  0
 21 22  2  0
 22  3  1  0
 20 15  1  0
  1 23  1  0
  1 24  1  0
  1 25  1  0
  4 26  1  0
  5 27  1  0
 10 28  1  0
 10 29  1  0
 11 30  1  0
 11 31  1  0
 13 32  1  0
 13 33  1  0
 14 34  1  0
 14 35  1  0
 16 36  1  0
 16 37  1  0
 17 38  1  0
 17 39  1  0
 19 40  1  0
 19 41  1  0
 20 42  1  0
 20 43  1  0
 21 44  1  0
M  END
>  <UniqueID>  (39) 
36

>  <SMILES>  (39) 
COc1ccc(S(=O)(=O)CCSCCN2CCOCC2)cn1

>  <Energy>  (39) 
44.74727971090222

>  <Genealogy>  (39) 
COc1ccc(S(=O)(=O)CCSCCN2CCOCC2)cn1 (3D coordinates assigned)
COc1ccc(S(=O)(=O)CCSCCN2CCOCC2)cn1 (nonaromatic ring conformer: 44.74727971090222 kcal/mol)

>  <smiles>  (39) 
COc1ccc(S(=O)(=O)CCSCCN2CCOCC2)cn1

>  <score_type>  (39) 
oracle

>  <origin>  (39) 
adg

>  <m_score__min__energy>  (39) 
-6.9800000000000004

>  <m_primary>  (39) 
energy

$$$$
39:0
     RDKit          3D

 59 62  0  0  0  0  0  0  0  0999 V2000
   59.5390   29.4350   50.7030 C   0  0  0  0  0  0  0  0  0  0  0  0
   60.6260   29.2320   49.8070 O   0  0  0  0  0  0  0  0  0  0  0  0
   61.2320   30.2430   49.0430 C   0  0  0  0  0  0  0  0  0  0  0  0
   62.1670   31.1370   49.6010 C   0  0  0  0  0  0  0  0  0  0  0  0
   62.7740   32.1110   48.8050 C   0  0  0  0  0  0  0  0  0  0  0  0
   62.4590   32.2030   47.4490 C   0  0  0  0  0  0  0  0  0  0  0  0
   61.5310   31.3260   46.8850 C   0  0  0  0  0  0  0  0  0  0  0  0
   60.9040   30.3500   47.6760 C   0  0  0  0  0  0  0  0  0  0  0  0
   59.9520   29.4510   47.0840 N   0  0  0  0  0  0  0  0  0  0  0  0
   60.3880   28.1830   46.4910 C   0  0  0  0  0  0  0  0  0  0  0  0
   59.7550   27.9760   45.0970 C   0  0  0  0  0  0  0  0  0  0  0  0
   58.5020   28.7450   44.8790 N   0  0  0  0  0  0  0  0  0  0  0  0
   58.7580   30.0150   44.1530 C   0  0  0  0  0  0  0  0  0  0  0  0
   57.5080   30.9020   44.0360 C   0  0  0  0  0  0  0  0  0  0  0  0
   57.8630   32.3780   43.7970 C   0  0  0  0  0  0  0  0  0  0  0  0
   57.2760   33.2950   44.8770 C   0  0  0  0  0  0  0  0  0  0  0  0
   58.3390   33.9230   45.6670 N   0  0  0  0  0  0  0  0  0  0  0  0
   59.1400   34.9300   45.2450 C   0  0  0  0  0  0  0  0  0  0  0  0
   59.9970   35.3340   46.2620 C   0  0  0  0  0  0  0  0  0  0  0  0
   59.6830   34.5350   47.3400 C   0  0  0  0  0  0  0  0  0  0  0  0
   60.2130   34.5150   48.6280 C   0  0  0  0  0  0  0  0  0  0  0  0
   59.6710   33.5970   49.5550 C   0  0  0  0  0  0  0  0  0  0  0  0
   60.2330   33.5120   50.9420 C   0  0  0  0  0  0  0  0  0  0  0  0
   58.6380   32.7160   49.1510 C   0  0  0  0  0  0  0  0  0  0  0  0
   58.1250   32.7620   47.8420 C   0  0  0  0  0  0  0  0  0  0  0  0
   58.6750   33.6890   46.9530 C   0  0  0  0  0  0  0  0  0  0  0  0
   57.7400   28.9120   46.1380 C   0  0  0  0  0  0  0  0  0  0  0  0
   58.5170   29.7420   47.1710 C   0  0  0  0  0  0  0  0  0  0  0  0
   59.9008   29.3674   51.7396 H   0  0  0  0  0  0  0  0  0  0  0  0
   59.1029   30.4301   50.5309 H   0  0  0  0  0  0  0  0  0  0  0  0
   58.7732   28.6643   50.5309 H   0  0  0  0  0  0  0  0  0  0  0  0
   62.4203   31.0676   50.6692 H   0  0  0  0  0  0  0  0  0  0  0  0
   63.5017   32.8068   49.2480 H   0  0  0  0  0  0  0  0  0  0  0  0
   62.9426   32.9677   46.8235 H   0  0  0  0  0  0  0  0  0  0  0  0
   61.2895   31.4000   45.8144 H   0  0  0  0  0  0  0  0  0  0  0  0
   61.4834   28.1907   46.3909 H   0  0  0  0  0  0  0  0  0  0  0  0
   60.0663   27.3608   47.1471 H   0  0  0  0  0  0  0  0  0  0  0  0
   60.4867   28.2850   44.3360 H   0  0  0  0  0  0  0  0  0  0  0  0
   59.4901   26.9109   45.0240 H   0  0  0  0  0  0  0  0  0  0  0  0
   59.5366   30.5756   44.6911 H   0  0  0  0  0  0  0  0  0  0  0  0
   59.0724   29.7529   43.1320 H   0  0  0  0  0  0  0  0  0  0  0  0
   56.8972   30.5439   43.1942 H   0  0  0  0  0  0  0  0  0  0  0  0
   56.9579   30.8369   44.9864 H   0  0  0  0  0  0  0  0  0  0  0  0
   58.9579   32.4841   43.7984 H   0  0  0  0  0  0  0  0  0  0  0  0
   57.4341   32.6770   42.8292 H   0  0  0  0  0  0  0  0  0  0  0  0
   56.6747   34.0798   44.3947 H   0  0  0  0  0  0  0  0  0  0  0  0
   56.6508   32.6892   45.5494 H   0  0  0  0  0  0  0  0  0  0  0  0
   59.1158   35.3680   44.2362 H   0  0  0  0  0  0  0  0  0  0  0  0
   60.7623   36.1228   46.2162 H   0  0  0  0  0  0  0  0  0  0  0  0
   61.0295   35.1940   48.9149 H   0  0  0  0  0  0  0  0  0  0  0  0
   59.4216   33.6347   51.6745 H   0  0  0  0  0  0  0  0  0  0  0  0
   60.7106   32.5314   51.0847 H   0  0  0  0  0  0  0  0  0  0  0  0
   60.9792   34.3075   51.0847 H   0  0  0  0  0  0  0  0  0  0  0  0
   58.2325   31.9878   49.8688 H   0  0  0  0  0  0  0  0  0  0  0  0
   57.3146   32.0879   47.5275 H   0  0  0  0  0  0  0  0  0  0  0  0
   56.7906   29.4205   45.9145 H   0  0  0  0  0  0  0  0  0  0  0  0
   57.5637   27.9138   46.5652 H   0  0  0  0  0  0  0  0  0  0  0  0
   58.3514   30.8117   46.9754 H   0  0  0  0  0  0  0  0  0  0  0  0
   58.1603   29.4830   48.1788 H   0  0  0  0  0  0  0  0  0  0  0  0
  1  2  1  0
  2  3  1  0
  3  4  2  0
  4  5  1  0
  5  6  2  0
  6  7  1  0
  7  8  2  0
  8  9  1  0
  9 10  1  0
 10 11  1  0
 11 12  1  0
 12 13  1  0
 13 14  1  0
 14 15  1  0
 15 16  1  0
 16 17  1  0
 17 18  1  0
 18 19  2  0
 19 20  1  0
 20 21  2  0
 21 22  1  0
 22 23  1  0
 22 24  2  0
 24 25  1  0
 25 26  2  0
 12 27  1  0
 27 28  1  0
  8  3  1  0
 28  9  1  0
 26 17  1  0
 26 20  1  0
  1 29  1  0
  1 30  1  0
  1 31  1  0
  4 32  1  0
  5 33  1  0
  6 34  1  0
  7 35  1  0
 10 36  1  0
 10 37  1  0
 11 38  1  0
 11 39  1  0
 13 40  1  0
 13 41  1  0
 14 42  1  0
 14 43  1  0
 15 44  1  0
 15 45  1  0
 16 46  1  0
 16 47  1  0
 18 48  1  0
 19 49  1  0
 21 50  1  0
 23 51  1  0
 23 52  1  0
 23 53  1  0
 24 54  1  0
 25 55  1  0
 27 56  1  0
 27 57  1  0
 28 58  1  0
 28 59  1  0
M  END
>  <UniqueID>  (40) 
37

>  <SMILES>  (40) 
COc1ccccc1N1CCN(CCCCn2ccc3cc(C)ccc32)CC1

>  <Energy>  (40) 
100.60035904357775

>  <Genealogy>  (40) 
COc1ccccc1N1CCN(CCCCn2ccc3cc(C)ccc32)CC1 (3D coordinates assigned)
COc1ccccc1N1CCN(CCCCn2ccc3cc(C)ccc32)CC1 (nonaromatic ring conformer: 100.60035904357775 kcal/mol)

>  <smiles>  (40) 
COc1ccccc1N1CCN(CCCCn2ccc3cc(C)ccc32)CC1

>  <score_type>  (40) 
oracle

>  <origin>  (40) 
adg

>  <m_score__min__energy>  (40) 
-8.1300000000000008

>  <m_primary>  (40) 
energy

$$$$
40:0
     RDKit          3D

 41 43  0  0  0  0  0  0  0  0999 V2000
   60.3830   34.1890   49.5200 C   0  0  0  0  0  0  0  0  0  0  0  0
   61.5030   33.9180   48.5510 C   0  0  0  0  0  0  0  0  0  0  0  0
   62.7170   33.4420   49.0770 C   0  0  0  0  0  0  0  0  0  0  0  0
   63.7890   33.1500   48.2360 C   0  0  0  0  0  0  0  0  0  0  0  0
   63.6500   33.3380   46.8660 C   0  0  0  0  0  0  0  0  0  0  0  0
   62.4860   33.8230   46.3640 N   0  0  0  0  0  0  0  0  0  0  0  0
   61.4180   34.1470   47.1480 C   0  0  0  0  0  0  0  0  0  0  0  0
   60.1880   34.6980   46.4440 C   0  0  0  0  0  0  0  0  0  0  0  0
   59.0160   33.7910   46.4580 N   0  0  0  0  0  0  0  0  0  0  0  0
   58.1400   33.8880   45.2660 C   0  0  0  0  0  0  0  0  0  0  0  0
   58.2940   32.6730   44.3440 C   0  0  0  0  0  0  0  0  0  0  0  0
   57.9060   31.3600   45.0780 C   0  0  0  0  0  0  0  0  0  0  0  0
   58.1510   31.4630   46.6110 C   0  0  0  0  0  0  0  0  0  0  0  0
   59.3130   32.4110   46.9180 C   0  0  0  0  0  0  0  0  0  0  0  0
   58.6480   30.1230   44.4560 C   0  0  0  0  0  0  0  0  0  0  0  0
   57.5890   29.2010   44.0760 N   0  0  0  0  0  0  0  0  0  0  0  0
   57.7700   27.9010   43.4420 C   0  0  0  0  0  0  0  0  0  0  0  0
   56.3580   29.8430   44.3130 C   0  0  0  0  0  0  0  0  0  0  0  0
   55.2370   29.3390   44.0420 O   0  0  0  0  0  0  0  0  0  0  0  0
   56.5180   31.0920   44.8650 O   0  0  0  0  0  0  0  0  0  0  0  0
   60.7590   34.0980   50.5497 H   0  0  0  0  0  0  0  0  0  0  0  0
   59.9971   35.2064   49.3591 H   0  0  0  0  0  0  0  0  0  0  0  0
   59.5746   33.4605   49.3591 H   0  0  0  0  0  0  0  0  0  0  0  0
   62.8215   33.2988   50.1626 H   0  0  0  0  0  0  0  0  0  0  0  0
   64.7355   32.7746   48.6521 H   0  0  0  0  0  0  0  0  0  0  0  0
   64.4823   33.0940   46.1894 H   0  0  0  0  0  0  0  0  0  0  0  0
   59.9013   35.6381   46.9380 H   0  0  0  0  0  0  0  0  0  0  0  0
   60.4658   34.8351   45.3885 H   0  0  0  0  0  0  0  0  0  0  0  0
   57.0933   33.9523   45.5980 H   0  0  0  0  0  0  0  0  0  0  0  0
   58.4319   34.7850   44.7001 H   0  0  0  0  0  0  0  0  0  0  0  0
   57.6406   32.8015   43.4685 H   0  0  0  0  0  0  0  0  0  0  0  0
   59.3470   32.6014   44.0340 H   0  0  0  0  0  0  0  0  0  0  0  0
   57.2396   31.8421   47.0963 H   0  0  0  0  0  0  0  0  0  0  0  0
   58.4038   30.4631   46.9936 H   0  0  0  0  0  0  0  0  0  0  0  0
   59.4877   32.4246   48.0040 H   0  0  0  0  0  0  0  0  0  0  0  0
   60.2060   32.0511   46.3860 H   0  0  0  0  0  0  0  0  0  0  0  0
   59.2320   30.4256   43.5743 H   0  0  0  0  0  0  0  0  0  0  0  0
   59.3577   29.6685   45.1629 H   0  0  0  0  0  0  0  0  0  0  0  0
   57.8777   27.1272   44.2164 H   0  0  0  0  0  0  0  0  0  0  0  0
   56.8949   27.6735   42.8156 H   0  0  0  0  0  0  0  0  0  0  0  0
   58.6740   27.9212   42.8156 H   0  0  0  0  0  0  0  0  0  0  0  0
  1  2  1  0
  2  3  2  0
  3  4  1  0
  4  5  2  0
  5  6  1  0
  6  7  2  0
  7  8  1  0
  8  9  1  0
  9 10  1  0
 10 11  1  0
 11 12  1  0
 12 13  1  0
 13 14  1  0
 12 15  1  0
 15 16  1  0
 16 17  1  0
 16 18  1  0
 18 19  2  0
 18 20  1  0
  7  2  1  0
 14  9  1  0
 20 12  1  0
  1 21  1  0
  1 22  1  0
  1 23  1  0
  3 24  1  0
  4 25  1  0
  5 26  1  0
  8 27  1  0
  8 28  1  0
 10 29  1  0
 10 30  1  0
 11 31  1  0
 11 32  1  0
 13 33  1  0
 13 34  1  0
 14 35  1  0
 14 36  1  0
 15 37  1  0
 15 38  1  0
 17 39  1  0
 17 40  1  0
 17 41  1  0
M  END
>  <UniqueID>  (41) 
38

>  <SMILES>  (41) 
Cc1cccnc1CN1CCC2(CC1)CN(C)C(=O)O2

>  <Energy>  (41) 
70.859473002881

>  <Genealogy>  (41) 
Cc1cccnc1CN1CCC2(CC1)CN(C)C(=O)O2 (3D coordinates assigned)
Cc1cccnc1CN1CCC2(CC1)CN(C)C(=O)O2 (nonaromatic ring conformer: 70.859473002881 kcal/mol)

>  <smiles>  (41) 
Cc1cccnc1CN1CCC2(CC1)CN(C)C(=O)O2

>  <score_type>  (41) 
oracle

>  <origin>  (41) 
adg

>  <m_score__min__energy>  (41) 
-8.0099999999999998

>  <m_primary>  (41) 
energy

$$$$
41:0
     RDKit          3D

 39 40  0  0  0  0  0  0  0  0999 V2000
   60.2420   28.9140   44.8950 C   0  0  0  0  0  0  0  0  0  0  0  0
   60.2200   28.4820   46.3010 N   0  0  0  0  0  0  0  0  0  0  0  0
   60.3960   29.6530   47.1780 C   0  0  0  0  0  0  0  0  0  0  0  0
   58.9610   27.7680   46.6090 C   0  0  0  0  0  0  0  0  0  0  0  0
   58.1260   27.5690   45.3380 C   0  0  0  0  0  0  0  0  0  0  0  0
   56.6210   27.6960   45.6190 C   0  0  0  0  0  0  0  0  0  0  0  0
   56.1340   29.0210   45.2460 N   0  0  0  0  0  0  0  0  0  0  0  0
   56.8160   29.9270   44.3670 C   0  0  0  0  0  0  0  0  0  0  0  0
   56.8850   29.6520   43.1410 O   0  0  0  0  0  0  0  0  0  0  0  0
   57.4370   31.1700   44.8640 C   0  0  0  0  0  0  0  0  0  0  0  0
   57.7670   31.4060   46.1950 C   0  0  0  0  0  0  0  0  0  0  0  0
   58.3840   32.6360   46.2010 C   0  0  0  0  0  0  0  0  0  0  0  0
   58.9680   33.3440   47.2500 C   0  0  0  0  0  0  0  0  0  0  0  0
   59.5860   34.5700   46.9490 C   0  0  0  0  0  0  0  0  0  0  0  0
   59.6110   35.0510   45.6220 C   0  0  0  0  0  0  0  0  0  0  0  0
   59.0160   34.3130   44.5840 C   0  0  0  0  0  0  0  0  0  0  0  0
   58.3970   33.1020   44.9110 C   0  0  0  0  0  0  0  0  0  0  0  0
   57.8010   32.2210   44.0820 N   0  0  0  0  0  0  0  0  0  0  0  0
   57.7550   32.3020   42.6210 C   0  0  0  0  0  0  0  0  0  0  0  0
   60.2979   30.0116   44.8495 H   0  0  0  0  0  0  0  0  0  0  0  0
   61.1193   28.4810   44.3921 H   0  0  0  0  0  0  0  0  0  0  0  0
   59.3253   28.5724   44.3921 H   0  0  0  0  0  0  0  0  0  0  0  0
   60.3481   29.3340   48.2296 H   0  0  0  0  0  0  0  0  0  0  0  0
   61.3738   30.1161   46.9795 H   0  0  0  0  0  0  0  0  0  0  0  0
   59.5975   30.3831   46.9795 H   0  0  0  0  0  0  0  0  0  0  0  0
   59.1997   26.7853   47.0418 H   0  0  0  0  0  0  0  0  0  0  0  0
   58.3795   28.3687   47.3239 H   0  0  0  0  0  0  0  0  0  0  0  0
   58.4157   28.3302   44.5987 H   0  0  0  0  0  0  0  0  0  0  0  0
   58.3186   26.5551   44.9574 H   0  0  0  0  0  0  0  0  0  0  0  0
   56.0799   26.9357   45.0365 H   0  0  0  0  0  0  0  0  0  0  0  0
   56.4495   27.5474   46.6953 H   0  0  0  0  0  0  0  0  0  0  0  0
   57.5757   30.7502   47.0572 H   0  0  0  0  0  0  0  0  0  0  0  0
   58.9460   32.9562   48.2791 H   0  0  0  0  0  0  0  0  0  0  0  0
   60.0531   35.1584   47.7525 H   0  0  0  0  0  0  0  0  0  0  0  0
   60.0999   36.0107   45.3985 H   0  0  0  0  0  0  0  0  0  0  0  0
   59.0366   34.6768   43.5461 H   0  0  0  0  0  0  0  0  0  0  0  0
   57.2324   33.2223   42.3211 H   0  0  0  0  0  0  0  0  0  0  0  0
   58.7800   32.3158   42.2221 H   0  0  0  0  0  0  0  0  0  0  0  0
   57.2180   31.4288   42.2221 H   0  0  0  0  0  0  0  0  0  0  0  0
  1  2  1  0
  2  3  1  0
  2  4  1  0
  4  5  1  0
  5  6  1  0
  6  7  1  0
  7  8  1  0
  8  9  2  0
  8 10  1  0
 10 11  2  0
 11 12  1  0
 12 13  2  0
 13 14  1  0
 14 15  2  0
 15 16  1  0
 16 17  2  0
 17 18  1  0
 18 19  1  0
 18 10  1  0
 17 12  1  0
  1 20  1  0
  1 21  1  0
  1 22  1  0
  3 23  1  0
  3 24  1  0
  3 25  1  0
  4 26  1  0
  4 27  1  0
  5 28  1  0
  5 29  1  0
  6 30  1  0
  6 31  1  0
 11 32  1  0
 13 33  1  0
 14 34  1  0
 15 35  1  0
 16 36  1  0
 19 37  1  0
 19 38  1  0
 19 39  1  0
M  CHG  1   7  -1
M  END
>  <UniqueID>  (42) 
39

>  <SMILES>  (42) 
CN(C)CCC[N-]C(=O)c1cc2ccccc2n1C

>  <Energy>  (42) 
70.41392202666664

>  <Genealogy>  (42) 
CN(C)CCC[N-]C(=O)c1cc2ccccc2n1C (protonated)
CN(C)CCC[N-]C(=O)c1cc2ccccc2n1C (3D coordinates assigned)
CN(C)CCC[N-]C(=O)c1cc2ccccc2n1C (optimized conformer: 70.41392202666664 kcal/mol)

>  <smiles>  (42) 
CN(C)CCCNC(=O)c1cc2ccccc2n1C

>  <score_type>  (42) 
oracle

>  <origin>  (42) 
adg

>  <m_score__min__energy>  (42) 
-8.25

>  <m_primary>  (42) 
energy

$$$$
42:0
     RDKit          3D

 57 59  0  0  0  0  0  0  0  0999 V2000
   63.6560   33.0930   46.7720 C   0  0  0  0  0  0  0  0  0  0  0  0
   62.3730   33.5730   47.3810 C   0  0  0  0  0  0  0  0  0  0  0  0
   62.2560   33.7120   48.7720 C   0  0  0  0  0  0  0  0  0  0  0  0
   61.0570   34.1570   49.3360 C   0  0  0  0  0  0  0  0  0  0  0  0
   59.9650   34.4560   48.5200 C   0  0  0  0  0  0  0  0  0  0  0  0
   60.0570   34.2910   47.1280 C   0  0  0  0  0  0  0  0  0  0  0  0
   58.9180   34.6820   46.2340 C   0  0  0  0  0  0  0  0  0  0  0  0
   57.8830   33.6660   46.3280 N   0  0  0  0  0  0  0  0  0  0  0  0
   58.0790   32.2880   46.0090 C   0  0  0  0  0  0  0  0  0  0  0  0
   58.4940   31.4770   46.8800 O   0  0  0  0  0  0  0  0  0  0  0  0
   57.7680   31.8160   44.6190 C   0  0  0  0  0  0  0  0  0  0  0  0
   56.4910   31.2090   44.4970 O   0  0  0  0  0  0  0  0  0  0  0  0
   56.5030   29.9990   43.7500 C   0  0  0  0  0  0  0  0  0  0  0  0
   56.8040   28.7560   44.5560 C   0  0  0  0  0  0  0  0  0  0  0  0
   55.8760   28.2570   45.2490 O   0  0  0  0  0  0  0  0  0  0  0  0
   58.0990   28.1190   44.5260 N   0  0  0  0  0  0  0  0  0  0  0  0
   59.3350   28.9070   44.5350 C   0  0  0  0  0  0  0  0  0  0  0  0
   59.9070   28.9480   45.9690 C   0  0  0  0  0  0  0  0  0  0  0  0
   59.1940   28.0110   46.8700 N   0  0  0  0  0  0  0  0  0  0  0  0
   59.8550   27.9550   48.1870 C   0  0  0  0  0  0  0  0  0  0  0  0
   59.5670   29.2020   48.9760 C   0  0  0  0  0  0  0  0  0  0  0  0
   58.4720   29.3390   49.7550 N   0  0  0  0  0  0  0  0  0  0  0  0
   58.5660   30.5940   50.2410 C   0  0  0  0  0  0  0  0  0  0  0  0
   59.7030   31.1960   49.7530 C   0  0  0  0  0  0  0  0  0  0  0  0
   60.3380   30.3120   48.9670 N   0  0  0  0  0  0  0  0  0  0  0  0
   61.5290   30.5700   48.1650 C   0  0  0  0  0  0  0  0  0  0  0  0
   59.0990   26.6680   46.2540 C   0  0  0  0  0  0  0  0  0  0  0  0
   58.2490   26.7250   44.9700 C   0  0  0  0  0  0  0  0  0  0  0  0
   61.2630   33.8430   46.5650 C   0  0  0  0  0  0  0  0  0  0  0  0
   64.3644   32.8280   47.5707 H   0  0  0  0  0  0  0  0  0  0  0  0
   63.4578   32.2082   46.1492 H   0  0  0  0  0  0  0  0  0  0  0  0
   64.0872   33.8906   46.1492 H   0  0  0  0  0  0  0  0  0  0  0  0
   63.1106   33.4700   49.4210 H   0  0  0  0  0  0  0  0  0  0  0  0
   60.9738   34.2719   50.4268 H   0  0  0  0  0  0  0  0  0  0  0  0
   59.0295   34.8220   48.9682 H   0  0  0  0  0  0  0  0  0  0  0  0
   58.5132   35.6536   46.5534 H   0  0  0  0  0  0  0  0  0  0  0  0
   59.2684   34.7655   45.1947 H   0  0  0  0  0  0  0  0  0  0  0  0
   57.8079   32.6813   43.9410 H   0  0  0  0  0  0  0  0  0  0  0  0
   58.5149   31.0497   44.3641 H   0  0  0  0  0  0  0  0  0  0  0  0
   55.5135   29.8741   43.2861 H   0  0  0  0  0  0  0  0  0  0  0  0
   57.3181   30.0967   43.0179 H   0  0  0  0  0  0  0  0  0  0  0  0
   60.0700   28.4445   43.8598 H   0  0  0  0  0  0  0  0  0  0  0  0
   59.1202   29.9311   44.1957 H   0  0  0  0  0  0  0  0  0  0  0  0
   60.9711   28.6713   45.9365 H   0  0  0  0  0  0  0  0  0  0  0  0
   59.7769   29.9674   46.3614 H   0  0  0  0  0  0  0  0  0  0  0  0
   59.4820   27.0816   48.7420 H   0  0  0  0  0  0  0  0  0  0  0  0
   60.9415   27.8736   48.0358 H   0  0  0  0  0  0  0  0  0  0  0  0
   57.8433   31.0646   50.9238 H   0  0  0  0  0  0  0  0  0  0  0  0
   60.0340   32.2225   49.9692 H   0  0  0  0  0  0  0  0  0  0  0  0
   62.3856   30.7556   48.8297 H   0  0  0  0  0  0  0  0  0  0  0  0
   61.7399   29.6967   47.5303 H   0  0  0  0  0  0  0  0  0  0  0  0
   61.3596   31.4523   47.5303 H   0  0  0  0  0  0  0  0  0  0  0  0
   60.1092   26.3114   46.0044 H   0  0  0  0  0  0  0  0  0  0  0  0
   58.6214   25.9809   46.9680 H   0  0  0  0  0  0  0  0  0  0  0  0
   58.7444   26.1424   44.1793 H   0  0  0  0  0  0  0  0  0  0  0  0
   57.2543   26.3036   45.1772 H   0  0  0  0  0  0  0  0  0  0  0  0
   61.3385   33.7026   45.4766 H   0  0  0  0  0  0  0  0  0  0  0  0
  1  2  1  0
  2  3  2  0
  3  4  1  0
  4  5  2  0
  5  6  1  0
  6  7  1  0
  7  8  1  0
  8  9  1  0
  9 10  2  0
  9 11  1  0
 11 12  1  0
 12 13  1  0
 13 14  1  0
 14 15  2  0
 14 16  1  0
 16 17  1  0
 17 18  1  0
 18 19  1  0
 19 20  1  0
 20 21  1  0
 21 22  2  0
 22 23  1  0
 23 24  2  0
 24 25  1  0
 25 26  1  0
 19 27  1  0
 27 28  1  0
  6 29  2  0
 29  2  1  0
 28 16  1  0
 25 21  1  0
  1 30  1  0
  1 31  1  0
  1 32  1  0
  3 33  1  0
  4 34  1  0
  5 35  1  0
  7 36  1  0
  7 37  1  0
 11 38  1  0
 11 39  1  0
 13 40  1  0
 13 41  1  0
 17 42  1  0
 17 43  1  0
 18 44  1  0
 18 45  1  0
 20 46  1  0
 20 47  1  0
 23 48  1  0
 24 49  1  0
 26 50  1  0
 26 51  1  0
 26 52  1  0
 27 53  1  0
 27 54  1  0
 28 55  1  0
 28 56  1  0
 29 57  1  0
M  CHG  1   8  -1
M  END
>  <UniqueID>  (43) 
40

>  <SMILES>  (43) 
Cc1cccc(C[N-]C(=O)COCC(=O)N2CCN(Cc3nccn3C)CC2)c1

>  <Energy>  (43) 
91.76998649097605

>  <Genealogy>  (43) 
Cc1cccc(C[N-]C(=O)COCC(=O)N2CCN(Cc3nccn3C)CC2)c1 (protonated)
Cc1cccc(C[N-]C(=O)COCC(=O)N2CCN(Cc3nccn3C)CC2)c1 (3D coordinates assigned)
Cc1cccc(C[N-]C(=O)COCC(=O)N2CCN(Cc3nccn3C)CC2)c1 (nonaromatic ring conformer: 91.76998649097605 kcal/mol)

>  <smiles>  (43) 
Cc1cccc(CNC(=O)COCC(=O)N2CCN(Cc3nccn3C)CC2)c1

>  <score_type>  (43) 
oracle

>  <origin>  (43) 
adg

>  <m_score__min__energy>  (43) 
-9.1699999999999999

>  <m_primary>  (43) 
energy

$$$$
43:0
     RDKit          3D

 54 57  0  0  0  0  0  0  0  0999 V2000
   62.8880   33.6370   47.3970 C   0  0  0  0  0  0  0  0  0  0  0  0
   61.5870   34.0050   48.1020 C   0  0  0  0  0  0  0  0  0  0  0  0
   60.4850   34.0520   47.1420 N   0  0  0  0  0  0  0  0  0  0  0  0
   59.9630   35.1710   46.5850 C   0  0  0  0  0  0  0  0  0  0  0  0
   58.9720   34.8440   45.6660 C   0  0  0  0  0  0  0  0  0  0  0  0
   58.9120   33.4670   45.6710 C   0  0  0  0  0  0  0  0  0  0  0  0
   58.1130   32.5970   44.9320 C   0  0  0  0  0  0  0  0  0  0  0  0
   58.2830   31.2130   45.1310 C   0  0  0  0  0  0  0  0  0  0  0  0
   57.3070   30.0790   44.1990 S   0  0  0  0  0  0  0  0  0  0  0  0
   57.0760   30.6560   42.8300 O   0  0  0  0  0  0  0  0  0  0  0  0
   55.9730   29.8770   44.8670 O   0  0  0  0  0  0  0  0  0  0  0  0
   58.1410   28.5480   44.0700 N   0  0  0  0  0  0  0  0  0  0  0  0
   58.0070   27.7650   45.3300 C   0  0  0  0  0  0  0  0  0  0  0  0
   57.0220   26.5930   45.2180 C   0  0  0  0  0  0  0  0  0  0  0  0
   57.3940   25.7310   44.0900 N   0  0  0  0  0  0  0  0  0  0  0  0
   57.1090   24.3150   44.1150 C   0  0  0  0  0  0  0  0  0  0  0  0
   57.3480   23.5540   45.2750 C   0  0  0  0  0  0  0  0  0  0  0  0
   57.0700   22.1850   45.2990 C   0  0  0  0  0  0  0  0  0  0  0  0
   56.5450   21.5470   44.1600 C   0  0  0  0  0  0  0  0  0  0  0  0
   56.2500   20.1760   44.1330 O   0  0  0  0  0  0  0  0  0  0  0  0
   56.2800   19.3260   45.2750 C   0  0  0  0  0  0  0  0  0  0  0  0
   56.3050   22.3010   43.0060 C   0  0  0  0  0  0  0  0  0  0  0  0
   56.5820   23.6700   42.9810 C   0  0  0  0  0  0  0  0  0  0  0  0
   58.0070   26.3430   42.9030 C   0  0  0  0  0  0  0  0  0  0  0  0
   57.6810   27.8390   42.8520 C   0  0  0  0  0  0  0  0  0  0  0  0
   59.2480   30.7430   46.0540 C   0  0  0  0  0  0  0  0  0  0  0  0
   60.0400   31.6470   46.7840 C   0  0  0  0  0  0  0  0  0  0  0  0
   59.8420   33.0130   46.5700 C   0  0  0  0  0  0  0  0  0  0  0  0
   63.6622   33.4180   48.1471 H   0  0  0  0  0  0  0  0  0  0  0  0
   62.7257   32.7495   46.7677 H   0  0  0  0  0  0  0  0  0  0  0  0
   63.2146   34.4780   46.7677 H   0  0  0  0  0  0  0  0  0  0  0  0
   61.3657   33.2511   48.8718 H   0  0  0  0  0  0  0  0  0  0  0  0
   61.6996   34.9959   48.5662 H   0  0  0  0  0  0  0  0  0  0  0  0
   60.2793   36.1965   46.8263 H   0  0  0  0  0  0  0  0  0  0  0  0
   58.3655   35.5364   45.0637 H   0  0  0  0  0  0  0  0  0  0  0  0
   57.3718   32.9795   44.2148 H   0  0  0  0  0  0  0  0  0  0  0  0
   59.1550   28.7760   43.9400 H   0  0  0  0  0  0  0  0  0  0  0  0
   58.9958   27.3649   45.5986 H   0  0  0  0  0  0  0  0  0  0  0  0
   57.6126   28.4484   46.0964 H   0  0  0  0  0  0  0  0  0  0  0  0
   57.0464   26.0065   46.1483 H   0  0  0  0  0  0  0  0  0  0  0  0
   56.0086   26.9875   45.0522 H   0  0  0  0  0  0  0  0  0  0  0  0
   57.7578   24.0421   46.1716 H   0  0  0  0  0  0  0  0  0  0  0  0
   57.2624   21.6032   46.2125 H   0  0  0  0  0  0  0  0  0  0  0  0
   56.2584   19.9384   46.1885 H   0  0  0  0  0  0  0  0  0  0  0  0
   55.4048   18.6598   45.2593 H   0  0  0  0  0  0  0  0  0  0  0  0
   57.2000   18.7232   45.2593 H   0  0  0  0  0  0  0  0  0  0  0  0
   55.8946   21.8114   42.1105 H   0  0  0  0  0  0  0  0  0  0  0  0
   56.3863   24.2490   42.0664 H   0  0  0  0  0  0  0  0  0  0  0  0
   59.0980   26.2100   42.9479 H   0  0  0  0  0  0  0  0  0  0  0  0
   57.6066   25.8571   42.0010 H   0  0  0  0  0  0  0  0  0  0  0  0
   58.1765   28.2810   41.9750 H   0  0  0  0  0  0  0  0  0  0  0  0
   56.5883   27.9473   42.7874 H   0  0  0  0  0  0  0  0  0  0  0  0
   59.3795   29.6609   46.2015 H   0  0  0  0  0  0  0  0  0  0  0  0
   60.7927   31.2892   47.5019 H   0  0  0  0  0  0  0  0  0  0  0  0
  1  2  1  0
  2  3  1  0
  3  4  1  0
  4  5  2  0
  5  6  1  0
  6  7  2  0
  7  8  1  0
  8  9  1  0
  9 10  2  0
  9 11  2  0
  9 12  1  0
 12 13  1  0
 13 14  1  0
 14 15  1  0
 15 16  1  0
 16 17  2  0
 17 18  1  0
 18 19  2  0
 19 20  1  0
 20 21  1  0
 19 22  1  0
 22 23  2  0
 15 24  1  0
 24 25  1  0
  8 26  2  0
 26 27  1  0
 27 28  2  0
 28  3  1  0
 28  6  1  0
 25 12  1  0
 23 16  1  0
  1 29  1  0
  1 30  1  0
  1 31  1  0
  2 32  1  0
  2 33  1  0
  4 34  1  0
  5 35  1  0
  7 36  1  0
 12 37  1  0
 13 38  1  0
 13 39  1  0
 14 40  1  0
 14 41  1  0
 17 42  1  0
 18 43  1  0
 21 44  1  0
 21 45  1  0
 21 46  1  0
 22 47  1  0
 23 48  1  0
 24 49  1  0
 24 50  1  0
 25 51  1  0
 25 52  1  0
 26 53  1  0
 27 54  1  0
M  CHG  1  12   1
M  END
>  <UniqueID>  (44) 
41

>  <SMILES>  (44) 
CCn1ccc2cc(S(=O)(=O)[NH+]3CCN(c4ccc(OC)cc4)CC3)ccc21

>  <Energy>  (44) 
94.34958363384092

>  <Genealogy>  (44) 
CCn1ccc2cc(S(=O)(=O)[NH+]3CCN(c4ccc(OC)cc4)CC3)ccc21 (protonated)
CCn1ccc2cc(S(=O)(=O)[NH+]3CCN(c4ccc(OC)cc4)CC3)ccc21 (3D coordinates assigned)
CCn1ccc2cc(S(=O)(=O)[NH+]3CCN(c4ccc(OC)cc4)CC3)ccc21 (nonaromatic ring conformer: 94.34958363384092 kcal/mol)

>  <smiles>  (44) 
CCn1ccc2cc(S(=O)(=O)N3CCN(c4ccc(OC)cc4)CC3)ccc21

>  <score_type>  (44) 
oracle

>  <origin>  (44) 
adg

>  <m_score__min__energy>  (44) 
-7.2800000000000002

>  <m_primary>  (44) 
energy

$$$$
44:0
     RDKit          3D

 46 48  0  0  0  0  0  0  0  0999 V2000
   60.4294   25.7286   46.7907 H   0  0  0  0  0  0  0  0  0  0  0  0
   59.8050   26.6330   46.8370 C   0  0  0  0  0  0  0  0  0  0  0  0
   60.1850   27.7020   47.6520 C   0  0  0  0  0  0  0  0  0  0  0  0
   61.1134   27.6430   48.2391 H   0  0  0  0  0  0  0  0  0  0  0  0
   59.3820   28.8520   47.7220 C   0  0  0  0  0  0  0  0  0  0  0  0
   59.7400   29.9410   48.5820 N   0  0  0  0  0  0  0  0  0  0  0  0
   60.5760   30.9250   48.3690 C   0  0  0  0  0  0  0  0  0  0  0  0
   61.8380   30.8040   48.9630 C   0  0  0  0  0  0  0  0  0  0  0  0
   62.0198   30.0085   49.7007 H   0  0  0  0  0  0  0  0  0  0  0  0
   62.8630   31.6810   48.6280 C   0  0  0  0  0  0  0  0  0  0  0  0
   63.8561   31.5623   49.0859 H   0  0  0  0  0  0  0  0  0  0  0  0
   62.6450   32.6830   47.7390 N   0  0  0  0  0  0  0  0  0  0  0  0
   63.4470   33.3080   47.4960 H   0  0  0  0  0  0  0  0  0  0  0  0
   61.4100   32.9120   47.2100 C   0  0  0  0  0  0  0  0  0  0  0  0
   61.2150   34.0100   46.3600 C   0  0  0  0  0  0  0  0  0  0  0  0
   62.0755   34.6247   46.0572 H   0  0  0  0  0  0  0  0  0  0  0  0
   59.9420   34.3290   45.8960 C   0  0  0  0  0  0  0  0  0  0  0  0
   59.8090   35.1730   45.2032 H   0  0  0  0  0  0  0  0  0  0  0  0
   58.8290   33.5830   46.3050 C   0  0  0  0  0  0  0  0  0  0  0  0
   57.5060   33.9630   45.8810 N   0  0  0  0  0  0  0  0  0  0  0  0
   56.4950   33.4880   46.4400 O   0  0  0  0  0  0  0  0  0  0  0  0
   57.3320   34.8490   44.8420 O   0  0  0  0  0  0  0  0  0  0  0  0
   59.0210   32.4760   47.1500 C   0  0  0  0  0  0  0  0  0  0  0  0
   58.1457   31.9141   47.5080 H   0  0  0  0  0  0  0  0  0  0  0  0
   60.3160   32.0690   47.5500 C   0  0  0  0  0  0  0  0  0  0  0  0
   58.1910   28.9110   46.9920 C   0  0  0  0  0  0  0  0  0  0  0  0
   57.5292   29.7837   47.0938 H   0  0  0  0  0  0  0  0  0  0  0  0
   57.8360   27.8620   46.1300 C   0  0  0  0  0  0  0  0  0  0  0  0
   56.6600   27.9390   45.3160 N   0  0  0  0  0  0  0  0  0  0  0  0
   56.1690   29.1230   44.6700 C   0  0  0  0  0  0  0  0  0  0  0  0
   55.1670   29.7070   45.1600 O   0  0  0  0  0  0  0  0  0  0  0  0
   56.7500   29.6210   43.3690 C   0  0  0  0  0  0  0  0  0  0  0  0
   55.9841   29.5343   42.5842 H   0  0  0  0  0  0  0  0  0  0  0  0
   57.6338   29.0072   43.1404 H   0  0  0  0  0  0  0  0  0  0  0  0
   57.2100   31.0960   43.4530 C   0  0  0  0  0  0  0  0  0  0  0  0
   56.4184   31.6627   43.9650 H   0  0  0  0  0  0  0  0  0  0  0  0
   57.4060   31.7050   42.0560 C   0  0  0  0  0  0  0  0  0  0  0  0
   57.7416   32.7479   42.1544 H   0  0  0  0  0  0  0  0  0  0  0  0
   58.1633   31.1264   41.5067 H   0  0  0  0  0  0  0  0  0  0  0  0
   56.4534   31.6767   41.5067 H   0  0  0  0  0  0  0  0  0  0  0  0
   58.5120   31.2050   44.2580 C   0  0  0  0  0  0  0  0  0  0  0  0
   58.2810   31.1857   45.3333 H   0  0  0  0  0  0  0  0  0  0  0  0
   59.1691   30.3587   44.0089 H   0  0  0  0  0  0  0  0  0  0  0  0
   59.0192   32.1487   44.0089 H   0  0  0  0  0  0  0  0  0  0  0  0
   58.6320   26.7110   46.0800 C   0  0  0  0  0  0  0  0  0  0  0  0
   58.3335   25.8653   45.4430 H   0  0  0  0  0  0  0  0  0  0  0  0
  1  2  1  0
  2  3  2  0
  3  4  1  0
  3  5  1  0
  5  6  1  0
  6  7  2  0
  7  8  1  0
  8  9  1  0
  8 10  2  0
 10 11  1  0
 10 12  1  0
 12 13  1  0
 12 14  1  0
 14 15  2  0
 15 16  1  0
 15 17  1  0
 17 18  1  0
 17 19  2  0
 19 20  1  0
 20 21  2  0
 20 22  1  0
 19 23  1  0
 23 24  1  0
 23 25  2  0
  5 26  2  0
 26 27  1  0
 26 28  1  0
 28 29  1  0
 29 30  1  0
 30 31  2  0
 30 32  1  0
 32 33  1  0
 32 34  1  0
 32 35  1  0
 35 36  1  0
 35 37  1  0
 37 38  1  0
 37 39  1  0
 37 40  1  0
 35 41  1  0
 41 42  1  0
 41 43  1  0
 41 44  1  0
 28 45  2  0
 45 46  1  0
 45  2  1  0
 25  7  1  0
 25 14  1  0
M  CHG  3  20   1  22  -1  29  -1
M  END
>  <UniqueID>  (45) 
42

>  <SMILES>  (45) 
CC(C)CC(=O)[N-]c1cccc(/N=c2/cc[nH]c3ccc([N+](=O)[O-])cc23)c1

>  <Energy>  (45) 
71.85065493041942

>  <Genealogy>  (45) 
CC(C)CC(=O)[N-]c1cccc(N=c2cc[nH]c3ccc([N+](=O)[O-])cc23)c1 (protonated)
CC(C)CC(=O)[N-]c1cccc(/N=c2/cc[nH]c3ccc([N+](=O)[O-])cc23)c1 (cis-trans isomerization)
CC(C)CC(=O)[N-]c1cccc(/N=c2/cc[nH]c3ccc([N+](=O)[O-])cc23)c1 (3D coordinates assigned)
CC(C)CC(=O)[N-]c1cccc(/N=c2/cc[nH]c3ccc([N+](=O)[O-])cc23)c1 (optimized conformer: 71.85065493041942 kcal/mol)

>  <smiles>  (45) 
CC(C)CC(=O)Nc1cccc(N=c2cc[nH]c3ccc([N+](=O)[O-])cc23)c1

>  <score_type>  (45) 
oracle

>  <origin>  (45) 
adg

>  <m_score__min__energy>  (45) 
-10.359999999999999

>  <m_primary>  (45) 
energy

$$$$
45:0
     RDKit          3D

 45 48  0  0  0  0  0  0  0  0999 V2000
   57.7260   28.2840   43.7580 C   0  0  0  0  0  0  0  0  0  0  0  0
   57.2940   29.6510   44.1700 C   0  0  0  0  0  0  0  0  0  0  0  0
   58.1210   30.7350   44.3660 C   0  0  0  0  0  0  0  0  0  0  0  0
   57.2590   31.7230   44.7950 C   0  0  0  0  0  0  0  0  0  0  0  0
   57.6420   33.1210   45.2050 C   0  0  2  0  0  0  0  0  0  0  0  0
   58.9100   33.6500   44.5470 C   0  0  0  0  0  0  0  0  0  0  0  0
   59.3800   34.7520   45.4840 C   0  0  0  0  0  0  0  0  0  0  0  0
   58.5480   34.5990   46.7590 C   0  0  0  0  0  0  0  0  0  0  0  0
   57.7880   33.3440   46.6560 N   0  0  0  0  0  0  0  0  0  0  0  0
   58.3660   32.2410   47.4760 C   0  0  0  0  0  0  0  0  0  0  0  0
   59.7060   32.5370   48.1300 C   0  0  0  0  0  0  0  0  0  0  0  0
   60.9130   32.2590   47.4660 C   0  0  0  0  0  0  0  0  0  0  0  0
   62.1400   32.5330   48.0750 C   0  0  0  0  0  0  0  0  0  0  0  0
   62.1890   33.1210   49.3490 C   0  0  0  0  0  0  0  0  0  0  0  0
   63.4920   33.4010   49.9890 C   0  0  0  0  0  0  0  0  0  0  0  0
   64.6620   32.8200   49.6330 N   0  0  0  0  0  0  0  0  0  0  0  0
   65.7100   33.2600   50.3980 C   0  0  0  0  0  0  0  0  0  0  0  0
   67.1040   32.7870   50.1550 C   0  0  0  0  0  0  0  0  0  0  0  0
   65.4240   34.1890   51.3470 N   0  0  0  0  0  0  0  0  0  0  0  0
   63.7920   34.4640   51.2440 S   0  0  0  0  0  0  0  0  0  0  0  0
   60.9830   33.4520   49.9900 C   0  0  0  0  0  0  0  0  0  0  0  0
   59.7580   33.1770   49.3790 C   0  0  0  0  0  0  0  0  0  0  0  0
   56.0450   31.2240   44.8630 O   0  0  0  0  0  0  0  0  0  0  0  0
   56.0280   29.9760   44.4950 N   0  0  0  0  0  0  0  0  0  0  0  0
   57.9185   27.6748   44.6535 H   0  0  0  0  0  0  0  0  0  0  0  0
   56.9326   27.8139   43.1584 H   0  0  0  0  0  0  0  0  0  0  0  0
   58.6454   28.3552   43.1584 H   0  0  0  0  0  0  0  0  0  0  0  0
   59.2089   30.7979   44.2162 H   0  0  0  0  0  0  0  0  0  0  0  0
   56.7649   33.6775   44.8430 H   0  0  0  0  0  0  0  0  0  0  0  0
   59.6679   32.8570   44.4652 H   0  0  0  0  0  0  0  0  0  0  0  0
   58.7358   34.0115   43.5228 H   0  0  0  0  0  0  0  0  0  0  0  0
   60.4503   34.6331   45.7086 H   0  0  0  0  0  0  0  0  0  0  0  0
   59.2517   35.7476   45.0342 H   0  0  0  0  0  0  0  0  0  0  0  0
   59.2112   34.5632   47.6358 H   0  0  0  0  0  0  0  0  0  0  0  0
   57.8638   35.4525   46.8743 H   0  0  0  0  0  0  0  0  0  0  0  0
   57.6471   32.0001   48.2729 H   0  0  0  0  0  0  0  0  0  0  0  0
   58.5509   31.4128   46.7760 H   0  0  0  0  0  0  0  0  0  0  0  0
   60.8914   31.8214   46.4570 H   0  0  0  0  0  0  0  0  0  0  0  0
   63.0757   32.2860   47.5520 H   0  0  0  0  0  0  0  0  0  0  0  0
   67.6065   32.6165   51.1185 H   0  0  0  0  0  0  0  0  0  0  0  0
   67.0780   31.8474   49.5837 H   0  0  0  0  0  0  0  0  0  0  0  0
   67.6552   33.5484   49.5837 H   0  0  0  0  0  0  0  0  0  0  0  0
   66.0950   34.6420   52.0050 H   0  0  0  0  0  0  0  0  0  0  0  0
   61.0042   33.9311   50.9800 H   0  0  0  0  0  0  0  0  0  0  0  0
   58.8229   33.4649   49.8817 H   0  0  0  0  0  0  0  0  0  0  0  0
  1  2  1  0
  2  3  1  0
  3  4  2  0
  4  5  1  0
  5  6  1  0
  6  7  1  0
  7  8  1  0
  8  9  1  0
  9 10  1  0
 10 11  1  0
 11 12  2  0
 12 13  1  0
 13 14  2  0
 14 15  1  0
 15 16  2  0
 16 17  1  0
 17 18  1  0
 17 19  2  0
 19 20  1  0
 14 21  1  0
 21 22  2  0
  4 23  1  0
 23 24  1  0
 24  2  2  0
  9  5  1  0
 22 11  1  0
 20 15  1  0
  1 25  1  0
  1 26  1  0
  1 27  1  0
  3 28  1  0
  5 29  1  6
  6 30  1  0
  6 31  1  0
  7 32  1  0
  7 33  1  0
  8 34  1  0
  8 35  1  0
 10 36  1  0
 10 37  1  0
 12 38  1  0
 13 39  1  0
 18 40  1  0
 18 41  1  0
 18 42  1  0
 19 43  1  0
 21 44  1  0
 22 45  1  0
M  CHG  1  19   1
M  END
>  <UniqueID>  (46) 
43

>  <SMILES>  (46) 
Cc1cc([C@@H]2CCCN2Cc2ccc(-c3nc(C)[nH+]s3)cc2)on1

>  <Energy>  (46) 
125.13597004862957

>  <Genealogy>  (46) 
Cc1cc(C2CCCN2Cc2ccc(-c3nc(C)[nH+]s3)cc2)on1 (protonated)
Cc1cc([C@@H]2CCCN2Cc2ccc(-c3nc(C)[nH+]s3)cc2)on1 (chirality)
Cc1cc([C@@H]2CCCN2Cc2ccc(-c3nc(C)[nH+]s3)cc2)on1 (3D coordinates assigned)
Cc1cc([C@@H]2CCCN2Cc2ccc(-c3nc(C)[nH+]s3)cc2)on1 (nonaromatic ring conformer: 125.13597004862957 kcal/mol)

>  <smiles>  (46) 
Cc1cc(C2CCCN2Cc2ccc(-c3nc(C)ns3)cc2)on1

>  <score_type>  (46) 
oracle

>  <origin>  (46) 
adg

>  <m_score__min__energy>  (46) 
-8.1500000000000004

>  <m_primary>  (46) 
energy

$$$$
46:0
     RDKit          3D

 44 45  0  0  0  0  0  0  0  0999 V2000
   62.2760   32.4690   48.5330 C   0  0  0  0  0  0  0  0  0  0  0  0
   60.8270   32.4270   48.3080 N   0  0  0  0  0  0  0  0  0  0  0  0
   60.0440   33.6730   48.3820 C   0  0  0  0  0  0  0  0  0  0  0  0
   59.1810   33.8410   47.1560 C   0  0  0  0  0  0  0  0  0  0  0  0
   57.8780   33.3180   47.1330 C   0  0  0  0  0  0  0  0  0  0  0  0
   57.0810   33.4600   45.9920 C   0  0  0  0  0  0  0  0  0  0  0  0
   57.5840   34.1120   44.8630 C   0  0  0  0  0  0  0  0  0  0  0  0
   58.8870   34.6180   44.8700 C   0  0  0  0  0  0  0  0  0  0  0  0
   59.6870   34.4790   46.0090 C   0  0  0  0  0  0  0  0  0  0  0  0
   60.2210   31.1530   47.9850 C   0  0  0  0  0  0  0  0  0  0  0  0
   59.1700   30.7990   48.5860 O   0  0  0  0  0  0  0  0  0  0  0  0
   60.7630   30.2330   46.9130 C   0  0  0  0  0  0  0  0  0  0  0  0
   59.7170   29.3230   46.3810 N   0  0  2  0  0  0  0  0  0  0  0  0
   60.0240   27.9290   46.7600 C   0  0  0  0  0  0  0  0  0  0  0  0
   59.4910   29.4990   44.9100 C   0  0  1  0  0  0  0  0  0  0  0  0
   58.9860   28.2210   44.1740 C   0  0  0  0  0  0  0  0  0  0  0  0
   57.4700   28.2590   44.0050 C   0  0  0  0  0  0  0  0  0  0  0  0
   57.0390   29.9650   43.9680 S   0  0  0  0  0  0  0  0  0  0  0  0
   56.7710   30.4290   42.5640 O   0  0  0  0  0  0  0  0  0  0  0  0
   55.8630   30.2570   44.8570 O   0  0  0  0  0  0  0  0  0  0  0  0
   58.5290   30.6730   44.6030 C   0  0  0  0  0  0  0  0  0  0  0  0
   62.4792   32.4749   49.6141 H   0  0  0  0  0  0  0  0  0  0  0  0
   62.7437   31.5840   48.0768 H   0  0  0  0  0  0  0  0  0  0  0  0
   62.6917   33.3796   48.0768 H   0  0  0  0  0  0  0  0  0  0  0  0
   59.4006   33.6414   49.2736 H   0  0  0  0  0  0  0  0  0  0  0  0
   60.7405   34.5224   48.4402 H   0  0  0  0  0  0  0  0  0  0  0  0
   57.4823   32.7945   48.0158 H   0  0  0  0  0  0  0  0  0  0  0  0
   56.0572   33.0579   45.9836 H   0  0  0  0  0  0  0  0  0  0  0  0
   56.9543   34.2271   43.9684 H   0  0  0  0  0  0  0  0  0  0  0  0
   59.2838   35.1261   43.9787 H   0  0  0  0  0  0  0  0  0  0  0  0
   60.7152   34.8699   46.0077 H   0  0  0  0  0  0  0  0  0  0  0  0
   61.1566   30.8433   46.0868 H   0  0  0  0  0  0  0  0  0  0  0  0
   61.5542   29.6154   47.3630 H   0  0  0  0  0  0  0  0  0  0  0  0
   58.8260   29.5690   46.8750 H   0  0  0  0  0  0  0  0  0  0  0  0
   60.0430   27.8428   47.8565 H   0  0  0  0  0  0  0  0  0  0  0  0
   59.2517   27.2598   46.3529 H   0  0  0  0  0  0  0  0  0  0  0  0
   61.0060   27.6461   46.3529 H   0  0  0  0  0  0  0  0  0  0  0  0
   60.4934   29.7250   44.5174 H   0  0  0  0  0  0  0  0  0  0  0  0
   59.4585   28.1651   43.1822 H   0  0  0  0  0  0  0  0  0  0  0  0
   59.2527   27.3387   44.7743 H   0  0  0  0  0  0  0  0  0  0  0  0
   57.1762   27.7685   43.0653 H   0  0  0  0  0  0  0  0  0  0  0  0
   56.9567   27.7276   44.8200 H   0  0  0  0  0  0  0  0  0  0  0  0
   58.9775   31.3437   43.8553 H   0  0  0  0  0  0  0  0  0  0  0  0
   58.3286   31.2643   45.5086 H   0  0  0  0  0  0  0  0  0  0  0  0
  1  2  1  0
  2  3  1  0
  3  4  1  0
  4  5  2  0
  5  6  1  0
  6  7  2  0
  7  8  1  0
  8  9  2  0
  2 10  1  0
 10 11  2  0
 10 12  1  0
 12 13  1  0
 13 14  1  0
 13 15  1  0
 15 16  1  0
 16 17  1  0
 17 18  1  0
 18 19  2  0
 18 20  2  0
 18 21  1  0
  9  4  1  0
 21 15  1  0
  1 22  1  0
  1 23  1  0
  1 24  1  0
  3 25  1  0
  3 26  1  0
  5 27  1  0
  6 28  1  0
  7 29  1  0
  8 30  1  0
  9 31  1  0
 12 32  1  0
 12 33  1  0
 13 34  1  1
 14 35  1  0
 14 36  1  0
 14 37  1  0
 15 38  1  6
 16 39  1  0
 16 40  1  0
 17 41  1  0
 17 42  1  0
 21 43  1  0
 21 44  1  0
M  CHG  1  13   1
M  END
>  <UniqueID>  (47) 
44

>  <SMILES>  (47) 
CN(Cc1ccccc1)C(=O)C[N@H+](C)[C@H]1CCS(=O)(=O)C1

>  <Energy>  (47) 
47.33447184834699

>  <Genealogy>  (47) 
CN(Cc1ccccc1)C(=O)C[NH+](C)C1CCS(=O)(=O)C1 (protonated)
CN(Cc1ccccc1)C(=O)C[N@H+](C)[C@H]1CCS(=O)(=O)C1 (chirality)
CN(Cc1ccccc1)C(=O)C[N@H+](C)[C@H]1CCS(=O)(=O)C1 (3D coordinates assigned)
CN(Cc1ccccc1)C(=O)C[N@H+](C)[C@H]1CCS(=O)(=O)C1 (nonaromatic ring conformer: 47.33447184834699 kcal/mol)

>  <smiles>  (47) 
CN(Cc1ccccc1)C(=O)CN(C)C1CCS(=O)(=O)C1

>  <score_type>  (47) 
oracle

>  <origin>  (47) 
adg

>  <m_score__min__energy>  (47) 
-6.79

>  <m_primary>  (47) 
energy

$$$$
47:0
     RDKit          3D

 26 28  0  0  0  0  0  0  0  0999 V2000
   57.4240   33.1350   46.0980 C   0  0  0  0  0  0  0  0  0  0  0  0
   58.1390   32.2030   45.1260 C   0  0  0  0  0  0  0  0  0  0  0  0
   57.4330   30.9290   45.0370 N   0  0  0  0  0  0  0  0  0  0  0  0
   57.8520   29.7560   45.5470 C   0  0  0  0  0  0  0  0  0  0  0  0
   56.8730   28.8170   45.3040 C   0  0  0  0  0  0  0  0  0  0  0  0
   56.8880   27.3980   45.6810 C   0  0  0  0  0  0  0  0  0  0  0  0
   55.7570   26.7100   45.9940 N   0  0  0  0  0  0  0  0  0  0  0  0
   56.2330   25.4860   46.2650 C   0  0  0  0  0  0  0  0  0  0  0  0
   55.5190   24.3550   46.6490 C   0  0  0  0  0  0  0  0  0  0  0  0
   56.2620   23.1810   46.8770 C   0  0  0  0  0  0  0  0  0  0  0  0
   57.6240   23.1790   46.7200 N   0  0  0  0  0  0  0  0  0  0  0  0
   58.3080   24.2990   46.3410 C   0  0  0  0  0  0  0  0  0  0  0  0
   57.5820   25.4630   46.1150 C   0  0  0  0  0  0  0  0  0  0  0  0
   58.0330   26.6680   45.7420 N   0  0  0  0  0  0  0  0  0  0  0  0
   55.8680   29.4990   44.6420 C   0  0  0  0  0  0  0  0  0  0  0  0
   56.2310   30.7880   44.4980 N   0  0  0  0  0  0  0  0  0  0  0  0
   57.6545   32.8346   47.1308 H   0  0  0  0  0  0  0  0  0  0  0  0
   57.7634   34.1681   45.9322 H   0  0  0  0  0  0  0  0  0  0  0  0
   56.3382   33.0747   45.9322 H   0  0  0  0  0  0  0  0  0  0  0  0
   58.1709   32.6709   44.1310 H   0  0  0  0  0  0  0  0  0  0  0  0
   59.1614   32.0219   45.4891 H   0  0  0  0  0  0  0  0  0  0  0  0
   58.8058   29.5785   46.0654 H   0  0  0  0  0  0  0  0  0  0  0  0
   54.4258   24.3771   46.7688 H   0  0  0  0  0  0  0  0  0  0  0  0
   55.7461   22.2590   47.1832 H   0  0  0  0  0  0  0  0  0  0  0  0
   59.4010   24.2805   46.2182 H   0  0  0  0  0  0  0  0  0  0  0  0
   54.9234   29.0590   44.2896 H   0  0  0  0  0  0  0  0  0  0  0  0
  1  2  1  0
  2  3  1  0
  3  4  1  0
  4  5  2  0
  5  6  1  0
  6  7  2  0
  7  8  1  0
  8  9  2  0
  9 10  1  0
 10 11  2  0
 11 12  1  0
 12 13  2  0
 13 14  1  0
  5 15  1  0
 15 16  2  0
 16  3  1  0
 14  6  1  0
 13  8  1  0
  1 17  1  0
  1 18  1  0
  1 19  1  0
  2 20  1  0
  2 21  1  0
  4 22  1  0
  9 23  1  0
 10 24  1  0
 12 25  1  0
 15 26  1  0
M  CHG  1  14  -1
M  END
>  <UniqueID>  (48) 
45

>  <SMILES>  (48) 
CCn1cc(-c2nc3ccncc3[n-]2)cn1

>  <Energy>  (48) 
90.23723010701244

>  <Genealogy>  (48) 
CCn1cc(-c2nc3ccncc3[n-]2)cn1 (protonated)
CCn1cc(-c2nc3ccncc3[n-]2)cn1 (3D coordinates assigned)
CCn1cc(-c2nc3ccncc3[n-]2)cn1 (optimized conformer: 90.23723010701244 kcal/mol)

>  <smiles>  (48) 
CCn1cc(-c2nc3ccncc3[nH]2)cn1

>  <score_type>  (48) 
oracle

>  <origin>  (48) 
adg

>  <m_score__min__energy>  (48) 
-6.8799999999999999

>  <m_primary>  (48) 
energy

$$$$
