0:0
     RDKit          3D

 40 42  0  0  0  0  0  0  0  0999 V2000
   57.6610   32.3380   40.8830 C   0  0  0  0  0  0  0  0  0  0  0  0
   57.4240   31.9780   42.3160 C   0  0  0  0  0  0  0  0  0  0  0  0
   57.8860   32.8120   43.3390 C   0  0  0  0  0  0  0  0  0  0  0  0
   57.6750   32.4280   44.6740 C   0  0  0  0  0  0  0  0  0  0  0  0
   58.1730   33.2240   45.7750 N   0  0  0  0  0  0  0  0  0  0  0  0
   57.4410   33.3030   47.0420 C   0  0  0  0  0  0  0  0  0  0  0  0
   58.2870   32.6970   48.1670 C   0  0  0  0  0  0  0  0  0  0  0  0
   59.7360   32.9890   48.0330 N   0  0  0  0  0  0  0  0  0  0  0  0
   60.6300   31.8080   48.0250 C   0  0  0  0  0  0  0  0  0  0  0  0
   60.0040   30.5660   47.4240 C   0  0  0  0  0  0  0  0  0  0  0  0
   60.0220   30.3600   46.0330 C   0  0  0  0  0  0  0  0  0  0  0  0
   59.4740   29.1990   45.4790 C   0  0  0  0  0  0  0  0  0  0  0  0
   59.5100   29.0080   44.1370 F   0  0  0  0  0  0  0  0  0  0  0  0
   58.8910   28.2360   46.3060 C   0  0  0  0  0  0  0  0  0  0  0  0
   58.3700   27.1050   45.7700 F   0  0  0  0  0  0  0  0  0  0  0  0
   58.8350   28.4440   47.6860 C   0  0  0  0  0  0  0  0  0  0  0  0
   59.3780   29.6060   48.2460 C   0  0  0  0  0  0  0  0  0  0  0  0
   59.3130   29.7790   49.5910 F   0  0  0  0  0  0  0  0  0  0  0  0
   60.0940   34.0830   47.1030 C   0  0  0  0  0  0  0  0  0  0  0  0
   59.4760   33.8970   45.7030 C   0  0  0  0  0  0  0  0  0  0  0  0
   57.0170   31.2630   44.9240 N   0  0  0  0  0  0  0  0  0  0  0  0
   56.5680   30.4680   43.9190 C   0  0  0  0  0  0  0  0  0  0  0  0
   56.7790   30.8240   42.6260 N   0  0  0  0  0  0  0  0  0  0  0  0
   58.2652   33.2557   40.8306 H   0  0  0  0  0  0  0  0  0  0  0  0
   58.1962   31.5176   40.3825 H   0  0  0  0  0  0  0  0  0  0  0  0
   56.6958   32.5053   40.3825 H   0  0  0  0  0  0  0  0  0  0  0  0
   58.4056   33.7523   43.1027 H   0  0  0  0  0  0  0  0  0  0  0  0
   57.2248   34.3563   47.2741 H   0  0  0  0  0  0  0  0  0  0  0  0
   56.4985   32.7428   46.9533 H   0  0  0  0  0  0  0  0  0  0  0  0
   57.9358   33.1045   49.1265 H   0  0  0  0  0  0  0  0  0  0  0  0
   58.1679   31.6048   48.1127 H   0  0  0  0  0  0  0  0  0  0  0  0
   61.5291   32.0586   47.4429 H   0  0  0  0  0  0  0  0  0  0  0  0
   60.8575   31.5736   49.0754 H   0  0  0  0  0  0  0  0  0  0  0  0
   60.4710   31.1187   45.3752 H   0  0  0  0  0  0  0  0  0  0  0  0
   58.3625   27.6919   48.3349 H   0  0  0  0  0  0  0  0  0  0  0  0
   59.7350   35.0341   47.5231 H   0  0  0  0  0  0  0  0  0  0  0  0
   61.1879   34.0777   46.9877 H   0  0  0  0  0  0  0  0  0  0  0  0
   59.3430   34.8845   45.2369 H   0  0  0  0  0  0  0  0  0  0  0  0
   60.1554   33.2706   45.1063 H   0  0  0  0  0  0  0  0  0  0  0  0
   56.0333   29.5355   44.1525 H   0  0  0  0  0  0  0  0  0  0  0  0
  1  2  1  0
  2  3  2  0
  3  4  1  0
  4  5  1  0
  5  6  1  0
  6  7  1  0
  7  8  1  0
  8  9  1  0
  9 10  1  0
 10 11  2  0
 11 12  1  0
 12 13  1  0
 12 14  2  0
 14 15  1  0
 14 16  1  0
 16 17  2  0
 17 18  1  0
  8 19  1  0
 19 20  1  0
  4 21  2  0
 21 22  1  0
 22 23  2  0
 23  2  1  0
 20  5  1  0
 17 10  1  0
  1 24  1  0
  1 25  1  0
  1 26  1  0
  3 27  1  0
  6 28  1  0
  6 29  1  0
  7 30  1  0
  7 31  1  0
  9 32  1  0
  9 33  1  0
 11 34  1  0
 16 35  1  0
 19 36  1  0
 19 37  1  0
 20 38  1  0
 20 39  1  0
 22 40  1  0
M  END
>  <UniqueID>  (1) 
1

>  <SMILES>  (1) 
Cc1cc(N2CCN(Cc3cc(F)c(F)cc3F)CC2)ncn1

>  <Energy>  (1) 
54.18042147118316

>  <Genealogy>  (1) 
Cc1cc(N2CCN(Cc3cc(F)c(F)cc3F)CC2)ncn1 (3D coordinates assigned)
Cc1cc(N2CCN(Cc3cc(F)c(F)cc3F)CC2)ncn1 (nonaromatic ring conformer: 54.18042147118316 kcal/mol)

>  <smiles>  (1) 
Cc1cc(N2CCN(Cc3cc(F)c(F)cc3F)CC2)ncn1

>  <score_type>  (1) 
oracle

>  <origin>  (1) 
adg

>  <m_score__min__energy>  (1) 
-7.4500000000000002

>  <m_primary>  (1) 
energy

$$$$
1:0
     RDKit          3D

 24 24  0  0  0  0  0  0  0  0999 V2000
   57.7850   27.8380   43.7440 C   0  0  0  0  0  0  0  0  0  0  0  0
   57.2070   29.1720   43.9300 N   0  0  0  0  0  0  0  0  0  0  0  0
   56.2670   29.7250   42.9530 C   0  0  0  0  0  0  0  0  0  0  0  0
   57.5590   29.9500   45.0860 C   0  0  0  0  0  0  0  0  0  0  0  0
   58.3900   29.4970   45.9210 O   0  0  0  0  0  0  0  0  0  0  0  0
   57.0180   31.2340   45.2480 O   0  0  0  0  0  0  0  0  0  0  0  0
   57.7520   32.3990   45.5280 C   0  0  0  0  0  0  0  0  0  0  0  0
   57.9120   32.8750   46.8440 C   0  0  0  0  0  0  0  0  0  0  0  0
   58.6360   34.0450   47.0880 C   0  0  0  0  0  0  0  0  0  0  0  0
   59.1980   34.7550   46.0260 C   0  0  0  0  0  0  0  0  0  0  0  0
   59.0290   34.3040   44.7150 C   0  0  0  0  0  0  0  0  0  0  0  0
   58.3020   33.1320   44.4620 C   0  0  0  0  0  0  0  0  0  0  0  0
   58.1360   32.6820   43.1030 C   0  0  0  0  0  0  0  0  0  0  0  0
   58.0020   32.3210   42.0110 N   0  0  0  0  0  0  0  0  0  0  0  0
   57.9819   27.3835   44.7262 H   0  0  0  0  0  0  0  0  0  0  0  0
   57.0793   27.2076   43.1831 H   0  0  0  0  0  0  0  0  0  0  0  0
   58.7275   27.9217   43.1831 H   0  0  0  0  0  0  0  0  0  0  0  0
   55.4352   30.2144   43.4808 H   0  0  0  0  0  0  0  0  0  0  0  0
   56.7852   30.4622   42.3221 H   0  0  0  0  0  0  0  0  0  0  0  0
   55.8744   28.9139   42.3221 H   0  0  0  0  0  0  0  0  0  0  0  0
   57.4648   32.3230   47.6838 H   0  0  0  0  0  0  0  0  0  0  0  0
   58.7632   34.4070   48.1189 H   0  0  0  0  0  0  0  0  0  0  0  0
   59.7748   35.6710   46.2217 H   0  0  0  0  0  0  0  0  0  0  0  0
   59.4671   34.8694   43.8793 H   0  0  0  0  0  0  0  0  0  0  0  0
  1  2  1  0
  2  3  1  0
  2  4  1  0
  4  5  2  0
  4  6  1  0
  6  7  1  0
  7  8  2  0
  8  9  1  0
  9 10  2  0
 10 11  1  0
 11 12  2  0
 12 13  1  0
 13 14  3  0
 12  7  1  0
  1 15  1  0
  1 16  1  0
  1 17  1  0
  3 18  1  0
  3 19  1  0
  3 20  1  0
  8 21  1  0
  9 22  1  0
 10 23  1  0
 11 24  1  0
M  END
>  <UniqueID>  (2) 
2

>  <SMILES>  (2) 
CN(C)C(=O)Oc1ccccc1C#N

>  <Energy>  (2) 
22.694357214890502

>  <Genealogy>  (2) 
CN(C)C(=O)Oc1ccccc1C#N (3D coordinates assigned)
CN(C)C(=O)Oc1ccccc1C#N (optimized conformer: 22.694357214890502 kcal/mol)

>  <smiles>  (2) 
CN(C)C(=O)Oc1ccccc1C#N

>  <score_type>  (2) 
oracle

>  <origin>  (2) 
adg

>  <m_score__min__energy>  (2) 
-5.3300000000000001

>  <m_primary>  (2) 
energy

$$$$
2:0
     RDKit          3D

 65 68  0  0  0  0  0  0  0  0999 V2000
   63.9897   34.2774   51.3143 H   0  0  0  0  0  0  0  0  0  0  0  0
   63.0220   34.0200   50.8590 C   0  0  0  0  0  0  0  0  0  0  0  0
   62.8070   34.2640   49.5410 N   0  0  0  0  0  0  0  0  0  0  0  0
   61.6220   33.9470   48.9540 C   0  0  0  0  0  0  0  0  0  0  0  0
   61.4390   34.2270   47.6960 N   0  0  0  0  0  0  0  0  0  0  0  0
   60.3020   33.8580   46.8980 C   0  0  0  0  0  0  0  0  0  0  0  0
   59.6240   34.8560   46.1910 C   0  0  0  0  0  0  0  0  0  0  0  0
   59.9626   35.9004   46.2593 H   0  0  0  0  0  0  0  0  0  0  0  0
   58.5200   34.5350   45.3990 C   0  0  0  0  0  0  0  0  0  0  0  0
   57.9862   35.3289   44.8560 H   0  0  0  0  0  0  0  0  0  0  0  0
   58.0900   33.2090   45.2930 C   0  0  0  0  0  0  0  0  0  0  0  0
   57.0200   32.9220   44.5070 F   0  0  0  0  0  0  0  0  0  0  0  0
   58.7710   32.1850   45.9780 C   0  0  0  0  0  0  0  0  0  0  0  0
   58.3170   30.7520   45.8290 C   0  0  0  0  0  0  0  0  0  0  0  0
   57.0540   30.7280   45.2680 F   0  0  0  0  0  0  0  0  0  0  0  0
   59.1750   30.0240   45.0220 F   0  0  0  0  0  0  0  0  0  0  0  0
   58.2720   30.1460   47.0720 F   0  0  0  0  0  0  0  0  0  0  0  0
   59.8950   32.5160   46.7580 C   0  0  0  0  0  0  0  0  0  0  0  0
   60.4612   31.7196   47.2631 H   0  0  0  0  0  0  0  0  0  0  0  0
   60.6320   33.3910   49.7030 N   0  0  0  0  0  0  0  0  0  0  0  0
   60.7960   33.1240   51.0270 C   0  0  0  0  0  0  0  0  0  0  0  0
   59.7140   32.5360   51.7790 N   0  0  0  0  0  0  0  0  0  0  0  0
   58.5940   33.3650   52.2500 C   0  0  0  0  0  0  0  0  0  0  0  0
   58.3448   34.1031   51.4734 H   0  0  0  0  0  0  0  0  0  0  0  0
   58.9022   33.8635   53.1809 H   0  0  0  0  0  0  0  0  0  0  0  0
   57.3480   32.5150   52.5490 C   0  0  0  0  0  0  0  0  0  0  0  0
   56.4650   33.1697   52.5899 H   0  0  0  0  0  0  0  0  0  0  0  0
   57.4889   32.0059   53.5138 H   0  0  0  0  0  0  0  0  0  0  0  0
   57.1400   31.4490   51.4480 C   0  0  0  0  0  0  0  0  0  0  0  0
   57.0374   31.9645   50.4817 H   0  0  0  0  0  0  0  0  0  0  0  0
   55.8770   30.6860   51.6840 N   0  0  0  0  0  0  0  0  0  0  0  0
   55.9380   29.7360   51.2440 H   0  0  0  0  0  0  0  0  0  0  0  0
   55.0700   31.1440   51.2020 H   0  0  0  0  0  0  0  0  0  0  0  0
   55.5270   30.4790   53.1120 C   0  0  2  0  0  0  0  0  0  0  0  0
   55.4949   31.4564   53.6156 H   0  0  0  0  0  0  0  0  0  0  0  0
   56.6360   29.7000   53.8720 C   0  0  0  0  0  0  0  0  0  0  0  0
   57.5892   30.2265   53.7166 H   0  0  0  0  0  0  0  0  0  0  0  0
   56.6267   28.6788   53.4633 H   0  0  0  0  0  0  0  0  0  0  0  0
   56.4120   29.5550   55.3960 C   0  0  0  0  0  0  0  0  0  0  0  0
   57.3801   29.7125   55.8939 H   0  0  0  0  0  0  0  0  0  0  0  0
   55.9884   28.5496   55.5368 H   0  0  0  0  0  0  0  0  0  0  0  0
   55.3970   30.5210   56.0280 C   0  0  0  0  0  0  0  0  0  0  0  0
   55.5249   31.5079   55.5593 H   0  0  0  0  0  0  0  0  0  0  0  0
   55.6030   30.5265   57.1085 H   0  0  0  0  0  0  0  0  0  0  0  0
   53.9290   30.1010   55.8670 C   0  0  0  0  0  0  0  0  0  0  0  0
   53.3430   30.6183   56.6409 H   0  0  0  0  0  0  0  0  0  0  0  0
   53.9198   29.0048   55.9575 H   0  0  0  0  0  0  0  0  0  0  0  0
   53.2890   30.4140   54.5010 C   0  0  0  0  0  0  0  0  0  0  0  0
   53.1944   31.5064   54.4136 H   0  0  0  0  0  0  0  0  0  0  0  0
   52.3259   29.8827   54.4904 H   0  0  0  0  0  0  0  0  0  0  0  0
   54.0690   29.9030   53.2660 C   0  0  1  0  0  0  0  0  0  0  0  0
   54.1859   28.8198   53.4178 H   0  0  0  0  0  0  0  0  0  0  0  0
   53.3300   30.2050   52.0890 O   0  0  0  0  0  0  0  0  0  0  0  0
   52.2590   31.0790   52.3690 C   0  0  0  0  0  0  0  0  0  0  0  0
   52.1401   31.1760   53.4582 H   0  0  0  0  0  0  0  0  0  0  0  0
   52.4687   32.0671   51.9336 H   0  0  0  0  0  0  0  0  0  0  0  0
   51.3330   30.6754   51.9336 H   0  0  0  0  0  0  0  0  0  0  0  0
   58.3830   30.5080   51.3280 C   0  0  0  0  0  0  0  0  0  0  0  0
   58.5880   30.3358   50.2611 H   0  0  0  0  0  0  0  0  0  0  0  0
   58.1376   29.5772   51.8604 H   0  0  0  0  0  0  0  0  0  0  0  0
   59.6490   31.0820   51.9800 C   0  0  0  0  0  0  0  0  0  0  0  0
   60.5348   30.6134   51.5263 H   0  0  0  0  0  0  0  0  0  0  0  0
   59.6214   30.8717   53.0594 H   0  0  0  0  0  0  0  0  0  0  0  0
   62.0190   33.4440   51.6360 C   0  0  0  0  0  0  0  0  0  0  0  0
   62.1826   33.2442   52.7053 H   0  0  0  0  0  0  0  0  0  0  0  0
  1  2  1  0
  2  3  1  0
  3  4  1  0
  4  5  2  0
  5  6  1  0
  6  7  2  0
  7  8  1  0
  7  9  1  0
  9 10  1  0
  9 11  2  0
 11 12  1  0
 11 13  1  0
 13 14  1  0
 14 15  1  0
 14 16  1  0
 14 17  1  0
 13 18  2  0
 18 19  1  0
  4 20  1  0
 20 21  2  0
 21 22  1  0
 22 23  1  0
 23 24  1  0
 23 25  1  0
 23 26  1  0
 26 27  1  0
 26 28  1  0
 26 29  1  0
 29 30  1  0
 29 31  1  0
 31 32  1  0
 31 33  1  0
 31 34  1  0
 34 35  1  1
 34 36  1  0
 36 37  1  0
 36 38  1  0
 36 39  1  0
 39 40  1  0
 39 41  1  0
 39 42  1  0
 42 43  1  0
 42 44  1  0
 42 45  1  0
 45 46  1  0
 45 47  1  0
 45 48  1  0
 48 49  1  0
 48 50  1  0
 48 51  1  0
 51 52  1  1
 51 53  1  0
 53 54  1  0
 54 55  1  0
 54 56  1  0
 54 57  1  0
 29 58  1  0
 58 59  1  0
 58 60  1  0
 58 61  1  0
 61 62  1  0
 61 63  1  0
 21 64  1  0
 64 65  1  0
 64  2  2  0
 18  6  1  0
 61 22  1  0
 51 34  1  0
M  CHG  2   3  -1  31   1
M  END
>  <UniqueID>  (3) 
3

>  <SMILES>  (3) 
CO[C@@H]1CCCCC[C@H]1[NH2+]C1CCN(c2cc[n-]/c(=N/c3ccc(F)c(C(F)(F)F)c3)n2)CC1

>  <Energy>  (3) 
98.16729524673511

>  <Genealogy>  (3) 
COC1CCCCCC1[NH2+]C1CCN(c2cc[n-]c(=Nc3ccc(F)c(C(F)(F)F)c3)n2)CC1 (protonated)
CO[C@@H]1CCCCC[C@H]1[NH2+]C1CCN(c2cc[n-]c(=Nc3ccc(F)c(C(F)(F)F)c3)n2)CC1 (chirality)
CO[C@@H]1CCCCC[C@H]1[NH2+]C1CCN(c2cc[n-]/c(=N/c3ccc(F)c(C(F)(F)F)c3)n2)CC1 (cis-trans isomerization)
CO[C@@H]1CCCCC[C@H]1[NH2+]C1CCN(c2cc[n-]/c(=N/c3ccc(F)c(C(F)(F)F)c3)n2)CC1 (3D coordinates assigned)
CO[C@@H]1CCCCC[C@H]1[NH2+]C1CCN(c2cc[n-]/c(=N/c3ccc(F)c(C(F)(F)F)c3)n2)CC1 (nonaromatic ring conformer: 98.16729524673511 kcal/mol)

>  <smiles>  (3) 
COC1CCCCCC1NC1CCN(c2cc[nH]c(=Nc3ccc(F)c(C(F)(F)F)c3)n2)CC1

>  <score_type>  (3) 
oracle

>  <origin>  (3) 
adg

>  <m_score__min__energy>  (3) 
-5.8899999999999997

>  <m_primary>  (3) 
energy

$$$$
3:0
     RDKit          3D

 40 42  0  0  0  0  0  0  0  0999 V2000
   64.0040   32.3430   46.9690 F   0  0  0  0  0  0  0  0  0  0  0  0
   63.2370   33.4780   47.1510 C   0  0  0  0  0  0  0  0  0  0  0  0
   63.2920   34.2450   46.0000 F   0  0  0  0  0  0  0  0  0  0  0  0
   63.7510   34.2120   48.2040 F   0  0  0  0  0  0  0  0  0  0  0  0
   61.8210   33.0860   47.4550 C   0  0  0  0  0  0  0  0  0  0  0  0
   60.9350   34.0020   48.0370 C   0  0  0  0  0  0  0  0  0  0  0  0
   59.6600   33.6210   48.3030 N   0  0  0  0  0  0  0  0  0  0  0  0
   59.2210   32.3670   48.0170 C   0  0  0  0  0  0  0  0  0  0  0  0
   60.1000   31.4390   47.4340 C   0  0  0  0  0  0  0  0  0  0  0  0
   59.6610   30.0620   47.1070 C   0  0  0  0  0  0  0  0  0  0  0  0
   60.3500   28.9430   47.6070 C   0  0  0  0  0  0  0  0  0  0  0  0
   59.9120   27.6600   47.2760 C   0  0  0  0  0  0  0  0  0  0  0  0
   58.7960   27.4950   46.4550 C   0  0  0  0  0  0  0  0  0  0  0  0
   58.1260   28.6270   45.9720 C   0  0  0  0  0  0  0  0  0  0  0  0
   56.9250   28.4910   45.0720 C   0  0  0  0  0  0  0  0  0  0  0  0
   56.2150   29.7690   44.9100 N   0  0  0  0  0  0  0  0  0  0  0  0
   56.3100   30.3100   43.5420 C   0  0  0  0  0  0  0  0  0  0  0  0
   57.6110   31.0970   43.3740 C   0  0  0  0  0  0  0  0  0  0  0  0
   57.6450   32.2440   44.2740 N   0  0  0  0  0  0  0  0  0  0  0  0
   58.4740   33.3010   44.1790 C   0  0  0  0  0  0  0  0  0  0  0  0
   58.1520   34.1930   45.1770 C   0  0  0  0  0  0  0  0  0  0  0  0
   57.0980   33.6050   45.8490 C   0  0  0  0  0  0  0  0  0  0  0  0
   56.8020   32.4210   45.2790 N   0  0  0  0  0  0  0  0  0  0  0  0
   58.5750   29.8670   46.3080 N   0  0  0  0  0  0  0  0  0  0  0  0
   61.3780   31.8310   47.1710 N   0  0  0  0  0  0  0  0  0  0  0  0
   61.2702   35.0220   48.2764 H   0  0  0  0  0  0  0  0  0  0  0  0
   58.1829   32.0802   48.2408 H   0  0  0  0  0  0  0  0  0  0  0  0
   61.2286   29.0780   48.2549 H   0  0  0  0  0  0  0  0  0  0  0  0
   60.4462   26.7794   47.6621 H   0  0  0  0  0  0  0  0  0  0  0  0
   58.4457   26.4866   46.1896 H   0  0  0  0  0  0  0  0  0  0  0  0
   57.2586   28.1415   44.0838 H   0  0  0  0  0  0  0  0  0  0  0  0
   56.2323   27.7717   45.5333 H   0  0  0  0  0  0  0  0  0  0  0  0
   56.5990   30.4670   45.5900 H   0  0  0  0  0  0  0  0  0  0  0  0
   56.2920   29.4796   42.8209 H   0  0  0  0  0  0  0  0  0  0  0  0
   55.4582   30.9823   43.3621 H   0  0  0  0  0  0  0  0  0  0  0  0
   58.4624   30.4376   43.5985 H   0  0  0  0  0  0  0  0  0  0  0  0
   57.6702   31.4613   42.3378 H   0  0  0  0  0  0  0  0  0  0  0  0
   59.2714   33.4296   43.4323 H   0  0  0  0  0  0  0  0  0  0  0  0
   58.6289   35.1607   45.3919 H   0  0  0  0  0  0  0  0  0  0  0  0
   56.5795   34.0377   46.7173 H   0  0  0  0  0  0  0  0  0  0  0  0
  1  2  1  0
  2  3  1  0
  2  4  1  0
  2  5  1  0
  5  6  2  0
  6  7  1  0
  7  8  2  0
  8  9  1  0
  9 10  1  0
 10 11  2  0
 11 12  1  0
 12 13  2  0
 13 14  1  0
 14 15  1  0
 15 16  1  0
 16 17  1  0
 17 18  1  0
 18 19  1  0
 19 20  1  0
 20 21  2  0
 21 22  1  0
 22 23  2  0
 14 24  2  0
  9 25  2  0
 25  5  1  0
 24 10  1  0
 23 19  1  0
  6 26  1  0
  8 27  1  0
 11 28  1  0
 12 29  1  0
 13 30  1  0
 15 31  1  0
 15 32  1  0
 16 33  1  0
 17 34  1  0
 17 35  1  0
 18 36  1  0
 18 37  1  0
 20 38  1  0
 21 39  1  0
 22 40  1  0
M  END
>  <UniqueID>  (4) 
4

>  <SMILES>  (4) 
FC(F)(F)c1cncc(-c2cccc(CNCCn3cccn3)n2)n1

>  <Energy>  (4) 
71.97579777494916

>  <Genealogy>  (4) 
FC(F)(F)c1cncc(-c2cccc(CNCCn3cccn3)n2)n1 (3D coordinates assigned)
FC(F)(F)c1cncc(-c2cccc(CNCCn3cccn3)n2)n1 (optimized conformer: 71.97579777494916 kcal/mol)

>  <smiles>  (4) 
FC(F)(F)c1cncc(-c2cccc(CNCCn3cccn3)n2)n1

>  <score_type>  (4) 
oracle

>  <origin>  (4) 
adg

>  <m_score__min__energy>  (4) 
-8.0299999999999994

>  <m_primary>  (4) 
energy

$$$$
4:0
     RDKit          3D

 60 63  0  0  0  0  0  0  0  0999 V2000
   60.8530   28.5720   45.0850 C   0  0  0  0  0  0  0  0  0  0  0  0
   59.7600   27.9690   45.9910 C   0  0  0  0  0  0  0  0  0  0  0  0
   60.0640   28.3090   47.4600 C   0  0  0  0  0  0  0  0  0  0  0  0
   59.8070   26.5020   45.8430 N   0  0  0  0  0  0  0  0  0  0  0  0
   58.7520   25.7580   45.6770 C   0  0  0  0  0  0  0  0  0  0  0  0
   58.8770   24.3370   45.6150 N   0  0  0  0  0  0  0  0  0  0  0  0
   57.4600   26.3470   45.5450 N   0  0  0  0  0  0  0  0  0  0  0  0
   57.2880   27.6290   45.5170 C   0  0  0  0  0  0  0  0  0  0  0  0
   55.9600   28.1430   45.3610 N   0  0  0  0  0  0  0  0  0  0  0  0
   58.4270   28.5090   45.6200 N   0  0  0  0  0  0  0  0  0  0  0  0
   58.2300   29.9280   45.4800 C   0  0  0  0  0  0  0  0  0  0  0  0
   58.5200   30.7830   46.5500 C   0  0  0  0  0  0  0  0  0  0  0  0
   58.3480   32.1640   46.4140 C   0  0  0  0  0  0  0  0  0  0  0  0
   57.9000   32.7050   45.1980 C   0  0  0  0  0  0  0  0  0  0  0  0
   57.6810   34.1900   45.0580 C   0  0  0  0  0  0  0  0  0  0  0  0
   59.0020   34.9460   44.8840 C   0  0  0  0  0  0  0  0  0  0  0  0
   59.3530   35.6690   46.1160 N   0  0  0  0  0  0  0  0  0  0  0  0
   60.1020   34.8120   47.0450 C   0  0  0  0  0  0  0  0  0  0  0  0
   61.0280   33.8700   46.2700 C   0  0  0  0  0  0  0  0  0  0  0  0
   62.1040   33.3350   47.1660 C   0  0  0  0  0  0  0  0  0  0  0  0
   63.4760   33.5230   47.0200 C   0  0  0  0  0  0  0  0  0  0  0  0
   64.1500   32.8340   47.9700 N   0  0  0  0  0  0  0  0  0  0  0  0
   63.2170   32.2020   48.7040 C   0  0  0  0  0  0  0  0  0  0  0  0
   63.4270   31.3520   49.7890 C   0  0  0  0  0  0  0  0  0  0  0  0
   62.2980   30.7770   50.4020 C   0  0  0  0  0  0  0  0  0  0  0  0
   61.0000   31.0590   49.9200 C   0  0  0  0  0  0  0  0  0  0  0  0
   60.8180   31.9200   48.8220 C   0  0  0  0  0  0  0  0  0  0  0  0
   61.9560   32.4790   48.2390 C   0  0  0  0  0  0  0  0  0  0  0  0
   57.6210   31.8460   44.1230 C   0  0  0  0  0  0  0  0  0  0  0  0
   57.7930   30.4660   44.2610 C   0  0  0  0  0  0  0  0  0  0  0  0
   61.6462   29.0096   45.7090 H   0  0  0  0  0  0  0  0  0  0  0  0
   61.2800   27.7818   44.4500 H   0  0  0  0  0  0  0  0  0  0  0  0
   60.4123   29.3546   44.4500 H   0  0  0  0  0  0  0  0  0  0  0  0
   59.4763   27.6517   48.1177 H   0  0  0  0  0  0  0  0  0  0  0  0
   61.1361   28.1606   47.6564 H   0  0  0  0  0  0  0  0  0  0  0  0
   59.7970   29.3579   47.6564 H   0  0  0  0  0  0  0  0  0  0  0  0
   60.7370   26.0330   45.9500 H   0  0  0  0  0  0  0  0  0  0  0  0
   58.0300   23.7420   45.4790 H   0  0  0  0  0  0  0  0  0  0  0  0
   59.8090   23.8720   45.7020 H   0  0  0  0  0  0  0  0  0  0  0  0
   55.1510   27.4870   45.2820 H   0  0  0  0  0  0  0  0  0  0  0  0
   55.7620   29.1660   45.3250 H   0  0  0  0  0  0  0  0  0  0  0  0
   58.8844   30.3670   47.5009 H   0  0  0  0  0  0  0  0  0  0  0  0
   58.5645   32.8292   47.2629 H   0  0  0  0  0  0  0  0  0  0  0  0
   57.0464   34.3750   44.1787 H   0  0  0  0  0  0  0  0  0  0  0  0
   57.1981   34.5526   45.9774 H   0  0  0  0  0  0  0  0  0  0  0  0
   59.8006   34.2277   44.6467 H   0  0  0  0  0  0  0  0  0  0  0  0
   58.8883   35.6736   44.0669 H   0  0  0  0  0  0  0  0  0  0  0  0
   59.9800   36.4640   45.8480 H   0  0  0  0  0  0  0  0  0  0  0  0
   60.7045   35.4429   47.7151 H   0  0  0  0  0  0  0  0  0  0  0  0
   59.3904   34.2120   47.6311 H   0  0  0  0  0  0  0  0  0  0  0  0
   60.4390   33.0310   45.8712 H   0  0  0  0  0  0  0  0  0  0  0  0
   61.4967   34.4300   45.4474 H   0  0  0  0  0  0  0  0  0  0  0  0
   63.9455   34.1436   46.2426 H   0  0  0  0  0  0  0  0  0  0  0  0
   65.1860   32.7910   48.0940 H   0  0  0  0  0  0  0  0  0  0  0  0
   64.4422   31.1377   50.1542 H   0  0  0  0  0  0  0  0  0  0  0  0
   62.4270   30.1035   51.2621 H   0  0  0  0  0  0  0  0  0  0  0  0
   60.1256   30.6022   50.4066 H   0  0  0  0  0  0  0  0  0  0  0  0
   59.8127   32.1448   48.4363 H   0  0  0  0  0  0  0  0  0  0  0  0
   57.2656   32.2609   43.1683 H   0  0  0  0  0  0  0  0  0  0  0  0
   57.5849   29.7998   43.4108 H   0  0  0  0  0  0  0  0  0  0  0  0
  1  2  1  0
  2  3  1  0
  2  4  1  0
  4  5  2  0
  5  6  1  0
  5  7  1  0
  7  8  2  0
  8  9  1  0
  8 10  1  0
 10 11  1  0
 11 12  2  0
 12 13  1  0
 13 14  2  0
 14 15  1  0
 15 16  1  0
 16 17  1  0
 17 18  1  0
 18 19  1  0
 19 20  1  0
 20 21  2  0
 21 22  1  0
 22 23  1  0
 23 24  2  0
 24 25  1  0
 25 26  2  0
 26 27  1  0
 27 28  2  0
 14 29  1  0
 29 30  2  0
 10  2  1  0
 30 11  1  0
 28 20  1  0
 28 23  1  0
  1 31  1  0
  1 32  1  0
  1 33  1  0
  3 34  1  0
  3 35  1  0
  3 36  1  0
  4 37  1  0
  6 38  1  0
  6 39  1  0
  9 40  1  0
  9 41  1  0
 12 42  1  0
 13 43  1  0
 15 44  1  0
 15 45  1  0
 16 46  1  0
 16 47  1  0
 17 48  1  0
 18 49  1  0
 18 50  1  0
 19 51  1  0
 19 52  1  0
 21 53  1  0
 22 54  1  0
 24 55  1  0
 25 56  1  0
 26 57  1  0
 27 58  1  0
 29 59  1  0
 30 60  1  0
M  CHG  1   4   1
M  END
>  <UniqueID>  (5) 
5

>  <SMILES>  (5) 
CC1(C)[NH+]=C(N)N=C(N)N1c1ccc(CCNCCc2c[nH]c3ccccc23)cc1

>  <Energy>  (5) 
93.79759999349675

>  <Genealogy>  (5) 
CC1(C)[NH+]=C(N)N=C(N)N1c1ccc(CCNCCc2c[nH]c3ccccc23)cc1 (protonated)
CC1(C)[NH+]=C(N)N=C(N)N1c1ccc(CCNCCc2c[nH]c3ccccc23)cc1 (3D coordinates assigned)
CC1(C)[NH+]=C(N)N=C(N)N1c1ccc(CCNCCc2c[nH]c3ccccc23)cc1 (nonaromatic ring conformer: 93.79759999349675 kcal/mol)

>  <smiles>  (5) 
CC1(C)N=C(N)N=C(N)N1c1ccc(CCNCCc2c[nH]c3ccccc23)cc1

>  <score_type>  (5) 
oracle

>  <origin>  (5) 
adg

>  <m_score__min__energy>  (5) 
-8.3800000000000008

>  <m_primary>  (5) 
energy

$$$$
5:0
     RDKit          3D

 58 61  0  0  0  0  0  0  0  0999 V2000
   56.9890   33.0930   45.1830 C   0  0  0  0  0  0  0  0  0  0  0  0
   57.3070   31.7790   45.6270 O   0  0  0  0  0  0  0  0  0  0  0  0
   57.3380   30.6440   44.8010 C   0  0  0  0  0  0  0  0  0  0  0  0
   56.4930   30.5130   43.6800 C   0  0  0  0  0  0  0  0  0  0  0  0
   56.5330   29.3570   42.8970 C   0  0  0  0  0  0  0  0  0  0  0  0
   57.4120   28.3220   43.2200 C   0  0  0  0  0  0  0  0  0  0  0  0
   58.2560   28.4410   44.3240 C   0  0  0  0  0  0  0  0  0  0  0  0
   58.2320   29.6010   45.1150 C   0  0  0  0  0  0  0  0  0  0  0  0
   59.1100   29.7190   46.2480 N   0  0  0  0  0  0  0  0  0  0  0  0
   60.5610   29.6540   46.0530 C   0  0  0  0  0  0  0  0  0  0  0  0
   61.2510   30.5660   47.0660 C   0  0  0  0  0  0  0  0  0  0  0  0
   60.8140   30.2120   48.4360 N   0  0  0  0  0  0  0  0  0  0  0  0
   61.5920   30.8740   49.5190 C   0  0  1  0  0  0  0  0  0  0  0  0
   61.5510   30.0280   50.8130 C   0  0  0  0  0  0  0  0  0  0  0  0
   62.7670   30.2810   51.7190 C   0  0  0  0  0  0  0  0  0  0  0  0
   63.2720   31.7210   51.5700 C   0  0  0  0  0  0  0  0  0  0  0  0
   63.7410   32.0150   50.1880 N   0  0  0  0  0  0  0  0  0  0  0  0
   63.6900   33.4640   49.8980 C   0  0  0  0  0  0  0  0  0  0  0  0
   62.6630   33.7650   48.8370 C   0  0  0  0  0  0  0  0  0  0  0  0
   61.3580   34.1450   49.1930 C   0  0  0  0  0  0  0  0  0  0  0  0
   60.4180   34.4460   48.2020 C   0  0  0  0  0  0  0  0  0  0  0  0
   60.7740   34.3750   46.8510 C   0  0  0  0  0  0  0  0  0  0  0  0
   59.5940   34.7570   45.6110 Cl  0  0  0  0  0  0  0  0  0  0  0  0
   62.0740   34.0030   46.4920 C   0  0  0  0  0  0  0  0  0  0  0  0
   63.0160   33.7010   47.4790 C   0  0  0  0  0  0  0  0  0  0  0  0
   63.0540   31.2220   49.1340 C   0  0  0  0  0  0  0  0  0  0  0  0
   59.3580   30.4310   48.5840 C   0  0  0  0  0  0  0  0  0  0  0  0
   58.5890   29.5380   47.6050 C   0  0  0  0  0  0  0  0  0  0  0  0
   56.8309   33.7461   46.0539 H   0  0  0  0  0  0  0  0  0  0  0  0
   57.8181   33.4856   44.5759 H   0  0  0  0  0  0  0  0  0  0  0  0
   56.0722   33.0631   44.5759 H   0  0  0  0  0  0  0  0  0  0  0  0
   55.7984   31.3256   43.4206 H   0  0  0  0  0  0  0  0  0  0  0  0
   55.8704   29.2621   42.0241 H   0  0  0  0  0  0  0  0  0  0  0  0
   57.4391   27.4116   42.6032 H   0  0  0  0  0  0  0  0  0  0  0  0
   58.9446   27.6212   44.5766 H   0  0  0  0  0  0  0  0  0  0  0  0
   60.9046   28.6191   46.1974 H   0  0  0  0  0  0  0  0  0  0  0  0
   60.8096   29.9834   45.0333 H   0  0  0  0  0  0  0  0  0  0  0  0
   62.3411   30.4419   46.9865 H   0  0  0  0  0  0  0  0  0  0  0  0
   60.9818   31.6118   46.8568 H   0  0  0  0  0  0  0  0  0  0  0  0
   61.0967   31.8405   49.6940 H   0  0  0  0  0  0  0  0  0  0  0  0
   60.6369   30.2799   51.3706 H   0  0  0  0  0  0  0  0  0  0  0  0
   61.5663   28.9677   50.5204 H   0  0  0  0  0  0  0  0  0  0  0  0
   62.4779   30.1075   52.7661 H   0  0  0  0  0  0  0  0  0  0  0  0
   63.5737   29.5940   51.4235 H   0  0  0  0  0  0  0  0  0  0  0  0
   62.4525   32.4109   51.8197 H   0  0  0  0  0  0  0  0  0  0  0  0
   64.1269   31.8499   52.2501 H   0  0  0  0  0  0  0  0  0  0  0  0
   63.4266   34.0062   50.8181 H   0  0  0  0  0  0  0  0  0  0  0  0
   64.6769   33.7838   49.5322 H   0  0  0  0  0  0  0  0  0  0  0  0
   61.0748   34.2060   50.2542 H   0  0  0  0  0  0  0  0  0  0  0  0
   59.3964   34.7392   48.4856 H   0  0  0  0  0  0  0  0  0  0  0  0
   62.3554   33.9481   45.4300 H   0  0  0  0  0  0  0  0  0  0  0  0
   64.0377   33.4121   47.1914 H   0  0  0  0  0  0  0  0  0  0  0  0
   63.0451   31.8055   48.2015 H   0  0  0  0  0  0  0  0  0  0  0  0
   63.6039   30.2773   49.0111 H   0  0  0  0  0  0  0  0  0  0  0  0
   59.0561   30.1868   49.6132 H   0  0  0  0  0  0  0  0  0  0  0  0
   59.1285   31.4846   48.3666 H   0  0  0  0  0  0  0  0  0  0  0  0
   58.7059   28.4856   47.9029 H   0  0  0  0  0  0  0  0  0  0  0  0
   57.5245   29.8145   47.6233 H   0  0  0  0  0  0  0  0  0  0  0  0
  1  2  1  0
  2  3  1  0
  3  4  2  0
  4  5  1  0
  5  6  2  0
  6  7  1  0
  7  8  2  0
  8  9  1  0
  9 10  1  0
 10 11  1  0
 11 12  1  0
 12 13  1  0
 13 14  1  0
 14 15  1  0
 15 16  1  0
 16 17  1  0
 17 18  1  0
 18 19  1  0
 19 20  2  0
 20 21  1  0
 21 22  2  0
 22 23  1  0
 22 24  1  0
 24 25  2  0
 17 26  1  0
 12 27  1  0
 27 28  1  0
  8  3  1  0
 28  9  1  0
 26 13  1  0
 25 19  1  0
  1 29  1  0
  1 30  1  0
  1 31  1  0
  4 32  1  0
  5 33  1  0
  6 34  1  0
  7 35  1  0
 10 36  1  0
 10 37  1  0
 11 38  1  0
 11 39  1  0
 13 40  1  1
 14 41  1  0
 14 42  1  0
 15 43  1  0
 15 44  1  0
 16 45  1  0
 16 46  1  0
 18 47  1  0
 18 48  1  0
 20 49  1  0
 21 50  1  0
 24 51  1  0
 25 52  1  0
 26 53  1  0
 26 54  1  0
 27 55  1  0
 27 56  1  0
 28 57  1  0
 28 58  1  0
M  END
>  <UniqueID>  (6) 
6

>  <SMILES>  (6) 
COc1ccccc1N1CCN([C@H]2CCCN(Cc3ccc(Cl)cc3)C2)CC1

>  <Energy>  (6) 
77.14215830326839

>  <Genealogy>  (6) 
COc1ccccc1N1CCN([C@H]2CCCN(Cc3ccc(Cl)cc3)C2)CC1 (chirality)
COc1ccccc1N1CCN([C@H]2CCCN(Cc3ccc(Cl)cc3)C2)CC1 (3D coordinates assigned)
COc1ccccc1N1CCN([C@H]2CCCN(Cc3ccc(Cl)cc3)C2)CC1 (nonaromatic ring conformer: 77.14215830326839 kcal/mol)

>  <smiles>  (6) 
COc1ccccc1N1CCN(C2CCCN(Cc3ccc(Cl)cc3)C2)CC1

>  <score_type>  (6) 
oracle

>  <origin>  (6) 
adg

>  <m_score__min__energy>  (6) 
-8.5800000000000001

>  <m_primary>  (6) 
energy

$$$$
6:0
     RDKit          3D

 19 20  0  0  0  0  0  0  0  0999 V2000
   57.5380   28.2200   43.4060 N   0  0  0  0  0  0  0  0  0  0  0  0
   56.8920   28.8280   44.5270 C   0  0  0  0  0  0  0  0  0  0  0  0
   56.1490   28.1260   45.2650 O   0  0  0  0  0  0  0  0  0  0  0  0
   57.0760   30.2560   44.8390 C   0  0  0  0  0  0  0  0  0  0  0  0
   58.1450   30.8340   45.4970 C   0  0  0  0  0  0  0  0  0  0  0  0
   57.8210   32.1760   45.5230 C   0  0  0  0  0  0  0  0  0  0  0  0
   58.6150   33.2700   46.1100 C   0  0  0  0  0  0  0  0  0  0  0  0
   58.9280   34.4630   45.4370 C   0  0  0  0  0  0  0  0  0  0  0  0
   59.6870   35.3440   46.1950 C   0  0  0  0  0  0  0  0  0  0  0  0
   59.9660   34.6390   47.6940 S   0  0  0  0  0  0  0  0  0  0  0  0
   59.1300   33.2110   47.4010 C   0  0  0  0  0  0  0  0  0  0  0  0
   56.6630   32.3430   44.9280 O   0  0  0  0  0  0  0  0  0  0  0  0
   56.1850   31.2090   44.5030 N   0  0  0  0  0  0  0  0  0  0  0  0
   58.1610   28.7640   42.7710 H   0  0  0  0  0  0  0  0  0  0  0  0
   57.3920   27.2060   43.2070 H   0  0  0  0  0  0  0  0  0  0  0  0
   59.0410   30.3420   45.9034 H   0  0  0  0  0  0  0  0  0  0  0  0
   58.6029   34.6781   44.4084 H   0  0  0  0  0  0  0  0  0  0  0  0
   60.0439   36.3325   45.8703 H   0  0  0  0  0  0  0  0  0  0  0  0
   59.0108   32.3756   48.1066 H   0  0  0  0  0  0  0  0  0  0  0  0
  1  2  1  0
  2  3  2  0
  2  4  1  0
  4  5  1  0
  5  6  2  0
  6  7  1  0
  7  8  1  0
  8  9  2  0
  9 10  1  0
 10 11  1  0
  6 12  1  0
 12 13  1  0
 13  4  2  0
 11  7  2  0
  1 14  1  0
  1 15  1  0
  5 16  1  0
  8 17  1  0
  9 18  1  0
 11 19  1  0
M  END
>  <UniqueID>  (7) 
7

>  <SMILES>  (7) 
NC(=O)c1cc(-c2ccsc2)on1

>  <Energy>  (7) 
73.30132020044806

>  <Genealogy>  (7) 
NC(=O)c1cc(-c2ccsc2)on1 (3D coordinates assigned)
NC(=O)c1cc(-c2ccsc2)on1 (optimized conformer: 73.30132020044806 kcal/mol)

>  <smiles>  (7) 
NC(=O)c1cc(-c2ccsc2)on1

>  <score_type>  (7) 
oracle

>  <origin>  (7) 
adg

>  <m_score__min__energy>  (7) 
-6.3600000000000003

>  <m_primary>  (7) 
energy

$$$$
7:0
     RDKit          3D

 45 47  0  0  0  0  0  0  0  0999 V2000
   59.5970   34.9900   45.8360 C   0  0  0  0  0  0  0  0  0  0  0  0
   58.8570   34.6450   47.1280 C   0  0  0  0  0  0  0  0  0  0  0  0
   57.8820   33.4730   46.9550 C   0  0  0  0  0  0  0  0  0  0  0  0
   58.5870   32.2180   46.6800 N   0  0  0  0  0  0  0  0  0  0  0  0
   59.0810   31.3780   47.6050 C   0  0  0  0  0  0  0  0  0  0  0  0
   59.6530   30.3090   46.9550 C   0  0  0  0  0  0  0  0  0  0  0  0
   59.5240   30.4690   45.6230 N   0  0  0  0  0  0  0  0  0  0  0  0
   58.8820   31.6510   45.4860 C   0  0  0  0  0  0  0  0  0  0  0  0
   58.4860   32.2050   44.1400 C   0  0  0  0  0  0  0  0  0  0  0  0
   57.2960   31.4470   43.5380 C   0  0  0  0  0  0  0  0  0  0  0  0
   56.4280   30.9170   44.5860 N   0  0  0  0  0  0  0  0  0  0  0  0
   56.2950   29.5230   44.8740 C   0  0  0  0  0  0  0  0  0  0  0  0
   55.1660   28.9660   44.7900 O   0  0  0  0  0  0  0  0  0  0  0  0
   57.4660   28.7620   45.1990 N   0  0  0  0  0  0  0  0  0  0  0  0
   57.4570   27.3520   45.4810 C   0  0  0  0  0  0  0  0  0  0  0  0
   57.4260   26.9210   46.8160 C   0  0  0  0  0  0  0  0  0  0  0  0
   57.4090   25.5590   47.1240 C   0  0  0  0  0  0  0  0  0  0  0  0
   57.4070   24.6040   46.0980 C   0  0  0  0  0  0  0  0  0  0  0  0
   57.3890   23.2330   46.3950 C   0  0  0  0  0  0  0  0  0  0  0  0
   57.3770   22.2910   45.3630 C   0  0  0  0  0  0  0  0  0  0  0  0
   57.3800   22.7090   44.0290 C   0  0  0  0  0  0  0  0  0  0  0  0
   57.3960   24.0720   43.7190 C   0  0  0  0  0  0  0  0  0  0  0  0
   57.4130   25.0280   44.7460 C   0  0  0  0  0  0  0  0  0  0  0  0
   57.4310   26.3990   44.4480 C   0  0  0  0  0  0  0  0  0  0  0  0
   60.5691   35.4432   46.0801 H   0  0  0  0  0  0  0  0  0  0  0  0
   59.7567   34.0735   45.2490 H   0  0  0  0  0  0  0  0  0  0  0  0
   58.9977   35.7016   45.2490 H   0  0  0  0  0  0  0  0  0  0  0  0
   59.5967   34.3773   47.8969 H   0  0  0  0  0  0  0  0  0  0  0  0
   58.2687   35.5272   47.4205 H   0  0  0  0  0  0  0  0  0  0  0  0
   57.2957   33.3576   47.8786 H   0  0  0  0  0  0  0  0  0  0  0  0
   57.2283   33.6941   46.0984 H   0  0  0  0  0  0  0  0  0  0  0  0
   59.0358   31.5206   48.6948 H   0  0  0  0  0  0  0  0  0  0  0  0
   60.1409   29.4546   47.4470 H   0  0  0  0  0  0  0  0  0  0  0  0
   58.2107   33.2635   44.2579 H   0  0  0  0  0  0  0  0  0  0  0  0
   59.3424   32.0919   43.4590 H   0  0  0  0  0  0  0  0  0  0  0  0
   56.7160   32.1335   42.9037 H   0  0  0  0  0  0  0  0  0  0  0  0
   57.6814   30.6054   42.9436 H   0  0  0  0  0  0  0  0  0  0  0  0
   58.3910   29.2300   45.0660 H   0  0  0  0  0  0  0  0  0  0  0  0
   57.4150   27.6632   47.6278 H   0  0  0  0  0  0  0  0  0  0  0  0
   57.3971   25.2346   48.1750 H   0  0  0  0  0  0  0  0  0  0  0  0
   57.3843   22.8987   47.4430 H   0  0  0  0  0  0  0  0  0  0  0  0
   57.3652   21.2171   45.6010 H   0  0  0  0  0  0  0  0  0  0  0  0
   57.3697   21.9630   43.2207 H   0  0  0  0  0  0  0  0  0  0  0  0
   57.3953   24.3958   42.6677 H   0  0  0  0  0  0  0  0  0  0  0  0
   57.4247   26.7303   43.3991 H   0  0  0  0  0  0  0  0  0  0  0  0
  1  2  1  0
  2  3  1  0
  3  4  1  0
  4  5  1  0
  5  6  2  0
  6  7  1  0
  7  8  2  0
  8  9  1  0
  9 10  1  0
 10 11  1  0
 11 12  1  0
 12 13  2  0
 12 14  1  0
 14 15  1  0
 15 16  2  0
 16 17  1  0
 17 18  2  0
 18 19  1  0
 19 20  2  0
 20 21  1  0
 21 22  2  0
 22 23  1  0
 23 24  2  0
  8  4  1  0
 24 15  1  0
 23 18  1  0
  1 25  1  0
  1 26  1  0
  1 27  1  0
  2 28  1  0
  2 29  1  0
  3 30  1  0
  3 31  1  0
  5 32  1  0
  6 33  1  0
  9 34  1  0
  9 35  1  0
 10 36  1  0
 10 37  1  0
 14 38  1  0
 16 39  1  0
 17 40  1  0
 19 41  1  0
 20 42  1  0
 21 43  1  0
 22 44  1  0
 24 45  1  0
M  CHG  1  11  -1
M  END
>  <UniqueID>  (8) 
8

>  <SMILES>  (8) 
CCCn1ccnc1CC[N-]C(=O)Nc1ccc2ccccc2c1

>  <Energy>  (8) 
71.31466491270812

>  <Genealogy>  (8) 
CCCn1ccnc1CC[N-]C(=O)Nc1ccc2ccccc2c1 (protonated)
CCCn1ccnc1CC[N-]C(=O)Nc1ccc2ccccc2c1 (3D coordinates assigned)
CCCn1ccnc1CC[N-]C(=O)Nc1ccc2ccccc2c1 (optimized conformer: 71.31466491270812 kcal/mol)

>  <smiles>  (8) 
CCCn1ccnc1CCNC(=O)Nc1ccc2ccccc2c1

>  <score_type>  (8) 
oracle

>  <origin>  (8) 
adg

>  <m_score__min__energy>  (8) 
-9.3499999999999996

>  <m_primary>  (8) 
energy

$$$$
8:0
     RDKit          3D

 29 30  0  0  0  0  0  0  0  0999 V2000
   60.4120   33.7470   47.0810 C   0  0  0  0  0  0  0  0  0  0  0  0
   59.4520   32.8530   46.3540 C   0  0  0  0  0  0  0  0  0  0  0  0
   58.3910   33.3770   45.6220 C   0  0  0  0  0  0  0  0  0  0  0  0
   57.4960   32.5610   44.9450 C   0  0  0  0  0  0  0  0  0  0  0  0
   57.6740   31.1930   45.0060 C   0  0  0  0  0  0  0  0  0  0  0  0
   56.5960   30.0730   44.1840 S   0  0  0  0  0  0  0  0  0  0  0  0
   56.8130   30.1280   42.6990 O   0  0  0  0  0  0  0  0  0  0  0  0
   55.1590   30.4340   44.4360 O   0  0  0  0  0  0  0  0  0  0  0  0
   56.9450   28.5100   44.8290 N   0  0  0  0  0  0  0  0  0  0  0  0
   58.0420   27.7480   44.6750 C   0  0  0  0  0  0  0  0  0  0  0  0
   57.8630   26.6090   45.3640 N   0  0  0  0  0  0  0  0  0  0  0  0
   56.6620   26.6670   45.9400 C   0  0  0  0  0  0  0  0  0  0  0  0
   56.1620   25.7250   46.6850 N   0  0  0  0  0  0  0  0  0  0  0  0
   56.0940   27.8530   45.6030 N   0  0  0  0  0  0  0  0  0  0  0  0
   58.7160   30.6450   45.7240 C   0  0  0  0  0  0  0  0  0  0  0  0
   59.5980   31.4800   46.3920 C   0  0  0  0  0  0  0  0  0  0  0  0
   60.7060   30.8620   47.1530 C   0  0  0  0  0  0  0  0  0  0  0  0
   60.2788   33.6230   48.1658 H   0  0  0  0  0  0  0  0  0  0  0  0
   61.4427   33.4796   46.8052 H   0  0  0  0  0  0  0  0  0  0  0  0
   60.2186   34.7941   46.8052 H   0  0  0  0  0  0  0  0  0  0  0  0
   58.2581   34.4681   45.5789 H   0  0  0  0  0  0  0  0  0  0  0  0
   56.6629   32.9944   44.3722 H   0  0  0  0  0  0  0  0  0  0  0  0
   58.9328   28.0120   44.0861 H   0  0  0  0  0  0  0  0  0  0  0  0
   56.6230   24.7830   46.6280 H   0  0  0  0  0  0  0  0  0  0  0  0
   55.1440   28.1560   45.9230 H   0  0  0  0  0  0  0  0  0  0  0  0
   58.8463   29.5536   45.7663 H   0  0  0  0  0  0  0  0  0  0  0  0
   60.5147   30.9687   48.2310 H   0  0  0  0  0  0  0  0  0  0  0  0
   60.7761   29.7945   46.8969 H   0  0  0  0  0  0  0  0  0  0  0  0
   61.6511   31.3633   46.8969 H   0  0  0  0  0  0  0  0  0  0  0  0
  1  2  1  0
  2  3  2  0
  3  4  1  0
  4  5  2  0
  5  6  1  0
  6  7  2  0
  6  8  2  0
  6  9  1  0
  9 10  1  0
 10 11  2  0
 11 12  1  0
 12 13  2  3
 12 14  1  0
  5 15  1  0
 15 16  2  0
 16 17  1  0
 16  2  1  0
 14  9  1  0
  1 18  1  0
  1 19  1  0
  1 20  1  0
  3 21  1  0
  4 22  1  0
 10 23  1  0
 13 24  1  0
 14 25  1  0
 15 26  1  0
 17 27  1  0
 17 28  1  0
 17 29  1  0
M  END
>  <smiles>  (9) 
Cc1ccc(S(=O)(=O)n2cnc(=N)[nH]2)cc1C

>  <score_type>  (9) 
oracle

>  <origin>  (9) 
adg

>  <m_score__min__energy>  (9) 
-7.54

>  <m_primary>  (9) 
energy

$$$$
9:0
     RDKit          3D

 76 78  0  0  0  0  0  0  0  0999 V2000
   57.0070   20.0600   43.2950 H   0  0  0  0  0  0  0  0  0  0  0  0
   56.3020   20.7120   43.0440 O   0  0  0  0  0  0  0  0  0  0  0  0
   56.8250   21.9900   43.2940 C   0  0  1  0  0  0  0  0  0  0  0  0
   57.2757   22.3851   42.3716 H   0  0  0  0  0  0  0  0  0  0  0  0
   55.6980   22.9170   43.7520 C   0  0  0  0  0  0  0  0  0  0  0  0
   54.9415   22.9881   42.9566 H   0  0  0  0  0  0  0  0  0  0  0  0
   55.2472   22.5053   44.6670 H   0  0  0  0  0  0  0  0  0  0  0  0
   56.2350   24.2880   44.0480 C   0  0  0  0  0  0  0  0  0  0  0  0
   55.6227   25.1673   43.7991 H   0  0  0  0  0  0  0  0  0  0  0  0
   57.4460   24.4710   44.6100 C   0  0  0  0  0  0  0  0  0  0  0  0
   57.9480   25.8480   44.8530 C   0  0  0  0  0  0  0  0  0  0  0  0
   58.0341   26.5358   43.9989 H   0  0  0  0  0  0  0  0  0  0  0  0
   58.3000   26.2870   46.0680 C   0  0  0  0  0  0  0  0  0  0  0  0
   58.9050   25.6374   46.7176 H   0  0  0  0  0  0  0  0  0  0  0  0
   57.8890   27.6480   46.5690 C   0  0  0  0  0  0  0  0  0  0  0  0
   56.7955   27.6597   46.6878 H   0  0  0  0  0  0  0  0  0  0  0  0
   58.4139   27.8143   47.5213 H   0  0  0  0  0  0  0  0  0  0  0  0
   58.2940   28.8110   45.6130 C   0  0  0  0  0  0  0  0  0  0  0  0
   57.2160   29.0250   44.5250 C   0  0  0  0  0  0  0  0  0  0  0  0
   56.2448   29.2178   45.0041 H   0  0  0  0  0  0  0  0  0  0  0  0
   57.4931   29.8857   43.8985 H   0  0  0  0  0  0  0  0  0  0  0  0
   57.1434   28.1237   43.8985 H   0  0  0  0  0  0  0  0  0  0  0  0
   59.6300   28.4560   44.9140 C   0  0  0  0  0  0  0  0  0  0  0  0
   60.3985   28.2518   45.6740 H   0  0  0  0  0  0  0  0  0  0  0  0
   59.4894   27.5640   44.2858 H   0  0  0  0  0  0  0  0  0  0  0  0
   59.9507   29.3001   44.2858 H   0  0  0  0  0  0  0  0  0  0  0  0
   58.5190   30.1320   46.4210 C   0  0  0  0  0  0  0  0  0  0  0  0
   57.5630   30.6749   46.4569 H   0  0  0  0  0  0  0  0  0  0  0  0
   58.8894   29.8231   47.4096 H   0  0  0  0  0  0  0  0  0  0  0  0
   59.5980   31.0960   45.8400 C   0  0  0  0  0  0  0  0  0  0  0  0
   60.4778   30.4874   45.5838 H   0  0  0  0  0  0  0  0  0  0  0  0
   59.1001   31.5908   44.9931 H   0  0  0  0  0  0  0  0  0  0  0  0
   60.0950   32.2790   46.7540 C   0  0  1  0  0  0  0  0  0  0  0  0
   60.6654   32.8909   46.0397 H   0  0  0  0  0  0  0  0  0  0  0  0
   58.9830   33.2030   47.2690 C   0  0  0  0  0  0  0  0  0  0  0  0
   57.5970   33.2780   46.6670 C   0  0  0  0  0  0  0  0  0  0  0  0
   56.8491   33.3185   47.4726 H   0  0  0  0  0  0  0  0  0  0  0  0
   57.5157   34.1819   46.0454 H   0  0  0  0  0  0  0  0  0  0  0  0
   57.4186   32.3882   46.0454 H   0  0  0  0  0  0  0  0  0  0  0  0
   59.3070   34.1650   48.1410 C   0  0  0  0  0  0  0  0  0  0  0  0
   58.5183   34.8063   48.5613 H   0  0  0  0  0  0  0  0  0  0  0  0
   60.7250   34.3770   48.5490 C   0  0  0  0  0  0  0  0  0  0  0  0
   61.2872   34.7914   47.6992 H   0  0  0  0  0  0  0  0  0  0  0  0
   60.7480   35.0753   49.3986 H   0  0  0  0  0  0  0  0  0  0  0  0
   61.3730   33.0440   48.9840 C   0  0  2  0  0  0  0  0  0  0  0  0
   60.8282   32.6645   49.8610 H   0  0  0  0  0  0  0  0  0  0  0  0
   62.8640   33.2510   49.4980 C   0  0  0  0  0  0  0  0  0  0  0  0
   62.9700   34.4740   50.4530 C   0  0  0  0  0  0  0  0  0  0  0  0
   62.9400   34.1279   51.4967 H   0  0  0  0  0  0  0  0  0  0  0  0
   63.9173   35.0020   50.2689 H   0  0  0  0  0  0  0  0  0  0  0  0
   62.1277   35.1571   50.2689 H   0  0  0  0  0  0  0  0  0  0  0  0
   63.3220   32.0370   50.3510 C   0  0  0  0  0  0  0  0  0  0  0  0
   63.2291   32.2834   51.4190 H   0  0  0  0  0  0  0  0  0  0  0  0
   62.6904   31.1668   50.1191 H   0  0  0  0  0  0  0  0  0  0  0  0
   64.3710   31.8008   50.1191 H   0  0  0  0  0  0  0  0  0  0  0  0
   63.8590   33.4700   48.3130 C   0  0  0  0  0  0  0  0  0  0  0  0
   63.9998   34.5529   48.1807 H   0  0  0  0  0  0  0  0  0  0  0  0
   64.7841   32.9406   48.5851 H   0  0  0  0  0  0  0  0  0  0  0  0
   63.4050   32.8810   46.9710 C   0  0  0  0  0  0  0  0  0  0  0  0
   62.8119   33.6377   46.4365 H   0  0  0  0  0  0  0  0  0  0  0  0
   64.3071   32.6009   46.4074 H   0  0  0  0  0  0  0  0  0  0  0  0
   62.5560   31.6240   47.1400 C   0  0  0  0  0  0  0  0  0  0  0  0
   62.3443   31.2067   46.1445 H   0  0  0  0  0  0  0  0  0  0  0  0
   63.1266   30.9213   47.7649 H   0  0  0  0  0  0  0  0  0  0  0  0
   61.1930   31.9020   47.8670 C   0  0  2  0  0  0  0  0  0  0  0  0
   60.7650   30.6040   48.5950 C   0  0  0  0  0  0  0  0  0  0  0  0
   60.8163   30.7597   49.6827 H   0  0  0  0  0  0  0  0  0  0  0  0
   59.7343   30.3464   48.3097 H   0  0  0  0  0  0  0  0  0  0  0  0
   61.4403   29.7839   48.3097 H   0  0  0  0  0  0  0  0  0  0  0  0
   58.3250   23.2850   44.8680 C   0  0  0  0  0  0  0  0  0  0  0  0
   59.4310   23.3810   45.6170 C   0  0  0  0  0  0  0  0  0  0  0  0
   59.7620   24.3631   45.9857 H   0  0  0  0  0  0  0  0  0  0  0  0
   60.0084   22.4778   45.8635 H   0  0  0  0  0  0  0  0  0  0  0  0
   57.9080   21.9120   44.3830 C   0  0  0  0  0  0  0  0  0  0  0  0
   58.7891   21.3980   43.9714 H   0  0  0  0  0  0  0  0  0  0  0  0
   57.4901   21.3618   45.2389 H   0  0  0  0  0  0  0  0  0  0  0  0
  1  2  1  0
  2  3  1  0
  3  4  1  6
  3  5  1  0
  5  6  1  0
  5  7  1  0
  5  8  1  0
  8  9  1  0
  8 10  2  0
 10 11  1  0
 11 12  1  0
 11 13  2  0
 13 14  1  0
 13 15  1  0
 15 16  1  0
 15 17  1  0
 15 18  1  0
 18 19  1  0
 19 20  1  0
 19 21  1  0
 19 22  1  0
 18 23  1  0
 23 24  1  0
 23 25  1  0
 23 26  1  0
 18 27  1  0
 27 28  1  0
 27 29  1  0
 27 30  1  0
 30 31  1  0
 30 32  1  0
 30 33  1  0
 33 34  1  6
 33 35  1  0
 35 36  1  0
 36 37  1  0
 36 38  1  0
 36 39  1  0
 35 40  2  0
 40 41  1  0
 40 42  1  0
 42 43  1  0
 42 44  1  0
 42 45  1  0
 45 46  1  1
 45 47  1  0
 47 48  1  0
 48 49  1  0
 48 50  1  0
 48 51  1  0
 47 52  1  0
 52 53  1  0
 52 54  1  0
 52 55  1  0
 47 56  1  0
 56 57  1  0
 56 58  1  0
 56 59  1  0
 59 60  1  0
 59 61  1  0
 59 62  1  0
 62 63  1  0
 62 64  1  0
 62 65  1  0
 65 66  1  1
 66 67  1  0
 66 68  1  0
 66 69  1  0
 10 70  1  0
 70 71  2  0
 71 72  1  0
 71 73  1  0
 70 74  1  0
 74 75  1  0
 74 76  1  0
 74  3  1  0
 65 33  1  0
 65 45  1  0
M  END
>  <UniqueID>  (10) 
9

>  <SMILES>  (10) 
C=C1C[C@@H](O)CC=C1/C=C/CC(C)(C)CC[C@H]1C(C)=CCC2C(C)(C)CCCC21C

>  <Energy>  (10) 
104.63524042907476

>  <Genealogy>  (10) 
C=C1C[C@@H](O)CC=C1C=CCC(C)(C)CC[C@H]1C(C)=CCC2C(C)(C)CCCC21C (chirality)
C=C1C[C@@H](O)CC=C1/C=C/CC(C)(C)CC[C@H]1C(C)=CCC2C(C)(C)CCCC21C (cis-trans isomerization)
C=C1C[C@@H](O)CC=C1/C=C/CC(C)(C)CC[C@H]1C(C)=CCC2C(C)(C)CCCC21C (3D coordinates assigned)
C=C1C[C@@H](O)CC=C1/C=C/CC(C)(C)CC[C@H]1C(C)=CCC2C(C)(C)CCCC21C (nonaromatic ring conformer: 104.63524042907476 kcal/mol)

>  <smiles>  (10) 
C=C1CC(O)CC=C1C=CCC(C)(C)CCC1C(C)=CCC2C(C)(C)CCCC12C

>  <score_type>  (10) 
oracle

>  <origin>  (10) 
adg

>  <m_score__min__energy>  (10) 
-10.800000000000001

>  <m_primary>  (10) 
energy

$$$$
10:0
     RDKit          3D

 64 67  0  0  0  0  0  0  0  0999 V2000
   62.1280   30.4770   49.4520 F   0  0  0  0  0  0  0  0  0  0  0  0
   62.8050   31.2570   50.3760 C   0  0  0  0  0  0  0  0  0  0  0  0
   63.5830   30.4260   51.1690 F   0  0  0  0  0  0  0  0  0  0  0  0
   61.8780   31.8860   51.1870 F   0  0  0  0  0  0  0  0  0  0  0  0
   63.6990   32.3080   49.6780 C   0  0  0  0  0  0  0  0  0  0  0  0
   64.8730   31.6730   49.2980 F   0  0  0  0  0  0  0  0  0  0  0  0
   63.0220   32.8420   48.4340 C   0  0  0  0  0  0  0  0  0  0  0  0
   61.7350   33.3320   48.3370 C   0  0  0  0  0  0  0  0  0  0  0  0
   61.5710   33.7280   47.0610 N   0  0  0  0  0  0  0  0  0  0  0  0
   60.4070   34.4100   46.5020 C   0  0  0  0  0  0  0  0  0  0  0  0
   59.1390   33.5440   46.6510 C   0  0  1  0  0  0  0  0  0  0  0  0
   57.9270   34.1990   45.9390 C   0  0  0  0  0  0  0  0  0  0  0  0
   57.7380   33.6510   44.5190 C   0  0  0  0  0  0  0  0  0  0  0  0
   57.5560   32.1170   44.5230 C   0  0  0  0  0  0  0  0  0  0  0  0
   58.1010   31.4870   45.7480 N   0  0  0  0  0  0  0  0  0  0  0  0
   58.1110   30.0020   45.6720 C   0  0  0  0  0  0  0  0  0  0  0  0
   58.5210   29.3810   47.0340 C   0  0  0  0  0  0  0  0  0  0  0  0
   59.8500   28.6060   46.9730 C   0  0  0  0  0  0  0  0  0  0  0  0
   59.8820   27.5960   45.8880 N   0  0  0  0  0  0  0  0  0  0  0  0
   59.7430   26.1920   46.3370 C   0  0  0  0  0  0  0  0  0  0  0  0
   58.3920   25.5790   46.0240 C   0  0  0  0  0  0  0  0  0  0  0  0
   57.2090   26.1510   46.5250 C   0  0  0  0  0  0  0  0  0  0  0  0
   55.9660   25.5850   46.2200 C   0  0  0  0  0  0  0  0  0  0  0  0
   55.8930   24.4370   45.4270 C   0  0  0  0  0  0  0  0  0  0  0  0
   54.3310   23.7360   45.0400 Cl  0  0  0  0  0  0  0  0  0  0  0  0
   57.0650   23.8450   44.9500 C   0  0  0  0  0  0  0  0  0  0  0  0
   58.3080   24.4080   45.2510 C   0  0  0  0  0  0  0  0  0  0  0  0
   59.1010   27.9210   44.6710 C   0  0  0  0  0  0  0  0  0  0  0  0
   58.9390   29.4320   44.4920 C   0  0  0  0  0  0  0  0  0  0  0  0
   59.3820   32.1010   46.1440 C   0  0  0  0  0  0  0  0  0  0  0  0
   62.6970   33.5040   46.4010 N   0  0  0  0  0  0  0  0  0  0  0  0
   63.5870   32.9580   47.2140 N   0  0  0  0  0  0  0  0  0  0  0  0
   64.0840   33.4710   50.6200 C   0  0  0  0  0  0  0  0  0  0  0  0
   63.9680   33.0750   51.9400 F   0  0  0  0  0  0  0  0  0  0  0  0
   63.2700   34.5770   50.4180 F   0  0  0  0  0  0  0  0  0  0  0  0
   65.4010   33.8410   50.3890 F   0  0  0  0  0  0  0  0  0  0  0  0
   60.9897   33.3879   49.1441 H   0  0  0  0  0  0  0  0  0  0  0  0
   60.2577   35.3619   47.0327 H   0  0  0  0  0  0  0  0  0  0  0  0
   60.5856   34.5914   45.4319 H   0  0  0  0  0  0  0  0  0  0  0  0
   58.8996   33.4810   47.7228 H   0  0  0  0  0  0  0  0  0  0  0  0
   57.0177   33.9953   46.5235 H   0  0  0  0  0  0  0  0  0  0  0  0
   58.1157   35.2803   45.8665 H   0  0  0  0  0  0  0  0  0  0  0  0
   56.8464   34.1154   44.0725 H   0  0  0  0  0  0  0  0  0  0  0  0
   58.6387   33.8899   43.9345 H   0  0  0  0  0  0  0  0  0  0  0  0
   56.4821   31.8885   44.4560 H   0  0  0  0  0  0  0  0  0  0  0  0
   58.1087   31.7114   43.6628 H   0  0  0  0  0  0  0  0  0  0  0  0
   57.0761   29.7002   45.4531 H   0  0  0  0  0  0  0  0  0  0  0  0
   58.6225   30.1913   47.7710 H   0  0  0  0  0  0  0  0  0  0  0  0
   57.7367   28.6625   47.3144 H   0  0  0  0  0  0  0  0  0  0  0  0
   60.6671   29.3237   46.8081 H   0  0  0  0  0  0  0  0  0  0  0  0
   59.9618   28.0687   47.9263 H   0  0  0  0  0  0  0  0  0  0  0  0
   60.5195   25.5911   45.8411 H   0  0  0  0  0  0  0  0  0  0  0  0
   59.8470   26.1946   47.4321 H   0  0  0  0  0  0  0  0  0  0  0  0
   57.2610   27.0478   47.1598 H   0  0  0  0  0  0  0  0  0  0  0  0
   55.0442   26.0451   46.6055 H   0  0  0  0  0  0  0  0  0  0  0  0
   57.0092   22.9338   44.3362 H   0  0  0  0  0  0  0  0  0  0  0  0
   59.2275   23.9313   44.8803 H   0  0  0  0  0  0  0  0  0  0  0  0
   59.6216   27.5114   43.7929 H   0  0  0  0  0  0  0  0  0  0  0  0
   58.0997   27.4779   44.7764 H   0  0  0  0  0  0  0  0  0  0  0  0
   59.9304   29.9083   44.4749 H   0  0  0  0  0  0  0  0  0  0  0  0
   58.4194   29.6371   43.5444 H   0  0  0  0  0  0  0  0  0  0  0  0
   59.8399   31.5044   46.9467 H   0  0  0  0  0  0  0  0  0  0  0  0
   60.0543   32.1307   45.2738 H   0  0  0  0  0  0  0  0  0  0  0  0
   64.5550   32.6930   46.9340 H   0  0  0  0  0  0  0  0  0  0  0  0
  1  2  1  0
  2  3  1  0
  2  4  1  0
  2  5  1  0
  5  6  1  0
  5  7  1  0
  7  8  2  0
  8  9  1  0
  9 10  1  0
 10 11  1  0
 11 12  1  0
 12 13  1  0
 13 14  1  0
 14 15  1  0
 15 16  1  0
 16 17  1  0
 17 18  1  0
 18 19  1  0
 19 20  1  0
 20 21  1  0
 21 22  2  0
 22 23  1  0
 23 24  2  0
 24 25  1  0
 24 26  1  0
 26 27  2  0
 19 28  1  0
 28 29  1  0
 15 30  1  0
  9 31  1  0
 31 32  2  0
  5 33  1  0
 33 34  1  0
 33 35  1  0
 33 36  1  0
 32  7  1  0
 30 11  1  0
 29 16  1  0
 27 21  1  0
  8 37  1  0
 10 38  1  0
 10 39  1  0
 11 40  1  1
 12 41  1  0
 12 42  1  0
 13 43  1  0
 13 44  1  0
 14 45  1  0
 14 46  1  0
 16 47  1  0
 17 48  1  0
 17 49  1  0
 18 50  1  0
 18 51  1  0
 20 52  1  0
 20 53  1  0
 22 54  1  0
 23 55  1  0
 26 56  1  0
 27 57  1  0
 28 58  1  0
 28 59  1  0
 29 60  1  0
 29 61  1  0
 30 62  1  0
 30 63  1  0
 32 64  1  0
M  CHG  1  32   1
M  END
>  <UniqueID>  (11) 
10

>  <SMILES>  (11) 
FC(F)(F)C(F)(c1cn(C[C@H]2CCCN(C3CCN(Cc4ccc(Cl)cc4)CC3)C2)n[nH+]1)C(F)(F)F

>  <Energy>  (11) 
118.91572483875831

>  <Genealogy>  (11) 
FC(F)(F)C(F)(c1cn(CC2CCCN(C3CCN(Cc4ccc(Cl)cc4)CC3)C2)n[nH+]1)C(F)(F)F (protonated)
FC(F)(F)C(F)(c1cn(C[C@H]2CCCN(C3CCN(Cc4ccc(Cl)cc4)CC3)C2)n[nH+]1)C(F)(F)F (chirality)
FC(F)(F)C(F)(c1cn(C[C@H]2CCCN(C3CCN(Cc4ccc(Cl)cc4)CC3)C2)n[nH+]1)C(F)(F)F (3D coordinates assigned)
FC(F)(F)C(F)(c1cn(C[C@H]2CCCN(C3CCN(Cc4ccc(Cl)cc4)CC3)C2)n[nH+]1)C(F)(F)F (nonaromatic ring conformer: 118.91572483875831 kcal/mol)

>  <smiles>  (11) 
FC(F)(F)C(F)(c1cn(CC2CCCN(C3CCN(Cc4ccc(Cl)cc4)CC3)C2)nn1)C(F)(F)F

>  <score_type>  (11) 
oracle

>  <origin>  (11) 
adg

>  <m_score__min__energy>  (11) 
-7.9000000000000004

>  <m_primary>  (11) 
energy

$$$$
11:0
     RDKit          3D

 49 51  0  0  0  0  0  0  0  0999 V2000
   60.2324   35.9088   46.2392 H   0  0  0  0  0  0  0  0  0  0  0  0
   59.5440   35.0740   46.0410 C   0  0  0  0  0  0  0  0  0  0  0  0
   59.4000   34.5810   44.7410 C   0  0  0  0  0  0  0  0  0  0  0  0
   59.9809   35.0225   43.9178 H   0  0  0  0  0  0  0  0  0  0  0  0
   58.5170   33.5260   44.4870 C   0  0  0  0  0  0  0  0  0  0  0  0
   58.4206   33.1265   43.4667 H   0  0  0  0  0  0  0  0  0  0  0  0
   57.7550   32.9760   45.5260 C   0  0  0  0  0  0  0  0  0  0  0  0
   56.8990   31.8570   45.2480 N   0  0  0  0  0  0  0  0  0  0  0  0
   57.2290   30.7010   44.7330 C   0  0  0  0  0  0  0  0  0  0  0  0
   56.6050   30.2010   43.5810 C   0  0  0  0  0  0  0  0  0  0  0  0
   55.8115   30.7846   43.0913 H   0  0  0  0  0  0  0  0  0  0  0  0
   56.9840   28.9720   43.0550 C   0  0  0  0  0  0  0  0  0  0  0  0
   56.4768   28.5930   42.1555 H   0  0  0  0  0  0  0  0  0  0  0  0
   57.9730   28.2230   43.6300 N   0  0  0  0  0  0  0  0  0  0  0  0
   58.3150   26.9450   42.9680 C   0  0  0  0  0  0  0  0  0  0  0  0
   59.3962   26.7677   43.0663 H   0  0  0  0  0  0  0  0  0  0  0  0
   58.0288   27.0134   41.9081 H   0  0  0  0  0  0  0  0  0  0  0  0
   57.5550   25.7720   43.6030 C   0  0  0  0  0  0  0  0  0  0  0  0
   57.7853   24.8498   43.0494 H   0  0  0  0  0  0  0  0  0  0  0  0
   56.4763   25.9826   43.5589 H   0  0  0  0  0  0  0  0  0  0  0  0
   57.9510   25.6010   45.0200 N   0  0  0  0  0  0  0  0  0  0  0  0
   58.3090   24.1990   45.3280 C   0  0  0  0  0  0  0  0  0  0  0  0
   57.8869   23.9295   46.3074 H   0  0  0  0  0  0  0  0  0  0  0  0
   59.4059   24.1177   45.3378 H   0  0  0  0  0  0  0  0  0  0  0  0
   57.7670   23.2360   44.2720 C   0  0  0  0  0  0  0  0  0  0  0  0
   57.2856   22.3806   44.7685 H   0  0  0  0  0  0  0  0  0  0  0  0
   57.0300   23.7577   43.6438 H   0  0  0  0  0  0  0  0  0  0  0  0
   58.5954   22.8767   43.6438 H   0  0  0  0  0  0  0  0  0  0  0  0
   56.9680   26.1990   45.9580 C   0  0  0  0  0  0  0  0  0  0  0  0
   57.3854   26.1477   46.9745 H   0  0  0  0  0  0  0  0  0  0  0  0
   56.7958   27.2316   45.6204 H   0  0  0  0  0  0  0  0  0  0  0  0
   55.6010   25.5020   45.9630 C   0  0  0  0  0  0  0  0  0  0  0  0
   55.2774   25.3370   47.0013 H   0  0  0  0  0  0  0  0  0  0  0  0
   54.8649   26.1348   45.4457 H   0  0  0  0  0  0  0  0  0  0  0  0
   55.6808   24.5345   45.4457 H   0  0  0  0  0  0  0  0  0  0  0  0
   58.6410   28.6930   44.7470 C   0  0  0  0  0  0  0  0  0  0  0  0
   59.6940   27.9640   45.3540 C   0  0  0  0  0  0  0  0  0  0  0  0
   59.9958   26.9945   44.9309 H   0  0  0  0  0  0  0  0  0  0  0  0
   60.3530   28.4570   46.4790 C   0  0  0  0  0  0  0  0  0  0  0  0
   61.1672   27.8743   46.9344 H   0  0  0  0  0  0  0  0  0  0  0  0
   59.9880   29.6800   47.0290 C   0  0  0  0  0  0  0  0  0  0  0  0
   60.5126   30.0613   47.9175 H   0  0  0  0  0  0  0  0  0  0  0  0
   58.9580   30.4240   46.4560 C   0  0  0  0  0  0  0  0  0  0  0  0
   58.6745   31.3909   46.8972 H   0  0  0  0  0  0  0  0  0  0  0  0
   58.2740   29.9490   45.3140 C   0  0  0  0  0  0  0  0  0  0  0  0
   57.9300   33.4530   46.8360 C   0  0  0  0  0  0  0  0  0  0  0  0
   57.3700   32.9961   47.6652 H   0  0  0  0  0  0  0  0  0  0  0  0
   58.8140   34.5070   47.0890 C   0  0  0  0  0  0  0  0  0  0  0  0
   58.9346   34.8897   48.1132 H   0  0  0  0  0  0  0  0  0  0  0  0
  1  2  1  0
  2  3  2  0
  3  4  1  0
  3  5  1  0
  5  6  1  0
  5  7  2  0
  7  8  1  0
  8  9  2  0
  9 10  1  0
 10 11  1  0
 10 12  2  0
 12 13  1  0
 12 14  1  0
 14 15  1  0
 15 16  1  0
 15 17  1  0
 15 18  1  0
 18 19  1  0
 18 20  1  0
 18 21  1  0
 21 22  1  0
 22 23  1  0
 22 24  1  0
 22 25  1  0
 25 26  1  0
 25 27  1  0
 25 28  1  0
 21 29  1  0
 29 30  1  0
 29 31  1  0
 29 32  1  0
 32 33  1  0
 32 34  1  0
 32 35  1  0
 14 36  1  0
 36 37  2  0
 37 38  1  0
 37 39  1  0
 39 40  1  0
 39 41  2  0
 41 42  1  0
 41 43  1  0
 43 44  1  0
 43 45  2  0
  7 46  1  0
 46 47  1  0
 46 48  2  0
 48 49  1  0
 48  2  1  0
 45  9  1  0
 45 36  1  0
M  END
>  <UniqueID>  (12) 
11

>  <SMILES>  (12) 
CCN(CC)CCn1cc/c(=N\c2ccccc2)c2ccccc21

>  <Energy>  (12) 
69.69651913314507

>  <Genealogy>  (12) 
CCN(CC)CCn1cc/c(=N\c2ccccc2)c2ccccc21 (cis-trans isomerization)
CCN(CC)CCn1cc/c(=N\c2ccccc2)c2ccccc21 (3D coordinates assigned)
CCN(CC)CCn1cc/c(=N\c2ccccc2)c2ccccc21 (optimized conformer: 69.69651913314507 kcal/mol)

>  <smiles>  (12) 
CCN(CC)CCn1ccc(=Nc2ccccc2)c2ccccc21

>  <score_type>  (12) 
oracle

>  <origin>  (12) 
adg

>  <m_score__min__energy>  (12) 
-7.2800000000000002

>  <m_primary>  (12) 
energy

$$$$
12:0
     RDKit          3D

 50 53  0  0  0  0  0  0  0  0999 V2000
   57.3990   31.7360   42.4950 C   0  0  0  0  0  0  0  0  0  0  0  0
   57.3910   31.5080   43.9810 C   0  0  0  0  0  0  0  0  0  0  0  0
   56.3710   31.0680   44.4900 O   0  0  0  0  0  0  0  0  0  0  0  0
   58.5980   31.7800   44.8740 C   0  0  2  0  0  0  0  0  0  0  0  0
   59.1470   30.4960   45.5010 C   0  0  0  0  0  0  0  0  0  0  0  0
   58.7390   30.5010   46.9640 C   0  0  0  0  0  0  0  0  0  0  0  0
   58.4730   31.9640   47.3670 C   0  0  1  0  0  0  0  0  0  0  0  0
   59.5230   32.5260   48.3710 C   0  0  1  0  0  0  0  0  0  0  0  0
   59.5990   31.7290   49.6490 C   0  0  0  0  0  0  0  0  0  0  0  0
   58.5620   31.1940   50.1280 O   0  0  0  0  0  0  0  0  0  0  0  0
   60.8570   31.6400   50.4030 C   0  0  0  0  0  0  0  0  0  0  0  0
   61.9890   32.2330   49.9840 C   0  0  0  0  0  0  0  0  0  0  0  0
   63.2010   32.1780   50.8850 C   0  0  0  0  0  0  0  0  0  0  0  0
   64.4740   32.2220   50.1000 C   0  0  0  0  0  0  0  0  0  0  0  0
   65.5540   31.8850   50.6540 O   0  0  0  0  0  0  0  0  0  0  0  0
   64.4960   32.6880   48.7090 C   0  0  0  0  0  0  0  0  0  0  0  0
   63.3840   33.0710   48.0770 C   0  0  0  0  0  0  0  0  0  0  0  0
   62.0110   33.1350   48.7410 C   0  0  2  0  0  0  0  0  0  0  0  0
   61.7650   34.5890   49.2070 C   0  0  0  0  0  0  0  0  0  0  0  0
   60.9250   32.6440   47.7150 C   0  0  2  0  0  0  0  0  0  0  0  0
   60.8710   33.4390   46.3720 C   0  0  0  0  0  0  0  0  0  0  0  0
   59.4630   33.9210   45.9880 C   0  0  0  0  0  0  0  0  0  0  0  0
   58.3770   32.8000   46.0470 C   0  0  1  0  0  0  0  0  0  0  0  0
   57.0000   33.5140   45.9780 C   0  0  0  0  0  0  0  0  0  0  0  0
   57.4369   32.8161   42.2900 H   0  0  0  0  0  0  0  0  0  0  0  0
   58.2806   31.2479   42.0539 H   0  0  0  0  0  0  0  0  0  0  0  0
   56.4854   31.3109   42.0539 H   0  0  0  0  0  0  0  0  0  0  0  0
   59.3073   32.2347   44.1668 H   0  0  0  0  0  0  0  0  0  0  0  0
   58.7217   29.6173   44.9941 H   0  0  0  0  0  0  0  0  0  0  0  0
   60.2414   30.4493   45.4008 H   0  0  0  0  0  0  0  0  0  0  0  0
   57.8266   29.9021   47.1013 H   0  0  0  0  0  0  0  0  0  0  0  0
   59.5331   30.0659   47.5886 H   0  0  0  0  0  0  0  0  0  0  0  0
   57.5257   32.0301   47.9222 H   0  0  0  0  0  0  0  0  0  0  0  0
   59.1767   33.5339   48.6433 H   0  0  0  0  0  0  0  0  0  0  0  0
   60.8734   31.0685   51.3428 H   0  0  0  0  0  0  0  0  0  0  0  0
   63.1749   33.0374   51.5711 H   0  0  0  0  0  0  0  0  0  0  0  0
   63.1729   31.2296   51.4416 H   0  0  0  0  0  0  0  0  0  0  0  0
   65.4553   32.7228   48.1718 H   0  0  0  0  0  0  0  0  0  0  0  0
   63.4617   33.3567   47.0176 H   0  0  0  0  0  0  0  0  0  0  0  0
   61.7588   34.6256   50.3064 H   0  0  0  0  0  0  0  0  0  0  0  0
   62.5662   35.2376   48.8230 H   0  0  0  0  0  0  0  0  0  0  0  0
   60.7951   34.9380   48.8230 H   0  0  0  0  0  0  0  0  0  0  0  0
   61.2589   31.6370   47.4245 H   0  0  0  0  0  0  0  0  0  0  0  0
   61.5248   34.3188   46.4641 H   0  0  0  0  0  0  0  0  0  0  0  0
   61.1987   32.7494   45.5801 H   0  0  0  0  0  0  0  0  0  0  0  0
   59.1704   34.7245   46.6799 H   0  0  0  0  0  0  0  0  0  0  0  0
   59.5145   34.2637   44.9440 H   0  0  0  0  0  0  0  0  0  0  0  0
   56.6339   33.7038   46.9978 H   0  0  0  0  0  0  0  0  0  0  0  0
   57.1087   34.4693   45.4437 H   0  0  0  0  0  0  0  0  0  0  0  0
   56.2818   32.8747   45.4437 H   0  0  0  0  0  0  0  0  0  0  0  0
  1  2  1  0
  2  3  2  0
  2  4  1  0
  4  5  1  0
  5  6  1  0
  6  7  1  0
  7  8  1  0
  8  9  1  0
  9 10  2  0
  9 11  1  0
 11 12  2  0
 12 13  1  0
 13 14  1  0
 14 15  2  0
 14 16  1  0
 16 17  2  0
 17 18  1  0
 18 19  1  1
 18 20  1  0
 20 21  1  0
 21 22  1  0
 22 23  1  0
 23 24  1  6
 23  4  1  0
 23  7  1  0
 20  8  1  0
 18 12  1  0
  1 25  1  0
  1 26  1  0
  1 27  1  0
  4 28  1  6
  5 29  1  0
  5 30  1  0
  6 31  1  0
  6 32  1  0
  7 33  1  1
  8 34  1  1
 11 35  1  0
 13 36  1  0
 13 37  1  0
 16 38  1  0
 17 39  1  0
 19 40  1  0
 19 41  1  0
 19 42  1  0
 20 43  1  6
 21 44  1  0
 21 45  1  0
 22 46  1  0
 22 47  1  0
 24 48  1  0
 24 49  1  0
 24 50  1  0
M  END
>  <UniqueID>  (13) 
12

>  <SMILES>  (13) 
CC(=O)[C@@H]1CC[C@H]2C3C(=O)C=C4CC(=O)C=CC4(C)C3CCC12C

>  <Energy>  (13) 
71.23833534201769

>  <Genealogy>  (13) 
CC(=O)[C@@H]1CC[C@H]2C3C(=O)C=C4CC(=O)C=CC4(C)C3CCC12C (chirality)
CC(=O)[C@@H]1CC[C@H]2C3C(=O)C=C4CC(=O)C=CC4(C)C3CCC12C (3D coordinates assigned)
CC(=O)[C@@H]1CC[C@H]2C3C(=O)C=C4CC(=O)C=CC4(C)C3CCC12C (nonaromatic ring conformer: 71.23833534201769 kcal/mol)

>  <smiles>  (13) 
CC(=O)C1CCC2C3C(=O)C=C4CC(=O)C=CC4(C)C3CCC12C

>  <score_type>  (13) 
oracle

>  <origin>  (13) 
adg

>  <m_score__min__energy>  (13) 
-9.2300000000000004

>  <m_primary>  (13) 
energy

$$$$
13:0
     RDKit          3D

 60 61  0  0  0  0  0  0  0  0999 V2000
   55.6960   30.0660   44.0660 C   0  0  0  0  0  0  0  0  0  0  0  0
   56.8380   30.7770   43.3450 C   0  0  0  0  0  0  0  0  0  0  0  0
   58.1490   30.6480   44.1260 C   0  0  0  0  0  0  0  0  0  0  0  0
   58.0670   29.5180   45.1630 C   0  0  0  0  0  0  0  0  0  0  0  0
   58.7130   29.8980   46.5120 C   0  0  0  0  0  0  0  0  0  0  0  0
   60.1210   30.5230   46.3840 C   0  0  0  0  0  0  0  0  0  0  0  0
   60.7330   30.8720   47.7000 N   0  0  1  0  0  0  0  0  0  0  0  0
   60.8020   29.6790   48.5670 C   0  0  0  0  0  0  0  0  0  0  0  0
   62.0980   31.4390   47.5410 C   0  0  0  0  0  0  0  0  0  0  0  0
   62.2720   32.8010   48.2470 C   0  0  0  0  0  0  0  0  0  0  0  0
   60.9830   33.3060   48.7900 N   0  0  0  0  0  0  0  0  0  0  0  0
   60.5750   34.5570   48.1130 C   0  0  0  0  0  0  0  0  0  0  0  0
   59.4890   34.2940   47.0990 C   0  0  0  0  0  0  0  0  0  0  0  0
   58.3800   33.5030   47.4400 C   0  0  0  0  0  0  0  0  0  0  0  0
   57.3740   33.2530   46.5040 C   0  0  0  0  0  0  0  0  0  0  0  0
   57.4700   33.7890   45.2160 C   0  0  0  0  0  0  0  0  0  0  0  0
   58.5740   34.5700   44.8630 C   0  0  0  0  0  0  0  0  0  0  0  0
   59.5830   34.8210   45.8000 C   0  0  0  0  0  0  0  0  0  0  0  0
   61.0320   33.4920   50.2620 C   0  0  0  0  0  0  0  0  0  0  0  0
   59.7270   33.0880   50.8920 C   0  0  0  0  0  0  0  0  0  0  0  0
   59.1950   33.8190   51.9680 C   0  0  0  0  0  0  0  0  0  0  0  0
   57.9910   33.4230   52.5600 C   0  0  0  0  0  0  0  0  0  0  0  0
   57.3080   32.3020   52.0780 C   0  0  0  0  0  0  0  0  0  0  0  0
   56.1430   31.9180   52.6570 F   0  0  0  0  0  0  0  0  0  0  0  0
   57.8260   31.5780   51.0010 C   0  0  0  0  0  0  0  0  0  0  0  0
   59.0290   31.9690   50.4070 C   0  0  0  0  0  0  0  0  0  0  0  0
   55.8375   30.1541   45.1533 H   0  0  0  0  0  0  0  0  0  0  0  0
   54.7390   30.5282   43.7822 H   0  0  0  0  0  0  0  0  0  0  0  0
   55.6884   29.0033   43.7822 H   0  0  0  0  0  0  0  0  0  0  0  0
   56.9679   30.3291   42.3487 H   0  0  0  0  0  0  0  0  0  0  0  0
   56.5861   31.8444   43.2595 H   0  0  0  0  0  0  0  0  0  0  0  0
   58.9663   30.4311   43.4224 H   0  0  0  0  0  0  0  0  0  0  0  0
   58.3346   31.5944   44.6550 H   0  0  0  0  0  0  0  0  0  0  0  0
   57.0081   29.2756   45.3360 H   0  0  0  0  0  0  0  0  0  0  0  0
   58.6214   28.6574   44.7604 H   0  0  0  0  0  0  0  0  0  0  0  0
   58.0577   30.6233   47.0166 H   0  0  0  0  0  0  0  0  0  0  0  0
   58.8312   28.9642   47.0812 H   0  0  0  0  0  0  0  0  0  0  0  0
   60.7776   29.8032   45.8733 H   0  0  0  0  0  0  0  0  0  0  0  0
   60.0120   31.4590   45.8165 H   0  0  0  0  0  0  0  0  0  0  0  0
   60.1450   31.5730   48.2040 H   0  0  0  0  0  0  0  0  0  0  0  0
   60.7840   29.9907   49.6218 H   0  0  0  0  0  0  0  0  0  0  0  0
   59.9401   29.0268   48.3626 H   0  0  0  0  0  0  0  0  0  0  0  0
   61.7334   29.1306   48.3626 H   0  0  0  0  0  0  0  0  0  0  0  0
   62.8238   30.7293   47.9648 H   0  0  0  0  0  0  0  0  0  0  0  0
   62.2630   31.6025   46.4658 H   0  0  0  0  0  0  0  0  0  0  0  0
   62.9869   32.6849   49.0749 H   0  0  0  0  0  0  0  0  0  0  0  0
   62.6411   33.5267   47.5073 H   0  0  0  0  0  0  0  0  0  0  0  0
   60.2007   35.2673   48.8649 H   0  0  0  0  0  0  0  0  0  0  0  0
   61.4487   34.9736   47.5905 H   0  0  0  0  0  0  0  0  0  0  0  0
   58.3031   33.0773   48.4514 H   0  0  0  0  0  0  0  0  0  0  0  0
   56.5068   32.6350   46.7798 H   0  0  0  0  0  0  0  0  0  0  0  0
   56.6758   33.5958   44.4799 H   0  0  0  0  0  0  0  0  0  0  0  0
   58.6500   34.9877   43.8482 H   0  0  0  0  0  0  0  0  0  0  0  0
   60.4526   35.4330   45.5184 H   0  0  0  0  0  0  0  0  0  0  0  0
   61.8407   32.8729   50.6776 H   0  0  0  0  0  0  0  0  0  0  0  0
   61.2156   34.5547   50.4786 H   0  0  0  0  0  0  0  0  0  0  0  0
   59.7267   34.7048   52.3456 H   0  0  0  0  0  0  0  0  0  0  0  0
   57.5809   33.9942   53.4059 H   0  0  0  0  0  0  0  0  0  0  0  0
   57.2859   30.6987   50.6200 H   0  0  0  0  0  0  0  0  0  0  0  0
   59.4310   31.3987   49.5566 H   0  0  0  0  0  0  0  0  0  0  0  0
  1  2  1  0
  2  3  1  0
  3  4  1  0
  4  5  1  0
  5  6  1  0
  6  7  1  0
  7  8  1  0
  7  9  1  0
  9 10  1  0
 10 11  1  0
 11 12  1  0
 12 13  1  0
 13 14  2  0
 14 15  1  0
 15 16  2  0
 16 17  1  0
 17 18  2  0
 11 19  1  0
 19 20  1  0
 20 21  2  0
 21 22  1  0
 22 23  2  0
 23 24  1  0
 23 25  1  0
 25 26  2  0
 18 13  1  0
 26 20  1  0
  1 27  1  0
  1 28  1  0
  1 29  1  0
  2 30  1  0
  2 31  1  0
  3 32  1  0
  3 33  1  0
  4 34  1  0
  4 35  1  0
  5 36  1  0
  5 37  1  0
  6 38  1  0
  6 39  1  0
  7 40  1  1
  8 41  1  0
  8 42  1  0
  8 43  1  0
  9 44  1  0
  9 45  1  0
 10 46  1  0
 10 47  1  0
 12 48  1  0
 12 49  1  0
 14 50  1  0
 15 51  1  0
 16 52  1  0
 17 53  1  0
 18 54  1  0
 19 55  1  0
 19 56  1  0
 21 57  1  0
 22 58  1  0
 25 59  1  0
 26 60  1  0
M  CHG  1   7   1
M  END
>  <UniqueID>  (14) 
13

>  <SMILES>  (14) 
CCCCCC[N@@H+](C)CCN(Cc1ccccc1)Cc1ccc(F)cc1

>  <Energy>  (14) 
55.293553866286

>  <Genealogy>  (14) 
CCCCCC[NH+](C)CCN(Cc1ccccc1)Cc1ccc(F)cc1 (protonated)
CCCCCC[N@@H+](C)CCN(Cc1ccccc1)Cc1ccc(F)cc1 (chirality)
CCCCCC[N@@H+](C)CCN(Cc1ccccc1)Cc1ccc(F)cc1 (3D coordinates assigned)
CCCCCC[N@@H+](C)CCN(Cc1ccccc1)Cc1ccc(F)cc1 (optimized conformer: 55.293553866286 kcal/mol)

>  <smiles>  (14) 
CCCCCCN(C)CCN(Cc1ccccc1)Cc1ccc(F)cc1

>  <score_type>  (14) 
oracle

>  <origin>  (14) 
adg

>  <m_score__min__energy>  (14) 
-5.0899999999999999

>  <m_primary>  (14) 
energy

$$$$
14:0
     RDKit          3D

 40 42  0  0  0  0  0  0  0  0999 V2000
   56.7310   33.9880   45.3390 O   0  0  0  0  0  0  0  0  0  0  0  0
   57.9760   33.8890   45.1730 C   0  0  0  0  0  0  0  0  0  0  0  0
   58.5200   32.7420   44.3660 C   0  0  0  0  0  0  0  0  0  0  0  0
   57.7180   31.4930   44.6180 C   0  0  0  0  0  0  0  0  0  0  0  0
   56.6100   31.1910   43.8090 C   0  0  0  0  0  0  0  0  0  0  0  0
   55.8790   30.0190   44.0230 C   0  0  0  0  0  0  0  0  0  0  0  0
   56.2530   29.1350   45.0410 C   0  0  0  0  0  0  0  0  0  0  0  0
   55.5250   27.9720   45.2540 O   0  0  0  0  0  0  0  0  0  0  0  0
   57.3640   29.4220   45.8410 C   0  0  0  0  0  0  0  0  0  0  0  0
   58.0970   30.5930   45.6280 C   0  0  0  0  0  0  0  0  0  0  0  0
   58.8360   34.8370   45.8180 N   0  0  0  0  0  0  0  0  0  0  0  0
   59.8640   34.5370   46.7720 C   0  0  0  0  0  0  0  0  0  0  0  0
   59.6230   34.5650   48.1530 C   0  0  0  0  0  0  0  0  0  0  0  0
   60.6420   34.2300   49.0480 C   0  0  0  0  0  0  0  0  0  0  0  0
   61.9050   33.8520   48.5540 C   0  0  0  0  0  0  0  0  0  0  0  0
   62.9870   33.4990   49.4430 N   0  0  0  0  0  0  0  0  0  0  0  0
   62.9440   33.8540   50.8670 C   0  0  0  0  0  0  0  0  0  0  0  0
   64.3630   33.9580   51.4370 C   0  0  0  0  0  0  0  0  0  0  0  0
   65.1170   32.8040   51.1280 O   0  0  0  0  0  0  0  0  0  0  0  0
   65.3100   32.7280   49.7290 C   0  0  0  0  0  0  0  0  0  0  0  0
   63.9770   32.5030   49.0090 C   0  0  0  0  0  0  0  0  0  0  0  0
   62.0970   33.8040   47.2050 N   0  0  0  0  0  0  0  0  0  0  0  0
   61.1190   34.1250   46.3180 C   0  0  0  0  0  0  0  0  0  0  0  0
   58.4691   32.9953   43.2968 H   0  0  0  0  0  0  0  0  0  0  0  0
   59.5634   32.5609   44.6635 H   0  0  0  0  0  0  0  0  0  0  0  0
   56.3163   31.8800   43.0034 H   0  0  0  0  0  0  0  0  0  0  0  0
   55.0085   29.7913   43.3902 H   0  0  0  0  0  0  0  0  0  0  0  0
   57.6612   28.7253   46.6387 H   0  0  0  0  0  0  0  0  0  0  0  0
   58.9748   30.8109   46.2542 H   0  0  0  0  0  0  0  0  0  0  0  0
   58.6307   34.8510   48.5320 H   0  0  0  0  0  0  0  0  0  0  0  0
   60.4587   34.2614   50.1322 H   0  0  0  0  0  0  0  0  0  0  0  0
   62.4351   34.8222   50.9836 H   0  0  0  0  0  0  0  0  0  0  0  0
   62.3977   33.0706   51.4128 H   0  0  0  0  0  0  0  0  0  0  0  0
   64.8605   34.8392   51.0058 H   0  0  0  0  0  0  0  0  0  0  0  0
   64.2960   34.0511   52.5310 H   0  0  0  0  0  0  0  0  0  0  0  0
   65.7573   33.6685   49.3748 H   0  0  0  0  0  0  0  0  0  0  0  0
   65.9771   31.8812   49.5100 H   0  0  0  0  0  0  0  0  0  0  0  0
   64.1312   32.5940   47.9237 H   0  0  0  0  0  0  0  0  0  0  0  0
   63.6037   31.4978   49.2542 H   0  0  0  0  0  0  0  0  0  0  0  0
   61.3165   34.0601   45.2378 H   0  0  0  0  0  0  0  0  0  0  0  0
  1  2  2  0
  2  3  1  0
  3  4  1  0
  4  5  2  0
  5  6  1  0
  6  7  2  0
  7  8  1  0
  7  9  1  0
  9 10  2  0
  2 11  1  0
 11 12  1  0
 12 13  2  0
 13 14  1  0
 14 15  2  0
 15 16  1  0
 16 17  1  0
 17 18  1  0
 18 19  1  0
 19 20  1  0
 20 21  1  0
 15 22  1  0
 22 23  2  0
 10  4  1  0
 23 12  1  0
 21 16  1  0
  3 24  1  0
  3 25  1  0
  5 26  1  0
  6 27  1  0
  9 28  1  0
 10 29  1  0
 13 30  1  0
 14 31  1  0
 17 32  1  0
 17 33  1  0
 18 34  1  0
 18 35  1  0
 20 36  1  0
 20 37  1  0
 21 38  1  0
 21 39  1  0
 23 40  1  0
M  CHG  2   8  -1  11  -1
M  END
>  <UniqueID>  (15) 
14

>  <SMILES>  (15) 
O=C(Cc1ccc([O-])cc1)[N-]c1ccc(N2CCOCC2)nc1

>  <Energy>  (15) 
50.214803006826635

>  <Genealogy>  (15) 
O=C(Cc1ccc([O-])cc1)[N-]c1ccc(N2CCOCC2)nc1 (protonated)
O=C(Cc1ccc([O-])cc1)[N-]c1ccc(N2CCOCC2)nc1 (3D coordinates assigned)
O=C(Cc1ccc([O-])cc1)[N-]c1ccc(N2CCOCC2)nc1 (nonaromatic ring conformer: 50.214803006826635 kcal/mol)

>  <smiles>  (15) 
O=C(Cc1ccc(O)cc1)Nc1ccc(N2CCOCC2)nc1

>  <score_type>  (15) 
oracle

>  <origin>  (15) 
adg

>  <m_score__min__energy>  (15) 
-11.880000000000001

>  <m_primary>  (15) 
energy

$$$$
15:0
     RDKit          3D

 37 39  0  0  0  0  0  0  0  0999 V2000
   59.2790   35.0850   44.8480 C   0  0  0  0  0  0  0  0  0  0  0  0
   58.5100   34.7100   45.9830 O   0  0  0  0  0  0  0  0  0  0  0  0
   57.8970   33.4580   46.0990 C   0  0  0  0  0  0  0  0  0  0  0  0
   56.6400   33.3570   46.1070 O   0  0  0  0  0  0  0  0  0  0  0  0
   58.7330   32.2460   46.2180 C   0  0  0  0  0  0  0  0  0  0  0  0
   58.2490   31.0030   45.7440 C   0  0  0  0  0  0  0  0  0  0  0  0
   56.9810   30.8870   45.1630 O   0  0  0  0  0  0  0  0  0  0  0  0
   59.0560   29.8540   45.8620 C   0  0  0  0  0  0  0  0  0  0  0  0
   58.6090   28.5290   45.3770 C   0  0  0  0  0  0  0  0  0  0  0  0
   58.2830   27.5230   46.3020 C   0  0  0  0  0  0  0  0  0  0  0  0
   57.8790   26.2590   45.8620 C   0  0  0  0  0  0  0  0  0  0  0  0
   57.8200   25.9730   44.4900 C   0  0  0  0  0  0  0  0  0  0  0  0
   57.3500   24.6290   44.0170 C   0  0  0  0  0  0  0  0  0  0  0  0
   58.1470   26.9740   43.5630 C   0  0  0  0  0  0  0  0  0  0  0  0
   58.5500   28.2380   44.0020 C   0  0  0  0  0  0  0  0  0  0  0  0
   60.2790   29.9490   46.4440 N   0  0  0  0  0  0  0  0  0  0  0  0
   60.7790   31.1200   46.9100 C   0  0  0  0  0  0  0  0  0  0  0  0
   62.0510   31.1390   47.4960 C   0  0  0  0  0  0  0  0  0  0  0  0
   62.5760   32.3310   47.9960 C   0  0  0  0  0  0  0  0  0  0  0  0
   61.8310   33.5100   47.9180 C   0  0  0  0  0  0  0  0  0  0  0  0
   60.5600   33.5030   47.3350 C   0  0  0  0  0  0  0  0  0  0  0  0
   60.0200   32.3080   46.8100 C   0  0  0  0  0  0  0  0  0  0  0  0
   60.2217   35.5447   45.1795 H   0  0  0  0  0  0  0  0  0  0  0  0
   59.4989   34.1930   44.2431 H   0  0  0  0  0  0  0  0  0  0  0  0
   58.7115   35.8075   44.2431 H   0  0  0  0  0  0  0  0  0  0  0  0
   56.2580   31.5880   45.2510 H   0  0  0  0  0  0  0  0  0  0  0  0
   58.3461   27.7314   47.3802 H   0  0  0  0  0  0  0  0  0  0  0  0
   57.6062   25.4854   46.5949 H   0  0  0  0  0  0  0  0  0  0  0  0
   57.1272   23.9919   44.8856 H   0  0  0  0  0  0  0  0  0  0  0  0
   56.4413   24.7513   43.4093 H   0  0  0  0  0  0  0  0  0  0  0  0
   58.1369   24.1584   43.4093 H   0  0  0  0  0  0  0  0  0  0  0  0
   58.0859   26.7628   42.4852 H   0  0  0  0  0  0  0  0  0  0  0  0
   58.8228   29.0103   43.2677 H   0  0  0  0  0  0  0  0  0  0  0  0
   62.6380   30.2111   47.5622 H   0  0  0  0  0  0  0  0  0  0  0  0
   63.5770   32.3424   48.4518 H   0  0  0  0  0  0  0  0  0  0  0  0
   62.2457   34.4476   48.3167 H   0  0  0  0  0  0  0  0  0  0  0  0
   59.9768   34.4343   47.2849 H   0  0  0  0  0  0  0  0  0  0  0  0
  1  2  1  0
  2  3  1  0
  3  4  2  0
  3  5  1  0
  5  6  2  0
  6  7  1  0
  6  8  1  0
  8  9  1  0
  9 10  2  0
 10 11  1  0
 11 12  2  0
 12 13  1  0
 12 14  1  0
 14 15  2  0
  8 16  2  0
 16 17  1  0
 17 18  2  0
 18 19  1  0
 19 20  2  0
 20 21  1  0
 21 22  2  0
 22  5  1  0
 15  9  1  0
 22 17  1  0
  1 23  1  0
  1 24  1  0
  1 25  1  0
  7 26  1  0
 10 27  1  0
 11 28  1  0
 13 29  1  0
 13 30  1  0
 13 31  1  0
 14 32  1  0
 15 33  1  0
 18 34  1  0
 19 35  1  0
 20 36  1  0
 21 37  1  0
M  END
>  <UniqueID>  (16) 
15

>  <SMILES>  (16) 
COC(=O)c1c(O)c(-c2ccc(C)cc2)nc2ccccc12

>  <Energy>  (16) 
55.11191271778749

>  <Genealogy>  (16) 
COC(=O)c1c(O)c(-c2ccc(C)cc2)nc2ccccc12 (3D coordinates assigned)
COC(=O)c1c(O)c(-c2ccc(C)cc2)nc2ccccc12 (optimized conformer: 55.11191271778749 kcal/mol)

>  <smiles>  (16) 
COC(=O)c1c(O)c(-c2ccc(C)cc2)nc2ccccc12

>  <score_type>  (16) 
oracle

>  <origin>  (16) 
adg

>  <m_score__min__energy>  (16) 
-7.5499999999999998

>  <m_primary>  (16) 
energy

$$$$
16:0
     RDKit          3D

 48 50  0  0  0  0  0  0  0  0999 V2000
   56.0730   30.0900   44.5000 O   0  0  0  0  0  0  0  0  0  0  0  0
   57.1900   30.6520   44.6790 C   0  0  0  0  0  0  0  0  0  0  0  0
   57.4620   31.9580   43.9790 C   0  0  0  0  0  0  0  0  0  0  0  0
   57.9700   32.9870   44.9530 C   0  0  0  0  0  0  0  0  0  0  0  0
   58.8110   34.0220   44.5100 C   0  0  0  0  0  0  0  0  0  0  0  0
   59.3080   34.9630   45.4170 C   0  0  0  0  0  0  0  0  0  0  0  0
   58.9770   34.8730   46.7720 C   0  0  0  0  0  0  0  0  0  0  0  0
   58.1510   33.8390   47.2220 C   0  0  0  0  0  0  0  0  0  0  0  0
   57.6510   32.8970   46.3180 C   0  0  0  0  0  0  0  0  0  0  0  0
   58.1780   30.0200   45.5210 N   0  0  0  0  0  0  0  0  0  0  0  0
   57.7680   29.0000   46.4910 C   0  0  0  0  0  0  0  0  0  0  0  0
   58.7210   29.0260   47.6920 C   0  0  0  0  0  0  0  0  0  0  0  0
   60.1480   28.8030   47.3150 N   0  0  0  0  0  0  0  0  0  0  0  0
   61.0680   29.5300   48.2270 C   0  0  0  0  0  0  0  0  0  0  0  0
   60.6590   30.9990   48.4720 C   0  0  0  0  0  0  0  0  0  0  0  0
   61.7220   31.9690   48.0220 C   0  0  0  0  0  0  0  0  0  0  0  0
   62.9630   32.0120   48.6790 C   0  0  0  0  0  0  0  0  0  0  0  0
   63.9410   32.9300   48.2810 C   0  0  0  0  0  0  0  0  0  0  0  0
   63.6860   33.8100   47.2250 C   0  0  0  0  0  0  0  0  0  0  0  0
   62.4540   33.7720   46.5660 C   0  0  0  0  0  0  0  0  0  0  0  0
   61.4750   32.8570   46.9610 C   0  0  0  0  0  0  0  0  0  0  0  0
   60.4510   29.1390   45.8940 C   0  0  0  0  0  0  0  0  0  0  0  0
   59.6100   30.3080   45.3630 C   0  0  0  0  0  0  0  0  0  0  0  0
   58.2178   31.7976   43.1960 H   0  0  0  0  0  0  0  0  0  0  0  0
   56.5244   32.3235   43.5347 H   0  0  0  0  0  0  0  0  0  0  0  0
   59.0794   34.0922   43.4455 H   0  0  0  0  0  0  0  0  0  0  0  0
   59.9603   35.7752   45.0637 H   0  0  0  0  0  0  0  0  0  0  0  0
   59.3664   35.6156   47.4840 H   0  0  0  0  0  0  0  0  0  0  0  0
   57.8940   33.7664   48.2891 H   0  0  0  0  0  0  0  0  0  0  0  0
   57.0052   32.0821   46.6771 H   0  0  0  0  0  0  0  0  0  0  0  0
   56.7430   29.2085   46.8314 H   0  0  0  0  0  0  0  0  0  0  0  0
   57.8017   28.0080   46.0170 H   0  0  0  0  0  0  0  0  0  0  0  0
   58.6382   30.0069   48.1829 H   0  0  0  0  0  0  0  0  0  0  0  0
   58.4270   28.2034   48.3605 H   0  0  0  0  0  0  0  0  0  0  0  0
   60.3450   27.7790   47.4160 H   0  0  0  0  0  0  0  0  0  0  0  0
   61.0842   29.0071   49.1946 H   0  0  0  0  0  0  0  0  0  0  0  0
   62.0564   29.5455   47.7446 H   0  0  0  0  0  0  0  0  0  0  0  0
   59.7324   31.2061   47.9165 H   0  0  0  0  0  0  0  0  0  0  0  0
   60.5156   31.1335   49.5543 H   0  0  0  0  0  0  0  0  0  0  0  0
   63.1667   31.3208   49.5101 H   0  0  0  0  0  0  0  0  0  0  0  0
   64.9109   32.9593   48.7991 H   0  0  0  0  0  0  0  0  0  0  0  0
   64.4548   34.5321   46.9128 H   0  0  0  0  0  0  0  0  0  0  0  0
   62.2548   34.4641   45.7345 H   0  0  0  0  0  0  0  0  0  0  0  0
   60.5068   32.8314   46.4394 H   0  0  0  0  0  0  0  0  0  0  0  0
   61.5147   29.4084   45.8164 H   0  0  0  0  0  0  0  0  0  0  0  0
   60.2067   28.2548   45.2870 H   0  0  0  0  0  0  0  0  0  0  0  0
   59.8608   31.2199   45.9248 H   0  0  0  0  0  0  0  0  0  0  0  0
   59.8302   30.4506   44.2947 H   0  0  0  0  0  0  0  0  0  0  0  0
  1  2  2  0
  2  3  1  0
  3  4  1  0
  4  5  2  0
  5  6  1  0
  6  7  2  0
  7  8  1  0
  8  9  2  0
  2 10  1  0
 10 11  1  0
 11 12  1  0
 12 13  1  0
 13 14  1  0
 14 15  1  0
 15 16  1  0
 16 17  2  0
 17 18  1  0
 18 19  2  0
 19 20  1  0
 20 21  2  0
 13 22  1  0
 22 23  1  0
  9  4  1  0
 23 10  1  0
 21 16  1  0
  3 24  1  0
  3 25  1  0
  5 26  1  0
  6 27  1  0
  7 28  1  0
  8 29  1  0
  9 30  1  0
 11 31  1  0
 11 32  1  0
 12 33  1  0
 12 34  1  0
 13 35  1  0
 14 36  1  0
 14 37  1  0
 15 38  1  0
 15 39  1  0
 17 40  1  0
 18 41  1  0
 19 42  1  0
 20 43  1  0
 21 44  1  0
 22 45  1  0
 22 46  1  0
 23 47  1  0
 23 48  1  0
M  CHG  1  13   1
M  END
>  <UniqueID>  (17) 
16

>  <SMILES>  (17) 
O=C(Cc1ccccc1)N1CC[NH+](CCc2ccccc2)CC1

>  <Energy>  (17) 
56.30751452362542

>  <Genealogy>  (17) 
O=C(Cc1ccccc1)N1CC[NH+](CCc2ccccc2)CC1 (protonated)
O=C(Cc1ccccc1)N1CC[NH+](CCc2ccccc2)CC1 (3D coordinates assigned)
O=C(Cc1ccccc1)N1CC[NH+](CCc2ccccc2)CC1 (nonaromatic ring conformer: 56.30751452362542 kcal/mol)

>  <smiles>  (17) 
O=C(Cc1ccccc1)N1CCN(CCc2ccccc2)CC1

>  <score_type>  (17) 
oracle

>  <origin>  (17) 
adg

>  <m_score__min__energy>  (17) 
-6.1699999999999999

>  <m_primary>  (17) 
energy

$$$$
17:0
     RDKit          3D

 35 37  0  0  0  0  0  0  0  0999 V2000
   57.7600   32.0010   42.2560 C   0  0  0  0  0  0  0  0  0  0  0  0
   56.8310   30.8410   42.5960 C   0  0  0  0  0  0  0  0  0  0  0  0
   57.1610   30.2950   43.9160 N   0  0  0  0  0  0  0  0  0  0  0  0
   57.3100   30.9670   45.0910 C   0  0  0  0  0  0  0  0  0  0  0  0
   56.9920   32.3160   45.2720 O   0  0  0  0  0  0  0  0  0  0  0  0
   57.8880   33.2800   45.7540 C   0  0  0  0  0  0  0  0  0  0  0  0
   58.3780   34.2440   44.8650 C   0  0  0  0  0  0  0  0  0  0  0  0
   59.2810   35.2160   45.3030 C   0  0  0  0  0  0  0  0  0  0  0  0
   59.7050   35.2310   46.6350 C   0  0  0  0  0  0  0  0  0  0  0  0
   59.2190   34.2770   47.5410 C   0  0  0  0  0  0  0  0  0  0  0  0
   59.7070   34.2660   48.9600 C   0  0  0  0  0  0  0  0  0  0  0  0
   58.3270   33.2900   47.0930 C   0  0  0  0  0  0  0  0  0  0  0  0
   57.8380   30.2140   46.0900 N   0  0  0  0  0  0  0  0  0  0  0  0
   58.0180   29.0200   45.5010 C   0  0  0  0  0  0  0  0  0  0  0  0
   58.5640   27.8700   46.0670 C   0  0  0  0  0  0  0  0  0  0  0  0
   58.7050   26.7370   45.2450 C   0  0  0  0  0  0  0  0  0  0  0  0
   58.3090   26.7830   43.8890 C   0  0  0  0  0  0  0  0  0  0  0  0
   57.7640   27.9610   43.3450 C   0  0  0  0  0  0  0  0  0  0  0  0
   57.6240   29.0630   44.1940 C   0  0  0  0  0  0  0  0  0  0  0  0
   58.1280   32.4605   43.1852 H   0  0  0  0  0  0  0  0  0  0  0  0
   58.6122   31.6283   41.6687 H   0  0  0  0  0  0  0  0  0  0  0  0
   57.2101   32.7512   41.6687 H   0  0  0  0  0  0  0  0  0  0  0  0
   55.7908   31.1986   42.6009 H   0  0  0  0  0  0  0  0  0  0  0  0
   56.9542   30.0507   41.8409 H   0  0  0  0  0  0  0  0  0  0  0  0
   58.0500   34.2362   43.8151 H   0  0  0  0  0  0  0  0  0  0  0  0
   59.6591   35.9711   44.5982 H   0  0  0  0  0  0  0  0  0  0  0  0
   60.4220   35.9934   46.9736 H   0  0  0  0  0  0  0  0  0  0  0  0
   58.8458   34.2854   49.6441 H   0  0  0  0  0  0  0  0  0  0  0  0
   60.2962   33.3543   49.1381 H   0  0  0  0  0  0  0  0  0  0  0  0
   60.3367   35.1502   49.1381 H   0  0  0  0  0  0  0  0  0  0  0  0
   57.9685   32.5196   47.7915 H   0  0  0  0  0  0  0  0  0  0  0  0
   58.8747   27.8486   47.1220 H   0  0  0  0  0  0  0  0  0  0  0  0
   59.1261   25.8095   45.6602 H   0  0  0  0  0  0  0  0  0  0  0  0
   58.4276   25.8922   43.2547 H   0  0  0  0  0  0  0  0  0  0  0  0
   57.4590   28.0129   42.2894 H   0  0  0  0  0  0  0  0  0  0  0  0
  1  2  1  0
  2  3  1  0
  3  4  1  0
  4  5  1  0
  5  6  1  0
  6  7  2  0
  7  8  1  0
  8  9  2  0
  9 10  1  0
 10 11  1  0
 10 12  2  0
  4 13  2  0
 13 14  1  0
 14 15  2  0
 15 16  1  0
 16 17  2  0
 17 18  1  0
 18 19  2  0
 19  3  1  0
 12  6  1  0
 19 14  1  0
  1 20  1  0
  1 21  1  0
  1 22  1  0
  2 23  1  0
  2 24  1  0
  7 25  1  0
  8 26  1  0
  9 27  1  0
 11 28  1  0
 11 29  1  0
 11 30  1  0
 12 31  1  0
 15 32  1  0
 16 33  1  0
 17 34  1  0
 18 35  1  0
M  END
>  <UniqueID>  (18) 
17

>  <SMILES>  (18) 
CCn1c(Oc2cccc(C)c2)nc2ccccc21

>  <Energy>  (18) 
78.38832868997773

>  <Genealogy>  (18) 
CCn1c(Oc2cccc(C)c2)nc2ccccc21 (3D coordinates assigned)
CCn1c(Oc2cccc(C)c2)nc2ccccc21 (optimized conformer: 78.38832868997773 kcal/mol)

>  <smiles>  (18) 
CCn1c(Oc2cccc(C)c2)nc2ccccc21

>  <score_type>  (18) 
oracle

>  <origin>  (18) 
adg

>  <m_score__min__energy>  (18) 
-7.1200000000000001

>  <m_primary>  (18) 
energy

$$$$
18:0
     RDKit          3D

 55 58  0  0  0  0  0  0  0  0999 V2000
   56.7410   22.0950   43.0920 C   0  0  0  0  0  0  0  0  0  0  0  0
   58.1040   21.8650   43.3690 O   0  0  0  0  0  0  0  0  0  0  0  0
   58.2750   21.4680   44.7170 C   0  0  0  0  0  0  0  0  0  0  0  0
   58.1000   22.6590   45.6610 C   0  0  0  0  0  0  0  0  0  0  0  0
   57.0600   22.3570   46.6730 N   0  0  0  0  0  0  0  0  0  0  0  0
   55.6990   22.3300   46.1010 C   0  0  0  0  0  0  0  0  0  0  0  0
   55.2080   23.7330   45.6810 C   0  0  0  0  0  0  0  0  0  0  0  0
   56.0600   24.8000   46.2410 N   0  0  0  0  0  0  0  0  0  0  0  0
   55.4570   26.1270   46.0170 C   0  0  0  0  0  0  0  0  0  0  0  0
   56.5310   27.1290   45.7100 C   0  0  0  0  0  0  0  0  0  0  0  0
   56.3700   28.4240   45.2240 C   0  0  0  0  0  0  0  0  0  0  0  0
   55.1490   28.9980   44.8900 O   0  0  0  0  0  0  0  0  0  0  0  0
   57.5670   29.0530   45.0940 N   0  0  0  0  0  0  0  0  0  0  0  0
   57.8040   30.3960   44.6330 C   0  0  0  0  0  0  0  0  0  0  0  0
   58.2210   31.3920   45.5310 C   0  0  0  0  0  0  0  0  0  0  0  0
   58.4300   32.7000   45.0870 C   0  0  0  0  0  0  0  0  0  0  0  0
   58.2280   33.0280   43.7440 C   0  0  0  0  0  0  0  0  0  0  0  0
   57.8260   32.0410   42.8330 C   0  0  0  0  0  0  0  0  0  0  0  0
   57.5540   32.3970   41.4000 C   0  0  0  0  0  0  0  0  0  0  0  0
   57.6040   30.7310   43.2830 C   0  0  0  0  0  0  0  0  0  0  0  0
   58.4830   28.1480   45.4970 C   0  0  0  0  0  0  0  0  0  0  0  0
   59.8250   28.3390   45.5840 N   0  0  0  0  0  0  0  0  0  0  0  0
   60.6140   27.3210   46.0410 C   0  0  0  0  0  0  0  0  0  0  0  0
   60.0450   26.0870   46.4280 C   0  0  0  0  0  0  0  0  0  0  0  0
   58.6540   25.9050   46.3480 C   0  0  0  0  0  0  0  0  0  0  0  0
   57.8930   26.9710   45.8770 C   0  0  0  0  0  0  0  0  0  0  0  0
   56.3150   24.5520   47.6710 C   0  0  0  0  0  0  0  0  0  0  0  0
   57.1310   23.2530   47.8520 C   0  0  0  0  0  0  0  0  0  0  0  0
   56.1856   22.1887   44.0368 H   0  0  0  0  0  0  0  0  0  0  0  0
   56.6364   23.0235   42.5115 H   0  0  0  0  0  0  0  0  0  0  0  0
   56.3375   21.2522   42.5115 H   0  0  0  0  0  0  0  0  0  0  0  0
   57.5279   20.6993   44.9640 H   0  0  0  0  0  0  0  0  0  0  0  0
   59.2920   21.0674   44.8400 H   0  0  0  0  0  0  0  0  0  0  0  0
   59.0538   22.8639   46.1692 H   0  0  0  0  0  0  0  0  0  0  0  0
   57.7907   23.5389   45.0777 H   0  0  0  0  0  0  0  0  0  0  0  0
   55.7009   21.6769   45.2159 H   0  0  0  0  0  0  0  0  0  0  0  0
   55.0165   21.9548   46.8778 H   0  0  0  0  0  0  0  0  0  0  0  0
   55.2248   23.8027   44.5833 H   0  0  0  0  0  0  0  0  0  0  0  0
   54.1879   23.8696   46.0692 H   0  0  0  0  0  0  0  0  0  0  0  0
   54.7567   26.0716   45.1705 H   0  0  0  0  0  0  0  0  0  0  0  0
   54.9186   26.4387   46.9242 H   0  0  0  0  0  0  0  0  0  0  0  0
   58.3839   31.1409   46.5895 H   0  0  0  0  0  0  0  0  0  0  0  0
   58.7548   33.4745   45.7974 H   0  0  0  0  0  0  0  0  0  0  0  0
   58.3845   34.0614   43.4011 H   0  0  0  0  0  0  0  0  0  0  0  0
   56.8866   33.2705   41.3595 H   0  0  0  0  0  0  0  0  0  0  0  0
   58.5017   32.6360   40.8953 H   0  0  0  0  0  0  0  0  0  0  0  0
   57.0744   31.5454   40.8953 H   0  0  0  0  0  0  0  0  0  0  0  0
   57.2706   29.9596   42.5732 H   0  0  0  0  0  0  0  0  0  0  0  0
   61.7026   27.4637   46.1082 H   0  0  0  0  0  0  0  0  0  0  0  0
   60.6885   25.2719   46.7905 H   0  0  0  0  0  0  0  0  0  0  0  0
   58.1843   24.9561   46.6463 H   0  0  0  0  0  0  0  0  0  0  0  0
   56.8802   25.3972   48.0908 H   0  0  0  0  0  0  0  0  0  0  0  0
   55.3527   24.4460   48.1932 H   0  0  0  0  0  0  0  0  0  0  0  0
   58.1835   23.5212   48.0259 H   0  0  0  0  0  0  0  0  0  0  0  0
   56.7002   22.7093   48.7057 H   0  0  0  0  0  0  0  0  0  0  0  0
  1  2  1  0
  2  3  1  0
  3  4  1  0
  4  5  1  0
  5  6  1  0
  6  7  1  0
  7  8  1  0
  8  9  1  0
  9 10  1  0
 10 11  2  0
 11 12  1  0
 11 13  1  0
 13 14  1  0
 14 15  2  0
 15 16  1  0
 16 17  2  0
 17 18  1  0
 18 19  1  0
 18 20  2  0
 13 21  1  0
 21 22  2  0
 22 23  1  0
 23 24  2  0
 24 25  1  0
 25 26  2  0
  8 27  1  0
 27 28  1  0
 28  5  1  0
 26 10  1  0
 20 14  1  0
 26 21  1  0
  1 29  1  0
  1 30  1  0
  1 31  1  0
  3 32  1  0
  3 33  1  0
  4 34  1  0
  4 35  1  0
  6 36  1  0
  6 37  1  0
  7 38  1  0
  7 39  1  0
  9 40  1  0
  9 41  1  0
 15 42  1  0
 16 43  1  0
 17 44  1  0
 19 45  1  0
 19 46  1  0
 19 47  1  0
 20 48  1  0
 23 49  1  0
 24 50  1  0
 25 51  1  0
 27 52  1  0
 27 53  1  0
 28 54  1  0
 28 55  1  0
M  CHG  1  12  -1
M  END
>  <UniqueID>  (19) 
18

>  <SMILES>  (19) 
COCCN1CCN(Cc2c([O-])n(-c3cccc(C)c3)c3ncccc23)CC1

>  <Energy>  (19) 
109.67676348023916

>  <Genealogy>  (19) 
COCCN1CCN(Cc2c([O-])n(-c3cccc(C)c3)c3ncccc23)CC1 (protonated)
COCCN1CCN(Cc2c([O-])n(-c3cccc(C)c3)c3ncccc23)CC1 (3D coordinates assigned)
COCCN1CCN(Cc2c([O-])n(-c3cccc(C)c3)c3ncccc23)CC1 (nonaromatic ring conformer: 109.67676348023916 kcal/mol)

>  <smiles>  (19) 
COCCN1CCN(Cc2c(O)n(-c3cccc(C)c3)c3ncccc23)CC1

>  <score_type>  (19) 
oracle

>  <origin>  (19) 
adg

>  <m_score__min__energy>  (19) 
-11.25

>  <m_primary>  (19) 
energy

$$$$
19:0
     RDKit          3D

 24 24  0  0  0  0  0  0  0  0999 V2000
   59.5860   28.3490   44.5000 C   0  0  0  0  0  0  0  0  0  0  0  0
   58.1570   27.8110   44.4960 C   0  0  0  0  0  0  0  0  0  0  0  0
   57.4210   28.2840   43.3110 N   0  0  0  0  0  0  0  0  0  0  0  0
   56.4680   29.3560   43.6470 C   0  0  0  0  0  0  0  0  0  0  0  0
   57.1610   30.6780   43.8760 C   0  0  0  0  0  0  0  0  0  0  0  0
   57.5100   31.4900   42.7850 C   0  0  0  0  0  0  0  0  0  0  0  0
   58.1330   32.7240   42.9950 C   0  0  0  0  0  0  0  0  0  0  0  0
   58.4070   33.1570   44.2960 C   0  0  0  0  0  0  0  0  0  0  0  0
   59.0110   34.3540   44.4980 F   0  0  0  0  0  0  0  0  0  0  0  0
   58.0590   32.3560   45.3870 C   0  0  0  0  0  0  0  0  0  0  0  0
   57.4360   31.1220   45.1800 C   0  0  0  0  0  0  0  0  0  0  0  0
   59.9266   28.4772   45.5380 H   0  0  0  0  0  0  0  0  0  0  0  0
   60.2469   27.6381   43.9824 H   0  0  0  0  0  0  0  0  0  0  0  0
   59.6140   29.3192   43.9824 H   0  0  0  0  0  0  0  0  0  0  0  0
   58.1861   26.7114   44.4868 H   0  0  0  0  0  0  0  0  0  0  0  0
   57.6421   28.1740   45.3977 H   0  0  0  0  0  0  0  0  0  0  0  0
   58.1060   28.6670   42.6190 H   0  0  0  0  0  0  0  0  0  0  0  0
   56.9140   27.4840   42.8650 H   0  0  0  0  0  0  0  0  0  0  0  0
   55.7535   29.4685   42.8183 H   0  0  0  0  0  0  0  0  0  0  0  0
   55.9556   29.0752   44.5790 H   0  0  0  0  0  0  0  0  0  0  0  0
   57.2923   31.1538   41.7605 H   0  0  0  0  0  0  0  0  0  0  0  0
   58.4077   33.3544   42.1364 H   0  0  0  0  0  0  0  0  0  0  0  0
   58.2757   32.6971   46.4101 H   0  0  0  0  0  0  0  0  0  0  0  0
   57.1600   30.4962   46.0415 H   0  0  0  0  0  0  0  0  0  0  0  0
  1  2  1  0
  2  3  1  0
  3  4  1  0
  4  5  1  0
  5  6  2  0
  6  7  1  0
  7  8  2  0
  8  9  1  0
  8 10  1  0
 10 11  2  0
 11  5  1  0
  1 12  1  0
  1 13  1  0
  1 14  1  0
  2 15  1  0
  2 16  1  0
  3 17  1  0
  3 18  1  0
  4 19  1  0
  4 20  1  0
  6 21  1  0
  7 22  1  0
 10 23  1  0
 11 24  1  0
M  CHG  1   3   1
M  END
>  <UniqueID>  (20) 
19

>  <SMILES>  (20) 
CC[NH2+]Cc1ccc(F)cc1

>  <Energy>  (20) 
18.788033261482436

>  <Genealogy>  (20) 
CC[NH2+]Cc1ccc(F)cc1 (protonated)
CC[NH2+]Cc1ccc(F)cc1 (3D coordinates assigned)
CC[NH2+]Cc1ccc(F)cc1 (optimized conformer: 18.788033261482436 kcal/mol)

>  <smiles>  (20) 
CCNCc1ccc(F)cc1

>  <score_type>  (20) 
oracle

>  <origin>  (20) 
adg

>  <m_score__min__energy>  (20) 
-3.02

>  <m_primary>  (20) 
energy

$$$$
20:0
     RDKit          3D

 41 43  0  0  0  0  0  0  0  0999 V2000
   61.5730   30.4300   46.5630 O   0  0  0  0  0  0  0  0  0  0  0  0
   61.3070   31.3150   47.4210 C   0  0  0  0  0  0  0  0  0  0  0  0
   59.9590   31.7740   47.5700 N   0  0  0  0  0  0  0  0  0  0  0  0
   59.3220   32.6810   46.6610 C   0  0  0  0  0  0  0  0  0  0  0  0
   59.5640   34.0510   46.8170 C   0  0  0  0  0  0  0  0  0  0  0  0
   59.0180   34.9720   45.9230 C   0  0  0  0  0  0  0  0  0  0  0  0
   58.2150   34.5330   44.8720 C   0  0  0  0  0  0  0  0  0  0  0  0
   57.9370   33.1720   44.7220 C   0  0  0  0  0  0  0  0  0  0  0  0
   58.4710   32.2270   45.6190 C   0  0  0  0  0  0  0  0  0  0  0  0
   58.0660   30.7980   45.5150 C   0  0  0  0  0  0  0  0  0  0  0  0
   56.8940   30.5250   45.1360 O   0  0  0  0  0  0  0  0  0  0  0  0
   59.0000   29.7230   45.8120 N   0  0  0  0  0  0  0  0  0  0  0  0
   59.3000   28.9320   44.6000 C   0  0  0  0  0  0  0  0  0  0  0  0
   58.1320   27.9990   44.1940 C   0  0  0  0  0  0  0  0  0  0  0  0
   57.1740   27.8110   45.2200 O   0  0  0  0  0  0  0  0  0  0  0  0
   57.8210   27.5860   46.4510 C   0  0  0  0  0  0  0  0  0  0  0  0
   58.5240   28.8700   46.9320 C   0  0  0  0  0  0  0  0  0  0  0  0
   62.3890   31.8440   48.2870 C   0  0  0  0  0  0  0  0  0  0  0  0
   62.6490   31.1970   49.5100 C   0  0  0  0  0  0  0  0  0  0  0  0
   63.6390   31.6730   50.3730 C   0  0  0  0  0  0  0  0  0  0  0  0
   64.3860   32.7980   50.0260 C   0  0  0  0  0  0  0  0  0  0  0  0
   64.1530   33.4430   48.8110 C   0  0  0  0  0  0  0  0  0  0  0  0
   63.1630   32.9770   47.9360 C   0  0  0  0  0  0  0  0  0  0  0  0
   62.9930   33.8080   46.3910 Cl  0  0  0  0  0  0  0  0  0  0  0  0
   60.1892   34.4037   47.6505 H   0  0  0  0  0  0  0  0  0  0  0  0
   59.2214   36.0458   46.0477 H   0  0  0  0  0  0  0  0  0  0  0  0
   57.7990   35.2598   44.1588 H   0  0  0  0  0  0  0  0  0  0  0  0
   57.2946   32.8354   43.8950 H   0  0  0  0  0  0  0  0  0  0  0  0
   59.8980   30.1550   46.1330 H   0  0  0  0  0  0  0  0  0  0  0  0
   59.5036   29.6237   43.7692 H   0  0  0  0  0  0  0  0  0  0  0  0
   60.1710   28.2982   44.8227 H   0  0  0  0  0  0  0  0  0  0  0  0
   57.6253   28.4358   43.3208 H   0  0  0  0  0  0  0  0  0  0  0  0
   58.5678   27.0131   43.9747 H   0  0  0  0  0  0  0  0  0  0  0  0
   57.0770   27.2779   47.2003 H   0  0  0  0  0  0  0  0  0  0  0  0
   58.5743   26.7955   46.3184 H   0  0  0  0  0  0  0  0  0  0  0  0
   57.8151   29.4517   47.5395 H   0  0  0  0  0  0  0  0  0  0  0  0
   59.4069   28.5651   47.5130 H   0  0  0  0  0  0  0  0  0  0  0  0
   62.0662   30.3068   49.7891 H   0  0  0  0  0  0  0  0  0  0  0  0
   63.8294   31.1598   51.3271 H   0  0  0  0  0  0  0  0  0  0  0  0
   65.1593   33.1771   50.7104 H   0  0  0  0  0  0  0  0  0  0  0  0
   64.7515   34.3246   48.5378 H   0  0  0  0  0  0  0  0  0  0  0  0
  1  2  2  0
  2  3  1  0
  3  4  1  0
  4  5  2  0
  5  6  1  0
  6  7  2  0
  7  8  1  0
  8  9  2  0
  9 10  1  0
 10 11  2  0
 10 12  1  0
 12 13  1  0
 13 14  1  0
 14 15  1  0
 15 16  1  0
 16 17  1  0
  2 18  1  0
 18 19  2  0
 19 20  1  0
 20 21  2  0
 21 22  1  0
 22 23  2  0
 23 24  1  0
  9  4  1  0
 17 12  1  0
 23 18  1  0
  5 25  1  0
  6 26  1  0
  7 27  1  0
  8 28  1  0
 12 29  1  0
 13 30  1  0
 13 31  1  0
 14 32  1  0
 14 33  1  0
 16 34  1  0
 16 35  1  0
 17 36  1  0
 17 37  1  0
 19 38  1  0
 20 39  1  0
 21 40  1  0
 22 41  1  0
M  CHG  2   3  -1  12   1
M  END
>  <UniqueID>  (21) 
20

>  <SMILES>  (21) 
O=C([N-]c1ccccc1C(=O)[NH+]1CCOCC1)c1ccccc1Cl

>  <Energy>  (21) 
71.31827030330652

>  <Genealogy>  (21) 
O=C([N-]c1ccccc1C(=O)[NH+]1CCOCC1)c1ccccc1Cl (protonated)
O=C([N-]c1ccccc1C(=O)[NH+]1CCOCC1)c1ccccc1Cl (3D coordinates assigned)
O=C([N-]c1ccccc1C(=O)[NH+]1CCOCC1)c1ccccc1Cl (nonaromatic ring conformer: 71.31827030330652 kcal/mol)

>  <smiles>  (21) 
O=C(Nc1ccccc1C(=O)N1CCOCC1)c1ccccc1Cl

>  <score_type>  (21) 
oracle

>  <origin>  (21) 
adg

>  <m_score__min__energy>  (21) 
-6.9100000000000001

>  <m_primary>  (21) 
energy

$$$$
21:0
     RDKit          3D

 35 37  0  0  0  0  0  0  0  0999 V2000
   55.8530   30.1740   44.5070 O   0  0  0  0  0  0  0  0  0  0  0  0
   57.1100   30.2360   44.5720 C   0  0  0  0  0  0  0  0  0  0  0  0
   57.9010   28.9970   44.8460 C   0  0  0  0  0  0  0  0  0  0  0  0
   58.8510   29.2680   45.9190 N   0  0  0  0  0  0  0  0  0  0  0  0
   59.7580   30.2300   45.8860 N   0  0  0  0  0  0  0  0  0  0  0  0
   60.2920   30.2640   47.1280 C   0  0  0  0  0  0  0  0  0  0  0  0
   61.3370   31.2140   47.5550 C   0  0  0  0  0  0  0  0  0  0  0  0
   62.0490   31.0050   48.7480 C   0  0  0  0  0  0  0  0  0  0  0  0
   63.0620   31.8900   49.1290 C   0  0  0  0  0  0  0  0  0  0  0  0
   63.3710   32.9910   48.3250 C   0  0  0  0  0  0  0  0  0  0  0  0
   64.3540   33.8480   48.6950 F   0  0  0  0  0  0  0  0  0  0  0  0
   62.6660   33.2070   47.1370 C   0  0  0  0  0  0  0  0  0  0  0  0
   61.6530   32.3230   46.7520 C   0  0  0  0  0  0  0  0  0  0  0  0
   59.7350   29.3680   47.9190 O   0  0  0  0  0  0  0  0  0  0  0  0
   58.8450   28.7700   47.1680 C   0  0  0  0  0  0  0  0  0  0  0  0
   58.0670   27.8650   47.5730 O   0  0  0  0  0  0  0  0  0  0  0  0
   57.7770   31.5020   44.4900 N   0  0  0  0  0  0  0  0  0  0  0  0
   57.1570   32.7250   44.9900 C   0  0  0  0  0  0  0  0  0  0  0  0
   58.1480   33.4880   45.8110 C   0  0  0  0  0  0  0  0  0  0  0  0
   58.9300   34.5440   45.3640 C   0  0  0  0  0  0  0  0  0  0  0  0
   59.6700   35.1530   46.3840 C   0  0  0  0  0  0  0  0  0  0  0  0
   59.4610   34.5890   47.6370 C   0  0  0  0  0  0  0  0  0  0  0  0
   58.3460   33.3410   47.4750 S   0  0  0  0  0  0  0  0  0  0  0  0
   57.2228   28.1861   45.1499 H   0  0  0  0  0  0  0  0  0  0  0  0
   58.4425   28.6933   43.9380 H   0  0  0  0  0  0  0  0  0  0  0  0
   61.8083   30.1412   49.3851 H   0  0  0  0  0  0  0  0  0  0  0  0
   63.6170   31.7196   50.0633 H   0  0  0  0  0  0  0  0  0  0  0  0
   62.9085   34.0735   46.5043 H   0  0  0  0  0  0  0  0  0  0  0  0
   61.1011   32.4966   45.8164 H   0  0  0  0  0  0  0  0  0  0  0  0
   58.8150   31.5090   44.3610 H   0  0  0  0  0  0  0  0  0  0  0  0
   56.8304   33.3438   44.1412 H   0  0  0  0  0  0  0  0  0  0  0  0
   56.2874   32.4669   45.6122 H   0  0  0  0  0  0  0  0  0  0  0  0
   58.9647   34.8695   44.3138 H   0  0  0  0  0  0  0  0  0  0  0  0
   60.3524   35.9981   46.2104 H   0  0  0  0  0  0  0  0  0  0  0  0
   59.9426   34.9050   48.5741 H   0  0  0  0  0  0  0  0  0  0  0  0
  1  2  2  0
  2  3  1  0
  3  4  1  0
  4  5  1  0
  5  6  2  0
  6  7  1  0
  7  8  2  0
  8  9  1  0
  9 10  2  0
 10 11  1  0
 10 12  1  0
 12 13  2  0
  6 14  1  0
 14 15  1  0
 15 16  2  0
  2 17  1  0
 17 18  1  0
 18 19  1  0
 19 20  2  0
 20 21  1  0
 21 22  2  0
 22 23  1  0
 15  4  1  0
 23 19  1  0
 13  7  1  0
  3 24  1  0
  3 25  1  0
  8 26  1  0
  9 27  1  0
 12 28  1  0
 13 29  1  0
 17 30  1  0
 18 31  1  0
 18 32  1  0
 20 33  1  0
 21 34  1  0
 22 35  1  0
M  END
>  <UniqueID>  (22) 
21

>  <SMILES>  (22) 
O=C(Cn1nc(-c2ccc(F)cc2)oc1=O)NCc1cccs1

>  <Energy>  (22) 
92.27056936246369

>  <Genealogy>  (22) 
O=C(Cn1nc(-c2ccc(F)cc2)oc1=O)NCc1cccs1 (3D coordinates assigned)
O=C(Cn1nc(-c2ccc(F)cc2)oc1=O)NCc1cccs1 (optimized conformer: 92.27056936246369 kcal/mol)

>  <smiles>  (22) 
O=C(Cn1nc(-c2ccc(F)cc2)oc1=O)NCc1cccs1

>  <score_type>  (22) 
oracle

>  <origin>  (22) 
adg

>  <m_score__min__energy>  (22) 
-6.9199999999999999

>  <m_primary>  (22) 
energy

$$$$
22:0
     RDKit          3D

 36 37  0  0  0  0  0  0  0  0999 V2000
   58.6820   32.0510   48.3070 C   0  0  0  0  0  0  0  0  0  0  0  0
   57.8520   33.0250   47.6810 O   0  0  0  0  0  0  0  0  0  0  0  0
   58.2420   33.8630   46.6210 C   0  0  0  0  0  0  0  0  0  0  0  0
   57.6020   33.8400   45.4300 C   0  0  0  0  0  0  0  0  0  0  0  0
   58.1220   33.1650   44.1850 C   0  0  0  0  0  0  0  0  0  0  0  0
   57.8200   31.6880   44.2080 C   0  0  0  0  0  0  0  0  0  0  0  0
   57.0190   31.1190   43.2020 C   0  0  0  0  0  0  0  0  0  0  0  0
   56.7770   29.7410   43.1890 C   0  0  0  0  0  0  0  0  0  0  0  0
   57.3280   28.9240   44.1800 C   0  0  0  0  0  0  0  0  0  0  0  0
   58.1160   29.4840   45.1890 C   0  0  0  0  0  0  0  0  0  0  0  0
   58.3600   30.8600   45.2070 C   0  0  0  0  0  0  0  0  0  0  0  0
   59.3760   34.7740   46.8950 C   0  0  0  0  0  0  0  0  0  0  0  0
   59.6650   35.6810   46.0720 O   0  0  0  0  0  0  0  0  0  0  0  0
   60.2690   34.5360   47.9930 N   0  0  0  0  0  0  0  0  0  0  0  0
   61.4960   34.0900   47.9520 C   0  0  0  0  0  0  0  0  0  0  0  0
   62.1320   33.7030   46.7540 C   0  0  0  0  0  0  0  0  0  0  0  0
   63.4390   33.2130   46.7940 C   0  0  0  0  0  0  0  0  0  0  0  0
   64.0950   33.1030   47.9800 N   0  0  0  0  0  0  0  0  0  0  0  0
   63.5010   33.4550   49.1520 C   0  0  0  0  0  0  0  0  0  0  0  0
   62.1940   33.9470   49.1570 C   0  0  0  0  0  0  0  0  0  0  0  0
   58.6000   32.1472   49.3997 H   0  0  0  0  0  0  0  0  0  0  0  0
   58.3598   31.0443   48.0023 H   0  0  0  0  0  0  0  0  0  0  0  0
   59.7270   32.2094   48.0023 H   0  0  0  0  0  0  0  0  0  0  0  0
   56.6303   34.3513   45.3641 H   0  0  0  0  0  0  0  0  0  0  0  0
   57.6434   33.6168   43.3037 H   0  0  0  0  0  0  0  0  0  0  0  0
   59.2128   33.3002   44.1413 H   0  0  0  0  0  0  0  0  0  0  0  0
   56.5811   31.7596   42.4224 H   0  0  0  0  0  0  0  0  0  0  0  0
   56.1524   29.3002   42.3980 H   0  0  0  0  0  0  0  0  0  0  0  0
   57.1414   27.8400   44.1657 H   0  0  0  0  0  0  0  0  0  0  0  0
   58.5453   28.8403   45.9709 H   0  0  0  0  0  0  0  0  0  0  0  0
   58.9771   31.2966   46.0061 H   0  0  0  0  0  0  0  0  0  0  0  0
   61.6016   33.7867   45.7940 H   0  0  0  0  0  0  0  0  0  0  0  0
   63.9404   32.9145   45.8615 H   0  0  0  0  0  0  0  0  0  0  0  0
   65.0720   32.7350   47.9920 H   0  0  0  0  0  0  0  0  0  0  0  0
   64.0517   33.3518   50.0986 H   0  0  0  0  0  0  0  0  0  0  0  0
   61.7132   34.2220   50.1074 H   0  0  0  0  0  0  0  0  0  0  0  0
  1  2  1  0
  2  3  1  0
  3  4  2  3
  4  5  1  0
  5  6  1  0
  6  7  2  0
  7  8  1  0
  8  9  2  0
  9 10  1  0
 10 11  2  0
  3 12  1  0
 12 13  2  0
 12 14  1  0
 14 15  2  3
 15 16  1  0
 16 17  2  0
 17 18  1  0
 18 19  1  0
 19 20  2  0
 11  6  1  0
 20 15  1  0
  1 21  1  0
  1 22  1  0
  1 23  1  0
  4 24  1  0
  5 25  1  0
  5 26  1  0
  7 27  1  0
  8 28  1  0
  9 29  1  0
 10 30  1  0
 11 31  1  0
 16 32  1  0
 17 33  1  0
 18 34  1  0
 19 35  1  0
 20 36  1  0
M  END
>  <UniqueID>  (23) 
22

>  <SMILES>  (23) 
COC(=CCc1ccccc1)C(=O)N=c1cc[nH]cc1

>  <Energy>  (23) 
45.533726951582935

>  <Genealogy>  (23) 
COC(=CCc1ccccc1)C(=O)N=c1cc[nH]cc1 (3D coordinates assigned)
COC(=CCc1ccccc1)C(=O)N=c1cc[nH]cc1 (optimized conformer: 45.533726951582935 kcal/mol)

>  <smiles>  (23) 
COC(=CCc1ccccc1)C(=O)N=c1cc[nH]cc1

>  <score_type>  (23) 
oracle

>  <origin>  (23) 
adg

>  <m_score__min__energy>  (23) 
-6.79

>  <m_primary>  (23) 
energy

$$$$
23:0
     RDKit          3D

 35 38  0  0  0  0  0  0  0  0999 V2000
   56.9770   21.1000   43.0420 C   0  0  0  0  0  0  0  0  0  0  0  0
   56.1020   21.9380   43.7900 O   0  0  0  0  0  0  0  0  0  0  0  0
   56.4110   23.2450   44.1950 C   0  0  0  0  0  0  0  0  0  0  0  0
   56.0860   23.7370   45.4720 C   0  0  0  0  0  0  0  0  0  0  0  0
   56.4160   25.0480   45.8290 C   0  0  0  0  0  0  0  0  0  0  0  0
   57.0820   25.8910   44.9200 C   0  0  0  0  0  0  0  0  0  0  0  0
   57.4320   27.2870   45.2810 C   0  0  0  0  0  0  0  0  0  0  0  0
   58.1580   27.5210   46.4210 N   0  0  0  0  0  0  0  0  0  0  0  0
   58.5100   28.7780   46.8080 C   0  0  0  0  0  0  0  0  0  0  0  0
   59.1770   28.9540   47.8620 O   0  0  0  0  0  0  0  0  0  0  0  0
   58.1160   29.8520   46.0150 C   0  0  0  0  0  0  0  0  0  0  0  0
   58.3380   31.2160   46.1910 C   0  0  0  0  0  0  0  0  0  0  0  0
   57.7900   31.9790   45.2220 C   0  0  0  0  0  0  0  0  0  0  0  0
   56.9830   31.0450   44.0670 S   0  0  0  0  0  0  0  0  0  0  0  0
   57.3770   29.6010   44.8710 C   0  0  0  0  0  0  0  0  0  0  0  0
   57.0330   28.3430   44.5030 N   0  0  0  0  0  0  0  0  0  0  0  0
   58.0030   33.4220   45.4060 C   0  0  0  0  0  0  0  0  0  0  0  0
   58.8300   33.4720   46.7180 C   0  0  0  0  0  0  0  0  0  0  0  0
   59.0300   32.0180   47.2200 C   0  0  0  0  0  0  0  0  0  0  0  0
   57.3920   25.3970   43.6410 C   0  0  0  0  0  0  0  0  0  0  0  0
   57.0620   24.0860   43.2860 C   0  0  0  0  0  0  0  0  0  0  0  0
   57.5958   20.5074   43.7318 H   0  0  0  0  0  0  0  0  0  0  0  0
   56.3844   20.4240   42.4081 H   0  0  0  0  0  0  0  0  0  0  0  0
   57.6268   21.7213   42.4081 H   0  0  0  0  0  0  0  0  0  0  0  0
   55.5695   23.0870   46.1936 H   0  0  0  0  0  0  0  0  0  0  0  0
   56.1528   25.4236   46.8288 H   0  0  0  0  0  0  0  0  0  0  0  0
   56.4460   28.2060   43.6500 H   0  0  0  0  0  0  0  0  0  0  0  0
   58.5658   33.8517   44.5642 H   0  0  0  0  0  0  0  0  0  0  0  0
   57.0693   34.0017   45.4526 H   0  0  0  0  0  0  0  0  0  0  0  0
   59.8079   33.9370   46.5244 H   0  0  0  0  0  0  0  0  0  0  0  0
   58.3021   34.0672   47.4777 H   0  0  0  0  0  0  0  0  0  0  0  0
   60.0982   31.7602   47.2707 H   0  0  0  0  0  0  0  0  0  0  0  0
   58.6408   31.8514   48.2353 H   0  0  0  0  0  0  0  0  0  0  0  0
   57.8987   26.0478   42.9132 H   0  0  0  0  0  0  0  0  0  0  0  0
   57.3164   23.7122   42.2832 H   0  0  0  0  0  0  0  0  0  0  0  0
  1  2  1  0
  2  3  1  0
  3  4  2  0
  4  5  1  0
  5  6  2  0
  6  7  1  0
  7  8  2  0
  8  9  1  0
  9 10  2  0
  9 11  1  0
 11 12  1  0
 12 13  2  0
 13 14  1  0
 14 15  1  0
 15 16  1  0
 13 17  1  0
 17 18  1  0
 18 19  1  0
  6 20  1  0
 20 21  2  0
 21  3  1  0
 16  7  1  0
 15 11  2  0
 19 12  1  0
  1 22  1  0
  1 23  1  0
  1 24  1  0
  4 25  1  0
  5 26  1  0
 16 27  1  0
 17 28  1  0
 17 29  1  0
 18 30  1  0
 18 31  1  0
 19 32  1  0
 19 33  1  0
 20 34  1  0
 21 35  1  0
M  END
>  <UniqueID>  (24) 
23

>  <SMILES>  (24) 
COc1ccc(-c2nc(=O)c3c4c(sc3[nH]2)CCC4)cc1

>  <Energy>  (24) 
91.50741614206981

>  <Genealogy>  (24) 
COc1ccc(-c2nc(=O)c3c4c(sc3[nH]2)CCC4)cc1 (3D coordinates assigned)
COc1ccc(-c2nc(=O)c3c4c(sc3[nH]2)CCC4)cc1 (nonaromatic ring conformer: 91.50741614206981 kcal/mol)

>  <smiles>  (24) 
COc1ccc(-c2nc(=O)c3c4c(sc3[nH]2)CCC4)cc1

>  <score_type>  (24) 
oracle

>  <origin>  (24) 
adg

>  <m_score__min__energy>  (24) 
-7.2199999999999998

>  <m_primary>  (24) 
energy

$$$$
24:0
     RDKit          3D

 33 36  0  0  0  0  0  0  0  0999 V2000
   57.9830   30.7740   41.9070 H   0  0  0  0  0  0  0  0  0  0  0  0
   57.0070   30.9840   42.2060 N   0  0  0  0  0  0  0  0  0  0  0  0
   56.4450   30.4190   43.2270 C   0  0  0  0  0  0  0  0  0  0  0  0
   55.5130   29.4610   43.1220 N   0  0  0  0  0  0  0  0  0  0  0  0
   55.1830   29.1760   44.3520 O   0  0  0  0  0  0  0  0  0  0  0  0
   55.8290   29.8740   45.2460 N   0  0  0  0  0  0  0  0  0  0  0  0
   56.6490   30.6920   44.5630 C   0  0  0  0  0  0  0  0  0  0  0  0
   57.6120   31.6240   45.1880 C   0  0  0  0  0  0  0  0  0  0  0  0
   57.4450   32.9760   45.1530 N   0  0  0  0  0  0  0  0  0  0  0  0
   58.5660   33.4370   45.7340 C   0  0  0  0  0  0  0  0  0  0  0  0
   58.9290   34.7550   45.9890 C   0  0  0  0  0  0  0  0  0  0  0  0
   58.2826   35.5948   45.6942 H   0  0  0  0  0  0  0  0  0  0  0  0
   60.1580   34.9690   46.6400 C   0  0  0  0  0  0  0  0  0  0  0  0
   60.4942   35.9929   46.8606 H   0  0  0  0  0  0  0  0  0  0  0  0
   60.9600   33.8640   47.0100 C   0  0  0  0  0  0  0  0  0  0  0  0
   61.9181   34.0324   47.5235 H   0  0  0  0  0  0  0  0  0  0  0  0
   60.5530   32.5880   46.7340 N   0  0  0  0  0  0  0  0  0  0  0  0
   59.3710   32.4060   46.0930 C   0  0  0  0  0  0  0  0  0  0  0  0
   58.7920   31.2440   45.7620 N   0  0  0  0  0  0  0  0  0  0  0  0
   59.2840   29.9230   46.0440 C   0  0  0  0  0  0  0  0  0  0  0  0
   59.4500   28.9900   45.0080 C   0  0  0  0  0  0  0  0  0  0  0  0
   59.2078   29.2723   43.9728 H   0  0  0  0  0  0  0  0  0  0  0  0
   59.9210   27.7060   45.2860 C   0  0  0  0  0  0  0  0  0  0  0  0
   60.0611   26.9841   44.4679 H   0  0  0  0  0  0  0  0  0  0  0  0
   60.2150   27.3350   46.6000 C   0  0  0  0  0  0  0  0  0  0  0  0
   60.5974   26.3257   46.8124 H   0  0  0  0  0  0  0  0  0  0  0  0
   60.0240   28.2460   47.6500 C   0  0  0  0  0  0  0  0  0  0  0  0
   60.3740   27.8610   49.0570 C   0  0  0  0  0  0  0  0  0  0  0  0
   59.8052   28.4866   49.7606 H   0  0  0  0  0  0  0  0  0  0  0  0
   60.1221   26.8029   49.2210 H   0  0  0  0  0  0  0  0  0  0  0  0
   61.4513   28.0112   49.2210 H   0  0  0  0  0  0  0  0  0  0  0  0
   59.5700   29.5430   47.3640 C   0  0  0  0  0  0  0  0  0  0  0  0
   59.4374   30.2673   48.1812 H   0  0  0  0  0  0  0  0  0  0  0  0
  1  2  1  0
  2  3  2  0
  3  4  1  0
  4  5  1  0
  5  6  1  0
  6  7  2  0
  7  8  1  0
  8  9  2  0
  9 10  1  0
 10 11  2  0
 11 12  1  0
 11 13  1  0
 13 14  1  0
 13 15  2  0
 15 16  1  0
 15 17  1  0
 17 18  2  0
 18 19  1  0
 19 20  1  0
 20 21  2  0
 21 22  1  0
 21 23  1  0
 23 24  1  0
 23 25  2  0
 25 26  1  0
 25 27  1  0
 27 28  1  0
 28 29  1  0
 28 30  1  0
 28 31  1  0
 27 32  2  0
 32 33  1  0
  7  3  1  0
 19  8  1  0
 32 20  1  0
 18 10  1  0
M  CHG  1   4  -1
M  END
>  <UniqueID>  (25) 
24

>  <SMILES>  (25) 
[H]/N=c1/[n-]onc1-c1nc2cccnc2n1-c1cccc(C)c1

>  <Energy>  (25) 
121.39172462437683

>  <Genealogy>  (25) 
Cc1cccc(-n2c(-c3no[n-]c3=N)nc3cccnc32)c1 (protonated)
[H]/N=c1/[n-]onc1-c1nc2cccnc2n1-c1cccc(C)c1 (cis-trans isomerization)
[H]/N=c1/[n-]onc1-c1nc2cccnc2n1-c1cccc(C)c1 (3D coordinates assigned)
[H]/N=c1/[n-]onc1-c1nc2cccnc2n1-c1cccc(C)c1 (optimized conformer: 121.39172462437683 kcal/mol)

>  <smiles>  (25) 
Cc1cccc(-n2c(-c3no[nH]c3=N)nc3cccnc32)c1

>  <score_type>  (25) 
oracle

>  <origin>  (25) 
adg

>  <m_score__min__energy>  (25) 
-9.1799999999999997

>  <m_primary>  (25) 
energy

$$$$
25:0
     RDKit          3D

 43 45  0  0  0  0  0  0  0  0999 V2000
   65.1100   32.3550   50.3090 C   0  0  0  0  0  0  0  0  0  0  0  0
   63.7390   32.6890   50.1200 O   0  0  0  0  0  0  0  0  0  0  0  0
   63.1760   33.0550   48.8890 C   0  0  0  0  0  0  0  0  0  0  0  0
   63.9830   33.0350   47.7500 C   0  0  0  0  0  0  0  0  0  0  0  0
   63.4700   33.3730   46.5400 N   0  0  0  0  0  0  0  0  0  0  0  0
   62.1710   33.7370   46.3850 C   0  0  0  0  0  0  0  0  0  0  0  0
   61.3040   33.7790   47.4940 C   0  0  0  0  0  0  0  0  0  0  0  0
   59.9090   34.1490   47.3370 N   0  0  0  0  0  0  0  0  0  0  0  0
   59.5490   35.2390   46.4050 C   0  0  0  0  0  0  0  0  0  0  0  0
   59.2750   34.7590   44.9660 C   0  0  0  0  0  0  0  0  0  0  0  0
   58.0410   33.8510   44.8650 C   0  0  0  0  0  0  0  0  0  0  0  0
   58.0280   32.7680   45.8640 N   0  0  0  0  0  0  0  0  0  0  0  0
   57.9890   31.4090   45.3840 C   0  0  0  0  0  0  0  0  0  0  0  0
   56.9190   30.9430   44.9030 O   0  0  0  0  0  0  0  0  0  0  0  0
   59.1600   30.5820   45.4310 N   0  0  0  0  0  0  0  0  0  0  0  0
   59.1200   29.1770   45.0400 C   0  0  0  0  0  0  0  0  0  0  0  0
   58.6510   28.2590   46.1550 C   0  0  0  0  0  0  0  0  0  0  0  0
   60.1230   28.3070   45.7780 C   0  0  0  0  0  0  0  0  0  0  0  0
   57.6600   33.0500   47.2640 C   0  0  0  0  0  0  0  0  0  0  0  0
   58.8630   33.4790   48.1300 C   0  0  0  0  0  0  0  0  0  0  0  0
   61.8310   33.4390   48.7540 C   0  0  0  0  0  0  0  0  0  0  0  0
   65.3293   32.3016   51.3856 H   0  0  0  0  0  0  0  0  0  0  0  0
   65.3174   31.3801   49.8437 H   0  0  0  0  0  0  0  0  0  0  0  0
   65.7426   33.1253   49.8437 H   0  0  0  0  0  0  0  0  0  0  0  0
   65.0404   32.7437   47.8338 H   0  0  0  0  0  0  0  0  0  0  0  0
   61.7933   34.0009   45.3862 H   0  0  0  0  0  0  0  0  0  0  0  0
   58.6432   35.7349   46.7840 H   0  0  0  0  0  0  0  0  0  0  0  0
   60.4118   35.9196   46.3579 H   0  0  0  0  0  0  0  0  0  0  0  0
   59.1163   35.6396   44.3262 H   0  0  0  0  0  0  0  0  0  0  0  0
   60.1460   34.1703   44.6424 H   0  0  0  0  0  0  0  0  0  0  0  0
   57.1415   34.4679   45.0078 H   0  0  0  0  0  0  0  0  0  0  0  0
   58.0669   33.3771   43.8727 H   0  0  0  0  0  0  0  0  0  0  0  0
   60.0880   31.0160   45.6190 H   0  0  0  0  0  0  0  0  0  0  0  0
   58.8512   29.3290   43.9842 H   0  0  0  0  0  0  0  0  0  0  0  0
   58.3142   28.6838   47.1122 H   0  0  0  0  0  0  0  0  0  0  0  0
   57.8958   27.4639   46.2422 H   0  0  0  0  0  0  0  0  0  0  0  0
   60.8514   28.7666   46.4622 H   0  0  0  0  0  0  0  0  0  0  0  0
   60.8744   27.5613   45.4793 H   0  0  0  0  0  0  0  0  0  0  0  0
   56.9148   33.8590   47.2742 H   0  0  0  0  0  0  0  0  0  0  0  0
   57.2617   32.1187   47.6931 H   0  0  0  0  0  0  0  0  0  0  0  0
   58.5102   34.1717   48.9082 H   0  0  0  0  0  0  0  0  0  0  0  0
   59.3023   32.5720   48.5707 H   0  0  0  0  0  0  0  0  0  0  0  0
   61.1833   33.4742   49.6424 H   0  0  0  0  0  0  0  0  0  0  0  0
  1  2  1  0
  2  3  1  0
  3  4  2  0
  4  5  1  0
  5  6  2  0
  6  7  1  0
  7  8  1  0
  8  9  1  0
  9 10  1  0
 10 11  1  0
 11 12  1  0
 12 13  1  0
 13 14  2  0
 13 15  1  0
 15 16  1  0
 16 17  1  0
 17 18  1  0
 12 19  1  0
 19 20  1  0
  7 21  2  0
 21  3  1  0
 20  8  1  0
 18 16  1  0
  1 22  1  0
  1 23  1  0
  1 24  1  0
  4 25  1  0
  6 26  1  0
  9 27  1  0
  9 28  1  0
 10 29  1  0
 10 30  1  0
 11 31  1  0
 11 32  1  0
 15 33  1  0
 16 34  1  0
 17 35  1  0
 17 36  1  0
 18 37  1  0
 18 38  1  0
 19 39  1  0
 19 40  1  0
 20 41  1  0
 20 42  1  0
 21 43  1  0
M  END
>  <UniqueID>  (26) 
25

>  <SMILES>  (26) 
COc1cncc(N2CCCN(C(=O)NC3CC3)CC2)c1

>  <Energy>  (26) 
315.7853958229266

>  <Genealogy>  (26) 
COc1cncc(N2CCCN(C(=O)NC3CC3)CC2)c1 (3D coordinates assigned)
COc1cncc(N2CCCN(C(=O)NC3CC3)CC2)c1 (nonaromatic ring conformer: 315.7853958229266 kcal/mol)

>  <smiles>  (26) 
COc1cncc(N2CCCN(C(=O)NC3CC3)CC2)c1

>  <score_type>  (26) 
oracle

>  <origin>  (26) 
adg

>  <m_score__min__energy>  (26) 
-4.7800000000000002

>  <m_primary>  (26) 
energy

$$$$
26:0
     RDKit          3D

 46 47  0  0  0  0  0  0  0  0999 V2000
   60.7680   27.3390   49.7050 C   0  0  0  0  0  0  0  0  0  0  0  0
   60.5310   26.7280   48.3290 C   0  0  0  0  0  0  0  0  0  0  0  0
   60.2020   27.7720   47.3610 N   0  0  0  0  0  0  0  0  0  0  0  0
   60.4840   29.0530   47.5590 N   0  0  0  0  0  0  0  0  0  0  0  0
   60.0570   29.7410   46.4810 C   0  0  0  0  0  0  0  0  0  0  0  0
   60.1510   31.2250   46.3470 C   0  0  0  0  0  0  0  0  0  0  0  0
   59.5050   28.8610   45.5650 C   0  0  0  0  0  0  0  0  0  0  0  0
   58.8170   29.2040   44.3480 N   0  0  0  0  0  0  0  0  0  0  0  0
   57.4570   28.6510   44.3660 C   0  0  0  0  0  0  0  0  0  0  0  0
   56.4760   29.6850   44.8270 C   0  0  0  0  0  0  0  0  0  0  0  0
   55.2430   29.4200   44.8530 O   0  0  0  0  0  0  0  0  0  0  0  0
   56.9490   30.9760   45.2160 N   0  0  0  0  0  0  0  0  0  0  0  0
   57.3380   32.0040   44.2600 C   0  0  0  0  0  0  0  0  0  0  0  0
   57.0250   33.3920   44.8230 C   0  0  0  0  0  0  0  0  0  0  0  0
   58.0560   33.8200   45.8360 C   0  0  0  0  0  0  0  0  0  0  0  0
   59.1690   34.5810   45.4380 C   0  0  0  0  0  0  0  0  0  0  0  0
   60.1420   34.9480   46.3730 C   0  0  0  0  0  0  0  0  0  0  0  0
   60.0140   34.5530   47.7070 C   0  0  0  0  0  0  0  0  0  0  0  0
   58.9170   33.7860   48.1080 C   0  0  0  0  0  0  0  0  0  0  0  0
   57.9420   33.4160   47.1770 C   0  0  0  0  0  0  0  0  0  0  0  0
   59.6130   27.6110   46.1520 C   0  0  0  0  0  0  0  0  0  0  0  0
   59.0540   26.3190   45.6320 C   0  0  0  0  0  0  0  0  0  0  0  0
   60.4864   26.6130   50.4820 H   0  0  0  0  0  0  0  0  0  0  0  0
   61.8317   27.5977   49.8131 H   0  0  0  0  0  0  0  0  0  0  0  0
   60.1570   28.2473   49.8131 H   0  0  0  0  0  0  0  0  0  0  0  0
   61.4416   26.2043   48.0026 H   0  0  0  0  0  0  0  0  0  0  0  0
   59.6914   26.0201   48.3914 H   0  0  0  0  0  0  0  0  0  0  0  0
   60.1800   31.6823   47.3470 H   0  0  0  0  0  0  0  0  0  0  0  0
   61.0675   31.4862   45.7976 H   0  0  0  0  0  0  0  0  0  0  0  0
   59.2748   31.5998   45.7976 H   0  0  0  0  0  0  0  0  0  0  0  0
   59.3470   28.8280   43.5270 H   0  0  0  0  0  0  0  0  0  0  0  0
   58.7790   30.2450   44.2600 H   0  0  0  0  0  0  0  0  0  0  0  0
   57.1865   28.3222   43.3517 H   0  0  0  0  0  0  0  0  0  0  0  0
   57.4287   27.7990   45.0612 H   0  0  0  0  0  0  0  0  0  0  0  0
   58.4173   31.9268   44.0619 H   0  0  0  0  0  0  0  0  0  0  0  0
   56.7745   31.8589   43.3265 H   0  0  0  0  0  0  0  0  0  0  0  0
   57.0116   34.1185   43.9972 H   0  0  0  0  0  0  0  0  0  0  0  0
   56.0457   33.3503   45.3222 H   0  0  0  0  0  0  0  0  0  0  0  0
   59.2749   34.8889   44.3873 H   0  0  0  0  0  0  0  0  0  0  0  0
   61.0085   35.5479   46.0580 H   0  0  0  0  0  0  0  0  0  0  0  0
   60.7777   34.8461   48.4425 H   0  0  0  0  0  0  0  0  0  0  0  0
   58.8204   33.4728   49.1580 H   0  0  0  0  0  0  0  0  0  0  0  0
   57.0831   32.8068   47.4951 H   0  0  0  0  0  0  0  0  0  0  0  0
   58.7747   25.6735   46.4778 H   0  0  0  0  0  0  0  0  0  0  0  0
   58.1645   26.5249   45.0185 H   0  0  0  0  0  0  0  0  0  0  0  0
   59.8131   25.8116   45.0185 H   0  0  0  0  0  0  0  0  0  0  0  0
  1  2  1  0
  2  3  1  0
  3  4  1  0
  4  5  2  0
  5  6  1  0
  5  7  1  0
  7  8  1  0
  8  9  1  0
  9 10  1  0
 10 11  2  0
 10 12  1  0
 12 13  1  0
 13 14  1  0
 14 15  1  0
 15 16  2  0
 16 17  1  0
 17 18  2  0
 18 19  1  0
 19 20  2  0
  7 21  2  0
 21 22  1  0
 21  3  1  0
 20 15  1  0
  1 23  1  0
  1 24  1  0
  1 25  1  0
  2 26  1  0
  2 27  1  0
  6 28  1  0
  6 29  1  0
  6 30  1  0
  8 31  1  0
  8 32  1  0
  9 33  1  0
  9 34  1  0
 13 35  1  0
 13 36  1  0
 14 37  1  0
 14 38  1  0
 16 39  1  0
 17 40  1  0
 18 41  1  0
 19 42  1  0
 20 43  1  0
 22 44  1  0
 22 45  1  0
 22 46  1  0
M  CHG  2   8   1  12  -1
M  END
>  <UniqueID>  (27) 
26

>  <SMILES>  (27) 
CCn1nc(C)c([NH2+]CC(=O)[N-]CCc2ccccc2)c1C

>  <Energy>  (27) 
64.68199525636456

>  <Genealogy>  (27) 
CCn1nc(C)c([NH2+]CC(=O)[N-]CCc2ccccc2)c1C (protonated)
CCn1nc(C)c([NH2+]CC(=O)[N-]CCc2ccccc2)c1C (3D coordinates assigned)
CCn1nc(C)c([NH2+]CC(=O)[N-]CCc2ccccc2)c1C (optimized conformer: 64.68199525636456 kcal/mol)

>  <smiles>  (27) 
CCn1nc(C)c(NCC(=O)NCCc2ccccc2)c1C

>  <score_type>  (27) 
oracle

>  <origin>  (27) 
adg

>  <m_score__min__energy>  (27) 
-8.0800000000000001

>  <m_primary>  (27) 
energy

$$$$
27:0
     RDKit          3D

 30 31  0  0  0  0  0  0  0  0999 V2000
   61.5030   30.8700   47.1040 C   0  0  0  0  0  0  0  0  0  0  0  0
   60.1580   31.5580   46.9820 C   0  0  0  0  0  0  0  0  0  0  0  0
   60.0730   32.9190   47.3530 C   0  0  0  0  0  0  0  0  0  0  0  0
   61.4760   33.8240   48.3160 Br  0  0  0  0  0  0  0  0  0  0  0  0
   58.9350   33.6330   46.9960 C   0  0  0  0  0  0  0  0  0  0  0  0
   58.8200   34.8510   47.2960 O   0  0  0  0  0  0  0  0  0  0  0  0
   57.9570   33.0270   46.2910 N   0  0  0  0  0  0  0  0  0  0  0  0
   58.0090   31.7060   45.9950 C   0  0  0  0  0  0  0  0  0  0  0  0
   57.0950   31.2240   45.2730 O   0  0  0  0  0  0  0  0  0  0  0  0
   59.0420   30.9160   46.4610 N   0  0  0  0  0  0  0  0  0  0  0  0
   58.9640   29.4270   46.3030 C   0  0  2  0  0  0  0  0  0  0  0  0
   59.5120   28.9360   44.9530 C   0  0  0  0  0  0  0  0  0  0  0  0
   58.6230   27.7790   44.6120 C   0  0  2  0  0  0  0  0  0  0  0  0
   58.4910   27.6110   43.2240 O   0  0  0  0  0  0  0  0  0  0  0  0
   57.3160   28.1710   45.2850 C   0  0  2  0  0  0  0  0  0  0  0  0
   56.3610   28.9610   44.3750 C   0  0  0  0  0  0  0  0  0  0  0  0
   55.2640   29.4110   45.1210 O   0  0  0  0  0  0  0  0  0  0  0  0
   57.6300   28.9550   46.4140 O   0  0  0  0  0  0  0  0  0  0  0  0
   61.7541   30.7416   48.1672 H   0  0  0  0  0  0  0  0  0  0  0  0
   61.4565   29.8849   46.6167 H   0  0  0  0  0  0  0  0  0  0  0  0
   62.2746   31.4842   46.6167 H   0  0  0  0  0  0  0  0  0  0  0  0
   59.5867   29.0272   47.1168 H   0  0  0  0  0  0  0  0  0  0  0  0
   59.4403   29.7248   44.1897 H   0  0  0  0  0  0  0  0  0  0  0  0
   60.5756   28.6591   44.9985 H   0  0  0  0  0  0  0  0  0  0  0  0
   59.0075   26.8062   44.9524 H   0  0  0  0  0  0  0  0  0  0  0  0
   58.4240   28.5220   42.8350 H   0  0  0  0  0  0  0  0  0  0  0  0
   56.7895   27.2427   45.5518 H   0  0  0  0  0  0  0  0  0  0  0  0
   56.8925   29.8246   43.9487 H   0  0  0  0  0  0  0  0  0  0  0  0
   56.0071   28.3083   43.5633 H   0  0  0  0  0  0  0  0  0  0  0  0
   55.6290   29.7160   45.9920 H   0  0  0  0  0  0  0  0  0  0  0  0
  1  2  1  0
  2  3  2  0
  3  4  1  0
  3  5  1  0
  5  6  2  0
  5  7  1  0
  7  8  1  0
  8  9  2  0
  8 10  1  0
 10 11  1  0
 11 12  1  0
 12 13  1  0
 13 14  1  0
 13 15  1  0
 15 16  1  0
 16 17  1  0
 15 18  1  0
 10  2  1  0
 18 11  1  0
  1 19  1  0
  1 20  1  0
  1 21  1  0
 11 22  1  1
 12 23  1  0
 12 24  1  0
 13 25  1  1
 14 26  1  0
 15 27  1  1
 16 28  1  0
 16 29  1  0
 17 30  1  0
M  CHG  1   7  -1
M  END
>  <UniqueID>  (28) 
27

>  <SMILES>  (28) 
Cc1c(Br)c(=O)[n-]c(=O)n1[C@@H]1C[C@H](O)C(CO)O1

>  <Energy>  (28) 
49.16919407098018

>  <Genealogy>  (28) 
Cc1c(Br)c(=O)[n-]c(=O)n1C1CC(O)C(CO)O1 (protonated)
Cc1c(Br)c(=O)[n-]c(=O)n1[C@@H]1C[C@H](O)C(CO)O1 (chirality)
Cc1c(Br)c(=O)[n-]c(=O)n1[C@@H]1C[C@H](O)C(CO)O1 (3D coordinates assigned)
Cc1c(Br)c(=O)[n-]c(=O)n1[C@@H]1C[C@H](O)C(CO)O1 (nonaromatic ring conformer: 49.16919407098018 kcal/mol)

>  <smiles>  (28) 
Cc1c(Br)c(=O)[nH]c(=O)n1C1CC(O)C(CO)O1

>  <score_type>  (28) 
oracle

>  <origin>  (28) 
adg

>  <m_score__min__energy>  (28) 
-8.0199999999999996

>  <m_primary>  (28) 
energy

$$$$
28:0
     RDKit          3D

 38 40  0  0  0  0  0  0  0  0999 V2000
   57.9812   31.4821   42.3708 H   0  0  0  0  0  0  0  0  0  0  0  0
   57.6460   31.5130   43.4180 C   0  0  0  0  0  0  0  0  0  0  0  0
   57.3950   32.6590   43.9800 N   0  0  0  0  0  0  0  0  0  0  0  0
   58.0960   33.2400   45.0930 C   0  0  0  0  0  0  0  0  0  0  0  0
   58.9560   34.3460   44.9580 C   0  0  0  0  0  0  0  0  0  0  0  0
   59.1197   34.7946   43.9671 H   0  0  0  0  0  0  0  0  0  0  0  0
   59.6020   34.8760   46.0760 C   0  0  0  0  0  0  0  0  0  0  0  0
   60.2774   35.7362   45.9585 H   0  0  0  0  0  0  0  0  0  0  0  0
   59.3970   34.3200   47.3510 C   0  0  0  0  0  0  0  0  0  0  0  0
   60.0310   34.8270   48.4980 O   0  0  0  0  0  0  0  0  0  0  0  0
   61.1730   34.2390   49.1130 C   0  0  0  0  0  0  0  0  0  0  0  0
   61.0688   34.2926   50.2067 H   0  0  0  0  0  0  0  0  0  0  0  0
   61.2550   33.1866   48.8036 H   0  0  0  0  0  0  0  0  0  0  0  0
   62.0773   34.7836   48.8036 H   0  0  0  0  0  0  0  0  0  0  0  0
   58.5290   33.2270   47.4970 C   0  0  0  0  0  0  0  0  0  0  0  0
   58.3370   32.6950   48.7820 O   0  0  0  0  0  0  0  0  0  0  0  0
   58.9580   31.5080   49.2660 C   0  0  0  0  0  0  0  0  0  0  0  0
   58.9545   31.5147   50.3660 H   0  0  0  0  0  0  0  0  0  0  0  0
   58.4037   30.6300   48.9029 H   0  0  0  0  0  0  0  0  0  0  0  0
   59.9954   31.4627   48.9029 H   0  0  0  0  0  0  0  0  0  0  0  0
   57.8810   32.6980   46.3650 C   0  0  0  0  0  0  0  0  0  0  0  0
   57.1954   31.8458   46.4820 H   0  0  0  0  0  0  0  0  0  0  0  0
   57.4850   30.2490   44.1740 C   0  0  0  0  0  0  0  0  0  0  0  0
   58.5990   29.4680   44.5260 C   0  0  0  0  0  0  0  0  0  0  0  0
   59.6112   29.7906   44.2408 H   0  0  0  0  0  0  0  0  0  0  0  0
   58.4170   28.2810   45.2390 C   0  0  0  0  0  0  0  0  0  0  0  0
   59.5030   27.4740   45.6090 C   0  0  0  0  0  0  0  0  0  0  0  0
   60.5273   27.7701   45.3387 H   0  0  0  0  0  0  0  0  0  0  0  0
   59.2800   26.2910   46.3230 C   0  0  0  0  0  0  0  0  0  0  0  0
   60.1309   25.6571   46.6131 H   0  0  0  0  0  0  0  0  0  0  0  0
   57.9780   25.9120   46.6690 C   0  0  0  0  0  0  0  0  0  0  0  0
   57.8083   24.9821   47.2316 H   0  0  0  0  0  0  0  0  0  0  0  0
   56.8920   26.7130   46.3010 C   0  0  0  0  0  0  0  0  0  0  0  0
   55.8697   26.4115   46.5729 H   0  0  0  0  0  0  0  0  0  0  0  0
   57.1050   27.8980   45.5870 C   0  0  0  0  0  0  0  0  0  0  0  0
   56.0720   28.6580   45.2400 O   0  0  0  0  0  0  0  0  0  0  0  0
   56.2090   29.7940   44.5620 C   0  0  0  0  0  0  0  0  0  0  0  0
   55.1760   30.4570   44.2710 O   0  0  0  0  0  0  0  0  0  0  0  0
  1  2  1  0
  2  3  2  0
  3  4  1  0
  4  5  2  0
  5  6  1  0
  5  7  1  0
  7  8  1  0
  7  9  2  0
  9 10  1  0
 10 11  1  0
 11 12  1  0
 11 13  1  0
 11 14  1  0
  9 15  1  0
 15 16  1  0
 16 17  1  0
 17 18  1  0
 17 19  1  0
 17 20  1  0
 15 21  2  0
 21 22  1  0
  2 23  1  0
 23 24  2  0
 24 25  1  0
 24 26  1  0
 26 27  2  0
 27 28  1  0
 27 29  1  0
 29 30  1  0
 29 31  2  0
 31 32  1  0
 31 33  1  0
 33 34  1  0
 33 35  2  0
 35 36  1  0
 36 37  1  0
 37 38  2  0
 21  4  1  0
 37 23  1  0
 35 26  1  0
M  END
>  <UniqueID>  (29) 
28

>  <SMILES>  (29) 
COc1ccc(/N=C/c2cc3ccccc3oc2=O)cc1OC

>  <Energy>  (29) 
47.48889116899791

>  <Genealogy>  (29) 
COc1ccc(/N=C/c2cc3ccccc3oc2=O)cc1OC (cis-trans isomerization)
COc1ccc(/N=C/c2cc3ccccc3oc2=O)cc1OC (3D coordinates assigned)
COc1ccc(/N=C/c2cc3ccccc3oc2=O)cc1OC (optimized conformer: 47.48889116899791 kcal/mol)

>  <smiles>  (29) 
COc1ccc(N=Cc2cc3ccccc3oc2=O)cc1OC

>  <score_type>  (29) 
oracle

>  <origin>  (29) 
adg

>  <m_score__min__energy>  (29) 
-7.8700000000000001

>  <m_primary>  (29) 
energy

$$$$
29:0
     RDKit          3D

 39 38  0  0  0  0  0  0  0  0999 V2000
   59.0080   34.2740   47.4690 C   0  0  0  0  0  0  0  0  0  0  0  0
   59.6530   34.9840   46.2800 C   0  0  0  0  0  0  0  0  0  0  0  0
   59.0320   34.5870   44.9270 C   0  0  0  0  0  0  0  0  0  0  0  0
   57.7880   33.6850   45.0440 C   0  0  0  0  0  0  0  0  0  0  0  0
   57.7600   32.5180   44.0250 C   0  0  0  0  0  0  0  0  0  0  0  0
   57.9340   31.1260   44.6760 C   0  0  1  0  0  0  0  0  0  0  0  0
   58.6270   31.1910   46.0750 C   0  0  0  0  0  0  0  0  0  0  0  0
   59.6660   30.1570   46.4120 N   0  0  0  0  0  0  0  0  0  0  0  0
   59.1010   29.2700   47.4630 C   0  0  0  0  0  0  0  0  0  0  0  0
   60.8890   30.7800   46.9790 C   0  0  0  0  0  0  0  0  0  0  0  0
   60.0280   29.3090   45.2520 C   0  0  0  0  0  0  0  0  0  0  0  0
   56.6460   30.5560   44.8690 O   0  0  0  0  0  0  0  0  0  0  0  0
   56.2100   29.8750   43.7110 C   0  0  0  0  0  0  0  0  0  0  0  0
   59.3959   34.7010   48.4056 H   0  0  0  0  0  0  0  0  0  0  0  0
   57.9170   34.4088   47.4288 H   0  0  0  0  0  0  0  0  0  0  0  0
   59.2466   33.2009   47.4288 H   0  0  0  0  0  0  0  0  0  0  0  0
   59.5342   36.0693   46.4143 H   0  0  0  0  0  0  0  0  0  0  0  0
   60.7111   34.6844   46.2548 H   0  0  0  0  0  0  0  0  0  0  0  0
   58.7429   35.5065   44.3969 H   0  0  0  0  0  0  0  0  0  0  0  0
   59.7944   34.0061   44.3873 H   0  0  0  0  0  0  0  0  0  0  0  0
   57.7627   33.2598   46.0582 H   0  0  0  0  0  0  0  0  0  0  0  0
   56.9140   34.3174   44.8290 H   0  0  0  0  0  0  0  0  0  0  0  0
   56.7940   32.5381   43.4991 H   0  0  0  0  0  0  0  0  0  0  0  0
   58.6100   32.6643   43.3422 H   0  0  0  0  0  0  0  0  0  0  0  0
   58.5680   30.5298   44.0033 H   0  0  0  0  0  0  0  0  0  0  0  0
   59.1123   32.1752   46.1512 H   0  0  0  0  0  0  0  0  0  0  0  0
   57.8122   30.9949   46.7875 H   0  0  0  0  0  0  0  0  0  0  0  0
   59.3555   29.6696   48.4558 H   0  0  0  0  0  0  0  0  0  0  0  0
   58.0072   29.2246   47.3554 H   0  0  0  0  0  0  0  0  0  0  0  0
   59.5223   28.2596   47.3554 H   0  0  0  0  0  0  0  0  0  0  0  0
   60.8381   30.7541   48.0775 H   0  0  0  0  0  0  0  0  0  0  0  0
   61.7751   30.2234   46.6397 H   0  0  0  0  0  0  0  0  0  0  0  0
   60.9597   31.8240   46.6397 H   0  0  0  0  0  0  0  0  0  0  0  0
   60.4363   28.3525   45.6103 H   0  0  0  0  0  0  0  0  0  0  0  0
   59.1322   29.1199   44.6423 H   0  0  0  0  0  0  0  0  0  0  0  0
   60.7842   29.8251   44.6423 H   0  0  0  0  0  0  0  0  0  0  0  0
   55.6383   28.9821   44.0041 H   0  0  0  0  0  0  0  0  0  0  0  0
   55.5696   30.5405   43.1135 H   0  0  0  0  0  0  0  0  0  0  0  0
   57.0824   29.5720   43.1135 H   0  0  0  0  0  0  0  0  0  0  0  0
  1  2  1  0
  2  3  1  0
  3  4  1  0
  4  5  1  0
  5  6  1  0
  6  7  1  0
  7  8  1  0
  8  9  1  0
  8 10  1  0
  8 11  1  0
  6 12  1  0
 12 13  1  0
  1 14  1  0
  1 15  1  0
  1 16  1  0
  2 17  1  0
  2 18  1  0
  3 19  1  0
  3 20  1  0
  4 21  1  0
  4 22  1  0
  5 23  1  0
  5 24  1  0
  6 25  1  6
  7 26  1  0
  7 27  1  0
  9 28  1  0
  9 29  1  0
  9 30  1  0
 10 31  1  0
 10 32  1  0
 10 33  1  0
 11 34  1  0
 11 35  1  0
 11 36  1  0
 13 37  1  0
 13 38  1  0
 13 39  1  0
M  CHG  1   8   1
M  END
>  <UniqueID>  (30) 
29

>  <SMILES>  (30) 
CCCCC[C@@H](C[N+](C)(C)C)OC

>  <Energy>  (30) 
45.675592912021564

>  <Genealogy>  (30) 
CCCCC[C@@H](C[N+](C)(C)C)OC (chirality)
CCCCC[C@@H](C[N+](C)(C)C)OC (3D coordinates assigned)
CCCCC[C@@H](C[N+](C)(C)C)OC (optimized conformer: 45.675592912021564 kcal/mol)

>  <smiles>  (30) 
CCCCCC(C[N+](C)(C)C)OC

>  <score_type>  (30) 
oracle

>  <origin>  (30) 
adg

>  <m_score__min__energy>  (30) 
-3.1600000000000001

>  <m_primary>  (30) 
energy

$$$$
30:0
     RDKit          3D

 21 22  0  0  0  0  0  0  0  0999 V2000
   57.4660   32.3200   42.8630 O   0  0  0  0  0  0  0  0  0  0  0  0
   57.9820   31.7400   43.8530 C   0  0  0  0  0  0  0  0  0  0  0  0
   57.4270   30.4770   44.3410 C   0  0  0  0  0  0  0  0  0  0  0  0
   58.1410   29.3490   44.6890 C   0  0  0  0  0  0  0  0  0  0  0  0
   57.2340   28.4380   45.0910 N   0  0  0  0  0  0  0  0  0  0  0  0
   57.4900   27.1110   45.5880 C   0  0  0  0  0  0  0  0  0  0  0  0
   58.8100   26.6340   45.6540 C   0  0  0  0  0  0  0  0  0  0  0  0
   59.0760   25.3450   46.1240 C   0  0  0  0  0  0  0  0  0  0  0  0
   58.0280   24.5210   46.5390 C   0  0  0  0  0  0  0  0  0  0  0  0
   56.7130   24.9850   46.4880 C   0  0  0  0  0  0  0  0  0  0  0  0
   56.4380   26.2760   46.0220 C   0  0  0  0  0  0  0  0  0  0  0  0
   55.1220   26.7250   46.0190 O   0  0  0  0  0  0  0  0  0  0  0  0
   56.0360   28.9960   44.9970 N   0  0  0  0  0  0  0  0  0  0  0  0
   56.1150   30.2370   44.5390 N   0  0  0  0  0  0  0  0  0  0  0  0
   58.8545   32.1844   44.3542 H   0  0  0  0  0  0  0  0  0  0  0  0
   59.2325   29.2195   44.6466 H   0  0  0  0  0  0  0  0  0  0  0  0
   59.6404   27.2801   45.3333 H   0  0  0  0  0  0  0  0  0  0  0  0
   60.1125   24.9791   46.1670 H   0  0  0  0  0  0  0  0  0  0  0  0
   58.2390   23.5058   46.9062 H   0  0  0  0  0  0  0  0  0  0  0  0
   55.8892   24.3337   46.8153 H   0  0  0  0  0  0  0  0  0  0  0  0
   55.1360   28.5240   45.2350 H   0  0  0  0  0  0  0  0  0  0  0  0
  1  2  2  0
  2  3  1  0
  3  4  2  0
  4  5  1  0
  5  6  1  0
  6  7  2  0
  7  8  1  0
  8  9  2  0
  9 10  1  0
 10 11  2  0
 11 12  1  0
  5 13  1  0
 13 14  2  0
 14  3  1  0
 11  6  1  0
  2 15  1  0
  4 16  1  0
  7 17  1  0
  8 18  1  0
  9 19  1  0
 10 20  1  0
 13 21  1  0
M  CHG  2  12  -1  13   1
M  END
>  <UniqueID>  (31) 
30

>  <SMILES>  (31) 
O=Cc1cn(-c2ccccc2[O-])[nH+]n1

>  <Energy>  (31) 
60.6024468938528

>  <Genealogy>  (31) 
O=Cc1cn(-c2ccccc2[O-])[nH+]n1 (protonated)
O=Cc1cn(-c2ccccc2[O-])[nH+]n1 (3D coordinates assigned)
O=Cc1cn(-c2ccccc2[O-])[nH+]n1 (optimized conformer: 60.6024468938528 kcal/mol)

>  <smiles>  (31) 
O=Cc1cn(-c2ccccc2O)nn1

>  <score_type>  (31) 
oracle

>  <origin>  (31) 
adg

>  <m_score__min__energy>  (31) 
-8.7599999999999998

>  <m_primary>  (31) 
energy

$$$$
31:0
     RDKit          3D

 39 41  0  0  0  0  0  0  0  0999 V2000
   57.0560   24.4630   43.7750 C   0  0  0  0  0  0  0  0  0  0  0  0
   58.0800   24.7430   44.8700 C   0  0  0  0  0  0  0  0  0  0  0  0
   57.9180   26.1320   45.4000 C   0  0  0  0  0  0  0  0  0  0  0  0
   57.1740   27.0860   44.8000 N   0  0  0  0  0  0  0  0  0  0  0  0
   57.1360   28.2470   45.5130 C   0  0  0  0  0  0  0  0  0  0  0  0
   56.3850   29.4380   45.0640 C   0  0  0  0  0  0  0  0  0  0  0  0
   55.1410   29.3510   44.8830 O   0  0  0  0  0  0  0  0  0  0  0  0
   57.0370   30.6810   44.7760 N   0  0  0  0  0  0  0  0  0  0  0  0
   58.1260   31.2550   45.5120 C   0  0  0  0  0  0  0  0  0  0  0  0
   57.9460   32.4690   46.1750 C   0  0  0  0  0  0  0  0  0  0  0  0
   58.9670   33.0150   46.8860 N   0  0  0  0  0  0  0  0  0  0  0  0
   60.1740   32.3930   46.9820 C   0  0  0  0  0  0  0  0  0  0  0  0
   61.2470   32.9950   47.7400 N   0  0  0  0  0  0  0  0  0  0  0  0
   60.9580   34.1040   48.6600 C   0  0  0  0  0  0  0  0  0  0  0  0
   62.0520   34.2170   49.7250 C   0  0  0  0  0  0  0  0  0  0  0  0
   63.3330   34.2470   49.1300 O   0  0  0  0  0  0  0  0  0  0  0  0
   63.5910   33.0050   48.5070 C   0  0  0  0  0  0  0  0  0  0  0  0
   62.6410   32.7790   47.3280 C   0  0  0  0  0  0  0  0  0  0  0  0
   60.3570   31.1950   46.3640 N   0  0  0  0  0  0  0  0  0  0  0  0
   59.3640   30.6140   45.6420 C   0  0  0  0  0  0  0  0  0  0  0  0
   57.8350   28.2070   46.7190 C   0  0  0  0  0  0  0  0  0  0  0  0
   58.5270   26.6790   46.8680 S   0  0  0  0  0  0  0  0  0  0  0  0
   56.0916   24.1993   44.2336 H   0  0  0  0  0  0  0  0  0  0  0  0
   56.9320   25.3602   43.1508 H   0  0  0  0  0  0  0  0  0  0  0  0
   57.4058   23.6275   43.1508 H   0  0  0  0  0  0  0  0  0  0  0  0
   57.9376   24.0242   45.6904 H   0  0  0  0  0  0  0  0  0  0  0  0
   59.0897   24.6411   44.4455 H   0  0  0  0  0  0  0  0  0  0  0  0
   56.6650   26.9300   43.9010 H   0  0  0  0  0  0  0  0  0  0  0  0
   56.9760   32.9851   46.1221 H   0  0  0  0  0  0  0  0  0  0  0  0
   60.9093   35.0436   48.0901 H   0  0  0  0  0  0  0  0  0  0  0  0
   59.9960   33.9116   49.1576 H   0  0  0  0  0  0  0  0  0  0  0  0
   61.9003   35.1421   50.3005 H   0  0  0  0  0  0  0  0  0  0  0  0
   61.9916   33.3396   50.3857 H   0  0  0  0  0  0  0  0  0  0  0  0
   64.6283   32.9939   48.1412 H   0  0  0  0  0  0  0  0  0  0  0  0
   63.4353   32.2028   49.2433 H   0  0  0  0  0  0  0  0  0  0  0  0
   62.8927   33.4824   46.5206 H   0  0  0  0  0  0  0  0  0  0  0  0
   62.7511   31.7424   46.9768 H   0  0  0  0  0  0  0  0  0  0  0  0
   59.5324   29.6399   45.1594 H   0  0  0  0  0  0  0  0  0  0  0  0
   57.9195   29.0289   47.4452 H   0  0  0  0  0  0  0  0  0  0  0  0
  1  2  1  0
  2  3  1  0
  3  4  2  0
  4  5  1  0
  5  6  1  0
  6  7  2  0
  6  8  1  0
  8  9  1  0
  9 10  2  0
 10 11  1  0
 11 12  2  0
 12 13  1  0
 13 14  1  0
 14 15  1  0
 15 16  1  0
 16 17  1  0
 17 18  1  0
 12 19  1  0
 19 20  2  0
  5 21  2  0
 21 22  1  0
 22  3  1  0
 20  9  1  0
 18 13  1  0
  1 23  1  0
  1 24  1  0
  1 25  1  0
  2 26  1  0
  2 27  1  0
  4 28  1  0
 10 29  1  0
 14 30  1  0
 14 31  1  0
 15 32  1  0
 15 33  1  0
 17 34  1  0
 17 35  1  0
 18 36  1  0
 18 37  1  0
 20 38  1  0
 21 39  1  0
M  CHG  2   4   1   8  -1
M  END
>  <UniqueID>  (32) 
31

>  <SMILES>  (32) 
CCc1[nH+]c(C(=O)[N-]c2cnc(N3CCOCC3)nc2)cs1

>  <Energy>  (32) 
72.98778612882246

>  <Genealogy>  (32) 
CCc1[nH+]c(C(=O)[N-]c2cnc(N3CCOCC3)nc2)cs1 (protonated)
CCc1[nH+]c(C(=O)[N-]c2cnc(N3CCOCC3)nc2)cs1 (3D coordinates assigned)
CCc1[nH+]c(C(=O)[N-]c2cnc(N3CCOCC3)nc2)cs1 (nonaromatic ring conformer: 72.98778612882246 kcal/mol)

>  <smiles>  (32) 
CCc1nc(C(=O)Nc2cnc(N3CCOCC3)nc2)cs1

>  <score_type>  (32) 
oracle

>  <origin>  (32) 
adg

>  <m_score__min__energy>  (32) 
-6.7000000000000002

>  <m_primary>  (32) 
energy

$$$$
32:0
     RDKit          3D

 40 42  0  0  0  0  0  0  0  0999 V2000
   57.7660   31.9030   43.3190 C   0  0  0  0  0  0  0  0  0  0  0  0
   57.0200   31.5750   44.6100 C   0  0  0  0  0  0  0  0  0  0  0  0
   56.9370   30.0620   44.8360 C   0  0  0  0  0  0  0  0  0  0  0  0
   58.1020   29.3930   44.2110 N   0  0  0  0  0  0  0  0  0  0  0  0
   57.7670   28.1950   43.3950 C   0  0  0  0  0  0  0  0  0  0  0  0
   58.2330   26.8600   44.0120 C   0  0  0  0  0  0  0  0  0  0  0  0
   58.0880   26.8620   45.5480 C   0  0  0  0  0  0  0  0  0  0  0  0
   58.9400   28.0150   46.1490 C   0  0  0  0  0  0  0  0  0  0  0  0
   59.2160   29.1670   45.1580 C   0  0  0  0  0  0  0  0  0  0  0  0
   58.5580   25.5010   46.1330 C   0  0  0  0  0  0  0  0  0  0  0  0
   57.6020   24.3740   45.8070 C   0  0  0  0  0  0  0  0  0  0  0  0
   58.0810   23.0610   45.6770 C   0  0  0  0  0  0  0  0  0  0  0  0
   57.1930   22.0070   45.4440 C   0  0  0  0  0  0  0  0  0  0  0  0
   55.8210   22.2530   45.3560 C   0  0  0  0  0  0  0  0  0  0  0  0
   55.3300   23.5530   45.5000 C   0  0  0  0  0  0  0  0  0  0  0  0
   56.2160   24.6190   45.7280 C   0  0  0  0  0  0  0  0  0  0  0  0
   55.7310   26.0040   45.8740 C   0  0  0  0  0  0  0  0  0  0  0  0
   54.5030   26.2570   45.9920 O   0  0  0  0  0  0  0  0  0  0  0  0
   56.6800   27.0720   45.9010 N   0  0  0  0  0  0  0  0  0  0  0  0
   58.7480   32.3348   43.5625 H   0  0  0  0  0  0  0  0  0  0  0  0
   57.9053   30.9831   42.7321 H   0  0  0  0  0  0  0  0  0  0  0  0
   57.1823   32.6275   42.7321 H   0  0  0  0  0  0  0  0  0  0  0  0
   57.5500   32.0352   45.4569 H   0  0  0  0  0  0  0  0  0  0  0  0
   55.9968   31.9707   44.5298 H   0  0  0  0  0  0  0  0  0  0  0  0
   56.9337   29.8544   45.9162 H   0  0  0  0  0  0  0  0  0  0  0  0
   56.0122   29.6784   44.3803 H   0  0  0  0  0  0  0  0  0  0  0  0
   56.6746   28.1557   43.2720 H   0  0  0  0  0  0  0  0  0  0  0  0
   58.2995   28.3045   42.4387 H   0  0  0  0  0  0  0  0  0  0  0  0
   57.6239   26.0433   43.5972 H   0  0  0  0  0  0  0  0  0  0  0  0
   59.2964   26.7209   43.7673 H   0  0  0  0  0  0  0  0  0  0  0  0
   58.4046   28.4255   47.0178 H   0  0  0  0  0  0  0  0  0  0  0  0
   59.9154   27.5850   46.4206 H   0  0  0  0  0  0  0  0  0  0  0  0
   59.3816   30.0909   45.7316 H   0  0  0  0  0  0  0  0  0  0  0  0
   60.1001   28.8877   44.5661 H   0  0  0  0  0  0  0  0  0  0  0  0
   59.5461   25.2587   45.7147 H   0  0  0  0  0  0  0  0  0  0  0  0
   58.5984   25.6016   47.2276 H   0  0  0  0  0  0  0  0  0  0  0  0
   59.1595   22.8607   45.7588 H   0  0  0  0  0  0  0  0  0  0  0  0
   57.5754   20.9820   45.3297 H   0  0  0  0  0  0  0  0  0  0  0  0
   55.1252   21.4210   45.1728 H   0  0  0  0  0  0  0  0  0  0  0  0
   54.2483   23.7421   45.4348 H   0  0  0  0  0  0  0  0  0  0  0  0
  1  2  1  0
  2  3  1  0
  3  4  1  0
  4  5  1  0
  5  6  1  0
  6  7  1  0
  7  8  1  0
  8  9  1  0
  7 10  1  0
 10 11  1  0
 11 12  2  0
 12 13  1  0
 13 14  2  0
 14 15  1  0
 15 16  2  0
 16 17  1  0
 17 18  2  0
 17 19  1  0
  9  4  1  0
 16 11  1  0
 19  7  1  0
  1 20  1  0
  1 21  1  0
  1 22  1  0
  2 23  1  0
  2 24  1  0
  3 25  1  0
  3 26  1  0
  5 27  1  0
  5 28  1  0
  6 29  1  0
  6 30  1  0
  8 31  1  0
  8 32  1  0
  9 33  1  0
  9 34  1  0
 10 35  1  0
 10 36  1  0
 12 37  1  0
 13 38  1  0
 14 39  1  0
 15 40  1  0
M  CHG  1  19  -1
M  END
>  <UniqueID>  (33) 
32

>  <SMILES>  (33) 
CCCN1CCC2(CC1)Cc1ccccc1C(=O)[N-]2

>  <Energy>  (33) 
50.98907593051189

>  <Genealogy>  (33) 
CCCN1CCC2(CC1)Cc1ccccc1C(=O)[N-]2 (protonated)
CCCN1CCC2(CC1)Cc1ccccc1C(=O)[N-]2 (3D coordinates assigned)
CCCN1CCC2(CC1)Cc1ccccc1C(=O)[N-]2 (nonaromatic ring conformer: 50.98907593051189 kcal/mol)

>  <smiles>  (33) 
CCCN1CCC2(CC1)Cc1ccccc1C(=O)N2

>  <score_type>  (33) 
oracle

>  <origin>  (33) 
adg

>  <m_score__min__energy>  (33) 
-8.5

>  <m_primary>  (33) 
energy

$$$$
33:0
     RDKit          3D

 58 61  0  0  0  0  0  0  0  0999 V2000
   58.8360   29.8080   44.7240 N   0  0  0  0  0  0  0  0  0  0  0  0
   57.8590   30.7510   45.1710 C   0  0  0  0  0  0  0  0  0  0  0  0
   56.6450   30.4140   45.2090 O   0  0  0  0  0  0  0  0  0  0  0  0
   58.2490   32.1370   45.5050 C   0  0  0  0  0  0  0  0  0  0  0  0
   57.3860   33.1540   45.0610 C   0  0  0  0  0  0  0  0  0  0  0  0
   57.7800   34.4890   45.0890 C   0  0  0  0  0  0  0  0  0  0  0  0
   59.0550   34.8310   45.5300 C   0  0  0  0  0  0  0  0  0  0  0  0
   59.9260   33.8460   46.0160 C   0  0  0  0  0  0  0  0  0  0  0  0
   61.2120   34.2160   46.4340 C   0  0  0  0  0  0  0  0  0  0  0  0
   62.0850   33.2650   46.9500 C   0  0  0  0  0  0  0  0  0  0  0  0
   61.6650   31.9500   47.1230 C   0  0  0  0  0  0  0  0  0  0  0  0
   60.3690   31.5470   46.7460 C   0  0  0  0  0  0  0  0  0  0  0  0
   59.9070   30.2220   47.2330 C   0  0  0  0  0  0  0  0  0  0  0  0
   60.2840   29.1800   46.6290 O   0  0  0  0  0  0  0  0  0  0  0  0
   58.8900   30.1190   48.3410 C   0  0  0  0  0  0  0  0  0  0  0  0
   58.7920   31.4130   49.1660 C   0  0  0  0  0  0  0  0  0  0  0  0
   59.0730   31.1640   50.6550 C   0  0  0  0  0  0  0  0  0  0  0  0
   60.1780   32.0220   51.1410 N   0  0  0  0  0  0  0  0  0  0  0  0
   61.4060   31.2430   51.4560 C   0  0  0  0  0  0  0  0  0  0  0  0
   62.4420   31.2640   50.3170 C   0  0  0  0  0  0  0  0  0  0  0  0
   62.8390   32.7050   49.8990 C   0  0  0  0  0  0  0  0  0  0  0  0
   64.2430   33.0700   50.3500 C   0  0  0  0  0  0  0  0  0  0  0  0
   64.4620   34.0560   51.3300 C   0  0  0  0  0  0  0  0  0  0  0  0
   65.7620   34.3800   51.7340 C   0  0  0  0  0  0  0  0  0  0  0  0
   66.8570   33.7230   51.1640 C   0  0  0  0  0  0  0  0  0  0  0  0
   68.4870   34.1280   51.6740 Cl  0  0  0  0  0  0  0  0  0  0  0  0
   66.6540   32.7430   50.1890 C   0  0  0  0  0  0  0  0  0  0  0  0
   65.3560   32.4170   49.7820 C   0  0  0  0  0  0  0  0  0  0  0  0
   61.8100   33.7530   50.3660 C   0  0  0  0  0  0  0  0  0  0  0  0
   60.3960   33.1770   50.2360 C   0  0  0  0  0  0  0  0  0  0  0  0
   59.5080   32.4830   46.0890 C   0  0  0  0  0  0  0  0  0  0  0  0
   59.8390   30.0810   44.6310 H   0  0  0  0  0  0  0  0  0  0  0  0
   58.5480   28.8440   44.4460 H   0  0  0  0  0  0  0  0  0  0  0  0
   56.3857   32.8914   44.6863 H   0  0  0  0  0  0  0  0  0  0  0  0
   57.0827   35.2745   44.7622 H   0  0  0  0  0  0  0  0  0  0  0  0
   59.3813   35.8810   45.4970 H   0  0  0  0  0  0  0  0  0  0  0  0
   61.5323   35.2652   46.3532 H   0  0  0  0  0  0  0  0  0  0  0  0
   63.1111   33.5532   47.2224 H   0  0  0  0  0  0  0  0  0  0  0  0
   62.3554   31.2139   47.5608 H   0  0  0  0  0  0  0  0  0  0  0  0
   57.9056   29.9061   47.8988 H   0  0  0  0  0  0  0  0  0  0  0  0
   59.2098   29.3125   49.0172 H   0  0  0  0  0  0  0  0  0  0  0  0
   59.5259   32.1366   48.7815 H   0  0  0  0  0  0  0  0  0  0  0  0
   57.7669   31.8009   49.0722 H   0  0  0  0  0  0  0  0  0  0  0  0
   58.1645   31.3864   51.2339 H   0  0  0  0  0  0  0  0  0  0  0  0
   59.3661   30.1116   50.7835 H   0  0  0  0  0  0  0  0  0  0  0  0
   61.8689   31.6686   52.3585 H   0  0  0  0  0  0  0  0  0  0  0  0
   61.1020   30.1963   51.6043 H   0  0  0  0  0  0  0  0  0  0  0  0
   63.3451   30.7328   50.6521 H   0  0  0  0  0  0  0  0  0  0  0  0
   61.9862   30.7767   49.4425 H   0  0  0  0  0  0  0  0  0  0  0  0
   62.8381   32.7154   48.7990 H   0  0  0  0  0  0  0  0  0  0  0  0
   63.6045   34.5761   51.7820 H   0  0  0  0  0  0  0  0  0  0  0  0
   65.9227   35.1522   52.5007 H   0  0  0  0  0  0  0  0  0  0  0  0
   67.5160   32.2272   49.7409 H   0  0  0  0  0  0  0  0  0  0  0  0
   65.2025   31.6455   49.0131 H   0  0  0  0  0  0  0  0  0  0  0  0
   62.0040   34.0139   51.4169 H   0  0  0  0  0  0  0  0  0  0  0  0
   61.8966   34.6543   49.7413 H   0  0  0  0  0  0  0  0  0  0  0  0
   59.6684   33.9639   50.4838 H   0  0  0  0  0  0  0  0  0  0  0  0
   60.2674   32.8255   49.2016 H   0  0  0  0  0  0  0  0  0  0  0  0
  1  2  1  0
  2  3  2  0
  2  4  1  0
  4  5  2  0
  5  6  1  0
  6  7  2  0
  7  8  1  0
  8  9  2  0
  9 10  1  0
 10 11  2  0
 11 12  1  0
 12 13  1  0
 13 14  2  0
 13 15  1  0
 15 16  1  0
 16 17  1  0
 17 18  1  0
 18 19  1  0
 19 20  1  0
 20 21  1  0
 21 22  1  0
 22 23  2  0
 23 24  1  0
 24 25  2  0
 25 26  1  0
 25 27  1  0
 27 28  2  0
 21 29  1  0
 29 30  1  0
 12 31  2  0
 31  4  1  0
 31  8  1  0
 30 18  1  0
 28 22  1  0
  1 32  1  0
  1 33  1  0
  5 34  1  0
  6 35  1  0
  7 36  1  0
  9 37  1  0
 10 38  1  0
 11 39  1  0
 15 40  1  0
 15 41  1  0
 16 42  1  0
 16 43  1  0
 17 44  1  0
 17 45  1  0
 19 46  1  0
 19 47  1  0
 20 48  1  0
 20 49  1  0
 21 50  1  0
 23 51  1  0
 24 52  1  0
 27 53  1  0
 28 54  1  0
 29 55  1  0
 29 56  1  0
 30 57  1  0
 30 58  1  0
M  END
>  <UniqueID>  (34) 
33

>  <SMILES>  (34) 
NC(=O)c1cccc2cccc(C(=O)CCCN3CCC(c4ccc(Cl)cc4)CC3)c12

>  <Energy>  (34) 
89.23269984671619

>  <Genealogy>  (34) 
NC(=O)c1cccc2cccc(C(=O)CCCN3CCC(c4ccc(Cl)cc4)CC3)c12 (3D coordinates assigned)
NC(=O)c1cccc2cccc(C(=O)CCCN3CCC(c4ccc(Cl)cc4)CC3)c12 (nonaromatic ring conformer: 89.23269984671619 kcal/mol)

>  <smiles>  (34) 
NC(=O)c1cccc2cccc(C(=O)CCCN3CCC(c4ccc(Cl)cc4)CC3)c12

>  <score_type>  (34) 
oracle

>  <origin>  (34) 
adg

>  <m_score__min__energy>  (34) 
-11.029999999999999

>  <m_primary>  (34) 
energy

$$$$
34:0
     RDKit          3D

 37 38  0  0  0  0  0  0  0  0999 V2000
   59.9960   34.2540   46.7610 C   0  0  0  0  0  0  0  0  0  0  0  0
   58.5650   34.5230   46.3150 C   0  0  0  0  0  0  0  0  0  0  0  0
   58.1640   33.5550   45.2990 N   0  0  0  0  0  0  0  0  0  0  0  0
   57.6010   32.3530   45.5330 C   0  0  0  0  0  0  0  0  0  0  0  0
   57.4560   31.7110   44.3250 C   0  0  0  0  0  0  0  0  0  0  0  0
   56.8450   30.0820   44.0700 S   0  0  0  0  0  0  0  0  0  0  0  0
   56.5170   29.9070   42.6140 O   0  0  0  0  0  0  0  0  0  0  0  0
   55.5880   29.8970   44.8750 O   0  0  0  0  0  0  0  0  0  0  0  0
   58.0400   28.9060   44.5580 N   0  0  0  0  0  0  0  0  0  0  0  0
   59.2420   29.5890   45.0710 C   0  0  0  0  0  0  0  0  0  0  0  0
   60.3840   28.5870   45.3380 C   0  0  0  0  0  0  0  0  0  0  0  0
   59.8710   27.1690   45.6380 C   0  0  0  0  0  0  0  0  0  0  0  0
   58.5300   27.2130   46.3720 C   0  0  0  0  0  0  0  0  0  0  0  0
   57.4600   27.9890   45.5700 C   0  0  0  0  0  0  0  0  0  0  0  0
   57.9630   32.5900   43.3840 C   0  0  0  0  0  0  0  0  0  0  0  0
   58.1350   32.3390   41.9210 C   0  0  0  0  0  0  0  0  0  0  0  0
   58.4070   33.7010   44.0050 N   0  0  0  0  0  0  0  0  0  0  0  0
   60.0420   34.2453   47.8600 H   0  0  0  0  0  0  0  0  0  0  0  0
   60.3239   33.2785   46.3726 H   0  0  0  0  0  0  0  0  0  0  0  0
   60.6557   35.0439   46.3726 H   0  0  0  0  0  0  0  0  0  0  0  0
   57.8925   34.4401   47.1815 H   0  0  0  0  0  0  0  0  0  0  0  0
   58.5057   35.5357   45.8896 H   0  0  0  0  0  0  0  0  0  0  0  0
   57.3090   31.9555   46.5162 H   0  0  0  0  0  0  0  0  0  0  0  0
   58.2960   28.3550   43.7060 H   0  0  0  0  0  0  0  0  0  0  0  0
   59.5792   30.3273   44.3285 H   0  0  0  0  0  0  0  0  0  0  0  0
   58.9833   30.0820   46.0197 H   0  0  0  0  0  0  0  0  0  0  0  0
   61.0315   28.5464   44.4497 H   0  0  0  0  0  0  0  0  0  0  0  0
   60.9322   28.9367   46.2252 H   0  0  0  0  0  0  0  0  0  0  0  0
   59.7444   26.6247   44.6905 H   0  0  0  0  0  0  0  0  0  0  0  0
   60.6048   26.6604   46.2806 H   0  0  0  0  0  0  0  0  0  0  0  0
   58.1777   26.1832   46.5314 H   0  0  0  0  0  0  0  0  0  0  0  0
   58.6820   27.7324   47.3297 H   0  0  0  0  0  0  0  0  0  0  0  0
   56.8143   27.2628   45.0546 H   0  0  0  0  0  0  0  0  0  0  0  0
   56.8977   28.6059   46.2864 H   0  0  0  0  0  0  0  0  0  0  0  0
   58.7512   31.4398   41.7732 H   0  0  0  0  0  0  0  0  0  0  0  0
   57.1493   32.1885   41.4564 H   0  0  0  0  0  0  0  0  0  0  0  0
   58.6311   33.2039   41.4564 H   0  0  0  0  0  0  0  0  0  0  0  0
  1  2  1  0
  2  3  1  0
  3  4  1  0
  4  5  2  0
  5  6  1  0
  6  7  2  0
  6  8  2  0
  6  9  1  0
  9 10  1  0
 10 11  1  0
 11 12  1  0
 12 13  1  0
 13 14  1  0
  5 15  1  0
 15 16  1  0
 15 17  2  0
 17  3  1  0
 14  9  1  0
  1 18  1  0
  1 19  1  0
  1 20  1  0
  2 21  1  0
  2 22  1  0
  4 23  1  0
  9 24  1  0
 10 25  1  0
 10 26  1  0
 11 27  1  0
 11 28  1  0
 12 29  1  0
 12 30  1  0
 13 31  1  0
 13 32  1  0
 14 33  1  0
 14 34  1  0
 16 35  1  0
 16 36  1  0
 16 37  1  0
M  CHG  1   9   1
M  END
>  <UniqueID>  (35) 
34

>  <SMILES>  (35) 
CCn1cc(S(=O)(=O)[NH+]2CCCCC2)c(C)n1

>  <Energy>  (35) 
62.99371366654341

>  <Genealogy>  (35) 
CCn1cc(S(=O)(=O)[NH+]2CCCCC2)c(C)n1 (protonated)
CCn1cc(S(=O)(=O)[NH+]2CCCCC2)c(C)n1 (3D coordinates assigned)
CCn1cc(S(=O)(=O)[NH+]2CCCCC2)c(C)n1 (nonaromatic ring conformer: 62.99371366654341 kcal/mol)

>  <smiles>  (35) 
CCn1cc(S(=O)(=O)N2CCCCC2)c(C)n1

>  <score_type>  (35) 
oracle

>  <origin>  (35) 
adg

>  <m_score__min__energy>  (35) 
-5.4900000000000002

>  <m_primary>  (35) 
energy

$$$$
35:0
     RDKit          3D

 49 53  0  0  0  0  0  0  0  0999 V2000
   59.2800   33.4110   49.5760 C   0  0  0  0  0  0  0  0  0  0  0  0
   59.7460   34.1160   48.4310 O   0  0  0  0  0  0  0  0  0  0  0  0
   59.3060   33.8260   47.1360 C   0  0  0  0  0  0  0  0  0  0  0  0
   59.2370   34.8620   46.1820 C   0  0  0  0  0  0  0  0  0  0  0  0
   58.7870   34.5850   44.8830 C   0  0  0  0  0  0  0  0  0  0  0  0
   58.4330   33.2750   44.5850 C   0  0  0  0  0  0  0  0  0  0  0  0
   57.8150   32.6460   43.1580 S   0  0  0  0  0  0  0  0  0  0  0  0
   57.6540   31.0650   43.7400 C   0  0  0  0  0  0  0  0  0  0  0  0
   58.1000   31.0190   45.0640 C   0  0  0  0  0  0  0  0  0  0  0  0
   58.0660   29.8170   45.8510 N   0  0  0  0  0  0  0  0  0  0  0  0
   57.8750   28.5250   45.4560 C   0  0  0  0  0  0  0  0  0  0  0  0
   57.5190   28.1950   44.2930 O   0  0  0  0  0  0  0  0  0  0  0  0
   58.1620   27.6190   46.4310 N   0  0  0  0  0  0  0  0  0  0  0  0
   58.4400   26.1980   46.2560 C   0  0  0  0  0  0  0  0  0  0  0  0
   58.5310   28.3980   47.4620 C   0  0  0  0  0  0  0  0  0  0  0  0
   59.5150   28.1780   48.3430 N   0  0  0  0  0  0  0  0  0  0  0  0
   59.9770   29.4440   48.5580 C   0  0  0  0  0  0  0  0  0  0  0  0
   61.0710   29.7590   49.5070 C   0  0  0  0  0  0  0  0  0  0  0  0
   61.3180   28.8650   50.5650 C   0  0  0  0  0  0  0  0  0  0  0  0
   62.3830   29.0770   51.4420 C   0  0  0  0  0  0  0  0  0  0  0  0
   63.2120   30.1840   51.2790 C   0  0  0  0  0  0  0  0  0  0  0  0
   62.9710   31.0930   50.2470 C   0  0  0  0  0  0  0  0  0  0  0  0
   61.9010   30.8990   49.3560 C   0  0  0  0  0  0  0  0  0  0  0  0
   61.6090   31.9010   48.3690 N   0  0  0  0  0  0  0  0  0  0  0  0
   62.8430   32.7060   47.4540 S   0  0  0  0  0  0  0  0  0  0  0  0
   63.7690   33.7930   48.5150 C   0  0  0  0  0  0  0  0  0  0  0  0
   62.1950   33.5070   46.3600 O   0  0  0  0  0  0  0  0  0  0  0  0
   63.7640   31.6950   46.8310 O   0  0  0  0  0  0  0  0  0  0  0  0
   59.3930   30.3970   47.7740 N   0  0  0  0  0  0  0  0  0  0  0  0
   58.4600   29.6820   47.1300 C   0  0  0  0  0  0  0  0  0  0  0  0
   58.5240   32.2720   45.5310 C   0  0  0  0  0  0  0  0  0  0  0  0
   58.9430   32.5530   46.7920 N   0  0  0  0  0  0  0  0  0  0  0  0
   59.6201   33.9255   50.4869 H   0  0  0  0  0  0  0  0  0  0  0  0
   58.1806   33.3766   49.5631 H   0  0  0  0  0  0  0  0  0  0  0  0
   59.6791   32.3860   49.5631 H   0  0  0  0  0  0  0  0  0  0  0  0
   59.5353   35.8847   46.4559 H   0  0  0  0  0  0  0  0  0  0  0  0
   58.7166   35.3789   44.1249 H   0  0  0  0  0  0  0  0  0  0  0  0
   57.2615   30.2110   43.1684 H   0  0  0  0  0  0  0  0  0  0  0  0
   58.5338   25.7186   47.2416 H   0  0  0  0  0  0  0  0  0  0  0  0
   57.6165   25.7294   45.6972 H   0  0  0  0  0  0  0  0  0  0  0  0
   59.3794   26.0743   45.6972 H   0  0  0  0  0  0  0  0  0  0  0  0
   60.6653   27.9903   50.7024 H   0  0  0  0  0  0  0  0  0  0  0  0
   62.5677   28.3687   52.2631 H   0  0  0  0  0  0  0  0  0  0  0  0
   64.0578   30.3425   51.9642 H   0  0  0  0  0  0  0  0  0  0  0  0
   63.6249   31.9698   50.1299 H   0  0  0  0  0  0  0  0  0  0  0  0
   60.6170   32.1340   48.1460 H   0  0  0  0  0  0  0  0  0  0  0  0
   63.5588   33.5462   49.5661 H   0  0  0  0  0  0  0  0  0  0  0  0
   64.8441   33.6700   48.3175 H   0  0  0  0  0  0  0  0  0  0  0  0
   63.4767   34.8349   48.3175 H   0  0  0  0  0  0  0  0  0  0  0  0
  1  2  1  0
  2  3  1  0
  3  4  2  0
  4  5  1  0
  5  6  2  0
  6  7  1  0
  7  8  1  0
  8  9  2  0
  9 10  1  0
 10 11  1  0
 11 12  2  0
 11 13  1  0
 13 14  1  0
 13 15  1  0
 15 16  1  0
 16 17  2  0
 17 18  1  0
 18 19  2  0
 19 20  1  0
 20 21  2  0
 21 22  1  0
 22 23  2  0
 23 24  1  0
 24 25  1  0
 25 26  1  0
 25 27  2  0
 25 28  2  0
 17 29  1  0
 29 30  1  0
  9 31  1  0
 31 32  2  0
 32  3  1  0
 31  6  1  0
 30 10  1  0
 30 15  2  0
 23 18  1  0
  1 33  1  0
  1 34  1  0
  1 35  1  0
  4 36  1  0
  5 37  1  0
  8 38  1  0
 14 39  1  0
 14 40  1  0
 14 41  1  0
 19 42  1  0
 20 43  1  0
 21 44  1  0
 22 45  1  0
 24 46  1  0
 26 47  1  0
 26 48  1  0
 26 49  1  0
M  CHG  1  29  -1
M  END
>  <UniqueID>  (36) 
35

>  <SMILES>  (36) 
COc1ccc2scc(-n3c(=O)n(C)c4nc(-c5ccccc5NS(C)(=O)=O)[n-]c43)c2n1

>  <Energy>  (36) 
186.46136417535706

>  <Genealogy>  (36) 
COc1ccc2scc(-n3c(=O)n(C)c4nc(-c5ccccc5NS(C)(=O)=O)[n-]c43)c2n1 (protonated)
COc1ccc2scc(-n3c(=O)n(C)c4nc(-c5ccccc5NS(C)(=O)=O)[n-]c43)c2n1 (3D coordinates assigned)
COc1ccc2scc(-n3c(=O)n(C)c4nc(-c5ccccc5NS(C)(=O)=O)[n-]c43)c2n1 (optimized conformer: 186.46136417535706 kcal/mol)

>  <smiles>  (36) 
COc1ccc2scc(-n3c(=O)n(C)c4nc(-c5ccccc5NS(C)(=O)=O)[nH]c43)c2n1

>  <score_type>  (36) 
oracle

>  <origin>  (36) 
adg

>  <m_score__min__energy>  (36) 
-10.800000000000001

>  <m_primary>  (36) 
energy

$$$$
36:0
     RDKit          3D

 38 39  0  0  0  0  0  0  0  0999 V2000
   60.6910   34.2020   49.2680 C   0  0  0  0  0  0  0  0  0  0  0  0
   59.8300   33.9900   48.0510 C   0  0  0  0  0  0  0  0  0  0  0  0
   60.0520   34.7750   46.9070 C   0  0  0  0  0  0  0  0  0  0  0  0
   59.2710   34.6000   45.7630 C   0  0  0  0  0  0  0  0  0  0  0  0
   58.2570   33.6320   45.7380 C   0  0  0  0  0  0  0  0  0  0  0  0
   57.3900   33.4700   44.5160 C   0  0  0  0  0  0  0  0  0  0  0  0
   57.9080   32.3660   43.5800 C   0  0  0  0  0  0  0  0  0  0  0  0
   57.0200   31.1180   43.5670 C   0  0  0  0  0  0  0  0  0  0  0  0
   56.9320   30.5690   44.8790 O   0  0  0  0  0  0  0  0  0  0  0  0
   57.7470   29.5490   45.3970 C   0  0  0  0  0  0  0  0  0  0  0  0
   59.1050   29.7370   45.7480 C   0  0  0  0  0  0  0  0  0  0  0  0
   59.7250   30.9330   45.5910 F   0  0  0  0  0  0  0  0  0  0  0  0
   59.8480   28.6700   46.2640 C   0  0  0  0  0  0  0  0  0  0  0  0
   59.2580   27.4160   46.4340 C   0  0  0  0  0  0  0  0  0  0  0  0
   59.9850   26.3870   46.9340 F   0  0  0  0  0  0  0  0  0  0  0  0
   57.9200   27.2230   46.0880 C   0  0  0  0  0  0  0  0  0  0  0  0
   57.1700   28.2820   45.5710 C   0  0  0  0  0  0  0  0  0  0  0  0
   55.8690   28.0810   45.2410 F   0  0  0  0  0  0  0  0  0  0  0  0
   58.0270   32.8470   46.8770 C   0  0  0  0  0  0  0  0  0  0  0  0
   58.8110   33.0090   48.0340 C   0  0  0  0  0  0  0  0  0  0  0  0
   58.5330   32.1490   49.2380 C   0  0  0  0  0  0  0  0  0  0  0  0
   60.0868   34.0532   50.1751 H   0  0  0  0  0  0  0  0  0  0  0  0
   61.5223   33.4817   49.2590 H   0  0  0  0  0  0  0  0  0  0  0  0
   61.0929   35.2259   49.2590 H   0  0  0  0  0  0  0  0  0  0  0  0
   60.8481   35.5341   46.9128 H   0  0  0  0  0  0  0  0  0  0  0  0
   59.4522   35.2251   44.8762 H   0  0  0  0  0  0  0  0  0  0  0  0
   56.3697   33.2128   44.8368 H   0  0  0  0  0  0  0  0  0  0  0  0
   57.4072   34.4195   43.9609 H   0  0  0  0  0  0  0  0  0  0  0  0
   57.9582   32.7697   42.5580 H   0  0  0  0  0  0  0  0  0  0  0  0
   58.8963   32.0593   43.9530 H   0  0  0  0  0  0  0  0  0  0  0  0
   56.0132   31.3909   43.2180 H   0  0  0  0  0  0  0  0  0  0  0  0
   57.4589   30.3695   42.8910 H   0  0  0  0  0  0  0  0  0  0  0  0
   60.9029   28.8197   46.5373 H   0  0  0  0  0  0  0  0  0  0  0  0
   57.4551   26.2352   46.2226 H   0  0  0  0  0  0  0  0  0  0  0  0
   57.2239   32.0954   46.8658 H   0  0  0  0  0  0  0  0  0  0  0  0
   58.7204   32.7287   50.1538 H   0  0  0  0  0  0  0  0  0  0  0  0
   57.4831   31.8212   49.2199 H   0  0  0  0  0  0  0  0  0  0  0  0
   59.1923   31.2687   49.2199 H   0  0  0  0  0  0  0  0  0  0  0  0
  1  2  1  0
  2  3  2  0
  3  4  1  0
  4  5  2  0
  5  6  1  0
  6  7  1  0
  7  8  1  0
  8  9  1  0
  9 10  1  0
 10 11  2  0
 11 12  1  0
 11 13  1  0
 13 14  2  0
 14 15  1  0
 14 16  1  0
 16 17  2  0
 17 18  1  0
  5 19  1  0
 19 20  2  0
 20 21  1  0
 20  2  1  0
 17 10  1  0
  1 22  1  0
  1 23  1  0
  1 24  1  0
  3 25  1  0
  4 26  1  0
  6 27  1  0
  6 28  1  0
  7 29  1  0
  7 30  1  0
  8 31  1  0
  8 32  1  0
 13 33  1  0
 16 34  1  0
 19 35  1  0
 21 36  1  0
 21 37  1  0
 21 38  1  0
M  END
>  <UniqueID>  (37) 
36

>  <SMILES>  (37) 
Cc1ccc(CCCOc2c(F)cc(F)cc2F)cc1C

>  <Energy>  (37) 
35.05690082092075

>  <Genealogy>  (37) 
Cc1ccc(CCCOc2c(F)cc(F)cc2F)cc1C (3D coordinates assigned)
Cc1ccc(CCCOc2c(F)cc(F)cc2F)cc1C (optimized conformer: 35.05690082092075 kcal/mol)

>  <smiles>  (37) 
Cc1ccc(CCCOc2c(F)cc(F)cc2F)cc1C

>  <score_type>  (37) 
oracle

>  <origin>  (37) 
adg

>  <m_score__min__energy>  (37) 
-6.9699999999999998

>  <m_primary>  (37) 
energy

$$$$
37:0
     RDKit          3D

 53 56  0  0  0  0  0  0  0  0999 V2000
   58.1580   29.6330   49.2530 O   0  0  0  0  0  0  0  0  0  0  0  0
   59.3410   29.9280   49.1860 C   0  0  0  0  0  0  0  0  0  0  0  0
   60.3670   28.8320   49.2760 C   0  0  0  0  0  0  0  0  0  0  0  0
   59.8100   27.3710   48.3280 S   0  0  0  0  0  0  0  0  0  0  0  0
   59.2700   28.2970   46.8890 C   0  0  0  0  0  0  0  0  0  0  0  0
   60.2200   28.8440   46.0140 C   0  0  0  0  0  0  0  0  0  0  0  0
   59.8060   29.5550   44.8830 C   0  0  0  0  0  0  0  0  0  0  0  0
   58.4410   29.7270   44.6310 C   0  0  0  0  0  0  0  0  0  0  0  0
   57.4900   29.1700   45.4970 C   0  0  0  0  0  0  0  0  0  0  0  0
   57.9040   28.4700   46.6340 C   0  0  0  0  0  0  0  0  0  0  0  0
   56.1320   29.3250   45.2080 O   0  0  0  0  0  0  0  0  0  0  0  0
   55.6960   29.8020   43.9330 C   0  0  0  0  0  0  0  0  0  0  0  0
   56.6470   30.8880   43.4120 C   0  0  0  0  0  0  0  0  0  0  0  0
   58.0040   30.4550   43.5200 O   0  0  0  0  0  0  0  0  0  0  0  0
   59.7470   31.3100   48.9890 N   0  0  2  0  0  0  0  0  0  0  0  0
   58.5870   32.2110   48.7540 C   0  0  0  0  0  0  0  0  0  0  0  0
   58.6810   33.0560   47.5000 C   0  0  0  0  0  0  0  0  0  0  0  0
   57.9990   32.6810   46.3300 C   0  0  0  0  0  0  0  0  0  0  0  0
   58.0990   33.4580   45.1730 C   0  0  0  0  0  0  0  0  0  0  0  0
   58.8870   34.6110   45.1710 C   0  0  0  0  0  0  0  0  0  0  0  0
   59.5880   34.9800   46.3210 C   0  0  0  0  0  0  0  0  0  0  0  0
   59.4930   34.2040   47.4780 C   0  0  0  0  0  0  0  0  0  0  0  0
   60.7970   31.3970   47.9440 C   0  0  0  0  0  0  0  0  0  0  0  0
   62.1460   31.8080   48.5010 C   0  0  0  0  0  0  0  0  0  0  0  0
   62.6440   31.2220   49.6790 C   0  0  0  0  0  0  0  0  0  0  0  0
   63.8880   31.6050   50.1890 C   0  0  0  0  0  0  0  0  0  0  0  0
   64.6530   32.5640   49.5220 C   0  0  0  0  0  0  0  0  0  0  0  0
   66.3540   33.0850   50.2180 Br  0  0  0  0  0  0  0  0  0  0  0  0
   64.1810   33.1280   48.3330 C   0  0  0  0  0  0  0  0  0  0  0  0
   62.9380   32.7470   47.8210 C   0  0  0  0  0  0  0  0  0  0  0  0
   61.3209   29.1917   48.8630 H   0  0  0  0  0  0  0  0  0  0  0  0
   60.4992   28.5481   50.3305 H   0  0  0  0  0  0  0  0  0  0  0  0
   61.2931   28.7135   46.2178 H   0  0  0  0  0  0  0  0  0  0  0  0
   60.5517   29.9777   44.1937 H   0  0  0  0  0  0  0  0  0  0  0  0
   57.1576   28.0555   47.3276 H   0  0  0  0  0  0  0  0  0  0  0  0
   55.6775   28.9645   43.2201 H   0  0  0  0  0  0  0  0  0  0  0  0
   54.6890   30.2317   44.0391 H   0  0  0  0  0  0  0  0  0  0  0  0
   56.4159   31.0964   42.3569 H   0  0  0  0  0  0  0  0  0  0  0  0
   56.5138   31.7983   44.0150 H   0  0  0  0  0  0  0  0  0  0  0  0
   60.1780   31.6240   49.8870 H   0  0  0  0  0  0  0  0  0  0  0  0
   57.6815   31.5907   48.6813 H   0  0  0  0  0  0  0  0  0  0  0  0
   58.5655   32.9142   49.5996 H   0  0  0  0  0  0  0  0  0  0  0  0
   57.3825   31.7700   46.3249 H   0  0  0  0  0  0  0  0  0  0  0  0
   57.5567   33.1613   44.2631 H   0  0  0  0  0  0  0  0  0  0  0  0
   58.9555   35.2286   44.2634 H   0  0  0  0  0  0  0  0  0  0  0  0
   60.2159   35.8832   46.3154 H   0  0  0  0  0  0  0  0  0  0  0  0
   60.0566   34.4924   48.3775 H   0  0  0  0  0  0  0  0  0  0  0  0
   60.8994   30.4118   47.4655 H   0  0  0  0  0  0  0  0  0  0  0  0
   60.4860   32.1689   47.2247 H   0  0  0  0  0  0  0  0  0  0  0  0
   62.0508   30.4575   50.2021 H   0  0  0  0  0  0  0  0  0  0  0  0
   64.2647   31.1503   51.1170 H   0  0  0  0  0  0  0  0  0  0  0  0
   64.7894   33.8732   47.7995 H   0  0  0  0  0  0  0  0  0  0  0  0
   62.5775   33.1857   46.8789 H   0  0  0  0  0  0  0  0  0  0  0  0
  1  2  2  0
  2  3  1  0
  3  4  1  0
  4  5  1  0
  5  6  2  0
  6  7  1  0
  7  8  2  0
  8  9  1  0
  9 10  2  0
  9 11  1  0
 11 12  1  0
 12 13  1  0
 13 14  1  0
  2 15  1  0
 15 16  1  0
 16 17  1  0
 17 18  2  0
 18 19  1  0
 19 20  2  0
 20 21  1  0
 21 22  2  0
 15 23  1  0
 23 24  1  0
 24 25  2  0
 25 26  1  0
 26 27  2  0
 27 28  1  0
 27 29  1  0
 29 30  2  0
 10  5  1  0
 22 17  1  0
 30 24  1  0
 14  8  1  0
  3 31  1  0
  3 32  1  0
  6 33  1  0
  7 34  1  0
 10 35  1  0
 12 36  1  0
 12 37  1  0
 13 38  1  0
 13 39  1  0
 15 40  1  1
 16 41  1  0
 16 42  1  0
 18 43  1  0
 19 44  1  0
 20 45  1  0
 21 46  1  0
 22 47  1  0
 23 48  1  0
 23 49  1  0
 25 50  1  0
 26 51  1  0
 29 52  1  0
 30 53  1  0
M  CHG  1  15   1
M  END
>  <UniqueID>  (38) 
37

>  <SMILES>  (38) 
O=C(CSc1ccc2c(c1)OCCO2)[N@H+](Cc1ccccc1)Cc1ccc(Br)cc1

>  <Energy>  (38) 
58.504488123358

>  <Genealogy>  (38) 
O=C(CSc1ccc2c(c1)OCCO2)[NH+](Cc1ccccc1)Cc1ccc(Br)cc1 (protonated)
O=C(CSc1ccc2c(c1)OCCO2)[N@H+](Cc1ccccc1)Cc1ccc(Br)cc1 (chirality)
O=C(CSc1ccc2c(c1)OCCO2)[N@H+](Cc1ccccc1)Cc1ccc(Br)cc1 (3D coordinates assigned)
O=C(CSc1ccc2c(c1)OCCO2)[N@H+](Cc1ccccc1)Cc1ccc(Br)cc1 (nonaromatic ring conformer: 58.504488123358 kcal/mol)

>  <smiles>  (38) 
O=C(CSc1ccc2c(c1)OCCO2)N(Cc1ccccc1)Cc1ccc(Br)cc1

>  <score_type>  (38) 
oracle

>  <origin>  (38) 
adg

>  <m_score__min__energy>  (38) 
-7.3499999999999996

>  <m_primary>  (38) 
energy

$$$$
38:0
     RDKit          3D

 33 34  0  0  0  0  0  0  0  0999 V2000
   57.0260   24.4390   47.1820 C   0  0  0  0  0  0  0  0  0  0  0  0
   58.1590   25.3010   47.1910 O   0  0  0  0  0  0  0  0  0  0  0  0
   58.2480   26.5010   46.4690 C   0  0  0  0  0  0  0  0  0  0  0  0
   59.5190   27.0110   46.1810 C   0  0  0  0  0  0  0  0  0  0  0  0
   59.6590   28.2050   45.4700 C   0  0  0  0  0  0  0  0  0  0  0  0
   58.5290   28.8980   45.0320 C   0  0  0  0  0  0  0  0  0  0  0  0
   57.2450   28.3930   45.2930 C   0  0  0  0  0  0  0  0  0  0  0  0
   56.0230   29.1450   44.8350 C   0  0  0  0  0  0  0  0  0  0  0  0
   56.3050   30.5690   44.6730 N   0  0  0  0  0  0  0  0  0  0  0  0
   56.9400   31.1800   43.5410 C   0  0  0  0  0  0  0  0  0  0  0  0
   56.7260   30.7020   42.3960 O   0  0  0  0  0  0  0  0  0  0  0  0
   57.8610   32.3630   43.6750 C   0  0  0  0  0  0  0  0  0  0  0  0
   58.2670   32.5670   45.0650 N   0  0  0  0  0  0  0  0  0  0  0  0
   59.1140   33.5120   45.5230 C   0  0  0  0  0  0  0  0  0  0  0  0
   59.1600   33.4140   46.8990 C   0  0  0  0  0  0  0  0  0  0  0  0
   60.1800   34.4910   48.0960 Br  0  0  0  0  0  0  0  0  0  0  0  0
   58.2940   32.3910   47.2280 C   0  0  0  0  0  0  0  0  0  0  0  0
   57.7610   31.9040   46.0920 N   0  0  0  0  0  0  0  0  0  0  0  0
   57.1090   27.2040   46.0290 C   0  0  0  0  0  0  0  0  0  0  0  0
   56.7290   24.2130   48.2168 H   0  0  0  0  0  0  0  0  0  0  0  0
   56.1930   24.9338   46.6611 H   0  0  0  0  0  0  0  0  0  0  0  0
   57.2806   23.5042   46.6611 H   0  0  0  0  0  0  0  0  0  0  0  0
   60.4144   26.4675   46.5171 H   0  0  0  0  0  0  0  0  0  0  0  0
   60.6626   28.6005   45.2545 H   0  0  0  0  0  0  0  0  0  0  0  0
   58.6449   29.8427   44.4806 H   0  0  0  0  0  0  0  0  0  0  0  0
   55.6899   28.7338   43.8706 H   0  0  0  0  0  0  0  0  0  0  0  0
   55.2393   29.0313   45.5985 H   0  0  0  0  0  0  0  0  0  0  0  0
   58.7577   32.1900   43.0617 H   0  0  0  0  0  0  0  0  0  0  0  0
   57.3238   33.2608   43.3354 H   0  0  0  0  0  0  0  0  0  0  0  0
   59.6705   34.2342   44.9075 H   0  0  0  0  0  0  0  0  0  0  0  0
   58.0764   32.0343   48.2455 H   0  0  0  0  0  0  0  0  0  0  0  0
   57.0490   31.1430   46.0240 H   0  0  0  0  0  0  0  0  0  0  0  0
   56.1056   26.8190   46.2635 H   0  0  0  0  0  0  0  0  0  0  0  0
  1  2  1  0
  2  3  1  0
  3  4  2  0
  4  5  1  0
  5  6  2  0
  6  7  1  0
  7  8  1  0
  8  9  1  0
  9 10  1  0
 10 11  2  0
 10 12  1  0
 12 13  1  0
 13 14  1  0
 14 15  2  0
 15 16  1  0
 15 17  1  0
 17 18  2  0
  7 19  2  0
 19  3  1  0
 18 13  1  0
  1 20  1  0
  1 21  1  0
  1 22  1  0
  4 23  1  0
  5 24  1  0
  6 25  1  0
  8 26  1  0
  8 27  1  0
 12 28  1  0
 12 29  1  0
 14 30  1  0
 17 31  1  0
 18 32  1  0
 19 33  1  0
M  CHG  2   9  -1  18   1
M  END
>  <UniqueID>  (39) 
38

>  <SMILES>  (39) 
COc1cccc(C[N-]C(=O)Cn2cc(Br)c[nH+]2)c1

>  <Energy>  (39) 
58.589136087776055

>  <Genealogy>  (39) 
COc1cccc(C[N-]C(=O)Cn2cc(Br)c[nH+]2)c1 (protonated)
COc1cccc(C[N-]C(=O)Cn2cc(Br)c[nH+]2)c1 (3D coordinates assigned)
COc1cccc(C[N-]C(=O)Cn2cc(Br)c[nH+]2)c1 (optimized conformer: 58.589136087776055 kcal/mol)

>  <smiles>  (39) 
COc1cccc(CNC(=O)Cn2cc(Br)cn2)c1

>  <score_type>  (39) 
oracle

>  <origin>  (39) 
adg

>  <m_score__min__energy>  (39) 
-7.5599999999999996

>  <m_primary>  (39) 
energy

$$$$
39:0
     RDKit          3D

 22 23  0  0  0  0  0  0  0  0999 V2000
   57.9070   27.9090   46.1720 C   0  0  0  0  0  0  0  0  0  0  0  0
   58.5070   28.8670   45.4620 C   0  0  0  0  0  0  0  0  0  0  0  0
   59.8430   28.5980   44.8330 C   0  0  0  0  0  0  0  0  0  0  0  0
   57.8290   30.1090   45.1970 N   0  0  0  0  0  0  0  0  0  0  0  0
   56.6230   30.2870   44.5960 C   0  0  0  0  0  0  0  0  0  0  0  0
   55.8990   29.3420   44.1870 O   0  0  0  0  0  0  0  0  0  0  0  0
   56.2760   31.5580   44.4970 O   0  0  0  0  0  0  0  0  0  0  0  0
   57.2610   32.2370   45.0320 C   0  0  0  0  0  0  0  0  0  0  0  0
   57.3930   33.6160   45.1610 C   0  0  0  0  0  0  0  0  0  0  0  0
   58.5740   34.1070   45.7470 C   0  0  0  0  0  0  0  0  0  0  0  0
   59.5850   33.2170   46.1780 C   0  0  0  0  0  0  0  0  0  0  0  0
   61.0590   33.8490   46.8890 Cl  0  0  0  0  0  0  0  0  0  0  0  0
   59.4200   31.8250   46.0340 C   0  0  0  0  0  0  0  0  0  0  0  0
   58.2270   31.3700   45.4680 C   0  0  0  0  0  0  0  0  0  0  0  0
   56.9278   28.0995   46.6356 H   0  0  0  0  0  0  0  0  0  0  0  0
   58.3917   26.9291   46.2934 H   0  0  0  0  0  0  0  0  0  0  0  0
   60.5954   28.4465   45.6210 H   0  0  0  0  0  0  0  0  0  0  0  0
   59.7791   27.6947   44.2085 H   0  0  0  0  0  0  0  0  0  0  0  0
   60.1336   29.4557   44.2085 H   0  0  0  0  0  0  0  0  0  0  0  0
   56.6018   34.2984   44.8169 H   0  0  0  0  0  0  0  0  0  0  0  0
   58.7121   35.1912   45.8709 H   0  0  0  0  0  0  0  0  0  0  0  0
   60.2026   31.1221   46.3558 H   0  0  0  0  0  0  0  0  0  0  0  0
  1  2  2  0
  2  3  1  0
  2  4  1  0
  4  5  1  0
  5  6  2  0
  5  7  1  0
  7  8  1  0
  8  9  2  0
  9 10  1  0
 10 11  2  0
 11 12  1  0
 11 13  1  0
 13 14  2  0
 14  4  1  0
 14  8  1  0
  1 15  1  0
  1 16  1  0
  3 17  1  0
  3 18  1  0
  3 19  1  0
  9 20  1  0
 10 21  1  0
 13 22  1  0
M  END
>  <UniqueID>  (40) 
39

>  <SMILES>  (40) 
C=C(C)n1c(=O)oc2ccc(Cl)cc21

>  <Energy>  (40) 
66.93293880628553

>  <Genealogy>  (40) 
C=C(C)n1c(=O)oc2ccc(Cl)cc21 (3D coordinates assigned)
C=C(C)n1c(=O)oc2ccc(Cl)cc21 (optimized conformer: 66.93293880628553 kcal/mol)

>  <smiles>  (40) 
C=C(C)n1c(=O)oc2ccc(Cl)cc21

>  <score_type>  (40) 
oracle

>  <origin>  (40) 
adg

>  <m_score__min__energy>  (40) 
-5.7699999999999996

>  <m_primary>  (40) 
energy

$$$$
40:0
     RDKit          3D

 43 46  0  0  0  0  0  0  0  0999 V2000
   61.5160   31.7730   52.5790 C   0  0  0  0  0  0  0  0  0  0  0  0
   60.2120   31.4030   52.1740 O   0  0  0  0  0  0  0  0  0  0  0  0
   59.9360   31.4810   50.8100 C   0  0  0  0  0  0  0  0  0  0  0  0
   60.7430   30.8560   49.8590 C   0  0  0  0  0  0  0  0  0  0  0  0
   60.4490   30.9480   48.5140 C   0  0  0  0  0  0  0  0  0  0  0  0
   59.3310   31.6810   48.1640 C   0  0  0  0  0  0  0  0  0  0  0  0
   63.7900   32.7980   47.2120 N   0  0  0  0  0  0  0  0  0  0  0  0
   59.1800   32.9790   46.1400 C   0  0  0  0  0  0  0  0  0  0  0  0
   60.0740   34.2590   47.0360 S   0  0  0  0  0  0  0  0  0  0  0  0
   61.7140   33.7010   47.3830 C   0  0  0  0  0  0  0  0  0  0  0  0
   62.6680   33.1080   46.7480 N   0  0  0  0  0  0  0  0  0  0  0  0
   58.9180   31.8530   46.8070 N   0  0  0  0  0  0  0  0  0  0  0  0
   58.2440   30.8390   46.1880 C   0  0  0  0  0  0  0  0  0  0  0  0
   65.0300   32.9440   49.2510 N   0  0  0  0  0  0  0  0  0  0  0  0
   62.5280   33.9040   49.0590 S   0  0  0  0  0  0  0  0  0  0  0  0
   58.7930   33.1480   44.8570 N   0  0  0  0  0  0  0  0  0  0  0  0
   58.1170   32.1660   44.1980 C   0  0  0  0  0  0  0  0  0  0  0  0
   57.7120   32.3150   42.8880 C   0  0  0  0  0  0  0  0  0  0  0  0
   57.0320   31.3060   42.2490 C   0  0  0  0  0  0  0  0  0  0  0  0
   56.7410   30.1220   42.9050 C   0  0  0  0  0  0  0  0  0  0  0  0
   57.1420   29.9620   44.2150 C   0  0  0  0  0  0  0  0  0  0  0  0
   57.8350   30.9860   44.8700 C   0  0  0  0  0  0  0  0  0  0  0  0
   64.0960   33.0820   48.4900 C   0  0  0  0  0  0  0  0  0  0  0  0
   57.9820   29.7660   46.7900 O   0  0  0  0  0  0  0  0  0  0  0  0
   58.5260   32.3050   49.1160 C   0  0  0  0  0  0  0  0  0  0  0  0
   58.8210   32.2110   50.4510 C   0  0  0  0  0  0  0  0  0  0  0  0
   58.0340   32.8230   51.4020 O   0  0  0  0  0  0  0  0  0  0  0  0
   58.5280   33.8260   52.2400 C   0  0  0  0  0  0  0  0  0  0  0  0
   61.5683   31.7879   53.6777 H   0  0  0  0  0  0  0  0  0  0  0  0
   62.2420   31.0454   52.1871 H   0  0  0  0  0  0  0  0  0  0  0  0
   61.7516   32.7735   52.1871 H   0  0  0  0  0  0  0  0  0  0  0  0
   61.6237   30.2833   50.1851 H   0  0  0  0  0  0  0  0  0  0  0  0
   61.0767   30.4596   47.7541 H   0  0  0  0  0  0  0  0  0  0  0  0
   64.5520   32.2980   46.6180 H   0  0  0  0  0  0  0  0  0  0  0  0
   65.9860   32.7130   48.9090 H   0  0  0  0  0  0  0  0  0  0  0  0
   57.9350   33.2485   42.3506 H   0  0  0  0  0  0  0  0  0  0  0  0
   56.7153   31.4407   41.2042 H   0  0  0  0  0  0  0  0  0  0  0  0
   56.1964   29.3184   42.3876 H   0  0  0  0  0  0  0  0  0  0  0  0
   56.9162   29.0259   44.7468 H   0  0  0  0  0  0  0  0  0  0  0  0
   57.6450   32.8787   48.7923 H   0  0  0  0  0  0  0  0  0  0  0  0
   58.3828   33.5312   53.2898 H   0  0  0  0  0  0  0  0  0  0  0  0
   59.6008   33.9714   52.0450 H   0  0  0  0  0  0  0  0  0  0  0  0
   57.9893   34.7650   52.0450 H   0  0  0  0  0  0  0  0  0  0  0  0
  1  2  1  0
  2  3  1  0
  3  4  2  0
  4  5  1  0
  5  6  2  0
  6  7  1  0
  7  8  1  0
  8  9  1  0
  9 10  1  0
 10 11  2  0
 11 12  1  0
 12 13  1  0
 13 14  2  3
 13 15  1  0
  8 16  2  0
 16 17  1  0
 17 18  2  0
 18 19  1  0
 19 20  2  0
 20 21  1  0
 21 22  2  0
 22 23  1  0
 23 24  2  0
  6 25  1  0
 25 26  2  0
 26 27  1  0
 27 28  1  0
 26  3  1  0
 23  7  1  0
 15 10  1  0
 22 17  1  0
  1 29  1  0
  1 30  1  0
  1 31  1  0
  4 32  1  0
  5 33  1  0
 12 34  1  0
 14 35  1  0
 18 36  1  0
 19 37  1  0
 20 38  1  0
 21 39  1  0
 25 40  1  0
 28 41  1  0
 28 42  1  0
 28 43  1  0
M  END
>  <smiles>  (41) 
COc1ccc(-n2c(Sc3n[nH]c(=N)s3)nc3ccccc3c2=O)cc1OC

>  <score_type>  (41) 
oracle

>  <origin>  (41) 
adg

>  <m_score__min__energy>  (41) 
-7.4500000000000002

>  <m_primary>  (41) 
energy

$$$$
41:0
     RDKit          3D

 54 53  0  0  0  0  0  0  0  0999 V2000
   59.4130   33.2810   50.8440 C   0  0  0  0  0  0  0  0  0  0  0  0
   59.5710   33.4230   49.3330 C   0  0  0  0  0  0  0  0  0  0  0  0
   58.9550   32.2810   48.6420 N   0  0  0  0  0  0  0  0  0  0  0  0
   58.9060   31.0920   49.5060 C   0  0  0  0  0  0  0  0  0  0  0  0
   59.9230   30.0400   49.0420 C   0  0  0  0  0  0  0  0  0  0  0  0
   61.3690   30.5760   49.0520 C   0  0  0  0  0  0  0  0  0  0  0  0
   61.6570   31.4410   47.8960 N   0  0  0  0  0  0  0  0  0  0  0  0
   62.8100   32.3190   48.1280 C   0  0  0  0  0  0  0  0  0  0  0  0
   62.4470   33.7570   47.7410 C   0  0  0  0  0  0  0  0  0  0  0  0
   61.7500   33.8430   46.3690 C   0  0  0  0  0  0  0  0  0  0  0  0
   60.2970   33.6020   46.4470 N   0  0  0  0  0  0  0  0  0  0  0  0
   59.6050   33.8980   45.1840 C   0  0  0  0  0  0  0  0  0  0  0  0
   58.2160   34.4770   45.4680 C   0  0  0  0  0  0  0  0  0  0  0  0
   57.4140   33.5570   46.4060 C   0  0  0  0  0  0  0  0  0  0  0  0
   57.9050   32.1680   46.3750 N   0  0  0  0  0  0  0  0  0  0  0  0
   57.6940   31.5210   45.0710 C   0  0  0  0  0  0  0  0  0  0  0  0
   57.9380   30.0130   45.1860 C   0  0  0  0  0  0  0  0  0  0  0  0
   59.4150   29.7100   45.4560 C   0  0  0  0  0  0  0  0  0  0  0  0
   60.0690   30.8760   46.0390 N   0  0  0  0  0  0  0  0  0  0  0  0
   60.1389   33.9334   51.3515 H   0  0  0  0  0  0  0  0  0  0  0  0
   58.3928   33.5716   51.1349 H   0  0  0  0  0  0  0  0  0  0  0  0
   59.5935   32.2356   51.1349 H   0  0  0  0  0  0  0  0  0  0  0  0
   59.0826   34.3519   49.0036 H   0  0  0  0  0  0  0  0  0  0  0  0
   60.6430   33.4512   49.0882 H   0  0  0  0  0  0  0  0  0  0  0  0
   59.5630   32.0510   47.8220 H   0  0  0  0  0  0  0  0  0  0  0  0
   59.1386   31.3873   50.5398 H   0  0  0  0  0  0  0  0  0  0  0  0
   57.8974   30.6566   49.4504 H   0  0  0  0  0  0  0  0  0  0  0  0
   59.8637   29.1709   49.7137 H   0  0  0  0  0  0  0  0  0  0  0  0
   59.6738   29.7664   48.0061 H   0  0  0  0  0  0  0  0  0  0  0  0
   61.5241   31.1558   49.9739 H   0  0  0  0  0  0  0  0  0  0  0  0
   62.0467   29.7111   48.9997 H   0  0  0  0  0  0  0  0  0  0  0  0
   60.8150   32.0280   47.6850 H   0  0  0  0  0  0  0  0  0  0  0  0
   63.0878   32.2852   49.1918 H   0  0  0  0  0  0  0  0  0  0  0  0
   63.6577   31.9786   47.5152 H   0  0  0  0  0  0  0  0  0  0  0  0
   61.7715   34.1679   48.5058 H   0  0  0  0  0  0  0  0  0  0  0  0
   63.3830   34.3312   47.6760 H   0  0  0  0  0  0  0  0  0  0  0  0
   61.9173   34.8474   45.9527 H   0  0  0  0  0  0  0  0  0  0  0  0
   62.1809   33.0580   45.7302 H   0  0  0  0  0  0  0  0  0  0  0  0
   60.1100   32.6070   46.7140 H   0  0  0  0  0  0  0  0  0  0  0  0
   60.1932   34.6287   44.6095 H   0  0  0  0  0  0  0  0  0  0  0  0
   59.4962   32.9681   44.6066 H   0  0  0  0  0  0  0  0  0  0  0  0
   58.3278   35.4636   45.9415 H   0  0  0  0  0  0  0  0  0  0  0  0
   57.6725   34.5649   44.5157 H   0  0  0  0  0  0  0  0  0  0  0  0
   57.4972   33.9395   47.4340 H   0  0  0  0  0  0  0  0  0  0  0  0
   56.3685   33.5539   46.0640 H   0  0  0  0  0  0  0  0  0  0  0  0
   58.9260   32.1500   46.6090 H   0  0  0  0  0  0  0  0  0  0  0  0
   56.6600   31.6981   44.7400 H   0  0  0  0  0  0  0  0  0  0  0  0
   58.3986   31.9451   44.3404 H   0  0  0  0  0  0  0  0  0  0  0  0
   57.3327   29.6136   46.0131 H   0  0  0  0  0  0  0  0  0  0  0  0
   57.6538   29.5405   44.2342 H   0  0  0  0  0  0  0  0  0  0  0  0
   59.4907   28.8636   46.1545 H   0  0  0  0  0  0  0  0  0  0  0  0
   59.9096   29.4580   44.5063 H   0  0  0  0  0  0  0  0  0  0  0  0
   59.6630   31.0380   46.9900 H   0  0  0  0  0  0  0  0  0  0  0  0
   59.8110   31.7090   45.4620 H   0  0  0  0  0  0  0  0  0  0  0  0
  1  2  1  0
  2  3  1  0
  3  4  1  0
  4  5  1  0
  5  6  1  0
  6  7  1  0
  7  8  1  0
  8  9  1  0
  9 10  1  0
 10 11  1  0
 11 12  1  0
 12 13  1  0
 13 14  1  0
 14 15  1  0
 15 16  1  0
 16 17  1  0
 17 18  1  0
 18 19  1  0
  1 20  1  0
  1 21  1  0
  1 22  1  0
  2 23  1  0
  2 24  1  0
  3 25  1  0
  4 26  1  0
  4 27  1  0
  5 28  1  0
  5 29  1  0
  6 30  1  0
  6 31  1  0
  7 32  1  0
  8 33  1  0
  8 34  1  0
  9 35  1  0
  9 36  1  0
 10 37  1  0
 10 38  1  0
 11 39  1  0
 12 40  1  0
 12 41  1  0
 13 42  1  0
 13 43  1  0
 14 44  1  0
 14 45  1  0
 15 46  1  0
 16 47  1  0
 16 48  1  0
 17 49  1  0
 17 50  1  0
 18 51  1  0
 18 52  1  0
 19 53  1  0
 19 54  1  0
M  END
>  <UniqueID>  (42) 
40

>  <SMILES>  (42) 
CCNCCCNCCCNCCCNCCCN

>  <Energy>  (42) 
33.22746226281284

>  <Genealogy>  (42) 
CCNCCCNCCCNCCCNCCCN (3D coordinates assigned)
CCNCCCNCCCNCCCNCCCN (optimized conformer: 33.22746226281284 kcal/mol)

>  <smiles>  (42) 
CCNCCCNCCCNCCCNCCCN

>  <score_type>  (42) 
oracle

>  <origin>  (42) 
adg

>  <m_score__min__energy>  (42) 
-2.3300000000000001

>  <m_primary>  (42) 
energy

$$$$
42:0
     RDKit          3D

 44 46  0  0  0  0  0  0  0  0999 V2000
   59.7460   28.2320   47.6740 O   0  0  0  0  0  0  0  0  0  0  0  0
   59.1680   29.2850   47.2850 C   0  0  0  0  0  0  0  0  0  0  0  0
   57.8660   29.2150   46.6870 N   0  0  0  0  0  0  0  0  0  0  0  0
   57.5010   29.6810   45.3800 C   0  0  0  0  0  0  0  0  0  0  0  0
   56.2590   29.3010   44.8550 C   0  0  0  0  0  0  0  0  0  0  0  0
   55.8560   29.7500   43.5940 C   0  0  0  0  0  0  0  0  0  0  0  0
   56.6850   30.5980   42.8550 C   0  0  0  0  0  0  0  0  0  0  0  0
   57.9140   31.0050   43.3810 C   0  0  0  0  0  0  0  0  0  0  0  0
   58.3210   30.5550   44.6420 C   0  0  0  0  0  0  0  0  0  0  0  0
   59.8070   30.5740   47.4440 N   0  0  0  0  0  0  0  0  0  0  0  0
   61.0030   30.4720   48.3150 C   0  0  0  0  0  0  0  0  0  0  0  0
   61.9590   31.6410   48.1880 C   0  0  0  0  0  0  0  0  0  0  0  0
   62.8810   31.6980   47.1280 C   0  0  0  0  0  0  0  0  0  0  0  0
   63.7550   32.7830   47.0110 C   0  0  0  0  0  0  0  0  0  0  0  0
   63.7210   33.8140   47.9520 C   0  0  0  0  0  0  0  0  0  0  0  0
   62.8160   33.7620   49.0150 C   0  0  0  0  0  0  0  0  0  0  0  0
   61.9410   32.6790   49.1360 C   0  0  0  0  0  0  0  0  0  0  0  0
   58.8620   31.6230   47.8980 C   0  0  0  0  0  0  0  0  0  0  0  0
   58.7180   32.7240   46.8710 C   0  0  0  0  0  0  0  0  0  0  0  0
   59.8580   33.3740   46.3710 C   0  0  0  0  0  0  0  0  0  0  0  0
   59.7310   34.3730   45.4000 C   0  0  0  0  0  0  0  0  0  0  0  0
   58.4660   34.7250   44.9190 C   0  0  0  0  0  0  0  0  0  0  0  0
   57.3280   34.0780   45.4070 C   0  0  0  0  0  0  0  0  0  0  0  0
   57.4510   33.0800   46.3780 C   0  0  0  0  0  0  0  0  0  0  0  0
   55.5966   28.6450   45.4389 H   0  0  0  0  0  0  0  0  0  0  0  0
   54.8853   29.4354   43.1831 H   0  0  0  0  0  0  0  0  0  0  0  0
   56.3704   30.9450   41.8597 H   0  0  0  0  0  0  0  0  0  0  0  0
   58.5624   31.6800   42.8031 H   0  0  0  0  0  0  0  0  0  0  0  0
   59.2844   30.8853   45.0576 H   0  0  0  0  0  0  0  0  0  0  0  0
   60.1640   30.8640   46.5010 H   0  0  0  0  0  0  0  0  0  0  0  0
   60.6657   30.4129   49.3603 H   0  0  0  0  0  0  0  0  0  0  0  0
   61.5534   29.5745   47.9964 H   0  0  0  0  0  0  0  0  0  0  0  0
   62.9148   30.8853   46.3875 H   0  0  0  0  0  0  0  0  0  0  0  0
   64.4704   32.8245   46.1765 H   0  0  0  0  0  0  0  0  0  0  0  0
   64.4075   34.6681   47.8562 H   0  0  0  0  0  0  0  0  0  0  0  0
   62.7921   34.5737   49.7570 H   0  0  0  0  0  0  0  0  0  0  0  0
   61.2341   32.6385   49.9778 H   0  0  0  0  0  0  0  0  0  0  0  0
   57.8769   31.1653   48.0714 H   0  0  0  0  0  0  0  0  0  0  0  0
   59.2577   32.0655   48.8241 H   0  0  0  0  0  0  0  0  0  0  0  0
   60.8548   33.0965   46.7444 H   0  0  0  0  0  0  0  0  0  0  0  0
   60.6268   34.8820   45.0146 H   0  0  0  0  0  0  0  0  0  0  0  0
   58.3669   35.5114   44.1563 H   0  0  0  0  0  0  0  0  0  0  0  0
   56.3336   34.3544   45.0265 H   0  0  0  0  0  0  0  0  0  0  0  0
   56.5526   32.5713   46.7577 H   0  0  0  0  0  0  0  0  0  0  0  0
  1  2  2  0
  2  3  1  0
  3  4  1  0
  4  5  2  0
  5  6  1  0
  6  7  2  0
  7  8  1  0
  8  9  2  0
  2 10  1  0
 10 11  1  0
 11 12  1  0
 12 13  2  0
 13 14  1  0
 14 15  2  0
 15 16  1  0
 16 17  2  0
 10 18  1  0
 18 19  1  0
 19 20  2  0
 20 21  1  0
 21 22  2  0
 22 23  1  0
 23 24  2  0
  9  4  1  0
 17 12  1  0
 24 19  1  0
  5 25  1  0
  6 26  1  0
  7 27  1  0
  8 28  1  0
  9 29  1  0
 10 30  1  0
 11 31  1  0
 11 32  1  0
 13 33  1  0
 14 34  1  0
 15 35  1  0
 16 36  1  0
 17 37  1  0
 18 38  1  0
 18 39  1  0
 20 40  1  0
 21 41  1  0
 22 42  1  0
 23 43  1  0
 24 44  1  0
M  CHG  2   3  -1  10   1
M  END
>  <UniqueID>  (43) 
41

>  <SMILES>  (43) 
O=C([N-]c1ccccc1)[NH+](Cc1ccccc1)Cc1ccccc1

>  <Energy>  (43) 
54.14545567724636

>  <Genealogy>  (43) 
O=C([N-]c1ccccc1)[NH+](Cc1ccccc1)Cc1ccccc1 (protonated)
O=C([N-]c1ccccc1)[NH+](Cc1ccccc1)Cc1ccccc1 (3D coordinates assigned)
O=C([N-]c1ccccc1)[NH+](Cc1ccccc1)Cc1ccccc1 (optimized conformer: 54.14545567724636 kcal/mol)

>  <smiles>  (43) 
O=C(Nc1ccccc1)N(Cc1ccccc1)Cc1ccccc1

>  <score_type>  (43) 
oracle

>  <origin>  (43) 
adg

>  <m_score__min__energy>  (43) 
-7.6600000000000001

>  <m_primary>  (43) 
energy

$$$$
43:0
     RDKit          3D

 41 44  0  0  0  0  0  0  0  0999 V2000
   58.1450   26.9970   44.1640 C   0  0  0  0  0  0  0  0  0  0  0  0
   58.0530   27.7210   45.3870 O   0  0  0  0  0  0  0  0  0  0  0  0
   58.3790   29.0790   45.5300 C   0  0  0  0  0  0  0  0  0  0  0  0
   59.6880   29.4120   45.8950 C   0  0  0  0  0  0  0  0  0  0  0  0
   60.0650   30.7450   46.0650 C   0  0  0  0  0  0  0  0  0  0  0  0
   59.1210   31.7710   45.8970 C   0  0  0  0  0  0  0  0  0  0  0  0
   57.8170   31.4520   45.4610 C   0  0  0  0  0  0  0  0  0  0  0  0
   57.4440   30.1080   45.3110 C   0  0  0  0  0  0  0  0  0  0  0  0
   56.7990   32.5550   45.2220 C   0  0  0  0  0  0  0  0  0  0  0  0
   57.4610   33.8450   44.6960 C   0  0  0  0  0  0  0  0  0  0  0  0
   58.6710   34.1330   45.4620 N   0  0  0  0  0  0  0  0  0  0  0  0
   59.2820   35.3150   45.6550 C   0  0  0  0  0  0  0  0  0  0  0  0
   60.4190   35.1900   46.3740 N   0  0  0  0  0  0  0  0  0  0  0  0
   60.5250   33.8640   46.6210 C   0  0  0  0  0  0  0  0  0  0  0  0
   61.5600   33.3070   47.5100 C   0  0  0  0  0  0  0  0  0  0  0  0
   61.2370   32.9360   48.8200 C   0  0  0  0  0  0  0  0  0  0  0  0
   62.2090   32.3750   49.6490 C   0  0  0  0  0  0  0  0  0  0  0  0
   63.5090   32.1690   49.1530 C   0  0  0  0  0  0  0  0  0  0  0  0
   64.5270   31.6130   49.9420 O   0  0  0  0  0  0  0  0  0  0  0  0
   65.6320   32.3420   50.4650 C   0  0  0  0  0  0  0  0  0  0  0  0
   63.7950   32.5140   47.8660 N   0  0  0  0  0  0  0  0  0  0  0  0
   62.8590   33.0620   47.0440 C   0  0  0  0  0  0  0  0  0  0  0  0
   59.4560   33.2050   46.0240 C   0  0  0  0  0  0  0  0  0  0  0  0
   58.2809   25.9271   44.3806 H   0  0  0  0  0  0  0  0  0  0  0  0
   57.2216   27.1391   43.5834 H   0  0  0  0  0  0  0  0  0  0  0  0
   59.0035   27.3656   43.5834 H   0  0  0  0  0  0  0  0  0  0  0  0
   60.4288   28.6137   46.0498 H   0  0  0  0  0  0  0  0  0  0  0  0
   61.1033   30.9923   46.3310 H   0  0  0  0  0  0  0  0  0  0  0  0
   56.4134   29.8565   45.0201 H   0  0  0  0  0  0  0  0  0  0  0  0
   56.0634   32.2058   44.4824 H   0  0  0  0  0  0  0  0  0  0  0  0
   56.3162   32.7871   46.1827 H   0  0  0  0  0  0  0  0  0  0  0  0
   57.7235   33.7137   43.6359 H   0  0  0  0  0  0  0  0  0  0  0  0
   56.7566   34.6828   44.8046 H   0  0  0  0  0  0  0  0  0  0  0  0
   58.9004   36.2729   45.2719 H   0  0  0  0  0  0  0  0  0  0  0  0
   60.2147   33.0869   49.1970 H   0  0  0  0  0  0  0  0  0  0  0  0
   61.9603   32.0957   50.6835 H   0  0  0  0  0  0  0  0  0  0  0  0
   65.5986   32.3199   51.5643 H   0  0  0  0  0  0  0  0  0  0  0  0
   66.5703   31.8850   50.1175 H   0  0  0  0  0  0  0  0  0  0  0  0
   65.5811   33.3844   50.1175 H   0  0  0  0  0  0  0  0  0  0  0  0
   64.7570   32.3510   47.4960 H   0  0  0  0  0  0  0  0  0  0  0  0
   63.1238   33.3144   46.0066 H   0  0  0  0  0  0  0  0  0  0  0  0
  1  2  1  0
  2  3  1  0
  3  4  2  0
  4  5  1  0
  5  6  2  0
  6  7  1  0
  7  8  2  0
  7  9  1  0
  9 10  1  0
 10 11  1  0
 11 12  1  0
 12 13  2  0
 13 14  1  0
 14 15  1  0
 15 16  2  0
 16 17  1  0
 17 18  2  0
 18 19  1  0
 19 20  1  0
 18 21  1  0
 21 22  2  0
 14 23  2  0
  8  3  1  0
 23 11  1  0
 23  6  1  0
 22 15  1  0
  1 24  1  0
  1 25  1  0
  1 26  1  0
  4 27  1  0
  5 28  1  0
  8 29  1  0
  9 30  1  0
  9 31  1  0
 10 32  1  0
 10 33  1  0
 12 34  1  0
 16 35  1  0
 17 36  1  0
 20 37  1  0
 20 38  1  0
 20 39  1  0
 21 40  1  0
 22 41  1  0
M  CHG  1  21   1
M  END
>  <UniqueID>  (44) 
42

>  <SMILES>  (44) 
COc1ccc2c(c1)CCn1cnc(-c3ccc(OC)[nH+]c3)c1-2

>  <Energy>  (44) 
85.1245965824279

>  <Genealogy>  (44) 
COc1ccc2c(c1)CCn1cnc(-c3ccc(OC)[nH+]c3)c1-2 (protonated)
COc1ccc2c(c1)CCn1cnc(-c3ccc(OC)[nH+]c3)c1-2 (3D coordinates assigned)
COc1ccc2c(c1)CCn1cnc(-c3ccc(OC)[nH+]c3)c1-2 (nonaromatic ring conformer: 85.1245965824279 kcal/mol)

>  <smiles>  (44) 
COc1ccc2c(c1)CCn1cnc(-c3ccc(OC)nc3)c1-2

>  <score_type>  (44) 
oracle

>  <origin>  (44) 
adg

>  <m_score__min__energy>  (44) 
-5.46

>  <m_primary>  (44) 
energy

$$$$
44:0
     RDKit          3D

 48 50  0  0  0  0  0  0  0  0999 V2000
   56.7320   30.9800   51.9750 C   0  0  0  0  0  0  0  0  0  0  0  0
   57.4720   30.1270   51.1080 O   0  0  0  0  0  0  0  0  0  0  0  0
   58.5950   30.5300   50.3680 C   0  0  0  0  0  0  0  0  0  0  0  0
   59.2410   31.7600   50.5880 C   0  0  0  0  0  0  0  0  0  0  0  0
   60.3530   32.1190   49.8220 C   0  0  0  0  0  0  0  0  0  0  0  0
   60.8450   31.2550   48.8250 C   0  0  0  0  0  0  0  0  0  0  0  0
   61.9320   31.6120   48.0120 O   0  0  0  0  0  0  0  0  0  0  0  0
   61.9490   32.7270   47.1260 C   0  0  0  0  0  0  0  0  0  0  0  0
   60.2170   30.0100   48.6230 C   0  0  0  0  0  0  0  0  0  0  0  0
   60.7200   29.0610   47.6660 N   0  0  0  0  0  0  0  0  0  0  0  0
   59.8720   28.0450   47.0320 C   0  0  1  0  0  0  0  0  0  0  0  0
   59.3460   27.1820   48.0040 O   0  0  0  0  0  0  0  0  0  0  0  0
   58.7710   28.6960   46.2360 C   0  0  0  0  0  0  0  0  0  0  0  0
   57.5100   28.1760   45.9880 C   0  0  0  0  0  0  0  0  0  0  0  0
   56.8190   29.1800   45.3410 C   0  0  0  0  0  0  0  0  0  0  0  0
   55.5040   29.0880   44.8930 O   0  0  0  0  0  0  0  0  0  0  0  0
   57.5870   30.2780   45.2010 N   0  0  0  0  0  0  0  0  0  0  0  0
   57.2230   31.5230   44.5270 C   0  0  0  0  0  0  0  0  0  0  0  0
   57.9320   32.6820   45.1730 C   0  0  0  0  0  0  0  0  0  0  0  0
   57.8260   32.8980   46.5570 C   0  0  0  0  0  0  0  0  0  0  0  0
   58.4510   34.0010   47.1460 C   0  0  0  0  0  0  0  0  0  0  0  0
   59.1740   34.9010   46.3590 C   0  0  0  0  0  0  0  0  0  0  0  0
   59.7710   35.9780   46.9310 F   0  0  0  0  0  0  0  0  0  0  0  0
   59.2730   34.6990   44.9780 C   0  0  0  0  0  0  0  0  0  0  0  0
   58.6530   33.5940   44.3850 C   0  0  0  0  0  0  0  0  0  0  0  0
   58.7850   29.9900   45.7460 C   0  0  0  0  0  0  0  0  0  0  0  0
   59.0860   29.6690   49.3820 C   0  0  0  0  0  0  0  0  0  0  0  0
   56.9553   30.7226   53.0209 H   0  0  0  0  0  0  0  0  0  0  0  0
   57.0129   32.0268   51.7870 H   0  0  0  0  0  0  0  0  0  0  0  0
   55.6561   30.8497   51.7870 H   0  0  0  0  0  0  0  0  0  0  0  0
   58.8691   32.4423   51.3666 H   0  0  0  0  0  0  0  0  0  0  0  0
   60.8484   33.0850   49.9994 H   0  0  0  0  0  0  0  0  0  0  0  0
   61.9632   33.6591   47.7099 H   0  0  0  0  0  0  0  0  0  0  0  0
   62.8465   32.6778   46.4919 H   0  0  0  0  0  0  0  0  0  0  0  0
   61.0504   32.7052   46.4919 H   0  0  0  0  0  0  0  0  0  0  0  0
   61.6050   29.3120   47.1700 H   0  0  0  0  0  0  0  0  0  0  0  0
   60.4863   27.4529   46.3377 H   0  0  0  0  0  0  0  0  0  0  0  0
   60.1170   26.7270   48.4350 H   0  0  0  0  0  0  0  0  0  0  0  0
   57.1387   27.1746   46.2514 H   0  0  0  0  0  0  0  0  0  0  0  0
   54.7410   28.9670   45.5460 H   0  0  0  0  0  0  0  0  0  0  0  0
   57.5133   31.4625   43.4677 H   0  0  0  0  0  0  0  0  0  0  0  0
   56.1363   31.6735   44.6070 H   0  0  0  0  0  0  0  0  0  0  0  0
   57.2496   32.1973   47.1790 H   0  0  0  0  0  0  0  0  0  0  0  0
   58.3734   34.1607   48.2316 H   0  0  0  0  0  0  0  0  0  0  0  0
   59.8389   35.4098   44.3579 H   0  0  0  0  0  0  0  0  0  0  0  0
   58.7304   33.4390   43.2987 H   0  0  0  0  0  0  0  0  0  0  0  0
   59.6422   30.6776   45.7940 H   0  0  0  0  0  0  0  0  0  0  0  0
   58.5788   28.7104   49.1981 H   0  0  0  0  0  0  0  0  0  0  0  0
  1  2  1  0
  2  3  1  0
  3  4  2  0
  4  5  1  0
  5  6  2  0
  6  7  1  0
  7  8  1  0
  6  9  1  0
  9 10  1  0
 10 11  1  0
 11 12  1  0
 11 13  1  0
 13 14  1  0
 14 15  2  0
 15 16  1  0
 15 17  1  0
 17 18  1  0
 18 19  1  0
 19 20  2  0
 20 21  1  0
 21 22  2  0
 22 23  1  0
 22 24  1  0
 24 25  2  0
 17 26  1  0
  9 27  2  0
 27  3  1  0
 26 13  2  0
 25 19  1  0
  1 28  1  0
  1 29  1  0
  1 30  1  0
  4 31  1  0
  5 32  1  0
  8 33  1  0
  8 34  1  0
  8 35  1  0
 10 36  1  0
 11 37  1  6
 12 38  1  0
 14 39  1  0
 16 40  1  0
 18 41  1  0
 18 42  1  0
 20 43  1  0
 21 44  1  0
 24 45  1  0
 25 46  1  0
 26 47  1  0
 27 48  1  0
M  END
>  <UniqueID>  (45) 
43

>  <SMILES>  (45) 
COc1ccc(OC)c(N[C@@H](O)c2cc(O)n(Cc3ccc(F)cc3)c2)c1

>  <Energy>  (45) 
77.61245298096101

>  <Genealogy>  (45) 
COc1ccc(OC)c(N[C@@H](O)c2cc(O)n(Cc3ccc(F)cc3)c2)c1 (chirality)
COc1ccc(OC)c(N[C@@H](O)c2cc(O)n(Cc3ccc(F)cc3)c2)c1 (3D coordinates assigned)
COc1ccc(OC)c(N[C@@H](O)c2cc(O)n(Cc3ccc(F)cc3)c2)c1 (optimized conformer: 77.61245298096101 kcal/mol)

>  <smiles>  (45) 
COc1ccc(OC)c(NC(O)c2cc(O)n(Cc3ccc(F)cc3)c2)c1

>  <score_type>  (45) 
oracle

>  <origin>  (45) 
adg

>  <m_score__min__energy>  (45) 
-7.7800000000000002

>  <m_primary>  (45) 
energy

$$$$
45:0
     RDKit          3D

 31 32  0  0  0  0  0  0  0  0999 V2000
   59.7930   28.7410   46.7360 C   0  0  0  0  0  0  0  0  0  0  0  0
   58.4260   28.2840   46.3350 C   0  0  0  0  0  0  0  0  0  0  0  0
   57.9350   27.0480   46.7660 C   0  0  0  0  0  0  0  0  0  0  0  0
   56.6440   26.6750   46.3850 C   0  0  0  0  0  0  0  0  0  0  0  0
   56.1700   25.5690   46.7510 O   0  0  0  0  0  0  0  0  0  0  0  0
   55.8960   27.5110   45.6190 N   0  0  0  0  0  0  0  0  0  0  0  0
   56.3860   28.7120   45.2150 C   0  0  0  0  0  0  0  0  0  0  0  0
   55.3910   29.7880   44.1850 S   0  0  0  0  0  0  0  0  0  0  0  0
   56.7610   30.2510   43.0690 C   0  0  0  0  0  0  0  0  0  0  0  0
   57.5470   31.3950   43.6370 C   0  0  0  0  0  0  0  0  0  0  0  0
   58.2020   32.1360   42.8560 O   0  0  0  0  0  0  0  0  0  0  0  0
   57.4770   31.6850   45.0430 N   0  0  0  0  0  0  0  0  0  0  0  0
   58.1430   32.7920   45.6740 C   0  0  0  0  0  0  0  0  0  0  0  0
   58.5510   33.9210   44.9410 C   0  0  0  0  0  0  0  0  0  0  0  0
   59.2080   34.9770   45.5810 C   0  0  0  0  0  0  0  0  0  0  0  0
   59.4740   34.9100   46.9510 C   0  0  0  0  0  0  0  0  0  0  0  0
   59.0950   33.7810   47.6810 C   0  0  0  0  0  0  0  0  0  0  0  0
   59.3630   33.7110   49.0090 F   0  0  0  0  0  0  0  0  0  0  0  0
   58.4420   32.7220   47.0440 C   0  0  0  0  0  0  0  0  0  0  0  0
   57.6380   29.0940   45.5800 N   0  0  0  0  0  0  0  0  0  0  0  0
   59.8644   28.7649   47.8334 H   0  0  0  0  0  0  0  0  0  0  0  0
   60.5446   28.0453   46.3347 H   0  0  0  0  0  0  0  0  0  0  0  0
   59.9751   29.7489   46.3347 H   0  0  0  0  0  0  0  0  0  0  0  0
   58.5511   26.3846   47.3907 H   0  0  0  0  0  0  0  0  0  0  0  0
   57.4273   29.3857   42.9376 H   0  0  0  0  0  0  0  0  0  0  0  0
   56.3386   30.5594   42.1013 H   0  0  0  0  0  0  0  0  0  0  0  0
   56.7800   31.1530   45.6130 H   0  0  0  0  0  0  0  0  0  0  0  0
   58.3526   33.9737   43.8603 H   0  0  0  0  0  0  0  0  0  0  0  0
   59.5159   35.8619   45.0046 H   0  0  0  0  0  0  0  0  0  0  0  0
   59.9816   35.7459   47.4545 H   0  0  0  0  0  0  0  0  0  0  0  0
   58.1605   31.8280   47.6198 H   0  0  0  0  0  0  0  0  0  0  0  0
  1  2  1  0
  2  3  2  0
  3  4  1  0
  4  5  2  0
  4  6  1  0
  6  7  2  0
  7  8  1  0
  8  9  1  0
  9 10  1  0
 10 11  2  0
 10 12  1  0
 12 13  1  0
 13 14  2  0
 14 15  1  0
 15 16  2  0
 16 17  1  0
 17 18  1  0
 17 19  2  0
  7 20  1  0
 20  2  1  0
 19 13  1  0
  1 21  1  0
  1 22  1  0
  1 23  1  0
  3 24  1  0
  9 25  1  0
  9 26  1  0
 12 27  1  0
 14 28  1  0
 15 29  1  0
 16 30  1  0
 19 31  1  0
M  CHG  1  20  -1
M  END
>  <UniqueID>  (46) 
44

>  <SMILES>  (46) 
Cc1cc(=O)nc(SCC(=O)Nc2cccc(F)c2)[n-]1

>  <Energy>  (46) 
27.719979245416642

>  <Genealogy>  (46) 
Cc1cc(=O)nc(SCC(=O)Nc2cccc(F)c2)[n-]1 (protonated)
Cc1cc(=O)nc(SCC(=O)Nc2cccc(F)c2)[n-]1 (3D coordinates assigned)
Cc1cc(=O)nc(SCC(=O)Nc2cccc(F)c2)[n-]1 (optimized conformer: 27.719979245416642 kcal/mol)

>  <smiles>  (46) 
Cc1cc(=O)nc(SCC(=O)Nc2cccc(F)c2)[nH]1

>  <score_type>  (46) 
oracle

>  <origin>  (46) 
adg

>  <m_score__min__energy>  (46) 
-8.6899999999999995

>  <m_primary>  (46) 
energy

$$$$
