0:0
     RDKit          3D

 47 49  0  0  0  0  0  0  0  0999 V2000
   56.9990   28.9620   43.0000 C   0  0  0  0  0  0  0  0  0  0  0  0
   56.2210   29.8990   43.9300 C   0  0  0  0  0  0  0  0  0  0  0  0
   56.9990   31.1940   44.1560 C   0  0  0  0  0  0  0  0  0  0  0  0
   55.9900   29.2510   45.2200 N   0  0  0  0  0  0  0  0  0  0  0  0
   56.6690   28.0640   45.6530 C   0  0  0  0  0  0  0  0  0  0  0  0
   56.0780   26.9500   45.5950 O   0  0  0  0  0  0  0  0  0  0  0  0
   58.0590   28.1540   46.2700 C   0  0  1  0  0  0  0  0  0  0  0  0
   58.1470   27.2450   47.4980 C   0  0  0  0  0  0  0  0  0  0  0  0
   59.1550   26.1840   47.1030 C   0  0  0  0  0  0  0  0  0  0  0  0
   59.9720   26.7100   46.0920 O   0  0  0  0  0  0  0  0  0  0  0  0
   59.1480   27.5610   45.3310 C   0  0  2  0  0  0  0  0  0  0  0  0
   60.0070   28.6390   44.6520 C   0  0  0  0  0  0  0  0  0  0  0  0
   60.6220   29.6330   45.6630 C   0  0  0  0  0  0  0  0  0  0  0  0
   59.8470   29.7310   46.9220 N   0  0  0  0  0  0  0  0  0  0  0  0
   60.1770   30.9770   47.6410 C   0  0  0  0  0  0  0  0  0  0  0  0
   59.4100   32.1360   47.0630 C   0  0  0  0  0  0  0  0  0  0  0  0
   59.9410   32.8780   45.9990 C   0  0  0  0  0  0  0  0  0  0  0  0
   59.2330   33.9640   45.4840 C   0  0  0  0  0  0  0  0  0  0  0  0
   57.9950   34.3000   46.0380 C   0  0  0  0  0  0  0  0  0  0  0  0
   57.4900   33.5720   47.0710 N   0  0  0  0  0  0  0  0  0  0  0  0
   58.1640   32.5110   47.5900 C   0  0  0  0  0  0  0  0  0  0  0  0
   58.4000   29.6220   46.6570 C   0  0  0  0  0  0  0  0  0  0  0  0
   57.5872   28.2535   43.6017 H   0  0  0  0  0  0  0  0  0  0  0  0
   56.2931   28.4062   42.3653 H   0  0  0  0  0  0  0  0  0  0  0  0
   57.6751   29.5537   42.3653 H   0  0  0  0  0  0  0  0  0  0  0  0
   55.2566   30.1313   43.4546 H   0  0  0  0  0  0  0  0  0  0  0  0
   57.1067   31.3733   45.2359 H   0  0  0  0  0  0  0  0  0  0  0  0
   57.9951   31.1081   43.6974 H   0  0  0  0  0  0  0  0  0  0  0  0
   56.4554   32.0331   43.6974 H   0  0  0  0  0  0  0  0  0  0  0  0
   58.4967   27.8079   48.3760 H   0  0  0  0  0  0  0  0  0  0  0  0
   57.1725   26.8177   47.7769 H   0  0  0  0  0  0  0  0  0  0  0  0
   59.7692   25.9114   47.9739 H   0  0  0  0  0  0  0  0  0  0  0  0
   58.6367   25.2833   46.7423 H   0  0  0  0  0  0  0  0  0  0  0  0
   58.6385   27.0122   44.5253 H   0  0  0  0  0  0  0  0  0  0  0  0
   60.8223   28.1455   44.1027 H   0  0  0  0  0  0  0  0  0  0  0  0
   59.3522   29.2113   43.9784 H   0  0  0  0  0  0  0  0  0  0  0  0
   61.6426   29.3012   45.9044 H   0  0  0  0  0  0  0  0  0  0  0  0
   60.6143   30.6276   45.1932 H   0  0  0  0  0  0  0  0  0  0  0  0
   59.9149   30.8627   48.7032 H   0  0  0  0  0  0  0  0  0  0  0  0
   61.2540   31.1745   47.5363 H   0  0  0  0  0  0  0  0  0  0  0  0
   60.9161   32.6039   45.5700 H   0  0  0  0  0  0  0  0  0  0  0  0
   59.6454   34.5503   44.6496 H   0  0  0  0  0  0  0  0  0  0  0  0
   57.4280   35.1539   45.6387 H   0  0  0  0  0  0  0  0  0  0  0  0
   56.5640   33.8380   47.4770 H   0  0  0  0  0  0  0  0  0  0  0  0
   57.7307   31.9438   48.4270 H   0  0  0  0  0  0  0  0  0  0  0  0
   57.8385   29.9042   47.5598 H   0  0  0  0  0  0  0  0  0  0  0  0
   58.1241   30.2950   45.8318 H   0  0  0  0  0  0  0  0  0  0  0  0
  1  2  1  0
  2  3  1  0
  2  4  1  0
  4  5  1  0
  5  6  2  0
  7  5  1  6
  7  8  1  0
  8  9  1  0
  9 10  1  0
 10 11  1  0
 11 12  1  0
 12 13  1  0
 13 14  1  0
 14 15  1  0
 15 16  1  0
 16 17  2  0
 17 18  1  0
 18 19  2  0
 19 20  1  0
 20 21  2  0
 14 22  1  0
 11  7  1  0
 21 16  1  0
 22  7  1  0
  1 23  1  0
  1 24  1  0
  1 25  1  0
  2 26  1  0
  3 27  1  0
  3 28  1  0
  3 29  1  0
  8 30  1  0
  8 31  1  0
  9 32  1  0
  9 33  1  0
 11 34  1  6
 12 35  1  0
 12 36  1  0
 13 37  1  0
 13 38  1  0
 15 39  1  0
 15 40  1  0
 17 41  1  0
 18 42  1  0
 19 43  1  0
 20 44  1  0
 21 45  1  0
 22 46  1  0
 22 47  1  0
M  CHG  2   4  -1  20   1
M  END
>  <UniqueID>  (1) 
1

>  <SMILES>  (1) 
CC(C)[N-]C(=O)[C@@]12CCO[C@@H]1CCN(Cc1ccc[nH+]c1)C2

>  <Energy>  (1) 
50.48416628654923

>  <Genealogy>  (1) 
CC(C)[N-]C(=O)C12CCOC1CCN(Cc1ccc[nH+]c1)C2 (protonated)
CC(C)[N-]C(=O)[C@@]12CCO[C@@H]1CCN(Cc1ccc[nH+]c1)C2 (chirality)
CC(C)[N-]C(=O)[C@@]12CCO[C@@H]1CCN(Cc1ccc[nH+]c1)C2 (3D coordinates assigned)
CC(C)[N-]C(=O)[C@@]12CCO[C@@H]1CCN(Cc1ccc[nH+]c1)C2 (nonaromatic ring conformer: 50.48416628654923 kcal/mol)

>  <smiles>  (1) 
CC(C)NC(=O)C12CCOC1CCN(Cc1cccnc1)C2

>  <score_type>  (1) 
oracle

>  <origin>  (1) 
adg

>  <m_score__min__energy>  (1) 
-8.0399999999999991

>  <m_primary>  (1) 
energy

$$$$
1:0
     RDKit          3D

 52 55  0  0  0  0  0  0  0  0999 V2000
   55.4322   23.7204   46.6508 H   0  0  0  0  0  0  0  0  0  0  0  0
   56.0680   24.6020   46.4820 C   0  0  0  0  0  0  0  0  0  0  0  0
   55.5160   25.7880   45.9950 C   0  0  0  0  0  0  0  0  0  0  0  0
   54.1860   25.8650   45.7390 F   0  0  0  0  0  0  0  0  0  0  0  0
   56.3100   26.8700   45.7760 N   0  0  0  0  0  0  0  0  0  0  0  0
   57.6520   26.8480   46.0100 C   0  0  0  0  0  0  0  0  0  0  0  0
   58.3380   27.9330   45.7860 N   0  0  0  0  0  0  0  0  0  0  0  0
   57.8360   29.2020   45.3380 C   0  0  0  0  0  0  0  0  0  0  0  0
   58.4020   30.3750   45.8390 C   0  0  0  0  0  0  0  0  0  0  0  0
   59.2408   30.3310   46.5493 H   0  0  0  0  0  0  0  0  0  0  0  0
   57.8850   31.6120   45.4230 C   0  0  0  0  0  0  0  0  0  0  0  0
   58.4540   32.9010   45.8960 C   0  0  0  0  0  0  0  0  0  0  0  0
   58.7520   33.9150   44.9700 C   0  0  0  0  0  0  0  0  0  0  0  0
   58.5513   33.7525   43.9007 H   0  0  0  0  0  0  0  0  0  0  0  0
   59.3000   35.1260   45.3940 C   0  0  0  0  0  0  0  0  0  0  0  0
   59.5690   36.0990   44.4900 F   0  0  0  0  0  0  0  0  0  0  0  0
   59.5680   35.3410   46.7470 C   0  0  0  0  0  0  0  0  0  0  0  0
   59.9939   36.3007   47.0750 H   0  0  0  0  0  0  0  0  0  0  0  0
   59.2960   34.3360   47.6930 C   0  0  0  0  0  0  0  0  0  0  0  0
   59.5690   34.5190   49.0970 N   0  0  0  0  0  0  0  0  0  0  0  0
   59.3740   35.4530   49.5230 H   0  0  0  0  0  0  0  0  0  0  0  0
   60.0450   33.4640   49.9940 C   0  0  0  0  0  0  0  0  0  0  0  0
   60.2717   33.9024   50.9770 H   0  0  0  0  0  0  0  0  0  0  0  0
   59.2590   32.7000   50.0858 H   0  0  0  0  0  0  0  0  0  0  0  0
   61.3090   32.8010   49.4370 C   0  0  0  0  0  0  0  0  0  0  0  0
   61.7805   32.1964   50.2258 H   0  0  0  0  0  0  0  0  0  0  0  0
   61.0342   32.1589   48.5872 H   0  0  0  0  0  0  0  0  0  0  0  0
   62.2640   33.8340   48.9750 N   0  0  0  0  0  0  0  0  0  0  0  0
   63.5340   33.8000   49.7250 C   0  0  0  0  0  0  0  0  0  0  0  0
   64.1125   34.7051   49.4880 H   0  0  0  0  0  0  0  0  0  0  0  0
   63.2977   33.7535   50.7983 H   0  0  0  0  0  0  0  0  0  0  0  0
   64.3790   32.5550   49.3620 C   0  0  0  0  0  0  0  0  0  0  0  0
   65.4239   32.8693   49.2224 H   0  0  0  0  0  0  0  0  0  0  0  0
   64.2731   31.8342   50.1862 H   0  0  0  0  0  0  0  0  0  0  0  0
   63.9390   31.9120   48.1780 O   0  0  0  0  0  0  0  0  0  0  0  0
   63.7160   32.8690   47.1630 C   0  0  0  0  0  0  0  0  0  0  0  0
   64.6135   33.4956   47.0539 H   0  0  0  0  0  0  0  0  0  0  0  0
   63.5016   32.3425   46.2213 H   0  0  0  0  0  0  0  0  0  0  0  0
   62.5120   33.7660   47.5150 C   0  0  0  0  0  0  0  0  0  0  0  0
   62.7081   34.7823   47.1425 H   0  0  0  0  0  0  0  0  0  0  0  0
   61.6195   33.3285   47.0438 H   0  0  0  0  0  0  0  0  0  0  0  0
   58.7360   33.1230   47.2590 C   0  0  0  0  0  0  0  0  0  0  0  0
   58.5143   32.3349   47.9936 H   0  0  0  0  0  0  0  0  0  0  0  0
   56.8180   31.6260   44.5780 N   0  0  0  0  0  0  0  0  0  0  0  0
   56.2540   30.4780   44.1260 C   0  0  0  0  0  0  0  0  0  0  0  0
   55.3901   30.5215   43.4464 H   0  0  0  0  0  0  0  0  0  0  0  0
   56.7540   29.2740   44.5110 N   0  0  0  0  0  0  0  0  0  0  0  0
   56.2800   28.4030   44.1840 H   0  0  0  0  0  0  0  0  0  0  0  0
   58.2360   25.6700   46.5260 C   0  0  0  0  0  0  0  0  0  0  0  0
   59.3128   25.6363   46.7481 H   0  0  0  0  0  0  0  0  0  0  0  0
   57.4350   24.5480   46.7520 C   0  0  0  0  0  0  0  0  0  0  0  0
   57.8825   23.6222   47.1428 H   0  0  0  0  0  0  0  0  0  0  0  0
  1  2  1  0
  2  3  2  0
  3  4  1  0
  3  5  1  0
  5  6  1  0
  6  7  2  0
  7  8  1  0
  8  9  2  0
  9 10  1  0
  9 11  1  0
 11 12  1  0
 12 13  2  0
 13 14  1  0
 13 15  1  0
 15 16  1  0
 15 17  2  0
 17 18  1  0
 17 19  1  0
 19 20  1  0
 20 21  1  0
 20 22  1  0
 22 23  1  0
 22 24  1  0
 22 25  1  0
 25 26  1  0
 25 27  1  0
 25 28  1  0
 28 29  1  0
 29 30  1  0
 29 31  1  0
 29 32  1  0
 32 33  1  0
 32 34  1  0
 32 35  1  0
 35 36  1  0
 36 37  1  0
 36 38  1  0
 36 39  1  0
 39 40  1  0
 39 41  1  0
 19 42  2  0
 42 43  1  0
 11 44  2  0
 44 45  1  0
 45 46  1  0
 45 47  2  0
 47 48  1  0
  6 49  1  0
 49 50  1  0
 49 51  2  0
 51 52  1  0
 51  2  1  0
 47  8  1  0
 42 12  1  0
 39 28  1  0
M  CHG  2   5  -1  47   1
M  END
>  <UniqueID>  (2) 
2

>  <SMILES>  (2) 
Fc1cc(NCCN2CCOCC2)cc(-c2cc(/N=c3\cccc(F)[n-]3)[nH+]cn2)c1

>  <Energy>  (2) 
79.65109430726935

>  <Genealogy>  (2) 
Fc1cc(NCCN2CCOCC2)cc(-c2cc(N=c3cccc(F)[n-]3)[nH+]cn2)c1 (protonated)
Fc1cc(NCCN2CCOCC2)cc(-c2cc(/N=c3\cccc(F)[n-]3)[nH+]cn2)c1 (cis-trans isomerization)
Fc1cc(NCCN2CCOCC2)cc(-c2cc(/N=c3\cccc(F)[n-]3)[nH+]cn2)c1 (3D coordinates assigned)
Fc1cc(NCCN2CCOCC2)cc(-c2cc(/N=c3\cccc(F)[n-]3)[nH+]cn2)c1 (nonaromatic ring conformer: 79.65109430726935 kcal/mol)

>  <smiles>  (2) 
Fc1cc(NCCN2CCOCC2)cc(-c2cc(N=c3cccc(F)[nH]3)ncn2)c1

>  <score_type>  (2) 
oracle

>  <origin>  (2) 
adg

>  <m_score__min__energy>  (2) 
-8.25

>  <m_primary>  (2) 
energy

$$$$
2:0
     RDKit          3D

 49 50  0  0  0  0  0  0  0  0999 V2000
   63.3740   33.8510   46.3790 C   0  0  0  0  0  0  0  0  0  0  0  0
   63.7820   33.6460   47.8350 C   0  0  0  0  0  0  0  0  0  0  0  0
   62.7470   34.2150   48.8160 C   0  0  0  0  0  0  0  0  0  0  0  0
   61.6190   33.2880   49.0320 N   0  0  0  0  0  0  0  0  0  0  0  0
   61.8510   32.0610   49.8170 C   0  0  0  0  0  0  0  0  0  0  0  0
   61.7370   30.7910   48.9570 C   0  0  0  0  0  0  0  0  0  0  0  0
   61.8860   31.0570   47.4610 C   0  0  0  0  0  0  0  0  0  0  0  0
   60.2620   33.6970   48.7340 C   0  0  0  0  0  0  0  0  0  0  0  0
   59.3080   33.2230   49.4110 O   0  0  0  0  0  0  0  0  0  0  0  0
   59.9630   34.6950   47.6450 C   0  0  0  0  0  0  0  0  0  0  0  0
   59.9330   34.0610   46.3280 N   0  0  0  0  0  0  0  0  0  0  0  0
   58.7680   33.4860   45.7180 C   0  0  0  0  0  0  0  0  0  0  0  0
   57.9890   34.2280   45.0650 O   0  0  0  0  0  0  0  0  0  0  0  0
   58.4750   32.0400   45.8080 C   0  0  0  0  0  0  0  0  0  0  0  0
   58.7950   31.3810   46.9560 N   0  0  0  0  0  0  0  0  0  0  0  0
   58.5300   30.0790   47.1310 N   0  0  0  0  0  0  0  0  0  0  0  0
   58.8890   29.4340   48.4010 C   0  0  0  0  0  0  0  0  0  0  0  0
   57.9410   29.3440   46.1380 C   0  0  0  0  0  0  0  0  0  0  0  0
   57.7010   28.1160   46.3170 O   0  0  0  0  0  0  0  0  0  0  0  0
   57.6110   29.9550   44.9180 C   0  0  0  0  0  0  0  0  0  0  0  0
   57.0160   29.2260   43.8690 C   0  0  0  0  0  0  0  0  0  0  0  0
   56.7130   29.8510   42.6580 C   0  0  0  0  0  0  0  0  0  0  0  0
   57.0010   31.2020   42.4770 C   0  0  0  0  0  0  0  0  0  0  0  0
   57.5890   31.9400   43.5050 C   0  0  0  0  0  0  0  0  0  0  0  0
   57.8890   31.3290   44.7420 C   0  0  0  0  0  0  0  0  0  0  0  0
   62.3917   34.3445   46.3395 H   0  0  0  0  0  0  0  0  0  0  0  0
   64.1213   34.4807   45.8740 H   0  0  0  0  0  0  0  0  0  0  0  0
   63.3148   32.8756   45.8740 H   0  0  0  0  0  0  0  0  0  0  0  0
   63.8922   32.5678   48.0230 H   0  0  0  0  0  0  0  0  0  0  0  0
   64.7293   34.1811   47.9975 H   0  0  0  0  0  0  0  0  0  0  0  0
   63.2398   34.4050   49.7809 H   0  0  0  0  0  0  0  0  0  0  0  0
   62.3449   35.1432   48.3838 H   0  0  0  0  0  0  0  0  0  0  0  0
   62.8602   32.1046   50.2525 H   0  0  0  0  0  0  0  0  0  0  0  0
   61.0794   32.0096   50.5993 H   0  0  0  0  0  0  0  0  0  0  0  0
   62.5247   30.0883   49.2665 H   0  0  0  0  0  0  0  0  0  0  0  0
   60.7287   30.3808   49.1153 H   0  0  0  0  0  0  0  0  0  0  0  0
   62.4184   32.0075   47.3088 H   0  0  0  0  0  0  0  0  0  0  0  0
   62.4571   30.2387   46.9982 H   0  0  0  0  0  0  0  0  0  0  0  0
   60.8899   31.1165   46.9982 H   0  0  0  0  0  0  0  0  0  0  0  0
   58.9837   35.1557   47.8419 H   0  0  0  0  0  0  0  0  0  0  0  0
   60.7603   35.4528   47.6442 H   0  0  0  0  0  0  0  0  0  0  0  0
   59.2480   31.9240   47.7270 H   0  0  0  0  0  0  0  0  0  0  0  0
   58.5425   30.0565   49.2392 H   0  0  0  0  0  0  0  0  0  0  0  0
   58.4119   28.4445   48.4574 H   0  0  0  0  0  0  0  0  0  0  0  0
   59.9814   29.3181   48.4574 H   0  0  0  0  0  0  0  0  0  0  0  0
   56.7890   28.1583   44.0052 H   0  0  0  0  0  0  0  0  0  0  0  0
   56.2459   29.2756   41.8451 H   0  0  0  0  0  0  0  0  0  0  0  0
   56.7639   31.6890   41.5196 H   0  0  0  0  0  0  0  0  0  0  0  0
   57.8202   33.0043   43.3507 H   0  0  0  0  0  0  0  0  0  0  0  0
  1  2  1  0
  2  3  1  0
  3  4  1  0
  4  5  1  0
  5  6  1  0
  6  7  1  0
  4  8  1  0
  8  9  2  0
  8 10  1  0
 10 11  1  0
 11 12  1  0
 12 13  2  0
 12 14  1  0
 14 15  2  0
 15 16  1  0
 16 17  1  0
 16 18  1  0
 18 19  2  0
 18 20  1  0
 20 21  2  0
 21 22  1  0
 22 23  2  0
 23 24  1  0
 24 25  2  0
 25 14  1  0
 25 20  1  0
  1 26  1  0
  1 27  1  0
  1 28  1  0
  2 29  1  0
  2 30  1  0
  3 31  1  0
  3 32  1  0
  5 33  1  0
  5 34  1  0
  6 35  1  0
  6 36  1  0
  7 37  1  0
  7 38  1  0
  7 39  1  0
 10 40  1  0
 10 41  1  0
 15 42  1  0
 17 43  1  0
 17 44  1  0
 17 45  1  0
 21 46  1  0
 22 47  1  0
 23 48  1  0
 24 49  1  0
M  CHG  2  11  -1  15   1
M  END
>  <UniqueID>  (3) 
3

>  <SMILES>  (3) 
CCCN(CCC)C(=O)C[N-]C(=O)c1[nH+]n(C)c(=O)c2ccccc12

>  <Energy>  (3) 
53.55704277950745

>  <Genealogy>  (3) 
CCCN(CCC)C(=O)C[N-]C(=O)c1[nH+]n(C)c(=O)c2ccccc12 (protonated)
CCCN(CCC)C(=O)C[N-]C(=O)c1[nH+]n(C)c(=O)c2ccccc12 (3D coordinates assigned)
CCCN(CCC)C(=O)C[N-]C(=O)c1[nH+]n(C)c(=O)c2ccccc12 (optimized conformer: 53.55704277950745 kcal/mol)

>  <smiles>  (3) 
CCCN(CCC)C(=O)CNC(=O)c1nn(C)c(=O)c2ccccc12

>  <score_type>  (3) 
oracle

>  <origin>  (3) 
adg

>  <m_score__min__energy>  (3) 
-7.1299999999999999

>  <m_primary>  (3) 
energy

$$$$
3:0
     RDKit          3D

 50 51  0  0  0  0  0  0  0  0999 V2000
   64.0540   33.5560   50.6750 C   0  0  0  0  0  0  0  0  0  0  0  0
   62.8450   33.1820   49.8090 C   0  0  0  0  0  0  0  0  0  0  0  0
   62.5210   34.2070   48.7840 N   0  0  0  0  0  0  0  0  0  0  0  0
   62.9500   33.8300   47.4060 C   0  0  0  0  0  0  0  0  0  0  0  0
   63.3910   32.3670   47.2430 C   0  0  0  0  0  0  0  0  0  0  0  0
   61.0790   34.5550   48.8680 C   0  0  0  0  0  0  0  0  0  0  0  0
   60.2130   33.6590   48.0110 C   0  0  0  0  0  0  0  0  0  0  0  0
   59.7700   34.0990   46.7540 C   0  0  0  0  0  0  0  0  0  0  0  0
   58.9880   33.2670   45.9490 C   0  0  0  0  0  0  0  0  0  0  0  0
   58.6420   31.9740   46.3830 C   0  0  0  0  0  0  0  0  0  0  0  0
   57.8040   31.0840   45.5400 C   0  0  0  0  0  0  0  0  0  0  0  0
   56.8720   31.5880   44.8570 O   0  0  0  0  0  0  0  0  0  0  0  0
   58.0180   29.6170   45.4880 C   0  0  0  0  0  0  0  0  0  0  0  0
   59.3020   29.0910   45.7150 C   0  0  0  0  0  0  0  0  0  0  0  0
   59.5210   27.7130   45.6910 C   0  0  0  0  0  0  0  0  0  0  0  0
   58.4570   26.8300   45.4480 C   0  0  0  0  0  0  0  0  0  0  0  0
   58.6270   25.4380   45.4150 O   0  0  0  0  0  0  0  0  0  0  0  0
   57.7590   24.5390   44.7330 C   0  0  0  0  0  0  0  0  0  0  0  0
   57.1760   27.3470   45.2310 C   0  0  0  0  0  0  0  0  0  0  0  0
   56.9410   28.7370   45.2490 C   0  0  0  0  0  0  0  0  0  0  0  0
   55.6620   29.2710   45.0190 O   0  0  0  0  0  0  0  0  0  0  0  0
   55.1820   29.7080   43.7510 C   0  0  0  0  0  0  0  0  0  0  0  0
   59.0760   31.5420   47.6490 C   0  0  0  0  0  0  0  0  0  0  0  0
   59.8570   32.3760   48.4530 C   0  0  0  0  0  0  0  0  0  0  0  0
   63.7836   33.4723   51.7379 H   0  0  0  0  0  0  0  0  0  0  0  0
   64.8883   32.8739   50.4541 H   0  0  0  0  0  0  0  0  0  0  0  0
   64.3574   34.5900   50.4541 H   0  0  0  0  0  0  0  0  0  0  0  0
   63.0613   32.2323   49.2978 H   0  0  0  0  0  0  0  0  0  0  0  0
   61.9755   33.1019   50.4780 H   0  0  0  0  0  0  0  0  0  0  0  0
   63.0580   35.0700   49.0420 H   0  0  0  0  0  0  0  0  0  0  0  0
   62.1060   34.0104   46.7240 H   0  0  0  0  0  0  0  0  0  0  0  0
   63.8329   34.4454   47.1786 H   0  0  0  0  0  0  0  0  0  0  0  0
   63.5280   31.9126   48.2353 H   0  0  0  0  0  0  0  0  0  0  0  0
   62.6204   31.8114   46.6885 H   0  0  0  0  0  0  0  0  0  0  0  0
   64.3403   32.3298   46.6885 H   0  0  0  0  0  0  0  0  0  0  0  0
   60.7546   34.4617   49.9149 H   0  0  0  0  0  0  0  0  0  0  0  0
   60.9627   35.5840   48.4971 H   0  0  0  0  0  0  0  0  0  0  0  0
   60.0402   35.1050   46.4005 H   0  0  0  0  0  0  0  0  0  0  0  0
   58.6403   33.6253   44.9688 H   0  0  0  0  0  0  0  0  0  0  0  0
   60.1423   29.7725   45.9135 H   0  0  0  0  0  0  0  0  0  0  0  0
   60.5325   27.3166   45.8634 H   0  0  0  0  0  0  0  0  0  0  0  0
   57.1904   23.9500   45.4677 H   0  0  0  0  0  0  0  0  0  0  0  0
   57.0619   25.1100   44.1022 H   0  0  0  0  0  0  0  0  0  0  0  0
   58.3541   23.8623   44.1022 H   0  0  0  0  0  0  0  0  0  0  0  0
   56.3388   26.6586   45.0434 H   0  0  0  0  0  0  0  0  0  0  0  0
   54.3758   30.4420   43.8972 H   0  0  0  0  0  0  0  0  0  0  0  0
   56.0044   30.1739   43.1883 H   0  0  0  0  0  0  0  0  0  0  0  0
   54.7951   28.8456   43.1883 H   0  0  0  0  0  0  0  0  0  0  0  0
   58.7986   30.5402   48.0088 H   0  0  0  0  0  0  0  0  0  0  0  0
   60.1950   32.0244   49.4390 H   0  0  0  0  0  0  0  0  0  0  0  0
  1  2  1  0
  2  3  1  0
  3  4  1  0
  4  5  1  0
  3  6  1  0
  6  7  1  0
  7  8  2  0
  8  9  1  0
  9 10  2  0
 10 11  1  0
 11 12  2  0
 11 13  1  0
 13 14  2  0
 14 15  1  0
 15 16  2  0
 16 17  1  0
 17 18  1  0
 16 19  1  0
 19 20  2  0
 20 21  1  0
 21 22  1  0
 10 23  1  0
 23 24  2  0
 24  7  1  0
 20 13  1  0
  1 25  1  0
  1 26  1  0
  1 27  1  0
  2 28  1  0
  2 29  1  0
  3 30  1  0
  4 31  1  0
  4 32  1  0
  5 33  1  0
  5 34  1  0
  5 35  1  0
  6 36  1  0
  6 37  1  0
  8 38  1  0
  9 39  1  0
 14 40  1  0
 15 41  1  0
 18 42  1  0
 18 43  1  0
 18 44  1  0
 19 45  1  0
 22 46  1  0
 22 47  1  0
 22 48  1  0
 23 49  1  0
 24 50  1  0
M  CHG  1   3   1
M  END
>  <UniqueID>  (4) 
4

>  <SMILES>  (4) 
CC[NH+](CC)Cc1ccc(C(=O)c2ccc(OC)cc2OC)cc1

>  <Energy>  (4) 
58.468161414961436

>  <Genealogy>  (4) 
CC[NH+](CC)Cc1ccc(C(=O)c2ccc(OC)cc2OC)cc1 (protonated)
CC[NH+](CC)Cc1ccc(C(=O)c2ccc(OC)cc2OC)cc1 (3D coordinates assigned)
CC[NH+](CC)Cc1ccc(C(=O)c2ccc(OC)cc2OC)cc1 (optimized conformer: 58.468161414961436 kcal/mol)

>  <smiles>  (4) 
CCN(CC)Cc1ccc(C(=O)c2ccc(OC)cc2OC)cc1

>  <score_type>  (4) 
oracle

>  <origin>  (4) 
adg

>  <m_score__min__energy>  (4) 
-5.5899999999999999

>  <m_primary>  (4) 
energy

$$$$
4:0
     RDKit          3D

 48 50  0  0  0  0  0  0  0  0999 V2000
   58.0650   27.5690   45.1700 C   0  0  0  0  0  0  0  0  0  0  0  0
   57.7020   28.6250   46.0520 O   0  0  0  0  0  0  0  0  0  0  0  0
   58.1950   29.9380   45.9710 C   0  0  0  0  0  0  0  0  0  0  0  0
   59.3900   30.3250   46.5970 C   0  0  0  0  0  0  0  0  0  0  0  0
   59.8510   31.6440   46.4960 C   0  0  0  0  0  0  0  0  0  0  0  0
   61.0300   32.0560   47.1070 C   0  0  0  0  0  0  0  0  0  0  0  0
   61.9790   31.4000   47.8770 C   0  0  0  0  0  0  0  0  0  0  0  0
   62.9500   32.2770   48.2390 N   0  0  0  0  0  0  0  0  0  0  0  0
   64.1440   31.9420   49.0180 C   0  0  0  0  0  0  0  0  0  0  0  0
   64.0630   32.4310   50.4840 C   0  0  0  0  0  0  0  0  0  0  0  0
   63.4610   33.7730   50.6960 N   0  0  0  0  0  0  0  0  0  0  0  0
   64.1920   34.5890   51.6820 C   0  0  0  0  0  0  0  0  0  0  0  0
   62.0230   33.7210   51.0140 C   0  0  0  0  0  0  0  0  0  0  0  0
   62.6520   33.4800   47.6900 C   0  0  0  0  0  0  0  0  0  0  0  0
   63.3700   34.5110   47.8000 O   0  0  0  0  0  0  0  0  0  0  0  0
   61.4730   33.4050   46.9900 C   0  0  0  0  0  0  0  0  0  0  0  0
   60.7470   34.3300   46.2640 C   0  0  0  0  0  0  0  0  0  0  0  0
   59.5790   33.9330   45.6560 N   0  0  0  0  0  0  0  0  0  0  0  0
   58.8340   34.9490   44.8950 C   0  0  0  0  0  0  0  0  0  0  0  0
   59.1170   32.6200   45.7560 C   0  0  0  0  0  0  0  0  0  0  0  0
   57.9170   32.2060   45.1340 C   0  0  0  0  0  0  0  0  0  0  0  0
   57.4580   30.8780   45.2390 C   0  0  0  0  0  0  0  0  0  0  0  0
   56.2670   30.4510   44.6270 O   0  0  0  0  0  0  0  0  0  0  0  0
   56.1830   29.8750   43.3280 C   0  0  0  0  0  0  0  0  0  0  0  0
   58.3675   26.6890   45.7566 H   0  0  0  0  0  0  0  0  0  0  0  0
   57.2047   27.3089   44.5358 H   0  0  0  0  0  0  0  0  0  0  0  0
   58.9034   27.8928   44.5358 H   0  0  0  0  0  0  0  0  0  0  0  0
   59.9691   29.5869   47.1714 H   0  0  0  0  0  0  0  0  0  0  0  0
   61.9495   30.3352   48.1515 H   0  0  0  0  0  0  0  0  0  0  0  0
   64.2673   30.8489   49.0189 H   0  0  0  0  0  0  0  0  0  0  0  0
   64.9987   32.4499   48.5472 H   0  0  0  0  0  0  0  0  0  0  0  0
   63.4637   31.7014   51.0484 H   0  0  0  0  0  0  0  0  0  0  0  0
   65.1058   32.5195   50.8227 H   0  0  0  0  0  0  0  0  0  0  0  0
   63.5410   34.2730   49.7780 H   0  0  0  0  0  0  0  0  0  0  0  0
   63.9109   34.2752   52.6981 H   0  0  0  0  0  0  0  0  0  0  0  0
   65.2743   34.4511   51.5419 H   0  0  0  0  0  0  0  0  0  0  0  0
   63.9363   35.6497   51.5419 H   0  0  0  0  0  0  0  0  0  0  0  0
   61.8889   33.7162   52.1058 H   0  0  0  0  0  0  0  0  0  0  0  0
   61.5209   34.6016   50.5868 H   0  0  0  0  0  0  0  0  0  0  0  0
   61.5858   32.8065   50.5868 H   0  0  0  0  0  0  0  0  0  0  0  0
   61.0981   35.3685   46.1737 H   0  0  0  0  0  0  0  0  0  0  0  0
   58.3313   35.6345   45.5931 H   0  0  0  0  0  0  0  0  0  0  0  0
   59.5312   35.5170   44.2616 H   0  0  0  0  0  0  0  0  0  0  0  0
   58.0827   34.4548   44.2616 H   0  0  0  0  0  0  0  0  0  0  0  0
   57.3298   32.9352   44.5565 H   0  0  0  0  0  0  0  0  0  0  0  0
   56.0248   28.7901   43.4175 H   0  0  0  0  0  0  0  0  0  0  0  0
   55.3409   30.3245   42.7813 H   0  0  0  0  0  0  0  0  0  0  0  0
   57.1184   30.0653   42.7813 H   0  0  0  0  0  0  0  0  0  0  0  0
  1  2  1  0
  2  3  1  0
  3  4  2  0
  4  5  1  0
  5  6  1  0
  6  7  2  0
  7  8  1  0
  8  9  1  0
  9 10  1  0
 10 11  1  0
 11 12  1  0
 11 13  1  0
  8 14  1  0
 14 15  2  0
 14 16  1  0
 16 17  2  0
 17 18  1  0
 18 19  1  0
 18 20  1  0
 20 21  1  0
 21 22  2  0
 22 23  1  0
 23 24  1  0
 22  3  1  0
 20  5  2  0
 16  6  1  0
  1 25  1  0
  1 26  1  0
  1 27  1  0
  4 28  1  0
  7 29  1  0
  9 30  1  0
  9 31  1  0
 10 32  1  0
 10 33  1  0
 11 34  1  0
 12 35  1  0
 12 36  1  0
 12 37  1  0
 13 38  1  0
 13 39  1  0
 13 40  1  0
 17 41  1  0
 19 42  1  0
 19 43  1  0
 19 44  1  0
 21 45  1  0
 24 46  1  0
 24 47  1  0
 24 48  1  0
M  CHG  1  11   1
M  END
>  <UniqueID>  (5) 
5

>  <SMILES>  (5) 
COc1cc2c3cn(CC[NH+](C)C)c(=O)c-3cn(C)c2cc1OC

>  <Energy>  (5) 
95.55162878713739

>  <Genealogy>  (5) 
COc1cc2c3cn(CC[NH+](C)C)c(=O)c-3cn(C)c2cc1OC (protonated)
COc1cc2c3cn(CC[NH+](C)C)c(=O)c-3cn(C)c2cc1OC (3D coordinates assigned)
COc1cc2c3cn(CC[NH+](C)C)c(=O)c-3cn(C)c2cc1OC (optimized conformer: 95.55162878713739 kcal/mol)

>  <smiles>  (5) 
COc1cc2c3cn(CCN(C)C)c(=O)c-3cn(C)c2cc1OC

>  <score_type>  (5) 
oracle

>  <origin>  (5) 
adg

>  <m_score__min__energy>  (5) 
-4.9199999999999999

>  <m_primary>  (5) 
energy

$$$$
5:0
     RDKit          3D

 74 76  0  0  0  0  0  0  0  0999 V2000
   54.3770   29.5100   52.3990 C   0  0  0  0  0  0  0  0  0  0  0  0
   55.8500   29.8160   52.6710 C   0  0  0  0  0  0  0  0  0  0  0  0
   56.4080   30.6920   51.6310 N   0  0  0  0  0  0  0  0  0  0  0  0
   57.6140   31.4150   52.0770 C   0  0  0  0  0  0  0  0  0  0  0  0
   58.1060   32.3290   50.9500 C   0  0  0  0  0  0  0  0  0  0  0  0
   58.9280   31.5690   49.8950 C   0  0  0  0  0  0  0  0  0  0  0  0
   58.3790   30.2290   49.6320 N   0  0  0  0  0  0  0  0  0  0  0  0
   59.3910   29.3310   49.0550 C   0  0  0  0  0  0  0  0  0  0  0  0
   60.6820   30.1130   48.7580 C   0  0  0  0  0  0  0  0  0  0  0  0
   60.9540   30.2590   47.3150 N   0  0  0  0  0  0  0  0  0  0  0  0
   59.9510   30.5040   46.3110 C   0  0  0  0  0  0  0  0  0  0  0  0
   59.3790   29.3980   45.6390 C   0  0  0  0  0  0  0  0  0  0  0  0
   59.7880   28.0750   45.9270 C   0  0  0  0  0  0  0  0  0  0  0  0
   59.2390   26.9900   45.2500 C   0  0  0  0  0  0  0  0  0  0  0  0
   58.2500   27.1930   44.3010 C   0  0  0  0  0  0  0  0  0  0  0  0
   57.7940   28.4810   44.0290 C   0  0  0  0  0  0  0  0  0  0  0  0
   58.3550   29.6080   44.6820 C   0  0  0  0  0  0  0  0  0  0  0  0
   57.8850   30.8810   44.4480 N   0  0  0  0  0  0  0  0  0  0  0  0
   57.0080   31.1480   43.2850 C   0  0  0  0  0  0  0  0  0  0  0  0
   58.2290   31.9080   45.2980 C   0  0  0  0  0  0  0  0  0  0  0  0
   57.4140   33.0600   45.3910 C   0  0  0  0  0  0  0  0  0  0  0  0
   57.7380   34.0970   46.2460 C   0  0  0  0  0  0  0  0  0  0  0  0
   58.9350   34.0730   46.9410 C   0  0  0  0  0  0  0  0  0  0  0  0
   59.8390   33.0000   46.8050 C   0  0  0  0  0  0  0  0  0  0  0  0
   61.1670   33.1470   47.3810 N   0  0  0  0  0  0  0  0  0  0  0  0
   62.1520   33.8140   46.4950 C   0  0  0  0  0  0  0  0  0  0  0  0
   63.6140   33.4020   46.7750 C   0  0  0  0  0  0  0  0  0  0  0  0
   64.0200   33.4570   48.2600 C   0  0  0  0  0  0  0  0  0  0  0  0
   62.9440   32.9800   49.1570 N   0  0  0  0  0  0  0  0  0  0  0  0
   63.3400   31.7530   49.8730 C   0  0  0  0  0  0  0  0  0  0  0  0
   62.6130   34.0240   50.1370 C   0  0  0  0  0  0  0  0  0  0  0  0
   59.3790   31.8030   46.1400 C   0  0  0  0  0  0  0  0  0  0  0  0
   53.8431   29.3991   53.3543 H   0  0  0  0  0  0  0  0  0  0  0  0
   53.9314   30.3347   51.8235 H   0  0  0  0  0  0  0  0  0  0  0  0
   54.2967   28.5760   51.8235 H   0  0  0  0  0  0  0  0  0  0  0  0
   55.9392   30.3150   53.6472 H   0  0  0  0  0  0  0  0  0  0  0  0
   56.4102   28.8694   52.6688 H   0  0  0  0  0  0  0  0  0  0  0  0
   56.6720   30.0830   50.8200 H   0  0  0  0  0  0  0  0  0  0  0  0
   57.3718   32.0216   52.9621 H   0  0  0  0  0  0  0  0  0  0  0  0
   58.4020   30.6916   52.3335 H   0  0  0  0  0  0  0  0  0  0  0  0
   57.2337   32.7837   50.4578 H   0  0  0  0  0  0  0  0  0  0  0  0
   58.7593   33.0921   51.3982 H   0  0  0  0  0  0  0  0  0  0  0  0
   58.9236   32.1452   48.9580 H   0  0  0  0  0  0  0  0  0  0  0  0
   59.9507   31.4484   50.2818 H   0  0  0  0  0  0  0  0  0  0  0  0
   58.0860   29.8260   50.5560 H   0  0  0  0  0  0  0  0  0  0  0  0
   59.6106   28.5235   49.7689 H   0  0  0  0  0  0  0  0  0  0  0  0
   59.0032   28.9058   48.1175 H   0  0  0  0  0  0  0  0  0  0  0  0
   60.5927   31.1162   49.2002 H   0  0  0  0  0  0  0  0  0  0  0  0
   61.5167   29.5431   49.1921 H   0  0  0  0  0  0  0  0  0  0  0  0
   61.9390   30.1320   46.9910 H   0  0  0  0  0  0  0  0  0  0  0  0
   60.5524   27.9008   46.6986 H   0  0  0  0  0  0  0  0  0  0  0  0
   59.5904   25.9708   45.4684 H   0  0  0  0  0  0  0  0  0  0  0  0
   57.8237   26.3348   43.7609 H   0  0  0  0  0  0  0  0  0  0  0  0
   56.9863   28.6261   43.2964 H   0  0  0  0  0  0  0  0  0  0  0  0
   56.0117   31.4513   43.6391 H   0  0  0  0  0  0  0  0  0  0  0  0
   57.4420   31.9547   42.6760 H   0  0  0  0  0  0  0  0  0  0  0  0
   56.9189   30.2363   42.6760 H   0  0  0  0  0  0  0  0  0  0  0  0
   56.5071   33.1322   44.7727 H   0  0  0  0  0  0  0  0  0  0  0  0
   57.0446   34.9413   46.3740 H   0  0  0  0  0  0  0  0  0  0  0  0
   59.1856   34.9075   47.6124 H   0  0  0  0  0  0  0  0  0  0  0  0
   61.5920   32.2360   47.6200 H   0  0  0  0  0  0  0  0  0  0  0  0
   61.0740   33.7050   48.2610 H   0  0  0  0  0  0  0  0  0  0  0  0
   61.9119   33.5573   45.4527 H   0  0  0  0  0  0  0  0  0  0  0  0
   62.0789   34.8946   46.6872 H   0  0  0  0  0  0  0  0  0  0  0  0
   63.7547   32.3710   46.4183 H   0  0  0  0  0  0  0  0  0  0  0  0
   64.2501   34.1295   46.2496 H   0  0  0  0  0  0  0  0  0  0  0  0
   64.9084   32.8253   48.4070 H   0  0  0  0  0  0  0  0  0  0  0  0
   64.2262   34.5075   48.5127 H   0  0  0  0  0  0  0  0  0  0  0  0
   63.2838   31.9271   50.9577 H   0  0  0  0  0  0  0  0  0  0  0  0
   62.6610   30.9325   49.5977 H   0  0  0  0  0  0  0  0  0  0  0  0
   64.3705   31.4842   49.5977 H   0  0  0  0  0  0  0  0  0  0  0  0
   62.7394   33.6252   51.1544 H   0  0  0  0  0  0  0  0  0  0  0  0
   63.2821   34.8855   49.9951 H   0  0  0  0  0  0  0  0  0  0  0  0
   61.5698   34.3426   49.9951 H   0  0  0  0  0  0  0  0  0  0  0  0
  1  2  1  0
  2  3  1  0
  3  4  1  0
  4  5  1  0
  5  6  1  0
  6  7  1  0
  7  8  1  0
  8  9  1  0
  9 10  1  0
 10 11  1  0
 11 12  2  0
 12 13  1  0
 13 14  2  0
 14 15  1  0
 15 16  2  0
 16 17  1  0
 17 18  2  0
 18 19  1  0
 18 20  1  0
 20 21  2  0
 21 22  1  0
 22 23  2  0
 23 24  1  0
 24 25  1  0
 25 26  1  0
 26 27  1  0
 27 28  1  0
 28 29  1  0
 29 30  1  0
 29 31  1  0
 24 32  2  0
 32 11  1  0
 17 12  1  0
 32 20  1  0
  1 33  1  0
  1 34  1  0
  1 35  1  0
  2 36  1  0
  2 37  1  0
  3 38  1  0
  4 39  1  0
  4 40  1  0
  5 41  1  0
  5 42  1  0
  6 43  1  0
  6 44  1  0
  7 45  1  0
  8 46  1  0
  8 47  1  0
  9 48  1  0
  9 49  1  0
 10 50  1  0
 13 51  1  0
 14 52  1  0
 15 53  1  0
 16 54  1  0
 19 55  1  0
 19 56  1  0
 19 57  1  0
 21 58  1  0
 22 59  1  0
 23 60  1  0
 25 61  1  0
 25 62  1  0
 26 63  1  0
 26 64  1  0
 27 65  1  0
 27 66  1  0
 28 67  1  0
 28 68  1  0
 30 69  1  0
 30 70  1  0
 30 71  1  0
 31 72  1  0
 31 73  1  0
 31 74  1  0
M  CHG  2  18   1  25   1
M  END
>  <UniqueID>  (6) 
6

>  <SMILES>  (6) 
CCNCCCNCCNc1c2ccccc2[n+](C)c2cccc([NH2+]CCCN(C)C)c12

>  <Energy>  (6) 
108.27048693062079

>  <Genealogy>  (6) 
CCNCCCNCCNc1c2ccccc2[n+](C)c2cccc([NH2+]CCCN(C)C)c12 (protonated)
CCNCCCNCCNc1c2ccccc2[n+](C)c2cccc([NH2+]CCCN(C)C)c12 (3D coordinates assigned)
CCNCCCNCCNc1c2ccccc2[n+](C)c2cccc([NH2+]CCCN(C)C)c12 (optimized conformer: 108.27048693062079 kcal/mol)

>  <smiles>  (6) 
CCNCCCNCCNc1c2ccccc2[n+](C)c2cccc(NCCCN(C)C)c12

>  <score_type>  (6) 
oracle

>  <origin>  (6) 
adg

>  <m_score__min__energy>  (6) 
-3.79

>  <m_primary>  (6) 
energy

$$$$
6:0
     RDKit          3D

 62 64  0  0  0  0  0  0  0  0999 V2000
   59.8320   35.2260   46.1600 C   0  0  0  0  0  0  0  0  0  0  0  0
   60.0060   34.6950   47.5870 C   0  0  0  0  0  0  0  0  0  0  0  0
   61.1860   33.8060   47.7090 N   0  0  0  0  0  0  0  0  0  0  0  0
   62.0580   33.8330   46.5190 C   0  0  0  0  0  0  0  0  0  0  0  0
   63.3630   33.0460   46.7390 C   0  0  0  0  0  0  0  0  0  0  0  0
   63.6300   32.7540   48.2230 C   0  0  0  0  0  0  0  0  0  0  0  0
   62.5520   31.9450   48.8200 N   0  0  0  0  0  0  0  0  0  0  0  0
   62.6380   31.8550   50.2880 C   0  0  0  0  0  0  0  0  0  0  0  0
   61.4460   32.5290   50.9710 C   0  0  0  0  0  0  0  0  0  0  0  0
   60.5260   32.9700   49.9920 O   0  0  0  0  0  0  0  0  0  0  0  0
   59.2010   32.6180   50.3360 C   0  0  0  0  0  0  0  0  0  0  0  0
   58.5300   31.8330   49.1990 C   0  0  0  0  0  0  0  0  0  0  0  0
   59.5130   31.2860   48.2550 N   0  0  0  0  0  0  0  0  0  0  0  0
   59.1450   30.4380   47.1500 C   0  0  0  0  0  0  0  0  0  0  0  0
   58.5450   30.9990   46.0090 C   0  0  0  0  0  0  0  0  0  0  0  0
   58.2260   32.3740   45.9660 C   0  0  0  0  0  0  0  0  0  0  0  0
   57.6870   32.9450   44.8170 C   0  0  0  0  0  0  0  0  0  0  0  0
   57.4800   32.1670   43.6850 C   0  0  0  0  0  0  0  0  0  0  0  0
   57.7870   30.8070   43.7010 C   0  0  0  0  0  0  0  0  0  0  0  0
   58.2920   30.1830   44.8730 C   0  0  0  0  0  0  0  0  0  0  0  0
   58.5620   28.8270   44.9160 N   0  0  0  0  0  0  0  0  0  0  0  0
   58.0840   27.9440   43.8260 C   0  0  0  0  0  0  0  0  0  0  0  0
   59.2460   28.2890   45.9910 C   0  0  0  0  0  0  0  0  0  0  0  0
   59.7480   26.9610   45.9700 C   0  0  0  0  0  0  0  0  0  0  0  0
   60.3500   26.4020   47.0960 C   0  0  0  0  0  0  0  0  0  0  0  0
   60.4690   27.1430   48.2660 C   0  0  0  0  0  0  0  0  0  0  0  0
   60.0390   28.4660   48.3000 C   0  0  0  0  0  0  0  0  0  0  0  0
   59.4790   29.0720   47.1550 C   0  0  0  0  0  0  0  0  0  0  0  0
   59.4897   36.2707   46.1967 H   0  0  0  0  0  0  0  0  0  0  0  0
   60.7942   35.1739   45.6295 H   0  0  0  0  0  0  0  0  0  0  0  0
   59.0872   34.6145   45.6295 H   0  0  0  0  0  0  0  0  0  0  0  0
   60.1317   35.5478   48.2703 H   0  0  0  0  0  0  0  0  0  0  0  0
   59.1111   34.1086   47.8427 H   0  0  0  0  0  0  0  0  0  0  0  0
   60.8430   32.8230   47.8220 H   0  0  0  0  0  0  0  0  0  0  0  0
   61.7520   34.0250   48.5650 H   0  0  0  0  0  0  0  0  0  0  0  0
   61.5150   33.3896   45.6713 H   0  0  0  0  0  0  0  0  0  0  0  0
   62.3244   34.8812   46.3181 H   0  0  0  0  0  0  0  0  0  0  0  0
   63.2943   32.0906   46.1982 H   0  0  0  0  0  0  0  0  0  0  0  0
   64.1930   33.6634   46.3650 H   0  0  0  0  0  0  0  0  0  0  0  0
   64.5795   32.2060   48.3137 H   0  0  0  0  0  0  0  0  0  0  0  0
   63.6770   33.7134   48.7591 H   0  0  0  0  0  0  0  0  0  0  0  0
   62.6370   30.9700   48.4470 H   0  0  0  0  0  0  0  0  0  0  0  0
   62.6615   30.7944   50.5786 H   0  0  0  0  0  0  0  0  0  0  0  0
   63.5533   32.3740   50.6087 H   0  0  0  0  0  0  0  0  0  0  0  0
   60.9519   31.8088   51.6398 H   0  0  0  0  0  0  0  0  0  0  0  0
   61.7993   33.3914   51.5554 H   0  0  0  0  0  0  0  0  0  0  0  0
   59.2175   31.9954   51.2427 H   0  0  0  0  0  0  0  0  0  0  0  0
   58.6272   33.5396   50.5133 H   0  0  0  0  0  0  0  0  0  0  0  0
   57.9534   31.0026   49.6325 H   0  0  0  0  0  0  0  0  0  0  0  0
   57.8766   32.5248   48.6472 H   0  0  0  0  0  0  0  0  0  0  0  0
   60.5290   31.4100   48.4680 H   0  0  0  0  0  0  0  0  0  0  0  0
   58.4057   33.0014   46.8515 H   0  0  0  0  0  0  0  0  0  0  0  0
   57.4247   34.0132   44.8052 H   0  0  0  0  0  0  0  0  0  0  0  0
   57.0722   32.6257   42.7722 H   0  0  0  0  0  0  0  0  0  0  0  0
   57.6357   30.2075   42.7912 H   0  0  0  0  0  0  0  0  0  0  0  0
   57.6026   27.0547   44.2590 H   0  0  0  0  0  0  0  0  0  0  0  0
   57.3575   28.4885   43.2050 H   0  0  0  0  0  0  0  0  0  0  0  0
   58.9371   27.6334   43.2050 H   0  0  0  0  0  0  0  0  0  0  0  0
   59.6604   26.3638   45.0504 H   0  0  0  0  0  0  0  0  0  0  0  0
   60.7321   25.3712   47.0586 H   0  0  0  0  0  0  0  0  0  0  0  0
   60.9035   26.6831   49.1659 H   0  0  0  0  0  0  0  0  0  0  0  0
   60.1366   29.0459   49.2296 H   0  0  0  0  0  0  0  0  0  0  0  0
  1  2  1  0
  2  3  1  0
  3  4  1  0
  4  5  1  0
  5  6  1  0
  6  7  1  0
  7  8  1  0
  8  9  1  0
  9 10  1  0
 10 11  1  0
 11 12  1  0
 12 13  1  0
 13 14  1  0
 14 15  2  0
 15 16  1  0
 16 17  2  0
 17 18  1  0
 18 19  2  0
 19 20  1  0
 20 21  2  0
 21 22  1  0
 21 23  1  0
 23 24  2  0
 24 25  1  0
 25 26  2  0
 26 27  1  0
 27 28  2  0
 28 14  1  0
 20 15  1  0
 28 23  1  0
  1 29  1  0
  1 30  1  0
  1 31  1  0
  2 32  1  0
  2 33  1  0
  3 34  1  0
  3 35  1  0
  4 36  1  0
  4 37  1  0
  5 38  1  0
  5 39  1  0
  6 40  1  0
  6 41  1  0
  7 42  1  0
  8 43  1  0
  8 44  1  0
  9 45  1  0
  9 46  1  0
 11 47  1  0
 11 48  1  0
 12 49  1  0
 12 50  1  0
 13 51  1  0
 16 52  1  0
 17 53  1  0
 18 54  1  0
 19 55  1  0
 22 56  1  0
 22 57  1  0
 22 58  1  0
 24 59  1  0
 25 60  1  0
 26 61  1  0
 27 62  1  0
M  CHG  2   3   1  21   1
M  END
>  <UniqueID>  (7) 
7

>  <SMILES>  (7) 
CC[NH2+]CCCNCCOCCNc1c2ccccc2[n+](C)c2ccccc12

>  <Energy>  (7) 
80.62026568536061

>  <Genealogy>  (7) 
CC[NH2+]CCCNCCOCCNc1c2ccccc2[n+](C)c2ccccc12 (protonated)
CC[NH2+]CCCNCCOCCNc1c2ccccc2[n+](C)c2ccccc12 (3D coordinates assigned)
CC[NH2+]CCCNCCOCCNc1c2ccccc2[n+](C)c2ccccc12 (optimized conformer: 80.62026568536061 kcal/mol)

>  <smiles>  (7) 
CCNCCCNCCOCCNc1c2ccccc2[n+](C)c2ccccc12

>  <score_type>  (7) 
oracle

>  <origin>  (7) 
adg

>  <m_score__min__energy>  (7) 
-3.8599999999999999

>  <m_primary>  (7) 
energy

$$$$
7:0
     RDKit          3D

 64 67  0  0  0  0  0  0  0  0999 V2000
   54.2640   30.8310   51.7940 C   0  0  0  0  0  0  0  0  0  0  0  0
   55.1920   29.7850   52.4120 C   0  0  0  0  0  0  0  0  0  0  0  0
   56.6040   30.3310   52.6180 C   0  0  0  0  0  0  0  0  0  0  0  0
   57.4880   29.7850   51.6410 O   0  0  0  0  0  0  0  0  0  0  0  0
   58.1490   30.5380   50.6610 C   0  0  0  0  0  0  0  0  0  0  0  0
   58.0780   31.9410   50.6100 C   0  0  0  0  0  0  0  0  0  0  0  0
   58.7550   32.6460   49.6110 C   0  0  0  0  0  0  0  0  0  0  0  0
   59.5300   31.9660   48.6480 C   0  0  0  0  0  0  0  0  0  0  0  0
   60.2510   32.7110   47.5250 C   0  0  1  0  0  0  0  0  0  0  0  0
   59.2660   33.3560   46.5600 C   0  0  0  0  0  0  0  0  0  0  0  0
   57.9500   32.8680   46.4940 C   0  0  0  0  0  0  0  0  0  0  0  0
   57.0220   33.4490   45.6300 C   0  0  0  0  0  0  0  0  0  0  0  0
   57.4100   34.5290   44.8390 C   0  0  0  0  0  0  0  0  0  0  0  0
   58.6770   35.0100   44.9200 N   0  0  0  0  0  0  0  0  0  0  0  0
   59.6020   34.4610   45.7540 C   0  0  0  0  0  0  0  0  0  0  0  0
   61.2970   33.6810   47.9750 N   0  0  0  0  0  0  0  0  0  0  0  0
   62.5450   33.6730   47.1850 C   0  0  0  0  0  0  0  0  0  0  0  0
   63.5100   32.5690   47.6420 C   0  0  0  0  0  0  0  0  0  0  0  0
   63.4920   32.3590   49.1820 C   0  0  0  0  0  0  0  0  0  0  0  0
   64.8080   31.9610   49.7400 N   0  0  0  0  0  0  0  0  0  0  0  0
   65.7350   33.1090   49.8470 C   0  0  0  0  0  0  0  0  0  0  0  0
   67.0820   32.6630   50.4210 C   0  0  0  0  0  0  0  0  0  0  0  0
   66.9350   32.0350   51.8200 C   0  0  0  0  0  0  0  0  0  0  0  0
   65.4870   31.6580   52.1600 C   0  0  0  0  0  0  0  0  0  0  0  0
   64.7610   31.0750   50.9380 C   0  0  0  0  0  0  0  0  0  0  0  0
   62.9190   33.5780   49.9250 C   0  0  0  0  0  0  0  0  0  0  0  0
   61.5000   33.9240   49.4280 C   0  0  0  0  0  0  0  0  0  0  0  0
   59.5700   30.5610   48.6910 C   0  0  0  0  0  0  0  0  0  0  0  0
   58.8990   29.8590   49.6960 C   0  0  0  0  0  0  0  0  0  0  0  0
   53.7632   31.3955   52.5944 H   0  0  0  0  0  0  0  0  0  0  0  0
   54.8524   31.5211   51.1715 H   0  0  0  0  0  0  0  0  0  0  0  0
   53.5087   30.3290   51.1715 H   0  0  0  0  0  0  0  0  0  0  0  0
   54.7835   29.4774   53.3859 H   0  0  0  0  0  0  0  0  0  0  0  0
   55.2528   28.9309   51.7215 H   0  0  0  0  0  0  0  0  0  0  0  0
   56.5879   31.4267   52.5222 H   0  0  0  0  0  0  0  0  0  0  0  0
   56.9567   30.0481   53.6208 H   0  0  0  0  0  0  0  0  0  0  0  0
   57.4867   32.4867   51.3601 H   0  0  0  0  0  0  0  0  0  0  0  0
   58.6828   33.7430   49.5752 H   0  0  0  0  0  0  0  0  0  0  0  0
   60.8109   31.9306   46.9889 H   0  0  0  0  0  0  0  0  0  0  0  0
   57.6494   32.0213   47.1286 H   0  0  0  0  0  0  0  0  0  0  0  0
   55.9950   33.0591   45.5735 H   0  0  0  0  0  0  0  0  0  0  0  0
   56.6893   34.9919   44.1488 H   0  0  0  0  0  0  0  0  0  0  0  0
   60.6171   34.8825   45.7987 H   0  0  0  0  0  0  0  0  0  0  0  0
   62.2940   33.5091   46.1266 H   0  0  0  0  0  0  0  0  0  0  0  0
   63.0448   34.6420   47.3308 H   0  0  0  0  0  0  0  0  0  0  0  0
   63.2225   31.6258   47.1545 H   0  0  0  0  0  0  0  0  0  0  0  0
   64.5273   32.8780   47.3598 H   0  0  0  0  0  0  0  0  0  0  0  0
   62.8142   31.5094   49.3517 H   0  0  0  0  0  0  0  0  0  0  0  0
   65.8931   33.5402   48.8475 H   0  0  0  0  0  0  0  0  0  0  0  0
   65.2939   33.8590   50.5200 H   0  0  0  0  0  0  0  0  0  0  0  0
   67.5280   31.9200   49.7435 H   0  0  0  0  0  0  0  0  0  0  0  0
   67.7224   33.5525   50.5140 H   0  0  0  0  0  0  0  0  0  0  0  0
   67.5529   31.1260   51.8626 H   0  0  0  0  0  0  0  0  0  0  0  0
   67.2595   32.7876   52.5537 H   0  0  0  0  0  0  0  0  0  0  0  0
   65.4913   30.9089   52.9655 H   0  0  0  0  0  0  0  0  0  0  0  0
   64.9566   32.5677   52.4779 H   0  0  0  0  0  0  0  0  0  0  0  0
   65.2307   30.1145   50.6794 H   0  0  0  0  0  0  0  0  0  0  0  0
   63.7025   30.9606   51.2146 H   0  0  0  0  0  0  0  0  0  0  0  0
   62.8766   33.3539   51.0011 H   0  0  0  0  0  0  0  0  0  0  0  0
   63.5736   34.4406   49.7315 H   0  0  0  0  0  0  0  0  0  0  0  0
   60.7777   33.3104   49.9865 H   0  0  0  0  0  0  0  0  0  0  0  0
   61.3557   35.0015   49.5958 H   0  0  0  0  0  0  0  0  0  0  0  0
   60.1352   30.0088   47.9257 H   0  0  0  0  0  0  0  0  0  0  0  0
   58.9615   28.7612   49.7281 H   0  0  0  0  0  0  0  0  0  0  0  0
  1  2  1  0
  2  3  1  0
  3  4  1  0
  4  5  1  0
  5  6  2  0
  6  7  1  0
  7  8  2  0
  8  9  1  0
  9 10  1  0
 10 11  2  0
 11 12  1  0
 12 13  2  0
 13 14  1  0
 14 15  2  0
  9 16  1  0
 16 17  1  0
 17 18  1  0
 18 19  1  0
 19 20  1  0
 20 21  1  0
 21 22  1  0
 22 23  1  0
 23 24  1  0
 24 25  1  0
 19 26  1  0
 26 27  1  0
  8 28  1  0
 28 29  2  0
 29  5  1  0
 15 10  1  0
 27 16  1  0
 25 20  1  0
  1 30  1  0
  1 31  1  0
  1 32  1  0
  2 33  1  0
  2 34  1  0
  3 35  1  0
  3 36  1  0
  6 37  1  0
  7 38  1  0
  9 39  1  6
 11 40  1  0
 12 41  1  0
 13 42  1  0
 15 43  1  0
 17 44  1  0
 17 45  1  0
 18 46  1  0
 18 47  1  0
 19 48  1  0
 21 49  1  0
 21 50  1  0
 22 51  1  0
 22 52  1  0
 23 53  1  0
 23 54  1  0
 24 55  1  0
 24 56  1  0
 25 57  1  0
 25 58  1  0
 26 59  1  0
 26 60  1  0
 27 61  1  0
 27 62  1  0
 28 63  1  0
 29 64  1  0
M  END
>  <UniqueID>  (8) 
8

>  <SMILES>  (8) 
CCCOc1ccc([C@@H](c2cccnc2)N2CCC(N3CCCCC3)CC2)cc1

>  <Energy>  (8) 
93.52729730513553

>  <Genealogy>  (8) 
CCCOc1ccc([C@@H](c2cccnc2)N2CCC(N3CCCCC3)CC2)cc1 (chirality)
CCCOc1ccc([C@@H](c2cccnc2)N2CCC(N3CCCCC3)CC2)cc1 (3D coordinates assigned)
CCCOc1ccc([C@@H](c2cccnc2)N2CCC(N3CCCCC3)CC2)cc1 (nonaromatic ring conformer: 93.52729730513553 kcal/mol)

>  <smiles>  (8) 
CCCOc1ccc(C(c2cccnc2)N2CCC(N3CCCCC3)CC2)cc1

>  <score_type>  (8) 
oracle

>  <origin>  (8) 
adg

>  <m_score__min__energy>  (8) 
-8.8300000000000001

>  <m_primary>  (8) 
energy

$$$$
8:0
     RDKit          3D

 79 81  0  0  0  0  0  0  0  0999 V2000
   59.7160   33.8480   50.3690 C   0  0  0  0  0  0  0  0  0  0  0  0
   60.4070   32.5700   50.8690 C   0  0  0  0  0  0  0  0  0  0  0  0
   59.8840   31.3000   50.2940 N   0  0  0  0  0  0  0  0  0  0  0  0
   58.8430   30.6370   51.1130 C   0  0  0  0  0  0  0  0  0  0  0  0
   57.5550   31.4560   51.2550 C   0  0  0  0  0  0  0  0  0  0  0  0
   60.8800   30.3650   49.7280 C   0  0  0  0  0  0  0  0  0  0  0  0
   60.4270   29.8330   48.3530 C   0  0  0  0  0  0  0  0  0  0  0  0
   59.0630   30.2850   48.0090 N   0  0  0  0  0  0  0  0  0  0  0  0
   58.9220   30.5270   46.5740 C   0  0  0  0  0  0  0  0  0  0  0  0
   58.6120   29.4460   45.7050 C   0  0  0  0  0  0  0  0  0  0  0  0
   58.8510   28.1040   46.0900 C   0  0  0  0  0  0  0  0  0  0  0  0
   58.4730   27.0420   45.2710 C   0  0  0  0  0  0  0  0  0  0  0  0
   57.8370   27.2870   44.0630 C   0  0  0  0  0  0  0  0  0  0  0  0
   57.6030   28.5950   43.6510 C   0  0  0  0  0  0  0  0  0  0  0  0
   58.0200   29.7040   44.4360 C   0  0  0  0  0  0  0  0  0  0  0  0
   57.8110   31.0020   44.0150 N   0  0  0  0  0  0  0  0  0  0  0  0
   57.3770   31.2710   42.6250 C   0  0  0  0  0  0  0  0  0  0  0  0
   58.0630   32.0560   44.8690 C   0  0  0  0  0  0  0  0  0  0  0  0
   57.5850   33.3580   44.5900 C   0  0  0  0  0  0  0  0  0  0  0  0
   57.9600   34.4420   45.3710 C   0  0  0  0  0  0  0  0  0  0  0  0
   58.8720   34.2720   46.4020 C   0  0  0  0  0  0  0  0  0  0  0  0
   59.3480   32.9920   46.7310 C   0  0  0  0  0  0  0  0  0  0  0  0
   60.5230   32.8680   47.5590 N   0  0  0  0  0  0  0  0  0  0  0  0
   61.8540   33.3520   47.1770 C   0  0  0  0  0  0  0  0  0  0  0  0
   62.9390   32.3470   47.5970 C   0  0  0  0  0  0  0  0  0  0  0  0
   64.1510   33.0630   48.2510 C   0  0  0  0  0  0  0  0  0  0  0  0
   64.2950   32.8860   49.7380 N   0  0  0  0  0  0  0  0  0  0  0  0
   63.8570   31.5210   50.1440 C   0  0  0  0  0  0  0  0  0  0  0  0
   65.7340   33.1040   50.1250 C   0  0  0  0  0  0  0  0  0  0  0  0
   66.5400   31.8400   50.4870 C   0  0  0  0  0  0  0  0  0  0  0  0
   63.4580   33.9300   50.4280 C   0  0  0  0  0  0  0  0  0  0  0  0
   64.0510   34.5070   51.7280 C   0  0  0  0  0  0  0  0  0  0  0  0
   58.7980   31.8520   46.0680 C   0  0  0  0  0  0  0  0  0  0  0  0
   59.3906   34.4499   51.2303 H   0  0  0  0  0  0  0  0  0  0  0  0
   60.4214   34.4317   49.7594 H   0  0  0  0  0  0  0  0  0  0  0  0
   58.8413   33.5774   49.7594 H   0  0  0  0  0  0  0  0  0  0  0  0
   61.4760   32.6415   50.6199 H   0  0  0  0  0  0  0  0  0  0  0  0
   60.2101   32.5195   51.9500 H   0  0  0  0  0  0  0  0  0  0  0  0
   58.5923   29.6746   50.6430 H   0  0  0  0  0  0  0  0  0  0  0  0
   59.2591   30.5152   52.1239 H   0  0  0  0  0  0  0  0  0  0  0  0
   57.3280   31.6003   52.3216 H   0  0  0  0  0  0  0  0  0  0  0  0
   57.6883   32.4356   50.7727 H   0  0  0  0  0  0  0  0  0  0  0  0
   56.7245   30.9198   50.7727 H   0  0  0  0  0  0  0  0  0  0  0  0
   61.8394   30.8902   49.6112 H   0  0  0  0  0  0  0  0  0  0  0  0
   60.9861   29.5117   50.4140 H   0  0  0  0  0  0  0  0  0  0  0  0
   61.1258   30.1944   47.5842 H   0  0  0  0  0  0  0  0  0  0  0  0
   60.4205   28.7339   48.3982 H   0  0  0  0  0  0  0  0  0  0  0  0
   58.4210   29.5610   48.3790 H   0  0  0  0  0  0  0  0  0  0  0  0
   58.8240   31.1480   48.5440 H   0  0  0  0  0  0  0  0  0  0  0  0
   59.3433   27.8967   47.0516 H   0  0  0  0  0  0  0  0  0  0  0  0
   58.6793   26.0076   45.5830 H   0  0  0  0  0  0  0  0  0  0  0  0
   57.5173   26.4461   43.4300 H   0  0  0  0  0  0  0  0  0  0  0  0
   57.0844   28.7747   42.6977 H   0  0  0  0  0  0  0  0  0  0  0  0
   56.4421   31.8505   42.6384 H   0  0  0  0  0  0  0  0  0  0  0  0
   58.1564   31.8446   42.1020 H   0  0  0  0  0  0  0  0  0  0  0  0
   57.2101   30.3178   42.1020 H   0  0  0  0  0  0  0  0  0  0  0  0
   56.9047   33.5137   43.7397 H   0  0  0  0  0  0  0  0  0  0  0  0
   57.5338   35.4364   45.1723 H   0  0  0  0  0  0  0  0  0  0  0  0
   59.2256   35.1471   46.9670 H   0  0  0  0  0  0  0  0  0  0  0  0
   60.4430   32.3470   48.4600 H   0  0  0  0  0  0  0  0  0  0  0  0
   61.8897   33.4869   46.0859 H   0  0  0  0  0  0  0  0  0  0  0  0
   62.0420   34.3087   47.6863 H   0  0  0  0  0  0  0  0  0  0  0  0
   62.5095   31.6378   48.3199 H   0  0  0  0  0  0  0  0  0  0  0  0
   63.2914   31.8216   46.6972 H   0  0  0  0  0  0  0  0  0  0  0  0
   65.0658   32.6791   47.7758 H   0  0  0  0  0  0  0  0  0  0  0  0
   63.9812   34.1385   48.0944 H   0  0  0  0  0  0  0  0  0  0  0  0
   63.8356   31.4542   51.2418 H   0  0  0  0  0  0  0  0  0  0  0  0
   62.8508   31.3249   49.7450 H   0  0  0  0  0  0  0  0  0  0  0  0
   64.5612   30.7761   49.7450 H   0  0  0  0  0  0  0  0  0  0  0  0
   66.2388   33.5932   49.2789 H   0  0  0  0  0  0  0  0  0  0  0  0
   65.7038   33.7075   51.0442 H   0  0  0  0  0  0  0  0  0  0  0  0
   66.6007   31.7447   51.5812 H   0  0  0  0  0  0  0  0  0  0  0  0
   66.0398   30.9540   50.0690 H   0  0  0  0  0  0  0  0  0  0  0  0
   67.5544   31.9197   50.0690 H   0  0  0  0  0  0  0  0  0  0  0  0
   63.3090   34.7630   49.7252 H   0  0  0  0  0  0  0  0  0  0  0  0
   62.5268   33.4232   50.7213 H   0  0  0  0  0  0  0  0  0  0  0  0
   63.5650   34.0342   52.5942 H   0  0  0  0  0  0  0  0  0  0  0  0
   65.1320   34.3057   51.7589 H   0  0  0  0  0  0  0  0  0  0  0  0
   63.8793   35.5931   51.7589 H   0  0  0  0  0  0  0  0  0  0  0  0
  1  2  1  0
  2  3  1  0
  3  4  1  0
  4  5  1  0
  3  6  1  0
  6  7  1  0
  7  8  1  0
  8  9  1  0
  9 10  2  0
 10 11  1  0
 11 12  2  0
 12 13  1  0
 13 14  2  0
 14 15  1  0
 15 16  2  0
 16 17  1  0
 16 18  1  0
 18 19  2  0
 19 20  1  0
 20 21  2  0
 21 22  1  0
 22 23  1  0
 23 24  1  0
 24 25  1  0
 25 26  1  0
 26 27  1  0
 27 28  1  0
 27 29  1  0
 29 30  1  0
 27 31  1  0
 31 32  1  0
 22 33  2  0
 33  9  1  0
 15 10  1  0
 33 18  1  0
  1 34  1  0
  1 35  1  0
  1 36  1  0
  2 37  1  0
  2 38  1  0
  4 39  1  0
  4 40  1  0
  5 41  1  0
  5 42  1  0
  5 43  1  0
  6 44  1  0
  6 45  1  0
  7 46  1  0
  7 47  1  0
  8 48  1  0
  8 49  1  0
 11 50  1  0
 12 51  1  0
 13 52  1  0
 14 53  1  0
 17 54  1  0
 17 55  1  0
 17 56  1  0
 19 57  1  0
 20 58  1  0
 21 59  1  0
 23 60  1  0
 24 61  1  0
 24 62  1  0
 25 63  1  0
 25 64  1  0
 26 65  1  0
 26 66  1  0
 28 67  1  0
 28 68  1  0
 28 69  1  0
 29 70  1  0
 29 71  1  0
 30 72  1  0
 30 73  1  0
 30 74  1  0
 31 75  1  0
 31 76  1  0
 32 77  1  0
 32 78  1  0
 32 79  1  0
M  CHG  3   8   1  16   1  27   1
M  END
>  <UniqueID>  (9) 
9

>  <SMILES>  (9) 
CCN(CC)CC[NH2+]c1c2ccccc2[n+](C)c2cccc(NCCC[N+](C)(CC)CC)c12

>  <Energy>  (9) 
137.51702524997407

>  <Genealogy>  (9) 
CCN(CC)CC[NH2+]c1c2ccccc2[n+](C)c2cccc(NCCC[N+](C)(CC)CC)c12 (protonated)
CCN(CC)CC[NH2+]c1c2ccccc2[n+](C)c2cccc(NCCC[N+](C)(CC)CC)c12 (3D coordinates assigned)
CCN(CC)CC[NH2+]c1c2ccccc2[n+](C)c2cccc(NCCC[N+](C)(CC)CC)c12 (optimized conformer: 137.51702524997407 kcal/mol)

>  <smiles>  (9) 
CCN(CC)CCNc1c2ccccc2[n+](C)c2cccc(NCCC[N+](C)(CC)CC)c12

>  <score_type>  (9) 
oracle

>  <origin>  (9) 
adg

>  <m_score__min__energy>  (9) 
-2.73

>  <m_primary>  (9) 
energy

$$$$
9:0
     RDKit          3D

 48 49  0  0  0  0  0  0  0  0999 V2000
   60.8230   29.9190   48.2420 C   0  0  0  0  0  0  0  0  0  0  0  0
   59.3200   30.1730   48.3560 C   0  0  0  0  0  0  0  0  0  0  0  0
   58.6350   30.0650   47.0560 N   0  0  0  0  0  0  0  0  0  0  0  0
   58.8880   28.8080   46.3280 C   0  0  0  0  0  0  0  0  0  0  0  0
   59.5560   29.0200   44.9620 C   0  0  0  0  0  0  0  0  0  0  0  0
   59.0430   30.1990   44.3760 O   0  0  0  0  0  0  0  0  0  0  0  0
   57.7240   29.9940   43.9040 C   0  0  0  0  0  0  0  0  0  0  0  0
   56.8590   31.2180   44.2210 C   0  0  0  0  0  0  0  0  0  0  0  0
   57.3590   31.9280   45.4080 N   0  0  0  0  0  0  0  0  0  0  0  0
   57.4150   33.3790   45.1850 C   0  0  0  0  0  0  0  0  0  0  0  0
   58.8390   33.8860   45.4160 C   0  0  0  0  0  0  0  0  0  0  0  0
   59.5690   32.9810   46.2470 O   0  0  0  0  0  0  0  0  0  0  0  0
   60.0270   33.2480   47.5500 C   0  0  0  0  0  0  0  0  0  0  0  0
   59.1400   33.4660   48.6240 C   0  0  0  0  0  0  0  0  0  0  0  0
   59.6240   33.7250   49.9060 C   0  0  0  0  0  0  0  0  0  0  0  0
   60.9980   33.7700   50.1450 C   0  0  0  0  0  0  0  0  0  0  0  0
   61.9040   33.5550   49.0980 C   0  0  0  0  0  0  0  0  0  0  0  0
   63.2480   33.6010   49.3300 N   0  0  0  0  0  0  0  0  0  0  0  0
   64.1490   33.3970   48.3320 C   0  0  0  0  0  0  0  0  0  0  0  0
   63.7150   33.1310   47.0340 C   0  0  0  0  0  0  0  0  0  0  0  0
   62.3480   33.0770   46.7630 C   0  0  0  0  0  0  0  0  0  0  0  0
   61.4180   33.2920   47.7930 C   0  0  0  0  0  0  0  0  0  0  0  0
   61.2598   29.8452   49.2489 H   0  0  0  0  0  0  0  0  0  0  0  0
   60.9957   28.9789   47.6976 H   0  0  0  0  0  0  0  0  0  0  0  0
   61.2951   30.7501   47.6976 H   0  0  0  0  0  0  0  0  0  0  0  0
   58.8876   29.4338   49.0463 H   0  0  0  0  0  0  0  0  0  0  0  0
   59.1790   31.1990   48.7267 H   0  0  0  0  0  0  0  0  0  0  0  0
   58.9460   30.8640   46.4560 H   0  0  0  0  0  0  0  0  0  0  0  0
   59.5444   28.1747   46.9429 H   0  0  0  0  0  0  0  0  0  0  0  0
   57.9113   28.3370   46.1429 H   0  0  0  0  0  0  0  0  0  0  0  0
   60.6436   29.1174   45.0947 H   0  0  0  0  0  0  0  0  0  0  0  0
   59.3471   28.1597   44.3091 H   0  0  0  0  0  0  0  0  0  0  0  0
   57.7468   29.8358   42.8157 H   0  0  0  0  0  0  0  0  0  0  0  0
   57.2958   29.1105   44.4000 H   0  0  0  0  0  0  0  0  0  0  0  0
   56.8757   31.9022   43.3598 H   0  0  0  0  0  0  0  0  0  0  0  0
   55.8332   30.8770   44.4248 H   0  0  0  0  0  0  0  0  0  0  0  0
   58.3390   31.6000   45.5810 H   0  0  0  0  0  0  0  0  0  0  0  0
   57.1118   33.6012   44.1512 H   0  0  0  0  0  0  0  0  0  0  0  0
   56.7334   33.8802   45.8880 H   0  0  0  0  0  0  0  0  0  0  0  0
   59.3508   33.9791   44.4468 H   0  0  0  0  0  0  0  0  0  0  0  0
   58.7892   34.8641   45.9168 H   0  0  0  0  0  0  0  0  0  0  0  0
   58.0546   33.4314   48.4489 H   0  0  0  0  0  0  0  0  0  0  0  0
   58.9189   33.8947   50.7331 H   0  0  0  0  0  0  0  0  0  0  0  0
   61.3713   33.9750   51.1592 H   0  0  0  0  0  0  0  0  0  0  0  0
   63.6100   33.7970   50.2920 H   0  0  0  0  0  0  0  0  0  0  0  0
   65.2262   33.4421   48.5500 H   0  0  0  0  0  0  0  0  0  0  0  0
   64.4460   32.9648   46.2290 H   0  0  0  0  0  0  0  0  0  0  0  0
   61.9981   32.8659   45.7417 H   0  0  0  0  0  0  0  0  0  0  0  0
  1  2  1  0
  2  3  1  0
  3  4  1  0
  4  5  1  0
  5  6  1  0
  6  7  1  0
  7  8  1  0
  8  9  1  0
  9 10  1  0
 10 11  1  0
 11 12  1  0
 12 13  1  0
 13 14  2  0
 14 15  1  0
 15 16  2  0
 16 17  1  0
 17 18  2  0
 18 19  1  0
 19 20  2  0
 20 21  1  0
 21 22  2  0
 22 13  1  0
 22 17  1  0
  1 23  1  0
  1 24  1  0
  1 25  1  0
  2 26  1  0
  2 27  1  0
  3 28  1  0
  4 29  1  0
  4 30  1  0
  5 31  1  0
  5 32  1  0
  7 33  1  0
  7 34  1  0
  8 35  1  0
  8 36  1  0
  9 37  1  0
 10 38  1  0
 10 39  1  0
 11 40  1  0
 11 41  1  0
 14 42  1  0
 15 43  1  0
 16 44  1  0
 18 45  1  0
 19 46  1  0
 20 47  1  0
 21 48  1  0
M  CHG  1  18   1
M  END
>  <UniqueID>  (10) 
10

>  <SMILES>  (10) 
CCNCCOCCNCCOc1cccc2[nH+]cccc12

>  <Energy>  (10) 
45.54765934908236

>  <Genealogy>  (10) 
CCNCCOCCNCCOc1cccc2[nH+]cccc12 (protonated)
CCNCCOCCNCCOc1cccc2[nH+]cccc12 (3D coordinates assigned)
CCNCCOCCNCCOc1cccc2[nH+]cccc12 (optimized conformer: 45.54765934908236 kcal/mol)

>  <smiles>  (10) 
CCNCCOCCNCCOc1cccc2ncccc12

>  <score_type>  (10) 
oracle

>  <origin>  (10) 
adg

>  <m_score__min__energy>  (10) 
-3.54

>  <m_primary>  (10) 
energy

$$$$
10:0
     RDKit          3D

 57 59  0  0  0  0  0  0  0  0999 V2000
   65.0159   33.9910   48.3366 H   0  0  0  0  0  0  0  0  0  0  0  0
   64.0790   33.4470   48.1460 C   0  0  0  0  0  0  0  0  0  0  0  0
   63.8900   32.1720   48.6800 C   0  0  0  0  0  0  0  0  0  0  0  0
   64.6826   31.7089   49.2861 H   0  0  0  0  0  0  0  0  0  0  0  0
   62.6980   31.4810   48.4480 C   0  0  0  0  0  0  0  0  0  0  0  0
   62.5585   30.4786   48.8789 H   0  0  0  0  0  0  0  0  0  0  0  0
   61.6660   32.0560   47.6640 C   0  0  0  0  0  0  0  0  0  0  0  0
   60.4330   31.3860   47.4310 C   0  0  0  0  0  0  0  0  0  0  0  0
   60.2510   30.2730   48.1050 N   0  0  0  0  0  0  0  0  0  0  0  0
   60.4970   28.8520   47.8670 C   0  0  0  0  0  0  0  0  0  0  0  0
   61.4949   28.5772   48.2393 H   0  0  0  0  0  0  0  0  0  0  0  0
   59.4450   28.0070   48.6000 C   0  0  0  0  0  0  0  0  0  0  0  0
   59.5798   28.1152   49.6863 H   0  0  0  0  0  0  0  0  0  0  0  0
   58.4384   28.3505   48.3194 H   0  0  0  0  0  0  0  0  0  0  0  0
   59.5633   26.9500   48.3194 H   0  0  0  0  0  0  0  0  0  0  0  0
   60.3950   28.5940   46.3620 C   0  0  0  0  0  0  0  0  0  0  0  0
   59.9956   27.5837   46.1894 H   0  0  0  0  0  0  0  0  0  0  0  0
   59.7228   29.3366   45.9074 H   0  0  0  0  0  0  0  0  0  0  0  0
   61.3933   28.6762   45.9074 H   0  0  0  0  0  0  0  0  0  0  0  0
   59.4720   32.0050   46.5520 C   0  0  0  0  0  0  0  0  0  0  0  0
   58.2840   31.3930   46.0760 C   0  0  0  0  0  0  0  0  0  0  0  0
   58.0580   30.3587   46.3744 H   0  0  0  0  0  0  0  0  0  0  0  0
   57.3920   32.0700   45.2370 C   0  0  0  0  0  0  0  0  0  0  0  0
   56.1920   31.3950   44.8260 N   0  0  0  0  0  0  0  0  0  0  0  0
   56.0790   30.0220   44.4280 C   0  0  0  0  0  0  0  0  0  0  0  0
   55.1480   29.2930   44.8690 O   0  0  0  0  0  0  0  0  0  0  0  0
   57.0700   29.4550   43.4610 C   0  0  0  0  0  0  0  0  0  0  0  0
   57.6437   30.2792   43.0120 H   0  0  0  0  0  0  0  0  0  0  0  0
   56.5200   28.8964   42.6894 H   0  0  0  0  0  0  0  0  0  0  0  0
   58.0410   28.4910   44.1550 C   0  0  0  0  0  0  0  0  0  0  0  0
   58.4570   28.9776   45.0495 H   0  0  0  0  0  0  0  0  0  0  0  0
   58.8485   28.2330   43.4540 H   0  0  0  0  0  0  0  0  0  0  0  0
   57.3430   27.2550   44.5550 N   0  0  0  0  0  0  0  0  0  0  0  0
   56.3270   27.4770   44.6800 H   0  0  0  0  0  0  0  0  0  0  0  0
   57.8480   26.7350   45.8340 C   0  0  0  0  0  0  0  0  0  0  0  0
   58.4561   27.5083   46.3261 H   0  0  0  0  0  0  0  0  0  0  0  0
   58.4606   25.8418   45.6419 H   0  0  0  0  0  0  0  0  0  0  0  0
   56.6820   26.3540   46.7450 C   0  0  0  0  0  0  0  0  0  0  0  0
   56.5901   27.0958   47.5521 H   0  0  0  0  0  0  0  0  0  0  0  0
   56.8661   25.3600   47.1787 H   0  0  0  0  0  0  0  0  0  0  0  0
   55.4870   26.3250   45.9950 O   0  0  0  0  0  0  0  0  0  0  0  0
   55.2010   24.9960   45.6180 C   0  0  0  0  0  0  0  0  0  0  0  0
   55.5804   24.8121   44.6020 H   0  0  0  0  0  0  0  0  0  0  0  0
   54.1132   24.8332   45.6349 H   0  0  0  0  0  0  0  0  0  0  0  0
   55.8760   24.0420   46.5940 C   0  0  0  0  0  0  0  0  0  0  0  0
   55.6546   24.3549   47.6250 H   0  0  0  0  0  0  0  0  0  0  0  0
   55.4974   23.0222   46.4310 H   0  0  0  0  0  0  0  0  0  0  0  0
   56.9637   24.0597   46.4310 H   0  0  0  0  0  0  0  0  0  0  0  0
   57.6600   33.3890   44.8580 C   0  0  0  0  0  0  0  0  0  0  0  0
   56.9392   33.9405   44.2365 H   0  0  0  0  0  0  0  0  0  0  0  0
   58.8370   34.0020   45.2670 C   0  0  0  0  0  0  0  0  0  0  0  0
   59.0536   35.0329   44.9502 H   0  0  0  0  0  0  0  0  0  0  0  0
   59.7490   33.3200   46.0780 C   0  0  0  0  0  0  0  0  0  0  0  0
   60.9190   33.9330   46.3780 N   0  0  0  0  0  0  0  0  0  0  0  0
   61.8770   33.3440   47.1250 C   0  0  0  0  0  0  0  0  0  0  0  0
   63.0750   34.0320   47.3680 C   0  0  0  0  0  0  0  0  0  0  0  0
   63.2254   35.0361   46.9447 H   0  0  0  0  0  0  0  0  0  0  0  0
  1  2  1  0
  2  3  2  0
  3  4  1  0
  3  5  1  0
  5  6  1  0
  5  7  2  0
  7  8  1  0
  8  9  2  0
  9 10  1  0
 10 11  1  0
 10 12  1  0
 12 13  1  0
 12 14  1  0
 12 15  1  0
 10 16  1  0
 16 17  1  0
 16 18  1  0
 16 19  1  0
  8 20  1  0
 20 21  2  0
 21 22  1  0
 21 23  1  0
 23 24  1  0
 24 25  1  0
 25 26  2  0
 25 27  1  0
 27 28  1  0
 27 29  1  0
 27 30  1  0
 30 31  1  0
 30 32  1  0
 30 33  1  0
 33 34  1  0
 33 35  1  0
 35 36  1  0
 35 37  1  0
 35 38  1  0
 38 39  1  0
 38 40  1  0
 38 41  1  0
 41 42  1  0
 42 43  1  0
 42 44  1  0
 42 45  1  0
 45 46  1  0
 45 47  1  0
 45 48  1  0
 23 49  2  0
 49 50  1  0
 49 51  1  0
 51 52  1  0
 51 53  2  0
 53 54  1  0
 54 55  1  0
 55 56  2  0
 56 57  1  0
 56  2  1  0
 55  7  1  0
 53 20  1  0
M  CHG  2  24  -1  54  -1
M  END
>  <UniqueID>  (11) 
11

>  <SMILES>  (11) 
CCOCCNCCC(=O)[N-]c1ccc2[n-]c3ccccc3/c(=N/C(C)C)c2c1

>  <Energy>  (11) 
76.24523309749621

>  <Genealogy>  (11) 
CCOCCNCCC(=O)[N-]c1ccc2[n-]c3ccccc3c(=NC(C)C)c2c1 (protonated)
CCOCCNCCC(=O)[N-]c1ccc2[n-]c3ccccc3/c(=N/C(C)C)c2c1 (cis-trans isomerization)
CCOCCNCCC(=O)[N-]c1ccc2[n-]c3ccccc3/c(=N/C(C)C)c2c1 (3D coordinates assigned)
CCOCCNCCC(=O)[N-]c1ccc2[n-]c3ccccc3/c(=N/C(C)C)c2c1 (optimized conformer: 76.24523309749621 kcal/mol)

>  <smiles>  (11) 
CCOCCNCCC(=O)Nc1ccc2[nH]c3ccccc3c(=NC(C)C)c2c1

>  <score_type>  (11) 
oracle

>  <origin>  (11) 
adg

>  <m_score__min__energy>  (11) 
-11.35

>  <m_primary>  (11) 
energy

$$$$
11:0
     RDKit          3D

 58 58  0  0  0  0  0  0  0  0999 V2000
   57.8816   27.9585   43.1666 H   0  0  0  0  0  0  0  0  0  0  0  0
   57.7750   28.8830   43.7530 C   0  0  0  0  0  0  0  0  0  0  0  0
   58.8030   29.2600   44.5360 C   0  0  0  0  0  0  0  0  0  0  0  0
   58.6665   30.1327   45.1916 H   0  0  0  0  0  0  0  0  0  0  0  0
   60.1320   28.5480   44.5610 C   0  0  0  0  0  0  0  0  0  0  0  0
   60.1736   27.8283   43.7302 H   0  0  0  0  0  0  0  0  0  0  0  0
   60.9372   29.2903   44.4578 H   0  0  0  0  0  0  0  0  0  0  0  0
   60.3080   27.8120   45.8660 C   0  0  0  0  0  0  0  0  0  0  0  0
   60.6922   28.3852   46.7226 H   0  0  0  0  0  0  0  0  0  0  0  0
   60.0320   26.5080   46.0660 C   0  0  0  0  0  0  0  0  0  0  0  0
   60.5096   25.7802   45.3936 H   0  0  0  0  0  0  0  0  0  0  0  0
   59.1200   25.9680   47.1390 C   0  0  0  0  0  0  0  0  0  0  0  0
   58.8000   24.9542   46.8565 H   0  0  0  0  0  0  0  0  0  0  0  0
   59.6778   25.9584   48.0870 H   0  0  0  0  0  0  0  0  0  0  0  0
   57.8730   26.8480   47.3290 C   0  0  0  0  0  0  0  0  0  0  0  0
   57.2686   26.4330   48.1490 H   0  0  0  0  0  0  0  0  0  0  0  0
   58.2128   27.8689   47.5578 H   0  0  0  0  0  0  0  0  0  0  0  0
   57.0090   26.9130   46.0630 C   0  0  0  0  0  0  0  0  0  0  0  0
   56.4739   27.8739   46.0469 H   0  0  0  0  0  0  0  0  0  0  0  0
   57.6735   26.8137   45.1920 H   0  0  0  0  0  0  0  0  0  0  0  0
   56.0070   25.8000   46.0110 C   0  0  0  0  0  0  0  0  0  0  0  0
   54.7760   26.0710   45.9640 O   0  0  0  0  0  0  0  0  0  0  0  0
   56.4520   24.4440   46.1050 N   0  0  0  0  0  0  0  0  0  0  0  0
   56.5430   23.5210   45.0110 C   0  0  0  0  0  0  0  0  0  0  0  0
   55.5030   23.1530   44.1820 C   0  0  0  0  0  0  0  0  0  0  0  0
   54.1150   23.7000   44.1940 C   0  0  0  0  0  0  0  0  0  0  0  0
   53.7816   23.8314   45.2340 H   0  0  0  0  0  0  0  0  0  0  0  0
   54.0993   24.6716   43.6784 H   0  0  0  0  0  0  0  0  0  0  0  0
   53.4407   23.0004   43.6784 H   0  0  0  0  0  0  0  0  0  0  0  0
   55.9400   22.2350   43.3510 O   0  0  0  0  0  0  0  0  0  0  0  0
   57.1910   21.9600   43.5890 N   0  0  0  0  0  0  0  0  0  0  0  0
   57.7520   21.2470   43.0710 H   0  0  0  0  0  0  0  0  0  0  0  0
   57.6050   22.7170   44.6250 C   0  0  0  0  0  0  0  0  0  0  0  0
   58.9680   22.6190   45.2340 C   0  0  0  0  0  0  0  0  0  0  0  0
   58.8810   22.6253   46.3305 H   0  0  0  0  0  0  0  0  0  0  0  0
   59.4482   21.6840   44.9096 H   0  0  0  0  0  0  0  0  0  0  0  0
   59.5770   23.4757   44.9096 H   0  0  0  0  0  0  0  0  0  0  0  0
   56.4870   29.6550   43.6340 C   0  0  0  0  0  0  0  0  0  0  0  0
   55.7273   29.1928   44.2815 H   0  0  0  0  0  0  0  0  0  0  0  0
   56.1565   29.6340   42.5850 H   0  0  0  0  0  0  0  0  0  0  0  0
   56.6880   31.0900   44.0520 C   0  0  0  0  0  0  0  0  0  0  0  0
   56.2047   31.4346   44.9781 H   0  0  0  0  0  0  0  0  0  0  0  0
   57.4260   31.9710   43.3540 C   0  0  0  0  0  0  0  0  0  0  0  0
   57.4496   31.8746   42.2585 H   0  0  0  0  0  0  0  0  0  0  0  0
   58.2220   33.0820   43.9860 C   0  0  0  0  0  0  0  0  0  0  0  0
   57.7307   34.0425   43.7715 H   0  0  0  0  0  0  0  0  0  0  0  0
   59.2388   33.0648   43.5666 H   0  0  0  0  0  0  0  0  0  0  0  0
   58.3180   32.9010   45.4810 C   0  0  0  0  0  0  0  0  0  0  0  0
   58.6809   31.9370   45.8669 H   0  0  0  0  0  0  0  0  0  0  0  0
   57.9830   33.8570   46.3670 C   0  0  0  0  0  0  0  0  0  0  0  0
   56.9143   34.0197   46.5706 H   0  0  0  0  0  0  0  0  0  0  0  0
   58.9810   34.7190   47.0980 C   0  0  0  0  0  0  0  0  0  0  0  0
   58.9817   34.4442   48.1631 H   0  0  0  0  0  0  0  0  0  0  0  0
   58.6923   35.7729   46.9721 H   0  0  0  0  0  0  0  0  0  0  0  0
   60.3850   34.5290   46.5330 C   0  0  0  0  0  0  0  0  0  0  0  0
   61.1032   34.4318   47.3605 H   0  0  0  0  0  0  0  0  0  0  0  0
   60.4117   33.6191   45.9155 H   0  0  0  0  0  0  0  0  0  0  0  0
   60.6526   35.3991   45.9155 H   0  0  0  0  0  0  0  0  0  0  0  0
  1  2  1  0
  2  3  2  3
  3  4  1  0
  3  5  1  0
  5  6  1  0
  5  7  1  0
  5  8  1  0
  8  9  1  0
  8 10  2  0
 10 11  1  0
 10 12  1  0
 12 13  1  0
 12 14  1  0
 12 15  1  0
 15 16  1  0
 15 17  1  0
 15 18  1  0
 18 19  1  0
 18 20  1  0
 18 21  1  0
 21 22  2  0
 21 23  1  0
 23 24  1  0
 24 25  2  0
 25 26  1  0
 26 27  1  0
 26 28  1  0
 26 29  1  0
 25 30  1  0
 30 31  1  0
 31 32  1  0
 31 33  2  0
 33 34  1  0
 34 35  1  0
 34 36  1  0
 34 37  1  0
  2 38  1  0
 38 39  1  0
 38 40  1  0
 38 41  1  0
 41 42  1  0
 41 43  2  0
 43 44  1  0
 43 45  1  0
 45 46  1  0
 45 47  1  0
 45 48  1  0
 48 49  1  0
 48 50  2  3
 50 51  1  0
 50 52  1  0
 52 53  1  0
 52 54  1  0
 52 55  1  0
 55 56  1  0
 55 57  1  0
 55 58  1  0
 33 24  1  0
M  CHG  2  23  -1  31   1
M  END
>  <UniqueID>  (12) 
12

>  <SMILES>  (12) 
CCC=CC/C=C\CC=CC/C=C\CCCC(=O)[N-]c1c(C)[nH+]oc1C

>  <Energy>  (12) 
70.23308328086902

>  <Genealogy>  (12) 
CCC=CCC=CCC=CCC=CCCCC(=O)[N-]c1c(C)[nH+]oc1C (protonated)
CCC=CC/C=C\CC=CC/C=C\CCCC(=O)[N-]c1c(C)[nH+]oc1C (cis-trans isomerization)
CCC=CC/C=C\CC=CC/C=C\CCCC(=O)[N-]c1c(C)[nH+]oc1C (3D coordinates assigned)
CCC=CC/C=C\CC=CC/C=C\CCCC(=O)[N-]c1c(C)[nH+]oc1C (optimized conformer: 70.23308328086902 kcal/mol)

>  <smiles>  (12) 
CCC=CCC=CCC=CCC=CCCCC(=O)Nc1c(C)noc1C

>  <score_type>  (12) 
oracle

>  <origin>  (12) 
adg

>  <m_score__min__energy>  (12) 
-8.6199999999999992

>  <m_primary>  (12) 
energy

$$$$
12:0
     RDKit          3D

 78 81  0  0  0  0  0  0  0  0999 V2000
   61.0760   26.4920   52.0100 C   0  0  0  0  0  0  0  0  0  0  0  0
   61.0860   26.6840   50.4920 C   0  0  0  0  0  0  0  0  0  0  0  0
   60.4670   27.9530   50.0850 N   0  0  0  0  0  0  0  0  0  0  0  0
   59.9400   27.9080   48.7140 C   0  0  0  0  0  0  0  0  0  0  0  0
   59.6880   29.3290   48.1940 C   0  0  0  0  0  0  0  0  0  0  0  0
   60.2660   30.3440   49.0770 N   0  0  0  0  0  0  0  0  0  0  0  0
   60.9910   31.4800   48.5710 C   0  0  0  0  0  0  0  0  0  0  0  0
   60.3940   32.3160   47.6120 C   0  0  0  0  0  0  0  0  0  0  0  0
   59.0240   32.1910   47.2920 C   0  0  0  0  0  0  0  0  0  0  0  0
   58.4280   33.0410   46.3630 C   0  0  0  0  0  0  0  0  0  0  0  0
   59.1740   34.0450   45.7560 C   0  0  0  0  0  0  0  0  0  0  0  0
   60.5270   34.1910   46.0610 C   0  0  0  0  0  0  0  0  0  0  0  0
   61.1720   33.3140   46.9730 C   0  0  0  0  0  0  0  0  0  0  0  0
   62.5200   33.4210   47.2510 N   0  0  0  0  0  0  0  0  0  0  0  0
   63.3970   34.2120   46.3590 C   0  0  0  0  0  0  0  0  0  0  0  0
   63.0580   32.7630   48.3440 C   0  0  0  0  0  0  0  0  0  0  0  0
   64.3490   33.0790   48.8290 C   0  0  0  0  0  0  0  0  0  0  0  0
   64.9160   32.3930   49.9040 C   0  0  0  0  0  0  0  0  0  0  0  0
   66.3070   32.7190   50.3640 C   0  0  0  0  0  0  0  0  0  0  0  0
   64.2020   31.3640   50.5130 C   0  0  0  0  0  0  0  0  0  0  0  0
   62.8980   31.0600   50.1090 C   0  0  0  0  0  0  0  0  0  0  0  0
   62.1930   30.0750   50.8060 O   0  0  0  0  0  0  0  0  0  0  0  0
   62.5480   29.6640   52.1240 C   0  0  0  0  0  0  0  0  0  0  0  0
   62.0070   30.6340   53.1990 C   0  0  0  0  0  0  0  0  0  0  0  0
   60.5160   30.8240   53.2940 N   0  0  0  0  0  0  0  0  0  0  0  0
   60.1750   30.5660   54.7230 C   0  0  0  0  0  0  0  0  0  0  0  0
   59.7880   29.8560   52.4240 C   0  0  0  0  0  0  0  0  0  0  0  0
   58.2590   30.0750   52.4220 C   0  0  0  0  0  0  0  0  0  0  0  0
   57.8710   31.4700   52.0660 N   0  0  0  0  0  0  0  0  0  0  0  0
   56.4170   31.6300   52.3250 C   0  0  0  0  0  0  0  0  0  0  0  0
   58.0970   31.7290   50.6190 C   0  0  0  0  0  0  0  0  0  0  0  0
   58.6090   32.4590   52.9020 C   0  0  0  0  0  0  0  0  0  0  0  0
   60.1390   32.2210   52.9310 C   0  0  0  0  0  0  0  0  0  0  0  0
   62.3080   31.7520   49.0140 C   0  0  0  0  0  0  0  0  0  0  0  0
   61.1271   27.4735   52.5041 H   0  0  0  0  0  0  0  0  0  0  0  0
   60.1499   25.9790   52.3086 H   0  0  0  0  0  0  0  0  0  0  0  0
   61.9438   25.8855   52.3086 H   0  0  0  0  0  0  0  0  0  0  0  0
   62.1284   26.6705   50.1408 H   0  0  0  0  0  0  0  0  0  0  0  0
   60.5005   25.8664   50.0461 H   0  0  0  0  0  0  0  0  0  0  0  0
   61.1630   28.7310   50.1680 H   0  0  0  0  0  0  0  0  0  0  0  0
   60.6695   27.4066   48.0610 H   0  0  0  0  0  0  0  0  0  0  0  0
   58.9903   27.3530   48.7136 H   0  0  0  0  0  0  0  0  0  0  0  0
   60.1392   29.4276   47.1956 H   0  0  0  0  0  0  0  0  0  0  0  0
   58.6005   29.4900   48.1554 H   0  0  0  0  0  0  0  0  0  0  0  0
   60.1290   30.2530   50.1080 H   0  0  0  0  0  0  0  0  0  0  0  0
   58.4203   31.4131   47.7823 H   0  0  0  0  0  0  0  0  0  0  0  0
   57.3648   32.9175   46.1092 H   0  0  0  0  0  0  0  0  0  0  0  0
   58.6967   34.7246   45.0347 H   0  0  0  0  0  0  0  0  0  0  0  0
   61.1041   34.9988   45.5873 H   0  0  0  0  0  0  0  0  0  0  0  0
   64.0784   34.8266   46.9656 H   0  0  0  0  0  0  0  0  0  0  0  0
   63.9837   33.5317   45.7242 H   0  0  0  0  0  0  0  0  0  0  0  0
   62.7807   34.8656   45.7242 H   0  0  0  0  0  0  0  0  0  0  0  0
   64.9203   33.8858   48.3466 H   0  0  0  0  0  0  0  0  0  0  0  0
   66.3373   32.7261   51.4636 H   0  0  0  0  0  0  0  0  0  0  0  0
   67.0065   31.9605   49.9828 H   0  0  0  0  0  0  0  0  0  0  0  0
   66.5966   33.7094   49.9828 H   0  0  0  0  0  0  0  0  0  0  0  0
   64.6694   30.7832   51.3218 H   0  0  0  0  0  0  0  0  0  0  0  0
   62.1319   28.6625   52.3078 H   0  0  0  0  0  0  0  0  0  0  0  0
   63.6458   29.6580   52.1937 H   0  0  0  0  0  0  0  0  0  0  0  0
   62.3526   30.2652   54.1760 H   0  0  0  0  0  0  0  0  0  0  0  0
   62.3909   31.6198   52.8976 H   0  0  0  0  0  0  0  0  0  0  0  0
   60.8835   31.1021   55.3716 H   0  0  0  0  0  0  0  0  0  0  0  0
   59.1531   30.9191   54.9256 H   0  0  0  0  0  0  0  0  0  0  0  0
   60.2369   29.4866   54.9256 H   0  0  0  0  0  0  0  0  0  0  0  0
   60.1585   29.9637   51.3939 H   0  0  0  0  0  0  0  0  0  0  0  0
   59.9748   28.8491   52.8255 H   0  0  0  0  0  0  0  0  0  0  0  0
   57.8074   29.3881   51.6911 H   0  0  0  0  0  0  0  0  0  0  0  0
   57.8977   29.8833   53.4431 H   0  0  0  0  0  0  0  0  0  0  0  0
   56.2378   31.6497   53.4101 H   0  0  0  0  0  0  0  0  0  0  0  0
   56.0665   32.5721   51.8783 H   0  0  0  0  0  0  0  0  0  0  0  0
   55.8700   30.7866   51.8783 H   0  0  0  0  0  0  0  0  0  0  0  0
   58.8161   32.5531   50.5020 H   0  0  0  0  0  0  0  0  0  0  0  0
   58.4977   30.8222   50.1424 H   0  0  0  0  0  0  0  0  0  0  0  0
   57.1443   32.0032   50.1424 H   0  0  0  0  0  0  0  0  0  0  0  0
   58.4204   33.4652   52.4995 H   0  0  0  0  0  0  0  0  0  0  0  0
   58.2439   32.3482   53.9337 H   0  0  0  0  0  0  0  0  0  0  0  0
   60.5451   32.4434   51.9332 H   0  0  0  0  0  0  0  0  0  0  0  0
   60.5550   32.8808   53.7066 H   0  0  0  0  0  0  0  0  0  0  0  0
  1  2  1  0
  2  3  1  0
  3  4  1  0
  4  5  1  0
  5  6  1  0
  6  7  1  0
  7  8  2  0
  8  9  1  0
  9 10  2  0
 10 11  1  0
 11 12  2  0
 12 13  1  0
 13 14  2  0
 14 15  1  0
 14 16  1  0
 16 17  2  0
 17 18  1  0
 18 19  1  0
 18 20  2  0
 20 21  1  0
 21 22  1  0
 22 23  1  0
 23 24  1  0
 24 25  1  0
 25 26  1  0
 25 27  1  0
 27 28  1  0
 28 29  1  0
 29 30  1  0
 29 31  1  0
 29 32  1  0
 32 33  1  0
 21 34  2  0
 34  7  1  0
 13  8  1  0
 34 16  1  0
 33 25  1  0
  1 35  1  0
  1 36  1  0
  1 37  1  0
  2 38  1  0
  2 39  1  0
  3 40  1  0
  4 41  1  0
  4 42  1  0
  5 43  1  0
  5 44  1  0
  6 45  1  0
  9 46  1  0
 10 47  1  0
 11 48  1  0
 12 49  1  0
 15 50  1  0
 15 51  1  0
 15 52  1  0
 17 53  1  0
 19 54  1  0
 19 55  1  0
 19 56  1  0
 20 57  1  0
 23 58  1  0
 23 59  1  0
 24 60  1  0
 24 61  1  0
 26 62  1  0
 26 63  1  0
 26 64  1  0
 27 65  1  0
 27 66  1  0
 28 67  1  0
 28 68  1  0
 30 69  1  0
 30 70  1  0
 30 71  1  0
 31 72  1  0
 31 73  1  0
 31 74  1  0
 32 75  1  0
 32 76  1  0
 33 77  1  0
 33 78  1  0
M  CHG  3  14   1  25   1  29   1
M  END
>  <UniqueID>  (13) 
13

>  <SMILES>  (13) 
CCNCCNc1c2ccccc2[n+](C)c2cc(C)cc(OCC[N+]3(C)CC[N+](C)(C)CC3)c12

>  <Energy>  (13) 
126.81580384537354

>  <Genealogy>  (13) 
CCNCCNc1c2ccccc2[n+](C)c2cc(C)cc(OCC[N+]3(C)CC[N+](C)(C)CC3)c12 (3D coordinates assigned)
CCNCCNc1c2ccccc2[n+](C)c2cc(C)cc(OCC[N+]3(C)CC[N+](C)(C)CC3)c12 (nonaromatic ring conformer: 126.81580384537354 kcal/mol)

>  <smiles>  (13) 
CCNCCNc1c2ccccc2[n+](C)c2cc(C)cc(OCC[N+]3(C)CC[N+](C)(C)CC3)c12

>  <score_type>  (13) 
oracle

>  <origin>  (13) 
adg

>  <m_score__min__energy>  (13) 
-3.29

>  <m_primary>  (13) 
energy

$$$$
13:0
     RDKit          3D

 72 75  0  0  0  0  0  0  0  0999 V2000
   64.5390   33.0780   49.3650 C   0  0  0  0  0  0  0  0  0  0  0  0
   63.5930   33.8180   48.4150 C   0  0  0  0  0  0  0  0  0  0  0  0
   62.5280   32.9390   47.8910 N   0  0  0  0  0  0  0  0  0  0  0  0
   63.0180   31.5910   47.5370 C   0  0  0  0  0  0  0  0  0  0  0  0
   61.8780   30.5610   47.4820 C   0  0  0  0  0  0  0  0  0  0  0  0
   60.5810   31.2170   47.6430 N   0  0  0  0  0  0  0  0  0  0  0  0
   59.5400   31.0710   46.6630 C   0  0  0  0  0  0  0  0  0  0  0  0
   59.0760   29.7840   46.3380 C   0  0  0  0  0  0  0  0  0  0  0  0
   59.4880   28.6580   47.0820 C   0  0  0  0  0  0  0  0  0  0  0  0
   58.9980   27.3890   46.7820 C   0  0  0  0  0  0  0  0  0  0  0  0
   58.0810   27.2220   45.7520 C   0  0  0  0  0  0  0  0  0  0  0  0
   57.6580   28.3220   45.0050 C   0  0  0  0  0  0  0  0  0  0  0  0
   58.1630   29.6220   45.2660 C   0  0  0  0  0  0  0  0  0  0  0  0
   57.7760   30.7150   44.5180 N   0  0  0  0  0  0  0  0  0  0  0  0
   57.0920   30.5150   43.2210 C   0  0  0  0  0  0  0  0  0  0  0  0
   58.0350   31.9930   44.9770 C   0  0  0  0  0  0  0  0  0  0  0  0
   57.3940   33.1190   44.4080 C   0  0  0  0  0  0  0  0  0  0  0  0
   57.6840   34.4070   44.8400 C   0  0  0  0  0  0  0  0  0  0  0  0
   58.5900   34.6140   45.8670 C   0  0  0  0  0  0  0  0  0  0  0  0
   59.2090   33.5280   46.5070 C   0  0  0  0  0  0  0  0  0  0  0  0
   60.0710   33.7420   47.5960 O   0  0  0  0  0  0  0  0  0  0  0  0
   59.8210   34.5920   48.7170 C   0  0  0  0  0  0  0  0  0  0  0  0
   60.7020   34.2100   49.9140 C   0  0  0  0  0  0  0  0  0  0  0  0
   60.3960   32.8450   50.3910 N   0  0  0  0  0  0  0  0  0  0  0  0
   58.9590   32.5440   50.2230 C   0  0  0  0  0  0  0  0  0  0  0  0
   58.5060   31.3150   51.0490 C   0  0  0  0  0  0  0  0  0  0  0  0
   59.6320   30.4130   51.4160 N   0  0  0  0  0  0  0  0  0  0  0  0
   60.2090   29.7830   50.1980 C   0  0  0  0  0  0  0  0  0  0  0  0
   59.0980   29.3230   52.2690 C   0  0  0  0  0  0  0  0  0  0  0  0
   60.6840   31.1570   52.1810 C   0  0  0  0  0  0  0  0  0  0  0  0
   60.8040   32.6470   51.7900 C   0  0  0  0  0  0  0  0  0  0  0  0
   58.9460   32.2010   46.0550 C   0  0  0  0  0  0  0  0  0  0  0  0
   64.2588   33.2972   50.4059 H   0  0  0  0  0  0  0  0  0  0  0  0
   64.4655   31.9952   49.1858 H   0  0  0  0  0  0  0  0  0  0  0  0
   65.5723   33.4100   49.1858 H   0  0  0  0  0  0  0  0  0  0  0  0
   63.1273   34.6533   48.9585 H   0  0  0  0  0  0  0  0  0  0  0  0
   64.1854   34.1768   47.5604 H   0  0  0  0  0  0  0  0  0  0  0  0
   62.0950   33.3760   47.0440 H   0  0  0  0  0  0  0  0  0  0  0  0
   61.7690   32.8590   48.6090 H   0  0  0  0  0  0  0  0  0  0  0  0
   63.5033   31.6369   46.5509 H   0  0  0  0  0  0  0  0  0  0  0  0
   63.7276   31.2719   48.3146 H   0  0  0  0  0  0  0  0  0  0  0  0
   61.9038   30.0453   46.5107 H   0  0  0  0  0  0  0  0  0  0  0  0
   62.0135   29.8392   48.3009 H   0  0  0  0  0  0  0  0  0  0  0  0
   60.3610   31.6920   48.5460 H   0  0  0  0  0  0  0  0  0  0  0  0
   60.2038   28.7837   47.9077 H   0  0  0  0  0  0  0  0  0  0  0  0
   59.3377   26.5179   47.3615 H   0  0  0  0  0  0  0  0  0  0  0  0
   57.6874   26.2203   45.5247 H   0  0  0  0  0  0  0  0  0  0  0  0
   56.9212   28.1790   44.2008 H   0  0  0  0  0  0  0  0  0  0  0  0
   56.0501   30.2104   43.3991 H   0  0  0  0  0  0  0  0  0  0  0  0
   57.1067   31.4550   42.6499 H   0  0  0  0  0  0  0  0  0  0  0  0
   57.6108   29.7309   42.6499 H   0  0  0  0  0  0  0  0  0  0  0  0
   56.6525   32.9716   43.6090 H   0  0  0  0  0  0  0  0  0  0  0  0
   57.1913   35.2675   44.3637 H   0  0  0  0  0  0  0  0  0  0  0  0
   58.8272   35.6400   46.1847 H   0  0  0  0  0  0  0  0  0  0  0  0
   60.0350   35.6327   48.4323 H   0  0  0  0  0  0  0  0  0  0  0  0
   58.7672   34.4777   49.0111 H   0  0  0  0  0  0  0  0  0  0  0  0
   61.7583   34.2553   49.6106 H   0  0  0  0  0  0  0  0  0  0  0  0
   60.5020   34.9172   50.7325 H   0  0  0  0  0  0  0  0  0  0  0  0
   58.3759   33.4192   50.5455 H   0  0  0  0  0  0  0  0  0  0  0  0
   58.7898   32.3117   49.1612 H   0  0  0  0  0  0  0  0  0  0  0  0
   58.0268   31.6711   51.9729 H   0  0  0  0  0  0  0  0  0  0  0  0
   57.8115   30.7358   50.4227 H   0  0  0  0  0  0  0  0  0  0  0  0
   60.9247   29.0016   50.4933 H   0  0  0  0  0  0  0  0  0  0  0  0
   59.4021   29.3342   49.6000 H   0  0  0  0  0  0  0  0  0  0  0  0
   60.7268   30.5474   49.6000 H   0  0  0  0  0  0  0  0  0  0  0  0
   59.2284   29.5891   53.3283 H   0  0  0  0  0  0  0  0  0  0  0  0
   58.0283   29.1810   52.0556 H   0  0  0  0  0  0  0  0  0  0  0  0
   59.6414   28.3907   52.0556 H   0  0  0  0  0  0  0  0  0  0  0  0
   60.4405   31.0982   53.2521 H   0  0  0  0  0  0  0  0  0  0  0  0
   61.6481   30.6846   51.9414 H   0  0  0  0  0  0  0  0  0  0  0  0
   60.1551   33.2469   52.4450 H   0  0  0  0  0  0  0  0  0  0  0  0
   61.8517   32.9622   51.9039 H   0  0  0  0  0  0  0  0  0  0  0  0
  1  2  1  0
  2  3  1  0
  3  4  1  0
  4  5  1  0
  5  6  1  0
  6  7  1  0
  7  8  2  0
  8  9  1  0
  9 10  2  0
 10 11  1  0
 11 12  2  0
 12 13  1  0
 13 14  2  0
 14 15  1  0
 14 16  1  0
 16 17  2  0
 17 18  1  0
 18 19  2  0
 19 20  1  0
 20 21  1  0
 21 22  1  0
 22 23  1  0
 23 24  1  0
 24 25  1  0
 25 26  1  0
 26 27  1  0
 27 28  1  0
 27 29  1  0
 27 30  1  0
 30 31  1  0
 20 32  2  0
 32  7  1  0
 13  8  1  0
 32 16  1  0
 31 24  1  0
  1 33  1  0
  1 34  1  0
  1 35  1  0
  2 36  1  0
  2 37  1  0
  3 38  1  0
  3 39  1  0
  4 40  1  0
  4 41  1  0
  5 42  1  0
  5 43  1  0
  6 44  1  0
  9 45  1  0
 10 46  1  0
 11 47  1  0
 12 48  1  0
 15 49  1  0
 15 50  1  0
 15 51  1  0
 17 52  1  0
 18 53  1  0
 19 54  1  0
 22 55  1  0
 22 56  1  0
 23 57  1  0
 23 58  1  0
 25 59  1  0
 25 60  1  0
 26 61  1  0
 26 62  1  0
 28 63  1  0
 28 64  1  0
 28 65  1  0
 29 66  1  0
 29 67  1  0
 29 68  1  0
 30 69  1  0
 30 70  1  0
 31 71  1  0
 31 72  1  0
M  CHG  3   3   1  14   1  27   1
M  END
>  <UniqueID>  (14) 
14

>  <SMILES>  (14) 
CC[NH2+]CCNc1c2ccccc2[n+](C)c2cccc(OCCN3CC[N+](C)(C)CC3)c12

>  <Energy>  (14) 
111.23470276018531

>  <Genealogy>  (14) 
CC[NH2+]CCNc1c2ccccc2[n+](C)c2cccc(OCCN3CC[N+](C)(C)CC3)c12 (protonated)
CC[NH2+]CCNc1c2ccccc2[n+](C)c2cccc(OCCN3CC[N+](C)(C)CC3)c12 (3D coordinates assigned)
CC[NH2+]CCNc1c2ccccc2[n+](C)c2cccc(OCCN3CC[N+](C)(C)CC3)c12 (nonaromatic ring conformer: 111.23470276018531 kcal/mol)

>  <smiles>  (14) 
CCNCCNc1c2ccccc2[n+](C)c2cccc(OCCN3CC[N+](C)(C)CC3)c12

>  <score_type>  (14) 
oracle

>  <origin>  (14) 
adg

>  <m_score__min__energy>  (14) 
-2.9399999999999999

>  <m_primary>  (14) 
energy

$$$$
14:0
     RDKit          3D

 53 56  0  0  0  0  0  0  0  0999 V2000
   57.5070   33.8450   46.7120 C   0  0  0  0  0  0  0  0  0  0  0  0
   58.9230   33.4350   46.9630 C   0  0  0  0  0  0  0  0  0  0  0  0
   59.8560   34.2800   47.4790 N   0  0  0  0  0  0  0  0  0  0  0  0
   60.9550   33.5080   47.5500 C   0  0  0  0  0  0  0  0  0  0  0  0
   62.2190   33.8680   48.0150 C   0  0  0  0  0  0  0  0  0  0  0  0
   63.2260   32.8850   47.9990 C   0  0  0  0  0  0  0  0  0  0  0  0
   62.9480   31.5820   47.5250 C   0  0  0  0  0  0  0  0  0  0  0  0
   61.6630   31.2500   47.0610 C   0  0  0  0  0  0  0  0  0  0  0  0
   60.6900   32.2500   47.0930 C   0  0  0  0  0  0  0  0  0  0  0  0
   59.4050   32.1890   46.7180 N   0  0  0  0  0  0  0  0  0  0  0  0
   58.7040   31.0640   46.1670 C   0  0  0  0  0  0  0  0  0  0  0  0
   58.5830   29.8910   46.9340 C   0  0  0  0  0  0  0  0  0  0  0  0
   59.1570   29.8830   48.2200 O   0  0  0  0  0  0  0  0  0  0  0  0
   59.9110   28.8230   48.8110 C   0  0  0  0  0  0  0  0  0  0  0  0
   60.6230   29.2920   50.0870 C   0  0  0  0  0  0  0  0  0  0  0  0
   59.7500   30.2250   50.9480 C   0  0  0  0  0  0  0  0  0  0  0  0
   59.4890   31.5260   50.2840 N   0  0  0  0  0  0  0  0  0  0  0  0
   58.1070   31.9590   50.5620 C   0  0  0  0  0  0  0  0  0  0  0  0
   60.4300   32.5670   50.7400 C   0  0  0  0  0  0  0  0  0  0  0  0
   57.8890   28.7870   46.4070 C   0  0  0  0  0  0  0  0  0  0  0  0
   57.3300   28.8450   45.1310 C   0  0  0  0  0  0  0  0  0  0  0  0
   57.4490   30.0040   44.3560 C   0  0  0  0  0  0  0  0  0  0  0  0
   56.8860   30.0570   43.0720 C   0  0  0  0  0  0  0  0  0  0  0  0
   57.0100   31.2120   42.2980 C   0  0  0  0  0  0  0  0  0  0  0  0
   57.6970   32.3200   42.7960 C   0  0  0  0  0  0  0  0  0  0  0  0
   58.2620   32.2810   44.0730 C   0  0  0  0  0  0  0  0  0  0  0  0
   58.1420   31.1270   44.8710 C   0  0  0  0  0  0  0  0  0  0  0  0
   56.9926   33.9939   47.6728 H   0  0  0  0  0  0  0  0  0  0  0  0
   57.4932   34.7840   46.1393 H   0  0  0  0  0  0  0  0  0  0  0  0
   56.9936   33.0586   46.1393 H   0  0  0  0  0  0  0  0  0  0  0  0
   62.4222   34.8850   48.3816 H   0  0  0  0  0  0  0  0  0  0  0  0
   64.2362   33.1319   48.3576 H   0  0  0  0  0  0  0  0  0  0  0  0
   63.7434   30.8222   47.5193 H   0  0  0  0  0  0  0  0  0  0  0  0
   61.4334   30.2412   46.6873 H   0  0  0  0  0  0  0  0  0  0  0  0
   59.2307   27.9962   49.0631 H   0  0  0  0  0  0  0  0  0  0  0  0
   60.6723   28.4928   48.0889 H   0  0  0  0  0  0  0  0  0  0  0  0
   60.8900   28.4086   50.6857 H   0  0  0  0  0  0  0  0  0  0  0  0
   61.5133   29.8605   49.7801 H   0  0  0  0  0  0  0  0  0  0  0  0
   58.7880   29.7285   51.1431 H   0  0  0  0  0  0  0  0  0  0  0  0
   60.2950   30.4279   51.8817 H   0  0  0  0  0  0  0  0  0  0  0  0
   59.5870   31.4170   49.2470 H   0  0  0  0  0  0  0  0  0  0  0  0
   57.9499   32.0082   51.6496 H   0  0  0  0  0  0  0  0  0  0  0  0
   57.9386   32.9530   50.1219 H   0  0  0  0  0  0  0  0  0  0  0  0
   57.4016   31.2388   50.1219 H   0  0  0  0  0  0  0  0  0  0  0  0
   60.4489   32.5879   51.8396 H   0  0  0  0  0  0  0  0  0  0  0  0
   61.4376   32.3423   50.3602 H   0  0  0  0  0  0  0  0  0  0  0  0
   60.1050   33.5469   50.3602 H   0  0  0  0  0  0  0  0  0  0  0  0
   57.7864   27.8704   47.0064 H   0  0  0  0  0  0  0  0  0  0  0  0
   56.7915   27.9733   44.7306 H   0  0  0  0  0  0  0  0  0  0  0  0
   56.3452   29.1857   42.6740 H   0  0  0  0  0  0  0  0  0  0  0  0
   56.5650   31.2490   41.2927 H   0  0  0  0  0  0  0  0  0  0  0  0
   57.7939   33.2269   42.1811 H   0  0  0  0  0  0  0  0  0  0  0  0
   58.8041   33.1574   44.4577 H   0  0  0  0  0  0  0  0  0  0  0  0
  1  2  1  0
  2  3  2  0
  3  4  1  0
  4  5  2  0
  5  6  1  0
  6  7  2  0
  7  8  1  0
  8  9  2  0
  9 10  1  0
 10 11  1  0
 11 12  2  0
 12 13  1  0
 13 14  1  0
 14 15  1  0
 15 16  1  0
 16 17  1  0
 17 18  1  0
 17 19  1  0
 12 20  1  0
 20 21  2  0
 21 22  1  0
 22 23  2  0
 23 24  1  0
 24 25  2  0
 25 26  1  0
 26 27  2  0
 10  2  1  0
 27 11  1  0
  9  4  1  0
 27 22  1  0
  1 28  1  0
  1 29  1  0
  1 30  1  0
  5 31  1  0
  6 32  1  0
  7 33  1  0
  8 34  1  0
 14 35  1  0
 14 36  1  0
 15 37  1  0
 15 38  1  0
 16 39  1  0
 16 40  1  0
 17 41  1  0
 18 42  1  0
 18 43  1  0
 18 44  1  0
 19 45  1  0
 19 46  1  0
 19 47  1  0
 20 48  1  0
 21 49  1  0
 23 50  1  0
 24 51  1  0
 25 52  1  0
 26 53  1  0
M  CHG  1  17   1
M  END
>  <UniqueID>  (15) 
15

>  <SMILES>  (15) 
Cc1nc2ccccc2n1-c1c(OCCC[NH+](C)C)ccc2ccccc12

>  <Energy>  (15) 
101.66545875432988

>  <Genealogy>  (15) 
Cc1nc2ccccc2n1-c1c(OCCC[NH+](C)C)ccc2ccccc12 (protonated)
Cc1nc2ccccc2n1-c1c(OCCC[NH+](C)C)ccc2ccccc12 (3D coordinates assigned)
Cc1nc2ccccc2n1-c1c(OCCC[NH+](C)C)ccc2ccccc12 (optimized conformer: 101.66545875432988 kcal/mol)

>  <smiles>  (15) 
Cc1nc2ccccc2n1-c1c(OCCCN(C)C)ccc2ccccc12

>  <score_type>  (15) 
oracle

>  <origin>  (15) 
adg

>  <m_score__min__energy>  (15) 
-6.5599999999999996

>  <m_primary>  (15) 
energy

$$$$
15:0
     RDKit          3D

 41 43  0  0  0  0  0  0  0  0999 V2000
   59.6590   28.0030   48.1000 C   0  0  0  0  0  0  0  0  0  0  0  0
   58.9980   26.8740   47.3140 C   0  0  0  0  0  0  0  0  0  0  0  0
   59.4610   26.8830   45.9080 N   0  0  0  0  0  0  0  0  0  0  0  0
   58.3340   26.8330   44.9530 C   0  0  0  0  0  0  0  0  0  0  0  0
   57.4820   28.1110   45.0220 C   0  0  0  0  0  0  0  0  0  0  0  0
   58.3320   29.2940   45.1900 N   0  0  0  0  0  0  0  0  0  0  0  0
   57.7150   30.5750   45.4110 C   0  0  0  0  0  0  0  0  0  0  0  0
   56.6180   30.8390   44.8480 O   0  0  0  0  0  0  0  0  0  0  0  0
   58.3190   31.5650   46.3250 C   0  0  0  0  0  0  0  0  0  0  0  0
   58.5450   31.3980   47.6890 C   0  0  0  0  0  0  0  0  0  0  0  0
   59.0660   32.5280   48.2210 N   0  0  0  0  0  0  0  0  0  0  0  0
   59.4100   32.7430   49.6230 C   0  0  0  0  0  0  0  0  0  0  0  0
   59.1600   33.4170   47.2140 C   0  0  0  0  0  0  0  0  0  0  0  0
   59.6310   34.7320   47.2720 C   0  0  0  0  0  0  0  0  0  0  0  0
   59.6390   35.4830   46.0840 C   0  0  0  0  0  0  0  0  0  0  0  0
   59.1850   34.9130   44.8750 C   0  0  0  0  0  0  0  0  0  0  0  0
   58.7140   33.5890   44.8420 C   0  0  0  0  0  0  0  0  0  0  0  0
   58.7110   32.8640   46.0370 C   0  0  0  0  0  0  0  0  0  0  0  0
   59.7600   29.1890   44.8750 C   0  0  0  0  0  0  0  0  0  0  0  0
   60.4000   28.0010   45.6230 C   0  0  0  0  0  0  0  0  0  0  0  0
   59.5479   27.8133   49.1778 H   0  0  0  0  0  0  0  0  0  0  0  0
   60.7278   28.0509   47.8443 H   0  0  0  0  0  0  0  0  0  0  0  0
   59.1777   28.9585   47.8443 H   0  0  0  0  0  0  0  0  0  0  0  0
   59.2592   25.9102   47.7753 H   0  0  0  0  0  0  0  0  0  0  0  0
   57.9077   27.0186   47.3311 H   0  0  0  0  0  0  0  0  0  0  0  0
   58.7333   26.7238   43.9339 H   0  0  0  0  0  0  0  0  0  0  0  0
   57.6953   25.9770   45.2163 H   0  0  0  0  0  0  0  0  0  0  0  0
   56.9050   28.2106   44.0908 H   0  0  0  0  0  0  0  0  0  0  0  0
   56.8047   28.0375   45.8856 H   0  0  0  0  0  0  0  0  0  0  0  0
   58.3306   30.4786   48.2535 H   0  0  0  0  0  0  0  0  0  0  0  0
   58.6516   32.2690   50.2635 H   0  0  0  0  0  0  0  0  0  0  0  0
   60.3948   32.2994   49.8311 H   0  0  0  0  0  0  0  0  0  0  0  0
   59.4428   33.8226   49.8311 H   0  0  0  0  0  0  0  0  0  0  0  0
   59.9847   35.1659   48.2189 H   0  0  0  0  0  0  0  0  0  0  0  0
   60.0013   36.5215   46.0964 H   0  0  0  0  0  0  0  0  0  0  0  0
   59.1999   35.5098   43.9511 H   0  0  0  0  0  0  0  0  0  0  0  0
   58.3586   33.1372   43.9042 H   0  0  0  0  0  0  0  0  0  0  0  0
   59.8804   29.0402   43.7918 H   0  0  0  0  0  0  0  0  0  0  0  0
   60.2601   30.1160   45.1920 H   0  0  0  0  0  0  0  0  0  0  0  0
   61.2249   27.6107   45.0089 H   0  0  0  0  0  0  0  0  0  0  0  0
   60.7385   28.3856   46.5964 H   0  0  0  0  0  0  0  0  0  0  0  0
  1  2  1  0
  2  3  1  0
  3  4  1  0
  4  5  1  0
  5  6  1  0
  6  7  1  0
  7  8  2  0
  7  9  1  0
  9 10  2  0
 10 11  1  0
 11 12  1  0
 11 13  1  0
 13 14  2  0
 14 15  1  0
 15 16  2  0
 16 17  1  0
 17 18  2  0
  6 19  1  0
 19 20  1  0
 20  3  1  0
 18  9  1  0
 18 13  1  0
  1 21  1  0
  1 22  1  0
  1 23  1  0
  2 24  1  0
  2 25  1  0
  4 26  1  0
  4 27  1  0
  5 28  1  0
  5 29  1  0
 10 30  1  0
 12 31  1  0
 12 32  1  0
 12 33  1  0
 14 34  1  0
 15 35  1  0
 16 36  1  0
 17 37  1  0
 19 38  1  0
 19 39  1  0
 20 40  1  0
 20 41  1  0
M  END
>  <UniqueID>  (16) 
16

>  <SMILES>  (16) 
CCN1CCN(C(=O)c2cn(C)c3ccccc23)CC1

>  <Energy>  (16) 
84.4728057603873

>  <Genealogy>  (16) 
CCN1CCN(C(=O)c2cn(C)c3ccccc23)CC1 (3D coordinates assigned)
CCN1CCN(C(=O)c2cn(C)c3ccccc23)CC1 (nonaromatic ring conformer: 84.4728057603873 kcal/mol)

>  <smiles>  (16) 
CCN1CCN(C(=O)c2cn(C)c3ccccc23)CC1

>  <score_type>  (16) 
oracle

>  <origin>  (16) 
adg

>  <m_score__min__energy>  (16) 
-7.3499999999999996

>  <m_primary>  (16) 
energy

$$$$
16:0
     RDKit          3D

 47 49  0  0  0  0  0  0  0  0999 V2000
   60.6310   30.1670   47.6430 C   0  0  0  0  0  0  0  0  0  0  0  0
   61.3250   31.4700   47.3510 C   0  0  0  0  0  0  0  0  0  0  0  0
   62.7210   31.5530   47.4930 C   0  0  0  0  0  0  0  0  0  0  0  0
   63.3860   32.7620   47.2730 C   0  0  0  0  0  0  0  0  0  0  0  0
   62.6660   33.9000   46.9100 C   0  0  0  0  0  0  0  0  0  0  0  0
   61.2800   33.8310   46.7470 C   0  0  0  0  0  0  0  0  0  0  0  0
   60.6050   32.6160   46.9360 C   0  0  0  0  0  0  0  0  0  0  0  0
   59.1830   32.5790   46.7460 N   0  0  0  0  0  0  0  0  0  0  0  0
   58.5610   33.0610   45.5480 C   0  0  0  0  0  0  0  0  0  0  0  0
   59.2110   33.7670   44.7310 O   0  0  0  0  0  0  0  0  0  0  0  0
   57.1460   32.6840   45.2380 C   0  0  0  0  0  0  0  0  0  0  0  0
   57.0830   31.2600   44.9310 N   0  0  0  0  0  0  0  0  0  0  0  0
   58.1210   30.4090   44.8830 C   0  0  0  0  0  0  0  0  0  0  0  0
   57.5750   29.1530   44.7410 C   0  0  0  0  0  0  0  0  0  0  0  0
   58.3120   27.8560   44.8020 C   0  0  0  0  0  0  0  0  0  0  0  0
   57.5840   26.8460   44.0240 N   0  0  0  0  0  0  0  0  0  0  0  0
   57.0910   25.7520   44.8800 C   0  0  1  0  0  0  0  0  0  0  0  0
   58.1990   24.8160   45.3630 C   0  0  0  0  0  0  0  0  0  0  0  0
   57.7150   24.2550   46.6970 C   0  0  0  0  0  0  0  0  0  0  0  0
   56.6110   25.1850   47.2020 C   0  0  0  0  0  0  0  0  0  0  0  0
   56.4790   26.3040   46.1680 C   0  0  2  0  0  0  0  0  0  0  0  0
   55.1460   26.7160   45.9910 O   0  0  0  0  0  0  0  0  0  0  0  0
   56.2320   29.2690   44.7350 N   0  0  0  0  0  0  0  0  0  0  0  0
   55.9610   30.5610   44.8520 N   0  0  0  0  0  0  0  0  0  0  0  0
   60.5565   30.0271   48.7315 H   0  0  0  0  0  0  0  0  0  0  0  0
   59.6219   30.1829   47.2055 H   0  0  0  0  0  0  0  0  0  0  0  0
   61.2073   29.3385   47.2055 H   0  0  0  0  0  0  0  0  0  0  0  0
   63.2944   30.6591   47.7796 H   0  0  0  0  0  0  0  0  0  0  0  0
   64.4788   32.8163   47.3862 H   0  0  0  0  0  0  0  0  0  0  0  0
   63.1904   34.8539   46.7517 H   0  0  0  0  0  0  0  0  0  0  0  0
   60.7157   34.7335   46.4692 H   0  0  0  0  0  0  0  0  0  0  0  0
   58.5800   32.2850   47.5450 H   0  0  0  0  0  0  0  0  0  0  0  0
   56.5089   32.9009   46.1081 H   0  0  0  0  0  0  0  0  0  0  0  0
   56.7913   33.2635   44.3729 H   0  0  0  0  0  0  0  0  0  0  0  0
   59.1894   30.6635   44.9446 H   0  0  0  0  0  0  0  0  0  0  0  0
   59.3203   27.9865   44.3821 H   0  0  0  0  0  0  0  0  0  0  0  0
   58.3921   27.5271   45.8486 H   0  0  0  0  0  0  0  0  0  0  0  0
   56.7750   27.3100   43.5460 H   0  0  0  0  0  0  0  0  0  0  0  0
   56.3693   25.2143   44.2475 H   0  0  0  0  0  0  0  0  0  0  0  0
   58.3561   24.0025   44.6394 H   0  0  0  0  0  0  0  0  0  0  0  0
   59.1582   25.3439   45.4692 H   0  0  0  0  0  0  0  0  0  0  0  0
   57.3177   23.2388   46.5571 H   0  0  0  0  0  0  0  0  0  0  0  0
   58.5412   24.1989   47.4210 H   0  0  0  0  0  0  0  0  0  0  0  0
   55.6622   24.6355   47.2905 H   0  0  0  0  0  0  0  0  0  0  0  0
   56.8546   25.5885   48.1959 H   0  0  0  0  0  0  0  0  0  0  0  0
   57.0030   27.2125   46.4997 H   0  0  0  0  0  0  0  0  0  0  0  0
   55.1430   27.4960   45.3760 H   0  0  0  0  0  0  0  0  0  0  0  0
  1  2  1  0
  2  3  2  0
  3  4  1  0
  4  5  2  0
  5  6  1  0
  6  7  2  0
  7  8  1  0
  8  9  1  0
  9 10  2  0
  9 11  1  0
 11 12  1  0
 12 13  1  0
 13 14  2  0
 14 15  1  0
 15 16  1  0
 16 17  1  0
 17 18  1  0
 18 19  1  0
 19 20  1  0
 20 21  1  0
 21 22  1  0
 14 23  1  0
 23 24  2  0
  7  2  1  0
 24 12  1  0
 21 17  1  0
  1 25  1  0
  1 26  1  0
  1 27  1  0
  3 28  1  0
  4 29  1  0
  5 30  1  0
  6 31  1  0
  8 32  1  0
 11 33  1  0
 11 34  1  0
 13 35  1  0
 15 36  1  0
 15 37  1  0
 16 38  1  0
 17 39  1  6
 18 40  1  0
 18 41  1  0
 19 42  1  0
 19 43  1  0
 20 44  1  0
 20 45  1  0
 21 46  1  1
 22 47  1  0
M  END
>  <UniqueID>  (17) 
17

>  <SMILES>  (17) 
Cc1ccccc1NC(=O)Cn1cc(CN[C@H]2CCC[C@@H]2O)nn1

>  <Energy>  (17) 
85.36631501027493

>  <Genealogy>  (17) 
Cc1ccccc1NC(=O)Cn1cc(CN[C@H]2CCC[C@@H]2O)nn1 (chirality)
Cc1ccccc1NC(=O)Cn1cc(CN[C@H]2CCC[C@@H]2O)nn1 (3D coordinates assigned)
Cc1ccccc1NC(=O)Cn1cc(CN[C@H]2CCC[C@@H]2O)nn1 (nonaromatic ring conformer: 85.36631501027493 kcal/mol)

>  <smiles>  (17) 
Cc1ccccc1NC(=O)Cn1cc(CNC2CCCC2O)nn1

>  <score_type>  (17) 
oracle

>  <origin>  (17) 
adg

>  <m_score__min__energy>  (17) 
-9.4000000000000004

>  <m_primary>  (17) 
energy

$$$$
17:0
     RDKit          3D

 51 51  0  0  0  0  0  0  0  0999 V2000
   60.5910   30.2150   48.5550 C   0  0  0  0  0  0  0  0  0  0  0  0
   59.1680   30.4580   48.0680 C   0  0  0  0  0  0  0  0  0  0  0  0
   59.1390   30.4530   46.6000 N   0  0  0  0  0  0  0  0  0  0  0  0
   60.1970   29.6120   46.0150 C   0  0  0  0  0  0  0  0  0  0  0  0
   59.7100   28.7670   44.8280 C   0  0  0  0  0  0  0  0  0  0  0  0
   58.6150   29.4050   44.2010 O   0  0  0  0  0  0  0  0  0  0  0  0
   57.5160   28.5180   44.0850 C   0  0  0  0  0  0  0  0  0  0  0  0
   56.2960   29.0750   44.8170 C   0  0  0  0  0  0  0  0  0  0  0  0
   56.1240   30.4320   44.4680 O   0  0  0  0  0  0  0  0  0  0  0  0
   57.0270   31.1560   45.1840 N   0  0  0  0  0  0  0  0  0  0  0  0
   57.9730   32.0190   44.5360 C   0  0  0  0  0  0  0  0  0  0  0  0
   58.1520   31.9460   43.2490 N   0  0  0  0  0  0  0  0  0  0  0  0
   58.7530   32.9210   45.3380 N   0  0  0  0  0  0  0  0  0  0  0  0
   59.0970   34.2830   44.9200 C   0  0  0  0  0  0  0  0  0  0  0  0
   59.5490   35.1220   46.1230 C   0  0  0  0  0  0  0  0  0  0  0  0
   59.8010   34.2860   47.3890 C   0  0  0  0  0  0  0  0  0  0  0  0
   61.2470   33.8740   47.5200 C   0  0  0  0  0  0  0  0  0  0  0  0
   62.0860   33.8400   46.3990 C   0  0  0  0  0  0  0  0  0  0  0  0
   63.4190   33.4500   46.5450 C   0  0  0  0  0  0  0  0  0  0  0  0
   63.8980   33.0990   47.7700 N   0  0  0  0  0  0  0  0  0  0  0  0
   63.1030   33.1160   48.8740 C   0  0  0  0  0  0  0  0  0  0  0  0
   61.7640   33.5020   48.7690 C   0  0  0  0  0  0  0  0  0  0  0  0
   60.6067   30.2123   49.6549 H   0  0  0  0  0  0  0  0  0  0  0  0
   60.9457   29.2433   48.1809 H   0  0  0  0  0  0  0  0  0  0  0  0
   61.2480   31.0139   48.1809 H   0  0  0  0  0  0  0  0  0  0  0  0
   58.5104   29.6629   48.4493 H   0  0  0  0  0  0  0  0  0  0  0  0
   58.8192   31.4343   48.4356 H   0  0  0  0  0  0  0  0  0  0  0  0
   58.2030   30.1130   46.2760 H   0  0  0  0  0  0  0  0  0  0  0  0
   61.0115   30.2651   45.6686 H   0  0  0  0  0  0  0  0  0  0  0  0
   60.5313   28.9151   46.7976 H   0  0  0  0  0  0  0  0  0  0  0  0
   60.5287   28.6508   44.1026 H   0  0  0  0  0  0  0  0  0  0  0  0
   59.3934   27.7786   45.1925 H   0  0  0  0  0  0  0  0  0  0  0  0
   57.2697   28.3847   43.0212 H   0  0  0  0  0  0  0  0  0  0  0  0
   57.7901   27.5528   44.5359 H   0  0  0  0  0  0  0  0  0  0  0  0
   55.4012   28.5045   44.5274 H   0  0  0  0  0  0  0  0  0  0  0  0
   56.4462   28.9893   45.9033 H   0  0  0  0  0  0  0  0  0  0  0  0
   57.0330   31.0750   46.2250 H   0  0  0  0  0  0  0  0  0  0  0  0
   58.3210   31.0320   42.7770 H   0  0  0  0  0  0  0  0  0  0  0  0
   58.1770   32.8000   42.6500 H   0  0  0  0  0  0  0  0  0  0  0  0
   58.8930   32.6790   46.3440 H   0  0  0  0  0  0  0  0  0  0  0  0
   59.9127   34.2394   44.1833 H   0  0  0  0  0  0  0  0  0  0  0  0
   58.2065   34.7522   44.4763 H   0  0  0  0  0  0  0  0  0  0  0  0
   60.4816   35.6406   45.8560 H   0  0  0  0  0  0  0  0  0  0  0  0
   58.7347   35.8246   46.3539 H   0  0  0  0  0  0  0  0  0  0  0  0
   59.5213   34.8830   48.2695 H   0  0  0  0  0  0  0  0  0  0  0  0
   59.1939   33.3715   47.3169 H   0  0  0  0  0  0  0  0  0  0  0  0
   61.6970   34.1191   45.4087 H   0  0  0  0  0  0  0  0  0  0  0  0
   64.0832   33.4264   45.6685 H   0  0  0  0  0  0  0  0  0  0  0  0
   64.8970   32.8080   47.8640 H   0  0  0  0  0  0  0  0  0  0  0  0
   63.5152   32.8252   49.8515 H   0  0  0  0  0  0  0  0  0  0  0  0
   61.1198   33.5139   49.6606 H   0  0  0  0  0  0  0  0  0  0  0  0
  1  2  1  0
  2  3  1  0
  3  4  1  0
  4  5  1  0
  5  6  1  0
  6  7  1  0
  7  8  1  0
  8  9  1  0
  9 10  1  0
 10 11  1  0
 11 12  2  0
 11 13  1  0
 13 14  1  0
 14 15  1  0
 15 16  1  0
 16 17  1  0
 17 18  2  0
 18 19  1  0
 19 20  2  0
 20 21  1  0
 21 22  2  0
 22 17  1  0
  1 23  1  0
  1 24  1  0
  1 25  1  0
  2 26  1  0
  2 27  1  0
  3 28  1  0
  4 29  1  0
  4 30  1  0
  5 31  1  0
  5 32  1  0
  7 33  1  0
  7 34  1  0
  8 35  1  0
  8 36  1  0
 10 37  1  0
 12 38  1  0
 12 39  1  0
 13 40  1  0
 14 41  1  0
 14 42  1  0
 15 43  1  0
 15 44  1  0
 16 45  1  0
 16 46  1  0
 18 47  1  0
 19 48  1  0
 20 49  1  0
 21 50  1  0
 22 51  1  0
M  CHG  2  12   1  20   1
M  END
>  <UniqueID>  (18) 
18

>  <SMILES>  (18) 
CCNCCOCCONC(=[NH2+])NCCCc1cc[nH+]cc1

>  <Energy>  (18) 
37.40087180219443

>  <Genealogy>  (18) 
CCNCCOCCONC(=[NH2+])NCCCc1cc[nH+]cc1 (protonated)
CCNCCOCCONC(=[NH2+])NCCCc1cc[nH+]cc1 (3D coordinates assigned)
CCNCCOCCONC(=[NH2+])NCCCc1cc[nH+]cc1 (optimized conformer: 37.40087180219443 kcal/mol)

>  <smiles>  (18) 
CCNCCOCCONC(=N)NCCCc1ccncc1

>  <score_type>  (18) 
oracle

>  <origin>  (18) 
adg

>  <m_score__min__energy>  (18) 
-2.9100000000000001

>  <m_primary>  (18) 
energy

$$$$
18:0
     RDKit          3D

 59 61  0  0  0  0  0  0  0  0999 V2000
   59.6380   35.6710   46.3430 C   0  0  0  0  0  0  0  0  0  0  0  0
   59.5110   34.6400   45.2270 C   0  0  0  0  0  0  0  0  0  0  0  0
   59.2970   33.3310   45.7640 O   0  0  0  0  0  0  0  0  0  0  0  0
   58.6200   32.2630   45.1530 C   0  0  0  0  0  0  0  0  0  0  0  0
   57.6970   32.5410   44.1290 C   0  0  0  0  0  0  0  0  0  0  0  0
   57.0700   31.5260   43.4370 C   0  0  0  0  0  0  0  0  0  0  0  0
   57.3890   30.2100   43.7030 C   0  0  0  0  0  0  0  0  0  0  0  0
   58.3270   29.8650   44.7040 C   0  0  0  0  0  0  0  0  0  0  0  0
   58.8730   30.8950   45.5380 C   0  0  0  0  0  0  0  0  0  0  0  0
   59.6260   30.4950   46.7010 C   0  0  0  0  0  0  0  0  0  0  0  0
   60.1430   31.4540   47.6740 N   0  0  0  0  0  0  0  0  0  0  0  0
   59.1700   31.7460   48.7510 C   0  0  0  0  0  0  0  0  0  0  0  0
   59.0260   33.2440   49.0350 C   0  0  0  0  0  0  0  0  0  0  0  0
   60.2360   33.9560   48.6060 N   0  0  0  0  0  0  0  0  0  0  0  0
   61.3350   33.7060   49.5490 C   0  0  0  0  0  0  0  0  0  0  0  0
   62.6590   33.5520   48.7990 C   0  0  0  0  0  0  0  0  0  0  0  0
   62.4280   32.8800   47.4960 N   0  0  0  0  0  0  0  0  0  0  0  0
   62.6270   33.8110   46.3720 C   0  0  0  0  0  0  0  0  0  0  0  0
   63.2960   31.7040   47.3350 C   0  0  0  0  0  0  0  0  0  0  0  0
   59.7860   29.0970   46.9660 C   0  0  0  0  0  0  0  0  0  0  0  0
   60.4380   28.6240   48.1390 C   0  0  0  0  0  0  0  0  0  0  0  0
   60.5520   27.2630   48.4090 C   0  0  0  0  0  0  0  0  0  0  0  0
   60.0140   26.3330   47.5340 C   0  0  0  0  0  0  0  0  0  0  0  0
   59.3830   26.7600   46.3720 C   0  0  0  0  0  0  0  0  0  0  0  0
   59.2840   28.1390   46.0470 C   0  0  0  0  0  0  0  0  0  0  0  0
   58.6910   28.5470   44.8770 N   0  0  0  0  0  0  0  0  0  0  0  0
   58.4690   27.5700   43.7850 C   0  0  0  0  0  0  0  0  0  0  0  0
   59.5757   35.1655   47.3180 H   0  0  0  0  0  0  0  0  0  0  0  0
   60.6064   36.1859   46.2581 H   0  0  0  0  0  0  0  0  0  0  0  0
   58.8235   36.4055   46.2581 H   0  0  0  0  0  0  0  0  0  0  0  0
   58.6605   34.9088   44.5833 H   0  0  0  0  0  0  0  0  0  0  0  0
   60.4451   34.6335   44.6461 H   0  0  0  0  0  0  0  0  0  0  0  0
   57.4710   33.5872   43.8753 H   0  0  0  0  0  0  0  0  0  0  0  0
   56.3157   31.7655   42.6731 H   0  0  0  0  0  0  0  0  0  0  0  0
   56.9029   29.4113   43.1235 H   0  0  0  0  0  0  0  0  0  0  0  0
   61.0770   31.2250   48.0590 H   0  0  0  0  0  0  0  0  0  0  0  0
   60.3730   32.3440   47.1810 H   0  0  0  0  0  0  0  0  0  0  0  0
   58.1880   31.3493   48.4537 H   0  0  0  0  0  0  0  0  0  0  0  0
   59.5429   31.2704   49.6701 H   0  0  0  0  0  0  0  0  0  0  0  0
   58.1581   33.6370   48.4852 H   0  0  0  0  0  0  0  0  0  0  0  0
   58.8831   33.3941   50.1153 H   0  0  0  0  0  0  0  0  0  0  0  0
   60.5190   33.5670   47.6760 H   0  0  0  0  0  0  0  0  0  0  0  0
   61.4113   34.5515   50.2485 H   0  0  0  0  0  0  0  0  0  0  0  0
   61.1274   32.7765   50.0993 H   0  0  0  0  0  0  0  0  0  0  0  0
   63.0965   34.5460   48.6239 H   0  0  0  0  0  0  0  0  0  0  0  0
   63.3478   32.9429   49.4028 H   0  0  0  0  0  0  0  0  0  0  0  0
   62.8419   34.8166   46.7625 H   0  0  0  0  0  0  0  0  0  0  0  0
   63.4721   33.4681   45.7571 H   0  0  0  0  0  0  0  0  0  0  0  0
   61.7155   33.8435   45.7571 H   0  0  0  0  0  0  0  0  0  0  0  0
   63.5799   31.3194   48.3257 H   0  0  0  0  0  0  0  0  0  0  0  0
   62.7561   30.9231   46.7794 H   0  0  0  0  0  0  0  0  0  0  0  0
   64.2013   31.9898   46.7794 H   0  0  0  0  0  0  0  0  0  0  0  0
   60.8615   29.3501   48.8485 H   0  0  0  0  0  0  0  0  0  0  0  0
   61.0701   26.9253   49.3187 H   0  0  0  0  0  0  0  0  0  0  0  0
   60.0863   25.2587   47.7588 H   0  0  0  0  0  0  0  0  0  0  0  0
   58.9508   26.0138   45.6891 H   0  0  0  0  0  0  0  0  0  0  0  0
   58.2448   26.5831   44.2160 H   0  0  0  0  0  0  0  0  0  0  0  0
   57.6229   27.8999   43.1643 H   0  0  0  0  0  0  0  0  0  0  0  0
   59.3746   27.5019   43.1643 H   0  0  0  0  0  0  0  0  0  0  0  0
  1  2  1  0
  2  3  1  0
  3  4  1  0
  4  5  2  0
  5  6  1  0
  6  7  2  0
  7  8  1  0
  8  9  2  0
  9 10  1  0
 10 11  1  0
 11 12  1  0
 12 13  1  0
 13 14  1  0
 14 15  1  0
 15 16  1  0
 16 17  1  0
 17 18  1  0
 17 19  1  0
 10 20  2  0
 20 21  1  0
 21 22  2  0
 22 23  1  0
 23 24  2  0
 24 25  1  0
 25 26  2  0
 26 27  1  0
  9  4  1  0
 25 20  1  0
 26  8  1  0
  1 28  1  0
  1 29  1  0
  1 30  1  0
  2 31  1  0
  2 32  1  0
  5 33  1  0
  6 34  1  0
  7 35  1  0
 11 36  1  0
 11 37  1  0
 12 38  1  0
 12 39  1  0
 13 40  1  0
 13 41  1  0
 14 42  1  0
 15 43  1  0
 15 44  1  0
 16 45  1  0
 16 46  1  0
 18 47  1  0
 18 48  1  0
 18 49  1  0
 19 50  1  0
 19 51  1  0
 19 52  1  0
 21 53  1  0
 22 54  1  0
 23 55  1  0
 24 56  1  0
 27 57  1  0
 27 58  1  0
 27 59  1  0
M  CHG  2  11   1  26   1
M  END
>  <UniqueID>  (19) 
19

>  <SMILES>  (19) 
CCOc1cccc2c1c([NH2+]CCNCCN(C)C)c1ccccc1[n+]2C

>  <Energy>  (19) 
94.46962315120845

>  <Genealogy>  (19) 
CCOc1cccc2c1c([NH2+]CCNCCN(C)C)c1ccccc1[n+]2C (protonated)
CCOc1cccc2c1c([NH2+]CCNCCN(C)C)c1ccccc1[n+]2C (3D coordinates assigned)
CCOc1cccc2c1c([NH2+]CCNCCN(C)C)c1ccccc1[n+]2C (optimized conformer: 94.46962315120845 kcal/mol)

>  <smiles>  (19) 
CCOc1cccc2c1c(NCCNCCN(C)C)c1ccccc1[n+]2C

>  <score_type>  (19) 
oracle

>  <origin>  (19) 
adg

>  <m_score__min__energy>  (19) 
-2.96

>  <m_primary>  (19) 
energy

$$$$
19:0
     RDKit          3D

 40 42  0  0  0  0  0  0  0  0999 V2000
   57.1060   29.3450   52.8160 C   0  0  0  0  0  0  0  0  0  0  0  0
   57.2700   30.1720   51.6100 N   0  0  0  0  0  0  0  0  0  0  0  0
   56.8840   31.5690   51.8650 C   0  0  0  0  0  0  0  0  0  0  0  0
   58.6130   30.0490   51.0030 C   0  0  0  0  0  0  0  0  0  0  0  0
   58.8880   31.0490   49.8590 C   0  0  0  0  0  0  0  0  0  0  0  0
   59.6170   30.4190   48.8020 O   0  0  0  0  0  0  0  0  0  0  0  0
   59.2470   30.4480   47.4460 C   0  0  0  0  0  0  0  0  0  0  0  0
   59.1290   29.2650   46.8360 C   0  0  0  0  0  0  0  0  0  0  0  0
   58.6120   29.0240   45.4730 C   0  0  0  0  0  0  0  0  0  0  0  0
   59.0620   27.8790   44.7920 C   0  0  0  0  0  0  0  0  0  0  0  0
   58.4880   27.5000   43.5770 C   0  0  0  0  0  0  0  0  0  0  0  0
   57.4360   28.2430   43.0410 C   0  0  0  0  0  0  0  0  0  0  0  0
   56.9670   29.3730   43.7140 C   0  0  0  0  0  0  0  0  0  0  0  0
   57.5570   29.7810   44.9170 C   0  0  0  0  0  0  0  0  0  0  0  0
   57.0660   30.9380   45.5240 O   0  0  0  0  0  0  0  0  0  0  0  0
   57.9030   31.9730   45.9330 C   0  0  0  0  0  0  0  0  0  0  0  0
   57.6230   33.2660   45.4780 C   0  0  0  0  0  0  0  0  0  0  0  0
   58.4920   34.3210   45.7600 C   0  0  0  0  0  0  0  0  0  0  0  0
   59.6530   34.0860   46.4960 C   0  0  0  0  0  0  0  0  0  0  0  0
   59.9210   32.8060   46.9870 C   0  0  0  0  0  0  0  0  0  0  0  0
   59.0260   31.7460   46.7540 C   0  0  0  0  0  0  0  0  0  0  0  0
   57.2305   29.9727   53.7107 H   0  0  0  0  0  0  0  0  0  0  0  0
   56.1015   28.8968   52.8194 H   0  0  0  0  0  0  0  0  0  0  0  0
   57.8635   28.5473   52.8194 H   0  0  0  0  0  0  0  0  0  0  0  0
   56.8357   31.7439   52.9499 H   0  0  0  0  0  0  0  0  0  0  0  0
   57.6296   32.2429   51.4178 H   0  0  0  0  0  0  0  0  0  0  0  0
   55.8982   31.7645   51.4178 H   0  0  0  0  0  0  0  0  0  0  0  0
   59.3632   30.2121   51.7908 H   0  0  0  0  0  0  0  0  0  0  0  0
   58.6679   29.0430   50.5616 H   0  0  0  0  0  0  0  0  0  0  0  0
   57.9301   31.4203   49.4658 H   0  0  0  0  0  0  0  0  0  0  0  0
   59.4870   31.8828   50.2541 H   0  0  0  0  0  0  0  0  0  0  0  0
   59.4493   28.3807   47.4065 H   0  0  0  0  0  0  0  0  0  0  0  0
   59.8752   27.2753   45.2212 H   0  0  0  0  0  0  0  0  0  0  0  0
   58.8652   26.6157   43.0425 H   0  0  0  0  0  0  0  0  0  0  0  0
   56.9763   27.9390   42.0890 H   0  0  0  0  0  0  0  0  0  0  0  0
   56.1272   29.9475   43.2959 H   0  0  0  0  0  0  0  0  0  0  0  0
   56.7103   33.4527   44.8931 H   0  0  0  0  0  0  0  0  0  0  0  0
   58.2617   35.3355   45.4026 H   0  0  0  0  0  0  0  0  0  0  0  0
   60.3575   34.9083   46.6898 H   0  0  0  0  0  0  0  0  0  0  0  0
   60.8413   32.6251   47.5617 H   0  0  0  0  0  0  0  0  0  0  0  0
  1  2  1  0
  2  3  1  0
  2  4  1  0
  4  5  1  0
  5  6  1  0
  6  7  1  0
  7  8  2  0
  8  9  1  0
  9 10  2  0
 10 11  1  0
 11 12  2  0
 12 13  1  0
 13 14  2  0
 14 15  1  0
 15 16  1  0
 16 17  2  0
 17 18  1  0
 18 19  2  0
 19 20  1  0
 20 21  2  0
 21  7  1  0
 14  9  1  0
 21 16  1  0
  1 22  1  0
  1 23  1  0
  1 24  1  0
  3 25  1  0
  3 26  1  0
  3 27  1  0
  4 28  1  0
  4 29  1  0
  5 30  1  0
  5 31  1  0
  8 32  1  0
 10 33  1  0
 11 34  1  0
 12 35  1  0
 13 36  1  0
 17 37  1  0
 18 38  1  0
 19 39  1  0
 20 40  1  0
M  END
>  <UniqueID>  (20) 
20

>  <SMILES>  (20) 
CN(C)CCOC1=Cc2ccccc2Oc2ccccc21

>  <Energy>  (20) 
69.13661817108311

>  <Genealogy>  (20) 
CN(C)CCOC1=Cc2ccccc2Oc2ccccc21 (3D coordinates assigned)
CN(C)CCOC1=Cc2ccccc2Oc2ccccc21 (nonaromatic ring conformer: 69.13661817108311 kcal/mol)

>  <smiles>  (20) 
CN(C)CCOC1=Cc2ccccc2Oc2ccccc21

>  <score_type>  (20) 
oracle

>  <origin>  (20) 
adg

>  <m_score__min__energy>  (20) 
-5.6699999999999999

>  <m_primary>  (20) 
energy

$$$$
20:0
     RDKit          3D

 51 54  0  0  0  0  0  0  0  0999 V2000
   62.6260   34.5890   50.4560 C   0  0  0  0  0  0  0  0  0  0  0  0
   61.7620   33.9580   49.4040 C   0  0  0  0  0  0  0  0  0  0  0  0
   60.3660   34.0860   49.4650 C   0  0  0  0  0  0  0  0  0  0  0  0
   59.5600   33.4670   48.5050 C   0  0  0  0  0  0  0  0  0  0  0  0
   60.1390   32.7090   47.4780 C   0  0  0  0  0  0  0  0  0  0  0  0
   59.3080   32.0740   46.4890 N   0  0  0  0  0  0  0  0  0  0  0  0
   58.6830   30.8830   46.7680 C   0  0  0  0  0  0  0  0  0  0  0  0
   58.9120   30.0520   48.3570 S   0  0  0  0  0  0  0  0  0  0  0  0
   60.5250   29.3060   47.9250 C   0  0  0  0  0  0  0  0  0  0  0  0
   60.4130   28.0630   47.0130 C   0  0  0  0  0  0  0  0  0  0  0  0
   59.0890   27.8260   46.3880 N   0  0  0  0  0  0  0  0  0  0  0  0
   59.1160   27.3790   44.9870 C   0  0  0  0  0  0  0  0  0  0  0  0
   57.6920   27.4370   44.3930 C   0  0  0  0  0  0  0  0  0  0  0  0
   56.6970   27.6550   45.3800 O   0  0  0  0  0  0  0  0  0  0  0  0
   56.8620   26.7350   46.4410 C   0  0  0  0  0  0  0  0  0  0  0  0
   58.1670   27.0180   47.2090 C   0  0  0  0  0  0  0  0  0  0  0  0
   57.8750   30.2990   45.8430 N   0  0  0  0  0  0  0  0  0  0  0  0
   57.6880   30.8540   44.6160 C   0  0  0  0  0  0  0  0  0  0  0  0
   56.8620   30.2260   43.6700 C   0  0  0  0  0  0  0  0  0  0  0  0
   56.6750   30.7990   42.4100 C   0  0  0  0  0  0  0  0  0  0  0  0
   57.3100   32.0010   42.0830 C   0  0  0  0  0  0  0  0  0  0  0  0
   57.0710   32.7130   40.4980 Cl  0  0  0  0  0  0  0  0  0  0  0  0
   58.1360   32.6340   43.0180 C   0  0  0  0  0  0  0  0  0  0  0  0
   58.3310   32.0640   44.2910 C   0  0  0  0  0  0  0  0  0  0  0  0
   59.1460   32.6660   45.2630 C   0  0  0  0  0  0  0  0  0  0  0  0
   59.7220   33.7630   45.0080 O   0  0  0  0  0  0  0  0  0  0  0  0
   61.5330   32.5600   47.4310 C   0  0  0  0  0  0  0  0  0  0  0  0
   62.3400   33.1770   48.3910 C   0  0  0  0  0  0  0  0  0  0  0  0
   62.2499   34.3143   51.4526 H   0  0  0  0  0  0  0  0  0  0  0  0
   63.6604   34.2323   50.3433 H   0  0  0  0  0  0  0  0  0  0  0  0
   62.6010   35.6829   50.3433 H   0  0  0  0  0  0  0  0  0  0  0  0
   59.9043   34.6754   50.2709 H   0  0  0  0  0  0  0  0  0  0  0  0
   58.4665   33.5753   48.5559 H   0  0  0  0  0  0  0  0  0  0  0  0
   61.1297   30.0640   47.4055 H   0  0  0  0  0  0  0  0  0  0  0  0
   60.9861   28.9723   48.8663 H   0  0  0  0  0  0  0  0  0  0  0  0
   61.1509   28.1724   46.2046 H   0  0  0  0  0  0  0  0  0  0  0  0
   60.5866   27.1988   47.6710 H   0  0  0  0  0  0  0  0  0  0  0  0
   59.7809   28.0356   44.4067 H   0  0  0  0  0  0  0  0  0  0  0  0
   59.4866   26.3443   44.9426 H   0  0  0  0  0  0  0  0  0  0  0  0
   57.6486   28.2577   43.6619 H   0  0  0  0  0  0  0  0  0  0  0  0
   57.4874   26.4635   43.9234 H   0  0  0  0  0  0  0  0  0  0  0  0
   56.0102   26.8235   47.1314 H   0  0  0  0  0  0  0  0  0  0  0  0
   56.9107   25.7185   46.0234 H   0  0  0  0  0  0  0  0  0  0  0  0
   57.9309   27.5663   48.1329 H   0  0  0  0  0  0  0  0  0  0  0  0
   58.6523   26.0602   47.4479 H   0  0  0  0  0  0  0  0  0  0  0  0
   57.3950   29.4030   46.0850 H   0  0  0  0  0  0  0  0  0  0  0  0
   56.3607   29.2799   43.9220 H   0  0  0  0  0  0  0  0  0  0  0  0
   56.0263   30.3032   41.6729 H   0  0  0  0  0  0  0  0  0  0  0  0
   58.6345   33.5795   42.7582 H   0  0  0  0  0  0  0  0  0  0  0  0
   61.9928   31.9552   46.6355 H   0  0  0  0  0  0  0  0  0  0  0  0
   63.4320   33.0501   48.3525 H   0  0  0  0  0  0  0  0  0  0  0  0
  1  2  1  0
  2  3  2  0
  3  4  1  0
  4  5  2  0
  5  6  1  0
  6  7  1  0
  7  8  1  0
  8  9  1  0
  9 10  1  0
 10 11  1  0
 11 12  1  0
 12 13  1  0
 13 14  1  0
 14 15  1  0
 15 16  1  0
  7 17  2  0
 17 18  1  0
 18 19  2  0
 19 20  1  0
 20 21  2  0
 21 22  1  0
 21 23  1  0
 23 24  2  0
 24 25  1  0
 25 26  2  0
  5 27  1  0
 27 28  2  0
 28  2  1  0
 25  6  1  0
 16 11  1  0
 24 18  1  0
  1 29  1  0
  1 30  1  0
  1 31  1  0
  3 32  1  0
  4 33  1  0
  9 34  1  0
  9 35  1  0
 10 36  1  0
 10 37  1  0
 12 38  1  0
 12 39  1  0
 13 40  1  0
 13 41  1  0
 15 42  1  0
 15 43  1  0
 16 44  1  0
 16 45  1  0
 17 46  1  0
 19 47  1  0
 20 48  1  0
 23 49  1  0
 27 50  1  0
 28 51  1  0
M  CHG  1  17   1
M  END
>  <UniqueID>  (21) 
21

>  <SMILES>  (21) 
Cc1ccc(-n2c(SCCN3CCOCC3)[nH+]c3ccc(Cl)cc3c2=O)cc1

>  <Energy>  (21) 
77.88637246851022

>  <Genealogy>  (21) 
Cc1ccc(-n2c(SCCN3CCOCC3)[nH+]c3ccc(Cl)cc3c2=O)cc1 (protonated)
Cc1ccc(-n2c(SCCN3CCOCC3)[nH+]c3ccc(Cl)cc3c2=O)cc1 (3D coordinates assigned)
Cc1ccc(-n2c(SCCN3CCOCC3)[nH+]c3ccc(Cl)cc3c2=O)cc1 (nonaromatic ring conformer: 77.88637246851022 kcal/mol)

>  <smiles>  (21) 
Cc1ccc(-n2c(SCCN3CCOCC3)nc3ccc(Cl)cc3c2=O)cc1

>  <score_type>  (21) 
oracle

>  <origin>  (21) 
adg

>  <m_score__min__energy>  (21) 
-7.1900000000000004

>  <m_primary>  (21) 
energy

$$$$
