0:0
     RDKit          3D

 50 51  0  0  0  0  0  0  0  0999 V2000
   60.8906   33.1469   48.6144 H   0  0  0  0  0  0  0  0  0  0  0  0
   61.7670   32.5890   48.2530 C   0  0  0  0  0  0  0  0  0  0  0  0
   63.0730   32.9150   48.8590 C   0  0  0  0  0  0  0  0  0  0  0  0
   63.3450   34.1250   49.0860 O   0  0  0  0  0  0  0  0  0  0  0  0
   63.9790   31.9080   49.2120 O   0  0  0  0  0  0  0  0  0  0  0  0
   64.0250   31.2790   50.4930 C   0  0  0  0  0  0  0  0  0  0  0  0
   64.1922   30.1997   50.3619 H   0  0  0  0  0  0  0  0  0  0  0  0
   63.0703   31.4513   51.0116 H   0  0  0  0  0  0  0  0  0  0  0  0
   65.1650   31.8700   51.3340 C   0  0  0  0  0  0  0  0  0  0  0  0
   65.9392   31.1005   51.4702 H   0  0  0  0  0  0  0  0  0  0  0  0
   64.7406   32.1894   52.2973 H   0  0  0  0  0  0  0  0  0  0  0  0
   65.7870   33.0690   50.6890 N   0  0  0  0  0  0  0  0  0  0  0  0
   65.2140   33.3960   49.8750 H   0  0  0  0  0  0  0  0  0  0  0  0
   65.8790   34.2050   51.6430 C   0  0  0  0  0  0  0  0  0  0  0  0
   66.4929   34.9976   51.1903 H   0  0  0  0  0  0  0  0  0  0  0  0
   66.3301   33.8267   52.5722 H   0  0  0  0  0  0  0  0  0  0  0  0
   64.5040   34.7870   51.9940 C   0  0  0  0  0  0  0  0  0  0  0  0
   64.3939   34.8336   53.0875 H   0  0  0  0  0  0  0  0  0  0  0  0
   64.4161   35.7995   51.5731 H   0  0  0  0  0  0  0  0  0  0  0  0
   63.7159   34.1453   51.5731 H   0  0  0  0  0  0  0  0  0  0  0  0
   67.1440   32.7590   50.1660 C   0  0  0  0  0  0  0  0  0  0  0  0
   67.4688   31.7930   50.5799 H   0  0  0  0  0  0  0  0  0  0  0  0
   67.0791   32.7290   49.0683 H   0  0  0  0  0  0  0  0  0  0  0  0
   68.1790   33.8270   50.5410 C   0  0  0  0  0  0  0  0  0  0  0  0
   68.2500   33.9002   51.6363 H   0  0  0  0  0  0  0  0  0  0  0  0
   69.1596   33.5483   50.1278 H   0  0  0  0  0  0  0  0  0  0  0  0
   67.8697   34.7984   50.1278 H   0  0  0  0  0  0  0  0  0  0  0  0
   61.5590   31.6690   47.2980 C   0  0  0  0  0  0  0  0  0  0  0  0
   62.4228   31.0737   46.9672 H   0  0  0  0  0  0  0  0  0  0  0  0
   60.2540   31.3970   46.6580 C   0  0  0  0  0  0  0  0  0  0  0  0
   59.7970   30.0740   46.5970 C   0  0  0  0  0  0  0  0  0  0  0  0
   60.4138   29.2662   47.0178 H   0  0  0  0  0  0  0  0  0  0  0  0
   58.5710   29.7690   46.0100 C   0  0  0  0  0  0  0  0  0  0  0  0
   58.2241   28.7254   45.9855 H   0  0  0  0  0  0  0  0  0  0  0  0
   57.7730   30.7800   45.4490 C   0  0  0  0  0  0  0  0  0  0  0  0
   56.5310   30.4910   44.8570 O   0  0  0  0  0  0  0  0  0  0  0  0
   56.3590   29.9800   43.5390 C   0  0  0  0  0  0  0  0  0  0  0  0
   56.0085   28.9387   43.5923 H   0  0  0  0  0  0  0  0  0  0  0  0
   55.6166   30.5898   43.0033 H   0  0  0  0  0  0  0  0  0  0  0  0
   57.3190   30.0168   43.0033 H   0  0  0  0  0  0  0  0  0  0  0  0
   58.2290   32.1150   45.4780 C   0  0  0  0  0  0  0  0  0  0  0  0
   57.4500   33.1490   44.9250 C   0  0  0  0  0  0  0  0  0  0  0  0
   56.4755   32.9141   44.4719 H   0  0  0  0  0  0  0  0  0  0  0  0
   57.9020   34.4690   44.9460 C   0  0  0  0  0  0  0  0  0  0  0  0
   57.2852   35.2674   44.5077 H   0  0  0  0  0  0  0  0  0  0  0  0
   59.1330   34.7780   45.5210 C   0  0  0  0  0  0  0  0  0  0  0  0
   59.4860   35.8198   45.5331 H   0  0  0  0  0  0  0  0  0  0  0  0
   59.9190   33.7720   46.0810 C   0  0  0  0  0  0  0  0  0  0  0  0
   60.8876   34.0276   46.5354 H   0  0  0  0  0  0  0  0  0  0  0  0
   59.4850   32.4290   46.0710 C   0  0  0  0  0  0  0  0  0  0  0  0
  1  2  1  0
  2  3  1  0
  3  4  2  0
  3  5  1  0
  5  6  1  0
  6  7  1  0
  6  8  1  0
  6  9  1  0
  9 10  1  0
  9 11  1  0
  9 12  1  0
 12 13  1  0
 12 14  1  0
 14 15  1  0
 14 16  1  0
 14 17  1  0
 17 18  1  0
 17 19  1  0
 17 20  1  0
 12 21  1  0
 21 22  1  0
 21 23  1  0
 21 24  1  0
 24 25  1  0
 24 26  1  0
 24 27  1  0
  2 28  2  0
 28 29  1  0
 28 30  1  0
 30 31  2  0
 31 32  1  0
 31 33  1  0
 33 34  1  0
 33 35  2  0
 35 36  1  0
 36 37  1  0
 37 38  1  0
 37 39  1  0
 37 40  1  0
 35 41  1  0
 41 42  2  0
 42 43  1  0
 42 44  1  0
 44 45  1  0
 44 46  2  0
 46 47  1  0
 46 48  1  0
 48 49  1  0
 48 50  2  0
 50 30  1  0
 50 41  1  0
M  CHG  1  12   1
M  END
>  <UniqueID>  (1) 
1

>  <SMILES>  (1) 
CC[NH+](CC)CCOC(=O)/C=C\c1ccc(OC)c2ccccc12

>  <Energy>  (1) 
60.66222590754237

>  <Genealogy>  (1) 
CC[NH+](CC)CCOC(=O)C=Cc1ccc(OC)c2ccccc12 (protonated)
CC[NH+](CC)CCOC(=O)/C=C\c1ccc(OC)c2ccccc12 (cis-trans isomerization)
CC[NH+](CC)CCOC(=O)/C=C\c1ccc(OC)c2ccccc12 (3D coordinates assigned)
CC[NH+](CC)CCOC(=O)/C=C\c1ccc(OC)c2ccccc12 (optimized conformer: 60.66222590754237 kcal/mol)

>  <smiles>  (1) 
CCN(CC)CCOC(=O)C=Cc1ccc(OC)c2ccccc12

>  <score_type>  (1) 
oracle

>  <origin>  (1) 
adg

>  <m_score__min__energy>  (1) 
-4.9000000000000004

>  <m_primary>  (1) 
energy

$$$$
1:0
     RDKit          3D

 24 25  0  0  0  0  0  0  0  0999 V2000
   57.3790   32.3640   40.3730 C   0  0  0  0  0  0  0  0  0  0  0  0
   57.3730   31.9870   41.8160 C   0  0  0  0  0  0  0  0  0  0  0  0
   57.9860   32.7020   42.7810 N   0  0  0  0  0  0  0  0  0  0  0  0
   57.8180   32.0240   43.9080 N   0  0  0  0  0  0  0  0  0  0  0  0
   58.3280   32.4620   45.1830 C   0  0  0  0  0  0  0  0  0  0  0  0
   58.0720   33.7660   45.6440 C   0  0  0  0  0  0  0  0  0  0  0  0
   58.5750   34.1720   46.8820 C   0  0  0  0  0  0  0  0  0  0  0  0
   59.3260   33.2830   47.6530 C   0  0  0  0  0  0  0  0  0  0  0  0
   60.0200   33.8220   49.3480 Br  0  0  0  0  0  0  0  0  0  0  0  0
   59.5630   31.9950   47.1690 C   0  0  0  0  0  0  0  0  0  0  0  0
   59.0650   31.6200   45.9610 N   0  0  0  0  0  0  0  0  0  0  0  0
   57.1190   30.9020   43.6120 C   0  0  0  0  0  0  0  0  0  0  0  0
   56.7140   29.8330   44.5810 C   0  0  0  0  0  0  0  0  0  0  0  0
   56.8330   30.8520   42.2980 N   0  0  0  0  0  0  0  0  0  0  0  0
   57.3964   33.4600   40.2804 H   0  0  0  0  0  0  0  0  0  0  0  0
   58.2705   31.9408   39.8872 H   0  0  0  0  0  0  0  0  0  0  0  0
   56.4745   31.9693   39.8872 H   0  0  0  0  0  0  0  0  0  0  0  0
   57.4789   34.4622   45.0328 H   0  0  0  0  0  0  0  0  0  0  0  0
   58.3798   35.1905   47.2489 H   0  0  0  0  0  0  0  0  0  0  0  0
   60.1529   31.2834   47.7654 H   0  0  0  0  0  0  0  0  0  0  0  0
   56.8525   30.1985   45.6092 H   0  0  0  0  0  0  0  0  0  0  0  0
   55.6562   29.5761   44.4225 H   0  0  0  0  0  0  0  0  0  0  0  0
   57.3360   28.9397   44.4225 H   0  0  0  0  0  0  0  0  0  0  0  0
   56.3220   30.1070   41.7730 H   0  0  0  0  0  0  0  0  0  0  0  0
  1  2  1  0
  2  3  2  0
  3  4  1  0
  4  5  1  0
  5  6  2  0
  6  7  1  0
  7  8  2  0
  8  9  1  0
  8 10  1  0
 10 11  2  0
  4 12  1  0
 12 13  1  0
 12 14  2  0
 14  2  1  0
 11  5  1  0
  1 15  1  0
  1 16  1  0
  1 17  1  0
  6 18  1  0
  7 19  1  0
 10 20  1  0
 13 21  1  0
 13 22  1  0
 13 23  1  0
 14 24  1  0
M  CHG  1  14   1
M  END
>  <UniqueID>  (2) 
2

>  <SMILES>  (2) 
Cc1nn(-c2ccc(Br)cn2)c(C)[nH+]1

>  <Energy>  (2) 
59.12188371849882

>  <Genealogy>  (2) 
Cc1nn(-c2ccc(Br)cn2)c(C)[nH+]1 (protonated)
Cc1nn(-c2ccc(Br)cn2)c(C)[nH+]1 (3D coordinates assigned)
Cc1nn(-c2ccc(Br)cn2)c(C)[nH+]1 (optimized conformer: 59.12188371849882 kcal/mol)

>  <smiles>  (2) 
Cc1nc(C)n(-c2ccc(Br)cn2)n1

>  <score_type>  (2) 
oracle

>  <origin>  (2) 
adg

>  <m_score__min__energy>  (2) 
-4.4500000000000002

>  <m_primary>  (2) 
energy

$$$$
2:0
     RDKit          3D

 64 67  0  0  0  0  0  0  0  0999 V2000
   62.8510   33.8540   48.0370 C   0  0  0  0  0  0  0  0  0  0  0  0
   63.2000   32.3590   47.9630 C   0  0  0  0  0  0  0  0  0  0  0  0
   62.9570   31.6070   49.2250 N   0  0  0  0  0  0  0  0  0  0  0  0
   63.4830   32.2980   50.4320 C   0  0  0  0  0  0  0  0  0  0  0  0
   65.0150   32.3680   50.4620 C   0  0  0  0  0  0  0  0  0  0  0  0
   61.5130   31.2820   49.3870 C   0  0  0  0  0  0  0  0  0  0  0  0
   61.0520   30.1170   48.4880 C   0  0  0  0  0  0  0  0  0  0  0  0
   61.0920   30.4910   47.0730 N   0  0  0  0  0  0  0  0  0  0  0  0
   59.8920   30.5750   46.2840 C   0  0  0  0  0  0  0  0  0  0  0  0
   59.3090   31.8230   46.0080 C   0  0  0  0  0  0  0  0  0  0  0  0
   59.7950   32.9990   46.6190 C   0  0  0  0  0  0  0  0  0  0  0  0
   59.1910   34.2300   46.3750 C   0  0  0  0  0  0  0  0  0  0  0  0
   58.0820   34.3080   45.5400 C   0  0  0  0  0  0  0  0  0  0  0  0
   57.5790   33.1580   44.9320 C   0  0  0  0  0  0  0  0  0  0  0  0
   58.1950   31.8950   45.1300 C   0  0  0  0  0  0  0  0  0  0  0  0
   57.7270   30.7510   44.5100 N   0  0  0  0  0  0  0  0  0  0  0  0
   56.7800   30.8600   43.3770 C   0  0  0  0  0  0  0  0  0  0  0  0
   58.1580   29.5090   44.9380 C   0  0  0  0  0  0  0  0  0  0  0  0
   57.5130   28.3140   44.5250 C   0  0  0  0  0  0  0  0  0  0  0  0
   57.9980   27.0560   44.9050 C   0  0  0  0  0  0  0  0  0  0  0  0
   57.3710   25.8840   44.4580 C   0  0  0  0  0  0  0  0  0  0  0  0
   57.8700   24.6190   44.8260 C   0  0  0  0  0  0  0  0  0  0  0  0
   57.2720   23.4260   44.3900 O   0  0  0  0  0  0  0  0  0  0  0  0
   56.3570   23.3320   43.3030 C   0  0  0  0  0  0  0  0  0  0  0  0
   59.0010   24.5320   45.6520 C   0  0  0  0  0  0  0  0  0  0  0  0
   59.4790   23.2560   45.9930 O   0  0  0  0  0  0  0  0  0  0  0  0
   59.8080   22.2380   45.0520 C   0  0  0  0  0  0  0  0  0  0  0  0
   59.6220   25.7090   46.1120 C   0  0  0  0  0  0  0  0  0  0  0  0
   59.1260   26.9670   45.7400 C   0  0  0  0  0  0  0  0  0  0  0  0
   59.7360   28.1340   46.2050 C   0  0  0  0  0  0  0  0  0  0  0  0
   59.2660   29.4050   45.8170 C   0  0  0  0  0  0  0  0  0  0  0  0
   62.7791   34.1620   49.0905 H   0  0  0  0  0  0  0  0  0  0  0  0
   63.6367   34.4391   47.5367 H   0  0  0  0  0  0  0  0  0  0  0  0
   61.8874   34.0308   47.5367 H   0  0  0  0  0  0  0  0  0  0  0  0
   62.5917   31.9027   47.1682 H   0  0  0  0  0  0  0  0  0  0  0  0
   64.2803   32.2985   47.7648 H   0  0  0  0  0  0  0  0  0  0  0  0
   63.4860   30.7070   49.1300 H   0  0  0  0  0  0  0  0  0  0  0  0
   63.0847   33.3232   50.4506 H   0  0  0  0  0  0  0  0  0  0  0  0
   63.1627   31.7174   51.3096 H   0  0  0  0  0  0  0  0  0  0  0  0
   65.3609   32.3838   51.5061 H   0  0  0  0  0  0  0  0  0  0  0  0
   65.4323   31.4880   49.9507 H   0  0  0  0  0  0  0  0  0  0  0  0
   65.3504   33.2824   49.9507 H   0  0  0  0  0  0  0  0  0  0  0  0
   61.3313   31.0077   50.4366 H   0  0  0  0  0  0  0  0  0  0  0  0
   60.9403   32.1729   49.0898 H   0  0  0  0  0  0  0  0  0  0  0  0
   61.7156   29.2548   48.6499 H   0  0  0  0  0  0  0  0  0  0  0  0
   60.0146   29.8636   48.7517 H   0  0  0  0  0  0  0  0  0  0  0  0
   61.9970   30.8090   46.6580 H   0  0  0  0  0  0  0  0  0  0  0  0
   60.6605   32.9425   47.2955 H   0  0  0  0  0  0  0  0  0  0  0  0
   59.5916   35.1412   46.8432 H   0  0  0  0  0  0  0  0  0  0  0  0
   57.5998   35.2798   45.3583 H   0  0  0  0  0  0  0  0  0  0  0  0
   56.6900   33.2312   44.2883 H   0  0  0  0  0  0  0  0  0  0  0  0
   55.7571   30.9777   43.7641 H   0  0  0  0  0  0  0  0  0  0  0  0
   57.0424   31.7339   42.7626 H   0  0  0  0  0  0  0  0  0  0  0  0
   56.8370   29.9494   42.7626 H   0  0  0  0  0  0  0  0  0  0  0  0
   56.6143   28.3770   43.8939 H   0  0  0  0  0  0  0  0  0  0  0  0
   56.4817   25.9530   43.8143 H   0  0  0  0  0  0  0  0  0  0  0  0
   55.3338   23.2269   43.6930 H   0  0  0  0  0  0  0  0  0  0  0  0
   56.4234   24.2417   42.6881 H   0  0  0  0  0  0  0  0  0  0  0  0
   56.6069   22.4548   42.6881 H   0  0  0  0  0  0  0  0  0  0  0  0
   60.1033   21.3243   45.5886 H   0  0  0  0  0  0  0  0  0  0  0  0
   58.9327   22.0257   44.4205 H   0  0  0  0  0  0  0  0  0  0  0  0
   60.6420   22.5781   44.4205 H   0  0  0  0  0  0  0  0  0  0  0  0
   60.5025   25.6413   46.7678 H   0  0  0  0  0  0  0  0  0  0  0  0
   60.5973   28.0602   46.8852 H   0  0  0  0  0  0  0  0  0  0  0  0
  1  2  1  0
  2  3  1  0
  3  4  1  0
  4  5  1  0
  3  6  1  0
  6  7  1  0
  7  8  1  0
  8  9  1  0
  9 10  2  0
 10 11  1  0
 11 12  2  0
 12 13  1  0
 13 14  2  0
 14 15  1  0
 15 16  2  0
 16 17  1  0
 16 18  1  0
 18 19  2  0
 19 20  1  0
 20 21  2  0
 21 22  1  0
 22 23  1  0
 23 24  1  0
 22 25  2  0
 25 26  1  0
 26 27  1  0
 25 28  1  0
 28 29  2  0
 29 30  1  0
 30 31  2  0
 31  9  1  0
 15 10  1  0
 31 18  1  0
 29 20  1  0
  1 32  1  0
  1 33  1  0
  1 34  1  0
  2 35  1  0
  2 36  1  0
  3 37  1  0
  4 38  1  0
  4 39  1  0
  5 40  1  0
  5 41  1  0
  5 42  1  0
  6 43  1  0
  6 44  1  0
  7 45  1  0
  7 46  1  0
  8 47  1  0
 11 48  1  0
 12 49  1  0
 13 50  1  0
 14 51  1  0
 17 52  1  0
 17 53  1  0
 17 54  1  0
 19 55  1  0
 21 56  1  0
 24 57  1  0
 24 58  1  0
 24 59  1  0
 27 60  1  0
 27 61  1  0
 27 62  1  0
 28 63  1  0
 30 64  1  0
M  CHG  2   3   1  16   1
M  END
>  <UniqueID>  (3) 
3

>  <SMILES>  (3) 
CC[NH+](CC)CCNc1c2ccccc2[n+](C)c2cc3cc(OC)c(OC)cc3cc12

>  <Energy>  (3) 
96.11485733069746

>  <Genealogy>  (3) 
CC[NH+](CC)CCNc1c2ccccc2[n+](C)c2cc3cc(OC)c(OC)cc3cc12 (protonated)
CC[NH+](CC)CCNc1c2ccccc2[n+](C)c2cc3cc(OC)c(OC)cc3cc12 (3D coordinates assigned)
CC[NH+](CC)CCNc1c2ccccc2[n+](C)c2cc3cc(OC)c(OC)cc3cc12 (optimized conformer: 96.11485733069746 kcal/mol)

>  <smiles>  (3) 
CCN(CC)CCNc1c2ccccc2[n+](C)c2cc3cc(OC)c(OC)cc3cc12

>  <score_type>  (3) 
oracle

>  <origin>  (3) 
adg

>  <m_score__min__energy>  (3) 
-5.4299999999999997

>  <m_primary>  (3) 
energy

$$$$
3:0
     RDKit          3D

 61 63  0  0  0  0  0  0  0  0999 V2000
   57.4120   31.9650   41.6150 C   0  0  0  0  0  0  0  0  0  0  0  0
   57.8180   32.4960   42.9900 C   0  0  0  0  0  0  0  0  0  0  0  0
   57.7280   31.4370   44.0210 N   0  0  0  0  0  0  0  0  0  0  0  0
   58.2410   31.8800   45.3410 C   0  0  0  0  0  0  0  0  0  0  0  0
   57.7520   33.2760   45.7600 C   0  0  0  0  0  0  0  0  0  0  0  0
   56.3850   30.8050   44.1050 C   0  0  0  0  0  0  0  0  0  0  0  0
   56.4440   29.3700   43.5620 C   0  0  0  0  0  0  0  0  0  0  0  0
   57.8320   28.8970   43.4460 N   0  0  0  0  0  0  0  0  0  0  0  0
   58.2170   28.2000   44.6510 C   0  0  0  0  0  0  0  0  0  0  0  0
   57.7700   26.8890   44.8860 C   0  0  0  0  0  0  0  0  0  0  0  0
   58.1170   26.1950   46.0690 C   0  0  0  0  0  0  0  0  0  0  0  0
   57.6690   24.8230   46.3030 N   0  0  0  0  0  0  0  0  0  0  0  0
   58.2270   23.7290   45.4800 C   0  0  0  0  0  0  0  0  0  0  0  0
   57.5980   22.3640   45.7670 C   0  0  0  0  0  0  0  0  0  0  0  0
   57.3620   22.2030   47.1440 O   0  0  0  0  0  0  0  0  0  0  0  0
   56.3210   23.0740   47.5200 C   0  0  0  0  0  0  0  0  0  0  0  0
   56.7710   24.5380   47.4420 C   0  0  0  0  0  0  0  0  0  0  0  0
   58.9030   26.8820   47.0260 C   0  0  0  0  0  0  0  0  0  0  0  0
   59.3460   28.1950   46.8060 C   0  0  0  0  0  0  0  0  0  0  0  0
   60.1230   28.8750   47.8120 N   0  0  0  0  0  0  0  0  0  0  0  0
   60.3810   28.2490   49.1150 C   0  0  0  0  0  0  0  0  0  0  0  0
   60.2540   29.2880   50.2560 C   0  0  0  0  0  0  0  0  0  0  0  0
   60.1970   30.6340   49.8080 O   0  0  0  0  0  0  0  0  0  0  0  0
   61.1750   30.8620   48.8140 C   0  0  0  0  0  0  0  0  0  0  0  0
   60.7450   30.1730   47.5150 C   0  0  0  0  0  0  0  0  0  0  0  0
   58.9990   28.8480   45.6170 C   0  0  0  0  0  0  0  0  0  0  0  0
   56.7481   31.0967   41.7387 H   0  0  0  0  0  0  0  0  0  0  0  0
   56.8844   32.7537   41.0585 H   0  0  0  0  0  0  0  0  0  0  0  0
   58.3114   31.6626   41.0585 H   0  0  0  0  0  0  0  0  0  0  0  0
   58.8540   32.8624   42.9415 H   0  0  0  0  0  0  0  0  0  0  0  0
   57.1312   33.3098   43.2658 H   0  0  0  0  0  0  0  0  0  0  0  0
   57.9139   31.1553   46.1012 H   0  0  0  0  0  0  0  0  0  0  0  0
   59.3363   31.9362   45.2566 H   0  0  0  0  0  0  0  0  0  0  0  0
   57.7288   33.3422   46.8578 H   0  0  0  0  0  0  0  0  0  0  0  0
   58.4363   34.0393   45.3610 H   0  0  0  0  0  0  0  0  0  0  0  0
   56.7410   33.4454   45.3610 H   0  0  0  0  0  0  0  0  0  0  0  0
   56.0576   30.7838   45.1549 H   0  0  0  0  0  0  0  0  0  0  0  0
   55.6731   31.3893   43.5034 H   0  0  0  0  0  0  0  0  0  0  0  0
   55.8954   28.7057   44.2459 H   0  0  0  0  0  0  0  0  0  0  0  0
   55.9898   29.3598   42.5602 H   0  0  0  0  0  0  0  0  0  0  0  0
   58.4750   29.7110   43.2930 H   0  0  0  0  0  0  0  0  0  0  0  0
   57.9220   28.2590   42.6220 H   0  0  0  0  0  0  0  0  0  0  0  0
   57.1377   26.3923   44.1353 H   0  0  0  0  0  0  0  0  0  0  0  0
   58.0615   23.9721   44.4200 H   0  0  0  0  0  0  0  0  0  0  0  0
   59.2954   23.6505   45.7296 H   0  0  0  0  0  0  0  0  0  0  0  0
   56.6435   22.2857   45.2259 H   0  0  0  0  0  0  0  0  0  0  0  0
   58.2923   21.5785   45.4338 H   0  0  0  0  0  0  0  0  0  0  0  0
   55.4658   22.9245   46.8445 H   0  0  0  0  0  0  0  0  0  0  0  0
   56.0366   22.8507   48.5589 H   0  0  0  0  0  0  0  0  0  0  0  0
   55.8769   25.1717   47.3465 H   0  0  0  0  0  0  0  0  0  0  0  0
   57.3387   24.7495   48.3601 H   0  0  0  0  0  0  0  0  0  0  0  0
   59.1725   26.3743   47.9639 H   0  0  0  0  0  0  0  0  0  0  0  0
   59.6516   27.4420   49.2787 H   0  0  0  0  0  0  0  0  0  0  0  0
   61.4041   27.8449   49.1169 H   0  0  0  0  0  0  0  0  0  0  0  0
   59.3345   29.0719   50.8197 H   0  0  0  0  0  0  0  0  0  0  0  0
   61.1604   29.1960   50.8724 H   0  0  0  0  0  0  0  0  0  0  0  0
   61.2774   31.9433   48.6402 H   0  0  0  0  0  0  0  0  0  0  0  0
   62.1409   30.4536   49.1461 H   0  0  0  0  0  0  0  0  0  0  0  0
   60.0206   30.8111   46.9876 H   0  0  0  0  0  0  0  0  0  0  0  0
   61.6312   30.0108   46.8838 H   0  0  0  0  0  0  0  0  0  0  0  0
   59.3428   29.8777   45.4396 H   0  0  0  0  0  0  0  0  0  0  0  0
  1  2  1  0
  2  3  1  0
  3  4  1  0
  4  5  1  0
  3  6  1  0
  6  7  1  0
  7  8  1  0
  8  9  1  0
  9 10  2  0
 10 11  1  0
 11 12  1  0
 12 13  1  0
 13 14  1  0
 14 15  1  0
 15 16  1  0
 16 17  1  0
 11 18  2  0
 18 19  1  0
 19 20  1  0
 20 21  1  0
 21 22  1  0
 22 23  1  0
 23 24  1  0
 24 25  1  0
 19 26  2  0
 26  9  1  0
 17 12  1  0
 25 20  1  0
  1 27  1  0
  1 28  1  0
  1 29  1  0
  2 30  1  0
  2 31  1  0
  4 32  1  0
  4 33  1  0
  5 34  1  0
  5 35  1  0
  5 36  1  0
  6 37  1  0
  6 38  1  0
  7 39  1  0
  7 40  1  0
  8 41  1  0
  8 42  1  0
 10 43  1  0
 13 44  1  0
 13 45  1  0
 14 46  1  0
 14 47  1  0
 16 48  1  0
 16 49  1  0
 17 50  1  0
 17 51  1  0
 18 52  1  0
 21 53  1  0
 21 54  1  0
 22 55  1  0
 22 56  1  0
 24 57  1  0
 24 58  1  0
 25 59  1  0
 25 60  1  0
 26 61  1  0
M  CHG  1   8   1
M  END
>  <UniqueID>  (4) 
4

>  <SMILES>  (4) 
CCN(CC)CC[NH2+]c1cc(N2CCOCC2)cc(N2CCOCC2)c1

>  <Energy>  (4) 
78.92398169993712

>  <Genealogy>  (4) 
CCN(CC)CC[NH2+]c1cc(N2CCOCC2)cc(N2CCOCC2)c1 (protonated)
CCN(CC)CC[NH2+]c1cc(N2CCOCC2)cc(N2CCOCC2)c1 (3D coordinates assigned)
CCN(CC)CC[NH2+]c1cc(N2CCOCC2)cc(N2CCOCC2)c1 (nonaromatic ring conformer: 78.92398169993712 kcal/mol)

>  <smiles>  (4) 
CCN(CC)CCNc1cc(N2CCOCC2)cc(N2CCOCC2)c1

>  <score_type>  (4) 
oracle

>  <origin>  (4) 
adg

>  <m_score__min__energy>  (4) 
-4.9199999999999999

>  <m_primary>  (4) 
energy

$$$$
4:0
     RDKit          3D

 42 43  0  0  0  0  0  0  0  0999 V2000
   58.0540   27.0820   42.7560 C   0  0  0  0  0  0  0  0  0  0  0  0
   58.4230   27.7090   44.0610 C   0  0  0  0  0  0  0  0  0  0  0  0
   59.2720   27.1480   44.9440 N   0  0  0  0  0  0  0  0  0  0  0  0
   59.3830   27.9740   45.9730 N   0  0  0  0  0  0  0  0  0  0  0  0
   60.2060   27.6850   47.1430 C   0  0  0  0  0  0  0  0  0  0  0  0
   58.6100   29.0650   45.7740 C   0  0  0  0  0  0  0  0  0  0  0  0
   58.5300   30.2420   46.7010 C   0  0  0  0  0  0  0  0  0  0  0  0
   57.9960   28.9360   44.5390 C   0  0  0  0  0  0  0  0  0  0  0  0
   56.8790   30.0470   43.7470 S   0  0  0  0  0  0  0  0  0  0  0  0
   55.9130   30.5800   44.7680 O   0  0  0  0  0  0  0  0  0  0  0  0
   56.0930   29.3320   42.6830 O   0  0  0  0  0  0  0  0  0  0  0  0
   57.7660   31.3710   43.0550 N   0  0  0  0  0  0  0  0  0  0  0  0
   58.3500   32.1890   44.1200 C   0  0  0  0  0  0  0  0  0  0  0  0
   57.4020   33.3310   44.5070 C   0  0  0  0  0  0  0  0  0  0  0  0
   58.1290   34.5590   45.0820 C   0  0  0  0  0  0  0  0  0  0  0  0
   59.0730   34.1900   46.2010 C   0  0  0  0  0  0  0  0  0  0  0  0
   58.5720   33.7940   47.4520 C   0  0  0  0  0  0  0  0  0  0  0  0
   59.4470   33.4110   48.4730 C   0  0  0  0  0  0  0  0  0  0  0  0
   60.8260   33.4160   48.2520 C   0  0  0  0  0  0  0  0  0  0  0  0
   61.3340   33.8120   47.0110 C   0  0  0  0  0  0  0  0  0  0  0  0
   60.4620   34.1990   45.9880 C   0  0  0  0  0  0  0  0  0  0  0  0
   57.5040   26.1475   42.9407 H   0  0  0  0  0  0  0  0  0  0  0  0
   57.4191   27.7740   42.1832 H   0  0  0  0  0  0  0  0  0  0  0  0
   58.9672   26.8629   42.1832 H   0  0  0  0  0  0  0  0  0  0  0  0
   59.6283   27.8879   48.0568 H   0  0  0  0  0  0  0  0  0  0  0  0
   60.5075   26.6272   47.1270 H   0  0  0  0  0  0  0  0  0  0  0  0
   61.1026   28.3221   47.1270 H   0  0  0  0  0  0  0  0  0  0  0  0
   58.5539   29.8903   47.7430 H   0  0  0  0  0  0  0  0  0  0  0  0
   59.3848   30.9102   46.5198 H   0  0  0  0  0  0  0  0  0  0  0  0
   57.5926   30.7884   46.5198 H   0  0  0  0  0  0  0  0  0  0  0  0
   58.5480   30.9570   42.4970 H   0  0  0  0  0  0  0  0  0  0  0  0
   58.5332   31.5571   45.0016 H   0  0  0  0  0  0  0  0  0  0  0  0
   59.2946   32.6205   43.7573 H   0  0  0  0  0  0  0  0  0  0  0  0
   56.8468   33.6426   43.6100 H   0  0  0  0  0  0  0  0  0  0  0  0
   56.7368   32.9484   45.2951 H   0  0  0  0  0  0  0  0  0  0  0  0
   58.7044   35.0393   44.2769 H   0  0  0  0  0  0  0  0  0  0  0  0
   57.3690   35.2404   45.4919 H   0  0  0  0  0  0  0  0  0  0  0  0
   57.4864   33.7852   47.6292 H   0  0  0  0  0  0  0  0  0  0  0  0
   59.0487   33.1053   49.4517 H   0  0  0  0  0  0  0  0  0  0  0  0
   61.5126   33.1083   49.0544 H   0  0  0  0  0  0  0  0  0  0  0  0
   62.4204   33.8192   46.8390 H   0  0  0  0  0  0  0  0  0  0  0  0
   60.8650   34.5115   45.0133 H   0  0  0  0  0  0  0  0  0  0  0  0
  1  2  1  0
  2  3  2  0
  3  4  1  0
  4  5  1  0
  4  6  1  0
  6  7  1  0
  6  8  2  0
  8  9  1  0
  9 10  2  0
  9 11  2  0
  9 12  1  0
 12 13  1  0
 13 14  1  0
 14 15  1  0
 15 16  1  0
 16 17  2  0
 17 18  1  0
 18 19  2  0
 19 20  1  0
 20 21  2  0
  8  2  1  0
 21 16  1  0
  1 22  1  0
  1 23  1  0
  1 24  1  0
  5 25  1  0
  5 26  1  0
  5 27  1  0
  7 28  1  0
  7 29  1  0
  7 30  1  0
 12 31  1  0
 13 32  1  0
 13 33  1  0
 14 34  1  0
 14 35  1  0
 15 36  1  0
 15 37  1  0
 17 38  1  0
 18 39  1  0
 19 40  1  0
 20 41  1  0
 21 42  1  0
M  END
>  <UniqueID>  (5) 
5

>  <SMILES>  (5) 
Cc1nn(C)c(C)c1S(=O)(=O)NCCCc1ccccc1

>  <Energy>  (5) 
59.55175828882746

>  <Genealogy>  (5) 
Cc1nn(C)c(C)c1S(=O)(=O)NCCCc1ccccc1 (3D coordinates assigned)
Cc1nn(C)c(C)c1S(=O)(=O)NCCCc1ccccc1 (optimized conformer: 59.55175828882746 kcal/mol)

>  <smiles>  (5) 
Cc1nn(C)c(C)c1S(=O)(=O)NCCCc1ccccc1

>  <score_type>  (5) 
oracle

>  <origin>  (5) 
adg

>  <m_score__min__energy>  (5) 
-8.0199999999999996

>  <m_primary>  (5) 
energy

$$$$
5:0
     RDKit          3D

 53 55  0  0  0  0  0  0  0  0999 V2000
   60.6840   33.4680   50.1300 C   0  0  0  0  0  0  0  0  0  0  0  0
   61.9510   32.7920   49.5860 C   0  0  0  0  0  0  0  0  0  0  0  0
   61.7030   31.7900   48.5120 N   0  0  0  0  0  0  0  0  0  0  0  0
   62.7880   31.7350   47.4970 C   0  0  0  0  0  0  0  0  0  0  0  0
   63.5450   33.0610   47.3530 C   0  0  0  0  0  0  0  0  0  0  0  0
   61.4510   30.4420   49.0900 C   0  0  0  0  0  0  0  0  0  0  0  0
   59.9620   30.2030   49.4110 C   0  0  0  0  0  0  0  0  0  0  0  0
   59.1210   30.8330   48.3840 N   0  0  0  0  0  0  0  0  0  0  0  0
   59.3350   30.2320   47.0620 C   0  0  0  0  0  0  0  0  0  0  0  0
   58.7730   31.1470   46.0070 C   0  0  0  0  0  0  0  0  0  0  0  0
   57.9560   30.6630   44.9680 C   0  0  0  0  0  0  0  0  0  0  0  0
   57.4870   31.4980   43.9850 C   0  0  0  0  0  0  0  0  0  0  0  0
   57.8030   32.8570   43.9730 C   0  0  0  0  0  0  0  0  0  0  0  0
   58.6190   33.3770   44.9910 C   0  0  0  0  0  0  0  0  0  0  0  0
   59.1250   32.5150   45.9960 C   0  0  0  0  0  0  0  0  0  0  0  0
   59.9630   33.0290   46.9950 O   0  0  0  0  0  0  0  0  0  0  0  0
   60.5060   34.3460   46.9340 C   0  0  0  0  0  0  0  0  0  0  0  0
   59.4760   35.3150   46.3520 C   0  0  0  0  0  0  0  0  0  0  0  0
   59.0160   34.8310   44.9710 C   0  0  0  0  0  0  0  0  0  0  0  0
   56.6540   30.7880   42.9880 C   0  0  0  0  0  0  0  0  0  0  0  0
   56.6960   29.3190   43.4430 C   0  0  0  0  0  0  0  0  0  0  0  0
   57.4960   29.2650   44.7570 C   0  0  0  0  0  0  0  0  0  0  0  0
   60.7056   33.4565   51.2297 H   0  0  0  0  0  0  0  0  0  0  0  0
   60.6422   34.5083   49.7750 H   0  0  0  0  0  0  0  0  0  0  0  0
   59.7966   32.9235   49.7750 H   0  0  0  0  0  0  0  0  0  0  0  0
   62.6108   33.5736   49.1812 H   0  0  0  0  0  0  0  0  0  0  0  0
   62.3998   32.2443   50.4278 H   0  0  0  0  0  0  0  0  0  0  0  0
   60.8290   32.1010   48.0250 H   0  0  0  0  0  0  0  0  0  0  0  0
   63.5038   30.9535   47.7917 H   0  0  0  0  0  0  0  0  0  0  0  0
   62.3183   31.5184   46.5262 H   0  0  0  0  0  0  0  0  0  0  0  0
   63.7743   33.4626   48.3511 H   0  0  0  0  0  0  0  0  0  0  0  0
   64.4818   32.8905   46.8023 H   0  0  0  0  0  0  0  0  0  0  0  0
   62.9219   33.7810   46.8023 H   0  0  0  0  0  0  0  0  0  0  0  0
   61.7821   29.6815   48.3675 H   0  0  0  0  0  0  0  0  0  0  0  0
   62.0103   30.3750   50.0348 H   0  0  0  0  0  0  0  0  0  0  0  0
   59.7627   29.1214   49.4324 H   0  0  0  0  0  0  0  0  0  0  0  0
   59.7278   30.6441   50.3911 H   0  0  0  0  0  0  0  0  0  0  0  0
   59.3840   31.8450   48.3200 H   0  0  0  0  0  0  0  0  0  0  0  0
   60.4126   30.0916   46.8915 H   0  0  0  0  0  0  0  0  0  0  0  0
   58.8298   29.2561   47.0129 H   0  0  0  0  0  0  0  0  0  0  0  0
   57.4184   33.5120   43.1773 H   0  0  0  0  0  0  0  0  0  0  0  0
   60.7806   34.6732   47.9477 H   0  0  0  0  0  0  0  0  0  0  0  0
   61.3964   34.3378   46.2881 H   0  0  0  0  0  0  0  0  0  0  0  0
   58.6080   35.3706   47.0254 H   0  0  0  0  0  0  0  0  0  0  0  0
   59.9356   36.3091   46.2497 H   0  0  0  0  0  0  0  0  0  0  0  0
   58.1512   35.4319   44.6530 H   0  0  0  0  0  0  0  0  0  0  0  0
   59.8565   34.9463   44.2708 H   0  0  0  0  0  0  0  0  0  0  0  0
   55.6227   31.1705   42.9972 H   0  0  0  0  0  0  0  0  0  0  0  0
   57.0198   30.9223   41.9593 H   0  0  0  0  0  0  0  0  0  0  0  0
   55.6740   28.9480   43.6099 H   0  0  0  0  0  0  0  0  0  0  0  0
   57.1685   28.6887   42.6752 H   0  0  0  0  0  0  0  0  0  0  0  0
   56.8560   28.9361   45.5890 H   0  0  0  0  0  0  0  0  0  0  0  0
   58.3318   28.5514   44.7099 H   0  0  0  0  0  0  0  0  0  0  0  0
  1  2  1  0
  2  3  1  0
  3  4  1  0
  4  5  1  0
  3  6  1  0
  6  7  1  0
  7  8  1  0
  8  9  1  0
  9 10  1  0
 10 11  2  0
 11 12  1  0
 12 13  2  0
 13 14  1  0
 14 15  2  0
 15 16  1  0
 16 17  1  0
 17 18  1  0
 18 19  1  0
 12 20  1  0
 20 21  1  0
 21 22  1  0
 15 10  1  0
 22 11  1  0
 19 14  1  0
  1 23  1  0
  1 24  1  0
  1 25  1  0
  2 26  1  0
  2 27  1  0
  3 28  1  0
  4 29  1  0
  4 30  1  0
  5 31  1  0
  5 32  1  0
  5 33  1  0
  6 34  1  0
  6 35  1  0
  7 36  1  0
  7 37  1  0
  8 38  1  0
  9 39  1  0
  9 40  1  0
 13 41  1  0
 17 42  1  0
 17 43  1  0
 18 44  1  0
 18 45  1  0
 19 46  1  0
 19 47  1  0
 20 48  1  0
 20 49  1  0
 21 50  1  0
 21 51  1  0
 22 52  1  0
 22 53  1  0
M  CHG  1   3   1
M  END
>  <UniqueID>  (6) 
6

>  <SMILES>  (6) 
CC[NH+](CC)CCNCc1c2c(cc3c1OCCC3)CCC2

>  <Energy>  (6) 
59.56527426728315

>  <Genealogy>  (6) 
CC[NH+](CC)CCNCc1c2c(cc3c1OCCC3)CCC2 (protonated)
CC[NH+](CC)CCNCc1c2c(cc3c1OCCC3)CCC2 (3D coordinates assigned)
CC[NH+](CC)CCNCc1c2c(cc3c1OCCC3)CCC2 (nonaromatic ring conformer: 59.56527426728315 kcal/mol)

>  <smiles>  (6) 
CCN(CC)CCNCc1c2c(cc3c1OCCC3)CCC2

>  <score_type>  (6) 
oracle

>  <origin>  (6) 
adg

>  <m_score__min__energy>  (6) 
-5.5

>  <m_primary>  (6) 
energy

$$$$
6:0
     RDKit          3D

 54 57  0  0  0  0  0  0  0  0999 V2000
   64.3950   33.0910   49.3770 C   0  0  0  0  0  0  0  0  0  0  0  0
   63.1700   33.8100   48.8130 C   0  0  0  0  0  0  0  0  0  0  0  0
   62.6850   33.1290   47.5900 N   0  0  0  0  0  0  0  0  0  0  0  0
   63.2620   33.7760   46.3960 C   0  0  0  0  0  0  0  0  0  0  0  0
   63.0220   31.6860   47.6110 C   0  0  0  0  0  0  0  0  0  0  0  0
   61.8160   30.8470   47.1570 C   0  0  0  0  0  0  0  0  0  0  0  0
   60.8720   30.4760   48.3220 C   0  0  0  0  0  0  0  0  0  0  0  0
   59.4870   30.9580   48.1420 N   0  0  0  0  0  0  0  0  0  0  0  0
   59.1760   31.2750   46.7630 C   0  0  0  0  0  0  0  0  0  0  0  0
   59.1840   32.6300   46.3020 C   0  0  0  0  0  0  0  0  0  0  0  0
   59.5890   33.6970   47.1410 C   0  0  0  0  0  0  0  0  0  0  0  0
   59.6370   35.0060   46.6720 C   0  0  0  0  0  0  0  0  0  0  0  0
   59.2970   35.2910   45.3580 C   0  0  0  0  0  0  0  0  0  0  0  0
   58.8820   34.2720   44.5070 C   0  0  0  0  0  0  0  0  0  0  0  0
   58.7840   32.9310   44.9570 C   0  0  0  0  0  0  0  0  0  0  0  0
   58.3260   31.9310   44.1210 N   0  0  0  0  0  0  0  0  0  0  0  0
   57.7410   32.2370   42.8010 C   0  0  0  0  0  0  0  0  0  0  0  0
   58.4260   30.6310   44.5370 C   0  0  0  0  0  0  0  0  0  0  0  0
   58.1510   29.5480   43.7770 N   0  0  0  0  0  0  0  0  0  0  0  0
   58.3550   28.4890   44.5730 C   0  0  0  0  0  0  0  0  0  0  0  0
   58.1850   27.1540   44.2050 C   0  0  0  0  0  0  0  0  0  0  0  0
   58.4400   26.1640   45.1610 C   0  0  0  0  0  0  0  0  0  0  0  0
   58.8590   26.5230   46.4540 C   0  0  0  0  0  0  0  0  0  0  0  0
   59.0290   27.8730   46.8070 C   0  0  0  0  0  0  0  0  0  0  0  0
   58.7680   28.8650   45.8390 C   0  0  0  0  0  0  0  0  0  0  0  0
   58.8290   30.2750   45.8190 C   0  0  0  0  0  0  0  0  0  0  0  0
   64.3588   33.1122   50.4762 H   0  0  0  0  0  0  0  0  0  0  0  0
   64.3993   32.0471   49.0304 H   0  0  0  0  0  0  0  0  0  0  0  0
   65.3086   33.5962   49.0304 H   0  0  0  0  0  0  0  0  0  0  0  0
   62.3705   33.8097   49.5685 H   0  0  0  0  0  0  0  0  0  0  0  0
   63.4503   34.8425   48.5574 H   0  0  0  0  0  0  0  0  0  0  0  0
   63.9640   34.5631   46.7086 H   0  0  0  0  0  0  0  0  0  0  0  0
   63.7964   33.0258   45.7946 H   0  0  0  0  0  0  0  0  0  0  0  0
   62.4558   34.2214   45.7946 H   0  0  0  0  0  0  0  0  0  0  0  0
   63.8679   31.5015   46.9325 H   0  0  0  0  0  0  0  0  0  0  0  0
   63.2910   31.3974   48.6378 H   0  0  0  0  0  0  0  0  0  0  0  0
   61.2466   31.4239   46.4134 H   0  0  0  0  0  0  0  0  0  0  0  0
   62.2055   29.9089   46.7348 H   0  0  0  0  0  0  0  0  0  0  0  0
   60.8489   29.3801   48.4145 H   0  0  0  0  0  0  0  0  0  0  0  0
   61.2676   30.9656   49.2241 H   0  0  0  0  0  0  0  0  0  0  0  0
   59.3020   31.7510   48.7760 H   0  0  0  0  0  0  0  0  0  0  0  0
   58.8220   30.2340   48.4940 H   0  0  0  0  0  0  0  0  0  0  0  0
   59.8709   33.4867   48.1832 H   0  0  0  0  0  0  0  0  0  0  0  0
   59.9459   35.8183   47.3463 H   0  0  0  0  0  0  0  0  0  0  0  0
   59.3557   36.3252   44.9880 H   0  0  0  0  0  0  0  0  0  0  0  0
   58.6248   34.5112   43.4646 H   0  0  0  0  0  0  0  0  0  0  0  0
   56.7738   32.7429   42.9370 H   0  0  0  0  0  0  0  0  0  0  0  0
   58.4229   32.8939   42.2411 H   0  0  0  0  0  0  0  0  0  0  0  0
   57.5903   31.3022   42.2411 H   0  0  0  0  0  0  0  0  0  0  0  0
   57.8710   29.5020   42.7730 H   0  0  0  0  0  0  0  0  0  0  0  0
   57.8588   26.8863   43.1892 H   0  0  0  0  0  0  0  0  0  0  0  0
   58.3123   25.1030   44.9001 H   0  0  0  0  0  0  0  0  0  0  0  0
   59.0563   25.7378   47.1987 H   0  0  0  0  0  0  0  0  0  0  0  0
   59.3593   28.1504   47.8189 H   0  0  0  0  0  0  0  0  0  0  0  0
  1  2  1  0
  2  3  1  0
  3  4  1  0
  3  5  1  0
  5  6  1  0
  6  7  1  0
  7  8  1  0
  8  9  1  0
  9 10  2  0
 10 11  1  0
 11 12  2  0
 12 13  1  0
 13 14  2  0
 14 15  1  0
 15 16  2  0
 16 17  1  0
 16 18  1  0
 18 19  1  0
 19 20  1  0
 20 21  2  0
 21 22  1  0
 22 23  2  0
 23 24  1  0
 24 25  2  0
 25 26  1  0
 26  9  1  0
 15 10  1  0
 26 18  2  0
 25 20  1  0
  1 27  1  0
  1 28  1  0
  1 29  1  0
  2 30  1  0
  2 31  1  0
  4 32  1  0
  4 33  1  0
  4 34  1  0
  5 35  1  0
  5 36  1  0
  6 37  1  0
  6 38  1  0
  7 39  1  0
  7 40  1  0
  8 41  1  0
  8 42  1  0
 11 43  1  0
 12 44  1  0
 13 45  1  0
 14 46  1  0
 17 47  1  0
 17 48  1  0
 17 49  1  0
 19 50  1  0
 21 51  1  0
 22 52  1  0
 23 53  1  0
 24 54  1  0
M  CHG  2   8   1  16   1
M  END
>  <UniqueID>  (7) 
7

>  <SMILES>  (7) 
CCN(C)CCC[NH2+]c1c2ccccc2[n+](C)c2[nH]c3ccccc3c12

>  <Energy>  (7) 
116.33966363411777

>  <Genealogy>  (7) 
CCN(C)CCC[NH2+]c1c2ccccc2[n+](C)c2[nH]c3ccccc3c12 (protonated)
CCN(C)CCC[NH2+]c1c2ccccc2[n+](C)c2[nH]c3ccccc3c12 (3D coordinates assigned)
CCN(C)CCC[NH2+]c1c2ccccc2[n+](C)c2[nH]c3ccccc3c12 (optimized conformer: 116.33966363411777 kcal/mol)

>  <smiles>  (7) 
CCN(C)CCCNc1c2ccccc2[n+](C)c2[nH]c3ccccc3c12

>  <score_type>  (7) 
oracle

>  <origin>  (7) 
adg

>  <m_score__min__energy>  (7) 
-5.2000000000000002

>  <m_primary>  (7) 
energy

$$$$
7:0
     RDKit          3D

 60 63  0  0  0  0  0  0  0  0999 V2000
   63.4090   31.1690   50.4700 C   0  0  0  0  0  0  0  0  0  0  0  0
   64.1610   31.9700   49.4100 C   0  0  0  0  0  0  0  0  0  0  0  0
   63.2070   32.7210   48.5620 N   0  0  0  0  0  0  0  0  0  0  0  0
   63.5080   32.5310   47.1240 C   0  0  0  0  0  0  0  0  0  0  0  0
   63.3460   33.8420   46.3570 C   0  0  0  0  0  0  0  0  0  0  0  0
   63.1800   34.1620   48.9190 C   0  0  0  0  0  0  0  0  0  0  0  0
   62.0860   34.4310   49.9490 C   0  0  0  0  0  0  0  0  0  0  0  0
   60.8300   34.0350   49.4360 O   0  0  0  0  0  0  0  0  0  0  0  0
   60.1790   33.1450   50.3240 C   0  0  0  0  0  0  0  0  0  0  0  0
   59.9800   31.7580   49.6890 C   0  0  0  0  0  0  0  0  0  0  0  0
   60.7340   31.5790   48.4330 N   0  0  0  0  0  0  0  0  0  0  0  0
   59.8580   31.4080   47.2890 C   0  0  0  0  0  0  0  0  0  0  0  0
   59.3970   32.4800   46.4650 C   0  0  0  0  0  0  0  0  0  0  0  0
   59.7670   33.8220   46.7100 C   0  0  0  0  0  0  0  0  0  0  0  0
   59.2590   34.8600   45.9360 C   0  0  0  0  0  0  0  0  0  0  0  0
   58.3630   34.5960   44.9090 C   0  0  0  0  0  0  0  0  0  0  0  0
   57.9910   33.2850   44.6220 C   0  0  0  0  0  0  0  0  0  0  0  0
   58.5200   32.1950   45.3560 C   0  0  0  0  0  0  0  0  0  0  0  0
   58.1900   30.8860   45.0360 N   0  0  0  0  0  0  0  0  0  0  0  0
   57.5410   30.5360   43.7610 C   0  0  0  0  0  0  0  0  0  0  0  0
   58.5500   29.9010   45.9150 C   0  0  0  0  0  0  0  0  0  0  0  0
   59.3800   30.1340   46.9860 C   0  0  0  0  0  0  0  0  0  0  0  0
   59.6260   29.0240   47.6510 O   0  0  0  0  0  0  0  0  0  0  0  0
   58.9540   28.0640   47.0560 C   0  0  0  0  0  0  0  0  0  0  0  0
   58.8970   26.7260   47.4390 C   0  0  0  0  0  0  0  0  0  0  0  0
   58.0680   25.8630   46.7020 C   0  0  0  0  0  0  0  0  0  0  0  0
   57.3090   26.3540   45.6200 C   0  0  0  0  0  0  0  0  0  0  0  0
   57.3820   27.7090   45.2480 C   0  0  0  0  0  0  0  0  0  0  0  0
   58.2470   28.5430   45.9680 C   0  0  0  0  0  0  0  0  0  0  0  0
   63.7213   31.5016   51.4709 H   0  0  0  0  0  0  0  0  0  0  0  0
   62.3272   31.3289   50.3514 H   0  0  0  0  0  0  0  0  0  0  0  0
   63.6368   30.0994   50.3514 H   0  0  0  0  0  0  0  0  0  0  0  0
   64.8419   32.6780   49.9051 H   0  0  0  0  0  0  0  0  0  0  0  0
   64.7343   31.2768   48.7769 H   0  0  0  0  0  0  0  0  0  0  0  0
   64.5436   32.1760   47.0163 H   0  0  0  0  0  0  0  0  0  0  0  0
   62.8047   31.7925   46.7116 H   0  0  0  0  0  0  0  0  0  0  0  0
   63.2433   34.6735   47.0698 H   0  0  0  0  0  0  0  0  0  0  0  0
   64.2304   34.0084   45.7244 H   0  0  0  0  0  0  0  0  0  0  0  0
   62.4477   33.7881   45.7244 H   0  0  0  0  0  0  0  0  0  0  0  0
   64.1543   34.4499   49.3406 H   0  0  0  0  0  0  0  0  0  0  0  0
   62.9727   34.7516   48.0138 H   0  0  0  0  0  0  0  0  0  0  0  0
   62.3008   33.8618   50.8655 H   0  0  0  0  0  0  0  0  0  0  0  0
   62.0602   35.5072   50.1751 H   0  0  0  0  0  0  0  0  0  0  0  0
   60.7891   33.0375   51.2330 H   0  0  0  0  0  0  0  0  0  0  0  0
   59.1887   33.5598   50.5631 H   0  0  0  0  0  0  0  0  0  0  0  0
   60.3115   30.9939   50.4075 H   0  0  0  0  0  0  0  0  0  0  0  0
   58.9118   31.6608   49.4452 H   0  0  0  0  0  0  0  0  0  0  0  0
   61.4350   32.3370   48.3060 H   0  0  0  0  0  0  0  0  0  0  0  0
   61.3060   30.7070   48.5330 H   0  0  0  0  0  0  0  0  0  0  0  0
   60.4684   34.0492   47.5264 H   0  0  0  0  0  0  0  0  0  0  0  0
   59.5689   35.8958   46.1387 H   0  0  0  0  0  0  0  0  0  0  0  0
   57.9452   35.4255   44.3196 H   0  0  0  0  0  0  0  0  0  0  0  0
   57.2735   33.0924   43.8108 H   0  0  0  0  0  0  0  0  0  0  0  0
   56.5892   30.0227   43.9628 H   0  0  0  0  0  0  0  0  0  0  0  0
   57.3482   31.4525   43.1840 H   0  0  0  0  0  0  0  0  0  0  0  0
   58.2008   29.8714   43.1840 H   0  0  0  0  0  0  0  0  0  0  0  0
   59.4834   26.3558   48.2929 H   0  0  0  0  0  0  0  0  0  0  0  0
   58.0110   24.7979   46.9710 H   0  0  0  0  0  0  0  0  0  0  0  0
   56.6530   25.6707   45.0609 H   0  0  0  0  0  0  0  0  0  0  0  0
   56.7779   28.1016   44.4167 H   0  0  0  0  0  0  0  0  0  0  0  0
  1  2  1  0
  2  3  1  0
  3  4  1  0
  4  5  1  0
  3  6  1  0
  6  7  1  0
  7  8  1  0
  8  9  1  0
  9 10  1  0
 10 11  1  0
 11 12  1  0
 12 13  2  0
 13 14  1  0
 14 15  2  0
 15 16  1  0
 16 17  2  0
 17 18  1  0
 18 19  2  0
 19 20  1  0
 19 21  1  0
 21 22  2  0
 22 23  1  0
 23 24  1  0
 24 25  2  0
 25 26  1  0
 26 27  2  0
 27 28  1  0
 28 29  2  0
 22 12  1  0
 29 24  1  0
 18 13  1  0
 29 21  1  0
  1 30  1  0
  1 31  1  0
  1 32  1  0
  2 33  1  0
  2 34  1  0
  4 35  1  0
  4 36  1  0
  5 37  1  0
  5 38  1  0
  5 39  1  0
  6 40  1  0
  6 41  1  0
  7 42  1  0
  7 43  1  0
  9 44  1  0
  9 45  1  0
 10 46  1  0
 10 47  1  0
 11 48  1  0
 11 49  1  0
 14 50  1  0
 15 51  1  0
 16 52  1  0
 17 53  1  0
 20 54  1  0
 20 55  1  0
 20 56  1  0
 25 57  1  0
 26 58  1  0
 27 59  1  0
 28 60  1  0
M  CHG  2  11   1  19   1
M  END
>  <UniqueID>  (8) 
8

>  <SMILES>  (8) 
CCN(CC)CCOCC[NH2+]c1c2ccccc2[n+](C)c2c1oc1ccccc12

>  <Energy>  (8) 
121.99771196014424

>  <Genealogy>  (8) 
CCN(CC)CCOCC[NH2+]c1c2ccccc2[n+](C)c2c1oc1ccccc12 (protonated)
CCN(CC)CCOCC[NH2+]c1c2ccccc2[n+](C)c2c1oc1ccccc12 (3D coordinates assigned)
CCN(CC)CCOCC[NH2+]c1c2ccccc2[n+](C)c2c1oc1ccccc12 (optimized conformer: 121.99771196014424 kcal/mol)

>  <smiles>  (8) 
CCN(CC)CCOCCNc1c2ccccc2[n+](C)c2c1oc1ccccc12

>  <score_type>  (8) 
oracle

>  <origin>  (8) 
adg

>  <m_score__min__energy>  (8) 
-4.4400000000000004

>  <m_primary>  (8) 
energy

$$$$
8:0
     RDKit          3D

 59 62  0  0  0  0  0  0  0  0999 V2000
   57.1020   30.9080   44.2450 C   0  0  0  0  0  0  0  0  0  0  0  0
   57.4920   32.3500   43.9160 C   0  0  0  0  0  0  0  0  0  0  0  0
   58.2020   32.9860   45.0500 N   0  0  0  0  0  0  0  0  0  0  0  0
   58.2640   34.4540   44.8680 C   0  0  0  0  0  0  0  0  0  0  0  0
   59.4260   35.0530   45.6600 C   0  0  0  0  0  0  0  0  0  0  0  0
   57.5990   32.6170   46.3580 C   0  0  0  0  0  0  0  0  0  0  0  0
   58.6800   32.0110   47.2610 C   0  0  0  0  0  0  0  0  0  0  0  0
   59.9780   31.9450   46.5640 N   0  0  0  0  0  0  0  0  0  0  0  0
   60.9920   31.3240   47.4070 C   0  0  0  0  0  0  0  0  0  0  0  0
   62.1280   32.0560   47.8200 C   0  0  0  0  0  0  0  0  0  0  0  0
   62.6460   33.1140   47.0430 C   0  0  0  0  0  0  0  0  0  0  0  0
   63.7790   33.8100   47.4570 C   0  0  0  0  0  0  0  0  0  0  0  0
   64.4220   33.4580   48.6380 C   0  0  0  0  0  0  0  0  0  0  0  0
   63.9210   32.4220   49.4260 C   0  0  0  0  0  0  0  0  0  0  0  0
   62.7520   31.7180   49.0480 C   0  0  0  0  0  0  0  0  0  0  0  0
   62.1990   30.7390   49.8480 N   0  0  0  0  0  0  0  0  0  0  0  0
   62.5700   30.6540   51.2770 C   0  0  0  0  0  0  0  0  0  0  0  0
   61.3130   29.8310   49.2990 C   0  0  0  0  0  0  0  0  0  0  0  0
   60.9270   28.6630   49.9980 C   0  0  0  0  0  0  0  0  0  0  0  0
   60.0670   27.7310   49.4280 C   0  0  0  0  0  0  0  0  0  0  0  0
   59.6640   27.8630   48.0990 C   0  0  0  0  0  0  0  0  0  0  0  0
   58.9200   26.8380   47.4950 C   0  0  0  0  0  0  0  0  0  0  0  0
   58.6390   26.8820   46.1310 C   0  0  0  0  0  0  0  0  0  0  0  0
   59.1190   27.9370   45.3470 C   0  0  0  0  0  0  0  0  0  0  0  0
   58.9130   27.9280   43.8610 C   0  0  0  0  0  0  0  0  0  0  0  0
   59.8650   28.9620   45.9480 C   0  0  0  0  0  0  0  0  0  0  0  0
   60.0700   28.9930   47.3470 C   0  0  0  0  0  0  0  0  0  0  0  0
   60.7790   30.0510   47.9980 C   0  0  0  0  0  0  0  0  0  0  0  0
   57.0668   30.7777   45.3367 H   0  0  0  0  0  0  0  0  0  0  0  0
   56.1124   30.6892   43.8175 H   0  0  0  0  0  0  0  0  0  0  0  0
   57.8464   30.2202   43.8175 H   0  0  0  0  0  0  0  0  0  0  0  0
   58.1502   32.3513   43.0347 H   0  0  0  0  0  0  0  0  0  0  0  0
   56.5738   32.9217   43.7158 H   0  0  0  0  0  0  0  0  0  0  0  0
   58.4020   34.6790   43.8002 H   0  0  0  0  0  0  0  0  0  0  0  0
   57.3248   34.8937   45.2349 H   0  0  0  0  0  0  0  0  0  0  0  0
   59.2271   34.9505   46.7370 H   0  0  0  0  0  0  0  0  0  0  0  0
   60.3551   34.5215   45.4065 H   0  0  0  0  0  0  0  0  0  0  0  0
   59.5320   36.1181   45.4065 H   0  0  0  0  0  0  0  0  0  0  0  0
   57.1814   33.5151   46.8366 H   0  0  0  0  0  0  0  0  0  0  0  0
   56.7963   31.8818   46.1996 H   0  0  0  0  0  0  0  0  0  0  0  0
   58.7869   32.6340   48.1613 H   0  0  0  0  0  0  0  0  0  0  0  0
   58.3765   30.9890   47.5320 H   0  0  0  0  0  0  0  0  0  0  0  0
   59.7970   31.3780   45.7080 H   0  0  0  0  0  0  0  0  0  0  0  0
   60.2900   32.8970   46.2660 H   0  0  0  0  0  0  0  0  0  0  0  0
   62.1501   33.3916   46.1012 H   0  0  0  0  0  0  0  0  0  0  0  0
   64.1660   34.6403   46.8480 H   0  0  0  0  0  0  0  0  0  0  0  0
   65.3278   33.9976   48.9517 H   0  0  0  0  0  0  0  0  0  0  0  0
   64.4419   32.1477   50.3552 H   0  0  0  0  0  0  0  0  0  0  0  0
   61.6851   30.8567   51.8982 H   0  0  0  0  0  0  0  0  0  0  0  0
   62.9498   29.6456   51.4979 H   0  0  0  0  0  0  0  0  0  0  0  0
   63.3510   31.3965   51.4979 H   0  0  0  0  0  0  0  0  0  0  0  0
   61.3150   28.4888   51.0125 H   0  0  0  0  0  0  0  0  0  0  0  0
   59.7023   26.8846   50.0285 H   0  0  0  0  0  0  0  0  0  0  0  0
   58.5567   25.9953   48.1015 H   0  0  0  0  0  0  0  0  0  0  0  0
   58.0380   26.0849   45.6690 H   0  0  0  0  0  0  0  0  0  0  0  0
   57.8364   27.8810   43.6404 H   0  0  0  0  0  0  0  0  0  0  0  0
   59.3366   28.8455   43.4265 H   0  0  0  0  0  0  0  0  0  0  0  0
   59.4150   27.0509   43.4265 H   0  0  0  0  0  0  0  0  0  0  0  0
   60.2978   29.7550   45.3204 H   0  0  0  0  0  0  0  0  0  0  0  0
  1  2  1  0
  2  3  1  0
  3  4  1  0
  4  5  1  0
  3  6  1  0
  6  7  1  0
  7  8  1  0
  8  9  1  0
  9 10  2  0
 10 11  1  0
 11 12  2  0
 12 13  1  0
 13 14  2  0
 14 15  1  0
 15 16  2  0
 16 17  1  0
 16 18  1  0
 18 19  2  0
 19 20  1  0
 20 21  2  0
 21 22  1  0
 22 23  2  0
 23 24  1  0
 24 25  1  0
 24 26  2  0
 26 27  1  0
 27 28  2  0
 28  9  1  0
 15 10  1  0
 28 18  1  0
 27 21  1  0
  1 29  1  0
  1 30  1  0
  1 31  1  0
  2 32  1  0
  2 33  1  0
  4 34  1  0
  4 35  1  0
  5 36  1  0
  5 37  1  0
  5 38  1  0
  6 39  1  0
  6 40  1  0
  7 41  1  0
  7 42  1  0
  8 43  1  0
  8 44  1  0
 11 45  1  0
 12 46  1  0
 13 47  1  0
 14 48  1  0
 17 49  1  0
 17 50  1  0
 17 51  1  0
 19 52  1  0
 20 53  1  0
 22 54  1  0
 23 55  1  0
 25 56  1  0
 25 57  1  0
 25 58  1  0
 26 59  1  0
M  CHG  2   8   1  16   1
M  END
>  <UniqueID>  (9) 
9

>  <SMILES>  (9) 
CCN(CC)CC[NH2+]c1c2ccccc2[n+](C)c2ccc3ccc(C)cc3c12

>  <Energy>  (9) 
106.15578307541672

>  <Genealogy>  (9) 
CCN(CC)CC[NH2+]c1c2ccccc2[n+](C)c2ccc3ccc(C)cc3c12 (protonated)
CCN(CC)CC[NH2+]c1c2ccccc2[n+](C)c2ccc3ccc(C)cc3c12 (3D coordinates assigned)
CCN(CC)CC[NH2+]c1c2ccccc2[n+](C)c2ccc3ccc(C)cc3c12 (optimized conformer: 106.15578307541672 kcal/mol)

>  <smiles>  (9) 
CCN(CC)CCNc1c2ccccc2[n+](C)c2ccc3ccc(C)cc3c12

>  <score_type>  (9) 
oracle

>  <origin>  (9) 
adg

>  <m_score__min__energy>  (9) 
-5.0199999999999996

>  <m_primary>  (9) 
energy

$$$$
9:0
     RDKit          3D

 41 44  0  0  1  0  0  0  0  0999 V2000
   54.0050   24.4520   45.6110 C   0  0  0  0  0  0  0  0  0  0  0  0
   55.1770   25.2120   45.9510 N   0  0  0  0  0  0  0  0  0  0  0  0
   56.4040   24.4370   45.9090 C   0  0  0  0  0  0  0  0  0  0  0  0
   57.4000   25.0080   44.9120 C   0  0  0  0  0  0  0  0  0  0  0  0
   58.3250   25.9220   45.5630 N   0  0  0  0  0  0  0  0  0  0  0  0
   58.0600   27.3180   45.4970 C   0  0  0  0  0  0  0  0  0  0  0  0
   58.3260   28.1890   46.5320 C   0  0  0  0  0  0  0  0  0  0  0  0
   58.0320   29.5280   46.3800 C   0  0  0  0  0  0  0  0  0  0  0  0
   58.2490   30.4160   47.2840 N   0  0  0  0  0  0  0  0  0  0  0  0
   59.2790   31.3660   47.0730 C   0  0  0  0  0  0  0  0  0  0  0  0
   59.0820   32.6310   46.5770 C   0  0  0  0  0  0  0  0  0  0  0  0
   60.0620   33.5650   46.3750 C   0  0  0  0  0  0  0  0  0  0  0  0
   61.3900   33.2380   46.6890 C   0  0  0  0  0  0  0  0  0  0  0  0
   62.4600   33.9390   46.5870 N   0  0  0  0  0  0  0  0  0  0  0  0
   63.6370   33.6410   46.8690 C   0  0  0  0  0  0  0  0  0  0  0  0
   63.3800   31.8430   47.4960 S   0  0  0  0  0  0  0  0  0  0  0  0
   61.5590   31.9230   47.1990 C   0  0  0  0  0  0  0  0  0  0  0  0
   60.5880   31.0260   47.3900 C   0  0  0  0  0  0  0  0  0  0  0  0
   57.4870   29.9660   45.2170 N   0  0  0  0  0  0  0  0  0  0  0  0
   57.1220   31.1860   44.8420 N   0  0  0  0  0  0  0  0  0  0  0  0
   56.6370   31.0780   43.5980 C   0  0  0  0  0  0  0  0  0  0  0  0
   56.6960   29.7690   43.1780 C   0  0  0  0  0  0  0  0  0  0  0  0
   57.2470   29.0740   44.2380 C   0  0  0  0  0  0  0  0  0  0  0  0
   57.5140   27.7640   44.3390 N   0  0  0  0  0  0  0  0  0  0  0  0
   53.5003   24.1247   46.5320 H   0  0  0  0  0  0  0  0  0  0  0  0
   53.3203   25.0785   45.0204 H   0  0  0  0  0  0  0  0  0  0  0  0
   54.2976   23.5713   45.0204 H   0  0  0  0  0  0  0  0  0  0  0  0
   55.2770   25.9780   45.2480 H   0  0  0  0  0  0  0  0  0  0  0  0
   56.8609   24.4395   46.9096 H   0  0  0  0  0  0  0  0  0  0  0  0
   56.1513   23.4145   45.5917 H   0  0  0  0  0  0  0  0  0  0  0  0
   57.9690   24.1825   44.4594 H   0  0  0  0  0  0  0  0  0  0  0  0
   56.8447   25.5623   44.1410 H   0  0  0  0  0  0  0  0  0  0  0  0
   59.1760   25.5830   46.0740 H   0  0  0  0  0  0  0  0  0  0  0  0
   58.7681   27.8200   47.4692 H   0  0  0  0  0  0  0  0  0  0  0  0
   58.0514   32.9176   46.3208 H   0  0  0  0  0  0  0  0  0  0  0  0
   59.8121   34.5577   45.9723 H   0  0  0  0  0  0  0  0  0  0  0  0
   64.5581   34.2362   46.7835 H   0  0  0  0  0  0  0  0  0  0  0  0
   60.8221   30.0298   47.7935 H   0  0  0  0  0  0  0  0  0  0  0  0
   56.2479   31.9146   42.9990 H   0  0  0  0  0  0  0  0  0  0  0  0
   56.3740   29.3631   42.2076 H   0  0  0  0  0  0  0  0  0  0  0  0
   57.3030   27.1320   43.5400 H   0  0  0  0  0  0  0  0  0  0  0  0
  1  2  1  0
  2  3  1  0
  3  4  1  0
  4  5  1  0
  5  6  1  0
  6  7  2  0
  7  8  1  0
  8  9  2  0
  9 10  1  0
 10 11  2  0
 11 12  1  0
 12 13  2  0
 13 14  1  0
 14 15  2  0
 15 16  1  0
 16 17  1  0
 17 18  2  0
  8 19  1  0
 19 20  1  0
 20 21  2  0
 21 22  1  0
 22 23  2  0
 23 24  1  0
 24  6  1  0
 18 10  1  0
 23 19  1  0
 17 13  1  0
  1 25  1  0
  1 26  1  0
  1 27  1  0
  2 28  1  0
  3 29  1  0
  3 30  1  0
  4 31  1  0
  4 32  1  0
  5 33  1  0
  7 34  1  0
 11 35  1  0
 12 36  1  0
 15 37  1  0
 18 38  1  0
 21 39  1  0
 22 40  1  0
 24 41  1  0
M  END
>  <smiles>  (10) 
CNCCNc1cc(=Nc2ccc3ncsc3c2)n2nccc2[nH]1

>  <score_type>  (10) 
oracle

>  <origin>  (10) 
adg

>  <m_score__min__energy>  (10) 
-7.5

>  <m_primary>  (10) 
energy

$$$$
10:0
     RDKit          3D

 50 52  0  0  0  0  0  0  0  0999 V2000
   63.5980   32.0180   49.4470 C   0  0  0  0  0  0  0  0  0  0  0  0
   63.2990   31.8070   47.9640 C   0  0  0  0  0  0  0  0  0  0  0  0
   64.1050   32.7130   47.1300 N   0  0  0  0  0  0  0  0  0  0  0  0
   63.2880   33.8020   46.5470 C   0  0  0  0  0  0  0  0  0  0  0  0
   61.8500   33.8290   47.0980 C   0  0  0  0  0  0  0  0  0  0  0  0
   60.8120   34.1800   46.0200 C   0  0  0  0  0  0  0  0  0  0  0  0
   59.6410   34.9930   46.5910 C   0  0  0  0  0  0  0  0  0  0  0  0
   58.4670   34.1470   46.8240 N   0  0  0  0  0  0  0  0  0  0  0  0
   58.5450   32.7090   46.8260 C   0  0  0  0  0  0  0  0  0  0  0  0
   58.9270   32.0240   47.9950 C   0  0  0  0  0  0  0  0  0  0  0  0
   59.2630   32.7300   49.1720 C   0  0  0  0  0  0  0  0  0  0  0  0
   59.5510   32.0510   50.3530 C   0  0  0  0  0  0  0  0  0  0  0  0
   59.4980   30.6650   50.3900 C   0  0  0  0  0  0  0  0  0  0  0  0
   59.1900   29.9440   49.2370 C   0  0  0  0  0  0  0  0  0  0  0  0
   58.9360   30.6030   48.0040 C   0  0  0  0  0  0  0  0  0  0  0  0
   58.6800   29.8970   46.8430 N   0  0  0  0  0  0  0  0  0  0  0  0
   58.9590   28.4440   46.7850 C   0  0  0  0  0  0  0  0  0  0  0  0
   58.2060   30.5540   45.7230 C   0  0  0  0  0  0  0  0  0  0  0  0
   57.7170   29.8470   44.5940 C   0  0  0  0  0  0  0  0  0  0  0  0
   57.3330   30.5180   43.4330 C   0  0  0  0  0  0  0  0  0  0  0  0
   57.4220   31.9020   43.3660 C   0  0  0  0  0  0  0  0  0  0  0  0
   57.8470   32.6280   44.4750 C   0  0  0  0  0  0  0  0  0  0  0  0
   58.1920   31.9740   45.6790 C   0  0  0  0  0  0  0  0  0  0  0  0
   62.8471   31.4881   50.0514 H   0  0  0  0  0  0  0  0  0  0  0  0
   64.5990   31.6251   49.6788 H   0  0  0  0  0  0  0  0  0  0  0  0
   63.5633   33.0927   49.6788 H   0  0  0  0  0  0  0  0  0  0  0  0
   63.5325   30.7665   47.6943 H   0  0  0  0  0  0  0  0  0  0  0  0
   62.2347   32.0211   47.7869 H   0  0  0  0  0  0  0  0  0  0  0  0
   64.5220   32.1530   46.3490 H   0  0  0  0  0  0  0  0  0  0  0  0
   64.8980   33.0960   47.6950 H   0  0  0  0  0  0  0  0  0  0  0  0
   63.7701   34.7640   46.7753 H   0  0  0  0  0  0  0  0  0  0  0  0
   63.2244   33.6248   45.4632 H   0  0  0  0  0  0  0  0  0  0  0  0
   61.6108   32.8367   47.5079 H   0  0  0  0  0  0  0  0  0  0  0  0
   61.8038   34.6089   47.8724 H   0  0  0  0  0  0  0  0  0  0  0  0
   61.3036   34.7704   45.2327 H   0  0  0  0  0  0  0  0  0  0  0  0
   60.4080   33.2389   45.6185 H   0  0  0  0  0  0  0  0  0  0  0  0
   59.9508   35.4460   47.5443 H   0  0  0  0  0  0  0  0  0  0  0  0
   59.3693   35.7693   45.8605 H   0  0  0  0  0  0  0  0  0  0  0  0
   57.5260   34.5950   46.7570 H   0  0  0  0  0  0  0  0  0  0  0  0
   59.2975   33.8293   49.1551 H   0  0  0  0  0  0  0  0  0  0  0  0
   59.8210   32.6144   51.2583 H   0  0  0  0  0  0  0  0  0  0  0  0
   59.6996   30.1334   51.3317 H   0  0  0  0  0  0  0  0  0  0  0  0
   59.1428   28.8460   49.2827 H   0  0  0  0  0  0  0  0  0  0  0  0
   59.0357   28.0443   47.8069 H   0  0  0  0  0  0  0  0  0  0  0  0
   58.1422   27.9348   46.2525 H   0  0  0  0  0  0  0  0  0  0  0  0
   59.9063   28.2735   46.2525 H   0  0  0  0  0  0  0  0  0  0  0  0
   57.6394   28.7505   44.6351 H   0  0  0  0  0  0  0  0  0  0  0  0
   56.9589   29.9496   42.5687 H   0  0  0  0  0  0  0  0  0  0  0  0
   57.1564   32.4253   42.4356 H   0  0  0  0  0  0  0  0  0  0  0  0
   57.9151   33.7242   44.4133 H   0  0  0  0  0  0  0  0  0  0  0  0
  1  2  1  0
  2  3  1  0
  3  4  1  0
  4  5  1  0
  5  6  1  0
  6  7  1  0
  7  8  1  0
  8  9  1  0
  9 10  2  0
 10 11  1  0
 11 12  2  0
 12 13  1  0
 13 14  2  0
 14 15  1  0
 15 16  2  0
 16 17  1  0
 16 18  1  0
 18 19  2  0
 19 20  1  0
 20 21  2  0
 21 22  1  0
 22 23  2  0
 23  9  1  0
 15 10  1  0
 23 18  1  0
  1 24  1  0
  1 25  1  0
  1 26  1  0
  2 27  1  0
  2 28  1  0
  3 29  1  0
  3 30  1  0
  4 31  1  0
  4 32  1  0
  5 33  1  0
  5 34  1  0
  6 35  1  0
  6 36  1  0
  7 37  1  0
  7 38  1  0
  8 39  1  0
 11 40  1  0
 12 41  1  0
 13 42  1  0
 14 43  1  0
 17 44  1  0
 17 45  1  0
 17 46  1  0
 19 47  1  0
 20 48  1  0
 21 49  1  0
 22 50  1  0
M  CHG  2   3   1  16   1
M  END
>  <UniqueID>  (11) 
10

>  <SMILES>  (11) 
CC[NH2+]CCCCNc1c2ccccc2[n+](C)c2ccccc12

>  <Energy>  (11) 
71.46198826078391

>  <Genealogy>  (11) 
CC[NH2+]CCCCNc1c2ccccc2[n+](C)c2ccccc12 (protonated)
CC[NH2+]CCCCNc1c2ccccc2[n+](C)c2ccccc12 (3D coordinates assigned)
CC[NH2+]CCCCNc1c2ccccc2[n+](C)c2ccccc12 (optimized conformer: 71.46198826078391 kcal/mol)

>  <smiles>  (11) 
CCNCCCCNc1c2ccccc2[n+](C)c2ccccc12

>  <score_type>  (11) 
oracle

>  <origin>  (11) 
adg

>  <m_score__min__energy>  (11) 
-4.5999999999999996

>  <m_primary>  (11) 
energy

$$$$
11:0
     RDKit          3D

 44 46  0  0  0  0  0  0  0  0999 V2000
   57.6070   31.9560   41.8150 C   0  0  0  0  0  0  0  0  0  0  0  0
   56.9820   30.9540   42.7750 C   0  0  0  0  0  0  0  0  0  0  0  0
   57.7510   30.8960   44.0200 N   0  0  0  0  0  0  0  0  0  0  0  0
   58.0970   31.9270   44.8370 C   0  0  0  0  0  0  0  0  0  0  0  0
   57.5780   33.6310   44.6060 S   0  0  0  0  0  0  0  0  0  0  0  0
   57.9240   34.1740   46.3220 C   0  0  0  0  0  0  0  0  0  0  0  0
   59.3000   34.8290   46.4690 C   0  0  0  0  0  0  0  0  0  0  0  0
   60.3080   33.9260   46.0200 O   0  0  0  0  0  0  0  0  0  0  0  0
   61.3760   33.4150   46.7780 C   0  0  0  0  0  0  0  0  0  0  0  0
   62.6610   33.8360   46.4130 C   0  0  0  0  0  0  0  0  0  0  0  0
   63.7840   33.4090   47.1210 C   0  0  0  0  0  0  0  0  0  0  0  0
   63.6370   32.5430   48.2010 C   0  0  0  0  0  0  0  0  0  0  0  0
   62.3670   32.0970   48.5740 C   0  0  0  0  0  0  0  0  0  0  0  0
   61.2210   32.5200   47.8680 C   0  0  0  0  0  0  0  0  0  0  0  0
   59.9430   32.0630   48.2260 O   0  0  0  0  0  0  0  0  0  0  0  0
   59.2240   32.4760   49.3830 C   0  0  0  0  0  0  0  0  0  0  0  0
   58.8890   31.5380   45.8660 N   0  0  0  0  0  0  0  0  0  0  0  0
   59.0400   30.2160   45.6850 C   0  0  0  0  0  0  0  0  0  0  0  0
   59.7520   29.3160   46.4740 C   0  0  0  0  0  0  0  0  0  0  0  0
   59.7560   27.9650   46.0790 C   0  0  0  0  0  0  0  0  0  0  0  0
   59.0600   27.5560   44.9180 C   0  0  0  0  0  0  0  0  0  0  0  0
   58.3500   28.4930   44.1430 C   0  0  0  0  0  0  0  0  0  0  0  0
   58.3590   29.8240   44.5670 C   0  0  0  0  0  0  0  0  0  0  0  0
   58.1038   32.7525   42.3885 H   0  0  0  0  0  0  0  0  0  0  0  0
   58.3465   31.4445   41.1813 H   0  0  0  0  0  0  0  0  0  0  0  0
   56.8224   32.3952   41.1813 H   0  0  0  0  0  0  0  0  0  0  0  0
   55.9501   31.2617   42.9997 H   0  0  0  0  0  0  0  0  0  0  0  0
   56.9846   29.9591   42.3059 H   0  0  0  0  0  0  0  0  0  0  0  0
   57.1547   34.9003   46.6230 H   0  0  0  0  0  0  0  0  0  0  0  0
   57.9120   33.2795   46.9621 H   0  0  0  0  0  0  0  0  0  0  0  0
   59.3351   35.7474   45.8646 H   0  0  0  0  0  0  0  0  0  0  0  0
   59.4759   35.0780   47.5259 H   0  0  0  0  0  0  0  0  0  0  0  0
   62.7862   34.5133   45.5554 H   0  0  0  0  0  0  0  0  0  0  0  0
   64.7853   33.7562   46.8263 H   0  0  0  0  0  0  0  0  0  0  0  0
   64.5226   32.2093   48.7617 H   0  0  0  0  0  0  0  0  0  0  0  0
   62.2593   31.4096   49.4260 H   0  0  0  0  0  0  0  0  0  0  0  0
   59.7698   32.1625   50.2852 H   0  0  0  0  0  0  0  0  0  0  0  0
   59.1207   33.5711   49.3790 H   0  0  0  0  0  0  0  0  0  0  0  0
   58.2260   32.0135   49.3790 H   0  0  0  0  0  0  0  0  0  0  0  0
   59.2810   32.1300   46.6310 H   0  0  0  0  0  0  0  0  0  0  0  0
   60.2915   29.6487   47.3730 H   0  0  0  0  0  0  0  0  0  0  0  0
   60.3042   27.2224   46.6774 H   0  0  0  0  0  0  0  0  0  0  0  0
   59.0733   26.4978   44.6180 H   0  0  0  0  0  0  0  0  0  0  0  0
   57.8076   28.1878   43.2360 H   0  0  0  0  0  0  0  0  0  0  0  0
  1  2  1  0
  2  3  1  0
  3  4  1  0
  4  5  1  0
  5  6  1  0
  6  7  1  0
  7  8  1  0
  8  9  1  0
  9 10  2  0
 10 11  1  0
 11 12  2  0
 12 13  1  0
 13 14  2  0
 14 15  1  0
 15 16  1  0
  4 17  2  0
 17 18  1  0
 18 19  2  0
 19 20  1  0
 20 21  2  0
 21 22  1  0
 22 23  2  0
 23  3  1  0
 14  9  1  0
 23 18  1  0
  1 24  1  0
  1 25  1  0
  1 26  1  0
  2 27  1  0
  2 28  1  0
  6 29  1  0
  6 30  1  0
  7 31  1  0
  7 32  1  0
 10 33  1  0
 11 34  1  0
 12 35  1  0
 13 36  1  0
 16 37  1  0
 16 38  1  0
 16 39  1  0
 17 40  1  0
 19 41  1  0
 20 42  1  0
 21 43  1  0
 22 44  1  0
M  CHG  1  17   1
M  END
>  <UniqueID>  (12) 
11

>  <SMILES>  (12) 
CCn1c(SCCOc2ccccc2OC)[nH+]c2ccccc21

>  <Energy>  (12) 
75.91574050979602

>  <Genealogy>  (12) 
CCn1c(SCCOc2ccccc2OC)[nH+]c2ccccc21 (protonated)
CCn1c(SCCOc2ccccc2OC)[nH+]c2ccccc21 (3D coordinates assigned)
CCn1c(SCCOc2ccccc2OC)[nH+]c2ccccc21 (optimized conformer: 75.91574050979602 kcal/mol)

>  <smiles>  (12) 
CCn1c(SCCOc2ccccc2OC)nc2ccccc21

>  <score_type>  (12) 
oracle

>  <origin>  (12) 
adg

>  <m_score__min__energy>  (12) 
-5.71

>  <m_primary>  (12) 
energy

$$$$
12:0
     RDKit          3D

 40 41  0  0  0  0  0  0  0  0999 V2000
   57.7840   27.8510   44.0580 C   0  0  0  0  0  0  0  0  0  0  0  0
   56.9760   28.0390   45.3450 C   0  0  0  0  0  0  0  0  0  0  0  0
   55.9050   29.0410   45.1900 N   0  0  0  0  0  0  0  0  0  0  0  0
   55.9350   29.7520   43.8990 C   0  0  0  0  0  0  0  0  0  0  0  0
   56.7610   31.0490   43.9420 C   0  0  0  0  0  0  0  0  0  0  0  0
   57.1010   31.4060   45.2820 O   0  0  0  0  0  0  0  0  0  0  0  0
   58.0400   32.3800   45.6580 C   0  0  0  0  0  0  0  0  0  0  0  0
   57.8210   33.7520   45.4300 C   0  0  0  0  0  0  0  0  0  0  0  0
   58.7670   34.6960   45.8380 C   0  0  0  0  0  0  0  0  0  0  0  0
   59.9350   34.2840   46.4800 C   0  0  0  0  0  0  0  0  0  0  0  0
   60.1640   32.9270   46.7120 C   0  0  0  0  0  0  0  0  0  0  0  0
   59.2280   31.9650   46.2970 C   0  0  0  0  0  0  0  0  0  0  0  0
   59.4700   30.5320   46.5880 C   0  0  0  0  0  0  0  0  0  0  0  0
   60.1830   29.7290   45.6840 C   0  0  0  0  0  0  0  0  0  0  0  0
   60.3750   28.3700   45.9440 C   0  0  0  0  0  0  0  0  0  0  0  0
   59.8510   27.7920   47.1090 C   0  0  0  0  0  0  0  0  0  0  0  0
   60.0840   26.3390   47.4040 C   0  0  0  0  0  0  0  0  0  0  0  0
   59.1650   28.5980   48.0300 C   0  0  0  0  0  0  0  0  0  0  0  0
   58.9730   29.9570   47.7700 C   0  0  0  0  0  0  0  0  0  0  0  0
   58.8265   27.6084   44.3117 H   0  0  0  0  0  0  0  0  0  0  0  0
   57.3494   27.0300   43.4689 H   0  0  0  0  0  0  0  0  0  0  0  0
   57.7565   28.7795   43.4689 H   0  0  0  0  0  0  0  0  0  0  0  0
   56.5225   27.0760   45.6222 H   0  0  0  0  0  0  0  0  0  0  0  0
   57.6632   28.3978   46.1254 H   0  0  0  0  0  0  0  0  0  0  0  0
   55.8820   29.7220   45.9840 H   0  0  0  0  0  0  0  0  0  0  0  0
   56.3716   29.0841   43.1418 H   0  0  0  0  0  0  0  0  0  0  0  0
   54.8994   30.0312   43.6548 H   0  0  0  0  0  0  0  0  0  0  0  0
   57.6860   30.9035   43.3647 H   0  0  0  0  0  0  0  0  0  0  0  0
   56.1552   31.8597   43.5109 H   0  0  0  0  0  0  0  0  0  0  0  0
   56.8999   34.0827   44.9278 H   0  0  0  0  0  0  0  0  0  0  0  0
   58.5904   35.7658   45.6527 H   0  0  0  0  0  0  0  0  0  0  0  0
   60.6763   35.0295   46.8037 H   0  0  0  0  0  0  0  0  0  0  0  0
   61.0842   32.6083   47.2236 H   0  0  0  0  0  0  0  0  0  0  0  0
   60.5932   30.1728   44.7649 H   0  0  0  0  0  0  0  0  0  0  0  0
   60.9397   27.7506   45.2317 H   0  0  0  0  0  0  0  0  0  0  0  0
   60.1086   26.1853   48.4929 H   0  0  0  0  0  0  0  0  0  0  0  0
   59.2702   25.7412   46.9676 H   0  0  0  0  0  0  0  0  0  0  0  0
   61.0439   26.0256   46.9676 H   0  0  0  0  0  0  0  0  0  0  0  0
   58.7768   28.1580   48.9605 H   0  0  0  0  0  0  0  0  0  0  0  0
   58.4295   30.5808   48.4949 H   0  0  0  0  0  0  0  0  0  0  0  0
  1  2  1  0
  2  3  1  0
  3  4  1  0
  4  5  1  0
  5  6  1  0
  6  7  1  0
  7  8  2  0
  8  9  1  0
  9 10  2  0
 10 11  1  0
 11 12  2  0
 12 13  1  0
 13 14  2  0
 14 15  1  0
 15 16  2  0
 16 17  1  0
 16 18  1  0
 18 19  2  0
 12  7  1  0
 19 13  1  0
  1 20  1  0
  1 21  1  0
  1 22  1  0
  2 23  1  0
  2 24  1  0
  3 25  1  0
  4 26  1  0
  4 27  1  0
  5 28  1  0
  5 29  1  0
  8 30  1  0
  9 31  1  0
 10 32  1  0
 11 33  1  0
 14 34  1  0
 15 35  1  0
 17 36  1  0
 17 37  1  0
 17 38  1  0
 18 39  1  0
 19 40  1  0
M  END
>  <UniqueID>  (13) 
12

>  <SMILES>  (13) 
CCNCCOc1ccccc1-c1ccc(C)cc1

>  <Energy>  (13) 
43.473793122513044

>  <Genealogy>  (13) 
CCNCCOc1ccccc1-c1ccc(C)cc1 (3D coordinates assigned)
CCNCCOc1ccccc1-c1ccc(C)cc1 (optimized conformer: 43.473793122513044 kcal/mol)

>  <smiles>  (13) 
CCNCCOc1ccccc1-c1ccc(C)cc1

>  <score_type>  (13) 
oracle

>  <origin>  (13) 
adg

>  <m_score__min__energy>  (13) 
-6.9299999999999997

>  <m_primary>  (13) 
energy

$$$$
13:0
     RDKit          3D

 43 44  0  0  0  0  0  0  0  0999 V2000
   62.8300   32.9560   47.1170 C   0  0  0  0  0  0  0  0  0  0  0  0
   61.6410   33.8300   46.7180 C   0  0  0  0  0  0  0  0  0  0  0  0
   60.4620   33.5020   47.5340 N   0  0  0  0  0  0  0  0  0  0  0  0
   59.2560   33.1210   47.0230 C   0  0  0  0  0  0  0  0  0  0  0  0
   58.8860   33.2510   45.6430 N   0  0  0  0  0  0  0  0  0  0  0  0
   58.4940   34.5740   45.1560 C   0  0  0  0  0  0  0  0  0  0  0  0
   58.5400   32.0530   44.8700 C   0  0  0  0  0  0  0  0  0  0  0  0
   57.0270   31.9690   44.6420 C   0  0  0  0  0  0  0  0  0  0  0  0
   56.5250   30.5930   44.8550 N   0  0  0  0  0  0  0  0  0  0  0  0
   55.9310   30.0710   43.6130 C   0  0  0  0  0  0  0  0  0  0  0  0
   57.6090   29.6930   45.2880 C   0  0  0  0  0  0  0  0  0  0  0  0
   58.1590   32.6790   48.2320 S   0  0  0  0  0  0  0  0  0  0  0  0
   59.2660   32.9820   49.4600 C   0  0  0  0  0  0  0  0  0  0  0  0
   59.1090   32.8530   50.8420 C   0  0  0  0  0  0  0  0  0  0  0  0
   57.8190   32.3730   51.4410 C   0  0  0  0  0  0  0  0  0  0  0  0
   60.2010   33.2110   51.6520 C   0  0  0  0  0  0  0  0  0  0  0  0
   61.3910   33.6740   51.0620 C   0  0  0  0  0  0  0  0  0  0  0  0
   61.5010   33.7830   49.7050 N   0  0  0  0  0  0  0  0  0  0  0  0
   60.4540   33.4340   48.9010 C   0  0  0  0  0  0  0  0  0  0  0  0
   62.8971   32.9067   48.2138 H   0  0  0  0  0  0  0  0  0  0  0  0
   62.6923   31.9425   46.7121 H   0  0  0  0  0  0  0  0  0  0  0  0
   63.7562   33.3899   46.7121 H   0  0  0  0  0  0  0  0  0  0  0  0
   61.9027   34.8877   46.8692 H   0  0  0  0  0  0  0  0  0  0  0  0
   61.4033   33.6449   45.6600 H   0  0  0  0  0  0  0  0  0  0  0  0
   58.2977   35.2365   46.0119 H   0  0  0  0  0  0  0  0  0  0  0  0
   59.3059   34.9952   44.5450 H   0  0  0  0  0  0  0  0  0  0  0  0
   57.5837   34.4849   44.5450 H   0  0  0  0  0  0  0  0  0  0  0  0
   59.0496   32.0930   43.8960 H   0  0  0  0  0  0  0  0  0  0  0  0
   58.8607   31.1651   45.4345 H   0  0  0  0  0  0  0  0  0  0  0  0
   56.5209   32.6475   45.3445 H   0  0  0  0  0  0  0  0  0  0  0  0
   56.8169   32.2573   43.6015 H   0  0  0  0  0  0  0  0  0  0  0  0
   55.1259   29.3635   43.8607 H   0  0  0  0  0  0  0  0  0  0  0  0
   55.5188   30.9044   43.0252 H   0  0  0  0  0  0  0  0  0  0  0  0
   56.7045   29.5551   43.0252 H   0  0  0  0  0  0  0  0  0  0  0  0
   57.6443   29.6637   46.3870 H   0  0  0  0  0  0  0  0  0  0  0  0
   57.4221   28.6808   44.9000 H   0  0  0  0  0  0  0  0  0  0  0  0
   58.5696   30.0628   44.9000 H   0  0  0  0  0  0  0  0  0  0  0  0
   57.8918   32.4001   52.5383 H   0  0  0  0  0  0  0  0  0  0  0  0
   56.9968   33.0254   51.1118 H   0  0  0  0  0  0  0  0  0  0  0  0
   57.6232   31.3418   51.1118 H   0  0  0  0  0  0  0  0  0  0  0  0
   60.1248   33.1291   52.7463 H   0  0  0  0  0  0  0  0  0  0  0  0
   62.2426   33.9514   51.7007 H   0  0  0  0  0  0  0  0  0  0  0  0
   62.3910   34.1510   49.3070 H   0  0  0  0  0  0  0  0  0  0  0  0
  1  2  1  0
  2  3  1  0
  3  4  2  0
  4  5  1  0
  5  6  1  0
  5  7  1  0
  7  8  1  0
  8  9  1  0
  9 10  1  0
  9 11  1  0
  4 12  1  0
 12 13  1  0
 13 14  2  0
 14 15  1  0
 14 16  1  0
 16 17  2  0
 17 18  1  0
 18 19  2  0
 19  3  1  0
 19 13  1  0
  1 20  1  0
  1 21  1  0
  1 22  1  0
  2 23  1  0
  2 24  1  0
  6 25  1  0
  6 26  1  0
  6 27  1  0
  7 28  1  0
  7 29  1  0
  8 30  1  0
  8 31  1  0
 10 32  1  0
 10 33  1  0
 10 34  1  0
 11 35  1  0
 11 36  1  0
 11 37  1  0
 15 38  1  0
 15 39  1  0
 15 40  1  0
 16 41  1  0
 17 42  1  0
 18 43  1  0
M  CHG  2   3   1  18   1
M  END
>  <UniqueID>  (14) 
13

>  <SMILES>  (14) 
CC[n+]1c(N(C)CCN(C)C)sc2c(C)cc[nH+]c21

>  <Energy>  (14) 
77.38657434809927

>  <Genealogy>  (14) 
CC[n+]1c(N(C)CCN(C)C)sc2c(C)cc[nH+]c21 (protonated)
CC[n+]1c(N(C)CCN(C)C)sc2c(C)cc[nH+]c21 (3D coordinates assigned)
CC[n+]1c(N(C)CCN(C)C)sc2c(C)cc[nH+]c21 (optimized conformer: 77.38657434809927 kcal/mol)

>  <smiles>  (14) 
CC[n+]1c(N(C)CCN(C)C)sc2c(C)ccnc21

>  <score_type>  (14) 
oracle

>  <origin>  (14) 
adg

>  <m_score__min__energy>  (14) 
-3.2200000000000002

>  <m_primary>  (14) 
energy

$$$$
14:0
     RDKit          3D

 40 41  0  0  0  0  0  0  0  0999 V2000
   62.1950   32.3020   47.1860 C   0  0  0  0  0  0  0  0  0  0  0  0
   61.8840   33.7890   47.3290 C   0  0  0  0  0  0  0  0  0  0  0  0
   60.7810   34.2200   46.3500 C   0  0  0  0  0  0  0  0  0  0  0  0
   59.6460   34.9880   47.0410 C   0  0  0  0  0  0  0  0  0  0  0  0
   58.2630   34.3970   46.7450 C   0  0  0  0  0  0  0  0  0  0  0  0
   58.3640   32.9510   46.5740 N   0  0  0  0  0  0  0  0  0  0  0  0
   58.6710   32.0240   47.5160 C   0  0  0  0  0  0  0  0  0  0  0  0
   58.7590   30.7600   47.0150 N   0  0  0  0  0  0  0  0  0  0  0  0
   58.5090   30.9360   45.7030 C   0  0  0  0  0  0  0  0  0  0  0  0
   58.4490   29.9950   44.6740 C   0  0  0  0  0  0  0  0  0  0  0  0
   58.6750   28.5890   44.9140 N   0  0  0  0  0  0  0  0  0  0  0  0
   57.7550   27.5900   44.3660 C   0  0  0  0  0  0  0  0  0  0  0  0
   59.8860   28.1390   45.6160 C   0  0  0  0  0  0  0  0  0  0  0  0
   61.1430   28.6060   44.8890 C   0  0  0  0  0  0  0  0  0  0  0  0
   58.1420   30.4580   43.4210 N   0  0  0  0  0  0  0  0  0  0  0  0
   57.9120   31.7920   43.1850 C   0  0  0  0  0  0  0  0  0  0  0  0
   57.5270   32.3450   41.5680 Cl  0  0  0  0  0  0  0  0  0  0  0  0
   57.9790   32.6990   44.2030 N   0  0  0  0  0  0  0  0  0  0  0  0
   58.2760   32.2420   45.4420 C   0  0  0  0  0  0  0  0  0  0  0  0
   62.2896   31.8495   48.1842 H   0  0  0  0  0  0  0  0  0  0  0  0
   61.3807   31.8084   46.6354 H   0  0  0  0  0  0  0  0  0  0  0  0
   63.1389   32.1761   46.6354 H   0  0  0  0  0  0  0  0  0  0  0  0
   61.5495   33.9888   48.3577 H   0  0  0  0  0  0  0  0  0  0  0  0
   62.7961   34.3602   47.1013 H   0  0  0  0  0  0  0  0  0  0  0  0
   61.2265   34.8670   45.5800 H   0  0  0  0  0  0  0  0  0  0  0  0
   60.3484   33.3080   45.9128 H   0  0  0  0  0  0  0  0  0  0  0  0
   59.8143   34.9614   48.1277 H   0  0  0  0  0  0  0  0  0  0  0  0
   59.6570   36.0167   46.6515 H   0  0  0  0  0  0  0  0  0  0  0  0
   57.5854   34.6182   47.5828 H   0  0  0  0  0  0  0  0  0  0  0  0
   57.8702   34.8434   45.8195 H   0  0  0  0  0  0  0  0  0  0  0  0
   58.8324   32.2681   48.5764 H   0  0  0  0  0  0  0  0  0  0  0  0
   57.2618   27.0544   45.1905 H   0  0  0  0  0  0  0  0  0  0  0  0
   56.9954   28.0910   43.7479 H   0  0  0  0  0  0  0  0  0  0  0  0
   58.3168   26.8742   43.7479 H   0  0  0  0  0  0  0  0  0  0  0  0
   59.8855   28.5519   46.6356 H   0  0  0  0  0  0  0  0  0  0  0  0
   59.8861   27.0394   45.6463 H   0  0  0  0  0  0  0  0  0  0  0  0
   61.9085   28.8904   45.6260 H   0  0  0  0  0  0  0  0  0  0  0  0
   61.5263   27.7903   44.2584 H   0  0  0  0  0  0  0  0  0  0  0  0
   60.9007   29.4741   44.2584 H   0  0  0  0  0  0  0  0  0  0  0  0
   58.0980   29.7950   42.6160 H   0  0  0  0  0  0  0  0  0  0  0  0
  1  2  1  0
  2  3  1  0
  3  4  1  0
  4  5  1  0
  5  6  1  0
  6  7  1  0
  7  8  2  0
  8  9  1  0
  9 10  2  0
 10 11  1  0
 11 12  1  0
 11 13  1  0
 13 14  1  0
 10 15  1  0
 15 16  2  0
 16 17  1  0
 16 18  1  0
 18 19  2  0
 19  6  1  0
 19  9  1  0
  1 20  1  0
  1 21  1  0
  1 22  1  0
  2 23  1  0
  2 24  1  0
  3 25  1  0
  3 26  1  0
  4 27  1  0
  4 28  1  0
  5 29  1  0
  5 30  1  0
  7 31  1  0
 12 32  1  0
 12 33  1  0
 12 34  1  0
 13 35  1  0
 13 36  1  0
 14 37  1  0
 14 38  1  0
 14 39  1  0
 15 40  1  0
M  CHG  1  15   1
M  END
>  <UniqueID>  (15) 
14

>  <SMILES>  (15) 
CCCCCn1cnc2c(N(C)CC)[nH+]c(Cl)nc21

>  <Energy>  (15) 
69.79923997239617

>  <Genealogy>  (15) 
CCCCCn1cnc2c(N(C)CC)[nH+]c(Cl)nc21 (protonated)
CCCCCn1cnc2c(N(C)CC)[nH+]c(Cl)nc21 (3D coordinates assigned)
CCCCCn1cnc2c(N(C)CC)[nH+]c(Cl)nc21 (optimized conformer: 69.79923997239617 kcal/mol)

>  <smiles>  (15) 
CCCCCn1cnc2c(N(C)CC)nc(Cl)nc21

>  <score_type>  (15) 
oracle

>  <origin>  (15) 
adg

>  <m_score__min__energy>  (15) 
-4.8399999999999999

>  <m_primary>  (15) 
energy

$$$$
15:0
     RDKit          3D

 57 60  0  0  0  0  0  0  0  0999 V2000
   58.8780   31.7870   48.6740 O   0  0  0  0  0  0  0  0  0  0  0  0
   59.5200   32.6470   48.0090 C   0  0  0  0  0  0  0  0  0  0  0  0
   60.9970   32.6520   48.0330 C   0  0  0  0  0  0  0  0  0  0  0  0
   61.7170   31.9240   48.9950 C   0  0  0  0  0  0  0  0  0  0  0  0
   63.1150   31.9490   48.9920 C   0  0  0  0  0  0  0  0  0  0  0  0
   63.8010   32.6900   48.0260 C   0  0  0  0  0  0  0  0  0  0  0  0
   63.0930   33.4110   47.0610 C   0  0  0  0  0  0  0  0  0  0  0  0
   61.6890   33.4100   47.0680 C   0  0  0  0  0  0  0  0  0  0  0  0
   60.9210   34.1440   45.9960 C   0  0  0  0  0  0  0  0  0  0  0  0
   59.6020   34.6860   46.5550 C   0  0  0  0  0  0  0  0  0  0  0  0
   58.8240   33.6090   47.1900 N   0  0  0  0  0  0  0  0  0  0  0  0
   57.3860   33.4650   46.9140 C   0  0  0  0  0  0  0  0  0  0  0  0
   57.0470   33.7110   45.4330 C   0  0  0  0  0  0  0  0  0  0  0  0
   57.4090   32.5260   44.5190 C   0  0  0  0  0  0  0  0  0  0  0  0
   57.0270   31.2250   45.1140 N   0  0  0  0  0  0  0  0  0  0  0  0
   58.1670   30.5800   45.8220 C   0  0  0  0  0  0  0  0  0  0  0  0
   58.0910   29.0490   45.8020 C   0  0  0  0  0  0  0  0  0  0  0  0
   58.1560   28.5400   44.3500 C   0  0  0  0  0  0  0  0  0  0  0  0
   57.7650   27.0740   44.2750 C   0  0  0  0  0  0  0  0  0  0  0  0
   57.7710   26.3820   43.0510 C   0  0  0  0  0  0  0  0  0  0  0  0
   57.3940   25.0380   42.9930 C   0  0  0  0  0  0  0  0  0  0  0  0
   56.9780   24.3640   44.1530 C   0  0  0  0  0  0  0  0  0  0  0  0
   56.6110   22.9010   44.1030 C   0  0  0  0  0  0  0  0  0  0  0  0
   56.4730   22.4820   42.7910 F   0  0  0  0  0  0  0  0  0  0  0  0
   55.4130   22.7110   44.7660 F   0  0  0  0  0  0  0  0  0  0  0  0
   57.5870   22.1260   44.7040 F   0  0  0  0  0  0  0  0  0  0  0  0
   56.9900   25.0480   45.3780 C   0  0  0  0  0  0  0  0  0  0  0  0
   57.3690   26.3920   45.4380 C   0  0  0  0  0  0  0  0  0  0  0  0
   57.3270   29.4250   43.3810 C   0  0  0  0  0  0  0  0  0  0  0  0
   56.3490   30.3480   44.1250 C   0  0  0  0  0  0  0  0  0  0  0  0
   61.1800   31.3334   49.7518 H   0  0  0  0  0  0  0  0  0  0  0  0
   63.6758   31.3844   49.7514 H   0  0  0  0  0  0  0  0  0  0  0  0
   64.9009   32.7057   48.0253 H   0  0  0  0  0  0  0  0  0  0  0  0
   63.6372   33.9810   46.2936 H   0  0  0  0  0  0  0  0  0  0  0  0
   61.5287   34.9827   45.6256 H   0  0  0  0  0  0  0  0  0  0  0  0
   60.6988   33.4448   45.1764 H   0  0  0  0  0  0  0  0  0  0  0  0
   59.8189   35.4636   47.3022 H   0  0  0  0  0  0  0  0  0  0  0  0
   59.0130   35.1064   45.7265 H   0  0  0  0  0  0  0  0  0  0  0  0
   57.0747   32.4449   47.1832 H   0  0  0  0  0  0  0  0  0  0  0  0
   56.8521   34.2192   47.5108 H   0  0  0  0  0  0  0  0  0  0  0  0
   55.9664   33.8990   45.3490 H   0  0  0  0  0  0  0  0  0  0  0  0
   57.6453   34.5723   45.1011 H   0  0  0  0  0  0  0  0  0  0  0  0
   56.8839   32.6449   43.5598 H   0  0  0  0  0  0  0  0  0  0  0  0
   58.5002   32.5270   44.3802 H   0  0  0  0  0  0  0  0  0  0  0  0
   59.1035   30.8915   45.3363 H   0  0  0  0  0  0  0  0  0  0  0  0
   58.1261   30.8993   46.8739 H   0  0  0  0  0  0  0  0  0  0  0  0
   58.9355   28.6344   46.3720 H   0  0  0  0  0  0  0  0  0  0  0  0
   57.1422   28.7275   46.2564 H   0  0  0  0  0  0  0  0  0  0  0  0
   59.2000   28.6206   44.0129 H   0  0  0  0  0  0  0  0  0  0  0  0
   58.0751   26.9033   42.1313 H   0  0  0  0  0  0  0  0  0  0  0  0
   57.4232   24.5037   42.0319 H   0  0  0  0  0  0  0  0  0  0  0  0
   56.6986   24.5220   46.2991 H   0  0  0  0  0  0  0  0  0  0  0  0
   57.3572   26.9199   46.4030 H   0  0  0  0  0  0  0  0  0  0  0  0
   58.0174   30.0444   42.7897 H   0  0  0  0  0  0  0  0  0  0  0  0
   56.7354   28.7566   42.7382 H   0  0  0  0  0  0  0  0  0  0  0  0
   55.8336   30.9815   43.3881 H   0  0  0  0  0  0  0  0  0  0  0  0
   55.6438   29.7089   44.6766 H   0  0  0  0  0  0  0  0  0  0  0  0
  1  2  2  0
  2  3  1  0
  3  4  2  0
  4  5  1  0
  5  6  2  0
  6  7  1  0
  7  8  2  0
  8  9  1  0
  9 10  1  0
 10 11  1  0
 11 12  1  0
 12 13  1  0
 13 14  1  0
 14 15  1  0
 15 16  1  0
 16 17  1  0
 17 18  1  0
 18 19  1  0
 19 20  2  0
 20 21  1  0
 21 22  2  0
 22 23  1  0
 23 24  1  0
 23 25  1  0
 23 26  1  0
 22 27  1  0
 27 28  2  0
 18 29  1  0
 29 30  1  0
 11  2  1  0
 30 15  1  0
  8  3  1  0
 28 19  1  0
  4 31  1  0
  5 32  1  0
  6 33  1  0
  7 34  1  0
  9 35  1  0
  9 36  1  0
 10 37  1  0
 10 38  1  0
 12 39  1  0
 12 40  1  0
 13 41  1  0
 13 42  1  0
 14 43  1  0
 14 44  1  0
 16 45  1  0
 16 46  1  0
 17 47  1  0
 17 48  1  0
 18 49  1  0
 20 50  1  0
 21 51  1  0
 27 52  1  0
 28 53  1  0
 29 54  1  0
 29 55  1  0
 30 56  1  0
 30 57  1  0
M  END
>  <UniqueID>  (16) 
15

>  <SMILES>  (16) 
O=C1c2ccccc2CCN1CCCN1CCC(c2ccc(C(F)(F)F)cc2)CC1

>  <Energy>  (16) 
66.72425826744939

>  <Genealogy>  (16) 
O=C1c2ccccc2CCN1CCCN1CCC(c2ccc(C(F)(F)F)cc2)CC1 (3D coordinates assigned)
O=C1c2ccccc2CCN1CCCN1CCC(c2ccc(C(F)(F)F)cc2)CC1 (nonaromatic ring conformer: 66.72425826744939 kcal/mol)

>  <smiles>  (16) 
O=C1c2ccccc2CCN1CCCN1CCC(c2ccc(C(F)(F)F)cc2)CC1

>  <score_type>  (16) 
oracle

>  <origin>  (16) 
adg

>  <m_score__min__energy>  (16) 
-9.7699999999999996

>  <m_primary>  (16) 
energy

$$$$
16:0
     RDKit          3D

 40 42  0  0  0  0  0  0  0  0999 V2000
   56.4690   30.8400   44.2620 C   0  0  0  0  0  0  0  0  0  0  0  0
   57.3990   31.3510   45.2800 N   0  0  0  0  0  0  0  0  0  0  0  0
   58.7220   30.7290   45.0960 C   0  0  0  0  0  0  0  0  0  0  0  0
   57.4840   32.8270   45.2060 C   0  0  0  0  0  0  0  0  0  0  0  0
   57.9010   33.4360   46.5530 C   0  0  0  0  0  0  0  0  0  0  0  0
   58.4220   32.4150   47.4640 N   0  0  0  0  0  0  0  0  0  0  0  0
   59.4250   32.7020   48.4510 C   0  0  0  0  0  0  0  0  0  0  0  0
   60.7250   33.1080   48.0840 C   0  0  0  0  0  0  0  0  0  0  0  0
   61.0820   33.2340   46.7270 C   0  0  0  0  0  0  0  0  0  0  0  0
   62.3730   33.6110   46.3650 C   0  0  0  0  0  0  0  0  0  0  0  0
   63.3290   33.8590   47.3440 C   0  0  0  0  0  0  0  0  0  0  0  0
   62.9990   33.7570   48.6950 C   0  0  0  0  0  0  0  0  0  0  0  0
   61.6860   33.4100   49.1030 C   0  0  0  0  0  0  0  0  0  0  0  0
   61.3300   33.3510   50.4430 N   0  0  0  0  0  0  0  0  0  0  0  0
   62.2640   33.7940   51.4970 C   0  0  0  0  0  0  0  0  0  0  0  0
   60.0880   32.8630   50.7800 C   0  0  0  0  0  0  0  0  0  0  0  0
   59.6200   32.5840   52.0840 C   0  0  0  0  0  0  0  0  0  0  0  0
   58.3220   32.0860   52.1070 C   0  0  0  0  0  0  0  0  0  0  0  0
   57.7530   31.9690   50.5270 S   0  0  0  0  0  0  0  0  0  0  0  0
   59.1500   32.5630   49.8050 C   0  0  0  0  0  0  0  0  0  0  0  0
   55.6079   30.3668   44.7566 H   0  0  0  0  0  0  0  0  0  0  0  0
   56.1192   31.6726   43.6340 H   0  0  0  0  0  0  0  0  0  0  0  0
   56.9842   30.0983   43.6340 H   0  0  0  0  0  0  0  0  0  0  0  0
   59.1684   30.5191   46.0792 H   0  0  0  0  0  0  0  0  0  0  0  0
   58.6105   29.7890   44.5357 H   0  0  0  0  0  0  0  0  0  0  0  0
   59.3748   31.4146   44.5357 H   0  0  0  0  0  0  0  0  0  0  0  0
   58.2266   33.1043   44.4434 H   0  0  0  0  0  0  0  0  0  0  0  0
   56.4892   33.2169   44.9446 H   0  0  0  0  0  0  0  0  0  0  0  0
   58.6816   34.1909   46.3778 H   0  0  0  0  0  0  0  0  0  0  0  0
   57.0132   33.8916   47.0159 H   0  0  0  0  0  0  0  0  0  0  0  0
   58.1350   31.4220   47.3150 H   0  0  0  0  0  0  0  0  0  0  0  0
   60.3340   33.0327   45.9460 H   0  0  0  0  0  0  0  0  0  0  0  0
   62.6371   33.7128   45.3020 H   0  0  0  0  0  0  0  0  0  0  0  0
   64.3520   34.1374   47.0508 H   0  0  0  0  0  0  0  0  0  0  0  0
   63.7695   33.9488   49.4563 H   0  0  0  0  0  0  0  0  0  0  0  0
   61.8270   33.5867   52.4850 H   0  0  0  0  0  0  0  0  0  0  0  0
   63.2154   33.2512   51.3957 H   0  0  0  0  0  0  0  0  0  0  0  0
   62.4456   34.8742   51.3957 H   0  0  0  0  0  0  0  0  0  0  0  0
   60.2224   32.7448   52.9902 H   0  0  0  0  0  0  0  0  0  0  0  0
   57.7583   31.8127   53.0112 H   0  0  0  0  0  0  0  0  0  0  0  0
  1  2  1  0
  2  3  1  0
  2  4  1  0
  4  5  1  0
  5  6  1  0
  6  7  1  0
  7  8  2  0
  8  9  1  0
  9 10  2  0
 10 11  1  0
 11 12  2  0
 12 13  1  0
 13 14  2  0
 14 15  1  0
 14 16  1  0
 16 17  1  0
 17 18  2  0
 18 19  1  0
 19 20  1  0
 20  7  1  0
 13  8  1  0
 20 16  2  0
  1 21  1  0
  1 22  1  0
  1 23  1  0
  3 24  1  0
  3 25  1  0
  3 26  1  0
  4 27  1  0
  4 28  1  0
  5 29  1  0
  5 30  1  0
  6 31  1  0
  9 32  1  0
 10 33  1  0
 11 34  1  0
 12 35  1  0
 15 36  1  0
 15 37  1  0
 15 38  1  0
 17 39  1  0
 18 40  1  0
M  CHG  1  14   1
M  END
>  <UniqueID>  (17) 
16

>  <SMILES>  (17) 
CN(C)CCNc1c2ccccc2[n+](C)c2ccsc12

>  <Energy>  (17) 
86.26156579773539

>  <Genealogy>  (17) 
CN(C)CCNc1c2ccccc2[n+](C)c2ccsc12 (3D coordinates assigned)
CN(C)CCNc1c2ccccc2[n+](C)c2ccsc12 (optimized conformer: 86.26156579773539 kcal/mol)

>  <smiles>  (17) 
CN(C)CCNc1c2ccccc2[n+](C)c2ccsc12

>  <score_type>  (17) 
oracle

>  <origin>  (17) 
adg

>  <m_score__min__energy>  (17) 
-4.5599999999999996

>  <m_primary>  (17) 
energy

$$$$
17:0
     RDKit          3D

 50 51  0  0  0  0  0  0  0  0999 V2000
   57.0270   32.6880   40.4400 C   0  0  0  0  0  0  0  0  0  0  0  0
   58.0470   32.3640   41.5440 C   0  0  0  0  0  0  0  0  0  0  0  0
   57.4420   32.0350   42.8570 N   0  0  0  0  0  0  0  0  0  0  0  0
   58.1570   32.5780   44.0350 C   0  0  0  0  0  0  0  0  0  0  0  0
   57.3420   33.6580   44.7480 C   0  0  0  0  0  0  0  0  0  0  0  0
   56.8950   30.6610   42.9750 C   0  0  0  0  0  0  0  0  0  0  0  0
   55.8940   30.4560   44.1210 C   0  0  0  0  0  0  0  0  0  0  0  0
   56.4520   29.6240   45.1330 O   0  0  0  0  0  0  0  0  0  0  0  0
   57.8170   29.5520   45.4400 C   0  0  0  0  0  0  0  0  0  0  0  0
   58.6500   28.5240   44.9660 C   0  0  0  0  0  0  0  0  0  0  0  0
   59.9670   28.5020   45.3020 N   0  0  0  0  0  0  0  0  0  0  0  0
   60.5200   29.4610   46.0930 C   0  0  0  0  0  0  0  0  0  0  0  0
   59.7330   30.5160   46.5810 C   0  0  0  0  0  0  0  0  0  0  0  0
   60.3070   31.5300   47.4300 N   0  0  0  0  0  0  0  0  0  0  0  0
   59.4530   32.3020   48.3380 C   0  0  0  0  0  0  0  0  0  0  0  0
   60.1450   33.6140   48.7510 C   0  0  0  0  0  0  0  0  0  0  0  0
   60.9030   34.2110   47.6310 N   0  0  0  0  0  0  0  0  0  0  0  0
   60.0120   34.6950   46.5620 C   0  0  0  0  0  0  0  0  0  0  0  0
   61.9700   33.3210   47.1010 C   0  0  0  0  0  0  0  0  0  0  0  0
   61.7420   31.8270   47.3960 C   0  0  0  0  0  0  0  0  0  0  0  0
   58.3710   30.5440   46.2510 C   0  0  0  0  0  0  0  0  0  0  0  0
   56.0741   32.9907   40.8986 H   0  0  0  0  0  0  0  0  0  0  0  0
   57.4105   33.5085   39.8158 H   0  0  0  0  0  0  0  0  0  0  0  0
   56.8667   31.7966   39.8158 H   0  0  0  0  0  0  0  0  0  0  0  0
   58.6475   31.5027   41.2160 H   0  0  0  0  0  0  0  0  0  0  0  0
   58.6484   33.2728   41.6934 H   0  0  0  0  0  0  0  0  0  0  0  0
   58.3546   31.7575   44.7406 H   0  0  0  0  0  0  0  0  0  0  0  0
   59.0948   33.0338   43.6847 H   0  0  0  0  0  0  0  0  0  0  0  0
   57.4378   33.5310   45.8364 H   0  0  0  0  0  0  0  0  0  0  0  0
   57.7179   34.6509   44.4602 H   0  0  0  0  0  0  0  0  0  0  0  0
   56.2841   33.5689   44.4602 H   0  0  0  0  0  0  0  0  0  0  0  0
   56.3877   30.4137   42.0308 H   0  0  0  0  0  0  0  0  0  0  0  0
   57.7519   30.0074   43.1954 H   0  0  0  0  0  0  0  0  0  0  0  0
   55.6388   31.4332   44.5568 H   0  0  0  0  0  0  0  0  0  0  0  0
   54.9922   29.9699   43.7205 H   0  0  0  0  0  0  0  0  0  0  0  0
   58.2351   27.7351   44.3214 H   0  0  0  0  0  0  0  0  0  0  0  0
   60.5720   27.7280   44.9440 H   0  0  0  0  0  0  0  0  0  0  0  0
   61.5880   29.4094   46.3511 H   0  0  0  0  0  0  0  0  0  0  0  0
   58.5059   32.5374   47.8304 H   0  0  0  0  0  0  0  0  0  0  0  0
   59.2631   31.7026   49.2406 H   0  0  0  0  0  0  0  0  0  0  0  0
   59.3799   34.3303   49.0850 H   0  0  0  0  0  0  0  0  0  0  0  0
   60.8539   33.3865   49.5608 H   0  0  0  0  0  0  0  0  0  0  0  0
   59.1291   35.1746   47.0097 H   0  0  0  0  0  0  0  0  0  0  0  0
   60.5496   35.4251   45.9391 H   0  0  0  0  0  0  0  0  0  0  0  0
   59.6921   33.8466   45.9391 H   0  0  0  0  0  0  0  0  0  0  0  0
   62.0219   33.4544   46.0104 H   0  0  0  0  0  0  0  0  0  0  0  0
   62.9039   33.6068   47.6071 H   0  0  0  0  0  0  0  0  0  0  0  0
   62.2190   31.2245   46.6090 H   0  0  0  0  0  0  0  0  0  0  0  0
   62.1818   31.5836   48.3744 H   0  0  0  0  0  0  0  0  0  0  0  0
   57.7334   31.3543   46.6342 H   0  0  0  0  0  0  0  0  0  0  0  0
  1  2  1  0
  2  3  1  0
  3  4  1  0
  4  5  1  0
  3  6  1  0
  6  7  1  0
  7  8  1  0
  8  9  1  0
  9 10  2  0
 10 11  1  0
 11 12  2  0
 12 13  1  0
 13 14  1  0
 14 15  1  0
 15 16  1  0
 16 17  1  0
 17 18  1  0
 17 19  1  0
 19 20  1  0
 13 21  2  0
 21  9  1  0
 20 14  1  0
  1 22  1  0
  1 23  1  0
  1 24  1  0
  2 25  1  0
  2 26  1  0
  4 27  1  0
  4 28  1  0
  5 29  1  0
  5 30  1  0
  5 31  1  0
  6 32  1  0
  6 33  1  0
  7 34  1  0
  7 35  1  0
 10 36  1  0
 11 37  1  0
 12 38  1  0
 15 39  1  0
 15 40  1  0
 16 41  1  0
 16 42  1  0
 18 43  1  0
 18 44  1  0
 18 45  1  0
 19 46  1  0
 19 47  1  0
 20 48  1  0
 20 49  1  0
 21 50  1  0
M  CHG  1  11   1
M  END
>  <UniqueID>  (18) 
17

>  <SMILES>  (18) 
CCN(CC)CCOc1c[nH+]cc(N2CCN(C)CC2)c1

>  <Energy>  (18) 
64.54451127807252

>  <Genealogy>  (18) 
CCN(CC)CCOc1c[nH+]cc(N2CCN(C)CC2)c1 (protonated)
CCN(CC)CCOc1c[nH+]cc(N2CCN(C)CC2)c1 (3D coordinates assigned)
CCN(CC)CCOc1c[nH+]cc(N2CCN(C)CC2)c1 (nonaromatic ring conformer: 64.54451127807252 kcal/mol)

>  <smiles>  (18) 
CCN(CC)CCOc1cncc(N2CCN(C)CC2)c1

>  <score_type>  (18) 
oracle

>  <origin>  (18) 
adg

>  <m_score__min__energy>  (18) 
-4.6799999999999997

>  <m_primary>  (18) 
energy

$$$$
18:0
     RDKit          3D

 54 58  0  0  0  0  0  0  0  0999 V2000
   64.1230   32.4360   48.8500 C   0  0  0  0  0  0  0  0  0  0  0  0
   62.7890   33.1110   48.8610 C   0  0  0  0  0  0  0  0  0  0  0  0
   62.0770   33.2570   50.0570 C   0  0  0  0  0  0  0  0  0  0  0  0
   60.8290   33.8820   50.0380 C   0  0  0  0  0  0  0  0  0  0  0  0
   60.3000   34.3440   48.8320 C   0  0  0  0  0  0  0  0  0  0  0  0
   61.0280   34.1640   47.6450 C   0  0  0  0  0  0  0  0  0  0  0  0
   60.4870   34.6500   46.3190 C   0  0  0  0  0  0  0  0  0  0  0  0
   59.4110   33.8040   45.7490 N   0  0  0  0  0  0  0  0  0  0  0  0
   58.1990   34.5400   45.3500 C   0  0  0  0  0  0  0  0  0  0  0  0
   57.0180   33.7130   45.8690 C   0  0  2  0  0  0  0  0  0  0  0  0
   57.5940   33.1430   47.1480 C   0  0  0  0  0  0  0  0  0  0  0  0
   58.9540   32.7050   46.6200 C   0  0  1  0  0  0  0  0  0  0  0  0
   58.7700   31.4440   45.7330 C   0  0  0  0  0  0  0  0  0  0  0  0
   57.3690   31.2750   45.2660 N   0  0  0  0  0  0  0  0  0  0  0  0
   57.2900   30.2640   44.1930 C   0  0  0  0  0  0  0  0  0  0  0  0
   57.4030   28.8800   44.7610 C   0  0  0  0  0  0  0  0  0  0  0  0
   56.3330   28.2110   45.2660 N   0  0  0  0  0  0  0  0  0  0  0  0
   56.8760   27.0670   45.7180 C   0  0  0  0  0  0  0  0  0  0  0  0
   56.2260   26.0160   46.3620 C   0  0  0  0  0  0  0  0  0  0  0  0
   57.0070   24.9250   46.7870 C   0  0  0  0  0  0  0  0  0  0  0  0
   58.4020   24.9140   46.5660 C   0  0  0  0  0  0  0  0  0  0  0  0
   59.0300   25.9930   45.9150 C   0  0  0  0  0  0  0  0  0  0  0  0
   58.2240   27.0540   45.4980 C   0  0  0  0  0  0  0  0  0  0  0  0
   58.5730   28.1920   44.8750 N   0  0  0  0  0  0  0  0  0  0  0  0
   59.9220   28.6510   44.5460 C   0  0  0  0  0  0  0  0  0  0  0  0
   56.6930   32.5460   44.8880 C   0  0  0  0  0  0  0  0  0  0  0  0
   62.2500   33.5640   47.6960 N   0  0  0  0  0  0  0  0  0  0  0  0
   64.4570   32.2670   49.8844 H   0  0  0  0  0  0  0  0  0  0  0  0
   64.0413   31.4708   48.3288 H   0  0  0  0  0  0  0  0  0  0  0  0
   64.8523   33.0736   48.3288 H   0  0  0  0  0  0  0  0  0  0  0  0
   62.4966   32.8830   51.0025 H   0  0  0  0  0  0  0  0  0  0  0  0
   60.2631   34.0102   50.9725 H   0  0  0  0  0  0  0  0  0  0  0  0
   59.3209   34.8450   48.8116 H   0  0  0  0  0  0  0  0  0  0  0  0
   60.0874   35.6649   46.4617 H   0  0  0  0  0  0  0  0  0  0  0  0
   61.3244   34.6149   45.6066 H   0  0  0  0  0  0  0  0  0  0  0  0
   58.1931   35.5424   45.8030 H   0  0  0  0  0  0  0  0  0  0  0  0
   58.1492   34.6768   44.2597 H   0  0  0  0  0  0  0  0  0  0  0  0
   56.0893   34.2898   45.9905 H   0  0  0  0  0  0  0  0  0  0  0  0
   57.6831   33.9051   47.9362 H   0  0  0  0  0  0  0  0  0  0  0  0
   56.9953   32.3543   47.6271 H   0  0  0  0  0  0  0  0  0  0  0  0
   59.6569   32.4840   47.4368 H   0  0  0  0  0  0  0  0  0  0  0  0
   59.4263   31.5320   44.8546 H   0  0  0  0  0  0  0  0  0  0  0  0
   59.0265   30.5659   46.3438 H   0  0  0  0  0  0  0  0  0  0  0  0
   56.3258   30.3636   43.6730 H   0  0  0  0  0  0  0  0  0  0  0  0
   58.1204   30.4275   43.4904 H   0  0  0  0  0  0  0  0  0  0  0  0
   55.1395   26.0383   46.5324 H   0  0  0  0  0  0  0  0  0  0  0  0
   56.5277   24.0750   47.2948 H   0  0  0  0  0  0  0  0  0  0  0  0
   59.0019   24.0565   46.9048 H   0  0  0  0  0  0  0  0  0  0  0  0
   60.1162   25.9998   45.7413 H   0  0  0  0  0  0  0  0  0  0  0  0
   60.4811   28.8412   45.4740 H   0  0  0  0  0  0  0  0  0  0  0  0
   60.4391   27.8782   43.9583 H   0  0  0  0  0  0  0  0  0  0  0  0
   59.8605   29.5788   43.9583 H   0  0  0  0  0  0  0  0  0  0  0  0
   57.0215   32.8329   43.8782 H   0  0  0  0  0  0  0  0  0  0  0  0
   55.6078   32.3705   44.9272 H   0  0  0  0  0  0  0  0  0  0  0  0
  1  2  1  0
  2  3  2  0
  3  4  1  0
  4  5  2  0
  5  6  1  0
  6  7  1  0
  7  8  1  0
  8  9  1  0
  9 10  1  0
 10 11  1  0
 11 12  1  0
 12 13  1  0
 13 14  1  0
 14 15  1  0
 15 16  1  0
 16 17  2  0
 17 18  1  0
 18 19  2  0
 19 20  1  0
 20 21  2  0
 21 22  1  0
 22 23  2  0
 23 24  1  0
 24 25  1  0
 14 26  1  0
  6 27  2  0
 27  2  1  0
 12  8  1  0
 24 16  1  0
 26 10  1  0
 23 18  1  0
  1 28  1  0
  1 29  1  0
  1 30  1  0
  3 31  1  0
  4 32  1  0
  5 33  1  0
  7 34  1  0
  7 35  1  0
  9 36  1  0
  9 37  1  0
 10 38  1  1
 11 39  1  0
 11 40  1  0
 12 41  1  1
 13 42  1  0
 13 43  1  0
 15 44  1  0
 15 45  1  0
 19 46  1  0
 20 47  1  0
 21 48  1  0
 22 49  1  0
 25 50  1  0
 25 51  1  0
 25 52  1  0
 26 53  1  0
 26 54  1  0
M  END
>  <UniqueID>  (19) 
18

>  <SMILES>  (19) 
Cc1cccc(CN2C[C@@H]3C[C@H]2CN(Cc2nc4ccccc4n2C)C3)n1

>  <Energy>  (19) 
117.84605961379258

>  <Genealogy>  (19) 
Cc1cccc(CN2C[C@@H]3C[C@H]2CN(Cc2nc4ccccc4n2C)C3)n1 (chirality)
Cc1cccc(CN2C[C@@H]3C[C@H]2CN(Cc2nc4ccccc4n2C)C3)n1 (3D coordinates assigned)
Cc1cccc(CN2C[C@@H]3C[C@H]2CN(Cc2nc4ccccc4n2C)C3)n1 (nonaromatic ring conformer: 117.84605961379258 kcal/mol)

>  <smiles>  (19) 
Cc1cccc(CN2CC3CC2CN(Cc2nc4ccccc4n2C)C3)n1

>  <score_type>  (19) 
oracle

>  <origin>  (19) 
adg

>  <m_score__min__energy>  (19) 
-9.2899999999999991

>  <m_primary>  (19) 
energy

$$$$
19:0
     RDKit          3D

 27 29  0  0  0  0  0  0  0  0999 V2000
   54.0400   29.8660   44.0990 H   0  0  0  0  0  0  0  0  0  0  0  0
   54.9410   29.3400   44.1170 N   0  0  0  0  0  0  0  0  0  0  0  0
   56.0110   29.8620   44.6240 C   0  0  0  0  0  0  0  0  0  0  0  0
   56.2680   31.1890   44.5720 N   0  0  0  0  0  0  0  0  0  0  0  0
   57.4510   31.4650   45.1770 C   0  0  0  0  0  0  0  0  0  0  0  0
   58.0030   32.7370   45.2750 C   0  0  0  0  0  0  0  0  0  0  0  0
   57.4742   33.6061   44.8566 H   0  0  0  0  0  0  0  0  0  0  0  0
   59.2530   32.9020   45.9190 C   0  0  0  0  0  0  0  0  0  0  0  0
   59.8450   34.1660   46.0020 C   0  0  0  0  0  0  0  0  0  0  0  0
   59.2660   35.1870   45.5370 O   0  0  0  0  0  0  0  0  0  0  0  0
   61.0950   34.3050   46.5850 C   0  0  0  0  0  0  0  0  0  0  0  0
   61.5652   35.2983   46.6319 H   0  0  0  0  0  0  0  0  0  0  0  0
   61.7690   33.1920   47.1170 C   0  0  0  0  0  0  0  0  0  0  0  0
   63.1690   33.4090   47.6770 C   0  0  0  0  0  0  0  0  0  0  0  0
   63.1090   33.5020   49.0560 F   0  0  0  0  0  0  0  0  0  0  0  0
   63.9990   32.3620   47.3150 F   0  0  0  0  0  0  0  0  0  0  0  0
   63.7420   34.5730   47.1900 F   0  0  0  0  0  0  0  0  0  0  0  0
   61.1390   31.9580   47.1460 N   0  0  0  0  0  0  0  0  0  0  0  0
   61.7470   30.8210   47.8720 C   0  0  0  0  0  0  0  0  0  0  0  0
   61.6577   30.9880   48.9556 H   0  0  0  0  0  0  0  0  0  0  0  0
   61.2256   29.8914   47.6001 H   0  0  0  0  0  0  0  0  0  0  0  0
   62.8097   30.7384   47.6001 H   0  0  0  0  0  0  0  0  0  0  0  0
   59.9330   31.7780   46.4860 C   0  0  0  0  0  0  0  0  0  0  0  0
   59.3430   30.4900   46.3420 C   0  0  0  0  0  0  0  0  0  0  0  0
   59.8507   29.5981   46.7378 H   0  0  0  0  0  0  0  0  0  0  0  0
   58.1190   30.3730   45.6960 C   0  0  0  0  0  0  0  0  0  0  0  0
   57.2230   28.9800   45.4080 S   0  0  0  0  0  0  0  0  0  0  0  0
  1  2  1  0
  2  3  2  0
  3  4  1  0
  4  5  1  0
  5  6  2  0
  6  7  1  0
  6  8  1  0
  8  9  1  0
  9 10  2  0
  9 11  1  0
 11 12  1  0
 11 13  2  0
 13 14  1  0
 14 15  1  0
 14 16  1  0
 14 17  1  0
 13 18  1  0
 18 19  1  0
 19 20  1  0
 19 21  1  0
 19 22  1  0
 18 23  1  0
 23 24  1  0
 24 25  1  0
 24 26  2  0
 26 27  1  0
 27  3  1  0
 26  5  1  0
 23  8  2  0
M  CHG  1   4  -1
M  END
>  <UniqueID>  (20) 
19

>  <SMILES>  (20) 
[H]/N=c1/[n-]c2cc3c(=O)cc(C(F)(F)F)n(C)c3cc2s1

>  <Energy>  (20) 
80.21536269000438

>  <Genealogy>  (20) 
Cn1c(C(F)(F)F)cc(=O)c2cc3[n-]c(=N)sc3cc21 (protonated)
[H]/N=c1/[n-]c2cc3c(=O)cc(C(F)(F)F)n(C)c3cc2s1 (cis-trans isomerization)
[H]/N=c1/[n-]c2cc3c(=O)cc(C(F)(F)F)n(C)c3cc2s1 (3D coordinates assigned)
[H]/N=c1/[n-]c2cc3c(=O)cc(C(F)(F)F)n(C)c3cc2s1 (optimized conformer: 80.21536269000438 kcal/mol)

>  <smiles>  (20) 
Cn1c(C(F)(F)F)cc(=O)c2cc3[nH]c(=N)sc3cc21

>  <score_type>  (20) 
oracle

>  <origin>  (20) 
adg

>  <m_score__min__energy>  (20) 
-8.5299999999999994

>  <m_primary>  (20) 
energy

$$$$
20:0
     RDKit          3D

 51 53  0  0  0  0  0  0  0  0999 V2000
   60.4200   27.4360   48.9840 C   0  0  0  0  0  0  0  0  0  0  0  0
   60.4630   26.7090   47.6450 C   0  0  0  0  0  0  0  0  0  0  0  0
   59.5390   27.3680   46.6870 N   0  0  0  0  0  0  0  0  0  0  0  0
   58.2930   26.5870   46.5020 C   0  0  0  0  0  0  0  0  0  0  0  0
   57.2760   27.3680   45.6700 C   0  0  0  0  0  0  0  0  0  0  0  0
   60.1900   27.6460   45.3840 C   0  0  0  0  0  0  0  0  0  0  0  0
   60.8760   29.0230   45.3820 C   0  0  0  0  0  0  0  0  0  0  0  0
   60.6940   29.7190   46.6570 N   0  0  0  0  0  0  0  0  0  0  0  0
   60.4210   31.1310   46.7070 C   0  0  0  0  0  0  0  0  0  0  0  0
   61.2330   31.9840   47.4770 C   0  0  0  0  0  0  0  0  0  0  0  0
   62.2750   31.4680   48.2770 C   0  0  0  0  0  0  0  0  0  0  0  0
   63.0510   32.3120   49.0670 C   0  0  0  0  0  0  0  0  0  0  0  0
   62.7980   33.6780   49.0830 C   0  0  0  0  0  0  0  0  0  0  0  0
   61.7840   34.2130   48.2900 C   0  0  0  0  0  0  0  0  0  0  0  0
   61.0020   33.3850   47.4440 C   0  0  0  0  0  0  0  0  0  0  0  0
   60.0300   33.9080   46.6110 N   0  0  0  0  0  0  0  0  0  0  0  0
   59.9880   35.3640   46.3460 C   0  0  0  0  0  0  0  0  0  0  0  0
   59.1090   33.0690   46.0150 C   0  0  0  0  0  0  0  0  0  0  0  0
   57.9380   33.5710   45.3940 C   0  0  0  0  0  0  0  0  0  0  0  0
   57.0270   32.7190   44.7730 C   0  0  0  0  0  0  0  0  0  0  0  0
   57.2330   31.3370   44.7650 C   0  0  0  0  0  0  0  0  0  0  0  0
   56.2820   30.4630   44.1250 N   0  0  0  0  0  0  0  0  0  0  0  0
   56.2550   30.3510   42.8810 O   0  0  0  0  0  0  0  0  0  0  0  0
   55.3810   29.7420   44.8740 O   0  0  0  0  0  0  0  0  0  0  0  0
   58.3660   30.8170   45.4070 C   0  0  0  0  0  0  0  0  0  0  0  0
   59.3060   31.6650   46.0340 C   0  0  0  0  0  0  0  0  0  0  0  0
   60.4634   26.7014   49.8016 H   0  0  0  0  0  0  0  0  0  0  0  0
   61.2793   28.1187   49.0584 H   0  0  0  0  0  0  0  0  0  0  0  0
   59.4862   28.0126   49.0584 H   0  0  0  0  0  0  0  0  0  0  0  0
   61.4872   26.7399   47.2450 H   0  0  0  0  0  0  0  0  0  0  0  0
   60.1535   25.6632   47.7885 H   0  0  0  0  0  0  0  0  0  0  0  0
   58.5320   25.6450   45.9867 H   0  0  0  0  0  0  0  0  0  0  0  0
   57.8558   26.3848   47.4909 H   0  0  0  0  0  0  0  0  0  0  0  0
   56.5843   27.8992   46.3404 H   0  0  0  0  0  0  0  0  0  0  0  0
   57.8029   28.0958   45.0354 H   0  0  0  0  0  0  0  0  0  0  0  0
   56.7089   26.6711   45.0354 H   0  0  0  0  0  0  0  0  0  0  0  0
   60.9445   26.8699   45.1880 H   0  0  0  0  0  0  0  0  0  0  0  0
   59.4158   27.6437   44.6026 H   0  0  0  0  0  0  0  0  0  0  0  0
   61.9523   28.8851   45.2013 H   0  0  0  0  0  0  0  0  0  0  0  0
   60.4189   29.6333   44.5892 H   0  0  0  0  0  0  0  0  0  0  0  0
   60.8680   29.2080   47.5500 H   0  0  0  0  0  0  0  0  0  0  0  0
   62.4764   30.3866   48.2764 H   0  0  0  0  0  0  0  0  0  0  0  0
   63.8652   31.8968   49.6791 H   0  0  0  0  0  0  0  0  0  0  0  0
   63.3998   34.3395   49.7235 H   0  0  0  0  0  0  0  0  0  0  0  0
   61.5870   35.2948   48.3207 H   0  0  0  0  0  0  0  0  0  0  0  0
   59.9722   35.9101   47.3007 H   0  0  0  0  0  0  0  0  0  0  0  0
   60.8780   35.6577   45.7702 H   0  0  0  0  0  0  0  0  0  0  0  0
   59.0825   35.6059   45.7702 H   0  0  0  0  0  0  0  0  0  0  0  0
   57.7447   34.6538   45.4025 H   0  0  0  0  0  0  0  0  0  0  0  0
   56.1358   33.1390   44.2837 H   0  0  0  0  0  0  0  0  0  0  0  0
   58.5258   29.7288   45.4227 H   0  0  0  0  0  0  0  0  0  0  0  0
  1  2  1  0
  2  3  1  0
  3  4  1  0
  4  5  1  0
  3  6  1  0
  6  7  1  0
  7  8  1  0
  8  9  1  0
  9 10  2  0
 10 11  1  0
 11 12  2  0
 12 13  1  0
 13 14  2  0
 14 15  1  0
 15 16  2  0
 16 17  1  0
 16 18  1  0
 18 19  2  0
 19 20  1  0
 20 21  2  0
 21 22  1  0
 22 23  2  0
 22 24  1  0
 21 25  1  0
 25 26  2  0
 26  9  1  0
 15 10  1  0
 26 18  1  0
  1 27  1  0
  1 28  1  0
  1 29  1  0
  2 30  1  0
  2 31  1  0
  4 32  1  0
  4 33  1  0
  5 34  1  0
  5 35  1  0
  5 36  1  0
  6 37  1  0
  6 38  1  0
  7 39  1  0
  7 40  1  0
  8 41  1  0
 11 42  1  0
 12 43  1  0
 13 44  1  0
 14 45  1  0
 17 46  1  0
 17 47  1  0
 17 48  1  0
 19 49  1  0
 20 50  1  0
 25 51  1  0
M  CHG  3  16   1  22   1  24  -1
M  END
>  <UniqueID>  (21) 
20

>  <SMILES>  (21) 
CCN(CC)CCNc1c2ccccc2[n+](C)c2ccc([N+](=O)[O-])cc12

>  <Energy>  (21) 
80.94942486378704

>  <Genealogy>  (21) 
CCN(CC)CCNc1c2ccccc2[n+](C)c2ccc([N+](=O)[O-])cc12 (3D coordinates assigned)
CCN(CC)CCNc1c2ccccc2[n+](C)c2ccc([N+](=O)[O-])cc12 (optimized conformer: 80.94942486378704 kcal/mol)

>  <smiles>  (21) 
CCN(CC)CCNc1c2ccccc2[n+](C)c2ccc([N+](=O)[O-])cc12

>  <score_type>  (21) 
oracle

>  <origin>  (21) 
adg

>  <m_score__min__energy>  (21) 
-6.5499999999999998

>  <m_primary>  (21) 
energy

$$$$
21:0
     RDKit          3D

 16 16  0  0  0  0  0  0  0  0999 V2000
   57.3220   30.6470   43.9760 S   0  0  0  0  0  0  0  0  0  0  0  0
   57.7870   32.3390   43.4960 C   0  0  0  0  0  0  0  0  0  0  0  0
   58.1600   33.1360   44.7140 C   0  0  0  0  0  0  0  0  0  0  0  0
   57.6740   32.7640   45.9780 C   0  0  0  0  0  0  0  0  0  0  0  0
   58.0450   33.4880   47.1150 C   0  0  0  0  0  0  0  0  0  0  0  0
   58.9100   34.5800   46.9990 C   0  0  0  0  0  0  0  0  0  0  0  0
   59.4070   34.9480   45.7460 C   0  0  0  0  0  0  0  0  0  0  0  0
   59.0380   34.2270   44.6070 C   0  0  0  0  0  0  0  0  0  0  0  0
   58.1420   30.0580   42.9960 H   0  0  0  0  0  0  0  0  0  0  0  0
   58.6457   32.2997   42.8097 H   0  0  0  0  0  0  0  0  0  0  0  0
   56.9323   32.8202   42.9981 H   0  0  0  0  0  0  0  0  0  0  0  0
   56.9994   31.9004   46.0737 H   0  0  0  0  0  0  0  0  0  0  0  0
   57.6558   33.1980   48.1021 H   0  0  0  0  0  0  0  0  0  0  0  0
   59.1995   35.1497   47.8943 H   0  0  0  0  0  0  0  0  0  0  0  0
   60.0894   35.8061   45.6560 H   0  0  0  0  0  0  0  0  0  0  0  0
   59.4367   34.5151   43.6231 H   0  0  0  0  0  0  0  0  0  0  0  0
  1  2  1  0
  2  3  1  0
  3  4  2  0
  4  5  1  0
  5  6  2  0
  6  7  1  0
  7  8  2  0
  8  3  1  0
  1  9  1  0
  2 10  1  0
  2 11  1  0
  4 12  1  0
  5 13  1  0
  6 14  1  0
  7 15  1  0
  8 16  1  0
M  END
>  <UniqueID>  (22) 
21

>  <SMILES>  (22) 
SCc1ccccc1

>  <Energy>  (22) 
12.236183756459889

>  <Genealogy>  (22) 
SCc1ccccc1 (3D coordinates assigned)
SCc1ccccc1 (optimized conformer: 12.236183756459889 kcal/mol)

>  <smiles>  (22) 
SCc1ccccc1

>  <score_type>  (22) 
oracle

>  <origin>  (22) 
adg

>  <m_score__min__energy>  (22) 
-4.3300000000000001

>  <m_primary>  (22) 
energy

$$$$
22:0
     RDKit          3D

 31 32  0  0  0  0  0  0  0  0999 V2000
   57.4800   33.7340   45.2240 C   0  0  0  0  0  0  0  0  0  0  0  0
   58.5700   33.4320   44.1970 C   0  0  0  0  0  0  0  0  0  0  0  0
   58.2040   32.2710   43.3680 N   0  0  0  0  0  0  0  0  0  0  0  0
   58.4640   32.3660   41.9200 C   0  0  0  0  0  0  0  0  0  0  0  0
   57.1570   32.3540   41.1300 C   0  0  0  0  0  0  0  0  0  0  0  0
   57.6110   31.0760   43.9550 C   0  0  0  0  0  0  0  0  0  0  0  0
   56.2230   30.8240   43.8500 C   0  0  0  0  0  0  0  0  0  0  0  0
   55.6560   29.6750   44.4090 C   0  0  0  0  0  0  0  0  0  0  0  0
   56.4580   28.7590   45.0890 C   0  0  0  0  0  0  0  0  0  0  0  0
   57.8320   28.9900   45.2140 C   0  0  0  0  0  0  0  0  0  0  0  0
   58.4050   30.1310   44.6450 C   0  0  0  0  0  0  0  0  0  0  0  0
   58.6360   28.0630   45.8880 O   0  0  0  0  0  0  0  0  0  0  0  0
   58.1080   27.0570   46.7610 C   0  0  0  0  0  0  0  0  0  0  0  0
   56.7130   26.6580   46.3690 C   0  0  0  0  0  0  0  0  0  0  0  0
   56.2380   25.5580   46.7560 O   0  0  0  0  0  0  0  0  0  0  0  0
   55.8970   27.5600   45.6230 N   0  0  0  0  0  0  0  0  0  0  0  0
   57.8903   33.6203   46.2383 H   0  0  0  0  0  0  0  0  0  0  0  0
   57.1223   34.7651   45.0866 H   0  0  0  0  0  0  0  0  0  0  0  0
   56.6427   33.0340   45.0866 H   0  0  0  0  0  0  0  0  0  0  0  0
   58.7062   34.3095   43.5478 H   0  0  0  0  0  0  0  0  0  0  0  0
   59.5030   33.2015   44.7322 H   0  0  0  0  0  0  0  0  0  0  0  0
   59.0024   33.3023   41.7114 H   0  0  0  0  0  0  0  0  0  0  0  0
   59.0680   31.4992   41.6136 H   0  0  0  0  0  0  0  0  0  0  0  0
   56.3068   32.3462   41.8279 H   0  0  0  0  0  0  0  0  0  0  0  0
   57.1032   33.2517   40.4966 H   0  0  0  0  0  0  0  0  0  0  0  0
   57.1197   31.4555   40.4966 H   0  0  0  0  0  0  0  0  0  0  0  0
   55.5803   31.5428   43.3206 H   0  0  0  0  0  0  0  0  0  0  0  0
   54.5755   29.4931   44.3123 H   0  0  0  0  0  0  0  0  0  0  0  0
   59.4888   30.2961   44.7353 H   0  0  0  0  0  0  0  0  0  0  0  0
   58.7579   26.1705   46.7178 H   0  0  0  0  0  0  0  0  0  0  0  0
   58.0731   27.4706   47.7797 H   0  0  0  0  0  0  0  0  0  0  0  0
  1  2  1  0
  2  3  1  0
  3  4  1  0
  4  5  1  0
  3  6  1  0
  6  7  2  0
  7  8  1  0
  8  9  2  0
  9 10  1  0
 10 11  2  0
 10 12  1  0
 12 13  1  0
 13 14  1  0
 14 15  2  0
 14 16  1  0
 11  6  1  0
 16  9  1  0
  1 17  1  0
  1 18  1  0
  1 19  1  0
  2 20  1  0
  2 21  1  0
  4 22  1  0
  4 23  1  0
  5 24  1  0
  5 25  1  0
  5 26  1  0
  7 27  1  0
  8 28  1  0
 11 29  1  0
 13 30  1  0
 13 31  1  0
M  CHG  1  16  -1
M  END
>  <UniqueID>  (23) 
22

>  <SMILES>  (23) 
CCN(CC)c1ccc2c(c1)OCC(=O)[N-]2

>  <Energy>  (23) 
31.313103305719668

>  <Genealogy>  (23) 
CCN(CC)c1ccc2c(c1)OCC(=O)[N-]2 (protonated)
CCN(CC)c1ccc2c(c1)OCC(=O)[N-]2 (3D coordinates assigned)
CCN(CC)c1ccc2c(c1)OCC(=O)[N-]2 (nonaromatic ring conformer: 31.313103305719668 kcal/mol)

>  <smiles>  (23) 
CCN(CC)c1ccc2c(c1)OCC(=O)N2

>  <score_type>  (23) 
oracle

>  <origin>  (23) 
adg

>  <m_score__min__energy>  (23) 
-7.7000000000000002

>  <m_primary>  (23) 
energy

$$$$
23:0
     RDKit          3D

 51 53  0  0  0  0  0  0  0  0999 V2000
   60.7700   29.3970   48.8620 C   0  0  0  0  0  0  0  0  0  0  0  0
   60.8860   30.7880   48.3180 C   0  0  0  0  0  0  0  0  0  0  0  0
   61.8420   31.1970   47.4100 C   0  0  0  0  0  0  0  0  0  0  0  0
   61.5830   32.5240   47.1470 C   0  0  0  0  0  0  0  0  0  0  0  0
   60.4860   32.8840   47.9140 C   0  0  0  0  0  0  0  0  0  0  0  0
   59.8860   34.2790   47.9260 C   0  0  0  0  0  0  0  0  0  0  0  0
   58.8060   34.4860   46.9330 N   0  0  0  0  0  0  0  0  0  0  0  0
   59.2650   34.9990   45.6230 C   0  0  0  0  0  0  0  0  0  0  0  0
   59.2510   33.9020   44.5520 C   0  0  0  0  0  0  0  0  0  0  0  0
   57.8760   33.3840   44.3360 N   0  0  0  0  0  0  0  0  0  0  0  0
   57.8720   32.0730   43.6360 C   0  0  0  0  0  0  0  0  0  0  0  0
   56.7780   31.0870   44.1010 C   0  0  0  0  0  0  0  0  0  0  0  0
   57.1410   30.5020   45.3520 O   0  0  0  0  0  0  0  0  0  0  0  0
   58.1580   29.5530   45.5470 C   0  0  0  0  0  0  0  0  0  0  0  0
   57.8580   28.4100   46.3000 C   0  0  0  0  0  0  0  0  0  0  0  0
   58.8310   27.4310   46.5240 C   0  0  0  0  0  0  0  0  0  0  0  0
   60.1140   27.5850   45.9930 C   0  0  0  0  0  0  0  0  0  0  0  0
   60.4250   28.7180   45.2370 C   0  0  0  0  0  0  0  0  0  0  0  0
   59.4550   29.6990   45.0110 C   0  0  0  0  0  0  0  0  0  0  0  0
   57.0180   33.4100   45.5560 C   0  0  0  0  0  0  0  0  0  0  0  0
   57.8430   33.3620   46.8530 C   0  0  0  0  0  0  0  0  0  0  0  0
   60.0370   31.8030   48.6010 N   0  0  0  0  0  0  0  0  0  0  0  0
   58.8800   31.7080   49.4950 C   0  0  0  0  0  0  0  0  0  0  0  0
   60.7729   29.4318   49.9614 H   0  0  0  0  0  0  0  0  0  0  0  0
   59.8309   28.9435   48.5120 H   0  0  0  0  0  0  0  0  0  0  0  0
   61.6210   28.7943   48.5120 H   0  0  0  0  0  0  0  0  0  0  0  0
   62.6496   30.5851   46.9819 H   0  0  0  0  0  0  0  0  0  0  0  0
   62.1413   33.1751   46.4583 H   0  0  0  0  0  0  0  0  0  0  0  0
   59.4737   34.4682   48.9281 H   0  0  0  0  0  0  0  0  0  0  0  0
   60.6966   34.9732   47.6596 H   0  0  0  0  0  0  0  0  0  0  0  0
   58.5998   35.8158   45.3063 H   0  0  0  0  0  0  0  0  0  0  0  0
   60.2990   35.3567   45.7363 H   0  0  0  0  0  0  0  0  0  0  0  0
   59.6311   34.3175   43.6070 H   0  0  0  0  0  0  0  0  0  0  0  0
   59.8876   33.0723   44.8930 H   0  0  0  0  0  0  0  0  0  0  0  0
   57.4290   34.0500   43.6610 H   0  0  0  0  0  0  0  0  0  0  0  0
   57.7279   32.2604   42.5617 H   0  0  0  0  0  0  0  0  0  0  0  0
   58.8350   31.5964   43.8714 H   0  0  0  0  0  0  0  0  0  0  0  0
   55.8266   31.6272   44.2149 H   0  0  0  0  0  0  0  0  0  0  0  0
   56.6700   30.2905   43.3501 H   0  0  0  0  0  0  0  0  0  0  0  0
   56.8488   28.2818   46.7184 H   0  0  0  0  0  0  0  0  0  0  0  0
   58.5860   26.5388   47.1189 H   0  0  0  0  0  0  0  0  0  0  0  0
   60.8789   26.8146   46.1700 H   0  0  0  0  0  0  0  0  0  0  0  0
   61.4352   28.8384   44.8187 H   0  0  0  0  0  0  0  0  0  0  0  0
   59.7039   30.5881   44.4130 H   0  0  0  0  0  0  0  0  0  0  0  0
   56.4228   34.3350   45.5498 H   0  0  0  0  0  0  0  0  0  0  0  0
   56.3754   32.5175   45.5336 H   0  0  0  0  0  0  0  0  0  0  0  0
   57.1589   33.4170   47.7127 H   0  0  0  0  0  0  0  0  0  0  0  0
   58.4130   32.4212   46.8618 H   0  0  0  0  0  0  0  0  0  0  0  0
   59.2211   31.7360   50.5404 H   0  0  0  0  0  0  0  0  0  0  0  0
   58.2016   32.5535   49.3079 H   0  0  0  0  0  0  0  0  0  0  0  0
   58.3486   30.7632   49.3079 H   0  0  0  0  0  0  0  0  0  0  0  0
  1  2  1  0
  2  3  2  0
  3  4  1  0
  4  5  2  0
  5  6  1  0
  6  7  1  0
  7  8  1  0
  8  9  1  0
  9 10  1  0
 10 11  1  0
 11 12  1  0
 12 13  1  0
 13 14  1  0
 14 15  2  0
 15 16  1  0
 16 17  2  0
 17 18  1  0
 18 19  2  0
 10 20  1  0
 20 21  1  0
  5 22  1  0
 22 23  1  0
 22  2  1  0
 21  7  1  0
 19 14  1  0
  1 24  1  0
  1 25  1  0
  1 26  1  0
  3 27  1  0
  4 28  1  0
  6 29  1  0
  6 30  1  0
  8 31  1  0
  8 32  1  0
  9 33  1  0
  9 34  1  0
 10 35  1  0
 11 36  1  0
 11 37  1  0
 12 38  1  0
 12 39  1  0
 15 40  1  0
 16 41  1  0
 17 42  1  0
 18 43  1  0
 19 44  1  0
 20 45  1  0
 20 46  1  0
 21 47  1  0
 21 48  1  0
 23 49  1  0
 23 50  1  0
 23 51  1  0
M  CHG  1  10   1
M  END
>  <UniqueID>  (24) 
23

>  <SMILES>  (24) 
Cc1ccc(CN2CC[NH+](CCOc3ccccc3)CC2)n1C

>  <Energy>  (24) 
94.98337108050058

>  <Genealogy>  (24) 
Cc1ccc(CN2CC[NH+](CCOc3ccccc3)CC2)n1C (protonated)
Cc1ccc(CN2CC[NH+](CCOc3ccccc3)CC2)n1C (3D coordinates assigned)
Cc1ccc(CN2CC[NH+](CCOc3ccccc3)CC2)n1C (nonaromatic ring conformer: 94.98337108050058 kcal/mol)

>  <smiles>  (24) 
Cc1ccc(CN2CCN(CCOc3ccccc3)CC2)n1C

>  <score_type>  (24) 
oracle

>  <origin>  (24) 
adg

>  <m_score__min__energy>  (24) 
-5.71

>  <m_primary>  (24) 
energy

$$$$
24:0
     RDKit          3D

 37 39  0  0  0  0  0  0  0  0999 V2000
   63.5510   33.8320   47.1920 C   0  0  0  0  0  0  0  0  0  0  0  0
   62.2930   33.5460   46.3760 C   0  0  0  0  0  0  0  0  0  0  0  0
   61.1710   33.1420   47.2490 N   0  0  0  0  0  0  0  0  0  0  0  0
   59.9890   33.8680   47.2880 C   0  0  0  0  0  0  0  0  0  0  0  0
   59.6980   35.2800   46.2000 S   0  0  0  0  0  0  0  0  0  0  0  0
   58.8300   34.3190   44.9090 C   0  0  0  0  0  0  0  0  0  0  0  0
   57.8430   33.3650   45.5230 C   0  0  0  0  0  0  0  0  0  0  0  0
   57.0260   33.8210   46.3680 O   0  0  0  0  0  0  0  0  0  0  0  0
   57.7840   31.9220   45.1560 C   0  0  0  0  0  0  0  0  0  0  0  0
   58.5130   30.9770   45.9050 C   0  0  0  0  0  0  0  0  0  0  0  0
   58.4670   29.6190   45.5780 C   0  0  0  0  0  0  0  0  0  0  0  0
   57.6960   29.1840   44.5000 C   0  0  0  0  0  0  0  0  0  0  0  0
   56.9690   30.1060   43.7460 C   0  0  0  0  0  0  0  0  0  0  0  0
   57.0100   31.4670   44.0680 C   0  0  0  0  0  0  0  0  0  0  0  0
   59.0000   33.5340   48.1730 N   0  0  0  0  0  0  0  0  0  0  0  0
   59.1420   32.4490   48.9710 C   0  0  0  0  0  0  0  0  0  0  0  0
   58.1980   31.9900   49.8940 C   0  0  0  0  0  0  0  0  0  0  0  0
   58.6240   30.8440   50.5650 C   0  0  0  0  0  0  0  0  0  0  0  0
   60.1640   30.4170   50.0040 S   0  0  0  0  0  0  0  0  0  0  0  0
   60.2810   31.6880   48.9130 C   0  0  0  0  0  0  0  0  0  0  0  0
   61.3110   32.0290   48.0490 C   0  0  0  0  0  0  0  0  0  0  0  0
   62.3570   31.3240   48.0130 O   0  0  0  0  0  0  0  0  0  0  0  0
   63.3126   33.7778   48.2645 H   0  0  0  0  0  0  0  0  0  0  0  0
   64.3226   33.0864   46.9498 H   0  0  0  0  0  0  0  0  0  0  0  0
   63.9244   34.8379   46.9498 H   0  0  0  0  0  0  0  0  0  0  0  0
   62.0092   34.4540   45.8238 H   0  0  0  0  0  0  0  0  0  0  0  0
   62.5084   32.7212   45.6808 H   0  0  0  0  0  0  0  0  0  0  0  0
   58.2948   35.0118   44.2430 H   0  0  0  0  0  0  0  0  0  0  0  0
   59.5737   33.7392   44.3427 H   0  0  0  0  0  0  0  0  0  0  0  0
   59.1246   31.3116   46.7559 H   0  0  0  0  0  0  0  0  0  0  0  0
   59.0400   28.8917   46.1719 H   0  0  0  0  0  0  0  0  0  0  0  0
   57.6611   28.1147   44.2444 H   0  0  0  0  0  0  0  0  0  0  0  0
   56.3618   29.7618   42.8958 H   0  0  0  0  0  0  0  0  0  0  0  0
   56.4344   32.1875   43.4683 H   0  0  0  0  0  0  0  0  0  0  0  0
   58.1260   34.1060   48.2260 H   0  0  0  0  0  0  0  0  0  0  0  0
   57.2281   32.4778   50.0712 H   0  0  0  0  0  0  0  0  0  0  0  0
   58.0521   30.3045   51.3344 H   0  0  0  0  0  0  0  0  0  0  0  0
  1  2  1  0
  2  3  1  0
  3  4  1  0
  4  5  1  0
  5  6  1  0
  6  7  1  0
  7  8  2  0
  7  9  1  0
  9 10  2  0
 10 11  1  0
 11 12  2  0
 12 13  1  0
 13 14  2  0
  4 15  2  0
 15 16  1  0
 16 17  1  0
 17 18  2  0
 18 19  1  0
 19 20  1  0
 20 21  1  0
 21 22  2  0
 21  3  1  0
 14  9  1  0
 20 16  2  0
  1 23  1  0
  1 24  1  0
  1 25  1  0
  2 26  1  0
  2 27  1  0
  6 28  1  0
  6 29  1  0
 10 30  1  0
 11 31  1  0
 12 32  1  0
 13 33  1  0
 14 34  1  0
 15 35  1  0
 17 36  1  0
 18 37  1  0
M  CHG  1  15   1
M  END
>  <UniqueID>  (25) 
24

>  <SMILES>  (25) 
CCn1c(SCC(=O)c2ccccc2)[nH+]c2ccsc2c1=O

>  <Energy>  (25) 
71.03005714347282

>  <Genealogy>  (25) 
CCn1c(SCC(=O)c2ccccc2)[nH+]c2ccsc2c1=O (protonated)
CCn1c(SCC(=O)c2ccccc2)[nH+]c2ccsc2c1=O (3D coordinates assigned)
CCn1c(SCC(=O)c2ccccc2)[nH+]c2ccsc2c1=O (optimized conformer: 71.03005714347282 kcal/mol)

>  <smiles>  (25) 
CCn1c(SCC(=O)c2ccccc2)nc2ccsc2c1=O

>  <score_type>  (25) 
oracle

>  <origin>  (25) 
adg

>  <m_score__min__energy>  (25) 
-5.6299999999999999

>  <m_primary>  (25) 
energy

$$$$
25:0
     RDKit          3D

 50 52  0  0  0  0  0  0  0  0999 V2000
   55.9380   23.1620   42.9650 C   0  0  0  0  0  0  0  0  0  0  0  0
   56.1510   21.9600   43.7910 N   0  0  0  0  0  0  0  0  0  0  0  0
   57.3790   21.2780   43.3480 C   0  0  0  0  0  0  0  0  0  0  0  0
   56.2490   22.3110   45.2250 C   0  0  0  0  0  0  0  0  0  0  0  0
   55.5000   23.6170   45.5160 C   0  0  0  0  0  0  0  0  0  0  0  0
   56.4460   24.6970   45.7870 N   0  0  0  0  0  0  0  0  0  0  0  0
   56.0290   26.0600   45.9710 C   0  0  0  0  0  0  0  0  0  0  0  0
   54.8000   26.3390   46.0230 O   0  0  0  0  0  0  0  0  0  0  0  0
   57.0240   27.1420   46.1390 C   0  0  0  0  0  0  0  0  0  0  0  0
   58.1650   26.9030   46.9180 C   0  0  0  0  0  0  0  0  0  0  0  0
   59.1440   27.8870   47.0550 C   0  0  0  0  0  0  0  0  0  0  0  0
   60.5920   27.5510   47.9880 Cl  0  0  0  0  0  0  0  0  0  0  0  0
   58.9770   29.1360   46.4530 C   0  0  0  0  0  0  0  0  0  0  0  0
   57.8080   29.4310   45.7160 C   0  0  0  0  0  0  0  0  0  0  0  0
   56.8550   28.4040   45.5330 C   0  0  0  0  0  0  0  0  0  0  0  0
   55.7310   28.6550   44.7470 O   0  0  0  0  0  0  0  0  0  0  0  0
   55.7200   29.7280   43.8170 C   0  0  0  0  0  0  0  0  0  0  0  0
   56.2500   30.9930   44.4840 C   0  0  0  0  0  0  0  0  0  0  0  0
   57.5450   30.7540   45.1550 N   0  0  0  0  0  0  0  0  0  0  0  0
   58.5400   31.8510   45.2900 C   0  0  0  0  0  0  0  0  0  0  0  0
   58.2060   32.9900   44.3170 C   0  0  0  0  0  0  0  0  0  0  0  0
   58.2670   34.2820   45.1180 C   0  0  0  0  0  0  0  0  0  0  0  0
   58.0310   33.8820   46.5620 C   0  0  0  0  0  0  0  0  0  0  0  0
   58.6350   32.4940   46.6900 C   0  0  0  0  0  0  0  0  0  0  0  0
   55.7836   24.0333   43.6185 H   0  0  0  0  0  0  0  0  0  0  0  0
   56.8201   23.3316   42.3300 H   0  0  0  0  0  0  0  0  0  0  0  0
   55.0513   23.0182   42.3300 H   0  0  0  0  0  0  0  0  0  0  0  0
   57.9574   20.9568   44.2268 H   0  0  0  0  0  0  0  0  0  0  0  0
   57.1123   20.3988   42.7432 H   0  0  0  0  0  0  0  0  0  0  0  0
   57.9844   21.9691   42.7432 H   0  0  0  0  0  0  0  0  0  0  0  0
   55.8095   21.5011   45.8258 H   0  0  0  0  0  0  0  0  0  0  0  0
   57.3094   22.4463   45.4842 H   0  0  0  0  0  0  0  0  0  0  0  0
   54.8850   23.8842   44.6440 H   0  0  0  0  0  0  0  0  0  0  0  0
   54.8607   23.4725   46.3994 H   0  0  0  0  0  0  0  0  0  0  0  0
   57.4550   24.4480   45.8920 H   0  0  0  0  0  0  0  0  0  0  0  0
   58.2888   25.9341   47.4239 H   0  0  0  0  0  0  0  0  0  0  0  0
   59.7637   29.8982   46.5536 H   0  0  0  0  0  0  0  0  0  0  0  0
   56.3576   29.4733   42.9576 H   0  0  0  0  0  0  0  0  0  0  0  0
   54.6894   29.9019   43.4742 H   0  0  0  0  0  0  0  0  0  0  0  0
   56.3834   31.7711   43.7180 H   0  0  0  0  0  0  0  0  0  0  0  0
   55.5222   31.3108   45.2451 H   0  0  0  0  0  0  0  0  0  0  0  0
   59.5014   31.3604   45.0776 H   0  0  0  0  0  0  0  0  0  0  0  0
   58.9402   33.0166   43.4983 H   0  0  0  0  0  0  0  0  0  0  0  0
   57.2111   32.8488   43.8695 H   0  0  0  0  0  0  0  0  0  0  0  0
   59.2538   34.7553   45.0076 H   0  0  0  0  0  0  0  0  0  0  0  0
   57.5189   35.0101   44.7712 H   0  0  0  0  0  0  0  0  0  0  0  0
   58.5306   34.5853   47.2445 H   0  0  0  0  0  0  0  0  0  0  0  0
   56.9628   33.8932   46.8242 H   0  0  0  0  0  0  0  0  0  0  0  0
   59.6860   32.5635   47.0070 H   0  0  0  0  0  0  0  0  0  0  0  0
   58.1033   31.8939   47.4431 H   0  0  0  0  0  0  0  0  0  0  0  0
  1  2  1  0
  2  3  1  0
  2  4  1  0
  4  5  1  0
  5  6  1  0
  6  7  1  0
  7  8  2  0
  7  9  1  0
  9 10  2  0
 10 11  1  0
 11 12  1  0
 11 13  2  0
 13 14  1  0
 14 15  2  0
 15 16  1  0
 16 17  1  0
 17 18  1  0
 18 19  1  0
 19 20  1  0
 20 21  1  0
 21 22  1  0
 22 23  1  0
 23 24  1  0
 15  9  1  0
 24 20  1  0
 19 14  1  0
  1 25  1  0
  1 26  1  0
  1 27  1  0
  3 28  1  0
  3 29  1  0
  3 30  1  0
  4 31  1  0
  4 32  1  0
  5 33  1  0
  5 34  1  0
  6 35  1  0
 10 36  1  0
 13 37  1  0
 17 38  1  0
 17 39  1  0
 18 40  1  0
 18 41  1  0
 20 42  1  0
 21 43  1  0
 21 44  1  0
 22 45  1  0
 22 46  1  0
 23 47  1  0
 23 48  1  0
 24 49  1  0
 24 50  1  0
M  END
>  <UniqueID>  (26) 
25

>  <SMILES>  (26) 
CN(C)CCNC(=O)c1cc(Cl)cc2c1OCCN2C1CCCC1

>  <Energy>  (26) 
59.23209741933222

>  <Genealogy>  (26) 
CN(C)CCNC(=O)c1cc(Cl)cc2c1OCCN2C1CCCC1 (3D coordinates assigned)
CN(C)CCNC(=O)c1cc(Cl)cc2c1OCCN2C1CCCC1 (nonaromatic ring conformer: 59.23209741933222 kcal/mol)

>  <smiles>  (26) 
CN(C)CCNC(=O)c1cc(Cl)cc2c1OCCN2C1CCCC1

>  <score_type>  (26) 
oracle

>  <origin>  (26) 
adg

>  <m_score__min__energy>  (26) 
-8.6699999999999999

>  <m_primary>  (26) 
energy

$$$$
26:0
     RDKit          3D

 51 55  0  0  0  0  0  0  0  0999 V2000
   60.7730   27.4580   46.0690 C   0  0  0  0  0  0  0  0  0  0  0  0
   59.7820   28.5330   46.1130 N   0  0  0  0  0  0  0  0  0  0  0  0
   59.7050   29.5710   46.9890 C   0  0  0  0  0  0  0  0  0  0  0  0
   60.5980   29.7360   48.1840 C   0  0  0  0  0  0  0  0  0  0  0  0
   61.5730   30.8200   47.9570 N   0  0  0  0  0  0  0  0  0  0  0  0
   62.2810   31.2070   49.2060 C   0  0  0  0  0  0  0  0  0  0  0  0
   63.0480   32.5530   49.0650 C   0  0  1  0  0  0  0  0  0  0  0  0
   63.2580   32.8500   47.5880 C   0  0  0  0  0  0  0  0  0  0  0  0
   61.8400   33.2480   47.2300 C   0  0  1  0  0  0  0  0  0  0  0  0
   60.9490   31.9560   47.2310 C   0  0  0  0  0  0  0  0  0  0  0  0
   61.4950   34.2140   48.2940 N   0  0  0  0  0  0  0  0  0  0  0  0
   60.0780   34.5830   48.4910 C   0  0  0  0  0  0  0  0  0  0  0  0
   59.2910   34.4360   47.2140 C   0  0  0  0  0  0  0  0  0  0  0  0
   58.1430   33.6300   47.1820 C   0  0  0  0  0  0  0  0  0  0  0  0
   57.4190   33.5080   45.9940 C   0  0  0  0  0  0  0  0  0  0  0  0
   57.8300   34.1620   44.8750 N   0  0  0  0  0  0  0  0  0  0  0  0
   58.9410   34.9450   44.8750 C   0  0  0  0  0  0  0  0  0  0  0  0
   59.6940   35.0950   46.0420 C   0  0  0  0  0  0  0  0  0  0  0  0
   62.1600   33.7280   49.5090 C   0  0  0  0  0  0  0  0  0  0  0  0
   58.7060   30.4460   46.7030 N   0  0  0  0  0  0  0  0  0  0  0  0
   58.1630   29.9300   45.5850 C   0  0  0  0  0  0  0  0  0  0  0  0
   57.1020   30.4430   44.8420 C   0  0  0  0  0  0  0  0  0  0  0  0
   56.7130   29.7430   43.6850 C   0  0  0  0  0  0  0  0  0  0  0  0
   57.3890   28.5620   43.3020 C   0  0  0  0  0  0  0  0  0  0  0  0
   58.4570   28.0700   44.0740 C   0  0  0  0  0  0  0  0  0  0  0  0
   58.8120   28.7860   45.2200 C   0  0  0  0  0  0  0  0  0  0  0  0
   61.0426   27.1656   47.0946 H   0  0  0  0  0  0  0  0  0  0  0  0
   60.3505   26.5912   45.5397 H   0  0  0  0  0  0  0  0  0  0  0  0
   61.6712   27.8088   45.5397 H   0  0  0  0  0  0  0  0  0  0  0  0
   59.9839   29.9802   49.0634 H   0  0  0  0  0  0  0  0  0  0  0  0
   61.1446   28.7962   48.3512 H   0  0  0  0  0  0  0  0  0  0  0  0
   61.5415   31.3057   50.0143 H   0  0  0  0  0  0  0  0  0  0  0  0
   63.0205   30.4232   49.4269 H   0  0  0  0  0  0  0  0  0  0  0  0
   63.9734   32.4599   49.6523 H   0  0  0  0  0  0  0  0  0  0  0  0
   63.9712   33.6722   47.4287 H   0  0  0  0  0  0  0  0  0  0  0  0
   63.6863   32.0294   46.9938 H   0  0  0  0  0  0  0  0  0  0  0  0
   61.7003   33.6972   46.2357 H   0  0  0  0  0  0  0  0  0  0  0  0
   59.9883   32.1933   47.7112 H   0  0  0  0  0  0  0  0  0  0  0  0
   60.8195   31.6453   46.1838 H   0  0  0  0  0  0  0  0  0  0  0  0
   59.6406   33.9280   49.2588 H   0  0  0  0  0  0  0  0  0  0  0  0
   60.0341   35.6359   48.8065 H   0  0  0  0  0  0  0  0  0  0  0  0
   57.8153   33.0975   48.0870 H   0  0  0  0  0  0  0  0  0  0  0  0
   56.5150   32.8820   45.9635 H   0  0  0  0  0  0  0  0  0  0  0  0
   59.2480   35.4618   43.9538 H   0  0  0  0  0  0  0  0  0  0  0  0
   60.5959   35.7248   46.0425 H   0  0  0  0  0  0  0  0  0  0  0  0
   62.7745   34.5249   49.9532 H   0  0  0  0  0  0  0  0  0  0  0  0
   61.4301   33.4162   50.2706 H   0  0  0  0  0  0  0  0  0  0  0  0
   56.5857   31.3643   45.1495 H   0  0  0  0  0  0  0  0  0  0  0  0
   55.8777   30.1171   43.0748 H   0  0  0  0  0  0  0  0  0  0  0  0
   57.0778   28.0242   42.3943 H   0  0  0  0  0  0  0  0  0  0  0  0
   58.9936   27.1541   43.7857 H   0  0  0  0  0  0  0  0  0  0  0  0
  1  2  1  0
  2  3  1  0
  3  4  1  0
  4  5  1  0
  5  6  1  0
  6  7  1  0
  7  8  1  0
  8  9  1  0
  9 10  1  0
  9 11  1  0
 11 12  1  0
 12 13  1  0
 13 14  2  0
 14 15  1  0
 15 16  2  0
 16 17  1  0
 17 18  2  0
 11 19  1  0
  3 20  2  0
 20 21  1  0
 21 22  2  0
 22 23  1  0
 23 24  2  0
 24 25  1  0
 25 26  2  0
 26  2  1  0
 10  5  1  0
 18 13  1  0
 26 21  1  0
 19  7  1  0
  1 27  1  0
  1 28  1  0
  1 29  1  0
  4 30  1  0
  4 31  1  0
  6 32  1  0
  6 33  1  0
  7 34  1  1
  8 35  1  0
  8 36  1  0
  9 37  1  6
 10 38  1  0
 10 39  1  0
 12 40  1  0
 12 41  1  0
 14 42  1  0
 15 43  1  0
 17 44  1  0
 18 45  1  0
 19 46  1  0
 19 47  1  0
 22 48  1  0
 23 49  1  0
 24 50  1  0
 25 51  1  0
M  END
>  <UniqueID>  (27) 
26

>  <SMILES>  (27) 
Cn1c(CN2C[C@H]3C[C@@H](C2)N(Cc2ccncc2)C3)nc2ccccc21

>  <Energy>  (27) 
121.19236986889831

>  <Genealogy>  (27) 
Cn1c(CN2C[C@H]3C[C@@H](C2)N(Cc2ccncc2)C3)nc2ccccc21 (chirality)
Cn1c(CN2C[C@H]3C[C@@H](C2)N(Cc2ccncc2)C3)nc2ccccc21 (3D coordinates assigned)
Cn1c(CN2C[C@H]3C[C@@H](C2)N(Cc2ccncc2)C3)nc2ccccc21 (nonaromatic ring conformer: 121.19236986889831 kcal/mol)

>  <smiles>  (27) 
Cn1c(CN2CC3CC(C2)N(Cc2ccncc2)C3)nc2ccccc21

>  <score_type>  (27) 
oracle

>  <origin>  (27) 
adg

>  <m_score__min__energy>  (27) 
-8.8100000000000005

>  <m_primary>  (27) 
energy

$$$$
27:0
     RDKit          3D

 43 44  0  0  0  0  0  0  0  0999 V2000
   63.3930   33.8880   46.3580 C   0  0  0  0  0  0  0  0  0  0  0  0
   62.2480   33.5580   47.3120 C   0  0  0  0  0  0  0  0  0  0  0  0
   62.4200   32.2060   47.9010 N   0  0  0  0  0  0  0  0  0  0  0  0
   63.7810   32.0640   48.4710 C   0  0  0  0  0  0  0  0  0  0  0  0
   63.9990   33.0780   49.5900 C   0  0  0  0  0  0  0  0  0  0  0  0
   61.3830   31.9620   48.9340 C   0  0  0  0  0  0  0  0  0  0  0  0
   60.1020   31.3450   48.3420 C   0  0  0  0  0  0  0  0  0  0  0  0
   60.1330   31.2770   46.8770 N   0  0  0  0  0  0  0  0  0  0  0  0
   59.0200   30.8540   46.0620 C   0  0  0  0  0  0  0  0  0  0  0  0
   58.0330   31.7690   45.6440 C   0  0  0  0  0  0  0  0  0  0  0  0
   58.0380   33.1440   46.0680 C   0  0  0  0  0  0  0  0  0  0  0  0
   58.0490   34.2520   46.4050 N   0  0  0  0  0  0  0  0  0  0  0  0
   57.0020   31.3520   44.8680 N   0  0  0  0  0  0  0  0  0  0  0  0
   56.8520   30.0660   44.4630 C   0  0  0  0  0  0  0  0  0  0  0  0
   55.6730   29.7330   43.5930 C   0  0  0  0  0  0  0  0  0  0  0  0
   57.7910   29.0930   44.8730 C   0  0  0  0  0  0  0  0  0  0  0  0
   57.6760   27.7410   44.4860 C   0  0  0  0  0  0  0  0  0  0  0  0
   58.6240   26.8040   44.8930 C   0  0  0  0  0  0  0  0  0  0  0  0
   59.6990   27.1940   45.6880 C   0  0  0  0  0  0  0  0  0  0  0  0
   59.8310   28.5240   46.0840 C   0  0  0  0  0  0  0  0  0  0  0  0
   58.8830   29.4930   45.6900 C   0  0  0  0  0  0  0  0  0  0  0  0
   64.2908   34.1468   46.9384 H   0  0  0  0  0  0  0  0  0  0  0  0
   63.6054   33.0145   45.7240 H   0  0  0  0  0  0  0  0  0  0  0  0
   63.1079   34.7405   45.7240 H   0  0  0  0  0  0  0  0  0  0  0  0
   62.2276   34.3030   48.1210 H   0  0  0  0  0  0  0  0  0  0  0  0
   61.3043   33.5771   46.7472 H   0  0  0  0  0  0  0  0  0  0  0  0
   63.9003   31.0478   48.8748 H   0  0  0  0  0  0  0  0  0  0  0  0
   64.5204   32.2453   47.6770 H   0  0  0  0  0  0  0  0  0  0  0  0
   63.8915   32.5781   50.5639 H   0  0  0  0  0  0  0  0  0  0  0  0
   65.0094   33.5047   49.5064 H   0  0  0  0  0  0  0  0  0  0  0  0
   63.2532   33.8823   49.5064 H   0  0  0  0  0  0  0  0  0  0  0  0
   61.7908   31.2738   49.6890 H   0  0  0  0  0  0  0  0  0  0  0  0
   61.1152   32.9323   49.3777 H   0  0  0  0  0  0  0  0  0  0  0  0
   59.9857   30.3260   48.7395 H   0  0  0  0  0  0  0  0  0  0  0  0
   59.2586   31.9909   48.6276 H   0  0  0  0  0  0  0  0  0  0  0  0
   60.9770   31.6660   46.4010 H   0  0  0  0  0  0  0  0  0  0  0  0
   54.8074   29.4885   44.2263 H   0  0  0  0  0  0  0  0  0  0  0  0
   55.4301   30.5977   42.9579 H   0  0  0  0  0  0  0  0  0  0  0  0
   55.9184   28.8690   42.9579 H   0  0  0  0  0  0  0  0  0  0  0  0
   56.8307   27.4238   43.8576 H   0  0  0  0  0  0  0  0  0  0  0  0
   58.5228   25.7528   44.5853 H   0  0  0  0  0  0  0  0  0  0  0  0
   60.4457   26.4507   46.0042 H   0  0  0  0  0  0  0  0  0  0  0  0
   60.6842   28.8221   46.7111 H   0  0  0  0  0  0  0  0  0  0  0  0
  1  2  1  0
  2  3  1  0
  3  4  1  0
  4  5  1  0
  3  6  1  0
  6  7  1  0
  7  8  1  0
  8  9  1  0
  9 10  2  0
 10 11  1  0
 11 12  3  0
 10 13  1  0
 13 14  2  0
 14 15  1  0
 14 16  1  0
 16 17  2  0
 17 18  1  0
 18 19  2  0
 19 20  1  0
 20 21  2  0
 21  9  1  0
 21 16  1  0
  1 22  1  0
  1 23  1  0
  1 24  1  0
  2 25  1  0
  2 26  1  0
  4 27  1  0
  4 28  1  0
  5 29  1  0
  5 30  1  0
  5 31  1  0
  6 32  1  0
  6 33  1  0
  7 34  1  0
  7 35  1  0
  8 36  1  0
 15 37  1  0
 15 38  1  0
 15 39  1  0
 17 40  1  0
 18 41  1  0
 19 42  1  0
 20 43  1  0
M  END
>  <UniqueID>  (28) 
27

>  <SMILES>  (28) 
CCN(CC)CCNc1c(C#N)nc(C)c2ccccc12

>  <Energy>  (28) 
47.40022439276495

>  <Genealogy>  (28) 
CCN(CC)CCNc1c(C#N)nc(C)c2ccccc12 (3D coordinates assigned)
CCN(CC)CCNc1c(C#N)nc(C)c2ccccc12 (optimized conformer: 47.40022439276495 kcal/mol)

>  <smiles>  (28) 
CCN(CC)CCNc1c(C#N)nc(C)c2ccccc12

>  <score_type>  (28) 
oracle

>  <origin>  (28) 
adg

>  <m_score__min__energy>  (28) 
-6.2199999999999998

>  <m_primary>  (28) 
energy

$$$$
28:0
     RDKit          3D

 41 42  0  0  0  0  0  0  0  0999 V2000
   63.1210   33.5140   46.7930 C   0  0  0  0  0  0  0  0  0  0  0  0
   62.6160   32.4630   47.7860 C   0  0  0  0  0  0  0  0  0  0  0  0
   61.9270   31.3440   47.1170 N   0  0  0  0  0  0  0  0  0  0  0  0
   61.1040   30.5590   48.0560 C   0  0  0  0  0  0  0  0  0  0  0  0
   59.9710   29.8150   47.3340 C   0  0  0  0  0  0  0  0  0  0  0  0
   59.9480   30.1220   45.9380 O   0  0  0  0  0  0  0  0  0  0  0  0
   58.7750   30.2510   45.1800 C   0  0  0  0  0  0  0  0  0  0  0  0
   58.2260   29.0970   44.5830 C   0  0  0  0  0  0  0  0  0  0  0  0
   58.8810   27.7550   44.7570 C   0  0  0  0  0  0  0  0  0  0  0  0
   57.1120   29.2160   43.7390 C   0  0  0  0  0  0  0  0  0  0  0  0
   56.5180   30.4580   43.5250 C   0  0  0  0  0  0  0  0  0  0  0  0
   57.0200   31.5930   44.1580 C   0  0  0  0  0  0  0  0  0  0  0  0
   58.1400   31.5050   45.0020 C   0  0  0  0  0  0  0  0  0  0  0  0
   58.5830   32.7160   45.7320 C   0  0  0  0  0  0  0  0  0  0  0  0
   58.4980   32.7750   47.1350 C   0  0  0  0  0  0  0  0  0  0  0  0
   58.9200   33.9180   47.8200 C   0  0  0  0  0  0  0  0  0  0  0  0
   59.4260   35.0120   47.1120 C   0  0  0  0  0  0  0  0  0  0  0  0
   59.5070   34.9660   45.7190 C   0  0  0  0  0  0  0  0  0  0  0  0
   59.0860   33.8250   45.0290 C   0  0  0  0  0  0  0  0  0  0  0  0
   63.5331   34.3717   47.3448 H   0  0  0  0  0  0  0  0  0  0  0  0
   63.9058   33.0736   46.1605 H   0  0  0  0  0  0  0  0  0  0  0  0
   62.2867   33.8516   46.1605 H   0  0  0  0  0  0  0  0  0  0  0  0
   63.4747   32.0649   48.3465 H   0  0  0  0  0  0  0  0  0  0  0  0
   61.8915   32.9525   48.4535 H   0  0  0  0  0  0  0  0  0  0  0  0
   62.6320   30.7350   46.6450 H   0  0  0  0  0  0  0  0  0  0  0  0
   61.3020   31.7480   46.3800 H   0  0  0  0  0  0  0  0  0  0  0  0
   61.7458   29.8242   48.5640 H   0  0  0  0  0  0  0  0  0  0  0  0
   60.6516   31.2540   48.7787 H   0  0  0  0  0  0  0  0  0  0  0  0
   60.1179   28.7321   47.4593 H   0  0  0  0  0  0  0  0  0  0  0  0
   59.0142   30.1341   47.7731 H   0  0  0  0  0  0  0  0  0  0  0  0
   58.9881   27.5356   45.8296 H   0  0  0  0  0  0  0  0  0  0  0  0
   58.2599   26.9798   44.2844 H   0  0  0  0  0  0  0  0  0  0  0  0
   59.8742   27.7677   44.2844 H   0  0  0  0  0  0  0  0  0  0  0  0
   56.7046   28.3228   43.2428 H   0  0  0  0  0  0  0  0  0  0  0  0
   55.6502   30.5427   42.8544 H   0  0  0  0  0  0  0  0  0  0  0  0
   56.5352   32.5669   43.9956 H   0  0  0  0  0  0  0  0  0  0  0  0
   58.0975   31.9175   47.6956 H   0  0  0  0  0  0  0  0  0  0  0  0
   58.8539   33.9567   48.9173 H   0  0  0  0  0  0  0  0  0  0  0  0
   59.7605   35.9096   47.6527 H   0  0  0  0  0  0  0  0  0  0  0  0
   59.9027   35.8289   45.1633 H   0  0  0  0  0  0  0  0  0  0  0  0
   59.1486   33.7949   43.9312 H   0  0  0  0  0  0  0  0  0  0  0  0
  1  2  1  0
  2  3  1  0
  3  4  1  0
  4  5  1  0
  5  6  1  0
  6  7  1  0
  7  8  2  0
  8  9  1  0
  8 10  1  0
 10 11  2  0
 11 12  1  0
 12 13  2  0
 13 14  1  0
 14 15  2  0
 15 16  1  0
 16 17  2  0
 17 18  1  0
 18 19  2  0
 13  7  1  0
 19 14  1  0
  1 20  1  0
  1 21  1  0
  1 22  1  0
  2 23  1  0
  2 24  1  0
  3 25  1  0
  3 26  1  0
  4 27  1  0
  4 28  1  0
  5 29  1  0
  5 30  1  0
  9 31  1  0
  9 32  1  0
  9 33  1  0
 10 34  1  0
 11 35  1  0
 12 36  1  0
 15 37  1  0
 16 38  1  0
 17 39  1  0
 18 40  1  0
 19 41  1  0
M  CHG  1   3   1
M  END
>  <UniqueID>  (29) 
28

>  <SMILES>  (29) 
CC[NH2+]CCOc1c(C)cccc1-c1ccccc1

>  <Energy>  (29) 
47.84269121804259

>  <Genealogy>  (29) 
CC[NH2+]CCOc1c(C)cccc1-c1ccccc1 (protonated)
CC[NH2+]CCOc1c(C)cccc1-c1ccccc1 (3D coordinates assigned)
CC[NH2+]CCOc1c(C)cccc1-c1ccccc1 (optimized conformer: 47.84269121804259 kcal/mol)

>  <smiles>  (29) 
CCNCCOc1c(C)cccc1-c1ccccc1

>  <score_type>  (29) 
oracle

>  <origin>  (29) 
adg

>  <m_score__min__energy>  (29) 
-5.4400000000000004

>  <m_primary>  (29) 
energy

$$$$
29:0
     RDKit          3D

 51 52  0  0  0  0  0  0  0  0999 V2000
   57.7510   31.8440   42.6390 C   0  0  0  0  0  0  0  0  0  0  0  0
   58.1010   31.4020   44.0690 C   0  0  0  0  0  0  0  0  0  0  0  0
   58.0510   29.9360   44.3040 N   0  0  0  0  0  0  0  0  0  0  0  0
   56.8020   29.3890   44.8780 C   0  0  0  0  0  0  0  0  0  0  0  0
   55.5850   29.8680   44.0900 C   0  0  0  0  0  0  0  0  0  0  0  0
   59.2860   29.3560   44.8750 C   0  0  0  0  0  0  0  0  0  0  0  0
   59.5910   29.8370   46.3010 C   0  0  0  0  0  0  0  0  0  0  0  0
   60.6540   30.7870   46.2830 O   0  0  0  0  0  0  0  0  0  0  0  0
   61.0290   31.5470   47.3980 C   0  0  0  0  0  0  0  0  0  0  0  0
   61.3760   30.9700   48.4660 O   0  0  0  0  0  0  0  0  0  0  0  0
   61.0640   33.0660   47.2780 C   0  0  0  0  0  0  0  0  0  0  0  0
   59.7410   33.4950   46.6190 C   0  0  0  0  0  0  0  0  0  0  0  0
   58.5210   33.0950   47.2120 C   0  0  0  0  0  0  0  0  0  0  0  0
   57.2950   33.4530   46.6480 C   0  0  0  0  0  0  0  0  0  0  0  0
   57.2560   34.2130   45.4790 C   0  0  0  0  0  0  0  0  0  0  0  0
   58.4460   34.6150   44.8720 C   0  0  0  0  0  0  0  0  0  0  0  0
   59.6780   34.2600   45.4310 C   0  0  0  0  0  0  0  0  0  0  0  0
   61.2570   33.6560   48.7060 C   0  0  0  0  0  0  0  0  0  0  0  0
   62.5700   33.1980   49.3780 C   0  0  0  0  0  0  0  0  0  0  0  0
   63.7160   32.9480   48.3820 C   0  0  0  0  0  0  0  0  0  0  0  0
   63.5780   33.8140   47.1280 C   0  0  0  0  0  0  0  0  0  0  0  0
   62.2490   33.5680   46.3790 C   0  0  0  0  0  0  0  0  0  0  0  0
   57.0686   32.7058   42.6783 H   0  0  0  0  0  0  0  0  0  0  0  0
   58.6711   32.1288   42.1077 H   0  0  0  0  0  0  0  0  0  0  0  0
   57.2629   31.0137   42.1077 H   0  0  0  0  0  0  0  0  0  0  0  0
   59.1206   31.7488   44.2932 H   0  0  0  0  0  0  0  0  0  0  0  0
   57.3350   31.8440   44.7231 H   0  0  0  0  0  0  0  0  0  0  0  0
   56.8420   28.2902   44.8462 H   0  0  0  0  0  0  0  0  0  0  0  0
   56.7090   29.7401   45.9163 H   0  0  0  0  0  0  0  0  0  0  0  0
   54.7947   30.1790   44.7891 H   0  0  0  0  0  0  0  0  0  0  0  0
   55.8707   30.7208   43.4566 H   0  0  0  0  0  0  0  0  0  0  0  0
   55.2128   29.0493   43.4566 H   0  0  0  0  0  0  0  0  0  0  0  0
   59.1797   28.2613   44.8929 H   0  0  0  0  0  0  0  0  0  0  0  0
   60.1205   29.6859   44.2388 H   0  0  0  0  0  0  0  0  0  0  0  0
   58.6916   30.3060   46.7265 H   0  0  0  0  0  0  0  0  0  0  0  0
   59.8905   28.9745   46.9145 H   0  0  0  0  0  0  0  0  0  0  0  0
   58.5383   32.4924   48.1321 H   0  0  0  0  0  0  0  0  0  0  0  0
   56.3572   33.1348   47.1269 H   0  0  0  0  0  0  0  0  0  0  0  0
   56.2890   34.4947   45.0367 H   0  0  0  0  0  0  0  0  0  0  0  0
   58.4153   35.2138   43.9498 H   0  0  0  0  0  0  0  0  0  0  0  0
   60.6093   34.5797   44.9407 H   0  0  0  0  0  0  0  0  0  0  0  0
   61.2652   34.7536   48.6332 H   0  0  0  0  0  0  0  0  0  0  0  0
   60.4258   33.2908   49.3270 H   0  0  0  0  0  0  0  0  0  0  0  0
   62.8884   33.9770   50.0864 H   0  0  0  0  0  0  0  0  0  0  0  0
   62.3606   32.2401   49.8766 H   0  0  0  0  0  0  0  0  0  0  0  0
   64.6720   33.1823   48.8731 H   0  0  0  0  0  0  0  0  0  0  0  0
   63.6777   31.8925   48.0746 H   0  0  0  0  0  0  0  0  0  0  0  0
   63.6249   34.8724   47.4239 H   0  0  0  0  0  0  0  0  0  0  0  0
   64.3989   33.5464   46.4464 H   0  0  0  0  0  0  0  0  0  0  0  0
   61.9429   34.5135   45.9076 H   0  0  0  0  0  0  0  0  0  0  0  0
   62.4481   32.7637   45.6555 H   0  0  0  0  0  0  0  0  0  0  0  0
  1  2  1  0
  2  3  1  0
  3  4  1  0
  4  5  1  0
  3  6  1  0
  6  7  1  0
  7  8  1  0
  8  9  1  0
  9 10  2  0
  9 11  1  0
 11 12  1  0
 12 13  2  0
 13 14  1  0
 14 15  2  0
 15 16  1  0
 16 17  2  0
 11 18  1  0
 18 19  1  0
 19 20  1  0
 20 21  1  0
 21 22  1  0
 22 11  1  0
 17 12  1  0
  1 23  1  0
  1 24  1  0
  1 25  1  0
  2 26  1  0
  2 27  1  0
  4 28  1  0
  4 29  1  0
  5 30  1  0
  5 31  1  0
  5 32  1  0
  6 33  1  0
  6 34  1  0
  7 35  1  0
  7 36  1  0
 13 37  1  0
 14 38  1  0
 15 39  1  0
 16 40  1  0
 17 41  1  0
 18 42  1  0
 18 43  1  0
 19 44  1  0
 19 45  1  0
 20 46  1  0
 20 47  1  0
 21 48  1  0
 21 49  1  0
 22 50  1  0
 22 51  1  0
M  END
>  <UniqueID>  (30) 
29

>  <SMILES>  (30) 
CCN(CC)CCOC(=O)C1(c2ccccc2)CCCCC1

>  <Energy>  (30) 
63.009821971674

>  <Genealogy>  (30) 
CCN(CC)CCOC(=O)C1(c2ccccc2)CCCCC1 (3D coordinates assigned)
CCN(CC)CCOC(=O)C1(c2ccccc2)CCCCC1 (nonaromatic ring conformer: 63.009821971674 kcal/mol)

>  <smiles>  (30) 
CCN(CC)CCOC(=O)C1(c2ccccc2)CCCCC1

>  <score_type>  (30) 
oracle

>  <origin>  (30) 
adg

>  <m_score__min__energy>  (30) 
-7.0700000000000003

>  <m_primary>  (30) 
energy

$$$$
30:0
     RDKit          3D

 40 41  0  0  0  0  0  0  0  0999 V2000
   59.2690   33.0970   49.0690 C   0  0  0  0  0  0  0  0  0  0  0  0
   59.7920   34.1940   48.1460 C   0  0  0  0  0  0  0  0  0  0  0  0
   60.1360   33.6290   46.8220 N   0  0  0  0  0  0  0  0  0  0  0  0
   61.5870   33.3520   46.7120 C   0  0  0  0  0  0  0  0  0  0  0  0
   62.3130   33.8440   47.9620 C   0  0  0  0  0  0  0  0  0  0  0  0
   59.6680   34.5050   45.7230 C   0  0  0  0  0  0  0  0  0  0  0  0
   58.3470   33.9830   45.1500 C   0  0  0  0  0  0  0  0  0  0  0  0
   57.9350   32.7590   45.8410 N   0  0  0  0  0  0  0  0  0  0  0  0
   57.7540   31.4890   45.1820 C   0  0  0  0  0  0  0  0  0  0  0  0
   56.6000   31.2540   44.4110 C   0  0  0  0  0  0  0  0  0  0  0  0
   56.4390   30.0590   43.7090 C   0  0  0  0  0  0  0  0  0  0  0  0
   57.4250   29.0770   43.7590 C   0  0  0  0  0  0  0  0  0  0  0  0
   58.5780   29.2770   44.5250 C   0  0  0  0  0  0  0  0  0  0  0  0
   59.5670   28.2880   44.5890 C   0  0  0  0  0  0  0  0  0  0  0  0
   60.7010   28.4880   45.3730 C   0  0  0  0  0  0  0  0  0  0  0  0
   60.8330   29.6710   46.0970 C   0  0  0  0  0  0  0  0  0  0  0  0
   59.8710   30.6320   46.0330 N   0  0  0  0  0  0  0  0  0  0  0  0
   58.7530   30.4820   45.2550 C   0  0  0  0  0  0  0  0  0  0  0  0
   59.4133   33.3996   50.1167 H   0  0  0  0  0  0  0  0  0  0  0  0
   58.1976   32.9368   48.8778 H   0  0  0  0  0  0  0  0  0  0  0  0
   59.8191   32.1638   48.8778 H   0  0  0  0  0  0  0  0  0  0  0  0
   59.0166   34.9642   48.0217 H   0  0  0  0  0  0  0  0  0  0  0  0
   60.6946   34.6373   48.5919 H   0  0  0  0  0  0  0  0  0  0  0  0
   61.7431   32.2685   46.6037 H   0  0  0  0  0  0  0  0  0  0  0  0
   61.9877   33.8783   45.8331 H   0  0  0  0  0  0  0  0  0  0  0  0
   61.7845   33.4859   48.8578 H   0  0  0  0  0  0  0  0  0  0  0  0
   63.3426   33.4568   47.9643 H   0  0  0  0  0  0  0  0  0  0  0  0
   62.3349   34.9438   47.9643 H   0  0  0  0  0  0  0  0  0  0  0  0
   59.5178   35.5236   46.1103 H   0  0  0  0  0  0  0  0  0  0  0  0
   60.4251   34.5119   44.9251 H   0  0  0  0  0  0  0  0  0  0  0  0
   57.5690   34.7500   45.2779 H   0  0  0  0  0  0  0  0  0  0  0  0
   58.4869   33.7583   44.0823 H   0  0  0  0  0  0  0  0  0  0  0  0
   57.8580   32.8070   46.8810 H   0  0  0  0  0  0  0  0  0  0  0  0
   55.8147   32.0227   44.3613 H   0  0  0  0  0  0  0  0  0  0  0  0
   55.5293   29.8919   43.1135 H   0  0  0  0  0  0  0  0  0  0  0  0
   57.2968   28.1416   43.1946 H   0  0  0  0  0  0  0  0  0  0  0  0
   59.4486   27.3537   44.0206 H   0  0  0  0  0  0  0  0  0  0  0  0
   61.4856   27.7184   45.4201 H   0  0  0  0  0  0  0  0  0  0  0  0
   61.7218   29.8297   46.7254 H   0  0  0  0  0  0  0  0  0  0  0  0
   60.0130   31.4790   46.6230 H   0  0  0  0  0  0  0  0  0  0  0  0
  1  2  1  0
  2  3  1  0
  3  4  1  0
  4  5  1  0
  3  6  1  0
  6  7  1  0
  7  8  1  0
  8  9  1  0
  9 10  2  0
 10 11  1  0
 11 12  2  0
 12 13  1  0
 13 14  2  0
 14 15  1  0
 15 16  2  0
 16 17  1  0
 17 18  2  0
 18  9  1  0
 18 13  1  0
  1 19  1  0
  1 20  1  0
  1 21  1  0
  2 22  1  0
  2 23  1  0
  4 24  1  0
  4 25  1  0
  5 26  1  0
  5 27  1  0
  5 28  1  0
  6 29  1  0
  6 30  1  0
  7 31  1  0
  7 32  1  0
  8 33  1  0
 10 34  1  0
 11 35  1  0
 12 36  1  0
 14 37  1  0
 15 38  1  0
 16 39  1  0
 17 40  1  0
M  CHG  1  17   1
M  END
>  <UniqueID>  (31) 
30

>  <SMILES>  (31) 
CCN(CC)CCNc1cccc2ccc[nH+]c12

>  <Energy>  (31) 
43.46765295394286

>  <Genealogy>  (31) 
CCN(CC)CCNc1cccc2ccc[nH+]c12 (protonated)
CCN(CC)CCNc1cccc2ccc[nH+]c12 (3D coordinates assigned)
CCN(CC)CCNc1cccc2ccc[nH+]c12 (optimized conformer: 43.46765295394286 kcal/mol)

>  <smiles>  (31) 
CCN(CC)CCNc1cccc2cccnc12

>  <score_type>  (31) 
oracle

>  <origin>  (31) 
adg

>  <m_score__min__energy>  (31) 
-4.0800000000000001

>  <m_primary>  (31) 
energy

$$$$
31:0
     RDKit          3D

 44 45  0  0  0  0  0  0  0  0999 V2000
   63.3850   33.8810   46.4510 C   0  0  0  0  0  0  0  0  0  0  0  0
   63.7780   32.8410   47.5120 C   0  0  0  0  0  0  0  0  0  0  0  0
   63.1860   33.0700   48.8520 N   0  0  0  0  0  0  0  0  0  0  0  0
   64.1090   32.9390   49.9920 C   0  0  0  0  0  0  0  0  0  0  0  0
   62.2540   34.2130   48.9540 C   0  0  0  0  0  0  0  0  0  0  0  0
   60.7700   33.8320   48.7620 C   0  0  0  0  0  0  0  0  0  0  0  0
   60.6010   32.3790   48.5580 N   0  0  0  0  0  0  0  0  0  0  0  0
   60.7150   31.9830   47.1290 C   0  0  1  0  0  0  0  0  0  0  0  0
   60.8700   30.4490   46.9600 C   0  0  0  0  0  0  0  0  0  0  0  0
   59.5300   29.7220   47.1170 C   0  0  0  0  0  0  0  0  0  0  0  0
   58.5560   30.2680   46.2330 O   0  0  0  0  0  0  0  0  0  0  0  0
   58.4900   31.6340   45.9360 C   0  0  0  0  0  0  0  0  0  0  0  0
   57.3950   32.1250   45.2100 C   0  0  0  0  0  0  0  0  0  0  0  0
   56.3890   31.2240   44.8260 O   0  0  0  0  0  0  0  0  0  0  0  0
   56.5220   30.2660   43.7800 C   0  0  0  0  0  0  0  0  0  0  0  0
   57.3360   33.4950   44.8910 C   0  0  0  0  0  0  0  0  0  0  0  0
   58.3610   34.3550   45.2890 C   0  0  0  0  0  0  0  0  0  0  0  0
   59.4520   33.8630   46.0060 C   0  0  0  0  0  0  0  0  0  0  0  0
   59.5300   32.5000   46.3340 C   0  0  0  0  0  0  0  0  0  0  0  0
   63.0381   34.7989   46.9481 H   0  0  0  0  0  0  0  0  0  0  0  0
   64.2579   34.1117   45.8227 H   0  0  0  0  0  0  0  0  0  0  0  0
   62.5776   33.4768   45.8227 H   0  0  0  0  0  0  0  0  0  0  0  0
   63.4535   31.8512   47.1585 H   0  0  0  0  0  0  0  0  0  0  0  0
   64.8681   32.9198   47.6360 H   0  0  0  0  0  0  0  0  0  0  0  0
   63.5439   33.0192   50.9324 H   0  0  0  0  0  0  0  0  0  0  0  0
   64.6100   31.9607   49.9476 H   0  0  0  0  0  0  0  0  0  0  0  0
   64.8625   33.7392   49.9476 H   0  0  0  0  0  0  0  0  0  0  0  0
   62.3690   34.6653   49.9501 H   0  0  0  0  0  0  0  0  0  0  0  0
   62.5121   34.9078   48.1412 H   0  0  0  0  0  0  0  0  0  0  0  0
   60.2057   34.1344   49.6565 H   0  0  0  0  0  0  0  0  0  0  0  0
   60.3962   34.3498   47.8664 H   0  0  0  0  0  0  0  0  0  0  0  0
   61.3210   31.8780   49.1260 H   0  0  0  0  0  0  0  0  0  0  0  0
   59.6740   32.0910   48.9500 H   0  0  0  0  0  0  0  0  0  0  0  0
   61.6310   32.4451   46.7323 H   0  0  0  0  0  0  0  0  0  0  0  0
   61.2735   30.2399   45.9583 H   0  0  0  0  0  0  0  0  0  0  0  0
   61.5508   30.0852   47.7437 H   0  0  0  0  0  0  0  0  0  0  0  0
   59.6686   28.6552   46.8875 H   0  0  0  0  0  0  0  0  0  0  0  0
   59.1785   29.8465   48.1519 H   0  0  0  0  0  0  0  0  0  0  0  0
   56.6609   29.2652   44.2149 H   0  0  0  0  0  0  0  0  0  0  0  0
   55.6143   30.2730   43.1587 H   0  0  0  0  0  0  0  0  0  0  0  0
   57.3935   30.5201   43.1587 H   0  0  0  0  0  0  0  0  0  0  0  0
   56.4787   33.8893   44.3258 H   0  0  0  0  0  0  0  0  0  0  0  0
   58.3083   35.4243   45.0364 H   0  0  0  0  0  0  0  0  0  0  0  0
   60.2558   34.5469   46.3162 H   0  0  0  0  0  0  0  0  0  0  0  0
  1  2  1  0
  2  3  1  0
  3  4  1  0
  3  5  1  0
  5  6  1  0
  6  7  1  0
  7  8  1  0
  8  9  1  0
  9 10  1  0
 10 11  1  0
 11 12  1  0
 12 13  2  0
 13 14  1  0
 14 15  1  0
 13 16  1  0
 16 17  2  0
 17 18  1  0
 18 19  2  0
 19  8  1  0
 19 12  1  0
  1 20  1  0
  1 21  1  0
  1 22  1  0
  2 23  1  0
  2 24  1  0
  4 25  1  0
  4 26  1  0
  4 27  1  0
  5 28  1  0
  5 29  1  0
  6 30  1  0
  6 31  1  0
  7 32  1  0
  7 33  1  0
  8 34  1  6
  9 35  1  0
  9 36  1  0
 10 37  1  0
 10 38  1  0
 15 39  1  0
 15 40  1  0
 15 41  1  0
 16 42  1  0
 17 43  1  0
 18 44  1  0
M  CHG  1   7   1
M  END
>  <UniqueID>  (32) 
31

>  <SMILES>  (32) 
CCN(C)CC[NH2+][C@H]1CCOc2c(OC)cccc21

>  <Energy>  (32) 
52.089946650826484

>  <Genealogy>  (32) 
CCN(C)CC[NH2+]C1CCOc2c(OC)cccc21 (protonated)
CCN(C)CC[NH2+][C@H]1CCOc2c(OC)cccc21 (chirality)
CCN(C)CC[NH2+][C@H]1CCOc2c(OC)cccc21 (3D coordinates assigned)
CCN(C)CC[NH2+][C@H]1CCOc2c(OC)cccc21 (nonaromatic ring conformer: 52.089946650826484 kcal/mol)

>  <smiles>  (32) 
CCN(C)CCNC1CCOc2c(OC)cccc21

>  <score_type>  (32) 
oracle

>  <origin>  (32) 
adg

>  <m_score__min__energy>  (32) 
-4.2199999999999998

>  <m_primary>  (32) 
energy

$$$$
32:0
     RDKit          3D

 47 49  0  0  0  0  0  0  0  0999 V2000
   58.8790   31.7380   48.8210 C   0  0  0  0  0  0  0  0  0  0  0  0
   58.2050   32.0250   47.4810 C   0  0  0  0  0  0  0  0  0  0  0  0
   58.6710   31.0950   46.4450 N   0  0  0  0  0  0  0  0  0  0  0  0
   60.0820   30.6950   46.3790 C   0  0  0  0  0  0  0  0  0  0  0  0
   60.2390   29.3750   45.6310 C   0  0  0  0  0  0  0  0  0  0  0  0
   57.7740   30.6730   45.4090 C   0  0  0  0  0  0  0  0  0  0  0  0
   57.0340   29.5450   45.6000 N   0  0  0  0  0  0  0  0  0  0  0  0
   56.1880   29.0650   44.6530 C   0  0  0  0  0  0  0  0  0  0  0  0
   56.0620   29.7240   43.4320 C   0  0  0  0  0  0  0  0  0  0  0  0
   56.7970   30.8860   43.2040 C   0  0  0  0  0  0  0  0  0  0  0  0
   57.6550   31.3910   44.1950 C   0  0  0  0  0  0  0  0  0  0  0  0
   58.3940   32.6920   43.9440 C   0  0  0  0  0  0  0  0  0  0  0  0
   57.8420   33.8110   44.7260 N   0  0  0  0  0  0  0  0  0  0  0  0
   58.8070   34.9070   44.8630 C   0  0  0  0  0  0  0  0  0  0  0  0
   59.6580   34.6780   46.0700 C   0  0  0  0  0  0  0  0  0  0  0  0
   59.3130   34.9820   47.3820 C   0  0  0  0  0  0  0  0  0  0  0  0
   60.2360   34.6050   48.3050 N   0  0  0  0  0  0  0  0  0  0  0  0
   61.3070   33.9890   47.7530 C   0  0  0  0  0  0  0  0  0  0  0  0
   62.4480   33.4700   48.5250 C   0  0  0  0  0  0  0  0  0  0  0  0
   62.7840   33.8240   49.8270 C   0  0  0  0  0  0  0  0  0  0  0  0
   63.9240   33.1650   50.3020 C   0  0  0  0  0  0  0  0  0  0  0  0
   64.4890   32.2930   49.3830 C   0  0  0  0  0  0  0  0  0  0  0  0
   63.5680   32.3410   47.9760 S   0  0  0  0  0  0  0  0  0  0  0  0
   61.1450   33.8870   46.0780 S   0  0  0  0  0  0  0  0  0  0  0  0
   58.2036   32.0256   49.6402 H   0  0  0  0  0  0  0  0  0  0  0  0
   59.1076   30.6645   48.8940 H   0  0  0  0  0  0  0  0  0  0  0  0
   59.8113   32.3172   48.8940 H   0  0  0  0  0  0  0  0  0  0  0  0
   57.1163   31.9182   47.5963 H   0  0  0  0  0  0  0  0  0  0  0  0
   58.4625   33.0490   47.1726 H   0  0  0  0  0  0  0  0  0  0  0  0
   60.6536   31.4757   45.8557 H   0  0  0  0  0  0  0  0  0  0  0  0
   60.4588   30.5650   47.4042 H   0  0  0  0  0  0  0  0  0  0  0  0
   60.3368   28.5527   46.3550 H   0  0  0  0  0  0  0  0  0  0  0  0
   59.3548   29.2041   44.9993 H   0  0  0  0  0  0  0  0  0  0  0  0
   61.1386   29.4163   44.9993 H   0  0  0  0  0  0  0  0  0  0  0  0
   55.6017   28.1553   44.8498 H   0  0  0  0  0  0  0  0  0  0  0  0
   55.3891   29.3311   42.6556 H   0  0  0  0  0  0  0  0  0  0  0  0
   56.7046   31.4111   42.2418 H   0  0  0  0  0  0  0  0  0  0  0  0
   59.4506   32.5567   44.2183 H   0  0  0  0  0  0  0  0  0  0  0  0
   58.2829   32.9406   42.8782 H   0  0  0  0  0  0  0  0  0  0  0  0
   57.5710   33.4730   45.6790 H   0  0  0  0  0  0  0  0  0  0  0  0
   59.4448   34.9472   43.9677 H   0  0  0  0  0  0  0  0  0  0  0  0
   58.2659   35.8584   44.9728 H   0  0  0  0  0  0  0  0  0  0  0  0
   58.3723   35.4852   47.6501 H   0  0  0  0  0  0  0  0  0  0  0  0
   60.1150   34.7690   49.3290 H   0  0  0  0  0  0  0  0  0  0  0  0
   62.2114   34.5492   50.4239 H   0  0  0  0  0  0  0  0  0  0  0  0
   64.3337   33.3239   51.3104 H   0  0  0  0  0  0  0  0  0  0  0  0
   65.3851   31.6762   49.5462 H   0  0  0  0  0  0  0  0  0  0  0  0
  1  2  1  0
  2  3  1  0
  3  4  1  0
  4  5  1  0
  3  6  1  0
  6  7  2  0
  7  8  1  0
  8  9  2  0
  9 10  1  0
 10 11  2  0
 11 12  1  0
 12 13  1  0
 13 14  1  0
 14 15  1  0
 15 16  2  0
 16 17  1  0
 17 18  2  0
 18 19  1  0
 19 20  2  0
 20 21  1  0
 21 22  2  0
 22 23  1  0
 18 24  1  0
 11  6  1  0
 24 15  1  0
 23 19  1  0
  1 25  1  0
  1 26  1  0
  1 27  1  0
  2 28  1  0
  2 29  1  0
  4 30  1  0
  4 31  1  0
  5 32  1  0
  5 33  1  0
  5 34  1  0
  8 35  1  0
  9 36  1  0
 10 37  1  0
 12 38  1  0
 12 39  1  0
 13 40  1  0
 14 41  1  0
 14 42  1  0
 16 43  1  0
 17 44  1  0
 20 45  1  0
 21 46  1  0
 22 47  1  0
M  CHG  1  17   1
M  END
>  <UniqueID>  (33) 
32

>  <SMILES>  (33) 
CCN(CC)c1ncccc1CNCc1c[nH+]c(-c2cccs2)s1

>  <Energy>  (33) 
102.02869339688668

>  <Genealogy>  (33) 
CCN(CC)c1ncccc1CNCc1c[nH+]c(-c2cccs2)s1 (protonated)
CCN(CC)c1ncccc1CNCc1c[nH+]c(-c2cccs2)s1 (3D coordinates assigned)
CCN(CC)c1ncccc1CNCc1c[nH+]c(-c2cccs2)s1 (optimized conformer: 102.02869339688668 kcal/mol)

>  <smiles>  (33) 
CCN(CC)c1ncccc1CNCc1cnc(-c2cccs2)s1

>  <score_type>  (33) 
oracle

>  <origin>  (33) 
adg

>  <m_score__min__energy>  (33) 
-5.9299999999999997

>  <m_primary>  (33) 
energy

$$$$
33:0
     RDKit          3D

 43 45  0  0  0  0  0  0  0  0999 V2000
   55.1990   24.7490   45.6240 C   0  0  0  0  0  0  0  0  0  0  0  0
   55.3760   26.1060   46.0170 O   0  0  0  0  0  0  0  0  0  0  0  0
   56.6220   26.7390   46.1370 C   0  0  0  0  0  0  0  0  0  0  0  0
   57.5720   26.3580   47.1050 C   0  0  0  0  0  0  0  0  0  0  0  0
   58.8000   27.0210   47.1860 C   0  0  0  0  0  0  0  0  0  0  0  0
   59.1000   28.0690   46.3010 C   0  0  0  0  0  0  0  0  0  0  0  0
   60.4070   28.8080   46.4020 C   0  0  0  0  0  0  0  0  0  0  0  0
   60.2010   30.1940   46.2110 O   0  0  0  0  0  0  0  0  0  0  0  0
   60.0260   30.8440   47.4560 C   0  0  0  0  0  0  0  0  0  0  0  0
   59.1900   32.1270   47.2890 C   0  0  1  0  0  0  0  0  0  0  0  0
   59.9560   33.4150   47.5840 C   0  0  0  0  0  0  0  0  0  0  0  0
   59.7410   33.7360   46.1100 C   0  0  0  0  0  0  0  0  0  0  0  0
   58.9800   32.4990   45.8750 N   0  0  2  0  0  0  0  0  0  0  0  0
   57.5680   32.6920   45.4600 C   0  0  0  0  0  0  0  0  0  0  0  0
   57.0350   31.6730   44.4790 C   0  0  0  0  0  0  0  0  0  0  0  0
   57.4660   31.5030   43.1780 C   0  0  0  0  0  0  0  0  0  0  0  0
   56.7000   30.4780   42.6640 C   0  0  0  0  0  0  0  0  0  0  0  0
   55.8480   30.0910   43.6780 C   0  0  0  0  0  0  0  0  0  0  0  0
   56.0690   30.8240   44.7460 O   0  0  0  0  0  0  0  0  0  0  0  0
   58.1510   28.4500   45.3410 C   0  0  0  0  0  0  0  0  0  0  0  0
   56.9240   27.7870   45.2610 C   0  0  0  0  0  0  0  0  0  0  0  0
   55.1164   24.1157   46.5196 H   0  0  0  0  0  0  0  0  0  0  0  0
   54.2813   24.6576   45.0244 H   0  0  0  0  0  0  0  0  0  0  0  0
   56.0625   24.4253   45.0244 H   0  0  0  0  0  0  0  0  0  0  0  0
   57.3466   25.5356   47.7998 H   0  0  0  0  0  0  0  0  0  0  0  0
   59.5351   26.7201   47.9470 H   0  0  0  0  0  0  0  0  0  0  0  0
   60.8436   28.6394   47.3975 H   0  0  0  0  0  0  0  0  0  0  0  0
   61.0902   28.4364   45.6241 H   0  0  0  0  0  0  0  0  0  0  0  0
   59.5087   30.1638   48.1486 H   0  0  0  0  0  0  0  0  0  0  0  0
   61.0146   31.1160   47.8544 H   0  0  0  0  0  0  0  0  0  0  0  0
   58.3239   31.8752   47.9186 H   0  0  0  0  0  0  0  0  0  0  0  0
   59.4620   34.1010   48.2879 H   0  0  0  0  0  0  0  0  0  0  0  0
   60.9489   33.4232   48.0574 H   0  0  0  0  0  0  0  0  0  0  0  0
   59.1527   34.6502   45.9425 H   0  0  0  0  0  0  0  0  0  0  0  0
   60.6172   33.9479   45.4797 H   0  0  0  0  0  0  0  0  0  0  0  0
   59.4810   31.8750   45.1990 H   0  0  0  0  0  0  0  0  0  0  0  0
   56.9408   32.6541   46.3629 H   0  0  0  0  0  0  0  0  0  0  0  0
   57.5351   33.6602   44.9389 H   0  0  0  0  0  0  0  0  0  0  0  0
   58.2554   32.0673   42.6600 H   0  0  0  0  0  0  0  0  0  0  0  0
   56.7567   30.0545   41.6504 H   0  0  0  0  0  0  0  0  0  0  0  0
   55.0975   29.2902   43.6036 H   0  0  0  0  0  0  0  0  0  0  0  0
   58.3739   29.2746   44.6480 H   0  0  0  0  0  0  0  0  0  0  0  0
   56.1884   28.0919   44.5021 H   0  0  0  0  0  0  0  0  0  0  0  0
  1  2  1  0
  2  3  1  0
  3  4  2  0
  4  5  1  0
  5  6  2  0
  6  7  1  0
  7  8  1  0
  8  9  1  0
  9 10  1  0
 10 11  1  0
 11 12  1  0
 12 13  1  0
 13 14  1  0
 14 15  1  0
 15 16  2  0
 16 17  1  0
 17 18  2  0
 18 19  1  0
  6 20  1  0
 20 21  2  0
 21  3  1  0
 13 10  1  0
 19 15  1  0
  1 22  1  0
  1 23  1  0
  1 24  1  0
  4 25  1  0
  5 26  1  0
  7 27  1  0
  7 28  1  0
  9 29  1  0
  9 30  1  0
 10 31  1  1
 11 32  1  0
 11 33  1  0
 12 34  1  0
 12 35  1  0
 13 36  1  6
 14 37  1  0
 14 38  1  0
 16 39  1  0
 17 40  1  0
 18 41  1  0
 20 42  1  0
 21 43  1  0
M  CHG  1  13   1
M  END
>  <UniqueID>  (34) 
33

>  <SMILES>  (34) 
COc1ccc(COC[C@H]2CC[N@@H+]2Cc2ccco2)cc1

>  <Energy>  (34) 
145.81480351178053

>  <Genealogy>  (34) 
COc1ccc(COCC2CC[NH+]2Cc2ccco2)cc1 (protonated)
COc1ccc(COC[C@H]2CC[N@@H+]2Cc2ccco2)cc1 (chirality)
COc1ccc(COC[C@H]2CC[N@@H+]2Cc2ccco2)cc1 (3D coordinates assigned)
COc1ccc(COC[C@H]2CC[N@@H+]2Cc2ccco2)cc1 (nonaromatic ring conformer: 145.81480351178053 kcal/mol)

>  <smiles>  (34) 
COc1ccc(COCC2CCN2Cc2ccco2)cc1

>  <score_type>  (34) 
oracle

>  <origin>  (34) 
adg

>  <m_score__min__energy>  (34) 
-5.04

>  <m_primary>  (34) 
energy

$$$$
34:0
     RDKit          3D

 54 58  0  0  0  0  0  0  0  0999 V2000
   56.5160   26.0940   46.2050 C   0  0  0  0  0  0  0  0  0  0  0  0
   57.6010   27.0770   46.3560 N   0  0  0  0  0  0  0  0  0  0  0  0
   57.3590   28.2680   45.5270 C   0  0  0  0  0  0  0  0  0  0  0  0
   58.9440   26.4910   46.1480 C   0  0  0  0  0  0  0  0  0  0  0  0
   60.0080   26.9640   47.1580 C   0  0  0  0  0  0  0  0  0  0  0  0
   59.4210   27.8900   48.1280 N   0  0  0  0  0  0  0  0  0  0  0  0
   60.2500   28.6760   48.9990 C   0  0  0  0  0  0  0  0  0  0  0  0
   60.8920   28.0930   50.1040 C   0  0  0  0  0  0  0  0  0  0  0  0
   60.7590   26.7140   50.3730 C   0  0  0  0  0  0  0  0  0  0  0  0
   61.3590   26.1500   51.4960 C   0  0  0  0  0  0  0  0  0  0  0  0
   62.0890   26.9460   52.3720 C   0  0  0  0  0  0  0  0  0  0  0  0
   62.2530   28.3080   52.1130 C   0  0  0  0  0  0  0  0  0  0  0  0
   61.6930   28.9050   50.9560 C   0  0  0  0  0  0  0  0  0  0  0  0
   61.8930   30.2410   50.6530 N   0  0  0  0  0  0  0  0  0  0  0  0
   62.9370   31.0180   51.3560 C   0  0  0  0  0  0  0  0  0  0  0  0
   61.1380   30.8450   49.6670 C   0  0  0  0  0  0  0  0  0  0  0  0
   61.1220   32.2080   49.4980 N   0  0  0  0  0  0  0  0  0  0  0  0
   60.4100   32.7970   48.4930 C   0  0  0  0  0  0  0  0  0  0  0  0
   60.4240   34.1890   48.3230 C   0  0  0  0  0  0  0  0  0  0  0  0
   59.6960   34.7820   47.2890 C   0  0  0  0  0  0  0  0  0  0  0  0
   58.9420   33.9920   46.4080 C   0  0  0  0  0  0  0  0  0  0  0  0
   58.2170   34.5890   45.3660 C   0  0  0  0  0  0  0  0  0  0  0  0
   57.4670   33.8020   44.4880 C   0  0  0  0  0  0  0  0  0  0  0  0
   57.4350   32.4140   44.6440 C   0  0  0  0  0  0  0  0  0  0  0  0
   58.1500   31.8040   45.6780 C   0  0  0  0  0  0  0  0  0  0  0  0
   58.9120   32.5830   46.5720 C   0  0  0  0  0  0  0  0  0  0  0  0
   59.6470   31.9950   47.6220 C   0  0  0  0  0  0  0  0  0  0  0  0
   59.6260   30.6540   47.8220 N   0  0  0  0  0  0  0  0  0  0  0  0
   60.3390   30.0580   48.8110 C   0  0  0  0  0  0  0  0  0  0  0  0
   56.1669   25.7777   47.1990 H   0  0  0  0  0  0  0  0  0  0  0  0
   55.6821   26.5504   45.6516 H   0  0  0  0  0  0  0  0  0  0  0  0
   56.8882   25.2192   45.6516 H   0  0  0  0  0  0  0  0  0  0  0  0
   57.1823   29.1375   46.1771 H   0  0  0  0  0  0  0  0  0  0  0  0
   58.2370   28.4573   44.8920 H   0  0  0  0  0  0  0  0  0  0  0  0
   56.4767   28.0997   44.8920 H   0  0  0  0  0  0  0  0  0  0  0  0
   58.8580   25.3971   46.2257 H   0  0  0  0  0  0  0  0  0  0  0  0
   59.2822   26.8249   45.1560 H   0  0  0  0  0  0  0  0  0  0  0  0
   60.4140   26.0915   47.6908 H   0  0  0  0  0  0  0  0  0  0  0  0
   60.8097   27.4829   46.6121 H   0  0  0  0  0  0  0  0  0  0  0  0
   58.3870   27.9070   48.2760 H   0  0  0  0  0  0  0  0  0  0  0  0
   60.1762   26.0790   49.6895 H   0  0  0  0  0  0  0  0  0  0  0  0
   61.2553   25.0723   51.6906 H   0  0  0  0  0  0  0  0  0  0  0  0
   62.5387   26.5010   53.2719 H   0  0  0  0  0  0  0  0  0  0  0  0
   62.8261   28.9278   52.8183 H   0  0  0  0  0  0  0  0  0  0  0  0
   62.8004   30.9163   52.4427 H   0  0  0  0  0  0  0  0  0  0  0  0
   63.9297   30.6373   51.0740 H   0  0  0  0  0  0  0  0  0  0  0  0
   62.8573   32.0783   51.0740 H   0  0  0  0  0  0  0  0  0  0  0  0
   61.6200   32.8380   50.1640 H   0  0  0  0  0  0  0  0  0  0  0  0
   61.0118   34.8176   49.0081 H   0  0  0  0  0  0  0  0  0  0  0  0
   59.7139   35.8748   47.1646 H   0  0  0  0  0  0  0  0  0  0  0  0
   58.2390   35.6815   45.2395 H   0  0  0  0  0  0  0  0  0  0  0  0
   56.9009   34.2761   43.6727 H   0  0  0  0  0  0  0  0  0  0  0  0
   56.8442   31.7985   43.9496 H   0  0  0  0  0  0  0  0  0  0  0  0
   58.1180   30.7107   45.7949 H   0  0  0  0  0  0  0  0  0  0  0  0
  1  2  1  0
  2  3  1  0
  2  4  1  0
  4  5  1  0
  5  6  1  0
  6  7  1  0
  7  8  2  0
  8  9  1  0
  9 10  2  0
 10 11  1  0
 11 12  2  0
 12 13  1  0
 13 14  2  0
 14 15  1  0
 14 16  1  0
 16 17  2  0
 17 18  1  0
 18 19  2  0
 19 20  1  0
 20 21  2  0
 21 22  1  0
 22 23  2  0
 23 24  1  0
 24 25  2  0
 25 26  1  0
 26 27  2  0
 27 28  1  0
 28 29  2  0
 29  7  1  0
 13  8  1  0
 29 16  1  0
 27 18  1  0
 26 21  1  0
  1 30  1  0
  1 31  1  0
  1 32  1  0
  3 33  1  0
  3 34  1  0
  3 35  1  0
  4 36  1  0
  4 37  1  0
  5 38  1  0
  5 39  1  0
  6 40  1  0
  9 41  1  0
 10 42  1  0
 11 43  1  0
 12 44  1  0
 15 45  1  0
 15 46  1  0
 15 47  1  0
 17 48  1  0
 19 49  1  0
 20 50  1  0
 22 51  1  0
 23 52  1  0
 24 53  1  0
 25 54  1  0
M  CHG  2  14   1  17   1
M  END
>  <UniqueID>  (35) 
34

>  <SMILES>  (35) 
CN(C)CCNc1c2ccccc2[n+](C)c2[nH+]c3ccc4ccccc4c3nc12

>  <Energy>  (35) 
91.27912045235264

>  <Genealogy>  (35) 
CN(C)CCNc1c2ccccc2[n+](C)c2[nH+]c3ccc4ccccc4c3nc12 (protonated)
CN(C)CCNc1c2ccccc2[n+](C)c2[nH+]c3ccc4ccccc4c3nc12 (3D coordinates assigned)
CN(C)CCNc1c2ccccc2[n+](C)c2[nH+]c3ccc4ccccc4c3nc12 (optimized conformer: 91.27912045235264 kcal/mol)

>  <smiles>  (35) 
CN(C)CCNc1c2ccccc2[n+](C)c2nc3ccc4ccccc4c3nc12

>  <score_type>  (35) 
oracle

>  <origin>  (35) 
adg

>  <m_score__min__energy>  (35) 
-5.8300000000000001

>  <m_primary>  (35) 
energy

$$$$
35:0
     RDKit          3D

 46 48  0  0  0  0  0  0  0  0999 V2000
   57.7680   32.3140   41.3780 C   0  0  0  0  0  0  0  0  0  0  0  0
   57.7710   32.3520   42.9110 C   0  0  0  0  0  0  0  0  0  0  0  0
   57.6560   31.0050   43.5050 N   0  0  0  0  0  0  0  0  0  0  0  0
   58.2600   30.9150   44.8290 C   0  0  0  0  0  0  0  0  0  0  0  0
   58.9970   32.0230   45.2980 C   0  0  0  0  0  0  0  0  0  0  0  0
   59.8690   31.9100   46.3830 C   0  0  0  0  0  0  0  0  0  0  0  0
   60.6780   33.0310   46.7910 N   0  0  0  0  0  0  0  0  0  0  0  0
   60.2920   34.3920   46.3900 C   0  0  0  0  0  0  0  0  0  0  0  0
   59.2510   34.9560   47.3510 C   0  0  0  0  0  0  0  0  0  0  0  0
   61.8780   32.8090   47.6130 C   0  0  0  0  0  0  0  0  0  0  0  0
   63.0940   33.4760   46.9780 C   0  0  0  0  0  0  0  0  0  0  0  0
   59.9950   30.6800   47.0270 C   0  0  0  0  0  0  0  0  0  0  0  0
   59.1800   29.6090   46.6640 C   0  0  0  0  0  0  0  0  0  0  0  0
   59.3420   28.1480   47.4830 S   0  0  0  0  0  0  0  0  0  0  0  0
   58.2240   27.0060   46.9710 C   0  0  0  0  0  0  0  0  0  0  0  0
   58.2330   25.7190   47.5200 C   0  0  0  0  0  0  0  0  0  0  0  0
   57.2680   24.7900   47.1330 C   0  0  0  0  0  0  0  0  0  0  0  0
   56.2900   25.1500   46.2070 C   0  0  0  0  0  0  0  0  0  0  0  0
   56.2750   26.4370   45.6610 C   0  0  0  0  0  0  0  0  0  0  0  0
   57.2510   27.3970   46.0250 C   0  0  0  0  0  0  0  0  0  0  0  0
   57.2060   28.7090   45.4530 C   0  0  0  0  0  0  0  0  0  0  0  0
   56.1650   29.0100   44.8070 O   0  0  0  0  0  0  0  0  0  0  0  0
   58.2160   29.7210   45.6290 C   0  0  0  0  0  0  0  0  0  0  0  0
   57.6857   31.2714   41.0372 H   0  0  0  0  0  0  0  0  0  0  0  0
   56.9127   32.8923   40.9986 H   0  0  0  0  0  0  0  0  0  0  0  0
   58.7034   32.7510   40.9986 H   0  0  0  0  0  0  0  0  0  0  0  0
   58.7114   32.8098   43.2517 H   0  0  0  0  0  0  0  0  0  0  0  0
   56.8985   32.9383   43.2349 H   0  0  0  0  0  0  0  0  0  0  0  0
   58.0960   30.3680   42.8110 H   0  0  0  0  0  0  0  0  0  0  0  0
   56.6430   30.7550   43.5840 H   0  0  0  0  0  0  0  0  0  0  0  0
   58.8823   32.9963   44.7985 H   0  0  0  0  0  0  0  0  0  0  0  0
   61.1819   35.0385   46.3999 H   0  0  0  0  0  0  0  0  0  0  0  0
   59.8608   34.3565   45.3787 H   0  0  0  0  0  0  0  0  0  0  0  0
   59.5754   34.7803   48.3873 H   0  0  0  0  0  0  0  0  0  0  0  0
   59.1412   36.0370   47.1795 H   0  0  0  0  0  0  0  0  0  0  0  0
   58.2855   34.4576   47.1795 H   0  0  0  0  0  0  0  0  0  0  0  0
   61.7141   33.2340   48.6143 H   0  0  0  0  0  0  0  0  0  0  0  0
   62.0638   31.7272   47.6848 H   0  0  0  0  0  0  0  0  0  0  0  0
   63.7648   33.8440   47.7683 H   0  0  0  0  0  0  0  0  0  0  0  0
   63.6290   32.7451   46.3539 H   0  0  0  0  0  0  0  0  0  0  0  0
   62.7651   34.3200   46.3539 H   0  0  0  0  0  0  0  0  0  0  0  0
   60.7411   30.5540   47.8254 H   0  0  0  0  0  0  0  0  0  0  0  0
   59.0010   25.4403   48.2565 H   0  0  0  0  0  0  0  0  0  0  0  0
   57.2783   23.7752   47.5574 H   0  0  0  0  0  0  0  0  0  0  0  0
   55.5266   24.4181   45.9045 H   0  0  0  0  0  0  0  0  0  0  0  0
   55.4926   26.7085   44.9370 H   0  0  0  0  0  0  0  0  0  0  0  0
  1  2  1  0
  2  3  1  0
  3  4  1  0
  4  5  2  0
  5  6  1  0
  6  7  1  0
  7  8  1  0
  8  9  1  0
  7 10  1  0
 10 11  1  0
  6 12  2  0
 12 13  1  0
 13 14  1  0
 14 15  1  0
 15 16  2  0
 16 17  1  0
 17 18  2  0
 18 19  1  0
 19 20  2  0
 20 21  1  0
 21 22  2  0
 21 23  1  0
 23  4  1  0
 23 13  2  0
 20 15  1  0
  1 24  1  0
  1 25  1  0
  1 26  1  0
  2 27  1  0
  2 28  1  0
  3 29  1  0
  3 30  1  0
  5 31  1  0
  8 32  1  0
  8 33  1  0
  9 34  1  0
  9 35  1  0
  9 36  1  0
 10 37  1  0
 10 38  1  0
 11 39  1  0
 11 40  1  0
 11 41  1  0
 12 42  1  0
 16 43  1  0
 17 44  1  0
 18 45  1  0
 19 46  1  0
M  CHG  1   3   1
M  END
>  <UniqueID>  (36) 
35

>  <SMILES>  (36) 
CC[NH2+]c1cc(N(CC)CC)cc2sc3ccccc3c(=O)c12

>  <Energy>  (36) 
70.82142365996322

>  <Genealogy>  (36) 
CC[NH2+]c1cc(N(CC)CC)cc2sc3ccccc3c(=O)c12 (protonated)
CC[NH2+]c1cc(N(CC)CC)cc2sc3ccccc3c(=O)c12 (3D coordinates assigned)
CC[NH2+]c1cc(N(CC)CC)cc2sc3ccccc3c(=O)c12 (optimized conformer: 70.82142365996322 kcal/mol)

>  <smiles>  (36) 
CCNc1cc(N(CC)CC)cc2sc3ccccc3c(=O)c12

>  <score_type>  (36) 
oracle

>  <origin>  (36) 
adg

>  <m_score__min__energy>  (36) 
-6.1100000000000003

>  <m_primary>  (36) 
energy

$$$$
36:0
     RDKit          3D

 44 46  0  0  0  0  0  0  0  0999 V2000
   58.8890   29.2220   46.2600 C   0  0  0  0  0  0  0  0  0  0  0  0
   57.8460   29.1170   45.1450 C   0  0  0  0  0  0  0  0  0  0  0  0
   56.7450   30.0760   45.3150 N   0  0  0  0  0  0  0  0  0  0  0  0
   56.2280   30.6100   44.0400 C   0  0  0  0  0  0  0  0  0  0  0  0
   57.3450   31.2200   43.1760 C   0  0  0  0  0  0  0  0  0  0  0  0
   57.7770   32.5970   43.6910 C   0  0  0  0  0  0  0  0  0  0  0  0
   57.4640   32.7580   45.0750 O   0  0  0  0  0  0  0  0  0  0  0  0
   58.4220   32.7210   46.0930 C   0  0  0  0  0  0  0  0  0  0  0  0
   58.1400   32.1360   47.2980 N   0  0  0  0  0  0  0  0  0  0  0  0
   59.0590   32.0860   48.3040 C   0  0  0  0  0  0  0  0  0  0  0  0
   58.7190   31.4890   49.5640 N   0  0  0  0  0  0  0  0  0  0  0  0
   58.2340   32.3240   50.6690 C   0  0  0  0  0  0  0  0  0  0  0  0
   57.3210   31.5190   51.6240 C   0  0  0  0  0  0  0  0  0  0  0  0
   57.3010   30.1250   51.3560 O   0  0  0  0  0  0  0  0  0  0  0  0
   58.6160   29.6430   51.1850 C   0  0  0  0  0  0  0  0  0  0  0  0
   59.1580   30.1160   49.8350 C   0  0  0  0  0  0  0  0  0  0  0  0
   60.3050   32.6680   48.0760 C   0  0  0  0  0  0  0  0  0  0  0  0
   61.6270   32.8650   49.0950 S   0  0  0  0  0  0  0  0  0  0  0  0
   62.5740   33.6900   47.9600 C   0  0  0  0  0  0  0  0  0  0  0  0
   61.8510   33.8280   46.7750 C   0  0  0  0  0  0  0  0  0  0  0  0
   60.5800   33.2560   46.8600 C   0  0  0  0  0  0  0  0  0  0  0  0
   59.6470   33.2800   45.8750 N   0  0  0  0  0  0  0  0  0  0  0  0
   58.3871   29.1715   47.2375 H   0  0  0  0  0  0  0  0  0  0  0  0
   59.6048   28.3914   46.1720 H   0  0  0  0  0  0  0  0  0  0  0  0
   59.4248   30.1786   46.1720 H   0  0  0  0  0  0  0  0  0  0  0  0
   58.3386   29.3121   44.1810 H   0  0  0  0  0  0  0  0  0  0  0  0
   57.4173   28.1046   45.1812 H   0  0  0  0  0  0  0  0  0  0  0  0
   57.0340   30.8390   45.9710 H   0  0  0  0  0  0  0  0  0  0  0  0
   55.7518   29.7921   43.4794 H   0  0  0  0  0  0  0  0  0  0  0  0
   55.5053   31.4059   44.2729 H   0  0  0  0  0  0  0  0  0  0  0  0
   58.2142   30.5460   43.1904 H   0  0  0  0  0  0  0  0  0  0  0  0
   56.9569   31.3441   42.1542 H   0  0  0  0  0  0  0  0  0  0  0  0
   58.8632   32.7053   43.5549 H   0  0  0  0  0  0  0  0  0  0  0  0
   57.2334   33.3654   43.1217 H   0  0  0  0  0  0  0  0  0  0  0  0
   59.0966   32.7055   51.2350 H   0  0  0  0  0  0  0  0  0  0  0  0
   57.6481   33.1533   50.2459 H   0  0  0  0  0  0  0  0  0  0  0  0
   57.6774   31.6694   52.6537 H   0  0  0  0  0  0  0  0  0  0  0  0
   56.2958   31.8891   51.4758 H   0  0  0  0  0  0  0  0  0  0  0  0
   59.2560   30.0277   51.9927 H   0  0  0  0  0  0  0  0  0  0  0  0
   58.6115   28.5434   51.2147 H   0  0  0  0  0  0  0  0  0  0  0  0
   60.2574   30.0833   49.8536 H   0  0  0  0  0  0  0  0  0  0  0  0
   58.7751   29.4547   49.0437 H   0  0  0  0  0  0  0  0  0  0  0  0
   63.5964   34.0585   48.1298 H   0  0  0  0  0  0  0  0  0  0  0  0
   62.2380   34.3302   45.8761 H   0  0  0  0  0  0  0  0  0  0  0  0
  1  2  1  0
  2  3  1  0
  3  4  1  0
  4  5  1  0
  5  6  1  0
  6  7  1  0
  7  8  1  0
  8  9  2  0
  9 10  1  0
 10 11  1  0
 11 12  1  0
 12 13  1  0
 13 14  1  0
 14 15  1  0
 15 16  1  0
 10 17  2  0
 17 18  1  0
 18 19  1  0
 19 20  2  0
 20 21  1  0
 21 22  2  0
 22  8  1  0
 16 11  1  0
 21 17  1  0
  1 23  1  0
  1 24  1  0
  1 25  1  0
  2 26  1  0
  2 27  1  0
  3 28  1  0
  4 29  1  0
  4 30  1  0
  5 31  1  0
  5 32  1  0
  6 33  1  0
  6 34  1  0
 12 35  1  0
 12 36  1  0
 13 37  1  0
 13 38  1  0
 15 39  1  0
 15 40  1  0
 16 41  1  0
 16 42  1  0
 19 43  1  0
 20 44  1  0
M  END
>  <UniqueID>  (37) 
36

>  <SMILES>  (37) 
CCNCCCOc1nc(N2CCOCC2)c2sccc2n1

>  <Energy>  (37) 
83.16728465412301

>  <Genealogy>  (37) 
CCNCCCOc1nc(N2CCOCC2)c2sccc2n1 (3D coordinates assigned)
CCNCCCOc1nc(N2CCOCC2)c2sccc2n1 (nonaromatic ring conformer: 83.16728465412301 kcal/mol)

>  <smiles>  (37) 
CCNCCCOc1nc(N2CCOCC2)c2sccc2n1

>  <score_type>  (37) 
oracle

>  <origin>  (37) 
adg

>  <m_score__min__energy>  (37) 
-5.9000000000000004

>  <m_primary>  (37) 
energy

$$$$
37:0
     RDKit          3D

 50 52  0  0  0  0  0  0  0  0999 V2000
   57.6610   23.8370   44.3300 C   0  0  0  0  0  0  0  0  0  0  0  0
   57.3940   25.1860   43.6680 C   0  0  0  0  0  0  0  0  0  0  0  0
   57.5400   26.2800   44.6550 N   0  0  0  0  0  0  0  0  0  0  0  0
   57.8760   27.5640   43.9930 C   0  0  0  0  0  0  0  0  0  0  0  0
   57.1010   28.7180   44.6340 C   0  0  0  0  0  0  0  0  0  0  0  0
   55.9390   28.2440   45.2530 O   0  0  0  0  0  0  0  0  0  0  0  0
   58.5300   25.9310   45.7000 C   0  0  0  0  0  0  0  0  0  0  0  0
   58.0280   26.3550   47.0870 C   0  0  0  0  0  0  0  0  0  0  0  0
   59.1060   26.8100   47.9060 O   0  0  0  0  0  0  0  0  0  0  0  0
   59.7540   28.0490   47.7850 C   0  0  0  0  0  0  0  0  0  0  0  0
   60.1700   28.4530   46.5110 C   0  0  0  0  0  0  0  0  0  0  0  0
   60.8410   29.6660   46.3350 C   0  0  0  0  0  0  0  0  0  0  0  0
   61.0900   30.5050   47.4310 C   0  0  0  0  0  0  0  0  0  0  0  0
   61.8160   31.7830   47.2510 C   0  0  0  0  0  0  0  0  0  0  0  0
   63.1910   31.8290   47.5180 C   0  0  0  0  0  0  0  0  0  0  0  0
   63.9040   32.9570   47.2680 N   0  0  0  0  0  0  0  0  0  0  0  0
   63.3020   34.0580   46.7520 C   0  0  0  0  0  0  0  0  0  0  0  0
   61.9700   34.0510   46.5020 N   0  0  0  0  0  0  0  0  0  0  0  0
   61.2020   32.9550   46.7470 C   0  0  0  0  0  0  0  0  0  0  0  0
   59.7460   33.0610   46.5000 C   0  0  0  0  0  0  0  0  0  0  0  0
   59.0640   32.2080   45.6190 C   0  0  0  0  0  0  0  0  0  0  0  0
   57.7120   32.4950   45.4970 C   0  0  0  0  0  0  0  0  0  0  0  0
   57.3720   33.8240   46.4660 S   0  0  0  0  0  0  0  0  0  0  0  0
   58.9290   34.0470   47.0530 C   0  0  0  0  0  0  0  0  0  0  0  0
   60.6700   30.1050   48.7100 C   0  0  0  0  0  0  0  0  0  0  0  0
   60.0010   28.8910   48.8860 C   0  0  0  0  0  0  0  0  0  0  0  0
   57.6378   23.9542   45.4235 H   0  0  0  0  0  0  0  0  0  0  0  0
   56.8878   23.1179   44.0218 H   0  0  0  0  0  0  0  0  0  0  0  0
   58.6499   23.4666   44.0218 H   0  0  0  0  0  0  0  0  0  0  0  0
   58.1131   25.3373   42.8494 H   0  0  0  0  0  0  0  0  0  0  0  0
   56.3672   25.1943   43.2736 H   0  0  0  0  0  0  0  0  0  0  0  0
   58.9550   27.7521   44.0950 H   0  0  0  0  0  0  0  0  0  0  0  0
   57.6007   27.4983   42.9300 H   0  0  0  0  0  0  0  0  0  0  0  0
   57.7374   29.2080   45.3856 H   0  0  0  0  0  0  0  0  0  0  0  0
   56.8188   29.4359   43.8498 H   0  0  0  0  0  0  0  0  0  0  0  0
   55.8780   27.2810   45.0240 H   0  0  0  0  0  0  0  0  0  0  0  0
   58.6945   24.8434   45.6926 H   0  0  0  0  0  0  0  0  0  0  0  0
   59.4701   26.4610   45.4872 H   0  0  0  0  0  0  0  0  0  0  0  0
   57.2964   27.1682   46.9713 H   0  0  0  0  0  0  0  0  0  0  0  0
   57.5635   25.4839   47.5723 H   0  0  0  0  0  0  0  0  0  0  0  0
   59.9671   27.8105   45.6415 H   0  0  0  0  0  0  0  0  0  0  0  0
   61.1760   29.9647   45.3307 H   0  0  0  0  0  0  0  0  0  0  0  0
   63.6963   30.9446   47.9332 H   0  0  0  0  0  0  0  0  0  0  0  0
   64.9310   32.9730   47.4620 H   0  0  0  0  0  0  0  0  0  0  0  0
   63.8963   34.9581   46.5361 H   0  0  0  0  0  0  0  0  0  0  0  0
   59.5557   31.3878   45.0754 H   0  0  0  0  0  0  0  0  0  0  0  0
   56.9890   31.9476   44.8743 H   0  0  0  0  0  0  0  0  0  0  0  0
   59.2491   34.8337   47.7520 H   0  0  0  0  0  0  0  0  0  0  0  0
   60.8688   30.7509   49.5779 H   0  0  0  0  0  0  0  0  0  0  0  0
   59.6656   28.5916   49.8899 H   0  0  0  0  0  0  0  0  0  0  0  0
  1  2  1  0
  2  3  1  0
  3  4  1  0
  4  5  1  0
  5  6  1  0
  3  7  1  0
  7  8  1  0
  8  9  1  0
  9 10  1  0
 10 11  2  0
 11 12  1  0
 12 13  2  0
 13 14  1  0
 14 15  2  0
 15 16  1  0
 16 17  2  0
 17 18  1  0
 18 19  2  0
 19 20  1  0
 20 21  1  0
 21 22  2  0
 22 23  1  0
 23 24  1  0
 13 25  1  0
 25 26  2  0
 26 10  1  0
 19 14  1  0
 24 20  2  0
  1 27  1  0
  1 28  1  0
  1 29  1  0
  2 30  1  0
  2 31  1  0
  4 32  1  0
  4 33  1  0
  5 34  1  0
  5 35  1  0
  6 36  1  0
  7 37  1  0
  7 38  1  0
  8 39  1  0
  8 40  1  0
 11 41  1  0
 12 42  1  0
 15 43  1  0
 16 44  1  0
 17 45  1  0
 21 46  1  0
 22 47  1  0
 24 48  1  0
 25 49  1  0
 26 50  1  0
M  CHG  1  16   1
M  END
>  <UniqueID>  (38) 
37

>  <SMILES>  (38) 
CCN(CCO)CCOc1ccc(-c2c[nH+]cnc2-c2ccsc2)cc1

>  <Energy>  (38) 
85.72004020689175

>  <Genealogy>  (38) 
CCN(CCO)CCOc1ccc(-c2c[nH+]cnc2-c2ccsc2)cc1 (protonated)
CCN(CCO)CCOc1ccc(-c2c[nH+]cnc2-c2ccsc2)cc1 (3D coordinates assigned)
CCN(CCO)CCOc1ccc(-c2c[nH+]cnc2-c2ccsc2)cc1 (optimized conformer: 85.72004020689175 kcal/mol)

>  <smiles>  (38) 
CCN(CCO)CCOc1ccc(-c2cncnc2-c2ccsc2)cc1

>  <score_type>  (38) 
oracle

>  <origin>  (38) 
adg

>  <m_score__min__energy>  (38) 
-6.4299999999999997

>  <m_primary>  (38) 
energy

$$$$
