0:0
     RDKit          3D

 63 67  0  0  0  0  0  0  0  0999 V2000
   60.2340   27.7110   45.9380 C   0  0  0  0  0  0  0  0  0  0  0  0
   59.0510   28.0050   46.7650 N   0  0  0  0  0  0  0  0  0  0  0  0
   57.8390   27.3000   46.2810 C   0  0  0  0  0  0  0  0  0  0  0  0
   57.3640   27.7880   44.8930 C   0  0  0  0  0  0  0  0  0  0  0  0
   57.4610   29.2800   44.7990 C   0  0  0  0  0  0  0  0  0  0  0  0
   58.1610   30.0430   45.6990 C   0  0  0  0  0  0  0  0  0  0  0  0
   58.1170   31.3530   45.2380 C   0  0  0  0  0  0  0  0  0  0  0  0
   58.7370   32.5560   45.8370 C   0  0  0  0  0  0  0  0  0  0  0  0
   58.1450   33.8180   45.6820 C   0  0  0  0  0  0  0  0  0  0  0  0
   58.7510   34.9360   46.2510 C   0  0  0  0  0  0  0  0  0  0  0  0
   59.9400   34.7970   46.9630 C   0  0  0  0  0  0  0  0  0  0  0  0
   60.5250   33.5290   47.0940 C   0  0  0  0  0  0  0  0  0  0  0  0
   61.7490   33.3610   47.8410 N   0  0  0  0  0  0  0  0  0  0  0  0
   63.0330   33.3240   47.1220 C   0  0  0  0  0  0  0  0  0  0  0  0
   64.1420   32.7310   47.9950 C   0  0  0  0  0  0  0  0  0  0  0  0
   64.2560   33.4970   49.3280 C   0  0  0  0  0  0  0  0  0  0  0  0
   65.1500   32.7910   50.2560 N   0  0  0  0  0  0  0  0  0  0  0  0
   66.5500   33.1360   50.5180 C   0  0  0  0  0  0  0  0  0  0  0  0
   67.1830   31.8860   51.1780 C   0  0  0  0  0  0  0  0  0  0  0  0
   66.0990   30.9240   51.3280 N   0  0  0  0  0  0  0  0  0  0  0  0
   66.2870   29.5130   51.6380 C   0  0  0  0  0  0  0  0  0  0  0  0
   64.9500   31.4690   50.7140 C   0  0  0  0  0  0  0  0  0  0  0  0
   63.8710   30.8340   50.5650 O   0  0  0  0  0  0  0  0  0  0  0  0
   62.8820   33.7760   49.9960 C   0  0  0  0  0  0  0  0  0  0  0  0
   61.7100   33.0870   49.2870 C   0  0  0  0  0  0  0  0  0  0  0  0
   59.9120   32.4450   46.5280 N   0  0  0  0  0  0  0  0  0  0  0  0
   57.4080   31.3120   44.0450 C   0  0  0  0  0  0  0  0  0  0  0  0
   57.0180   30.0470   43.7830 N   0  0  0  0  0  0  0  0  0  0  0  0
   56.2540   29.6040   42.6210 C   0  0  0  0  0  0  0  0  0  0  0  0
   58.8310   29.4630   46.9120 C   0  0  0  0  0  0  0  0  0  0  0  0
   61.0935   27.4974   46.5904 H   0  0  0  0  0  0  0  0  0  0  0  0
   60.0293   26.8364   45.3030 H   0  0  0  0  0  0  0  0  0  0  0  0
   60.4626   28.5797   45.3030 H   0  0  0  0  0  0  0  0  0  0  0  0
   58.0625   26.2249   46.2159 H   0  0  0  0  0  0  0  0  0  0  0  0
   57.0304   27.5114   46.9962 H   0  0  0  0  0  0  0  0  0  0  0  0
   57.9952   27.3346   44.1145 H   0  0  0  0  0  0  0  0  0  0  0  0
   56.3145   27.4905   44.7517 H   0  0  0  0  0  0  0  0  0  0  0  0
   57.2084   33.9243   45.1149 H   0  0  0  0  0  0  0  0  0  0  0  0
   58.2904   35.9285   46.1380 H   0  0  0  0  0  0  0  0  0  0  0  0
   60.4174   35.6764   47.4198 H   0  0  0  0  0  0  0  0  0  0  0  0
   62.9200   32.7073   46.2182 H   0  0  0  0  0  0  0  0  0  0  0  0
   63.3128   34.3544   46.8574 H   0  0  0  0  0  0  0  0  0  0  0  0
   63.9117   31.6758   48.2037 H   0  0  0  0  0  0  0  0  0  0  0  0
   65.0978   32.8144   47.4569 H   0  0  0  0  0  0  0  0  0  0  0  0
   64.6873   34.4794   49.0853 H   0  0  0  0  0  0  0  0  0  0  0  0
   67.0672   33.3743   49.5769 H   0  0  0  0  0  0  0  0  0  0  0  0
   66.6317   34.0193   51.1685 H   0  0  0  0  0  0  0  0  0  0  0  0
   67.9750   31.4734   50.5358 H   0  0  0  0  0  0  0  0  0  0  0  0
   67.6448   32.1296   52.1462 H   0  0  0  0  0  0  0  0  0  0  0  0
   66.3052   29.3766   52.7294 H   0  0  0  0  0  0  0  0  0  0  0  0
   65.4586   28.9299   51.2094 H   0  0  0  0  0  0  0  0  0  0  0  0
   67.2392   29.1671   51.2094 H   0  0  0  0  0  0  0  0  0  0  0  0
   62.9203   33.4177   51.0353 H   0  0  0  0  0  0  0  0  0  0  0  0
   62.7058   34.8602   49.9366 H   0  0  0  0  0  0  0  0  0  0  0  0
   61.7751   32.0013   49.4516 H   0  0  0  0  0  0  0  0  0  0  0  0
   60.7670   33.4770   49.6976 H   0  0  0  0  0  0  0  0  0  0  0  0
   60.3500   31.5030   46.6290 H   0  0  0  0  0  0  0  0  0  0  0  0
   57.1954   32.1826   43.4072 H   0  0  0  0  0  0  0  0  0  0  0  0
   55.3478   29.0785   42.9566 H   0  0  0  0  0  0  0  0  0  0  0  0
   55.9687   30.4768   42.0153 H   0  0  0  0  0  0  0  0  0  0  0  0
   56.8697   28.9228   42.0153 H   0  0  0  0  0  0  0  0  0  0  0  0
   59.8026   29.9586   47.0551 H   0  0  0  0  0  0  0  0  0  0  0  0
   58.1761   29.6277   47.7803 H   0  0  0  0  0  0  0  0  0  0  0  0
  1  2  1  0
  2  3  1  0
  3  4  1  0
  4  5  1  0
  5  6  2  0
  6  7  1  0
  7  8  1  0
  8  9  2  0
  9 10  1  0
 10 11  2  0
 11 12  1  0
 12 13  1  0
 13 14  1  0
 14 15  1  0
 15 16  1  0
 16 17  1  0
 17 18  1  0
 18 19  1  0
 19 20  1  0
 20 21  1  0
 20 22  1  0
 22 23  2  0
 16 24  1  0
 24 25  1  0
 12 26  2  0
  7 27  2  0
 27 28  1  0
 28 29  1  0
  6 30  1  0
 30  2  1  0
 28  5  1  0
 26  8  1  0
 25 13  1  0
 22 17  1  0
  1 31  1  0
  1 32  1  0
  1 33  1  0
  3 34  1  0
  3 35  1  0
  4 36  1  0
  4 37  1  0
  9 38  1  0
 10 39  1  0
 11 40  1  0
 14 41  1  0
 14 42  1  0
 15 43  1  0
 15 44  1  0
 16 45  1  0
 18 46  1  0
 18 47  1  0
 19 48  1  0
 19 49  1  0
 21 50  1  0
 21 51  1  0
 21 52  1  0
 24 53  1  0
 24 54  1  0
 25 55  1  0
 25 56  1  0
 26 57  1  0
 27 58  1  0
 29 59  1  0
 29 60  1  0
 29 61  1  0
 30 62  1  0
 30 63  1  0
M  CHG  1  26   1
M  END
>  <UniqueID>  (1) 
1

>  <SMILES>  (1) 
CN1CCc2c(c(-c3cccc(N4CCC(N5CCN(C)C5=O)CC4)[nH+]3)cn2C)C1

>  <Energy>  (1) 
117.82177830431432

>  <Genealogy>  (1) 
CN1CCc2c(c(-c3cccc(N4CCC(N5CCN(C)C5=O)CC4)[nH+]3)cn2C)C1 (protonated)
CN1CCc2c(c(-c3cccc(N4CCC(N5CCN(C)C5=O)CC4)[nH+]3)cn2C)C1 (3D coordinates assigned)
CN1CCc2c(c(-c3cccc(N4CCC(N5CCN(C)C5=O)CC4)[nH+]3)cn2C)C1 (nonaromatic ring conformer: 117.82177830431432 kcal/mol)

>  <smiles>  (1) 
CN1CCc2c(c(-c3cccc(N4CCC(N5CCN(C)C5=O)CC4)n3)cn2C)C1

>  <score_type>  (1) 
oracle

>  <origin>  (1) 
adg

>  <m_score__min__energy>  (1) 
-7.5899999999999999

>  <m_primary>  (1) 
energy

$$$$
1:0
     RDKit          3D

 44 46  0  0  0  0  0  0  0  0999 V2000
   56.6220   30.3520   42.8900 C   0  0  0  0  0  0  0  0  0  0  0  0
   55.4440   29.8720   43.7430 C   0  0  0  0  0  0  0  0  0  0  0  0
   55.8570   28.9380   44.8020 N   0  0  0  0  0  0  0  0  0  0  0  0
   57.1740   28.3440   44.5390 C   0  0  0  0  0  0  0  0  0  0  0  0
   58.2340   28.9730   45.4530 C   0  0  0  0  0  0  0  0  0  0  0  0
   57.6150   29.7700   46.5260 N   0  0  0  0  0  0  0  0  0  0  0  0
   58.5010   30.8530   46.9290 C   0  0  0  0  0  0  0  0  0  0  0  0
   58.4170   32.1250   46.3030 C   0  0  0  0  0  0  0  0  0  0  0  0
   57.3950   32.4290   45.3660 C   0  0  0  0  0  0  0  0  0  0  0  0
   57.3820   33.6420   44.6850 C   0  0  0  0  0  0  0  0  0  0  0  0
   58.3820   34.5780   44.9100 C   0  0  0  0  0  0  0  0  0  0  0  0
   59.3680   34.3290   45.8600 C   0  0  0  0  0  0  0  0  0  0  0  0
   59.3780   33.1280   46.6170 C   0  0  0  0  0  0  0  0  0  0  0  0
   60.2950   32.9240   47.6270 N   0  0  0  0  0  0  0  0  0  0  0  0
   61.0820   34.0660   48.1500 C   0  0  0  0  0  0  0  0  0  0  0  0
   60.4430   31.6730   48.1910 C   0  0  0  0  0  0  0  0  0  0  0  0
   61.5320   31.3770   49.0530 C   0  0  0  0  0  0  0  0  0  0  0  0
   61.6260   30.1500   49.7030 C   0  0  0  0  0  0  0  0  0  0  0  0
   60.6480   29.1850   49.5150 C   0  0  0  0  0  0  0  0  0  0  0  0
   60.7480   27.6580   50.3740 Cl  0  0  0  0  0  0  0  0  0  0  0  0
   59.5980   29.4210   48.6280 C   0  0  0  0  0  0  0  0  0  0  0  0
   59.5050   30.6400   47.9110 C   0  0  0  0  0  0  0  0  0  0  0  0
   57.4389   30.6849   43.5471 H   0  0  0  0  0  0  0  0  0  0  0  0
   56.9755   29.5262   42.2551 H   0  0  0  0  0  0  0  0  0  0  0  0
   56.2977   31.1897   42.2551 H   0  0  0  0  0  0  0  0  0  0  0  0
   54.9678   30.7465   44.2104 H   0  0  0  0  0  0  0  0  0  0  0  0
   54.7478   29.3376   43.0798 H   0  0  0  0  0  0  0  0  0  0  0  0
   55.1460   28.1730   44.8870 H   0  0  0  0  0  0  0  0  0  0  0  0
   57.1281   27.2613   44.7281 H   0  0  0  0  0  0  0  0  0  0  0  0
   57.4484   28.5321   43.4905 H   0  0  0  0  0  0  0  0  0  0  0  0
   58.8375   28.1720   45.9050 H   0  0  0  0  0  0  0  0  0  0  0  0
   58.8627   29.6403   44.8452 H   0  0  0  0  0  0  0  0  0  0  0  0
   56.6860   30.1340   46.2220 H   0  0  0  0  0  0  0  0  0  0  0  0
   57.3690   29.1670   47.3400 H   0  0  0  0  0  0  0  0  0  0  0  0
   56.6000   31.6931   45.1752 H   0  0  0  0  0  0  0  0  0  0  0  0
   56.5777   33.8598   43.9669 H   0  0  0  0  0  0  0  0  0  0  0  0
   58.3951   35.5170   44.3372 H   0  0  0  0  0  0  0  0  0  0  0  0
   60.1558   35.0781   46.0278 H   0  0  0  0  0  0  0  0  0  0  0  0
   61.0690   34.0472   49.2498 H   0  0  0  0  0  0  0  0  0  0  0  0
   62.1200   33.9895   47.7942 H   0  0  0  0  0  0  0  0  0  0  0  0
   60.6410   35.0088   47.7942 H   0  0  0  0  0  0  0  0  0  0  0  0
   62.3164   32.1321   49.2100 H   0  0  0  0  0  0  0  0  0  0  0  0
   62.4783   29.9451   50.3676 H   0  0  0  0  0  0  0  0  0  0  0  0
   58.8290   28.6480   48.4824 H   0  0  0  0  0  0  0  0  0  0  0  0
  1  2  1  0
  2  3  1  0
  3  4  1  0
  4  5  1  0
  5  6  1  0
  6  7  1  0
  7  8  2  0
  8  9  1  0
  9 10  2  0
 10 11  1  0
 11 12  2  0
 12 13  1  0
 13 14  2  0
 14 15  1  0
 14 16  1  0
 16 17  2  0
 17 18  1  0
 18 19  2  0
 19 20  1  0
 19 21  1  0
 21 22  2  0
 22  7  1  0
 13  8  1  0
 22 16  1  0
  1 23  1  0
  1 24  1  0
  1 25  1  0
  2 26  1  0
  2 27  1  0
  3 28  1  0
  4 29  1  0
  4 30  1  0
  5 31  1  0
  5 32  1  0
  6 33  1  0
  6 34  1  0
  9 35  1  0
 10 36  1  0
 11 37  1  0
 12 38  1  0
 15 39  1  0
 15 40  1  0
 15 41  1  0
 17 42  1  0
 18 43  1  0
 21 44  1  0
M  CHG  2   6   1  14   1
M  END
>  <UniqueID>  (2) 
2

>  <SMILES>  (2) 
CCNCC[NH2+]c1c2ccccc2[n+](C)c2ccc(Cl)cc12

>  <Energy>  (2) 
70.11638299485834

>  <Genealogy>  (2) 
CCNCC[NH2+]c1c2ccccc2[n+](C)c2ccc(Cl)cc12 (protonated)
CCNCC[NH2+]c1c2ccccc2[n+](C)c2ccc(Cl)cc12 (3D coordinates assigned)
CCNCC[NH2+]c1c2ccccc2[n+](C)c2ccc(Cl)cc12 (optimized conformer: 70.11638299485834 kcal/mol)

>  <smiles>  (2) 
CCNCCNc1c2ccccc2[n+](C)c2ccc(Cl)cc12

>  <score_type>  (2) 
oracle

>  <origin>  (2) 
adg

>  <m_score__min__energy>  (2) 
-4.2599999999999998

>  <m_primary>  (2) 
energy

$$$$
2:0
     RDKit          3D

 47 49  0  0  0  0  0  0  0  0999 V2000
   55.4640   29.2800   44.8820 O   0  0  0  0  0  0  0  0  0  0  0  0
   56.6290   29.7340   44.7430 C   0  0  0  0  0  0  0  0  0  0  0  0
   57.6750   28.8750   44.0780 C   0  0  0  0  0  0  0  0  0  0  0  0
   58.3660   28.0360   45.0720 N   0  0  0  0  0  0  0  0  0  0  0  0
   59.2520   28.6500   46.0310 C   0  0  0  0  0  0  0  0  0  0  0  0
   59.6110   29.8530   45.9040 O   0  0  0  0  0  0  0  0  0  0  0  0
   59.7040   27.8740   47.2300 C   0  0  0  0  0  0  0  0  0  0  0  0
   59.8310   26.4880   46.9220 O   0  0  0  0  0  0  0  0  0  0  0  0
   59.0020   25.8410   46.0010 C   0  0  0  0  0  0  0  0  0  0  0  0
   58.9510   24.4430   45.9920 C   0  0  0  0  0  0  0  0  0  0  0  0
   58.1340   23.7770   45.0770 C   0  0  0  0  0  0  0  0  0  0  0  0
   57.3720   24.5040   44.1630 C   0  0  0  0  0  0  0  0  0  0  0  0
   57.4260   25.9010   44.1560 C   0  0  0  0  0  0  0  0  0  0  0  0
   58.2430   26.5910   45.0780 C   0  0  0  0  0  0  0  0  0  0  0  0
   56.8980   31.0750   45.1790 N   0  0  0  0  0  0  0  0  0  0  0  0
   57.3960   32.1710   44.3540 C   0  0  0  0  0  0  0  0  0  0  0  0
   57.1630   33.5200   45.0450 C   0  0  0  0  0  0  0  0  0  0  0  0
   57.5920   33.4640   46.5240 C   0  0  0  0  0  0  0  0  0  0  0  0
   58.7420   32.5410   46.7340 N   0  0  0  0  0  0  0  0  0  0  0  0
   60.0180   33.1050   46.2180 C   0  0  0  0  0  0  0  0  0  0  0  0
   60.8050   33.8790   47.2970 C   0  0  0  0  0  0  0  0  0  0  0  0
   59.9290   34.4100   48.2660 O   0  0  0  0  0  0  0  0  0  0  0  0
   59.3480   33.3630   49.0240 C   0  0  0  0  0  0  0  0  0  0  0  0
   58.8790   32.1680   48.1590 C   0  0  0  0  0  0  0  0  0  0  0  0
   57.1903   28.2273   43.3327 H   0  0  0  0  0  0  0  0  0  0  0  0
   58.4136   29.5289   43.5913 H   0  0  0  0  0  0  0  0  0  0  0  0
   60.6792   28.2598   47.5618 H   0  0  0  0  0  0  0  0  0  0  0  0
   58.9536   27.9893   48.0260 H   0  0  0  0  0  0  0  0  0  0  0  0
   59.5562   23.8672   46.7077 H   0  0  0  0  0  0  0  0  0  0  0  0
   58.0912   22.6778   45.0769 H   0  0  0  0  0  0  0  0  0  0  0  0
   56.7264   23.9767   43.4453 H   0  0  0  0  0  0  0  0  0  0  0  0
   56.8276   26.4668   43.4268 H   0  0  0  0  0  0  0  0  0  0  0  0
   58.4741   32.0339   44.1842 H   0  0  0  0  0  0  0  0  0  0  0  0
   56.8548   32.1665   43.3964 H   0  0  0  0  0  0  0  0  0  0  0  0
   57.7497   34.2945   44.5293 H   0  0  0  0  0  0  0  0  0  0  0  0
   56.0896   33.7561   45.0001 H   0  0  0  0  0  0  0  0  0  0  0  0
   57.8828   34.4740   46.8485 H   0  0  0  0  0  0  0  0  0  0  0  0
   56.7415   33.0883   47.1117 H   0  0  0  0  0  0  0  0  0  0  0  0
   58.5490   31.6510   46.2140 H   0  0  0  0  0  0  0  0  0  0  0  0
   60.6445   32.2793   45.8495 H   0  0  0  0  0  0  0  0  0  0  0  0
   59.7679   33.8144   45.4154 H   0  0  0  0  0  0  0  0  0  0  0  0
   61.5143   33.1956   47.7868 H   0  0  0  0  0  0  0  0  0  0  0  0
   61.3451   34.7076   46.8156 H   0  0  0  0  0  0  0  0  0  0  0  0
   60.0937   32.9996   49.7464 H   0  0  0  0  0  0  0  0  0  0  0  0
   58.4571   33.7756   49.5200 H   0  0  0  0  0  0  0  0  0  0  0  0
   59.6155   31.3555   48.2451 H   0  0  0  0  0  0  0  0  0  0  0  0
   57.8922   31.8478   48.5248 H   0  0  0  0  0  0  0  0  0  0  0  0
  1  2  2  0
  2  3  1  0
  3  4  1  0
  4  5  1  0
  5  6  2  0
  5  7  1  0
  7  8  1  0
  8  9  1  0
  9 10  2  0
 10 11  1  0
 11 12  2  0
 12 13  1  0
 13 14  2  0
  2 15  1  0
 15 16  1  0
 16 17  1  0
 17 18  1  0
 18 19  1  0
 19 20  1  0
 20 21  1  0
 21 22  1  0
 22 23  1  0
 23 24  1  0
 14  4  1  0
 24 19  1  0
 14  9  1  0
  3 25  1  0
  3 26  1  0
  7 27  1  0
  7 28  1  0
 10 29  1  0
 11 30  1  0
 12 31  1  0
 13 32  1  0
 16 33  1  0
 16 34  1  0
 17 35  1  0
 17 36  1  0
 18 37  1  0
 18 38  1  0
 19 39  1  0
 20 40  1  0
 20 41  1  0
 21 42  1  0
 21 43  1  0
 23 44  1  0
 23 45  1  0
 24 46  1  0
 24 47  1  0
M  CHG  2  15  -1  19   1
M  END
>  <UniqueID>  (3) 
3

>  <SMILES>  (3) 
O=C(CN1C(=O)COc2ccccc21)[N-]CCC[NH+]1CCOCC1

>  <Energy>  (3) 
60.57709597539583

>  <Genealogy>  (3) 
O=C(CN1C(=O)COc2ccccc21)[N-]CCC[NH+]1CCOCC1 (protonated)
O=C(CN1C(=O)COc2ccccc21)[N-]CCC[NH+]1CCOCC1 (3D coordinates assigned)
O=C(CN1C(=O)COc2ccccc21)[N-]CCC[NH+]1CCOCC1 (nonaromatic ring conformer: 60.57709597539583 kcal/mol)

>  <smiles>  (3) 
O=C(CN1C(=O)COc2ccccc21)NCCCN1CCOCC1

>  <score_type>  (3) 
oracle

>  <origin>  (3) 
adg

>  <m_score__min__energy>  (3) 
-7.1799999999999997

>  <m_primary>  (3) 
energy

$$$$
3:0
     RDKit          3D

 73 76  0  0  0  0  0  0  0  0999 V2000
   56.9560   24.1150   43.1200 C   0  0  0  0  0  0  0  0  0  0  0  0
   57.5730   24.9190   44.2280 C   0  0  0  0  0  0  0  0  0  0  0  0
   57.8790   24.3150   45.4450 C   0  0  0  0  0  0  0  0  0  0  0  0
   58.4190   25.0670   46.4840 C   0  0  0  0  0  0  0  0  0  0  0  0
   58.6760   26.4540   46.3360 C   0  0  0  0  0  0  0  0  0  0  0  0
   58.2940   27.0900   45.1240 C   0  0  0  0  0  0  0  0  0  0  0  0
   57.7560   26.2970   44.0780 C   0  0  0  0  0  0  0  0  0  0  0  0
   58.4480   28.5000   44.9900 C   0  0  0  0  0  0  0  0  0  0  0  0
   58.1360   29.1540   43.7230 N   0  0  0  0  0  0  0  0  0  0  0  0
   56.7420   29.6500   43.6740 C   0  0  0  0  0  0  0  0  0  0  0  0
   56.6330   31.1860   43.7010 C   0  0  0  0  0  0  0  0  0  0  0  0
   57.8880   31.8550   43.2890 N   0  0  0  0  0  0  0  0  0  0  0  0
   58.1090   33.0490   44.1200 C   0  0  0  0  0  0  0  0  0  0  0  0
   57.8480   32.2510   41.8690 C   0  0  0  0  0  0  0  0  0  0  0  0
   58.8720   29.2470   46.1270 C   0  0  0  0  0  0  0  0  0  0  0  0
   58.9480   30.6610   46.1190 C   0  0  0  0  0  0  0  0  0  0  0  0
   59.3010   31.3770   47.2580 C   0  0  0  0  0  0  0  0  0  0  0  0
   59.5840   30.7210   48.4470 C   0  0  0  0  0  0  0  0  0  0  0  0
   59.8980   31.4960   49.5720 O   0  0  0  0  0  0  0  0  0  0  0  0
   59.5830   32.8790   49.7210 C   0  0  0  0  0  0  0  0  0  0  0  0
   60.8030   33.6130   50.3170 C   0  0  0  0  0  0  0  0  0  0  0  0
   62.0000   33.6970   49.4150 N   0  0  0  0  0  0  0  0  0  0  0  0
   63.0180   34.5840   50.0420 C   0  0  0  0  0  0  0  0  0  0  0  0
   62.5570   32.3120   49.3120 C   0  0  0  0  0  0  0  0  0  0  0  0
   63.7690   32.1940   48.3590 C   0  0  0  0  0  0  0  0  0  0  0  0
   63.6580   33.0980   47.1230 C   0  0  0  0  0  0  0  0  0  0  0  0
   62.2130   33.4910   46.8560 C   0  0  0  0  0  0  0  0  0  0  0  0
   61.5920   34.2250   48.0630 C   0  0  0  0  0  0  0  0  0  0  0  0
   59.5470   29.3190   48.4790 C   0  0  0  0  0  0  0  0  0  0  0  0
   59.2340   28.5590   47.3210 C   0  0  0  0  0  0  0  0  0  0  0  0
   59.2670   27.1800   47.3480 N   0  0  0  0  0  0  0  0  0  0  0  0
   59.9660   26.4780   48.4500 C   0  0  0  0  0  0  0  0  0  0  0  0
   56.3395   23.3116   43.5494 H   0  0  0  0  0  0  0  0  0  0  0  0
   56.3258   24.7690   42.4995 H   0  0  0  0  0  0  0  0  0  0  0  0
   57.7508   23.6754   42.4995 H   0  0  0  0  0  0  0  0  0  0  0  0
   57.6932   23.2399   45.5854 H   0  0  0  0  0  0  0  0  0  0  0  0
   58.6514   24.5754   47.4402 H   0  0  0  0  0  0  0  0  0  0  0  0
   57.4767   26.7766   43.1283 H   0  0  0  0  0  0  0  0  0  0  0  0
   58.2810   28.4690   42.9480 H   0  0  0  0  0  0  0  0  0  0  0  0
   58.8150   29.9000   43.4690 H   0  0  0  0  0  0  0  0  0  0  0  0
   56.2751   29.2844   42.7475 H   0  0  0  0  0  0  0  0  0  0  0  0
   56.2341   29.2746   44.5746 H   0  0  0  0  0  0  0  0  0  0  0  0
   55.8289   31.4939   43.0164 H   0  0  0  0  0  0  0  0  0  0  0  0
   56.4214   31.4860   44.7379 H   0  0  0  0  0  0  0  0  0  0  0  0
   58.0575   32.7706   45.1829 H   0  0  0  0  0  0  0  0  0  0  0  0
   59.1005   33.4710   43.8991 H   0  0  0  0  0  0  0  0  0  0  0  0
   57.3342   33.7980   43.8991 H   0  0  0  0  0  0  0  0  0  0  0  0
   57.7377   33.3430   41.7958 H   0  0  0  0  0  0  0  0  0  0  0  0
   58.7818   31.9429   41.3760 H   0  0  0  0  0  0  0  0  0  0  0  0
   56.9946   31.7624   41.3760 H   0  0  0  0  0  0  0  0  0  0  0  0
   58.7226   31.2058   45.1904 H   0  0  0  0  0  0  0  0  0  0  0  0
   59.3563   32.4748   47.2155 H   0  0  0  0  0  0  0  0  0  0  0  0
   59.3381   33.3090   48.7386 H   0  0  0  0  0  0  0  0  0  0  0  0
   58.7183   32.9922   50.3914 H   0  0  0  0  0  0  0  0  0  0  0  0
   60.4939   34.6381   50.5691 H   0  0  0  0  0  0  0  0  0  0  0  0
   61.1186   33.0228   51.1899 H   0  0  0  0  0  0  0  0  0  0  0  0
   62.9394   34.5155   51.1370 H   0  0  0  0  0  0  0  0  0  0  0  0
   64.0234   34.2688   49.7261 H   0  0  0  0  0  0  0  0  0  0  0  0
   62.8434   35.6231   49.7261 H   0  0  0  0  0  0  0  0  0  0  0  0
   62.8726   31.9900   50.3154 H   0  0  0  0  0  0  0  0  0  0  0  0
   61.7605   31.6774   48.8962 H   0  0  0  0  0  0  0  0  0  0  0  0
   64.6778   32.4704   48.9136 H   0  0  0  0  0  0  0  0  0  0  0  0
   63.8029   31.1544   48.0011 H   0  0  0  0  0  0  0  0  0  0  0  0
   64.2523   34.0084   47.2900 H   0  0  0  0  0  0  0  0  0  0  0  0
   64.0345   32.5431   46.2511 H   0  0  0  0  0  0  0  0  0  0  0  0
   62.1796   34.1542   45.9790 H   0  0  0  0  0  0  0  0  0  0  0  0
   61.6342   32.5730   46.6764 H   0  0  0  0  0  0  0  0  0  0  0  0
   61.8884   35.2828   48.0072 H   0  0  0  0  0  0  0  0  0  0  0  0
   60.5057   34.0685   47.9894 H   0  0  0  0  0  0  0  0  0  0  0  0
   59.7653   28.7967   49.4222 H   0  0  0  0  0  0  0  0  0  0  0  0
   59.5948   26.8508   49.4160 H   0  0  0  0  0  0  0  0  0  0  0  0
   59.7746   25.3973   48.3760 H   0  0  0  0  0  0  0  0  0  0  0  0
   61.0475   26.6648   48.3760 H   0  0  0  0  0  0  0  0  0  0  0  0
  1  2  1  0
  2  3  2  0
  3  4  1  0
  4  5  2  0
  5  6  1  0
  6  7  2  0
  6  8  1  0
  8  9  1  0
  9 10  1  0
 10 11  1  0
 11 12  1  0
 12 13  1  0
 12 14  1  0
  8 15  2  0
 15 16  1  0
 16 17  2  0
 17 18  1  0
 18 19  1  0
 19 20  1  0
 20 21  1  0
 21 22  1  0
 22 23  1  0
 22 24  1  0
 24 25  1  0
 25 26  1  0
 26 27  1  0
 27 28  1  0
 18 29  2  0
 29 30  1  0
 30 31  2  0
 31 32  1  0
  7  2  1  0
 30 15  1  0
 31  5  1  0
 28 22  1  0
  1 33  1  0
  1 34  1  0
  1 35  1  0
  3 36  1  0
  4 37  1  0
  7 38  1  0
  9 39  1  0
  9 40  1  0
 10 41  1  0
 10 42  1  0
 11 43  1  0
 11 44  1  0
 13 45  1  0
 13 46  1  0
 13 47  1  0
 14 48  1  0
 14 49  1  0
 14 50  1  0
 16 51  1  0
 17 52  1  0
 20 53  1  0
 20 54  1  0
 21 55  1  0
 21 56  1  0
 23 57  1  0
 23 58  1  0
 23 59  1  0
 24 60  1  0
 24 61  1  0
 25 62  1  0
 25 63  1  0
 26 64  1  0
 26 65  1  0
 27 66  1  0
 27 67  1  0
 28 68  1  0
 28 69  1  0
 29 70  1  0
 32 71  1  0
 32 72  1  0
 32 73  1  0
M  CHG  3   9   1  22   1  31   1
M  END
>  <UniqueID>  (4) 
4

>  <SMILES>  (4) 
Cc1ccc2c(c1)c([NH2+]CCN(C)C)c1ccc(OCC[N+]3(C)CCCCC3)cc1[n+]2C

>  <Energy>  (4) 
119.27597049589313

>  <Genealogy>  (4) 
Cc1ccc2c(c1)c([NH2+]CCN(C)C)c1ccc(OCC[N+]3(C)CCCCC3)cc1[n+]2C (protonated)
Cc1ccc2c(c1)c([NH2+]CCN(C)C)c1ccc(OCC[N+]3(C)CCCCC3)cc1[n+]2C (3D coordinates assigned)
Cc1ccc2c(c1)c([NH2+]CCN(C)C)c1ccc(OCC[N+]3(C)CCCCC3)cc1[n+]2C (nonaromatic ring conformer: 119.27597049589313 kcal/mol)

>  <smiles>  (4) 
Cc1ccc2c(c1)c(NCCN(C)C)c1ccc(OCC[N+]3(C)CCCCC3)cc1[n+]2C

>  <score_type>  (4) 
oracle

>  <origin>  (4) 
adg

>  <m_score__min__energy>  (4) 
-3.98

>  <m_primary>  (4) 
energy

$$$$
4:0
     RDKit          3D

 42 43  0  0  0  0  0  0  0  0999 V2000
   56.4530   29.7610   42.6240 C   0  0  0  0  0  0  0  0  0  0  0  0
   55.7550   29.7940   43.9860 C   0  0  0  0  0  0  0  0  0  0  0  0
   56.2920   30.8560   44.8600 N   0  0  0  0  0  0  0  0  0  0  0  0
   57.3550   31.6600   44.2360 C   0  0  0  0  0  0  0  0  0  0  0  0
   58.1680   32.4200   45.2550 C   0  0  0  0  0  0  0  0  0  0  0  0
   58.7830   33.6390   44.9290 C   0  0  0  0  0  0  0  0  0  0  0  0
   59.5060   34.3490   45.8940 C   0  0  0  0  0  0  0  0  0  0  0  0
   59.6610   33.8300   47.1900 C   0  0  0  0  0  0  0  0  0  0  0  0
   60.4720   34.5750   48.2370 C   0  0  0  0  0  0  0  0  0  0  0  0
   61.8850   34.1220   48.3640 N   0  0  0  0  0  0  0  0  0  0  0  0
   62.5430   33.9440   47.0410 C   0  0  0  0  0  0  0  0  0  0  0  0
   63.7300   32.9820   47.1040 C   0  0  0  0  0  0  0  0  0  0  0  0
   63.2380   31.5850   47.4920 C   0  0  0  0  0  0  0  0  0  0  0  0
   62.1510   31.6140   48.5880 C   0  0  0  0  0  0  0  0  0  0  0  0
   62.0640   32.9760   49.3020 C   0  0  0  0  0  0  0  0  0  0  0  0
   59.0160   32.6240   47.5210 C   0  0  0  0  0  0  0  0  0  0  0  0
   58.2770   31.9270   46.5630 C   0  0  0  0  0  0  0  0  0  0  0  0
   57.5419   29.7095   42.7712 H   0  0  0  0  0  0  0  0  0  0  0  0
   56.1169   28.8777   42.0611 H   0  0  0  0  0  0  0  0  0  0  0  0
   56.2018   30.6720   42.0611 H   0  0  0  0  0  0  0  0  0  0  0  0
   54.6809   29.9726   43.8298 H   0  0  0  0  0  0  0  0  0  0  0  0
   55.9312   28.8273   44.4803 H   0  0  0  0  0  0  0  0  0  0  0  0
   55.5380   31.4790   45.2330 H   0  0  0  0  0  0  0  0  0  0  0  0
   58.0246   30.9895   43.6774 H   0  0  0  0  0  0  0  0  0  0  0  0
   56.8767   32.3938   43.5706 H   0  0  0  0  0  0  0  0  0  0  0  0
   58.6960   34.0388   43.9079 H   0  0  0  0  0  0  0  0  0  0  0  0
   59.9556   35.3192   45.6362 H   0  0  0  0  0  0  0  0  0  0  0  0
   60.4764   35.6426   47.9720 H   0  0  0  0  0  0  0  0  0  0  0  0
   59.9914   34.3731   49.2056 H   0  0  0  0  0  0  0  0  0  0  0  0
   62.3830   34.9300   48.8140 H   0  0  0  0  0  0  0  0  0  0  0  0
   61.8039   33.5468   46.3297 H   0  0  0  0  0  0  0  0  0  0  0  0
   62.9237   34.9253   46.7215 H   0  0  0  0  0  0  0  0  0  0  0  0
   64.2183   32.9379   46.1193 H   0  0  0  0  0  0  0  0  0  0  0  0
   64.4496   33.3381   47.8559 H   0  0  0  0  0  0  0  0  0  0  0  0
   62.8217   31.0985   46.5976 H   0  0  0  0  0  0  0  0  0  0  0  0
   64.0990   31.0319   47.8955 H   0  0  0  0  0  0  0  0  0  0  0  0
   61.1775   31.3969   48.1242 H   0  0  0  0  0  0  0  0  0  0  0  0
   62.4191   30.8596   49.3423 H   0  0  0  0  0  0  0  0  0  0  0  0
   61.2090   32.9539   49.9938 H   0  0  0  0  0  0  0  0  0  0  0  0
   63.0178   33.1304   49.8278 H   0  0  0  0  0  0  0  0  0  0  0  0
   59.0947   32.2267   48.5437 H   0  0  0  0  0  0  0  0  0  0  0  0
   57.7775   30.9858   46.8361 H   0  0  0  0  0  0  0  0  0  0  0  0
  1  2  1  0
  2  3  1  0
  3  4  1  0
  4  5  1  0
  5  6  2  0
  6  7  1  0
  7  8  2  0
  8  9  1  0
  9 10  1  0
 10 11  1  0
 11 12  1  0
 12 13  1  0
 13 14  1  0
 14 15  1  0
  8 16  1  0
 16 17  2  0
 17  5  1  0
 15 10  1  0
  1 18  1  0
  1 19  1  0
  1 20  1  0
  2 21  1  0
  2 22  1  0
  3 23  1  0
  4 24  1  0
  4 25  1  0
  6 26  1  0
  7 27  1  0
  9 28  1  0
  9 29  1  0
 10 30  1  0
 11 31  1  0
 11 32  1  0
 12 33  1  0
 12 34  1  0
 13 35  1  0
 13 36  1  0
 14 37  1  0
 14 38  1  0
 15 39  1  0
 15 40  1  0
 16 41  1  0
 17 42  1  0
M  CHG  1  10   1
M  END
>  <UniqueID>  (5) 
5

>  <SMILES>  (5) 
CCNCc1ccc(C[NH+]2CCCCC2)cc1

>  <Energy>  (5) 
51.86517164564637

>  <Genealogy>  (5) 
CCNCc1ccc(C[NH+]2CCCCC2)cc1 (protonated)
CCNCc1ccc(C[NH+]2CCCCC2)cc1 (3D coordinates assigned)
CCNCc1ccc(C[NH+]2CCCCC2)cc1 (nonaromatic ring conformer: 51.86517164564637 kcal/mol)

>  <smiles>  (5) 
CCNCc1ccc(CN2CCCCC2)cc1

>  <score_type>  (5) 
oracle

>  <origin>  (5) 
adg

>  <m_score__min__energy>  (5) 
-5.4100000000000001

>  <m_primary>  (5) 
energy

$$$$
5:0
     RDKit          3D

 42 43  0  0  0  0  0  0  0  0999 V2000
   65.1890   32.9980   49.7480 C   0  0  0  0  0  0  0  0  0  0  0  0
   64.1260   32.2320   48.9580 C   0  0  0  0  0  0  0  0  0  0  0  0
   63.0290   33.1210   48.5040 N   0  0  0  0  0  0  0  0  0  0  0  0
   62.7730   34.1640   49.5250 C   0  0  0  0  0  0  0  0  0  0  0  0
   61.5510   33.8180   50.3750 C   0  0  0  0  0  0  0  0  0  0  0  0
   63.3200   33.7190   47.1730 C   0  0  0  0  0  0  0  0  0  0  0  0
   62.0360   33.8280   46.3430 C   0  0  0  0  0  0  0  0  0  0  0  0
   60.8940   33.2790   47.0760 N   0  0  0  0  0  0  0  0  0  0  0  0
   59.5930   33.0910   46.4860 C   0  0  0  0  0  0  0  0  0  0  0  0
   58.7840   34.2070   46.2270 C   0  0  0  0  0  0  0  0  0  0  0  0
   57.5460   34.0630   45.6110 C   0  0  0  0  0  0  0  0  0  0  0  0
   57.0960   32.8040   45.2190 C   0  0  0  0  0  0  0  0  0  0  0  0
   57.8870   31.6590   45.4370 C   0  0  0  0  0  0  0  0  0  0  0  0
   57.4440   30.3690   45.0400 C   0  0  0  0  0  0  0  0  0  0  0  0
   56.2380   30.1770   44.2840 N   0  0  0  0  0  0  0  0  0  0  0  0
   56.2400   30.3530   43.0480 O   0  0  0  0  0  0  0  0  0  0  0  0
   55.1640   29.5390   44.8610 O   0  0  0  0  0  0  0  0  0  0  0  0
   58.2090   29.2440   45.3780 C   0  0  0  0  0  0  0  0  0  0  0  0
   59.4110   29.3820   46.0650 C   0  0  0  0  0  0  0  0  0  0  0  0
   59.8770   30.6430   46.4240 C   0  0  0  0  0  0  0  0  0  0  0  0
   59.1370   31.8010   46.1090 C   0  0  0  0  0  0  0  0  0  0  0  0
   65.0093   32.8685   50.8255 H   0  0  0  0  0  0  0  0  0  0  0  0
   66.1861   32.6094   49.4933 H   0  0  0  0  0  0  0  0  0  0  0  0
   65.1359   34.0668   49.4933 H   0  0  0  0  0  0  0  0  0  0  0  0
   64.5991   31.7724   48.0777 H   0  0  0  0  0  0  0  0  0  0  0  0
   63.6939   31.4669   49.6197 H   0  0  0  0  0  0  0  0  0  0  0  0
   63.6529   34.2488   50.1796 H   0  0  0  0  0  0  0  0  0  0  0  0
   62.5799   35.1161   49.0091 H   0  0  0  0  0  0  0  0  0  0  0  0
   61.8128   33.8921   51.4408 H   0  0  0  0  0  0  0  0  0  0  0  0
   60.7356   34.5206   50.1480 H   0  0  0  0  0  0  0  0  0  0  0  0
   61.2250   32.7922   50.1480 H   0  0  0  0  0  0  0  0  0  0  0  0
   63.7475   34.7229   47.3125 H   0  0  0  0  0  0  0  0  0  0  0  0
   64.0347   33.0739   46.6409 H   0  0  0  0  0  0  0  0  0  0  0  0
   61.8429   34.8867   46.1151 H   0  0  0  0  0  0  0  0  0  0  0  0
   62.1673   33.2537   45.4141 H   0  0  0  0  0  0  0  0  0  0  0  0
   61.0300   33.0710   48.0900 H   0  0  0  0  0  0  0  0  0  0  0  0
   59.1336   35.2094   46.5150 H   0  0  0  0  0  0  0  0  0  0  0  0
   56.9181   34.9482   45.4320 H   0  0  0  0  0  0  0  0  0  0  0  0
   56.1136   32.7032   44.7346 H   0  0  0  0  0  0  0  0  0  0  0  0
   57.8551   28.2411   45.0970 H   0  0  0  0  0  0  0  0  0  0  0  0
   59.9968   28.4883   46.3261 H   0  0  0  0  0  0  0  0  0  0  0  0
   60.8332   30.7374   46.9594 H   0  0  0  0  0  0  0  0  0  0  0  0
  1  2  1  0
  2  3  1  0
  3  4  1  0
  4  5  1  0
  3  6  1  0
  6  7  1  0
  7  8  1  0
  8  9  1  0
  9 10  2  0
 10 11  1  0
 11 12  2  0
 12 13  1  0
 13 14  2  0
 14 15  1  0
 15 16  2  0
 15 17  1  0
 14 18  1  0
 18 19  2  0
 19 20  1  0
 20 21  2  0
 21  9  1  0
 21 13  1  0
  1 22  1  0
  1 23  1  0
  1 24  1  0
  2 25  1  0
  2 26  1  0
  4 27  1  0
  4 28  1  0
  5 29  1  0
  5 30  1  0
  5 31  1  0
  6 32  1  0
  6 33  1  0
  7 34  1  0
  7 35  1  0
  8 36  1  0
 10 37  1  0
 11 38  1  0
 12 39  1  0
 18 40  1  0
 19 41  1  0
 20 42  1  0
M  CHG  2  15   1  17  -1
M  END
>  <UniqueID>  (6) 
6

>  <SMILES>  (6) 
CCN(CC)CCNc1cccc2c([N+](=O)[O-])cccc12

>  <Energy>  (6) 
53.81753760310633

>  <Genealogy>  (6) 
CCN(CC)CCNc1cccc2c([N+](=O)[O-])cccc12 (3D coordinates assigned)
CCN(CC)CCNc1cccc2c([N+](=O)[O-])cccc12 (optimized conformer: 53.81753760310633 kcal/mol)

>  <smiles>  (6) 
CCN(CC)CCNc1cccc2c([N+](=O)[O-])cccc12

>  <score_type>  (6) 
oracle

>  <origin>  (6) 
adg

>  <m_score__min__energy>  (6) 
-6.9100000000000001

>  <m_primary>  (6) 
energy

$$$$
6:0
     RDKit          3D

 35 36  0  0  0  0  0  0  0  0999 V2000
   56.5560   30.0700   42.8020 C   0  0  0  0  0  0  0  0  0  0  0  0
   55.6220   29.7140   43.9530 C   0  0  0  0  0  0  0  0  0  0  0  0
   56.2500   30.0640   45.2340 N   0  0  0  0  0  0  0  0  0  0  0  0
   57.5590   29.4120   45.3820 C   0  0  0  0  0  0  0  0  0  0  0  0
   58.1630   29.6910   46.7660 C   0  0  0  0  0  0  0  0  0  0  0  0
   59.0700   30.8650   46.7300 N   0  0  0  0  0  0  0  0  0  0  0  0
   60.3390   30.7140   47.2510 C   0  0  0  0  0  0  0  0  0  0  0  0
   60.6980   29.6080   47.7480 O   0  0  0  0  0  0  0  0  0  0  0  0
   61.2580   31.7770   47.2450 C   0  0  0  0  0  0  0  0  0  0  0  0
   62.6400   31.6020   47.8160 C   0  0  0  0  0  0  0  0  0  0  0  0
   60.8690   33.0080   46.7280 C   0  0  0  0  0  0  0  0  0  0  0  0
   59.5830   33.1790   46.2240 C   0  0  0  0  0  0  0  0  0  0  0  0
   59.1850   34.4230   45.7170 C   0  0  0  0  0  0  0  0  0  0  0  0
   57.8960   34.5920   45.2280 C   0  0  0  0  0  0  0  0  0  0  0  0
   57.0120   33.5190   45.2500 C   0  0  0  0  0  0  0  0  0  0  0  0
   57.4020   32.3110   45.7410 N   0  0  0  0  0  0  0  0  0  0  0  0
   58.6680   32.0950   46.2300 C   0  0  0  0  0  0  0  0  0  0  0  0
   57.5123   30.4345   43.2052 H   0  0  0  0  0  0  0  0  0  0  0  0
   56.7347   29.1769   42.1851 H   0  0  0  0  0  0  0  0  0  0  0  0
   56.0949   30.8554   42.1851 H   0  0  0  0  0  0  0  0  0  0  0  0
   54.6802   30.2719   43.8442 H   0  0  0  0  0  0  0  0  0  0  0  0
   55.4188   28.6331   43.9330 H   0  0  0  0  0  0  0  0  0  0  0  0
   55.6250   29.7110   45.9980 H   0  0  0  0  0  0  0  0  0  0  0  0
   57.4357   28.3262   45.2562 H   0  0  0  0  0  0  0  0  0  0  0  0
   58.2385   29.8155   44.6168 H   0  0  0  0  0  0  0  0  0  0  0  0
   57.3492   29.8883   47.4793 H   0  0  0  0  0  0  0  0  0  0  0  0
   58.7456   28.8107   47.0752 H   0  0  0  0  0  0  0  0  0  0  0  0
   62.5864   31.6088   48.9147 H   0  0  0  0  0  0  0  0  0  0  0  0
   63.0589   30.6436   47.4753 H   0  0  0  0  0  0  0  0  0  0  0  0
   63.2845   32.4257   47.4753 H   0  0  0  0  0  0  0  0  0  0  0  0
   61.5790   33.8481   46.7174 H   0  0  0  0  0  0  0  0  0  0  0  0
   59.8927   35.2651   45.7062 H   0  0  0  0  0  0  0  0  0  0  0  0
   57.5775   35.5656   44.8271 H   0  0  0  0  0  0  0  0  0  0  0  0
   55.9888   33.6475   44.8673 H   0  0  0  0  0  0  0  0  0  0  0  0
   56.6740   31.5720   45.7280 H   0  0  0  0  0  0  0  0  0  0  0  0
  1  2  1  0
  2  3  1  0
  3  4  1  0
  4  5  1  0
  5  6  1  0
  6  7  1  0
  7  8  2  0
  7  9  1  0
  9 10  1  0
  9 11  2  0
 11 12  1  0
 12 13  2  0
 13 14  1  0
 14 15  2  0
 15 16  1  0
 16 17  2  0
 17  6  1  0
 17 12  1  0
  1 18  1  0
  1 19  1  0
  1 20  1  0
  2 21  1  0
  2 22  1  0
  3 23  1  0
  4 24  1  0
  4 25  1  0
  5 26  1  0
  5 27  1  0
 10 28  1  0
 10 29  1  0
 10 30  1  0
 11 31  1  0
 13 32  1  0
 14 33  1  0
 15 34  1  0
 16 35  1  0
M  CHG  1  16   1
M  END
>  <UniqueID>  (7) 
7

>  <SMILES>  (7) 
CCNCCn1c(=O)c(C)cc2ccc[nH+]c21

>  <Energy>  (7) 
40.672772725682485

>  <Genealogy>  (7) 
CCNCCn1c(=O)c(C)cc2ccc[nH+]c21 (protonated)
CCNCCn1c(=O)c(C)cc2ccc[nH+]c21 (3D coordinates assigned)
CCNCCn1c(=O)c(C)cc2ccc[nH+]c21 (optimized conformer: 40.672772725682485 kcal/mol)

>  <smiles>  (7) 
CCNCCn1c(=O)c(C)cc2cccnc21

>  <score_type>  (7) 
oracle

>  <origin>  (7) 
adg

>  <m_score__min__energy>  (7) 
-4.7800000000000002

>  <m_primary>  (7) 
energy

$$$$
7:0
     RDKit          3D

 51 53  0  0  0  0  0  0  0  0999 V2000
   64.2340   33.3410   49.8350 C   0  0  0  0  0  0  0  0  0  0  0  0
   62.8920   33.7810   49.2290 C   0  0  0  0  0  0  0  0  0  0  0  0
   62.2320   32.7310   48.4190 N   0  0  0  0  0  0  0  0  0  0  0  0
   62.8910   32.5200   47.1110 C   0  0  0  0  0  0  0  0  0  0  0  0
   63.3060   33.8520   46.4920 C   0  0  0  0  0  0  0  0  0  0  0  0
   62.0030   31.4770   49.1740 C   0  0  0  0  0  0  0  0  0  0  0  0
   61.1350   30.5350   48.3390 C   0  0  0  0  0  0  0  0  0  0  0  0
   59.7410   30.9820   48.3160 N   0  0  0  0  0  0  0  0  0  0  0  0
   59.0710   31.2540   47.0740 C   0  0  0  0  0  0  0  0  0  0  0  0
   58.6190   30.1740   46.2920 C   0  0  0  0  0  0  0  0  0  0  0  0
   58.6370   28.8580   46.8040 C   0  0  0  0  0  0  0  0  0  0  0  0
   58.2410   27.7810   46.0170 C   0  0  0  0  0  0  0  0  0  0  0  0
   57.8330   27.9910   44.7060 C   0  0  0  0  0  0  0  0  0  0  0  0
   57.7930   29.2830   44.1830 C   0  0  0  0  0  0  0  0  0  0  0  0
   58.1520   30.4060   44.9730 C   0  0  0  0  0  0  0  0  0  0  0  0
   58.0950   31.6930   44.4740 N   0  0  0  0  0  0  0  0  0  0  0  0
   57.3960   31.9590   43.1960 C   0  0  0  0  0  0  0  0  0  0  0  0
   58.6540   32.7390   45.1850 C   0  0  0  0  0  0  0  0  0  0  0  0
   58.8970   33.9940   44.5740 C   0  0  0  0  0  0  0  0  0  0  0  0
   59.3930   35.0670   45.3070 C   0  0  0  0  0  0  0  0  0  0  0  0
   59.6120   34.9370   46.6700 C   0  0  0  0  0  0  0  0  0  0  0  0
   59.4000   33.7130   47.3120 C   0  0  0  0  0  0  0  0  0  0  0  0
   59.4700   33.6930   48.7440 N   0  0  0  0  0  0  0  0  0  0  0  0
   59.0290   32.5660   46.5490 C   0  0  0  0  0  0  0  0  0  0  0  0
   64.1656   33.3634   50.9326 H   0  0  0  0  0  0  0  0  0  0  0  0
   64.4687   32.3189   49.5031 H   0  0  0  0  0  0  0  0  0  0  0  0
   65.0283   34.0258   49.5031 H   0  0  0  0  0  0  0  0  0  0  0  0
   62.2160   34.0628   50.0497 H   0  0  0  0  0  0  0  0  0  0  0  0
   63.1048   34.6224   48.5531 H   0  0  0  0  0  0  0  0  0  0  0  0
   63.7847   31.8948   47.2541 H   0  0  0  0  0  0  0  0  0  0  0  0
   62.1804   32.0229   46.4343 H   0  0  0  0  0  0  0  0  0  0  0  0
   63.5308   34.5735   47.2913 H   0  0  0  0  0  0  0  0  0  0  0  0
   64.2006   33.7041   45.8693 H   0  0  0  0  0  0  0  0  0  0  0  0
   62.4857   34.2384   45.8693 H   0  0  0  0  0  0  0  0  0  0  0  0
   62.9685   30.9949   49.3869 H   0  0  0  0  0  0  0  0  0  0  0  0
   61.4925   31.7055   50.1212 H   0  0  0  0  0  0  0  0  0  0  0  0
   61.5209   30.5096   47.3092 H   0  0  0  0  0  0  0  0  0  0  0  0
   61.1725   29.5331   48.7916 H   0  0  0  0  0  0  0  0  0  0  0  0
   59.1540   30.7990   49.1610 H   0  0  0  0  0  0  0  0  0  0  0  0
   58.9683   28.6821   47.8381 H   0  0  0  0  0  0  0  0  0  0  0  0
   58.2511   26.7628   46.4332 H   0  0  0  0  0  0  0  0  0  0  0  0
   57.5407   27.1359   44.0788 H   0  0  0  0  0  0  0  0  0  0  0  0
   57.4777   29.4344   43.1401 H   0  0  0  0  0  0  0  0  0  0  0  0
   56.3864   32.3432   43.4034 H   0  0  0  0  0  0  0  0  0  0  0  0
   57.9606   32.7051   42.6176 H   0  0  0  0  0  0  0  0  0  0  0  0
   57.3218   31.0263   42.6176 H   0  0  0  0  0  0  0  0  0  0  0  0
   58.6898   34.1220   43.5013 H   0  0  0  0  0  0  0  0  0  0  0  0
   59.6120   36.0206   44.8044 H   0  0  0  0  0  0  0  0  0  0  0  0
   59.9558   35.8050   47.2518 H   0  0  0  0  0  0  0  0  0  0  0  0
   58.8990   34.3500   49.3180 H   0  0  0  0  0  0  0  0  0  0  0  0
   60.2550   33.2020   49.2270 H   0  0  0  0  0  0  0  0  0  0  0  0
  1  2  1  0
  2  3  1  0
  3  4  1  0
  4  5  1  0
  3  6  1  0
  6  7  1  0
  7  8  1  0
  8  9  1  0
  9 10  2  0
 10 11  1  0
 11 12  2  0
 12 13  1  0
 13 14  2  0
 14 15  1  0
 15 16  2  0
 16 17  1  0
 16 18  1  0
 18 19  2  0
 19 20  1  0
 20 21  2  0
 21 22  1  0
 22 23  1  0
 22 24  2  0
 24  9  1  0
 15 10  1  0
 24 18  1  0
  1 25  1  0
  1 26  1  0
  1 27  1  0
  2 28  1  0
  2 29  1  0
  4 30  1  0
  4 31  1  0
  5 32  1  0
  5 33  1  0
  5 34  1  0
  6 35  1  0
  6 36  1  0
  7 37  1  0
  7 38  1  0
  8 39  1  0
 11 40  1  0
 12 41  1  0
 13 42  1  0
 14 43  1  0
 17 44  1  0
 17 45  1  0
 17 46  1  0
 19 47  1  0
 20 48  1  0
 21 49  1  0
 23 50  1  0
 23 51  1  0
M  CHG  1  16   1
M  END
>  <UniqueID>  (8) 
8

>  <SMILES>  (8) 
CCN(CC)CCNc1c2ccccc2[n+](C)c2cccc(N)c12

>  <Energy>  (8) 
86.20296360564289

>  <Genealogy>  (8) 
CCN(CC)CCNc1c2ccccc2[n+](C)c2cccc(N)c12 (3D coordinates assigned)
CCN(CC)CCNc1c2ccccc2[n+](C)c2cccc(N)c12 (optimized conformer: 86.20296360564289 kcal/mol)

>  <smiles>  (8) 
CCN(CC)CCNc1c2ccccc2[n+](C)c2cccc(N)c12

>  <score_type>  (8) 
oracle

>  <origin>  (8) 
adg

>  <m_score__min__energy>  (8) 
-4.7800000000000002

>  <m_primary>  (8) 
energy

$$$$
8:0
     RDKit          3D

 39 40  0  0  1  0  0  0  0  0999 V2000
   58.7020   30.1670   50.0560 C   0  0  0  0  0  0  0  0  0  0  0  0
   59.7750   29.3830   49.3390 C   0  0  0  0  0  0  0  0  0  0  0  0
   59.4740   29.1540   47.9340 N   0  0  0  0  0  0  0  0  0  0  0  0
   59.5860   27.8520   47.3320 C   0  0  0  0  0  0  0  0  0  0  0  0
   60.0930   27.8440   45.9250 C   0  0  0  0  0  0  0  0  0  0  0  0
   59.0490   30.2950   47.1650 C   0  0  0  0  0  0  0  0  0  0  0  0
   57.9820   30.2690   46.3550 N   0  0  0  0  0  0  0  0  0  0  0  0
   57.6940   31.4270   45.6940 C   0  0  0  0  0  0  0  0  0  0  0  0
   56.6960   31.4880   44.9050 N   0  0  0  0  0  0  0  0  0  0  0  0
   56.5840   30.7550   43.6610 C   0  0  0  0  0  0  0  0  0  0  0  0
   56.2310   29.3250   44.0930 C   0  0  0  0  0  0  0  0  0  0  0  0
   55.4170   29.3850   45.2240 O   0  0  0  0  0  0  0  0  0  0  0  0
   58.4590   32.5650   45.8460 C   0  0  0  0  0  0  0  0  0  0  0  0
   58.1400   33.7300   45.1610 C   0  0  0  0  0  0  0  0  0  0  0  0
   58.9050   34.8780   45.3160 C   0  0  0  0  0  0  0  0  0  0  0  0
   59.9870   34.8230   46.1680 C   0  0  0  0  0  0  0  0  0  0  0  0
   60.3130   33.6700   46.8540 C   0  0  0  0  0  0  0  0  0  0  0  0
   59.5490   32.5470   46.6910 C   0  0  0  0  0  0  0  0  0  0  0  0
   59.8170   31.4070   47.3310 N   0  0  0  0  0  0  0  0  0  0  0  0
   58.8391   30.0668   51.1428 H   0  0  0  0  0  0  0  0  0  0  0  0
   58.7725   31.2278   49.7737 H   0  0  0  0  0  0  0  0  0  0  0  0
   57.7128   29.7774   49.7737 H   0  0  0  0  0  0  0  0  0  0  0  0
   60.7207   29.9406   49.4078 H   0  0  0  0  0  0  0  0  0  0  0  0
   59.8405   28.3981   49.8245 H   0  0  0  0  0  0  0  0  0  0  0  0
   60.2738   27.2513   47.9453 H   0  0  0  0  0  0  0  0  0  0  0  0
   58.5649   27.4449   47.2915 H   0  0  0  0  0  0  0  0  0  0  0  0
   61.1928   27.8266   45.9317 H   0  0  0  0  0  0  0  0  0  0  0  0
   59.7154   26.9517   45.4042 H   0  0  0  0  0  0  0  0  0  0  0  0
   59.7437   28.7478   45.4042 H   0  0  0  0  0  0  0  0  0  0  0  0
   55.7892   31.1786   43.0295 H   0  0  0  0  0  0  0  0  0  0  0  0
   57.5068   30.7976   43.0639 H   0  0  0  0  0  0  0  0  0  0  0  0
   55.6957   28.8144   43.2789 H   0  0  0  0  0  0  0  0  0  0  0  0
   57.1503   28.7666   44.3234 H   0  0  0  0  0  0  0  0  0  0  0  0
   55.8760   29.7780   45.9960 H   0  0  0  0  0  0  0  0  0  0  0  0
   57.2705   33.7434   44.4873 H   0  0  0  0  0  0  0  0  0  0  0  0
   58.6553   35.8030   44.7755 H   0  0  0  0  0  0  0  0  0  0  0  0
   60.6070   35.7212   46.3050 H   0  0  0  0  0  0  0  0  0  0  0  0
   61.1823   33.6545   47.5279 H   0  0  0  0  0  0  0  0  0  0  0  0
   60.6510   31.4140   47.9690 H   0  0  0  0  0  0  0  0  0  0  0  0
  1  2  1  0
  2  3  1  0
  3  4  1  0
  4  5  1  0
  3  6  1  0
  6  7  2  0
  7  8  1  0
  8  9  2  0
  9 10  1  0
 10 11  1  0
 11 12  1  0
  8 13  1  0
 13 14  2  0
 14 15  1  0
 15 16  2  0
 16 17  1  0
 17 18  2  0
 18 19  1  0
 19  6  1  0
 18 13  1  0
  1 20  1  0
  1 21  1  0
  1 22  1  0
  2 23  1  0
  2 24  1  0
  4 25  1  0
  4 26  1  0
  5 27  1  0
  5 28  1  0
  5 29  1  0
 10 30  1  0
 10 31  1  0
 11 32  1  0
 11 33  1  0
 12 34  1  0
 14 35  1  0
 15 36  1  0
 16 37  1  0
 17 38  1  0
 19 39  1  0
M  END
>  <smiles>  (9) 
CCN(CC)c1nc(=NCCO)c2ccccc2[nH]1

>  <score_type>  (9) 
oracle

>  <origin>  (9) 
adg

>  <m_score__min__energy>  (9) 
-6.4699999999999998

>  <m_primary>  (9) 
energy

$$$$
9:0
     RDKit          3D

 46 49  0  0  0  0  0  0  0  0999 V2000
   56.2430   30.4570   44.1700 C   0  0  0  0  0  0  0  0  0  0  0  0
   57.1000   31.2900   45.0300 N   0  0  0  0  0  0  0  0  0  0  0  0
   58.2750   30.5380   45.4990 C   0  0  0  0  0  0  0  0  0  0  0  0
   57.4510   32.5890   44.4140 C   0  0  0  0  0  0  0  0  0  0  0  0
   57.4960   33.7750   45.4080 C   0  0  0  0  0  0  0  0  0  0  0  0
   57.7680   33.3230   46.7840 N   0  0  0  0  0  0  0  0  0  0  0  0
   59.1770   33.3470   47.0800 C   0  0  0  0  0  0  0  0  0  0  0  0
   60.1070   33.7490   46.1970 C   0  0  0  0  0  0  0  0  0  0  0  0
   61.4070   33.5470   46.8220 C   0  0  0  0  0  0  0  0  0  0  0  0
   62.6960   33.8200   46.3770 C   0  0  0  0  0  0  0  0  0  0  0  0
   63.7660   33.5410   47.2520 C   0  0  0  0  0  0  0  0  0  0  0  0
   63.5250   32.9910   48.5350 C   0  0  0  0  0  0  0  0  0  0  0  0
   62.1970   32.6990   48.9540 C   0  0  0  0  0  0  0  0  0  0  0  0
   61.1890   33.0180   48.0580 C   0  0  0  0  0  0  0  0  0  0  0  0
   59.8630   32.8660   48.3160 C   0  0  0  0  0  0  0  0  0  0  0  0
   59.4650   32.4140   49.5880 C   0  0  0  0  0  0  0  0  0  0  0  0
   58.1140   32.3060   49.9680 C   0  0  0  0  0  0  0  0  0  0  0  0
   57.7690   31.9030   51.2550 C   0  0  0  0  0  0  0  0  0  0  0  0
   58.7560   31.6180   52.1900 C   0  0  0  0  0  0  0  0  0  0  0  0
   60.1030   31.7100   51.8430 C   0  0  0  0  0  0  0  0  0  0  0  0
   60.4990   32.0790   50.5330 C   0  0  0  0  0  0  0  0  0  0  0  0
   61.8460   32.1450   50.1690 N   0  0  0  0  0  0  0  0  0  0  0  0
   62.8960   31.6190   51.0680 C   0  0  0  0  0  0  0  0  0  0  0  0
   55.5952   29.8274   44.7976 H   0  0  0  0  0  0  0  0  0  0  0  0
   55.6208   31.1047   43.5349 H   0  0  0  0  0  0  0  0  0  0  0  0
   56.8728   29.8166   43.5349 H   0  0  0  0  0  0  0  0  0  0  0  0
   58.2894   30.5288   46.5989 H   0  0  0  0  0  0  0  0  0  0  0  0
   58.2228   29.5051   45.1243 H   0  0  0  0  0  0  0  0  0  0  0  0
   59.1911   31.0181   45.1243 H   0  0  0  0  0  0  0  0  0  0  0  0
   58.4428   32.4924   43.9481 H   0  0  0  0  0  0  0  0  0  0  0  0
   56.6573   32.8174   43.6875 H   0  0  0  0  0  0  0  0  0  0  0  0
   58.2899   34.4703   45.0977 H   0  0  0  0  0  0  0  0  0  0  0  0
   56.5131   34.2688   45.3973 H   0  0  0  0  0  0  0  0  0  0  0  0
   57.4010   32.3590   46.9370 H   0  0  0  0  0  0  0  0  0  0  0  0
   57.2490   33.9340   47.4600 H   0  0  0  0  0  0  0  0  0  0  0  0
   59.9213   34.1543   45.1914 H   0  0  0  0  0  0  0  0  0  0  0  0
   62.8749   34.2395   45.3760 H   0  0  0  0  0  0  0  0  0  0  0  0
   64.7979   33.7525   46.9352 H   0  0  0  0  0  0  0  0  0  0  0  0
   64.3689   32.7886   49.2109 H   0  0  0  0  0  0  0  0  0  0  0  0
   57.3231   32.5423   49.2409 H   0  0  0  0  0  0  0  0  0  0  0  0
   56.7088   31.8097   51.5332 H   0  0  0  0  0  0  0  0  0  0  0  0
   58.4731   31.3181   53.2098 H   0  0  0  0  0  0  0  0  0  0  0  0
   60.8719   31.4925   52.5989 H   0  0  0  0  0  0  0  0  0  0  0  0
   62.5927   31.7709   52.1144 H   0  0  0  0  0  0  0  0  0  0  0  0
   63.0359   30.5444   50.8791 H   0  0  0  0  0  0  0  0  0  0  0  0
   63.8404   32.1504   50.8791 H   0  0  0  0  0  0  0  0  0  0  0  0
  1  2  1  0
  2  3  1  0
  2  4  1  0
  4  5  1  0
  5  6  1  0
  6  7  1  0
  7  8  2  0
  8  9  1  0
  9 10  2  0
 10 11  1  0
 11 12  2  0
 12 13  1  0
 13 14  2  0
 14 15  1  0
 15 16  2  0
 16 17  1  0
 17 18  2  0
 18 19  1  0
 19 20  2  0
 20 21  1  0
 21 22  2  0
 22 23  1  0
 15  7  1  0
 21 16  1  0
 14  9  1  0
 22 13  1  0
  1 24  1  0
  1 25  1  0
  1 26  1  0
  3 27  1  0
  3 28  1  0
  3 29  1  0
  4 30  1  0
  4 31  1  0
  5 32  1  0
  5 33  1  0
  6 34  1  0
  6 35  1  0
  8 36  1  0
 10 37  1  0
 11 38  1  0
 12 39  1  0
 17 40  1  0
 18 41  1  0
 19 42  1  0
 20 43  1  0
 23 44  1  0
 23 45  1  0
 23 46  1  0
M  CHG  2   6   1  22   1
M  END
>  <UniqueID>  (10) 
9

>  <SMILES>  (10) 
CN(C)CC[NH2+]C1=Cc2cccc3c2c1c1ccccc1[n+]3C

>  <Energy>  (10) 
107.76894120558524

>  <Genealogy>  (10) 
CN(C)CC[NH2+]C1=Cc2cccc3c2c1c1ccccc1[n+]3C (protonated)
CN(C)CC[NH2+]C1=Cc2cccc3c2c1c1ccccc1[n+]3C (3D coordinates assigned)
CN(C)CC[NH2+]C1=Cc2cccc3c2c1c1ccccc1[n+]3C (nonaromatic ring conformer: 107.76894120558524 kcal/mol)

>  <smiles>  (10) 
CN(C)CCNC1=Cc2cccc3c2c1c1ccccc1[n+]3C

>  <score_type>  (10) 
oracle

>  <origin>  (10) 
adg

>  <m_score__min__energy>  (10) 
-4.4900000000000002

>  <m_primary>  (10) 
energy

$$$$
10:0
     RDKit          3D

 34 36  0  0  0  0  0  0  0  0999 V2000
   57.7780   28.2130   44.2280 C   0  0  0  0  0  0  0  0  0  0  0  0
   58.2440   29.4440   44.8750 N   0  0  0  0  0  0  0  0  0  0  0  0
   59.5300   29.5170   45.3650 C   0  0  0  0  0  0  0  0  0  0  0  0
   59.9930   30.6570   45.9610 N   0  0  0  0  0  0  0  0  0  0  0  0
   59.1580   31.7230   46.0560 C   0  0  0  0  0  0  0  0  0  0  0  0
   57.8950   31.6840   45.5720 C   0  0  0  0  0  0  0  0  0  0  0  0
   57.2670   32.8530   45.7800 N   0  0  0  0  0  0  0  0  0  0  0  0
   58.2150   33.5940   46.4120 C   0  0  0  0  0  0  0  0  0  0  0  0
   59.3930   32.9390   46.5930 N   0  0  0  0  0  0  0  0  0  0  0  0
   60.5550   33.4800   47.3200 C   0  0  0  0  0  0  0  0  0  0  0  0
   61.7230   33.8450   46.3740 C   0  0  0  0  0  0  0  0  0  0  0  0
   63.0770   33.6880   47.0660 C   0  0  0  0  0  0  0  0  0  0  0  0
   63.3010   32.2340   47.5020 C   0  0  0  0  0  0  0  0  0  0  0  0
   62.1020   31.6110   48.2540 C   0  0  0  0  0  0  0  0  0  0  0  0
   60.9450   32.5850   48.5250 C   0  0  0  0  0  0  0  0  0  0  0  0
   57.4100   30.5340   44.9660 C   0  0  0  0  0  0  0  0  0  0  0  0
   56.2340   30.4990   44.5120 O   0  0  0  0  0  0  0  0  0  0  0  0
   57.4995   27.4774   44.9970 H   0  0  0  0  0  0  0  0  0  0  0  0
   56.9025   28.4372   43.6009 H   0  0  0  0  0  0  0  0  0  0  0  0
   58.5825   27.8012   43.6009 H   0  0  0  0  0  0  0  0  0  0  0  0
   60.1941   28.6447   45.2752 H   0  0  0  0  0  0  0  0  0  0  0  0
   60.9720   30.6840   46.3070 H   0  0  0  0  0  0  0  0  0  0  0  0
   58.0451   34.6281   46.7463 H   0  0  0  0  0  0  0  0  0  0  0  0
   60.2590   34.4414   47.7652 H   0  0  0  0  0  0  0  0  0  0  0  0
   61.6917   33.1829   45.4961 H   0  0  0  0  0  0  0  0  0  0  0  0
   61.6086   34.8977   46.0760 H   0  0  0  0  0  0  0  0  0  0  0  0
   63.8748   33.9822   46.3682 H   0  0  0  0  0  0  0  0  0  0  0  0
   63.0931   34.3302   47.9589 H   0  0  0  0  0  0  0  0  0  0  0  0
   63.4977   31.6300   46.6039 H   0  0  0  0  0  0  0  0  0  0  0  0
   64.1486   32.2390   48.2031 H   0  0  0  0  0  0  0  0  0  0  0  0
   61.7146   30.7762   47.6515 H   0  0  0  0  0  0  0  0  0  0  0  0
   62.4800   31.2926   49.2367 H   0  0  0  0  0  0  0  0  0  0  0  0
   60.0621   31.9961   48.8142 H   0  0  0  0  0  0  0  0  0  0  0  0
   61.2907   33.2649   49.3177 H   0  0  0  0  0  0  0  0  0  0  0  0
  1  2  1  0
  2  3  1  0
  3  4  2  0
  4  5  1  0
  5  6  2  0
  6  7  1  0
  7  8  2  0
  8  9  1  0
  9 10  1  0
 10 11  1  0
 11 12  1  0
 12 13  1  0
 13 14  1  0
 14 15  1  0
  6 16  1  0
 16 17  2  0
 16  2  1  0
  9  5  1  0
 15 10  1  0
  1 18  1  0
  1 19  1  0
  1 20  1  0
  3 21  1  0
  4 22  1  0
  8 23  1  0
 10 24  1  0
 11 25  1  0
 11 26  1  0
 12 27  1  0
 12 28  1  0
 13 29  1  0
 13 30  1  0
 14 31  1  0
 14 32  1  0
 15 33  1  0
 15 34  1  0
M  CHG  1   4   1
M  END
>  <UniqueID>  (11) 
10

>  <SMILES>  (11) 
Cn1c[nH+]c2c(ncn2C2CCCCC2)c1=O

>  <Energy>  (11) 
82.90253175643578

>  <Genealogy>  (11) 
Cn1c[nH+]c2c(ncn2C2CCCCC2)c1=O (protonated)
Cn1c[nH+]c2c(ncn2C2CCCCC2)c1=O (3D coordinates assigned)
Cn1c[nH+]c2c(ncn2C2CCCCC2)c1=O (nonaromatic ring conformer: 82.90253175643578 kcal/mol)

>  <smiles>  (11) 
Cn1cnc2c(ncn2C2CCCCC2)c1=O

>  <score_type>  (11) 
oracle

>  <origin>  (11) 
adg

>  <m_score__min__energy>  (11) 
-4.8700000000000001

>  <m_primary>  (11) 
energy

$$$$
11:0
     RDKit          3D

 82 84  0  0  0  0  0  0  0  0999 V2000
   58.5600   33.8520   52.6870 C   0  0  0  0  0  0  0  0  0  0  0  0
   58.7460   32.3920   52.6530 N   0  0  0  0  0  0  0  0  0  0  0  0
   58.3910   31.8220   53.9650 C   0  0  0  0  0  0  0  0  0  0  0  0
   57.9270   31.7970   51.5730 C   0  0  0  0  0  0  0  0  0  0  0  0
   58.4740   30.4230   51.1480 C   0  0  0  0  0  0  0  0  0  0  0  0
   59.9300   30.3350   51.3580 N   0  0  0  0  0  0  0  0  0  0  0  0
   60.6520   30.9190   50.2390 C   0  0  0  0  0  0  0  0  0  0  0  0
   61.5080   32.0350   50.4280 C   0  0  0  0  0  0  0  0  0  0  0  0
   61.5640   32.7320   51.6610 C   0  0  0  0  0  0  0  0  0  0  0  0
   62.3860   33.8440   51.8220 C   0  0  0  0  0  0  0  0  0  0  0  0
   63.1550   34.3000   50.7610 C   0  0  0  0  0  0  0  0  0  0  0  0
   63.1240   33.6360   49.5370 C   0  0  0  0  0  0  0  0  0  0  0  0
   62.3260   32.4770   49.3500 C   0  0  0  0  0  0  0  0  0  0  0  0
   62.3240   31.7950   48.1510 N   0  0  0  0  0  0  0  0  0  0  0  0
   63.4040   32.0280   47.1660 C   0  0  0  0  0  0  0  0  0  0  0  0
   61.3250   30.8820   47.8790 C   0  0  0  0  0  0  0  0  0  0  0  0
   61.1060   30.4020   46.5610 C   0  0  0  0  0  0  0  0  0  0  0  0
   60.1230   29.4390   46.2820 C   0  0  0  0  0  0  0  0  0  0  0  0
   59.9110   28.9140   44.9550 N   0  0  0  0  0  0  0  0  0  0  0  0
   59.2010   27.6740   44.6410 C   0  0  0  0  0  0  0  0  0  0  0  0
   57.7640   27.9730   44.1990 C   0  0  0  0  0  0  0  0  0  0  0  0
   56.9590   28.6040   45.3380 C   0  0  0  0  0  0  0  0  0  0  0  0
   56.6820   30.0140   45.0390 N   0  0  0  0  0  0  0  0  0  0  0  0
   55.7370   30.1200   43.9210 C   0  0  0  0  0  0  0  0  0  0  0  0
   56.5010   30.1390   42.5900 C   0  0  0  0  0  0  0  0  0  0  0  0
   57.0260   31.5400   42.2250 C   0  0  0  0  0  0  0  0  0  0  0  0
   58.1050   32.0620   43.1850 C   0  0  0  0  0  0  0  0  0  0  0  0
   57.4810   32.6070   44.4020 N   0  0  0  0  0  0  0  0  0  0  0  0
   58.1570   33.8100   44.9140 C   0  0  0  0  0  0  0  0  0  0  0  0
   58.0840   33.9480   46.4500 C   0  0  0  0  0  0  0  0  0  0  0  0
   58.5870   32.6910   47.1850 C   0  0  0  0  0  0  0  0  0  0  0  0
   57.9650   31.4820   46.6490 N   0  0  0  0  0  0  0  0  0  0  0  0
   59.3290   28.9680   47.3270 C   0  0  0  0  0  0  0  0  0  0  0  0
   59.4950   29.4470   48.6200 C   0  0  0  0  0  0  0  0  0  0  0  0
   60.4860   30.4100   48.9230 C   0  0  0  0  0  0  0  0  0  0  0  0
   58.5167   34.1919   53.7323 H   0  0  0  0  0  0  0  0  0  0  0  0
   59.4031   34.3410   52.1771 H   0  0  0  0  0  0  0  0  0  0  0  0
   57.6212   34.1140   52.1771 H   0  0  0  0  0  0  0  0  0  0  0  0
   58.7907   32.4638   54.7639 H   0  0  0  0  0  0  0  0  0  0  0  0
   57.2963   31.7632   54.0551 H   0  0  0  0  0  0  0  0  0  0  0  0
   58.8210   30.8136   54.0551 H   0  0  0  0  0  0  0  0  0  0  0  0
   56.8942   31.6760   51.9319 H   0  0  0  0  0  0  0  0  0  0  0  0
   57.9606   32.4683   50.7022 H   0  0  0  0  0  0  0  0  0  0  0  0
   57.9788   29.6412   51.7427 H   0  0  0  0  0  0  0  0  0  0  0  0
   58.2702   30.2861   50.0758 H   0  0  0  0  0  0  0  0  0  0  0  0
   60.2250   29.3440   51.5020 H   0  0  0  0  0  0  0  0  0  0  0  0
   60.1960   30.7960   52.2550 H   0  0  0  0  0  0  0  0  0  0  0  0
   60.9476   32.3885   52.5048 H   0  0  0  0  0  0  0  0  0  0  0  0
   62.4259   34.3618   52.7917 H   0  0  0  0  0  0  0  0  0  0  0  0
   63.7911   35.1886   50.8868 H   0  0  0  0  0  0  0  0  0  0  0  0
   63.7286   34.0164   48.7005 H   0  0  0  0  0  0  0  0  0  0  0  0
   64.3462   32.2313   47.6961 H   0  0  0  0  0  0  0  0  0  0  0  0
   63.5236   31.1350   46.5349 H   0  0  0  0  0  0  0  0  0  0  0  0
   63.1448   32.8909   46.5349 H   0  0  0  0  0  0  0  0  0  0  0  0
   61.7216   30.7942   45.7381 H   0  0  0  0  0  0  0  0  0  0  0  0
   60.2370   29.4830   44.1400 H   0  0  0  0  0  0  0  0  0  0  0  0
   59.7278   27.1513   43.8290 H   0  0  0  0  0  0  0  0  0  0  0  0
   59.1713   27.0440   45.5423 H   0  0  0  0  0  0  0  0  0  0  0  0
   57.7872   28.6683   43.3469 H   0  0  0  0  0  0  0  0  0  0  0  0
   57.2819   27.0269   43.9118 H   0  0  0  0  0  0  0  0  0  0  0  0
   56.0082   28.0632   45.4546 H   0  0  0  0  0  0  0  0  0  0  0  0
   57.5419   28.5411   46.2687 H   0  0  0  0  0  0  0  0  0  0  0  0
   57.5830   30.4600   44.7410 H   0  0  0  0  0  0  0  0  0  0  0  0
   55.0546   29.2574   43.9374 H   0  0  0  0  0  0  0  0  0  0  0  0
   55.1614   31.0520   44.0210 H   0  0  0  0  0  0  0  0  0  0  0  0
   57.3564   29.4515   42.6656 H   0  0  0  0  0  0  0  0  0  0  0  0
   55.7997   29.8313   41.8004 H   0  0  0  0  0  0  0  0  0  0  0  0
   57.4526   31.4984   41.2120 H   0  0  0  0  0  0  0  0  0  0  0  0
   56.1731   32.2314   42.2919 H   0  0  0  0  0  0  0  0  0  0  0  0
   58.7774   31.2360   43.4599 H   0  0  0  0  0  0  0  0  0  0  0  0
   58.6750   32.8593   42.6856 H   0  0  0  0  0  0  0  0  0  0  0  0
   57.4290   31.8700   45.1450 H   0  0  0  0  0  0  0  0  0  0  0  0
   59.2155   33.7678   44.6177 H   0  0  0  0  0  0  0  0  0  0  0  0
   57.6393   34.6806   44.4850 H   0  0  0  0  0  0  0  0  0  0  0  0
   58.7017   34.8052   46.7560 H   0  0  0  0  0  0  0  0  0  0  0  0
   57.0274   34.0904   46.7207 H   0  0  0  0  0  0  0  0  0  0  0  0
   59.6779   32.6171   47.0645 H   0  0  0  0  0  0  0  0  0  0  0  0
   58.3198   32.7785   48.2484 H   0  0  0  0  0  0  0  0  0  0  0  0
   58.4720   31.1970   45.7790 H   0  0  0  0  0  0  0  0  0  0  0  0
   56.9750   31.6980   46.3840 H   0  0  0  0  0  0  0  0  0  0  0  0
   58.5610   28.2070   47.1246 H   0  0  0  0  0  0  0  0  0  0  0  0
   58.8441   29.0708   49.4230 H   0  0  0  0  0  0  0  0  0  0  0  0
  1  2  1  0
  2  3  1  0
  2  4  1  0
  4  5  1  0
  5  6  1  0
  6  7  1  0
  7  8  2  0
  8  9  1  0
  9 10  2  0
 10 11  1  0
 11 12  2  0
 12 13  1  0
 13 14  2  0
 14 15  1  0
 14 16  1  0
 16 17  2  0
 17 18  1  0
 18 19  1  0
 19 20  1  0
 20 21  1  0
 21 22  1  0
 22 23  1  0
 23 24  1  0
 24 25  1  0
 25 26  1  0
 26 27  1  0
 27 28  1  0
 28 29  1  0
 29 30  1  0
 30 31  1  0
 31 32  1  0
 18 33  2  0
 33 34  1  0
 34 35  2  0
 35  7  1  0
 13  8  1  0
 35 16  1  0
  1 36  1  0
  1 37  1  0
  1 38  1  0
  3 39  1  0
  3 40  1  0
  3 41  1  0
  4 42  1  0
  4 43  1  0
  5 44  1  0
  5 45  1  0
  6 46  1  0
  6 47  1  0
  9 48  1  0
 10 49  1  0
 11 50  1  0
 12 51  1  0
 15 52  1  0
 15 53  1  0
 15 54  1  0
 17 55  1  0
 19 56  1  0
 20 57  1  0
 20 58  1  0
 21 59  1  0
 21 60  1  0
 22 61  1  0
 22 62  1  0
 23 63  1  0
 24 64  1  0
 24 65  1  0
 25 66  1  0
 25 67  1  0
 26 68  1  0
 26 69  1  0
 27 70  1  0
 27 71  1  0
 28 72  1  0
 29 73  1  0
 29 74  1  0
 30 75  1  0
 30 76  1  0
 31 77  1  0
 31 78  1  0
 32 79  1  0
 32 80  1  0
 33 81  1  0
 34 82  1  0
M  CHG  2   6   1  14   1
M  END
>  <UniqueID>  (12) 
11

>  <SMILES>  (12) 
CN(C)CC[NH2+]c1c2ccccc2[n+](C)c2cc(NCCCNCCCCNCCCN)ccc12

>  <Energy>  (12) 
95.65053204265523

>  <Genealogy>  (12) 
CN(C)CC[NH2+]c1c2ccccc2[n+](C)c2cc(NCCCNCCCCNCCCN)ccc12 (protonated)
CN(C)CC[NH2+]c1c2ccccc2[n+](C)c2cc(NCCCNCCCCNCCCN)ccc12 (3D coordinates assigned)
CN(C)CC[NH2+]c1c2ccccc2[n+](C)c2cc(NCCCNCCCCNCCCN)ccc12 (optimized conformer: 95.65053204265523 kcal/mol)

>  <smiles>  (12) 
CN(C)CCNc1c2ccccc2[n+](C)c2cc(NCCCNCCCCNCCCN)ccc12

>  <score_type>  (12) 
oracle

>  <origin>  (12) 
adg

>  <m_score__min__energy>  (12) 
-5.7999999999999998

>  <m_primary>  (12) 
energy

$$$$
12:0
     RDKit          3D

 44 43  0  0  0  0  0  0  0  0999 V2000
   62.0220   33.6440   46.7470 C   0  0  0  0  0  0  0  0  0  0  0  0
   60.8420   34.1960   46.7460 C   0  0  0  0  0  0  0  0  0  0  0  0
   59.6540   34.7390   46.7390 C   0  0  0  0  0  0  0  0  0  0  0  0
   58.4200   33.8960   46.8700 C   0  0  0  0  0  0  0  0  0  0  0  0
   58.4030   32.8480   45.8390 N   0  0  0  0  0  0  0  0  0  0  0  0
   57.8870   33.3780   44.5640 C   0  0  0  0  0  0  0  0  0  0  0  0
   58.0300   32.3580   43.4150 C   0  0  0  0  0  0  0  0  0  0  0  0
   57.0060   31.2010   43.4740 C   0  0  0  0  0  0  0  0  0  0  0  0
   56.7590   30.6960   44.8370 N   0  0  0  0  0  0  0  0  0  0  0  0
   56.2800   29.3040   44.8640 C   0  0  0  0  0  0  0  0  0  0  0  0
   57.4090   28.3550   45.2840 C   0  0  0  0  0  0  0  0  0  0  0  0
   58.7250   28.6370   44.5390 C   0  0  0  0  0  0  0  0  0  0  0  0
   59.7860   29.2960   45.4310 C   0  0  0  0  0  0  0  0  0  0  0  0
   59.1710   30.3730   46.2170 N   0  0  0  0  0  0  0  0  0  0  0  0
   59.8730   30.6090   47.4870 C   0  0  0  0  0  0  0  0  0  0  0  0
   58.9140   30.8350   48.6590 C   0  0  0  0  0  0  0  0  0  0  0  0
   62.5195   33.4113   47.7001 H   0  0  0  0  0  0  0  0  0  0  0  0
   62.5208   33.4106   45.7948 H   0  0  0  0  0  0  0  0  0  0  0  0
   59.5570   35.8298   46.6356 H   0  0  0  0  0  0  0  0  0  0  0  0
   58.4060   33.4262   47.8645 H   0  0  0  0  0  0  0  0  0  0  0  0
   57.5351   34.5367   46.7419 H   0  0  0  0  0  0  0  0  0  0  0  0
   57.7860   32.0630   46.1550 H   0  0  0  0  0  0  0  0  0  0  0  0
   59.3710   32.4760   45.7160 H   0  0  0  0  0  0  0  0  0  0  0  0
   56.8227   33.6272   44.6875 H   0  0  0  0  0  0  0  0  0  0  0  0
   58.4762   34.2694   44.3028 H   0  0  0  0  0  0  0  0  0  0  0  0
   57.8974   32.8897   42.4612 H   0  0  0  0  0  0  0  0  0  0  0  0
   59.0284   31.9063   43.5111 H   0  0  0  0  0  0  0  0  0  0  0  0
   56.0527   31.5597   43.0586 H   0  0  0  0  0  0  0  0  0  0  0  0
   57.4296   30.3674   42.8946 H   0  0  0  0  0  0  0  0  0  0  0  0
   57.6190   30.7840   45.4260 H   0  0  0  0  0  0  0  0  0  0  0  0
   55.4510   29.2204   45.5822 H   0  0  0  0  0  0  0  0  0  0  0  0
   55.9383   29.0260   43.8560 H   0  0  0  0  0  0  0  0  0  0  0  0
   57.5834   28.4708   46.3639 H   0  0  0  0  0  0  0  0  0  0  0  0
   57.0955   27.3312   45.0318 H   0  0  0  0  0  0  0  0  0  0  0  0
   59.1258   27.6847   44.1616 H   0  0  0  0  0  0  0  0  0  0  0  0
   58.4986   29.3379   43.7220 H   0  0  0  0  0  0  0  0  0  0  0  0
   60.2107   28.5432   46.1114 H   0  0  0  0  0  0  0  0  0  0  0  0
   60.5837   29.7149   44.8000 H   0  0  0  0  0  0  0  0  0  0  0  0
   58.1730   30.1250   46.4140 H   0  0  0  0  0  0  0  0  0  0  0  0
   60.5010   29.7338   47.7099 H   0  0  0  0  0  0  0  0  0  0  0  0
   60.4749   31.5222   47.3693 H   0  0  0  0  0  0  0  0  0  0  0  0
   59.4570   30.7070   49.6070 H   0  0  0  0  0  0  0  0  0  0  0  0
   58.5040   31.8544   48.6060 H   0  0  0  0  0  0  0  0  0  0  0  0
   58.0920   30.1060   48.6060 H   0  0  0  0  0  0  0  0  0  0  0  0
  1  2  2  0
  2  3  2  0
  3  4  1  0
  4  5  1  0
  5  6  1  0
  6  7  1  0
  7  8  1  0
  8  9  1  0
  9 10  1  0
 10 11  1  0
 11 12  1  0
 12 13  1  0
 13 14  1  0
 14 15  1  0
 15 16  1  0
  1 17  1  0
  1 18  1  0
  3 19  1  0
  4 20  1  0
  4 21  1  0
  5 22  1  0
  5 23  1  0
  6 24  1  0
  6 25  1  0
  7 26  1  0
  7 27  1  0
  8 28  1  0
  8 29  1  0
  9 30  1  0
 10 31  1  0
 10 32  1  0
 11 33  1  0
 11 34  1  0
 12 35  1  0
 12 36  1  0
 13 37  1  0
 13 38  1  0
 14 39  1  0
 15 40  1  0
 15 41  1  0
 16 42  1  0
 16 43  1  0
 16 44  1  0
M  CHG  1   5   1
M  END
>  <UniqueID>  (13) 
12

>  <SMILES>  (13) 
C=C=CC[NH2+]CCCNCCCCNCC

>  <Energy>  (13) 
26.283169829559537

>  <Genealogy>  (13) 
C=C=CC[NH2+]CCCNCCCCNCC (protonated)
C=C=CC[NH2+]CCCNCCCCNCC (3D coordinates assigned)
C=C=CC[NH2+]CCCNCCCCNCC (optimized conformer: 26.283169829559537 kcal/mol)

>  <smiles>  (13) 
C=C=CCNCCCNCCCCNCC

>  <score_type>  (13) 
oracle

>  <origin>  (13) 
adg

>  <m_score__min__energy>  (13) 
-1.71

>  <m_primary>  (13) 
energy

$$$$
13:0
     RDKit          3D

 47 49  0  0  0  0  0  0  0  0999 V2000
   59.7690   33.7710   50.6630 C   0  0  0  0  0  0  0  0  0  0  0  0
   60.9150   33.3770   49.8410 N   0  0  0  0  0  0  0  0  0  0  0  0
   62.2080   34.0490   49.9820 C   0  0  0  0  0  0  0  0  0  0  0  0
   60.8130   32.2390   48.9690 C   0  0  0  0  0  0  0  0  0  0  0  0
   60.6750   30.9650   49.5410 C   0  0  0  0  0  0  0  0  0  0  0  0
   60.5840   29.8300   48.7350 C   0  0  0  0  0  0  0  0  0  0  0  0
   60.6410   29.9540   47.3480 C   0  0  0  0  0  0  0  0  0  0  0  0
   60.7810   31.2130   46.7620 C   0  0  0  0  0  0  0  0  0  0  0  0
   60.8520   32.3750   47.5550 C   0  0  0  0  0  0  0  0  0  0  0  0
   61.0320   33.7050   46.9070 C   0  0  0  0  0  0  0  0  0  0  0  0
   62.1320   33.9400   46.3310 O   0  0  0  0  0  0  0  0  0  0  0  0
   59.9480   34.6820   46.8410 N   0  0  0  0  0  0  0  0  0  0  0  0
   59.6080   35.0910   45.4670 C   0  0  0  0  0  0  0  0  0  0  0  0
   59.1410   33.9140   44.6110 C   0  0  0  0  0  0  0  0  0  0  0  0
   58.2800   32.9410   45.3200 N   0  0  0  0  0  0  0  0  0  0  0  0
   57.7540   31.7960   44.5660 C   0  0  0  0  0  0  0  0  0  0  0  0
   57.4510   31.9230   43.1850 C   0  0  0  0  0  0  0  0  0  0  0  0
   56.9630   30.8450   42.4430 C   0  0  0  0  0  0  0  0  0  0  0  0
   56.7600   29.6110   43.0490 C   0  0  0  0  0  0  0  0  0  0  0  0
   57.0440   29.4500   44.4020 C   0  0  0  0  0  0  0  0  0  0  0  0
   57.5340   30.5180   45.1610 C   0  0  0  0  0  0  0  0  0  0  0  0
   57.7740   30.2670   46.4700 F   0  0  0  0  0  0  0  0  0  0  0  0
   58.0350   33.0380   46.7780 C   0  0  0  0  0  0  0  0  0  0  0  0
   58.7080   34.2270   47.4950 C   0  0  0  0  0  0  0  0  0  0  0  0
   60.0326   33.6804   51.7271 H   0  0  0  0  0  0  0  0  0  0  0  0
   59.4988   34.8136   50.4397 H   0  0  0  0  0  0  0  0  0  0  0  0
   58.9148   33.1149   50.4397 H   0  0  0  0  0  0  0  0  0  0  0  0
   62.4432   34.1712   51.0496 H   0  0  0  0  0  0  0  0  0  0  0  0
   62.9903   33.4434   49.5012 H   0  0  0  0  0  0  0  0  0  0  0  0
   62.1620   35.0373   49.5012 H   0  0  0  0  0  0  0  0  0  0  0  0
   60.6382   30.8603   50.6354 H   0  0  0  0  0  0  0  0  0  0  0  0
   60.4673   28.8372   49.1941 H   0  0  0  0  0  0  0  0  0  0  0  0
   60.5755   29.0577   46.7137 H   0  0  0  0  0  0  0  0  0  0  0  0
   60.8366   31.2989   45.6668 H   0  0  0  0  0  0  0  0  0  0  0  0
   60.2630   35.5330   47.3610 H   0  0  0  0  0  0  0  0  0  0  0  0
   58.8027   35.8391   45.5095 H   0  0  0  0  0  0  0  0  0  0  0  0
   60.5161   35.5047   45.0042 H   0  0  0  0  0  0  0  0  0  0  0  0
   58.5754   34.3141   43.7566 H   0  0  0  0  0  0  0  0  0  0  0  0
   60.0472   33.3678   44.3103 H   0  0  0  0  0  0  0  0  0  0  0  0
   57.6040   32.8923   42.6880 H   0  0  0  0  0  0  0  0  0  0  0  0
   56.7383   30.9734   41.3739 H   0  0  0  0  0  0  0  0  0  0  0  0
   56.3761   28.7642   42.4612 H   0  0  0  0  0  0  0  0  0  0  0  0
   56.8814   28.4725   44.8796 H   0  0  0  0  0  0  0  0  0  0  0  0
   56.9492   33.1214   46.9328 H   0  0  0  0  0  0  0  0  0  0  0  0
   58.4816   32.1334   47.2165 H   0  0  0  0  0  0  0  0  0  0  0  0
   57.9980   35.0669   47.5180 H   0  0  0  0  0  0  0  0  0  0  0  0
   58.9811   33.8841   48.5039 H   0  0  0  0  0  0  0  0  0  0  0  0
  1  2  1  0
  2  3  1  0
  2  4  1  0
  4  5  2  0
  5  6  1  0
  6  7  2  0
  7  8  1  0
  8  9  2  0
  9 10  1  0
 10 11  2  0
 10 12  1  0
 12 13  1  0
 13 14  1  0
 14 15  1  0
 15 16  1  0
 16 17  2  0
 17 18  1  0
 18 19  2  0
 19 20  1  0
 20 21  2  0
 21 22  1  0
 15 23  1  0
 23 24  1  0
  9  4  1  0
 24 12  1  0
 21 16  1  0
  1 25  1  0
  1 26  1  0
  1 27  1  0
  3 28  1  0
  3 29  1  0
  3 30  1  0
  5 31  1  0
  6 32  1  0
  7 33  1  0
  8 34  1  0
 12 35  1  0
 13 36  1  0
 13 37  1  0
 14 38  1  0
 14 39  1  0
 17 40  1  0
 18 41  1  0
 19 42  1  0
 20 43  1  0
 23 44  1  0
 23 45  1  0
 24 46  1  0
 24 47  1  0
M  CHG  1  12   1
M  END
>  <UniqueID>  (14) 
13

>  <SMILES>  (14) 
CN(C)c1ccccc1C(=O)[NH+]1CCN(c2ccccc2F)CC1

>  <Energy>  (14) 
73.45477406159105

>  <Genealogy>  (14) 
CN(C)c1ccccc1C(=O)[NH+]1CCN(c2ccccc2F)CC1 (protonated)
CN(C)c1ccccc1C(=O)[NH+]1CCN(c2ccccc2F)CC1 (3D coordinates assigned)
CN(C)c1ccccc1C(=O)[NH+]1CCN(c2ccccc2F)CC1 (nonaromatic ring conformer: 73.45477406159105 kcal/mol)

>  <smiles>  (14) 
CN(C)c1ccccc1C(=O)N1CCN(c2ccccc2F)CC1

>  <score_type>  (14) 
oracle

>  <origin>  (14) 
adg

>  <m_score__min__energy>  (14) 
-5.8499999999999996

>  <m_primary>  (14) 
energy

$$$$
14:0
     RDKit          3D

 34 35  0  0  0  0  0  0  0  0999 V2000
   61.0170   33.8530   48.2490 C   0  0  0  0  0  0  0  0  0  0  0  0
   59.7390   33.8770   47.5480 N   0  0  0  0  0  0  0  0  0  0  0  0
   59.2700   34.8390   46.7290 C   0  0  0  0  0  0  0  0  0  0  0  0
   58.0900   34.4800   46.1790 N   0  0  0  0  0  0  0  0  0  0  0  0
   57.8140   33.2720   46.6480 N   0  0  0  0  0  0  0  0  0  0  0  0
   58.8140   32.9050   47.4640 C   0  0  0  0  0  0  0  0  0  0  0  0
   58.9050   31.3200   48.2970 S   0  0  0  0  0  0  0  0  0  0  0  0
   59.2380   30.3970   46.7570 C   0  0  0  0  0  0  0  0  0  0  0  0
   57.9380   29.9000   46.1060 C   0  0  0  0  0  0  0  0  0  0  0  0
   57.3340   30.9250   45.2240 N   0  0  0  0  0  0  0  0  0  0  0  0
   56.1610   30.3860   44.4810 C   0  0  0  0  0  0  0  0  0  0  0  0
   56.5070   29.9810   43.0410 C   0  0  0  0  0  0  0  0  0  0  0  0
   57.0220   31.1870   42.2360 C   0  0  0  0  0  0  0  0  0  0  0  0
   57.7200   32.2330   43.1220 C   0  0  0  0  0  0  0  0  0  0  0  0
   58.3510   31.5740   44.3540 C   0  0  0  0  0  0  0  0  0  0  0  0
   60.8398   33.8563   49.3346 H   0  0  0  0  0  0  0  0  0  0  0  0
   61.5709   32.9443   47.9707 H   0  0  0  0  0  0  0  0  0  0  0  0
   61.6046   34.7403   47.9707 H   0  0  0  0  0  0  0  0  0  0  0  0
   59.7819   35.7929   46.5338 H   0  0  0  0  0  0  0  0  0  0  0  0
   56.9680   32.7140   46.3970 H   0  0  0  0  0  0  0  0  0  0  0  0
   59.7617   31.0577   46.0504 H   0  0  0  0  0  0  0  0  0  0  0  0
   59.8558   29.5216   47.0061 H   0  0  0  0  0  0  0  0  0  0  0  0
   58.1598   29.0032   45.5088 H   0  0  0  0  0  0  0  0  0  0  0  0
   57.2198   29.6751   46.9083 H   0  0  0  0  0  0  0  0  0  0  0  0
   55.7829   29.5013   45.0142 H   0  0  0  0  0  0  0  0  0  0  0  0
   55.4052   31.1836   44.4294 H   0  0  0  0  0  0  0  0  0  0  0  0
   57.2859   29.2046   43.0633 H   0  0  0  0  0  0  0  0  0  0  0  0
   55.5960   29.6001   42.5562 H   0  0  0  0  0  0  0  0  0  0  0  0
   57.7389   30.8280   41.4828 H   0  0  0  0  0  0  0  0  0  0  0  0
   56.1525   31.6722   41.7685 H   0  0  0  0  0  0  0  0  0  0  0  0
   58.5072   32.7320   42.5378 H   0  0  0  0  0  0  0  0  0  0  0  0
   56.9702   32.9635   43.4599 H   0  0  0  0  0  0  0  0  0  0  0  0
   59.0700   30.8117   44.0194 H   0  0  0  0  0  0  0  0  0  0  0  0
   58.8475   32.3602   44.9417 H   0  0  0  0  0  0  0  0  0  0  0  0
  1  2  1  0
  2  3  1  0
  3  4  2  0
  4  5  1  0
  5  6  2  0
  6  7  1  0
  7  8  1  0
  8  9  1  0
  9 10  1  0
 10 11  1  0
 11 12  1  0
 12 13  1  0
 13 14  1  0
 14 15  1  0
  6  2  1  0
 15 10  1  0
  1 16  1  0
  1 17  1  0
  1 18  1  0
  3 19  1  0
  5 20  1  0
  8 21  1  0
  8 22  1  0
  9 23  1  0
  9 24  1  0
 11 25  1  0
 11 26  1  0
 12 27  1  0
 12 28  1  0
 13 29  1  0
 13 30  1  0
 14 31  1  0
 14 32  1  0
 15 33  1  0
 15 34  1  0
M  CHG  1   5   1
M  END
>  <UniqueID>  (15) 
14

>  <SMILES>  (15) 
Cn1cn[nH+]c1SCCN1CCCCC1

>  <Energy>  (15) 
70.41898876814012

>  <Genealogy>  (15) 
Cn1cn[nH+]c1SCCN1CCCCC1 (protonated)
Cn1cn[nH+]c1SCCN1CCCCC1 (3D coordinates assigned)
Cn1cn[nH+]c1SCCN1CCCCC1 (nonaromatic ring conformer: 70.41898876814012 kcal/mol)

>  <smiles>  (15) 
Cn1cnnc1SCCN1CCCCC1

>  <score_type>  (15) 
oracle

>  <origin>  (15) 
adg

>  <m_score__min__energy>  (15) 
-4.75

>  <m_primary>  (15) 
energy

$$$$
15:0
     RDKit          3D

 53 55  0  0  0  0  0  0  0  0999 V2000
   58.9663   34.8850   43.5866 H   0  0  0  0  0  0  0  0  0  0  0  0
   58.8840   34.2600   44.4880 C   0  0  0  0  0  0  0  0  0  0  0  0
   59.4130   34.6960   45.6550 N   0  0  0  0  0  0  0  0  0  0  0  0
   59.3750   33.9410   46.7840 C   0  0  0  0  0  0  0  0  0  0  0  0
   59.9270   34.4490   47.9640 C   0  0  0  0  0  0  0  0  0  0  0  0
   60.3665   35.4573   47.9751 H   0  0  0  0  0  0  0  0  0  0  0  0
   59.9210   33.6730   49.1360 C   0  0  0  0  0  0  0  0  0  0  0  0
   60.4630   34.1420   50.3430 O   0  0  0  0  0  0  0  0  0  0  0  0
   61.7710   33.8300   50.8070 C   0  0  0  0  0  0  0  0  0  0  0  0
   62.0819   34.5707   51.5584 H   0  0  0  0  0  0  0  0  0  0  0  0
   61.7739   32.8290   51.2630 H   0  0  0  0  0  0  0  0  0  0  0  0
   62.7360   33.8610   49.6310 C   0  0  0  0  0  0  0  0  0  0  0  0
   63.7697   33.8942   50.0057 H   0  0  0  0  0  0  0  0  0  0  0  0
   62.5968   32.9579   49.0186 H   0  0  0  0  0  0  0  0  0  0  0  0
   62.5391   34.7533   49.0186 H   0  0  0  0  0  0  0  0  0  0  0  0
   59.3830   32.3830   49.1080 C   0  0  0  0  0  0  0  0  0  0  0  0
   59.3680   31.5910   50.3030 N   0  0  0  0  0  0  0  0  0  0  0  0
   58.2070   30.9260   50.8150 C   0  0  0  0  0  0  0  0  0  0  0  0
   58.1250   29.6780   50.6850 O   0  0  0  0  0  0  0  0  0  0  0  0
   57.0080   31.7110   51.3050 C   0  0  0  0  0  0  0  0  0  0  0  0
   56.2459   31.0028   51.6622 H   0  0  0  0  0  0  0  0  0  0  0  0
   56.6395   32.3148   50.4626 H   0  0  0  0  0  0  0  0  0  0  0  0
   57.3580   32.6770   52.4510 C   0  0  0  0  0  0  0  0  0  0  0  0
   57.8836   32.1194   53.2402 H   0  0  0  0  0  0  0  0  0  0  0  0
   56.4224   33.1108   52.8337 H   0  0  0  0  0  0  0  0  0  0  0  0
   58.2230   33.7800   51.9860 N   0  0  0  0  0  0  0  0  0  0  0  0
   59.0100   33.3810   51.4230 H   0  0  0  0  0  0  0  0  0  0  0  0
   58.8430   34.4980   53.1090 C   0  0  0  0  0  0  0  0  0  0  0  0
   58.0589   34.7853   53.8250 H   0  0  0  0  0  0  0  0  0  0  0  0
   59.3548   35.3854   52.7083 H   0  0  0  0  0  0  0  0  0  0  0  0
   59.8780   33.6350   53.8280 C   0  0  0  0  0  0  0  0  0  0  0  0
   59.7515   33.7405   54.9156 H   0  0  0  0  0  0  0  0  0  0  0  0
   59.7388   32.5817   53.5431 H   0  0  0  0  0  0  0  0  0  0  0  0
   60.8891   33.9613   53.5431 H   0  0  0  0  0  0  0  0  0  0  0  0
   58.7880   31.8880   47.9400 C   0  0  0  0  0  0  0  0  0  0  0  0
   58.3374   30.8845   47.9395 H   0  0  0  0  0  0  0  0  0  0  0  0
   58.7630   32.6670   46.7660 C   0  0  0  0  0  0  0  0  0  0  0  0
   58.1040   32.2300   45.5920 C   0  0  0  0  0  0  0  0  0  0  0  0
   57.3920   31.1320   45.6550 N   0  0  0  0  0  0  0  0  0  0  0  0
   57.8090   29.7680   45.8160 C   0  0  0  0  0  0  0  0  0  0  0  0
   59.1530   29.4480   46.0750 C   0  0  0  0  0  0  0  0  0  0  0  0
   59.8920   30.2524   46.2051 H   0  0  0  0  0  0  0  0  0  0  0  0
   59.5550   28.1120   46.1680 C   0  0  0  0  0  0  0  0  0  0  0  0
   60.5955   27.8682   46.4287 H   0  0  0  0  0  0  0  0  0  0  0  0
   58.6360   27.0860   45.9300 C   0  0  0  0  0  0  0  0  0  0  0  0
   59.2000   25.2650   46.0170 Br  0  0  0  0  0  0  0  0  0  0  0  0
   57.3140   27.3990   45.5990 C   0  0  0  0  0  0  0  0  0  0  0  0
   56.5975   26.5927   45.3834 H   0  0  0  0  0  0  0  0  0  0  0  0
   56.8990   28.7350   45.5410 C   0  0  0  0  0  0  0  0  0  0  0  0
   55.6230   29.0240   45.1880 F   0  0  0  0  0  0  0  0  0  0  0  0
   58.2330   33.0220   44.4150 C   0  0  0  0  0  0  0  0  0  0  0  0
   57.8650   32.5570   43.0970 C   0  0  0  0  0  0  0  0  0  0  0  0
   57.5750   32.1880   42.0380 N   0  0  0  0  0  0  0  0  0  0  0  0
  1  2  1  0
  2  3  1  0
  3  4  1  0
  4  5  2  0
  5  6  1  0
  5  7  1  0
  7  8  1  0
  8  9  1  0
  9 10  1  0
  9 11  1  0
  9 12  1  0
 12 13  1  0
 12 14  1  0
 12 15  1  0
  7 16  2  0
 16 17  1  0
 17 18  1  0
 18 19  2  0
 18 20  1  0
 20 21  1  0
 20 22  1  0
 20 23  1  0
 23 24  1  0
 23 25  1  0
 23 26  1  0
 26 27  1  0
 26 28  1  0
 28 29  1  0
 28 30  1  0
 28 31  1  0
 31 32  1  0
 31 33  1  0
 31 34  1  0
 16 35  1  0
 35 36  1  0
 35 37  2  0
 37 38  1  0
 38 39  2  0
 39 40  1  0
 40 41  2  0
 41 42  1  0
 41 43  1  0
 43 44  1  0
 43 45  2  0
 45 46  1  0
 45 47  1  0
 47 48  1  0
 47 49  2  0
 49 50  1  0
 38 51  1  0
 51 52  1  0
 52 53  3  0
 51  2  2  0
 37  4  1  0
 49 40  1  0
M  CHG  2   3  -1  17  -1
M  END
>  <UniqueID>  (16) 
15

>  <SMILES>  (16) 
CCNCCC(=O)[N-]c1cc2/c(=N/c3ccc(Br)cc3F)c(C#N)c[n-]c2cc1OCC

>  <Energy>  (16) 
78.42295426569397

>  <Genealogy>  (16) 
CCNCCC(=O)[N-]c1cc2c(=Nc3ccc(Br)cc3F)c(C#N)c[n-]c2cc1OCC (protonated)
CCNCCC(=O)[N-]c1cc2/c(=N/c3ccc(Br)cc3F)c(C#N)c[n-]c2cc1OCC (cis-trans isomerization)
CCNCCC(=O)[N-]c1cc2/c(=N/c3ccc(Br)cc3F)c(C#N)c[n-]c2cc1OCC (3D coordinates assigned)
CCNCCC(=O)[N-]c1cc2/c(=N/c3ccc(Br)cc3F)c(C#N)c[n-]c2cc1OCC (optimized conformer: 78.42295426569397 kcal/mol)

>  <smiles>  (16) 
CCNCCC(=O)Nc1cc2c(=Nc3ccc(Br)cc3F)c(C#N)c[nH]c2cc1OCC

>  <score_type>  (16) 
oracle

>  <origin>  (16) 
adg

>  <m_score__min__energy>  (16) 
-10.09

>  <m_primary>  (16) 
energy

$$$$
16:0
     RDKit          3D

 27 27  0  0  0  0  0  0  0  0999 V2000
   57.8990   27.1970   46.9290 C   0  0  0  0  0  0  0  0  0  0  0  0
   56.8920   26.7740   45.8660 C   0  0  0  0  0  0  0  0  0  0  0  0
   55.9620   27.8240   45.6070 O   0  0  0  0  0  0  0  0  0  0  0  0
   56.2780   28.9660   44.8650 C   0  0  0  0  0  0  0  0  0  0  0  0
   55.4600   29.9210   44.7690 O   0  0  0  0  0  0  0  0  0  0  0  0
   57.6190   29.0660   44.1990 C   0  0  0  0  0  0  0  0  0  0  0  0
   57.7580   30.3170   43.4380 N   0  0  0  0  0  0  0  0  0  0  0  0
   58.1710   31.4090   44.2900 C   0  0  0  0  0  0  0  0  0  0  0  0
   58.0290   32.7410   43.8630 C   0  0  0  0  0  0  0  0  0  0  0  0
   58.4580   33.7930   44.6760 C   0  0  0  0  0  0  0  0  0  0  0  0
   59.0330   33.5280   45.9220 C   0  0  0  0  0  0  0  0  0  0  0  0
   59.6200   34.9680   47.0310 Br  0  0  0  0  0  0  0  0  0  0  0  0
   59.1810   32.2060   46.3550 C   0  0  0  0  0  0  0  0  0  0  0  0
   58.7560   31.1510   45.5430 C   0  0  0  0  0  0  0  0  0  0  0  0
   57.4744   27.0186   47.9279 H   0  0  0  0  0  0  0  0  0  0  0  0
   58.8225   26.6108   46.8131 H   0  0  0  0  0  0  0  0  0  0  0  0
   58.1269   28.2669   46.8131 H   0  0  0  0  0  0  0  0  0  0  0  0
   57.4284   26.5294   44.9373 H   0  0  0  0  0  0  0  0  0  0  0  0
   56.3406   25.8949   46.2308 H   0  0  0  0  0  0  0  0  0  0  0  0
   58.4031   29.0288   44.9696 H   0  0  0  0  0  0  0  0  0  0  0  0
   57.7157   28.2253   43.4963 H   0  0  0  0  0  0  0  0  0  0  0  0
   58.4390   30.1840   42.6540 H   0  0  0  0  0  0  0  0  0  0  0  0
   56.8330   30.5510   43.0080 H   0  0  0  0  0  0  0  0  0  0  0  0
   57.5776   32.9560   42.8832 H   0  0  0  0  0  0  0  0  0  0  0  0
   58.3430   34.8324   44.3347 H   0  0  0  0  0  0  0  0  0  0  0  0
   59.6325   31.9966   47.3360 H   0  0  0  0  0  0  0  0  0  0  0  0
   58.8796   30.1130   45.8856 H   0  0  0  0  0  0  0  0  0  0  0  0
  1  2  1  0
  2  3  1  0
  3  4  1  0
  4  5  2  0
  4  6  1  0
  6  7  1  0
  7  8  1  0
  8  9  2  0
  9 10  1  0
 10 11  2  0
 11 12  1  0
 11 13  1  0
 13 14  2  0
 14  8  1  0
  1 15  1  0
  1 16  1  0
  1 17  1  0
  2 18  1  0
  2 19  1  0
  6 20  1  0
  6 21  1  0
  7 22  1  0
  7 23  1  0
  9 24  1  0
 10 25  1  0
 13 26  1  0
 14 27  1  0
M  CHG  1   7   1
M  END
>  <UniqueID>  (17) 
16

>  <SMILES>  (17) 
CCOC(=O)C[NH2+]c1ccc(Br)cc1

>  <Energy>  (17) 
20.13617287434039

>  <Genealogy>  (17) 
CCOC(=O)C[NH2+]c1ccc(Br)cc1 (protonated)
CCOC(=O)C[NH2+]c1ccc(Br)cc1 (3D coordinates assigned)
CCOC(=O)C[NH2+]c1ccc(Br)cc1 (optimized conformer: 20.13617287434039 kcal/mol)

>  <smiles>  (17) 
CCOC(=O)CNc1ccc(Br)cc1

>  <score_type>  (17) 
oracle

>  <origin>  (17) 
adg

>  <m_score__min__energy>  (17) 
-4.8499999999999996

>  <m_primary>  (17) 
energy

$$$$
17:0
     RDKit          3D

 49 50  0  0  0  0  0  0  0  0999 V2000
   64.3460   32.2730   49.4010 C   0  0  0  0  0  0  0  0  0  0  0  0
   63.8190   33.5190   48.6730 C   0  0  0  0  0  0  0  0  0  0  0  0
   62.7420   33.2510   47.6830 N   0  0  1  0  0  0  0  0  0  0  0  0
   63.0660   33.8220   46.3610 C   0  0  0  0  0  0  0  0  0  0  0  0
   62.3780   31.8180   47.5420 C   0  0  0  0  0  0  0  0  0  0  0  0
   61.0600   31.4400   48.2490 C   0  0  0  0  0  0  0  0  0  0  0  0
   60.2440   32.6310   48.5520 N   0  0  0  0  0  0  0  0  0  0  0  0
   58.8200   32.4440   48.2320 C   0  0  0  0  0  0  0  0  0  0  0  0
   58.5440   32.7560   46.7810 C   0  0  0  0  0  0  0  0  0  0  0  0
   58.7080   34.0690   46.3110 C   0  0  0  0  0  0  0  0  0  0  0  0
   58.4050   34.3880   44.9860 C   0  0  0  0  0  0  0  0  0  0  0  0
   57.9180   33.4070   44.1240 C   0  0  0  0  0  0  0  0  0  0  0  0
   57.7530   32.0920   44.5720 C   0  0  0  0  0  0  0  0  0  0  0  0
   56.9530   30.8210   43.3830 Br  0  0  0  0  0  0  0  0  0  0  0  0
   58.0950   31.7520   45.8960 C   0  0  0  0  0  0  0  0  0  0  0  0
   57.9630   30.4340   46.3520 O   0  0  0  0  0  0  0  0  0  0  0  0
   59.0290   29.4870   46.2990 C   0  0  0  0  0  0  0  0  0  0  0  0
   58.5530   28.2020   45.6840 C   0  0  0  0  0  0  0  0  0  0  0  0
   58.6420   28.0060   44.2960 C   0  0  0  0  0  0  0  0  0  0  0  0
   58.1410   26.8360   43.7160 C   0  0  0  0  0  0  0  0  0  0  0  0
   57.5390   25.8590   44.5160 C   0  0  0  0  0  0  0  0  0  0  0  0
   56.9050   24.3960   43.7870 Cl  0  0  0  0  0  0  0  0  0  0  0  0
   57.4360   26.0540   45.8970 C   0  0  0  0  0  0  0  0  0  0  0  0
   57.9380   27.2220   46.4790 C   0  0  0  0  0  0  0  0  0  0  0  0
   64.2803   32.4282   50.4880 H   0  0  0  0  0  0  0  0  0  0  0  0
   63.7403   31.3994   49.1181 H   0  0  0  0  0  0  0  0  0  0  0  0
   65.3947   32.0992   49.1181 H   0  0  0  0  0  0  0  0  0  0  0  0
   63.4252   34.2158   49.4276 H   0  0  0  0  0  0  0  0  0  0  0  0
   64.6673   33.9296   48.1058 H   0  0  0  0  0  0  0  0  0  0  0  0
   61.8950   33.7700   48.0150 H   0  0  0  0  0  0  0  0  0  0  0  0
   63.6049   34.7717   46.4939 H   0  0  0  0  0  0  0  0  0  0  0  0
   63.6984   33.1167   45.8020 H   0  0  0  0  0  0  0  0  0  0  0  0
   62.1361   34.0032   45.8020 H   0  0  0  0  0  0  0  0  0  0  0  0
   62.2753   31.5896   46.4709 H   0  0  0  0  0  0  0  0  0  0  0  0
   63.1782   31.2347   48.0209 H   0  0  0  0  0  0  0  0  0  0  0  0
   60.4836   30.7697   47.5945 H   0  0  0  0  0  0  0  0  0  0  0  0
   61.3095   30.9439   49.1985 H   0  0  0  0  0  0  0  0  0  0  0  0
   60.3050   32.8060   49.5830 H   0  0  0  0  0  0  0  0  0  0  0  0
   58.5403   31.3996   48.4345 H   0  0  0  0  0  0  0  0  0  0  0  0
   58.2285   33.1303   48.8558 H   0  0  0  0  0  0  0  0  0  0  0  0
   59.0774   34.8509   46.9908 H   0  0  0  0  0  0  0  0  0  0  0  0
   58.5509   35.4156   44.6216 H   0  0  0  0  0  0  0  0  0  0  0  0
   57.6622   33.6680   43.0865 H   0  0  0  0  0  0  0  0  0  0  0  0
   59.8497   29.8977   45.6925 H   0  0  0  0  0  0  0  0  0  0  0  0
   59.3810   29.2860   47.3216 H   0  0  0  0  0  0  0  0  0  0  0  0
   59.1075   28.7756   43.6627 H   0  0  0  0  0  0  0  0  0  0  0  0
   58.2205   26.6839   42.6295 H   0  0  0  0  0  0  0  0  0  0  0  0
   56.9595   25.2877   46.5260 H   0  0  0  0  0  0  0  0  0  0  0  0
   57.8506   27.3737   47.5650 H   0  0  0  0  0  0  0  0  0  0  0  0
  1  2  1  0
  2  3  1  0
  3  4  1  0
  3  5  1  0
  5  6  1  0
  6  7  1  0
  7  8  1  0
  8  9  1  0
  9 10  2  0
 10 11  1  0
 11 12  2  0
 12 13  1  0
 13 14  1  0
 13 15  2  0
 15 16  1  0
 16 17  1  0
 17 18  1  0
 18 19  2  0
 19 20  1  0
 20 21  2  0
 21 22  1  0
 21 23  1  0
 23 24  2  0
 15  9  1  0
 24 18  1  0
  1 25  1  0
  1 26  1  0
  1 27  1  0
  2 28  1  0
  2 29  1  0
  3 30  1  1
  4 31  1  0
  4 32  1  0
  4 33  1  0
  5 34  1  0
  5 35  1  0
  6 36  1  0
  6 37  1  0
  7 38  1  0
  8 39  1  0
  8 40  1  0
 10 41  1  0
 11 42  1  0
 12 43  1  0
 17 44  1  0
 17 45  1  0
 19 46  1  0
 20 47  1  0
 23 48  1  0
 24 49  1  0
M  CHG  1   3   1
M  END
>  <UniqueID>  (18) 
17

>  <SMILES>  (18) 
CC[N@@H+](C)CCNCc1cccc(Br)c1OCc1ccc(Cl)cc1

>  <Energy>  (18) 
54.10799605368443

>  <Genealogy>  (18) 
CC[NH+](C)CCNCc1cccc(Br)c1OCc1ccc(Cl)cc1 (protonated)
CC[N@@H+](C)CCNCc1cccc(Br)c1OCc1ccc(Cl)cc1 (chirality)
CC[N@@H+](C)CCNCc1cccc(Br)c1OCc1ccc(Cl)cc1 (3D coordinates assigned)
CC[N@@H+](C)CCNCc1cccc(Br)c1OCc1ccc(Cl)cc1 (optimized conformer: 54.10799605368443 kcal/mol)

>  <smiles>  (18) 
CCN(C)CCNCc1cccc(Br)c1OCc1ccc(Cl)cc1

>  <score_type>  (18) 
oracle

>  <origin>  (18) 
adg

>  <m_score__min__energy>  (18) 
-5.4900000000000002

>  <m_primary>  (18) 
energy

$$$$
18:0
     RDKit          3D

 51 54  0  0  0  0  0  0  0  0999 V2000
   63.3180   31.7340   47.1690 C   0  0  0  0  0  0  0  0  0  0  0  0
   62.4750   31.9150   48.3700 N   0  0  0  0  0  0  0  0  0  0  0  0
   63.2960   31.7620   49.5820 C   0  0  0  0  0  0  0  0  0  0  0  0
   63.7880   33.1480   50.0010 C   0  0  0  0  0  0  0  0  0  0  0  0
   62.9890   34.1360   49.1670 C   0  0  0  0  0  0  0  0  0  0  0  0
   61.9210   33.2780   48.4950 C   0  0  1  0  0  0  0  0  0  0  0  0
   61.3690   33.8640   47.2050 C   0  0  0  0  0  0  0  0  0  0  0  0
   62.1530   34.1060   46.2470 O   0  0  0  0  0  0  0  0  0  0  0  0
   59.9680   34.1770   47.0670 N   0  0  0  0  0  0  0  0  0  0  0  0
   59.5890   35.2210   46.0980 C   0  0  0  0  0  0  0  0  0  0  0  0
   58.8260   34.6750   44.8760 C   0  0  0  0  0  0  0  0  0  0  0  0
   57.8040   33.5520   45.1840 C   0  0  0  0  0  0  0  0  0  0  0  0
   58.4630   32.3010   45.6200 N   0  0  0  0  0  0  0  0  0  0  0  0
   57.8080   31.1340   44.9750 C   0  0  0  0  0  0  0  0  0  0  0  0
   58.4070   29.8630   45.4840 C   0  0  0  0  0  0  0  0  0  0  0  0
   58.2790   28.6320   44.9620 N   0  0  0  0  0  0  0  0  0  0  0  0
   58.8970   27.7830   45.7710 N   0  0  0  0  0  0  0  0  0  0  0  0
   58.9240   26.3390   45.5810 C   0  0  0  0  0  0  0  0  0  0  0  0
   59.3970   28.4520   46.8340 C   0  0  0  0  0  0  0  0  0  0  0  0
   59.0790   29.7840   46.6720 C   0  0  0  0  0  0  0  0  0  0  0  0
   59.4170   30.9740   47.5050 C   0  0  0  0  0  0  0  0  0  0  0  0
   58.4930   32.1550   47.1090 C   0  0  1  0  0  0  0  0  0  0  0  0
   58.9530   33.4400   47.8410 C   0  0  0  0  0  0  0  0  0  0  0  0
   64.3508   31.5123   47.4760 H   0  0  0  0  0  0  0  0  0  0  0  0
   62.9267   30.8994   46.5687 H   0  0  0  0  0  0  0  0  0  0  0  0
   63.3038   32.6557   46.5687 H   0  0  0  0  0  0  0  0  0  0  0  0
   62.6916   31.3214   50.3886 H   0  0  0  0  0  0  0  0  0  0  0  0
   64.1505   31.0988   49.3821 H   0  0  0  0  0  0  0  0  0  0  0  0
   63.6033   33.3130   51.0728 H   0  0  0  0  0  0  0  0  0  0  0  0
   64.8701   33.2613   49.8394 H   0  0  0  0  0  0  0  0  0  0  0  0
   62.5281   34.9035   49.8062 H   0  0  0  0  0  0  0  0  0  0  0  0
   63.6134   34.6777   48.4413 H   0  0  0  0  0  0  0  0  0  0  0  0
   61.0167   33.2468   49.1206 H   0  0  0  0  0  0  0  0  0  0  0  0
   58.9488   35.9550   46.6092 H   0  0  0  0  0  0  0  0  0  0  0  0
   60.5209   35.6703   45.7243 H   0  0  0  0  0  0  0  0  0  0  0  0
   58.2828   35.5116   44.4124 H   0  0  0  0  0  0  0  0  0  0  0  0
   59.5846   34.2253   44.2185 H   0  0  0  0  0  0  0  0  0  0  0  0
   57.1309   33.8951   45.9835 H   0  0  0  0  0  0  0  0  0  0  0  0
   57.2494   33.3369   44.2587 H   0  0  0  0  0  0  0  0  0  0  0  0
   56.7325   31.1472   45.2053 H   0  0  0  0  0  0  0  0  0  0  0  0
   57.9584   31.1926   43.8869 H   0  0  0  0  0  0  0  0  0  0  0  0
   57.7700   28.3730   44.0860 H   0  0  0  0  0  0  0  0  0  0  0  0
   58.9333   25.8403   46.5614 H   0  0  0  0  0  0  0  0  0  0  0  0
   58.0315   26.0264   45.0191 H   0  0  0  0  0  0  0  0  0  0  0  0
   59.8275   26.0599   45.0191 H   0  0  0  0  0  0  0  0  0  0  0  0
   59.9554   28.0140   47.6744 H   0  0  0  0  0  0  0  0  0  0  0  0
   59.2697   30.7324   48.5680 H   0  0  0  0  0  0  0  0  0  0  0  0
   60.4672   31.2552   47.3376 H   0  0  0  0  0  0  0  0  0  0  0  0
   57.4581   31.9584   47.4257 H   0  0  0  0  0  0  0  0  0  0  0  0
   58.0812   34.0924   47.9971 H   0  0  0  0  0  0  0  0  0  0  0  0
   59.4025   33.1447   48.8006 H   0  0  0  0  0  0  0  0  0  0  0  0
  1  2  1  0
  2  3  1  0
  3  4  1  0
  4  5  1  0
  5  6  1  0
  6  7  1  0
  7  8  2  0
  7  9  1  0
  9 10  1  0
 10 11  1  0
 11 12  1  0
 12 13  1  0
 13 14  1  0
 14 15  1  0
 15 16  2  0
 16 17  1  0
 17 18  1  0
 17 19  1  0
 19 20  2  0
 20 21  1  0
 21 22  1  0
 22 23  1  0
  6  2  1  0
 23  9  1  0
 22 13  1  0
 20 15  1  0
  1 24  1  0
  1 25  1  0
  1 26  1  0
  3 27  1  0
  3 28  1  0
  4 29  1  0
  4 30  1  0
  5 31  1  0
  5 32  1  0
  6 33  1  1
 10 34  1  0
 10 35  1  0
 11 36  1  0
 11 37  1  0
 12 38  1  0
 12 39  1  0
 14 40  1  0
 14 41  1  0
 16 42  1  0
 18 43  1  0
 18 44  1  0
 18 45  1  0
 19 46  1  0
 21 47  1  0
 21 48  1  0
 22 49  1  1
 23 50  1  0
 23 51  1  0
M  CHG  1  16   1
M  END
>  <UniqueID>  (19) 
18

>  <SMILES>  (19) 
CN1CCC[C@H]1C(=O)N1CCCN2Cc3[nH+]n(C)cc3C[C@H]2C1

>  <Energy>  (19) 
104.85971763732611

>  <Genealogy>  (19) 
CN1CCCC1C(=O)N1CCCN2Cc3[nH+]n(C)cc3CC2C1 (protonated)
CN1CCC[C@H]1C(=O)N1CCCN2Cc3[nH+]n(C)cc3C[C@H]2C1 (chirality)
CN1CCC[C@H]1C(=O)N1CCCN2Cc3[nH+]n(C)cc3C[C@H]2C1 (3D coordinates assigned)
CN1CCC[C@H]1C(=O)N1CCCN2Cc3[nH+]n(C)cc3C[C@H]2C1 (nonaromatic ring conformer: 104.85971763732611 kcal/mol)

>  <smiles>  (19) 
CN1CCCC1C(=O)N1CCCN2Cc3nn(C)cc3CC2C1

>  <score_type>  (19) 
oracle

>  <origin>  (19) 
adg

>  <m_score__min__energy>  (19) 
-5.1600000000000001

>  <m_primary>  (19) 
energy

$$$$
19:0
     RDKit          3D

 40 42  0  0  0  0  0  0  0  0999 V2000
   58.1150   27.3560   43.0590 C   0  0  0  0  0  0  0  0  0  0  0  0
   58.5160   27.7530   44.4230 C   0  0  0  0  0  0  0  0  0  0  0  0
   59.6210   28.5510   44.5780 C   0  0  0  0  0  0  0  0  0  0  0  0
   60.0140   28.9310   45.8530 C   0  0  0  0  0  0  0  0  0  0  0  0
   59.3540   28.5550   46.9900 C   0  0  0  0  0  0  0  0  0  0  0  0
   59.7650   28.9530   48.3630 C   0  0  0  0  0  0  0  0  0  0  0  0
   59.8050   30.3700   48.4870 N   0  0  0  0  0  0  0  0  0  0  0  0
   58.9060   30.9370   49.4670 C   0  0  0  0  0  0  0  0  0  0  0  0
   59.0830   32.4330   49.4410 C   0  0  0  0  0  0  0  0  0  0  0  0
   59.8550   32.8150   48.3660 O   0  0  0  0  0  0  0  0  0  0  0  0
   59.5770   33.5110   47.2450 C   0  0  0  0  0  0  0  0  0  0  0  0
   60.0050   34.7610   46.8870 C   0  0  0  0  0  0  0  0  0  0  0  0
   59.6470   35.3770   45.6870 C   0  0  0  0  0  0  0  0  0  0  0  0
   58.8560   34.7200   44.8510 N   0  0  0  0  0  0  0  0  0  0  0  0
   58.3880   33.4820   45.1220 C   0  0  0  0  0  0  0  0  0  0  0  0
   57.5870   32.6090   44.4620 N   0  0  0  0  0  0  0  0  0  0  0  0
   57.4280   31.4870   45.1850 C   0  0  0  0  0  0  0  0  0  0  0  0
   56.7480   30.4740   44.8680 O   0  0  0  0  0  0  0  0  0  0  0  0
   58.1370   31.6570   46.3130 N   0  0  0  0  0  0  0  0  0  0  0  0
   58.7390   32.8740   46.3060 C   0  0  0  0  0  0  0  0  0  0  0  0
   58.2280   27.7400   46.8050 C   0  0  0  0  0  0  0  0  0  0  0  0
   57.8210   27.3500   45.5410 C   0  0  0  0  0  0  0  0  0  0  0  0
   57.3344   26.5832   43.1166 H   0  0  0  0  0  0  0  0  0  0  0  0
   57.7240   28.2328   42.5220 H   0  0  0  0  0  0  0  0  0  0  0  0
   58.9878   26.9562   42.5220 H   0  0  0  0  0  0  0  0  0  0  0  0
   60.1905   28.8867   43.6988 H   0  0  0  0  0  0  0  0  0  0  0  0
   60.9043   29.5690   45.9548 H   0  0  0  0  0  0  0  0  0  0  0  0
   59.0432   28.5477   49.0874 H   0  0  0  0  0  0  0  0  0  0  0  0
   60.7705   28.5530   48.5602 H   0  0  0  0  0  0  0  0  0  0  0  0
   59.8080   30.8440   47.5810 H   0  0  0  0  0  0  0  0  0  0  0  0
   57.8668   30.6785   49.2157 H   0  0  0  0  0  0  0  0  0  0  0  0
   59.1288   30.5404   50.4686 H   0  0  0  0  0  0  0  0  0  0  0  0
   58.0956   32.9118   49.3644 H   0  0  0  0  0  0  0  0  0  0  0  0
   59.5885   32.7447   50.3669 H   0  0  0  0  0  0  0  0  0  0  0  0
   60.6633   35.3066   47.5790 H   0  0  0  0  0  0  0  0  0  0  0  0
   60.0130   36.3847   45.4407 H   0  0  0  0  0  0  0  0  0  0  0  0
   57.1860   32.8370   43.5320 H   0  0  0  0  0  0  0  0  0  0  0  0
   58.2150   30.9460   47.0940 H   0  0  0  0  0  0  0  0  0  0  0  0
   57.6564   27.4037   47.6826 H   0  0  0  0  0  0  0  0  0  0  0  0
   56.9326   26.7111   45.4284 H   0  0  0  0  0  0  0  0  0  0  0  0
  1  2  1  0
  2  3  2  0
  3  4  1  0
  4  5  2  0
  5  6  1  0
  6  7  1  0
  7  8  1  0
  8  9  1  0
  9 10  1  0
 10 11  1  0
 11 12  2  0
 12 13  1  0
 13 14  2  0
 14 15  1  0
 15 16  1  0
 16 17  1  0
 17 18  2  0
 17 19  1  0
 19 20  1  0
  5 21  1  0
 21 22  2  0
 22  2  1  0
 20 11  1  0
 20 15  2  0
  1 23  1  0
  1 24  1  0
  1 25  1  0
  3 26  1  0
  4 27  1  0
  6 28  1  0
  6 29  1  0
  7 30  1  0
  8 31  1  0
  8 32  1  0
  9 33  1  0
  9 34  1  0
 12 35  1  0
 13 36  1  0
 16 37  1  0
 19 38  1  0
 21 39  1  0
 22 40  1  0
M  END
>  <smiles>  (20) 
Cc1ccc(CNCCOc2ccnc3[nH]c(=O)[nH]c23)cc1

>  <score_type>  (20) 
oracle

>  <origin>  (20) 
adg

>  <m_score__min__energy>  (20) 
-7.9299999999999997

>  <m_primary>  (20) 
energy

$$$$
20:0
     RDKit          3D

 61 63  0  0  0  0  0  0  0  0999 V2000
   65.2210   31.8050   50.4880 C   0  0  0  0  0  0  0  0  0  0  0  0
   64.8820   33.0220   49.6180 C   0  0  0  0  0  0  0  0  0  0  0  0
   64.0130   32.6800   48.4620 N   0  0  0  0  0  0  0  0  0  0  0  0
   63.3750   33.9020   47.8970 C   0  0  0  0  0  0  0  0  0  0  0  0
   63.3160   33.8710   46.3650 C   0  0  0  0  0  0  0  0  0  0  0  0
   63.0250   31.5950   48.7380 C   0  0  0  0  0  0  0  0  0  0  0  0
   61.5770   32.0300   49.0710 C   0  0  0  0  0  0  0  0  0  0  0  0
   60.5670   30.8780   49.1170 C   0  0  0  0  0  0  0  0  0  0  0  0
   59.2510   31.3240   48.6670 N   0  0  0  0  0  0  0  0  0  0  0  0
   58.9760   31.4600   47.2650 C   0  0  0  0  0  0  0  0  0  0  0  0
   59.0490   32.7200   46.6530 C   0  0  0  0  0  0  0  0  0  0  0  0
   59.4430   33.8560   47.3910 C   0  0  0  0  0  0  0  0  0  0  0  0
   59.5620   35.0980   46.7710 C   0  0  0  0  0  0  0  0  0  0  0  0
   59.3020   35.2240   45.4110 C   0  0  0  0  0  0  0  0  0  0  0  0
   58.8960   34.1160   44.6660 C   0  0  0  0  0  0  0  0  0  0  0  0
   58.7270   32.8470   45.2770 C   0  0  0  0  0  0  0  0  0  0  0  0
   58.2750   31.7500   44.5660 N   0  0  0  0  0  0  0  0  0  0  0  0
   57.6600   31.9350   43.2330 C   0  0  0  0  0  0  0  0  0  0  0  0
   58.3710   30.4830   45.1150 C   0  0  0  0  0  0  0  0  0  0  0  0
   58.1780   29.3150   44.3350 C   0  0  0  0  0  0  0  0  0  0  0  0
   58.2240   28.0280   44.9030 C   0  0  0  0  0  0  0  0  0  0  0  0
   58.0050   26.8490   44.0890 N   0  0  0  0  0  0  0  0  0  0  0  0
   57.6790   25.5610   44.7140 C   0  0  0  0  0  0  0  0  0  0  0  0
   58.1170   26.9210   42.6280 C   0  0  0  0  0  0  0  0  0  0  0  0
   58.4970   27.9090   46.2740 C   0  0  0  0  0  0  0  0  0  0  0  0
   58.7370   29.0380   47.0510 C   0  0  0  0  0  0  0  0  0  0  0  0
   58.6900   30.3270   46.4880 C   0  0  0  0  0  0  0  0  0  0  0  0
   65.1442   32.0807   51.5501 H   0  0  0  0  0  0  0  0  0  0  0  0
   64.5157   30.9898   50.2689 H   0  0  0  0  0  0  0  0  0  0  0  0
   66.2462   31.4718   50.2689 H   0  0  0  0  0  0  0  0  0  0  0  0
   64.3622   33.7651   50.2406 H   0  0  0  0  0  0  0  0  0  0  0  0
   65.8275   33.4154   49.2163 H   0  0  0  0  0  0  0  0  0  0  0  0
   64.6420   32.2870   47.7210 H   0  0  0  0  0  0  0  0  0  0  0  0
   62.3502   33.9798   48.2892 H   0  0  0  0  0  0  0  0  0  0  0  0
   63.9848   34.7682   48.1933 H   0  0  0  0  0  0  0  0  0  0  0  0
   62.3847   33.3816   46.0438 H   0  0  0  0  0  0  0  0  0  0  0  0
   63.3427   34.8996   45.9761 H   0  0  0  0  0  0  0  0  0  0  0  0
   64.1783   33.3095   45.9761 H   0  0  0  0  0  0  0  0  0  0  0  0
   62.9814   30.9516   47.8469 H   0  0  0  0  0  0  0  0  0  0  0  0
   63.3913   31.1008   49.6499 H   0  0  0  0  0  0  0  0  0  0  0  0
   61.5828   32.5225   50.0546 H   0  0  0  0  0  0  0  0  0  0  0  0
   61.2547   32.6992   48.2596 H   0  0  0  0  0  0  0  0  0  0  0  0
   60.9160   30.0660   48.4622 H   0  0  0  0  0  0  0  0  0  0  0  0
   60.4834   30.5235   50.1550 H   0  0  0  0  0  0  0  0  0  0  0  0
   58.4770   31.5080   49.3470 H   0  0  0  0  0  0  0  0  0  0  0  0
   59.6582   33.7603   48.4655 H   0  0  0  0  0  0  0  0  0  0  0  0
   59.8617   35.9790   47.3575 H   0  0  0  0  0  0  0  0  0  0  0  0
   59.4168   36.2016   44.9200 H   0  0  0  0  0  0  0  0  0  0  0  0
   58.7041   34.2284   43.5887 H   0  0  0  0  0  0  0  0  0  0  0  0
   56.6129   32.2500   43.3528 H   0  0  0  0  0  0  0  0  0  0  0  0
   58.2137   32.7063   42.6776 H   0  0  0  0  0  0  0  0  0  0  0  0
   57.6962   30.9862   42.6776 H   0  0  0  0  0  0  0  0  0  0  0  0
   57.9871   29.4173   43.2565 H   0  0  0  0  0  0  0  0  0  0  0  0
   57.7059   25.6673   45.8085 H   0  0  0  0  0  0  0  0  0  0  0  0
   56.6727   25.2457   44.4009 H   0  0  0  0  0  0  0  0  0  0  0  0
   58.4141   24.8050   44.4009 H   0  0  0  0  0  0  0  0  0  0  0  0
   59.0138   27.4975   42.3570 H   0  0  0  0  0  0  0  0  0  0  0  0
   58.1963   25.9042   42.2158 H   0  0  0  0  0  0  0  0  0  0  0  0
   57.2249   27.4153   42.2158 H   0  0  0  0  0  0  0  0  0  0  0  0
   58.5216   26.9127   46.7395 H   0  0  0  0  0  0  0  0  0  0  0  0
   58.9667   28.9214   48.1204 H   0  0  0  0  0  0  0  0  0  0  0  0
  1  2  1  0
  2  3  1  0
  3  4  1  0
  4  5  1  0
  3  6  1  0
  6  7  1  0
  7  8  1  0
  8  9  1  0
  9 10  1  0
 10 11  2  0
 11 12  1  0
 12 13  2  0
 13 14  1  0
 14 15  2  0
 15 16  1  0
 16 17  2  0
 17 18  1  0
 17 19  1  0
 19 20  2  0
 20 21  1  0
 21 22  1  0
 22 23  1  0
 22 24  1  0
 21 25  2  0
 25 26  1  0
 26 27  2  0
 27 10  1  0
 16 11  1  0
 27 19  1  0
  1 28  1  0
  1 29  1  0
  1 30  1  0
  2 31  1  0
  2 32  1  0
  3 33  1  0
  4 34  1  0
  4 35  1  0
  5 36  1  0
  5 37  1  0
  5 38  1  0
  6 39  1  0
  6 40  1  0
  7 41  1  0
  7 42  1  0
  8 43  1  0
  8 44  1  0
  9 45  1  0
 12 46  1  0
 13 47  1  0
 14 48  1  0
 15 49  1  0
 18 50  1  0
 18 51  1  0
 18 52  1  0
 20 53  1  0
 23 54  1  0
 23 55  1  0
 23 56  1  0
 24 57  1  0
 24 58  1  0
 24 59  1  0
 25 60  1  0
 26 61  1  0
M  CHG  2   3   1  17   1
M  END
>  <UniqueID>  (21) 
19

>  <SMILES>  (21) 
CC[NH+](CC)CCCNc1c2ccccc2[n+](C)c2cc(N(C)C)ccc12

>  <Energy>  (21) 
93.23906572999506

>  <Genealogy>  (21) 
CC[NH+](CC)CCCNc1c2ccccc2[n+](C)c2cc(N(C)C)ccc12 (protonated)
CC[NH+](CC)CCCNc1c2ccccc2[n+](C)c2cc(N(C)C)ccc12 (3D coordinates assigned)
CC[NH+](CC)CCCNc1c2ccccc2[n+](C)c2cc(N(C)C)ccc12 (optimized conformer: 93.23906572999506 kcal/mol)

>  <smiles>  (21) 
CCN(CC)CCCNc1c2ccccc2[n+](C)c2cc(N(C)C)ccc12

>  <score_type>  (21) 
oracle

>  <origin>  (21) 
adg

>  <m_score__min__energy>  (21) 
-5.0099999999999998

>  <m_primary>  (21) 
energy

$$$$
21:0
     RDKit          3D

 60 62  0  0  0  0  0  0  0  0999 V2000
   58.4870   34.5740   44.9680 C   0  0  0  0  0  0  0  0  0  0  0  0
   57.4330   33.8760   45.8350 C   0  0  0  0  0  0  0  0  0  0  0  0
   57.6100   32.4000   45.8930 N   0  0  0  0  0  0  0  0  0  0  0  0
   58.4050   31.9470   47.0680 C   0  0  0  0  0  0  0  0  0  0  0  0
   58.8090   33.0680   48.0360 C   0  0  0  0  0  0  0  0  0  0  0  0
   58.1910   31.8800   44.6260 C   0  0  0  0  0  0  0  0  0  0  0  0
   57.1480   31.1770   43.7340 C   0  0  0  0  0  0  0  0  0  0  0  0
   55.9240   31.0300   44.4300 O   0  0  0  0  0  0  0  0  0  0  0  0
   55.5370   29.6720   44.4800 C   0  0  0  0  0  0  0  0  0  0  0  0
   56.6990   28.8370   45.0110 C   0  0  0  0  0  0  0  0  0  0  0  0
   56.2200   27.7310   45.7790 O   0  0  0  0  0  0  0  0  0  0  0  0
   56.8440   26.4770   45.7750 C   0  0  0  0  0  0  0  0  0  0  0  0
   58.2460   26.3330   45.8740 C   0  0  0  0  0  0  0  0  0  0  0  0
   59.1470   27.4840   46.0980 C   0  0  0  0  0  0  0  0  0  0  0  0
   59.8270   28.0940   45.0300 C   0  0  0  0  0  0  0  0  0  0  0  0
   60.6750   29.1810   45.2610 C   0  0  0  0  0  0  0  0  0  0  0  0
   60.8450   29.6870   46.5550 C   0  0  0  0  0  0  0  0  0  0  0  0
   61.7170   30.7710   46.7380 O   0  0  0  0  0  0  0  0  0  0  0  0
   62.0230   31.3510   48.0010 C   0  0  0  0  0  0  0  0  0  0  0  0
   60.1410   29.0970   47.6210 C   0  0  0  0  0  0  0  0  0  0  0  0
   59.2940   28.0100   47.3900 C   0  0  0  0  0  0  0  0  0  0  0  0
   58.7950   25.1230   45.7740 O   0  0  0  0  0  0  0  0  0  0  0  0
   58.0830   24.0120   45.6190 C   0  0  0  0  0  0  0  0  0  0  0  0
   58.7370   22.7790   45.5210 C   0  0  0  0  0  0  0  0  0  0  0  0
   57.9970   21.6020   45.3710 C   0  0  0  0  0  0  0  0  0  0  0  0
   56.6010   21.6520   45.3150 C   0  0  0  0  0  0  0  0  0  0  0  0
   55.9380   22.8800   45.4090 C   0  0  0  0  0  0  0  0  0  0  0  0
   56.6740   24.0700   45.5620 C   0  0  0  0  0  0  0  0  0  0  0  0
   56.0560   25.3270   45.6470 C   0  0  0  0  0  0  0  0  0  0  0  0
   54.8000   25.4330   45.5910 O   0  0  0  0  0  0  0  0  0  0  0  0
   59.2282   35.0648   45.6159 H   0  0  0  0  0  0  0  0  0  0  0  0
   58.9905   33.8302   44.3330 H   0  0  0  0  0  0  0  0  0  0  0  0
   57.9987   35.3279   44.3330 H   0  0  0  0  0  0  0  0  0  0  0  0
   57.4990   34.2770   46.8572 H   0  0  0  0  0  0  0  0  0  0  0  0
   56.4512   34.0711   45.3788 H   0  0  0  0  0  0  0  0  0  0  0  0
   56.6600   31.9720   46.0080 H   0  0  0  0  0  0  0  0  0  0  0  0
   57.8057   31.2119   47.6251 H   0  0  0  0  0  0  0  0  0  0  0  0
   59.3402   31.5272   46.6689 H   0  0  0  0  0  0  0  0  0  0  0  0
   58.6838   32.7205   49.0721 H   0  0  0  0  0  0  0  0  0  0  0  0
   59.8613   33.3388   47.8647 H   0  0  0  0  0  0  0  0  0  0  0  0
   58.1714   33.9478   47.8647 H   0  0  0  0  0  0  0  0  0  0  0  0
   58.6221   32.7225   44.0653 H   0  0  0  0  0  0  0  0  0  0  0  0
   58.9542   31.1343   44.8934 H   0  0  0  0  0  0  0  0  0  0  0  0
   56.9804   31.7789   42.8287 H   0  0  0  0  0  0  0  0  0  0  0  0
   57.5253   30.1807   43.4603 H   0  0  0  0  0  0  0  0  0  0  0  0
   54.6695   29.5612   45.1472 H   0  0  0  0  0  0  0  0  0  0  0  0
   55.2662   29.3280   43.4709 H   0  0  0  0  0  0  0  0  0  0  0  0
   57.2884   28.4587   44.1628 H   0  0  0  0  0  0  0  0  0  0  0  0
   57.3225   29.4717   45.6579 H   0  0  0  0  0  0  0  0  0  0  0  0
   59.6912   27.7140   44.0067 H   0  0  0  0  0  0  0  0  0  0  0  0
   61.2128   29.6422   44.4195 H   0  0  0  0  0  0  0  0  0  0  0  0
   61.6723   30.6864   48.8043 H   0  0  0  0  0  0  0  0  0  0  0  0
   63.1110   31.4884   48.0875 H   0  0  0  0  0  0  0  0  0  0  0  0
   61.5222   32.3266   48.0875 H   0  0  0  0  0  0  0  0  0  0  0  0
   60.2580   29.4932   48.6405 H   0  0  0  0  0  0  0  0  0  0  0  0
   58.7383   27.5634   48.2277 H   0  0  0  0  0  0  0  0  0  0  0  0
   59.8354   22.7354   45.5620 H   0  0  0  0  0  0  0  0  0  0  0  0
   58.5147   20.6343   45.2969 H   0  0  0  0  0  0  0  0  0  0  0  0
   56.0228   20.7237   45.1968 H   0  0  0  0  0  0  0  0  0  0  0  0
   54.8395   22.9158   45.3633 H   0  0  0  0  0  0  0  0  0  0  0  0
  1  2  1  0
  2  3  1  0
  3  4  1  0
  4  5  1  0
  3  6  1  0
  6  7  1  0
  7  8  1  0
  8  9  1  0
  9 10  1  0
 10 11  1  0
 11 12  1  0
 12 13  2  0
 13 14  1  0
 14 15  2  0
 15 16  1  0
 16 17  2  0
 17 18  1  0
 18 19  1  0
 17 20  1  0
 20 21  2  0
 13 22  1  0
 22 23  1  0
 23 24  2  0
 24 25  1  0
 25 26  2  0
 26 27  1  0
 27 28  2  0
 28 29  1  0
 29 30  2  0
 29 12  1  0
 21 14  1  0
 28 23  1  0
  1 31  1  0
  1 32  1  0
  1 33  1  0
  2 34  1  0
  2 35  1  0
  3 36  1  0
  4 37  1  0
  4 38  1  0
  5 39  1  0
  5 40  1  0
  5 41  1  0
  6 42  1  0
  6 43  1  0
  7 44  1  0
  7 45  1  0
  9 46  1  0
  9 47  1  0
 10 48  1  0
 10 49  1  0
 15 50  1  0
 16 51  1  0
 19 52  1  0
 19 53  1  0
 19 54  1  0
 20 55  1  0
 21 56  1  0
 24 57  1  0
 25 58  1  0
 26 59  1  0
 27 60  1  0
M  CHG  1   3   1
M  END
>  <UniqueID>  (22) 
20

>  <SMILES>  (22) 
CC[NH+](CC)CCOCCOc1c(-c2ccc(OC)cc2)oc2ccccc2c1=O

>  <Energy>  (22) 
78.52342204276881

>  <Genealogy>  (22) 
CC[NH+](CC)CCOCCOc1c(-c2ccc(OC)cc2)oc2ccccc2c1=O (protonated)
CC[NH+](CC)CCOCCOc1c(-c2ccc(OC)cc2)oc2ccccc2c1=O (3D coordinates assigned)
CC[NH+](CC)CCOCCOc1c(-c2ccc(OC)cc2)oc2ccccc2c1=O (optimized conformer: 78.52342204276881 kcal/mol)

>  <smiles>  (22) 
CCN(CC)CCOCCOc1c(-c2ccc(OC)cc2)oc2ccccc2c1=O

>  <score_type>  (22) 
oracle

>  <origin>  (22) 
adg

>  <m_score__min__energy>  (22) 
-5.4500000000000002

>  <m_primary>  (22) 
energy

$$$$
22:0
     RDKit          3D

 60 62  0  0  0  0  0  0  0  0999 V2000
   65.0300   33.3740   50.4870 C   0  0  0  0  0  0  0  0  0  0  0  0
   64.6690   32.3800   49.3760 C   0  0  0  0  0  0  0  0  0  0  0  0
   63.3670   32.6970   48.7250 N   0  0  0  0  0  0  0  0  0  0  0  0
   63.4670   32.5220   47.2490 C   0  0  0  0  0  0  0  0  0  0  0  0
   63.3120   33.8470   46.4910 C   0  0  0  0  0  0  0  0  0  0  0  0
   62.9530   34.0890   49.0550 C   0  0  0  0  0  0  0  0  0  0  0  0
   61.6240   34.1430   49.8280 C   0  0  0  0  0  0  0  0  0  0  0  0
   61.0640   32.8450   49.8930 O   0  0  0  0  0  0  0  0  0  0  0  0
   59.9930   32.7990   50.8230 C   0  0  0  0  0  0  0  0  0  0  0  0
   58.6860   32.3130   50.1740 C   0  0  0  0  0  0  0  0  0  0  0  0
   58.8680   30.9870   49.4200 C   0  0  0  0  0  0  0  0  0  0  0  0
   59.7530   31.1690   48.2670 N   0  0  0  0  0  0  0  0  0  0  0  0
   59.2630   31.4070   46.9340 C   0  0  0  0  0  0  0  0  0  0  0  0
   59.2890   32.7030   46.3720 C   0  0  0  0  0  0  0  0  0  0  0  0
   59.7920   33.8040   47.1060 C   0  0  0  0  0  0  0  0  0  0  0  0
   59.7980   35.0850   46.5610 C   0  0  0  0  0  0  0  0  0  0  0  0
   59.2820   35.3060   45.2920 C   0  0  0  0  0  0  0  0  0  0  0  0
   58.7570   34.2440   44.5550 C   0  0  0  0  0  0  0  0  0  0  0  0
   58.7670   32.9150   45.0640 C   0  0  0  0  0  0  0  0  0  0  0  0
   58.2550   31.8520   44.3370 N   0  0  0  0  0  0  0  0  0  0  0  0
   57.9210   32.0230   42.9040 C   0  0  0  0  0  0  0  0  0  0  0  0
   58.0660   30.6220   44.9470 C   0  0  0  0  0  0  0  0  0  0  0  0
   57.3170   29.5850   44.3270 C   0  0  0  0  0  0  0  0  0  0  0  0
   57.2080   28.3230   44.9120 C   0  0  0  0  0  0  0  0  0  0  0  0
   57.8250   28.0610   46.1290 C   0  0  0  0  0  0  0  0  0  0  0  0
   58.5230   29.0700   46.7880 C   0  0  0  0  0  0  0  0  0  0  0  0
   58.6180   30.3670   46.2320 C   0  0  0  0  0  0  0  0  0  0  0  0
   64.8599   32.9055   51.4676 H   0  0  0  0  0  0  0  0  0  0  0  0
   66.0887   33.6581   50.3951 H   0  0  0  0  0  0  0  0  0  0  0  0
   64.4003   34.2712   50.3951 H   0  0  0  0  0  0  0  0  0  0  0  0
   65.4599   32.4031   48.6118 H   0  0  0  0  0  0  0  0  0  0  0  0
   64.5782   31.3848   49.8357 H   0  0  0  0  0  0  0  0  0  0  0  0
   62.6390   32.0340   49.0890 H   0  0  0  0  0  0  0  0  0  0  0  0
   64.4506   32.0914   47.0102 H   0  0  0  0  0  0  0  0  0  0  0  0
   62.6489   31.8577   46.9339 H   0  0  0  0  0  0  0  0  0  0  0  0
   63.2154   34.6725   47.2116 H   0  0  0  0  0  0  0  0  0  0  0  0
   64.1968   34.0136   45.8590 H   0  0  0  0  0  0  0  0  0  0  0  0
   62.4127   33.8048   45.8590 H   0  0  0  0  0  0  0  0  0  0  0  0
   63.7376   34.5535   49.6703 H   0  0  0  0  0  0  0  0  0  0  0  0
   62.8092   34.6277   48.1068 H   0  0  0  0  0  0  0  0  0  0  0  0
   61.8071   34.5150   50.8469 H   0  0  0  0  0  0  0  0  0  0  0  0
   60.9261   34.8184   49.3115 H   0  0  0  0  0  0  0  0  0  0  0  0
   60.2609   32.1120   51.6393 H   0  0  0  0  0  0  0  0  0  0  0  0
   59.8263   33.8190   51.1995 H   0  0  0  0  0  0  0  0  0  0  0  0
   57.9312   32.1715   50.9615 H   0  0  0  0  0  0  0  0  0  0  0  0
   58.3685   33.0737   49.4456 H   0  0  0  0  0  0  0  0  0  0  0  0
   59.3074   30.2418   50.0994 H   0  0  0  0  0  0  0  0  0  0  0  0
   57.8858   30.6431   49.0635 H   0  0  0  0  0  0  0  0  0  0  0  0
   60.7840   31.2430   48.4390 H   0  0  0  0  0  0  0  0  0  0  0  0
   60.1837   33.6451   48.1215 H   0  0  0  0  0  0  0  0  0  0  0  0
   60.2130   35.9245   47.1381 H   0  0  0  0  0  0  0  0  0  0  0  0
   59.2869   36.3203   44.8663 H   0  0  0  0  0  0  0  0  0  0  0  0
   58.3270   34.4377   43.5612 H   0  0  0  0  0  0  0  0  0  0  0  0
   56.9453   32.5225   42.8120 H   0  0  0  0  0  0  0  0  0  0  0  0
   58.6941   32.6362   42.4179 H   0  0  0  0  0  0  0  0  0  0  0  0
   57.8755   31.0373   42.4179 H   0  0  0  0  0  0  0  0  0  0  0  0
   56.8142   29.7811   43.3685 H   0  0  0  0  0  0  0  0  0  0  0  0
   56.6318   27.5330   44.4081 H   0  0  0  0  0  0  0  0  0  0  0  0
   57.7621   27.0562   46.5722 H   0  0  0  0  0  0  0  0  0  0  0  0
   59.0063   28.8556   47.7526 H   0  0  0  0  0  0  0  0  0  0  0  0
  1  2  1  0
  2  3  1  0
  3  4  1  0
  4  5  1  0
  3  6  1  0
  6  7  1  0
  7  8  1  0
  8  9  1  0
  9 10  1  0
 10 11  1  0
 11 12  1  0
 12 13  1  0
 13 14  2  0
 14 15  1  0
 15 16  2  0
 16 17  1  0
 17 18  2  0
 18 19  1  0
 19 20  2  0
 20 21  1  0
 20 22  1  0
 22 23  2  0
 23 24  1  0
 24 25  2  0
 25 26  1  0
 26 27  2  0
 27 13  1  0
 19 14  1  0
 27 22  1  0
  1 28  1  0
  1 29  1  0
  1 30  1  0
  2 31  1  0
  2 32  1  0
  3 33  1  0
  4 34  1  0
  4 35  1  0
  5 36  1  0
  5 37  1  0
  5 38  1  0
  6 39  1  0
  6 40  1  0
  7 41  1  0
  7 42  1  0
  9 43  1  0
  9 44  1  0
 10 45  1  0
 10 46  1  0
 11 47  1  0
 11 48  1  0
 12 49  1  0
 15 50  1  0
 16 51  1  0
 17 52  1  0
 18 53  1  0
 21 54  1  0
 21 55  1  0
 21 56  1  0
 23 57  1  0
 24 58  1  0
 25 59  1  0
 26 60  1  0
M  CHG  2   3   1  20   1
M  END
>  <UniqueID>  (23) 
21

>  <SMILES>  (23) 
CC[NH+](CC)CCOCCCNc1c2ccccc2[n+](C)c2ccccc12

>  <Energy>  (23) 
88.21551365960357

>  <Genealogy>  (23) 
CC[NH+](CC)CCOCCCNc1c2ccccc2[n+](C)c2ccccc12 (protonated)
CC[NH+](CC)CCOCCCNc1c2ccccc2[n+](C)c2ccccc12 (3D coordinates assigned)
CC[NH+](CC)CCOCCCNc1c2ccccc2[n+](C)c2ccccc12 (optimized conformer: 88.21551365960357 kcal/mol)

>  <smiles>  (23) 
CCN(CC)CCOCCCNc1c2ccccc2[n+](C)c2ccccc12

>  <score_type>  (23) 
oracle

>  <origin>  (23) 
adg

>  <m_score__min__energy>  (23) 
-3.8500000000000001

>  <m_primary>  (23) 
energy

$$$$
23:0
     RDKit          3D

 55 57  0  0  0  0  0  0  0  0999 V2000
   57.2319   34.8189   45.9392 H   0  0  0  0  0  0  0  0  0  0  0  0
   57.9530   34.0520   45.6200 C   0  0  0  0  0  0  0  0  0  0  0  0
   57.7330   33.4800   44.4240 C   0  0  0  0  0  0  0  0  0  0  0  0
   57.5556   34.1541   43.5731 H   0  0  0  0  0  0  0  0  0  0  0  0
   57.7070   32.0030   44.1420 C   0  0  0  0  0  0  0  0  0  0  0  0
   57.2873   31.8346   43.1393 H   0  0  0  0  0  0  0  0  0  0  0  0
   58.7350   31.6153   44.1967 H   0  0  0  0  0  0  0  0  0  0  0  0
   56.8860   31.2990   45.1310 N   0  0  0  0  0  0  0  0  0  0  0  0
   56.2260   31.9740   45.5930 H   0  0  0  0  0  0  0  0  0  0  0  0
   56.2660   30.2310   44.5300 O   0  0  0  0  0  0  0  0  0  0  0  0
   56.7270   29.0200   45.1000 C   0  0  0  0  0  0  0  0  0  0  0  0
   56.7878   29.1277   46.1930 H   0  0  0  0  0  0  0  0  0  0  0  0
   56.0292   28.2064   44.8530 H   0  0  0  0  0  0  0  0  0  0  0  0
   58.1110   28.6960   44.5410 C   0  0  0  0  0  0  0  0  0  0  0  0
   58.0168   27.9253   43.7618 H   0  0  0  0  0  0  0  0  0  0  0  0
   58.5486   29.6105   44.1140 H   0  0  0  0  0  0  0  0  0  0  0  0
   58.9940   28.1960   45.6190 N   0  0  0  0  0  0  0  0  0  0  0  0
   60.4310   28.4630   45.3520 C   0  0  0  0  0  0  0  0  0  0  0  0
   61.0221   27.6231   45.7460 H   0  0  0  0  0  0  0  0  0  0  0  0
   60.5469   28.5741   44.2638 H   0  0  0  0  0  0  0  0  0  0  0  0
   60.9360   29.7660   46.0030 C   0  0  0  0  0  0  0  0  0  0  0  0
   61.3580   29.5367   46.9926 H   0  0  0  0  0  0  0  0  0  0  0  0
   61.7068   30.2118   45.3571 H   0  0  0  0  0  0  0  0  0  0  0  0
   59.8360   30.7200   46.1570 N   0  0  0  0  0  0  0  0  0  0  0  0
   60.2260   31.6120   46.5430 H   0  0  0  0  0  0  0  0  0  0  0  0
   58.8260   30.2130   47.0990 C   0  0  0  0  0  0  0  0  0  0  0  0
   59.1649   30.4196   48.1249 H   0  0  0  0  0  0  0  0  0  0  0  0
   57.8762   30.7218   46.8774 H   0  0  0  0  0  0  0  0  0  0  0  0
   58.5910   28.6930   46.9510 C   0  0  0  0  0  0  0  0  0  0  0  0
   59.1777   28.1669   47.7185 H   0  0  0  0  0  0  0  0  0  0  0  0
   57.5143   28.5030   47.0723 H   0  0  0  0  0  0  0  0  0  0  0  0
   59.0680   33.7570   46.5560 C   0  0  0  0  0  0  0  0  0  0  0  0
   60.3660   33.7980   46.1530 N   0  0  0  0  0  0  0  0  0  0  0  0
   61.4000   33.5260   46.9910 C   0  0  0  0  0  0  0  0  0  0  0  0
   62.7140   33.5860   46.5160 C   0  0  0  0  0  0  0  0  0  0  0  0
   62.9078   33.8585   45.4680 H   0  0  0  0  0  0  0  0  0  0  0  0
   63.7810   33.3000   47.3720 C   0  0  0  0  0  0  0  0  0  0  0  0
   64.8135   33.3479   46.9955 H   0  0  0  0  0  0  0  0  0  0  0  0
   63.5410   32.9530   48.7060 C   0  0  0  0  0  0  0  0  0  0  0  0
   64.8860   32.5920   49.7750 Cl  0  0  0  0  0  0  0  0  0  0  0  0
   62.2290   32.8930   49.1910 C   0  0  0  0  0  0  0  0  0  0  0  0
   62.0441   32.6209   50.2406 H   0  0  0  0  0  0  0  0  0  0  0  0
   61.1460   33.1800   48.3390 C   0  0  0  0  0  0  0  0  0  0  0  0
   59.8110   33.1310   48.7810 C   0  0  0  0  0  0  0  0  0  0  0  0
   59.4920   32.7840   50.1350 N   0  0  0  0  0  0  0  0  0  0  0  0
   59.6520   33.7790   51.1950 C   0  0  0  0  0  0  0  0  0  0  0  0
   59.5728   33.2864   52.1753 H   0  0  0  0  0  0  0  0  0  0  0  0
   60.6385   34.2569   51.1034 H   0  0  0  0  0  0  0  0  0  0  0  0
   58.8650   34.5421   51.1034 H   0  0  0  0  0  0  0  0  0  0  0  0
   59.2260   31.3840   50.4670 C   0  0  0  0  0  0  0  0  0  0  0  0
   59.2033   31.2644   51.5602 H   0  0  0  0  0  0  0  0  0  0  0  0
   58.2550   31.0852   50.0452 H   0  0  0  0  0  0  0  0  0  0  0  0
   60.0197   30.7499   50.0452 H   0  0  0  0  0  0  0  0  0  0  0  0
   58.7750   33.4200   47.8850 C   0  0  0  0  0  0  0  0  0  0  0  0
   57.7293   33.3826   48.2242 H   0  0  0  0  0  0  0  0  0  0  0  0
  1  2  1  0
  2  3  2  0
  3  4  1  0
  3  5  1  0
  5  6  1  0
  5  7  1  0
  5  8  1  0
  8  9  1  0
  8 10  1  0
 10 11  1  0
 11 12  1  0
 11 13  1  0
 11 14  1  0
 14 15  1  0
 14 16  1  0
 14 17  1  0
 17 18  1  0
 18 19  1  0
 18 20  1  0
 18 21  1  0
 21 22  1  0
 21 23  1  0
 21 24  1  0
 24 25  1  0
 24 26  1  0
 26 27  1  0
 26 28  1  0
 26 29  1  0
 29 30  1  0
 29 31  1  0
  2 32  1  0
 32 33  2  0
 33 34  1  0
 34 35  2  0
 35 36  1  0
 35 37  1  0
 37 38  1  0
 37 39  2  0
 39 40  1  0
 39 41  1  0
 41 42  1  0
 41 43  2  0
 43 44  1  0
 44 45  1  0
 45 46  1  0
 46 47  1  0
 46 48  1  0
 46 49  1  0
 45 50  1  0
 50 51  1  0
 50 52  1  0
 50 53  1  0
 44 54  2  0
 54 55  1  0
 29 17  1  0
 54 32  1  0
 43 34  1  0
M  END
>  <UniqueID>  (24) 
22

>  <SMILES>  (24) 
CN(C)c1cc(/C=C\CNOCCN2CCNCC2)nc2ccc(Cl)cc12

>  <Energy>  (24) 
76.78687766314256

>  <Genealogy>  (24) 
CN(C)c1cc(/C=C\CNOCCN2CCNCC2)nc2ccc(Cl)cc12 (cis-trans isomerization)
CN(C)c1cc(/C=C\CNOCCN2CCNCC2)nc2ccc(Cl)cc12 (3D coordinates assigned)
CN(C)c1cc(/C=C\CNOCCN2CCNCC2)nc2ccc(Cl)cc12 (nonaromatic ring conformer: 76.78687766314256 kcal/mol)

>  <smiles>  (24) 
CN(C)c1cc(C=CCNOCCN2CCNCC2)nc2ccc(Cl)cc12

>  <score_type>  (24) 
oracle

>  <origin>  (24) 
adg

>  <m_score__min__energy>  (24) 
-8.9100000000000001

>  <m_primary>  (24) 
energy

$$$$
24:0
     RDKit          3D

 50 52  0  0  0  0  0  0  0  0999 V2000
   63.3190   33.8510   46.4040 C   0  0  0  0  0  0  0  0  0  0  0  0
   63.4250   32.6700   47.3810 C   0  0  0  0  0  0  0  0  0  0  0  0
   62.2590   32.5270   48.2840 N   0  0  0  0  0  0  0  0  0  0  0  0
   61.9220   33.7980   48.9520 C   0  0  0  0  0  0  0  0  0  0  0  0
   62.4240   31.4180   49.2490 C   0  0  0  0  0  0  0  0  0  0  0  0
   61.0560   30.8630   49.6800 C   0  0  0  0  0  0  0  0  0  0  0  0
   60.4600   29.8800   48.6500 C   0  0  0  0  0  0  0  0  0  0  0  0
   60.9250   30.1060   47.2630 N   0  0  0  0  0  0  0  0  0  0  0  0
   59.8390   30.1450   46.2890 C   0  0  0  0  0  0  0  0  0  0  0  0
   59.3020   28.9320   45.7710 C   0  0  0  0  0  0  0  0  0  0  0  0
   59.8110   27.6640   46.1560 C   0  0  0  0  0  0  0  0  0  0  0  0
   59.2320   26.4830   45.7020 C   0  0  0  0  0  0  0  0  0  0  0  0
   58.1310   26.5270   44.8600 C   0  0  0  0  0  0  0  0  0  0  0  0
   57.6280   27.7530   44.4370 C   0  0  0  0  0  0  0  0  0  0  0  0
   58.2260   28.9750   44.8410 C   0  0  0  0  0  0  0  0  0  0  0  0
   57.7720   30.1830   44.3570 N   0  0  0  0  0  0  0  0  0  0  0  0
   56.8940   30.2170   43.1640 C   0  0  0  0  0  0  0  0  0  0  0  0
   58.1620   31.3630   44.9560 C   0  0  0  0  0  0  0  0  0  0  0  0
   57.4840   32.5770   44.6780 C   0  0  0  0  0  0  0  0  0  0  0  0
   57.9130   33.7850   45.2160 C   0  0  0  0  0  0  0  0  0  0  0  0
   59.0190   33.8190   46.0490 C   0  0  0  0  0  0  0  0  0  0  0  0
   59.5620   35.3490   46.7150 Cl  0  0  0  0  0  0  0  0  0  0  0  0
   59.6770   32.6370   46.3850 C   0  0  0  0  0  0  0  0  0  0  0  0
   59.2450   31.3800   45.8820 C   0  0  0  0  0  0  0  0  0  0  0  0
   63.2347   34.7897   46.9712 H   0  0  0  0  0  0  0  0  0  0  0  0
   64.2177   33.8847   45.7706 H   0  0  0  0  0  0  0  0  0  0  0  0
   62.4286   33.7241   45.7706 H   0  0  0  0  0  0  0  0  0  0  0  0
   63.5240   31.7444   46.7950 H   0  0  0  0  0  0  0  0  0  0  0  0
   64.2996   32.8633   48.0195 H   0  0  0  0  0  0  0  0  0  0  0  0
   61.9586   33.6599   50.0427 H   0  0  0  0  0  0  0  0  0  0  0  0
   62.6462   34.5712   48.6558 H   0  0  0  0  0  0  0  0  0  0  0  0
   60.9099   34.1108   48.6558 H   0  0  0  0  0  0  0  0  0  0  0  0
   63.0077   30.6134   48.7778 H   0  0  0  0  0  0  0  0  0  0  0  0
   62.9469   31.7988   50.1387 H   0  0  0  0  0  0  0  0  0  0  0  0
   61.1757   30.3379   50.6391 H   0  0  0  0  0  0  0  0  0  0  0  0
   60.3644   31.7141   49.7655 H   0  0  0  0  0  0  0  0  0  0  0  0
   60.7386   28.8578   48.9460 H   0  0  0  0  0  0  0  0  0  0  0  0
   59.3716   30.0394   48.6507 H   0  0  0  0  0  0  0  0  0  0  0  0
   61.5860   29.3410   47.0010 H   0  0  0  0  0  0  0  0  0  0  0  0
   61.5490   30.9360   47.2320 H   0  0  0  0  0  0  0  0  0  0  0  0
   60.6811   27.6140   46.8271 H   0  0  0  0  0  0  0  0  0  0  0  0
   59.6482   25.5130   46.0115 H   0  0  0  0  0  0  0  0  0  0  0  0
   57.6556   25.5927   44.5267 H   0  0  0  0  0  0  0  0  0  0  0  0
   56.7490   27.7758   43.7760 H   0  0  0  0  0  0  0  0  0  0  0  0
   55.8423   30.2577   43.4838 H   0  0  0  0  0  0  0  0  0  0  0  0
   57.1287   31.1067   42.5613 H   0  0  0  0  0  0  0  0  0  0  0  0
   57.0592   29.3118   42.5613 H   0  0  0  0  0  0  0  0  0  0  0  0
   56.6003   32.5626   44.0231 H   0  0  0  0  0  0  0  0  0  0  0  0
   57.3738   34.7143   44.9800 H   0  0  0  0  0  0  0  0  0  0  0  0
   60.5493   32.6781   47.0538 H   0  0  0  0  0  0  0  0  0  0  0  0
  1  2  1  0
  2  3  1  0
  3  4  1  0
  3  5  1  0
  5  6  1  0
  6  7  1  0
  7  8  1  0
  8  9  1  0
  9 10  2  0
 10 11  1  0
 11 12  2  0
 12 13  1  0
 13 14  2  0
 14 15  1  0
 15 16  2  0
 16 17  1  0
 16 18  1  0
 18 19  2  0
 19 20  1  0
 20 21  2  0
 21 22  1  0
 21 23  1  0
 23 24  2  0
 24  9  1  0
 15 10  1  0
 24 18  1  0
  1 25  1  0
  1 26  1  0
  1 27  1  0
  2 28  1  0
  2 29  1  0
  4 30  1  0
  4 31  1  0
  4 32  1  0
  5 33  1  0
  5 34  1  0
  6 35  1  0
  6 36  1  0
  7 37  1  0
  7 38  1  0
  8 39  1  0
  8 40  1  0
 11 41  1  0
 12 42  1  0
 13 43  1  0
 14 44  1  0
 17 45  1  0
 17 46  1  0
 17 47  1  0
 19 48  1  0
 20 49  1  0
 23 50  1  0
M  CHG  2   8   1  16   1
M  END
>  <UniqueID>  (25) 
23

>  <SMILES>  (25) 
CCN(C)CCC[NH2+]c1c2ccccc2[n+](C)c2ccc(Cl)cc12

>  <Energy>  (25) 
80.45280285523876

>  <Genealogy>  (25) 
CCN(C)CCC[NH2+]c1c2ccccc2[n+](C)c2ccc(Cl)cc12 (protonated)
CCN(C)CCC[NH2+]c1c2ccccc2[n+](C)c2ccc(Cl)cc12 (3D coordinates assigned)
CCN(C)CCC[NH2+]c1c2ccccc2[n+](C)c2ccc(Cl)cc12 (optimized conformer: 80.45280285523876 kcal/mol)

>  <smiles>  (25) 
CCN(C)CCCNc1c2ccccc2[n+](C)c2ccc(Cl)cc12

>  <score_type>  (25) 
oracle

>  <origin>  (25) 
adg

>  <m_score__min__energy>  (25) 
-4.1600000000000001

>  <m_primary>  (25) 
energy

$$$$
25:0
     RDKit          3D

 44 46  0  0  0  0  0  0  0  0999 V2000
   57.1460   32.3570   40.7330 C   0  0  0  0  0  0  0  0  0  0  0  0
   58.0640   32.4290   41.9480 C   0  0  0  0  0  0  0  0  0  0  0  0
   57.5990   31.5080   42.9970 N   0  0  0  0  0  0  0  0  0  0  0  0
   56.6380   30.4490   42.6520 C   0  0  0  0  0  0  0  0  0  0  0  0
   55.8210   30.0240   43.8710 C   0  0  0  0  0  0  0  0  0  0  0  0
   58.2800   31.4990   44.2690 C   0  0  0  0  0  0  0  0  0  0  0  0
   58.8060   30.3340   44.7560 N   0  0  0  0  0  0  0  0  0  0  0  0
   59.4690   30.2830   45.9540 C   0  0  0  0  0  0  0  0  0  0  0  0
   59.6380   31.4140   46.7000 N   0  0  0  0  0  0  0  0  0  0  0  0
   59.1400   32.5800   46.2180 C   0  0  0  0  0  0  0  0  0  0  0  0
   58.4660   32.6510   45.0370 C   0  0  0  0  0  0  0  0  0  0  0  0
   58.1490   33.9870   44.8850 C   0  0  0  0  0  0  0  0  0  0  0  0
   58.6200   34.6670   45.9590 N   0  0  0  0  0  0  0  0  0  0  0  0
   59.2310   33.8050   46.7670 N   0  0  0  0  0  0  0  0  0  0  0  0
   59.8820   34.1840   48.0210 C   0  0  0  0  0  0  0  0  0  0  0  0
   61.3570   33.8310   48.0020 C   0  0  0  0  0  0  0  0  0  0  0  0
   62.0280   33.8480   46.7650 C   0  0  0  0  0  0  0  0  0  0  0  0
   63.3930   33.5830   46.6900 C   0  0  0  0  0  0  0  0  0  0  0  0
   64.1140   33.2990   47.8440 C   0  0  0  0  0  0  0  0  0  0  0  0
   63.4750   33.2570   49.0860 C   0  0  0  0  0  0  0  0  0  0  0  0
   64.4710   32.9290   50.5040 Cl  0  0  0  0  0  0  0  0  0  0  0  0
   62.0800   33.4870   49.1790 C   0  0  0  0  0  0  0  0  0  0  0  0
   61.4040   33.4290   50.5290 C   0  0  0  0  0  0  0  0  0  0  0  0
   56.1012   32.2751   41.0672 H   0  0  0  0  0  0  0  0  0  0  0  0
   57.2670   33.2674   40.1276 H   0  0  0  0  0  0  0  0  0  0  0  0
   57.4074   31.4766   40.1276 H   0  0  0  0  0  0  0  0  0  0  0  0
   59.0851   32.1508   41.6479 H   0  0  0  0  0  0  0  0  0  0  0  0
   58.0529   33.4554   42.3435 H   0  0  0  0  0  0  0  0  0  0  0  0
   55.9549   30.8237   41.8755 H   0  0  0  0  0  0  0  0  0  0  0  0
   57.1988   29.5757   42.2876 H   0  0  0  0  0  0  0  0  0  0  0  0
   56.3590   30.3039   44.7887 H   0  0  0  0  0  0  0  0  0  0  0  0
   54.8434   30.5278   43.8510 H   0  0  0  0  0  0  0  0  0  0  0  0
   55.6723   28.9343   43.8510 H   0  0  0  0  0  0  0  0  0  0  0  0
   59.8678   29.3244   46.3172 H   0  0  0  0  0  0  0  0  0  0  0  0
   60.1390   31.3700   47.6130 H   0  0  0  0  0  0  0  0  0  0  0  0
   57.6056   34.4255   44.0350 H   0  0  0  0  0  0  0  0  0  0  0  0
   59.7746   35.2689   48.1674 H   0  0  0  0  0  0  0  0  0  0  0  0
   59.4024   33.6323   48.8430 H   0  0  0  0  0  0  0  0  0  0  0  0
   61.4672   34.0734   45.8459 H   0  0  0  0  0  0  0  0  0  0  0  0
   63.9020   33.5984   45.7150 H   0  0  0  0  0  0  0  0  0  0  0  0
   65.1950   33.1060   47.7791 H   0  0  0  0  0  0  0  0  0  0  0  0
   62.1632   33.4941   51.3223 H   0  0  0  0  0  0  0  0  0  0  0  0
   60.7015   34.2702   50.6238 H   0  0  0  0  0  0  0  0  0  0  0  0
   60.8551   32.4805   50.6238 H   0  0  0  0  0  0  0  0  0  0  0  0
  1  2  1  0
  2  3  1  0
  3  4  1  0
  4  5  1  0
  3  6  1  0
  6  7  2  0
  7  8  1  0
  8  9  2  0
  9 10  1  0
 10 11  2  0
 11 12  1  0
 12 13  2  0
 13 14  1  0
 14 15  1  0
 15 16  1  0
 16 17  2  0
 17 18  1  0
 18 19  2  0
 19 20  1  0
 20 21  1  0
 20 22  2  0
 22 23  1  0
 11  6  1  0
 22 16  1  0
 14 10  1  0
  1 24  1  0
  1 25  1  0
  1 26  1  0
  2 27  1  0
  2 28  1  0
  4 29  1  0
  4 30  1  0
  5 31  1  0
  5 32  1  0
  5 33  1  0
  8 34  1  0
  9 35  1  0
 12 36  1  0
 15 37  1  0
 15 38  1  0
 17 39  1  0
 18 40  1  0
 19 41  1  0
 23 42  1  0
 23 43  1  0
 23 44  1  0
M  CHG  1   9   1
M  END
>  <UniqueID>  (26) 
24

>  <SMILES>  (26) 
CCN(CC)c1nc[nH+]c2c1cnn2Cc1cccc(Cl)c1C

>  <Energy>  (26) 
87.24726417567514

>  <Genealogy>  (26) 
CCN(CC)c1nc[nH+]c2c1cnn2Cc1cccc(Cl)c1C (protonated)
CCN(CC)c1nc[nH+]c2c1cnn2Cc1cccc(Cl)c1C (3D coordinates assigned)
CCN(CC)c1nc[nH+]c2c1cnn2Cc1cccc(Cl)c1C (optimized conformer: 87.24726417567514 kcal/mol)

>  <smiles>  (26) 
CCN(CC)c1ncnc2c1cnn2Cc1cccc(Cl)c1C

>  <score_type>  (26) 
oracle

>  <origin>  (26) 
adg

>  <m_score__min__energy>  (26) 
-6.4199999999999999

>  <m_primary>  (26) 
energy

$$$$
26:0
     RDKit          3D

 39 41  0  0  0  0  0  0  0  0999 V2000
   56.6520   34.2930   45.1040 C   0  0  0  0  0  0  0  0  0  0  0  0
   57.1430   32.9190   44.9200 N   0  0  0  0  0  0  0  0  0  0  0  0
   57.9580   32.8180   43.7010 C   0  0  0  0  0  0  0  0  0  0  0  0
   58.3000   31.3460   43.4200 C   0  0  0  0  0  0  0  0  0  0  0  0
   58.7770   30.6020   44.6250 N   0  0  2  0  0  0  0  0  0  0  0  0
   57.9820   29.4080   44.9220 C   0  0  0  0  0  0  0  0  0  0  0  0
   58.6410   28.2220   45.3120 C   0  0  0  0  0  0  0  0  0  0  0  0
   57.9190   27.0830   45.6630 C   0  0  0  0  0  0  0  0  0  0  0  0
   58.7530   25.6230   46.1630 Cl  0  0  0  0  0  0  0  0  0  0  0  0
   56.5270   27.1190   45.6220 C   0  0  0  0  0  0  0  0  0  0  0  0
   55.8900   28.2560   45.2470 N   0  0  0  0  0  0  0  0  0  0  0  0
   56.5610   29.3870   44.9030 C   0  0  0  0  0  0  0  0  0  0  0  0
   55.8960   30.3990   44.5670 O   0  0  0  0  0  0  0  0  0  0  0  0
   59.0250   31.4730   45.8110 C   0  0  2  0  0  0  0  0  0  0  0  0
   59.5310   30.6940   47.0270 C   0  0  0  0  0  0  0  0  0  0  0  0
   60.8940   30.6750   47.3920 C   0  0  0  0  0  0  0  0  0  0  0  0
   61.3120   29.9990   48.5420 C   0  0  0  0  0  0  0  0  0  0  0  0
   60.3810   29.3400   49.3470 C   0  0  0  0  0  0  0  0  0  0  0  0
   60.9100   28.4990   50.7930 Cl  0  0  0  0  0  0  0  0  0  0  0  0
   59.0270   29.3650   49.0080 C   0  0  0  0  0  0  0  0  0  0  0  0
   58.6030   30.0410   47.8600 C   0  0  0  0  0  0  0  0  0  0  0  0
   57.8500   32.4370   46.1300 C   0  0  0  0  0  0  0  0  0  0  0  0
   56.5732   34.5134   46.1788 H   0  0  0  0  0  0  0  0  0  0  0  0
   57.3535   34.9989   44.6354 H   0  0  0  0  0  0  0  0  0  0  0  0
   55.6620   34.3944   44.6354 H   0  0  0  0  0  0  0  0  0  0  0  0
   57.3949   33.2302   42.8507 H   0  0  0  0  0  0  0  0  0  0  0  0
   58.8898   33.3857   43.8406 H   0  0  0  0  0  0  0  0  0  0  0  0
   57.3978   30.8463   43.0374 H   0  0  0  0  0  0  0  0  0  0  0  0
   59.1231   31.3397   42.6903 H   0  0  0  0  0  0  0  0  0  0  0  0
   59.7320   30.2610   44.3540 H   0  0  0  0  0  0  0  0  0  0  0  0
   59.7404   28.1966   45.3392 H   0  0  0  0  0  0  0  0  0  0  0  0
   55.9450   26.2259   45.8936 H   0  0  0  0  0  0  0  0  0  0  0  0
   59.8552   32.1348   45.5232 H   0  0  0  0  0  0  0  0  0  0  0  0
   61.6336   31.1964   46.7665 H   0  0  0  0  0  0  0  0  0  0  0  0
   62.3779   29.9863   48.8135 H   0  0  0  0  0  0  0  0  0  0  0  0
   58.2921   28.8517   49.6455 H   0  0  0  0  0  0  0  0  0  0  0  0
   57.5332   30.0628   47.6051 H   0  0  0  0  0  0  0  0  0  0  0  0
   57.1277   31.9078   46.7690 H   0  0  0  0  0  0  0  0  0  0  0  0
   58.2779   33.3182   46.6304 H   0  0  0  0  0  0  0  0  0  0  0  0
  1  2  1  0
  2  3  1  0
  3  4  1  0
  4  5  1  0
  5  6  1  0
  6  7  2  0
  7  8  1  0
  8  9  1  0
  8 10  2  0
 10 11  1  0
 11 12  1  0
 12 13  2  0
  5 14  1  0
 14 15  1  0
 15 16  2  0
 16 17  1  0
 17 18  2  0
 18 19  1  0
 18 20  1  0
 20 21  2  0
 14 22  1  0
 22  2  1  0
 12  6  1  0
 21 15  1  0
  1 23  1  0
  1 24  1  0
  1 25  1  0
  3 26  1  0
  3 27  1  0
  4 28  1  0
  4 29  1  0
  5 30  1  6
  7 31  1  0
 10 32  1  0
 14 33  1  6
 16 34  1  0
 17 35  1  0
 20 36  1  0
 21 37  1  0
 22 38  1  0
 22 39  1  0
M  CHG  2   5   1  11  -1
M  END
>  <UniqueID>  (27) 
25

>  <SMILES>  (27) 
CN1CC[N@H+](c2cc(Cl)c[n-]c2=O)[C@H](c2ccc(Cl)cc2)C1

>  <Energy>  (27) 
66.45015682477477

>  <Genealogy>  (27) 
CN1CC[NH+](c2cc(Cl)c[n-]c2=O)C(c2ccc(Cl)cc2)C1 (protonated)
CN1CC[N@H+](c2cc(Cl)c[n-]c2=O)[C@H](c2ccc(Cl)cc2)C1 (chirality)
CN1CC[N@H+](c2cc(Cl)c[n-]c2=O)[C@H](c2ccc(Cl)cc2)C1 (3D coordinates assigned)
CN1CC[N@H+](c2cc(Cl)c[n-]c2=O)[C@H](c2ccc(Cl)cc2)C1 (nonaromatic ring conformer: 66.45015682477477 kcal/mol)

>  <smiles>  (27) 
CN1CCN(c2cc(Cl)c[nH]c2=O)C(c2ccc(Cl)cc2)C1

>  <score_type>  (27) 
oracle

>  <origin>  (27) 
adg

>  <m_score__min__energy>  (27) 
-7.6600000000000001

>  <m_primary>  (27) 
energy

$$$$
27:0
     RDKit          3D

 44 47  0  0  0  0  0  0  0  0999 V2000
   56.3920   19.9700   45.3240 C   0  0  0  0  0  0  0  0  0  0  0  0
   57.4440   20.7200   44.7250 O   0  0  0  0  0  0  0  0  0  0  0  0
   57.4380   22.1160   44.5840 C   0  0  0  0  0  0  0  0  0  0  0  0
   56.8990   22.6650   43.4000 C   0  0  0  0  0  0  0  0  0  0  0  0
   56.8650   24.0560   43.2000 C   0  0  0  0  0  0  0  0  0  0  0  0
   57.3760   24.8900   44.1950 C   0  0  0  0  0  0  0  0  0  0  0  0
   57.4010   26.2480   44.1330 N   0  0  0  0  0  0  0  0  0  0  0  0
   57.9530   26.8000   45.2460 C   0  0  0  0  0  0  0  0  0  0  0  0
   58.1150   28.2590   45.4660 C   0  0  0  0  0  0  0  0  0  0  0  0
   57.4390   29.1800   44.6460 C   0  0  0  0  0  0  0  0  0  0  0  0
   57.5850   30.5560   44.8500 C   0  0  0  0  0  0  0  0  0  0  0  0
   58.4130   31.0400   45.8740 C   0  0  0  0  0  0  0  0  0  0  0  0
   58.5540   32.4590   46.0920 N   0  0  0  0  0  0  0  0  0  0  0  0
   57.4160   33.3670   45.9000 C   0  0  0  0  0  0  0  0  0  0  0  0
   57.7660   34.4620   44.8820 C   0  0  0  0  0  0  0  0  0  0  0  0
   59.2340   34.9370   44.9720 C   0  0  0  0  0  0  0  0  0  0  0  0
   59.9040   34.5380   46.2930 C   0  0  0  0  0  0  0  0  0  0  0  0
   59.8630   33.0120   46.4730 C   0  0  0  0  0  0  0  0  0  0  0  0
   59.0770   30.1230   46.7030 C   0  0  0  0  0  0  0  0  0  0  0  0
   58.9310   28.7470   46.5020 C   0  0  0  0  0  0  0  0  0  0  0  0
   58.4210   25.5970   46.3500 S   0  0  0  0  0  0  0  0  0  0  0  0
   57.9020   24.3500   45.3560 C   0  0  0  0  0  0  0  0  0  0  0  0
   57.9500   22.9770   45.5810 C   0  0  0  0  0  0  0  0  0  0  0  0
   56.4763   20.0301   46.4191 H   0  0  0  0  0  0  0  0  0  0  0  0
   55.4222   20.3816   45.0078 H   0  0  0  0  0  0  0  0  0  0  0  0
   56.4649   18.9190   45.0078 H   0  0  0  0  0  0  0  0  0  0  0  0
   56.5004   21.9953   42.6238 H   0  0  0  0  0  0  0  0  0  0  0  0
   56.4434   24.4791   42.2763 H   0  0  0  0  0  0  0  0  0  0  0  0
   57.0160   26.7880   43.3260 H   0  0  0  0  0  0  0  0  0  0  0  0
   56.7895   28.8149   43.8368 H   0  0  0  0  0  0  0  0  0  0  0  0
   57.0466   31.2640   44.2028 H   0  0  0  0  0  0  0  0  0  0  0  0
   56.5532   32.7928   45.5314 H   0  0  0  0  0  0  0  0  0  0  0  0
   57.1735   33.8411   46.8625 H   0  0  0  0  0  0  0  0  0  0  0  0
   57.5885   34.0675   43.8706 H   0  0  0  0  0  0  0  0  0  0  0  0
   57.1293   35.3303   45.1072 H   0  0  0  0  0  0  0  0  0  0  0  0
   59.8001   34.4907   44.1411 H   0  0  0  0  0  0  0  0  0  0  0  0
   59.2322   36.0357   44.9183 H   0  0  0  0  0  0  0  0  0  0  0  0
   60.9513   34.8743   46.2847 H   0  0  0  0  0  0  0  0  0  0  0  0
   59.3627   35.0109   47.1256 H   0  0  0  0  0  0  0  0  0  0  0  0
   60.6407   32.5567   45.8422 H   0  0  0  0  0  0  0  0  0  0  0  0
   60.0376   32.7850   47.5351 H   0  0  0  0  0  0  0  0  0  0  0  0
   59.7180   30.4899   47.5182 H   0  0  0  0  0  0  0  0  0  0  0  0
   59.4587   28.0406   47.1596 H   0  0  0  0  0  0  0  0  0  0  0  0
   58.3756   22.5725   46.5112 H   0  0  0  0  0  0  0  0  0  0  0  0
  1  2  1  0
  2  3  1  0
  3  4  2  0
  4  5  1  0
  5  6  2  0
  6  7  1  0
  7  8  2  0
  8  9  1  0
  9 10  2  0
 10 11  1  0
 11 12  2  0
 12 13  1  0
 13 14  1  0
 14 15  1  0
 15 16  1  0
 16 17  1  0
 17 18  1  0
 12 19  1  0
 19 20  2  0
  8 21  1  0
 21 22  1  0
 22 23  2  0
 23  3  1  0
 22  6  1  0
 20  9  1  0
 18 13  1  0
  1 24  1  0
  1 25  1  0
  1 26  1  0
  4 27  1  0
  5 28  1  0
  7 29  1  0
 10 30  1  0
 11 31  1  0
 14 32  1  0
 14 33  1  0
 15 34  1  0
 15 35  1  0
 16 36  1  0
 16 37  1  0
 17 38  1  0
 17 39  1  0
 18 40  1  0
 18 41  1  0
 19 42  1  0
 20 43  1  0
 23 44  1  0
M  CHG  1   7   1
M  END
>  <UniqueID>  (28) 
26

>  <SMILES>  (28) 
COc1ccc2[nH+]c(-c3ccc(N4CCCCC4)cc3)sc2c1

>  <Energy>  (28) 
88.182535809538

>  <Genealogy>  (28) 
COc1ccc2[nH+]c(-c3ccc(N4CCCCC4)cc3)sc2c1 (protonated)
COc1ccc2[nH+]c(-c3ccc(N4CCCCC4)cc3)sc2c1 (3D coordinates assigned)
COc1ccc2[nH+]c(-c3ccc(N4CCCCC4)cc3)sc2c1 (nonaromatic ring conformer: 88.182535809538 kcal/mol)

>  <smiles>  (28) 
COc1ccc2nc(-c3ccc(N4CCCCC4)cc3)sc2c1

>  <score_type>  (28) 
oracle

>  <origin>  (28) 
adg

>  <m_score__min__energy>  (28) 
-5.96

>  <m_primary>  (28) 
energy

$$$$
28:0
     RDKit          3D

 40 41  0  0  0  0  0  0  0  0999 V2000
   53.0260   24.0760   44.9670 C   0  0  0  0  0  0  0  0  0  0  0  0
   54.1100   23.7820   45.9920 C   0  0  0  0  0  0  0  0  0  0  0  0
   55.0350   24.8500   46.0080 O   0  0  0  0  0  0  0  0  0  0  0  0
   56.2080   24.5030   45.2960 C   0  0  0  0  0  0  0  0  0  0  0  0
   57.2940   25.5600   45.5250 C   0  0  0  0  0  0  0  0  0  0  0  0
   56.7900   26.7270   46.3840 C   0  0  0  0  0  0  0  0  0  0  0  0
   55.9040   27.6030   45.6200 N   0  0  0  0  0  0  0  0  0  0  0  0
   56.2480   28.8690   45.0410 C   0  0  0  0  0  0  0  0  0  0  0  0
   55.3390   29.7270   44.8910 O   0  0  0  0  0  0  0  0  0  0  0  0
   57.6400   29.2020   44.5740 C   0  0  0  0  0  0  0  0  0  0  0  0
   57.8300   30.6590   44.5470 N   0  0  0  0  0  0  0  0  0  0  0  0
   57.5220   31.4370   43.4750 C   0  0  0  0  0  0  0  0  0  0  0  0
   57.0720   30.9830   42.3900 O   0  0  0  0  0  0  0  0  0  0  0  0
   57.8020   33.0780   43.7530 S   0  0  0  0  0  0  0  0  0  0  0  0
   58.3340   32.7890   45.3200 C   0  0  0  0  0  0  0  0  0  0  0  0
   58.7620   33.7190   46.2610 C   0  0  0  0  0  0  0  0  0  0  0  0
   59.1620   33.2570   47.5280 C   0  0  0  0  0  0  0  0  0  0  0  0
   59.5900   34.2320   48.5840 C   0  0  0  0  0  0  0  0  0  0  0  0
   59.0910   31.8780   47.8240 C   0  0  0  0  0  0  0  0  0  0  0  0
   58.6550   30.9560   46.8570 C   0  0  0  0  0  0  0  0  0  0  0  0
   58.2790   31.4250   45.5900 C   0  0  0  0  0  0  0  0  0  0  0  0
   52.0899   24.3299   45.4859 H   0  0  0  0  0  0  0  0  0  0  0  0
   53.3371   24.9222   44.3368 H   0  0  0  0  0  0  0  0  0  0  0  0
   52.8669   23.1886   44.3368 H   0  0  0  0  0  0  0  0  0  0  0  0
   53.6554   23.6739   46.9878 H   0  0  0  0  0  0  0  0  0  0  0  0
   54.6274   22.8484   45.7259 H   0  0  0  0  0  0  0  0  0  0  0  0
   56.5713   23.5259   45.6471 H   0  0  0  0  0  0  0  0  0  0  0  0
   55.9758   24.4516   44.2220 H   0  0  0  0  0  0  0  0  0  0  0  0
   58.1474   25.0876   46.0336 H   0  0  0  0  0  0  0  0  0  0  0  0
   57.5876   25.9627   44.5444 H   0  0  0  0  0  0  0  0  0  0  0  0
   56.2396   26.3251   47.2475 H   0  0  0  0  0  0  0  0  0  0  0  0
   57.6584   27.3148   46.7162 H   0  0  0  0  0  0  0  0  0  0  0  0
   58.3715   28.7526   45.2618 H   0  0  0  0  0  0  0  0  0  0  0  0
   57.7842   28.8018   43.5596 H   0  0  0  0  0  0  0  0  0  0  0  0
   58.7872   34.7920   46.0200 H   0  0  0  0  0  0  0  0  0  0  0  0
   59.4011   33.8017   49.5786 H   0  0  0  0  0  0  0  0  0  0  0  0
   60.6638   34.4437   48.4740 H   0  0  0  0  0  0  0  0  0  0  0  0
   59.0190   35.1657   48.4740 H   0  0  0  0  0  0  0  0  0  0  0  0
   59.3804   31.5212   48.8235 H   0  0  0  0  0  0  0  0  0  0  0  0
   58.6093   29.8821   47.0906 H   0  0  0  0  0  0  0  0  0  0  0  0
  1  2  1  0
  2  3  1  0
  3  4  1  0
  4  5  1  0
  5  6  1  0
  6  7  1  0
  7  8  1  0
  8  9  2  0
  8 10  1  0
 10 11  1  0
 11 12  1  0
 12 13  2  0
 12 14  1  0
 14 15  1  0
 15 16  2  0
 16 17  1  0
 17 18  1  0
 17 19  2  0
 19 20  1  0
 20 21  2  0
 21 11  1  0
 21 15  1  0
  1 22  1  0
  1 23  1  0
  1 24  1  0
  2 25  1  0
  2 26  1  0
  4 27  1  0
  4 28  1  0
  5 29  1  0
  5 30  1  0
  6 31  1  0
  6 32  1  0
 10 33  1  0
 10 34  1  0
 16 35  1  0
 18 36  1  0
 18 37  1  0
 18 38  1  0
 19 39  1  0
 20 40  1  0
M  CHG  1   7  -1
M  END
>  <UniqueID>  (29) 
27

>  <SMILES>  (29) 
CCOCCC[N-]C(=O)Cn1c(=O)sc2cc(C)ccc21

>  <Energy>  (29) 
69.93291561854586

>  <Genealogy>  (29) 
CCOCCC[N-]C(=O)Cn1c(=O)sc2cc(C)ccc21 (protonated)
CCOCCC[N-]C(=O)Cn1c(=O)sc2cc(C)ccc21 (3D coordinates assigned)
CCOCCC[N-]C(=O)Cn1c(=O)sc2cc(C)ccc21 (optimized conformer: 69.93291561854586 kcal/mol)

>  <smiles>  (29) 
CCOCCCNC(=O)Cn1c(=O)sc2cc(C)ccc21

>  <score_type>  (29) 
oracle

>  <origin>  (29) 
adg

>  <m_score__min__energy>  (29) 
-8.9399999999999995

>  <m_primary>  (29) 
energy

$$$$
