0:0
     RDKit          3D

 79 83  0  0  0  0  0  0  0  0999 V2000
   56.7230   22.1920   43.0550 C   0  0  0  0  0  0  0  0  0  0  0  0
   56.4960   23.5090   43.7940 C   0  0  0  0  0  0  0  0  0  0  0  0
   55.0530   23.6860   44.2900 C   0  0  0  0  0  0  0  0  0  0  0  0
   54.9360   24.1110   45.7680 C   0  0  0  0  0  0  0  0  0  0  0  0
   55.2410   25.5380   45.9930 N   0  0  0  0  0  0  0  0  0  0  0  0
   56.5120   25.7300   46.7110 C   0  0  0  0  0  0  0  0  0  0  0  0
   57.0960   27.1310   46.4570 C   0  0  0  0  0  0  0  0  0  0  0  0
   57.0430   27.6080   44.9940 C   0  0  0  0  0  0  0  0  0  0  0  0
   57.7200   28.9700   44.7760 C   0  0  0  0  0  0  0  0  0  0  0  0
   58.8430   28.8440   43.8280 N   0  0  0  0  0  0  0  0  0  0  0  0
   60.1120   28.4900   44.4930 C   0  0  0  0  0  0  0  0  0  0  0  0
   60.2160   28.9400   45.9500 C   0  0  0  0  0  0  0  0  0  0  0  0
   60.1960   30.3060   46.2970 C   0  0  0  0  0  0  0  0  0  0  0  0
   60.3380   30.7070   47.6240 C   0  0  0  0  0  0  0  0  0  0  0  0
   60.4150   29.7590   48.6490 C   0  0  0  0  0  0  0  0  0  0  0  0
   60.5910   30.1870   50.0560 C   0  0  0  0  0  0  0  0  0  0  0  0
   61.6380   29.6150   50.7980 C   0  0  0  0  0  0  0  0  0  0  0  0
   61.8700   30.0050   52.1170 C   0  0  0  0  0  0  0  0  0  0  0  0
   61.0600   30.9710   52.7130 C   0  0  0  0  0  0  0  0  0  0  0  0
   60.0060   31.5420   51.9970 C   0  0  0  0  0  0  0  0  0  0  0  0
   59.7460   31.1510   50.6710 C   0  0  0  0  0  0  0  0  0  0  0  0
   58.5990   31.7980   49.9330 C   0  0  0  0  0  0  0  0  0  0  0  0
   59.0270   33.1180   49.4790 N   0  0  0  0  0  0  0  0  0  0  0  0
   59.6240   33.5100   48.3790 C   0  0  0  0  0  0  0  0  0  0  0  0
   61.0350   33.6580   48.4400 C   0  0  0  0  0  0  0  0  0  0  0  0
   61.7380   33.6230   49.6670 C   0  0  0  0  0  0  0  0  0  0  0  0
   63.1330   33.7040   49.6910 C   0  0  0  0  0  0  0  0  0  0  0  0
   63.8500   33.8120   48.5000 C   0  0  0  0  0  0  0  0  0  0  0  0
   63.1750   33.8390   47.2780 C   0  0  0  0  0  0  0  0  0  0  0  0
   61.7770   33.7610   47.2420 C   0  0  0  0  0  0  0  0  0  0  0  0
   61.1420   33.7570   46.0470 N   0  0  0  0  0  0  0  0  0  0  0  0
   59.7930   33.7050   45.9430 C   0  0  0  0  0  0  0  0  0  0  0  0
   59.2150   33.7570   44.6690 C   0  0  0  0  0  0  0  0  0  0  0  0
   57.8320   33.8190   44.5270 C   0  0  0  0  0  0  0  0  0  0  0  0
   57.0220   33.8700   45.6560 C   0  0  0  0  0  0  0  0  0  0  0  0
   57.5850   33.8000   46.9340 C   0  0  0  0  0  0  0  0  0  0  0  0
   58.9790   33.6400   47.1070 C   0  0  0  0  0  0  0  0  0  0  0  0
   60.3810   28.3980   48.3250 C   0  0  0  0  0  0  0  0  0  0  0  0
   60.2760   27.9830   46.9920 C   0  0  0  0  0  0  0  0  0  0  0  0
   60.2110   26.2480   46.6810 Cl  0  0  0  0  0  0  0  0  0  0  0  0
   56.8627   21.3812   43.7851 H   0  0  0  0  0  0  0  0  0  0  0  0
   55.8498   21.9705   42.4238 H   0  0  0  0  0  0  0  0  0  0  0  0
   57.6200   22.2756   42.4238 H   0  0  0  0  0  0  0  0  0  0  0  0
   57.1704   23.5429   44.6624 H   0  0  0  0  0  0  0  0  0  0  0  0
   56.6976   24.3219   43.0809 H   0  0  0  0  0  0  0  0  0  0  0  0
   54.5682   24.4554   43.6712 H   0  0  0  0  0  0  0  0  0  0  0  0
   54.5690   22.7017   44.2067 H   0  0  0  0  0  0  0  0  0  0  0  0
   53.9076   23.9165   46.1065 H   0  0  0  0  0  0  0  0  0  0  0  0
   55.6770   23.5271   46.3337 H   0  0  0  0  0  0  0  0  0  0  0  0
   55.2820   26.0470   45.0810 H   0  0  0  0  0  0  0  0  0  0  0  0
   56.3356   25.6063   47.7897 H   0  0  0  0  0  0  0  0  0  0  0  0
   57.2322   24.9837   46.3443 H   0  0  0  0  0  0  0  0  0  0  0  0
   56.5334   27.8505   47.0701 H   0  0  0  0  0  0  0  0  0  0  0  0
   58.1624   27.0694   46.7195 H   0  0  0  0  0  0  0  0  0  0  0  0
   57.5491   26.8614   44.3644 H   0  0  0  0  0  0  0  0  0  0  0  0
   55.9824   27.7238   44.7264 H   0  0  0  0  0  0  0  0  0  0  0  0
   56.9832   29.6797   44.3718 H   0  0  0  0  0  0  0  0  0  0  0  0
   58.1074   29.3325   45.7396 H   0  0  0  0  0  0  0  0  0  0  0  0
   58.9810   29.7720   43.3640 H   0  0  0  0  0  0  0  0  0  0  0  0
   58.6270   28.1610   43.0660 H   0  0  0  0  0  0  0  0  0  0  0  0
   60.2208   27.3958   44.4636 H   0  0  0  0  0  0  0  0  0  0  0  0
   60.9073   29.0184   43.9468 H   0  0  0  0  0  0  0  0  0  0  0  0
   60.0668   31.0645   45.5109 H   0  0  0  0  0  0  0  0  0  0  0  0
   60.3900   31.7785   47.8673 H   0  0  0  0  0  0  0  0  0  0  0  0
   62.2809   28.8523   50.3343 H   0  0  0  0  0  0  0  0  0  0  0  0
   62.6929   29.5500   52.6877 H   0  0  0  0  0  0  0  0  0  0  0  0
   61.2519   31.2840   53.7499 H   0  0  0  0  0  0  0  0  0  0  0  0
   59.3731   32.3047   52.4743 H   0  0  0  0  0  0  0  0  0  0  0  0
   58.3193   31.1802   49.0669 H   0  0  0  0  0  0  0  0  0  0  0  0
   57.7277   31.8919   50.5979 H   0  0  0  0  0  0  0  0  0  0  0  0
   61.1814   33.5312   50.6113 H   0  0  0  0  0  0  0  0  0  0  0  0
   63.6670   33.6825   50.6524 H   0  0  0  0  0  0  0  0  0  0  0  0
   64.9479   33.8760   48.5231 H   0  0  0  0  0  0  0  0  0  0  0  0
   63.7434   33.9219   46.3399 H   0  0  0  0  0  0  0  0  0  0  0  0
   59.8571   33.7488   43.7759 H   0  0  0  0  0  0  0  0  0  0  0  0
   57.3807   33.8276   43.5239 H   0  0  0  0  0  0  0  0  0  0  0  0
   55.9320   33.9660   45.5431 H   0  0  0  0  0  0  0  0  0  0  0  0
   56.9338   33.8705   47.8177 H   0  0  0  0  0  0  0  0  0  0  0  0
   60.4374   27.6463   49.1261 H   0  0  0  0  0  0  0  0  0  0  0  0
  1  2  1  0
  2  3  1  0
  3  4  1  0
  4  5  1  0
  5  6  1  0
  6  7  1  0
  7  8  1  0
  8  9  1  0
  9 10  1  0
 10 11  1  0
 11 12  1  0
 12 13  2  0
 13 14  1  0
 14 15  2  0
 15 16  1  0
 16 17  2  0
 17 18  1  0
 18 19  2  0
 19 20  1  0
 20 21  2  0
 21 22  1  0
 22 23  1  0
 23 24  2  3
 24 25  1  0
 25 26  2  0
 26 27  1  0
 27 28  2  0
 28 29  1  0
 29 30  2  0
 30 31  1  0
 31 32  1  0
 32 33  2  0
 33 34  1  0
 34 35  2  0
 35 36  1  0
 36 37  2  0
 15 38  1  0
 38 39  2  0
 39 40  1  0
 39 12  1  0
 21 16  1  0
 37 24  1  0
 30 25  1  0
 37 32  1  0
  1 41  1  0
  1 42  1  0
  1 43  1  0
  2 44  1  0
  2 45  1  0
  3 46  1  0
  3 47  1  0
  4 48  1  0
  4 49  1  0
  5 50  1  0
  6 51  1  0
  6 52  1  0
  7 53  1  0
  7 54  1  0
  8 55  1  0
  8 56  1  0
  9 57  1  0
  9 58  1  0
 10 59  1  0
 10 60  1  0
 11 61  1  0
 11 62  1  0
 13 63  1  0
 14 64  1  0
 17 65  1  0
 18 66  1  0
 19 67  1  0
 20 68  1  0
 22 69  1  0
 22 70  1  0
 26 71  1  0
 27 72  1  0
 28 73  1  0
 29 74  1  0
 33 75  1  0
 34 76  1  0
 35 77  1  0
 36 78  1  0
 38 79  1  0
M  CHG  2  10   1  31  -1
M  END
>  <UniqueID>  (1) 
1

>  <SMILES>  (1) 
CCCCNCCCC[NH2+]Cc1ccc(-c2ccccc2CN=c2c3ccccc3[n-]c3ccccc23)cc1Cl

>  <Energy>  (1) 
105.96355472843946

>  <Genealogy>  (1) 
CCCCNCCCC[NH2+]Cc1ccc(-c2ccccc2CN=c2c3ccccc3[n-]c3ccccc23)cc1Cl (protonated)
CCCCNCCCC[NH2+]Cc1ccc(-c2ccccc2CN=c2c3ccccc3[n-]c3ccccc23)cc1Cl (3D coordinates assigned)
CCCCNCCCC[NH2+]Cc1ccc(-c2ccccc2CN=c2c3ccccc3[n-]c3ccccc23)cc1Cl (optimized conformer: 105.96355472843946 kcal/mol)

>  <smiles>  (1) 
CCCCNCCCCNCc1ccc(-c2ccccc2CN=c2c3ccccc3[nH]c3ccccc23)cc1Cl

>  <score_type>  (1) 
oracle

>  <origin>  (1) 
adg

>  <m_score__min__energy>  (1) 
-9.0099999999999998

>  <m_primary>  (1) 
energy

$$$$
1:0
     RDKit          3D

 35 36  0  0  0  0  0  0  0  0999 V2000
   56.2160   26.2330   45.9980 C   0  0  0  0  0  0  0  0  0  0  0  0
   55.8320   27.5520   45.6210 O   0  0  0  0  0  0  0  0  0  0  0  0
   56.7300   28.5610   45.2440 C   0  0  0  0  0  0  0  0  0  0  0  0
   56.3400   29.4560   44.2400 C   0  0  0  0  0  0  0  0  0  0  0  0
   57.1960   30.4840   43.8350 C   0  0  0  0  0  0  0  0  0  0  0  0
   58.4530   30.6240   44.4270 C   0  0  0  0  0  0  0  0  0  0  0  0
   58.8690   29.7270   45.4220 C   0  0  0  0  0  0  0  0  0  0  0  0
   60.2090   29.9010   46.0890 C   0  0  0  0  0  0  0  0  0  0  0  0
   60.0560   30.5960   47.3770 N   0  0  0  0  0  0  0  0  0  0  0  0
   60.7770   31.8800   47.3980 C   0  0  0  0  0  0  0  0  0  0  0  0
   59.9670   32.9810   46.7800 C   0  0  0  0  0  0  0  0  0  0  0  0
   60.4170   34.2590   46.5070 C   0  0  0  0  0  0  0  0  0  0  0  0
   59.3540   34.9120   45.9180 C   0  0  0  0  0  0  0  0  0  0  0  0
   58.3280   33.9880   45.8740 C   0  0  0  0  0  0  0  0  0  0  0  0
   56.9720   34.2240   45.2990 C   0  0  0  0  0  0  0  0  0  0  0  0
   58.7210   32.8460   46.3890 O   0  0  0  0  0  0  0  0  0  0  0  0
   58.0000   28.7050   45.8380 C   0  0  0  0  0  0  0  0  0  0  0  0
   56.2381   26.1570   47.0952 H   0  0  0  0  0  0  0  0  0  0  0  0
   55.4909   25.5107   45.5950 H   0  0  0  0  0  0  0  0  0  0  0  0
   57.2155   26.0128   45.5950 H   0  0  0  0  0  0  0  0  0  0  0  0
   55.3528   29.3492   43.7667 H   0  0  0  0  0  0  0  0  0  0  0  0
   56.8788   31.1843   43.0482 H   0  0  0  0  0  0  0  0  0  0  0  0
   59.1193   31.4406   44.1119 H   0  0  0  0  0  0  0  0  0  0  0  0
   60.6585   28.9121   46.2622 H   0  0  0  0  0  0  0  0  0  0  0  0
   60.8573   30.5022   45.4346 H   0  0  0  0  0  0  0  0  0  0  0  0
   59.0390   30.7930   47.5360 H   0  0  0  0  0  0  0  0  0  0  0  0
   60.3990   29.9860   48.1570 H   0  0  0  0  0  0  0  0  0  0  0  0
   61.0020   32.1455   48.4415 H   0  0  0  0  0  0  0  0  0  0  0  0
   61.7012   31.7641   46.8128 H   0  0  0  0  0  0  0  0  0  0  0  0
   61.4156   34.6702   46.7160 H   0  0  0  0  0  0  0  0  0  0  0  0
   59.3287   35.9513   45.5585 H   0  0  0  0  0  0  0  0  0  0  0  0
   56.2448   34.3506   46.1146 H   0  0  0  0  0  0  0  0  0  0  0  0
   56.9896   35.1326   44.6792 H   0  0  0  0  0  0  0  0  0  0  0  0
   56.6816   33.3629   44.6792 H   0  0  0  0  0  0  0  0  0  0  0  0
   58.3128   28.0121   46.6330 H   0  0  0  0  0  0  0  0  0  0  0  0
  1  2  1  0
  2  3  1  0
  3  4  2  0
  4  5  1  0
  5  6  2  0
  6  7  1  0
  7  8  1  0
  8  9  1  0
  9 10  1  0
 10 11  1  0
 11 12  2  0
 12 13  1  0
 13 14  2  0
 14 15  1  0
 14 16  1  0
  7 17  2  0
 17  3  1  0
 16 11  1  0
  1 18  1  0
  1 19  1  0
  1 20  1  0
  4 21  1  0
  5 22  1  0
  6 23  1  0
  8 24  1  0
  8 25  1  0
  9 26  1  0
  9 27  1  0
 10 28  1  0
 10 29  1  0
 12 30  1  0
 13 31  1  0
 15 32  1  0
 15 33  1  0
 15 34  1  0
 17 35  1  0
M  CHG  1   9   1
M  END
>  <UniqueID>  (2) 
2

>  <SMILES>  (2) 
COc1cccc(C[NH2+]Cc2ccc(C)o2)c1

>  <Energy>  (2) 
56.86478407075006

>  <Genealogy>  (2) 
COc1cccc(C[NH2+]Cc2ccc(C)o2)c1 (protonated)
COc1cccc(C[NH2+]Cc2ccc(C)o2)c1 (3D coordinates assigned)
COc1cccc(C[NH2+]Cc2ccc(C)o2)c1 (optimized conformer: 56.86478407075006 kcal/mol)

>  <smiles>  (2) 
COc1cccc(CNCc2ccc(C)o2)c1

>  <score_type>  (2) 
oracle

>  <origin>  (2) 
adg

>  <m_score__min__energy>  (2) 
-5.4500000000000002

>  <m_primary>  (2) 
energy

$$$$
2:0
     RDKit          3D

 26 26  0  0  0  0  0  0  0  0999 V2000
   59.5170   28.7220   44.6600 C   0  0  0  0  0  0  0  0  0  0  0  0
   58.0800   28.1970   44.5870 C   0  0  0  0  0  0  0  0  0  0  0  0
   57.3990   28.5590   43.3300 N   0  0  0  0  0  0  0  0  0  0  0  0
   56.4630   29.6960   43.4380 C   0  0  0  0  0  0  0  0  0  0  0  0
   57.0480   31.0040   42.8790 C   0  0  0  0  0  0  0  0  0  0  0  0
   57.5490   31.8750   43.9950 C   0  0  0  0  0  0  0  0  0  0  0  0
   58.1440   33.1160   43.7210 C   0  0  0  0  0  0  0  0  0  0  0  0
   58.5710   33.9190   44.7810 C   0  0  0  0  0  0  0  0  0  0  0  0
   58.3940   33.4850   46.0960 C   0  0  0  0  0  0  0  0  0  0  0  0
   57.7870   32.2490   46.3310 C   0  0  0  0  0  0  0  0  0  0  0  0
   57.3780   31.4800   45.2860 N   0  0  0  0  0  0  0  0  0  0  0  0
   59.8146   28.8307   45.7134 H   0  0  0  0  0  0  0  0  0  0  0  0
   60.1924   28.0126   44.1595 H   0  0  0  0  0  0  0  0  0  0  0  0
   59.5760   29.6998   44.1595 H   0  0  0  0  0  0  0  0  0  0  0  0
   58.1025   27.1004   44.6706 H   0  0  0  0  0  0  0  0  0  0  0  0
   57.5177   28.6595   45.4116 H   0  0  0  0  0  0  0  0  0  0  0  0
   58.1210   28.7930   42.6090 H   0  0  0  0  0  0  0  0  0  0  0  0
   56.8760   27.7220   42.9820 H   0  0  0  0  0  0  0  0  0  0  0  0
   55.5480   29.4525   42.8781 H   0  0  0  0  0  0  0  0  0  0  0  0
   56.2568   29.8552   44.5067 H   0  0  0  0  0  0  0  0  0  0  0  0
   57.8821   30.7674   42.2021 H   0  0  0  0  0  0  0  0  0  0  0  0
   56.2587   31.5426   42.3341 H   0  0  0  0  0  0  0  0  0  0  0  0
   58.2728   33.4530   42.6818 H   0  0  0  0  0  0  0  0  0  0  0  0
   59.0455   34.8909   44.5802 H   0  0  0  0  0  0  0  0  0  0  0  0
   58.7287   34.1093   46.9376 H   0  0  0  0  0  0  0  0  0  0  0  0
   57.6395   31.8970   47.3627 H   0  0  0  0  0  0  0  0  0  0  0  0
  1  2  1  0
  2  3  1  0
  3  4  1  0
  4  5  1  0
  5  6  1  0
  6  7  2  0
  7  8  1  0
  8  9  2  0
  9 10  1  0
 10 11  2  0
 11  6  1  0
  1 12  1  0
  1 13  1  0
  1 14  1  0
  2 15  1  0
  2 16  1  0
  3 17  1  0
  3 18  1  0
  4 19  1  0
  4 20  1  0
  5 21  1  0
  5 22  1  0
  7 23  1  0
  8 24  1  0
  9 25  1  0
 10 26  1  0
M  CHG  1   3   1
M  END
>  <UniqueID>  (3) 
3

>  <SMILES>  (3) 
CC[NH2+]CCc1ccccn1

>  <Energy>  (3) 
21.761525562510208

>  <Genealogy>  (3) 
CC[NH2+]CCc1ccccn1 (protonated)
CC[NH2+]CCc1ccccn1 (3D coordinates assigned)
CC[NH2+]CCc1ccccn1 (optimized conformer: 21.761525562510208 kcal/mol)

>  <smiles>  (3) 
CCNCCc1ccccn1

>  <score_type>  (3) 
oracle

>  <origin>  (3) 
adg

>  <m_score__min__energy>  (3) 
-3.5899999999999999

>  <m_primary>  (3) 
energy

$$$$
3:0
     RDKit          3D

 51 54  0  0  0  0  0  0  0  0999 V2000
   60.7760   28.9420   45.2690 C   0  0  0  0  0  0  0  0  0  0  0  0
   59.4510   28.2330   45.3780 C   0  0  0  0  0  0  0  0  0  0  0  0
   59.4290   26.8280   45.3360 C   0  0  0  0  0  0  0  0  0  0  0  0
   58.2190   26.1330   45.4150 C   0  0  0  0  0  0  0  0  0  0  0  0
   58.2080   24.3810   45.3490 Cl  0  0  0  0  0  0  0  0  0  0  0  0
   57.0180   26.8340   45.5420 C   0  0  0  0  0  0  0  0  0  0  0  0
   57.0240   28.2280   45.6040 C   0  0  0  0  0  0  0  0  0  0  0  0
   58.2330   28.9420   45.5400 C   0  0  0  0  0  0  0  0  0  0  0  0
   58.1900   30.4170   45.6440 C   0  0  0  0  0  0  0  0  0  0  0  0
   57.6240   31.1810   44.6120 C   0  0  0  0  0  0  0  0  0  0  0  0
   57.5840   32.5730   44.7060 C   0  0  0  0  0  0  0  0  0  0  0  0
   58.0940   33.2150   45.8380 C   0  0  0  0  0  0  0  0  0  0  0  0
   58.6360   32.4650   46.8930 C   0  0  0  0  0  0  0  0  0  0  0  0
   59.1610   33.1330   48.0520 N   0  0  0  0  0  0  0  0  0  0  0  0
   59.9830   34.1780   48.0190 N   0  0  0  0  0  0  0  0  0  0  0  0
   60.3160   34.5870   49.2410 N   0  0  0  0  0  0  0  0  0  0  0  0
   59.6650   33.7610   50.0800 C   0  0  0  0  0  0  0  0  0  0  0  0
   59.6410   33.7800   51.4690 C   0  0  0  0  0  0  0  0  0  0  0  0
   58.8310   32.8290   52.1180 C   0  0  0  0  0  0  0  0  0  0  0  0
   58.0630   31.8970   51.3690 C   0  0  0  0  0  0  0  0  0  0  0  0
   57.1610   30.9130   52.0760 C   0  0  0  0  0  0  0  0  0  0  0  0
   55.8310   30.8330   51.4530 N   0  0  0  0  0  0  0  0  0  0  0  0
   54.9340   29.9340   52.1890 C   0  0  0  0  0  0  0  0  0  0  0  0
   53.4800   30.3320   51.9390 C   0  0  0  0  0  0  0  0  0  0  0  0
   53.4170   31.4730   51.0330 N   0  0  0  0  0  0  0  0  0  0  0  0
   58.1100   31.9190   49.9570 C   0  0  0  0  0  0  0  0  0  0  0  0
   58.9470   32.8590   49.3530 C   0  0  0  0  0  0  0  0  0  0  0  0
   58.6910   31.0650   46.7860 C   0  0  0  0  0  0  0  0  0  0  0  0
   61.1646   29.1499   46.2769 H   0  0  0  0  0  0  0  0  0  0  0  0
   61.4891   28.3049   44.7253 H   0  0  0  0  0  0  0  0  0  0  0  0
   60.6416   29.8887   44.7253 H   0  0  0  0  0  0  0  0  0  0  0  0
   60.3725   26.2707   45.2401 H   0  0  0  0  0  0  0  0  0  0  0  0
   56.0654   26.2863   45.5933 H   0  0  0  0  0  0  0  0  0  0  0  0
   56.0738   28.7731   45.7039 H   0  0  0  0  0  0  0  0  0  0  0  0
   57.2098   30.6803   43.7245 H   0  0  0  0  0  0  0  0  0  0  0  0
   57.1502   33.1661   43.8874 H   0  0  0  0  0  0  0  0  0  0  0  0
   58.0704   34.3129   45.9022 H   0  0  0  0  0  0  0  0  0  0  0  0
   60.3420   34.6210   47.1440 H   0  0  0  0  0  0  0  0  0  0  0  0
   60.2326   34.5106   52.0401 H   0  0  0  0  0  0  0  0  0  0  0  0
   58.7921   32.8071   53.2171 H   0  0  0  0  0  0  0  0  0  0  0  0
   57.6280   29.9176   52.0436 H   0  0  0  0  0  0  0  0  0  0  0  0
   57.0289   31.2592   53.1117 H   0  0  0  0  0  0  0  0  0  0  0  0
   55.4060   31.7910   51.4260 H   0  0  0  0  0  0  0  0  0  0  0  0
   55.0931   28.9004   51.8480 H   0  0  0  0  0  0  0  0  0  0  0  0
   55.1500   30.0077   53.2651 H   0  0  0  0  0  0  0  0  0  0  0  0
   52.9430   29.4828   51.4912 H   0  0  0  0  0  0  0  0  0  0  0  0
   53.0147   30.6089   52.8965 H   0  0  0  0  0  0  0  0  0  0  0  0
   54.0220   32.2340   51.4210 H   0  0  0  0  0  0  0  0  0  0  0  0
   53.8530   31.1830   50.1270 H   0  0  0  0  0  0  0  0  0  0  0  0
   57.5091   31.2210   49.3556 H   0  0  0  0  0  0  0  0  0  0  0  0
   59.1294   30.4719   47.6021 H   0  0  0  0  0  0  0  0  0  0  0  0
  1  2  1  0
  2  3  2  0
  3  4  1  0
  4  5  1  0
  4  6  2  0
  6  7  1  0
  7  8  2  0
  8  9  1  0
  9 10  2  0
 10 11  1  0
 11 12  2  0
 12 13  1  0
 13 14  1  0
 14 15  1  0
 15 16  2  0
 16 17  1  0
 17 18  2  0
 18 19  1  0
 19 20  2  0
 20 21  1  0
 21 22  1  0
 22 23  1  0
 23 24  1  0
 24 25  1  0
 20 26  1  0
 26 27  2  0
 13 28  2  0
  8  2  1  0
 28  9  1  0
 27 14  1  0
 27 17  1  0
  1 29  1  0
  1 30  1  0
  1 31  1  0
  3 32  1  0
  6 33  1  0
  7 34  1  0
 10 35  1  0
 11 36  1  0
 12 37  1  0
 15 38  1  0
 18 39  1  0
 19 40  1  0
 21 41  1  0
 21 42  1  0
 22 43  1  0
 23 44  1  0
 23 45  1  0
 24 46  1  0
 24 47  1  0
 25 48  1  0
 25 49  1  0
 26 50  1  0
 28 51  1  0
M  CHG  1  15   1
M  END
>  <UniqueID>  (4) 
4

>  <SMILES>  (4) 
Cc1cc(Cl)ccc1-c1cccc(-n2[nH+]nc3ccc(CNCCN)cc32)c1

>  <Energy>  (4) 
106.94885824070114

>  <Genealogy>  (4) 
Cc1cc(Cl)ccc1-c1cccc(-n2[nH+]nc3ccc(CNCCN)cc32)c1 (protonated)
Cc1cc(Cl)ccc1-c1cccc(-n2[nH+]nc3ccc(CNCCN)cc32)c1 (3D coordinates assigned)
Cc1cc(Cl)ccc1-c1cccc(-n2[nH+]nc3ccc(CNCCN)cc32)c1 (optimized conformer: 106.94885824070114 kcal/mol)

>  <smiles>  (4) 
Cc1cc(Cl)ccc1-c1cccc(-n2nnc3ccc(CNCCN)cc32)c1

>  <score_type>  (4) 
oracle

>  <origin>  (4) 
adg

>  <m_score__min__energy>  (4) 
-8.6500000000000004

>  <m_primary>  (4) 
energy

$$$$
4:0
     RDKit          3D

 31 32  0  0  0  0  0  0  0  0999 V2000
   66.9320   32.4430   50.4700 C   0  0  0  0  0  0  0  0  0  0  0  0
   66.1230   33.0750   49.4870 O   0  0  0  0  0  0  0  0  0  0  0  0
   64.7160   33.1130   49.4230 C   0  0  0  0  0  0  0  0  0  0  0  0
   64.1470   32.6470   48.2760 N   0  0  0  0  0  0  0  0  0  0  0  0
   62.8030   32.6290   48.0780 C   0  0  0  0  0  0  0  0  0  0  0  0
   61.9330   33.1000   49.0630 C   0  0  0  0  0  0  0  0  0  0  0  0
   60.5120   33.0780   48.8250 N   0  0  0  0  0  0  0  0  0  0  0  0
   59.6930   34.2660   48.5800 C   0  0  0  0  0  0  0  0  0  0  0  0
   59.0130   34.1760   47.2380 C   0  0  0  0  0  0  0  0  0  0  0  0
   57.8050   33.4740   47.0930 C   0  0  0  0  0  0  0  0  0  0  0  0
   57.1820   33.3930   45.8440 C   0  0  0  0  0  0  0  0  0  0  0  0
   57.7640   34.0040   44.7300 C   0  0  0  0  0  0  0  0  0  0  0  0
   58.9710   34.6940   44.8620 C   0  0  0  0  0  0  0  0  0  0  0  0
   59.5970   34.7780   46.1100 C   0  0  0  0  0  0  0  0  0  0  0  0
   62.4830   33.5780   50.2610 C   0  0  0  0  0  0  0  0  0  0  0  0
   63.8680   33.5940   50.4570 C   0  0  0  0  0  0  0  0  0  0  0  0
   64.4200   34.2230   52.0070 Cl  0  0  0  0  0  0  0  0  0  0  0  0
   66.5755   32.7215   51.4727 H   0  0  0  0  0  0  0  0  0  0  0  0
   66.8704   31.3514   50.3491 H   0  0  0  0  0  0  0  0  0  0  0  0
   67.9762   32.7670   50.3491 H   0  0  0  0  0  0  0  0  0  0  0  0
   64.7650   32.2890   47.5120 H   0  0  0  0  0  0  0  0  0  0  0  0
   62.3966   32.2397   47.1329 H   0  0  0  0  0  0  0  0  0  0  0  0
   60.0290   32.1500   48.7820 H   0  0  0  0  0  0  0  0  0  0  0  0
   58.9291   34.3467   49.3673 H   0  0  0  0  0  0  0  0  0  0  0  0
   60.3441   35.1526   48.5881 H   0  0  0  0  0  0  0  0  0  0  0  0
   57.3472   32.9858   47.9660 H   0  0  0  0  0  0  0  0  0  0  0  0
   56.2326   32.8477   45.7380 H   0  0  0  0  0  0  0  0  0  0  0  0
   57.2711   33.9414   43.7486 H   0  0  0  0  0  0  0  0  0  0  0  0
   59.4298   35.1718   43.9838 H   0  0  0  0  0  0  0  0  0  0  0  0
   60.5505   35.3175   46.2092 H   0  0  0  0  0  0  0  0  0  0  0  0
   61.8174   33.9448   51.0562 H   0  0  0  0  0  0  0  0  0  0  0  0
  1  2  1  0
  2  3  1  0
  3  4  2  0
  4  5  1  0
  5  6  2  0
  6  7  1  0
  7  8  1  0
  8  9  1  0
  9 10  2  0
 10 11  1  0
 11 12  2  0
 12 13  1  0
 13 14  2  0
  6 15  1  0
 15 16  2  0
 16 17  1  0
 16  3  1  0
 14  9  1  0
  1 18  1  0
  1 19  1  0
  1 20  1  0
  4 21  1  0
  5 22  1  0
  7 23  1  0
  8 24  1  0
  8 25  1  0
 10 26  1  0
 11 27  1  0
 12 28  1  0
 13 29  1  0
 14 30  1  0
 15 31  1  0
M  CHG  1   4   1
M  END
>  <UniqueID>  (5) 
5

>  <SMILES>  (5) 
COc1[nH+]cc(NCc2ccccc2)cc1Cl

>  <Energy>  (5) 
36.215153364497596

>  <Genealogy>  (5) 
COc1[nH+]cc(NCc2ccccc2)cc1Cl (protonated)
COc1[nH+]cc(NCc2ccccc2)cc1Cl (3D coordinates assigned)
COc1[nH+]cc(NCc2ccccc2)cc1Cl (optimized conformer: 36.215153364497596 kcal/mol)

>  <smiles>  (5) 
COc1ncc(NCc2ccccc2)cc1Cl

>  <score_type>  (5) 
oracle

>  <origin>  (5) 
adg

>  <m_score__min__energy>  (5) 
-4.6799999999999997

>  <m_primary>  (5) 
energy

$$$$
5:0
     RDKit          3D

 40 42  0  0  0  0  0  0  0  0999 V2000
   65.2870   32.0250   50.0560 C   0  0  0  0  0  0  0  0  0  0  0  0
   64.9600   33.2330   49.3800 O   0  0  0  0  0  0  0  0  0  0  0  0
   63.7260   33.4900   48.7610 C   0  0  0  0  0  0  0  0  0  0  0  0
   63.5760   33.4790   47.3600 C   0  0  0  0  0  0  0  0  0  0  0  0
   62.3290   33.7370   46.7810 C   0  0  0  0  0  0  0  0  0  0  0  0
   61.2120   33.9950   47.5860 C   0  0  0  0  0  0  0  0  0  0  0  0
   59.9460   34.2830   46.9650 N   0  0  0  0  0  0  0  0  0  0  0  0
   59.1430   33.3130   46.2700 C   0  0  0  0  0  0  0  0  0  0  0  0
   57.8750   33.6390   45.7770 C   0  0  0  0  0  0  0  0  0  0  0  0
   57.0970   32.6760   45.1400 C   0  0  0  0  0  0  0  0  0  0  0  0
   57.5570   31.3550   44.9900 C   0  0  0  0  0  0  0  0  0  0  0  0
   58.8530   31.0160   45.4760 C   0  0  0  0  0  0  0  0  0  0  0  0
   59.6110   32.0010   46.1370 C   0  0  0  0  0  0  0  0  0  0  0  0
   59.4670   29.6300   45.3430 C   0  0  0  0  0  0  0  0  0  0  0  0
   58.4590   28.4950   45.5880 C   0  0  0  0  0  0  0  0  0  0  0  0
   57.6940   28.0850   44.3190 C   0  0  0  0  0  0  0  0  0  0  0  0
   57.2000   29.2640   43.4770 C   0  0  0  0  0  0  0  0  0  0  0  0
   56.6580   30.3760   44.3230 C   0  0  0  0  0  0  0  0  0  0  0  0
   55.4090   30.4690   44.4710 O   0  0  0  0  0  0  0  0  0  0  0  0
   61.3650   34.0300   48.9810 C   0  0  0  0  0  0  0  0  0  0  0  0
   62.6110   33.7720   49.5650 C   0  0  0  0  0  0  0  0  0  0  0  0
   62.7640   33.8140   51.3150 Cl  0  0  0  0  0  0  0  0  0  0  0  0
   65.2425   32.1894   51.1427 H   0  0  0  0  0  0  0  0  0  0  0  0
   64.5688   31.2410   49.7740 H   0  0  0  0  0  0  0  0  0  0  0  0
   66.3026   31.7104   49.7740 H   0  0  0  0  0  0  0  0  0  0  0  0
   64.4438   33.2665   46.7184 H   0  0  0  0  0  0  0  0  0  0  0  0
   62.2248   33.7373   45.6859 H   0  0  0  0  0  0  0  0  0  0  0  0
   59.5860   35.2620   47.0260 H   0  0  0  0  0  0  0  0  0  0  0  0
   57.4901   34.6629   45.8934 H   0  0  0  0  0  0  0  0  0  0  0  0
   56.1071   32.9524   44.7479 H   0  0  0  0  0  0  0  0  0  0  0  0
   60.5916   31.7337   46.5577 H   0  0  0  0  0  0  0  0  0  0  0  0
   59.8730   29.5236   44.3262 H   0  0  0  0  0  0  0  0  0  0  0  0
   60.2494   29.5439   46.1114 H   0  0  0  0  0  0  0  0  0  0  0  0
   59.0042   27.6180   45.9671 H   0  0  0  0  0  0  0  0  0  0  0  0
   57.7187   28.8640   46.3131 H   0  0  0  0  0  0  0  0  0  0  0  0
   58.3620   27.4720   43.6962 H   0  0  0  0  0  0  0  0  0  0  0  0
   56.8001   27.5369   44.6514 H   0  0  0  0  0  0  0  0  0  0  0  0
   58.0398   29.6498   42.8804 H   0  0  0  0  0  0  0  0  0  0  0  0
   56.3850   28.9013   42.8333 H   0  0  0  0  0  0  0  0  0  0  0  0
   60.4999   34.2617   49.6197 H   0  0  0  0  0  0  0  0  0  0  0  0
  1  2  1  0
  2  3  1  0
  3  4  2  0
  4  5  1  0
  5  6  2  0
  6  7  1  0
  7  8  1  0
  8  9  2  0
  9 10  1  0
 10 11  2  0
 11 12  1  0
 12 13  2  0
 12 14  1  0
 14 15  1  0
 15 16  1  0
 16 17  1  0
 17 18  1  0
 18 19  2  0
  6 20  1  0
 20 21  2  0
 21 22  1  0
 21  3  1  0
 13  8  1  0
 18 11  1  0
  1 23  1  0
  1 24  1  0
  1 25  1  0
  4 26  1  0
  5 27  1  0
  7 28  1  0
  9 29  1  0
 10 30  1  0
 13 31  1  0
 14 32  1  0
 14 33  1  0
 15 34  1  0
 15 35  1  0
 16 36  1  0
 16 37  1  0
 17 38  1  0
 17 39  1  0
 20 40  1  0
M  END
>  <UniqueID>  (6) 
6

>  <SMILES>  (6) 
COc1ccc(Nc2ccc3c(c2)CCCCC3=O)cc1Cl

>  <Energy>  (6) 
53.74669807328655

>  <Genealogy>  (6) 
COc1ccc(Nc2ccc3c(c2)CCCCC3=O)cc1Cl (3D coordinates assigned)
COc1ccc(Nc2ccc3c(c2)CCCCC3=O)cc1Cl (nonaromatic ring conformer: 53.74669807328655 kcal/mol)

>  <smiles>  (6) 
COc1ccc(Nc2ccc3c(c2)CCCCC3=O)cc1Cl

>  <score_type>  (6) 
oracle

>  <origin>  (6) 
adg

>  <m_score__min__energy>  (6) 
-6.2599999999999998

>  <m_primary>  (6) 
energy

$$$$
6:0
     RDKit          3D

 57 59  0  0  0  0  0  0  0  0999 V2000
   56.3836   28.7367   42.6097 H   0  0  0  0  0  0  0  0  0  0  0  0
   56.8830   29.2730   43.4300 C   0  0  0  0  0  0  0  0  0  0  0  0
   57.4610   28.5430   44.3970 C   0  0  0  0  0  0  0  0  0  0  0  0
   57.1423   27.4954   44.5017 H   0  0  0  0  0  0  0  0  0  0  0  0
   58.4930   29.0390   45.3320 C   0  0  0  0  0  0  0  0  0  0  0  0
   58.2030   29.2310   46.6490 N   0  0  0  0  0  0  0  0  0  0  0  0
   59.1300   29.6710   47.5390 C   0  0  0  0  0  0  0  0  0  0  0  0
   58.7790   29.8760   48.8740 C   0  0  0  0  0  0  0  0  0  0  0  0
   57.7544   29.6598   49.2110 H   0  0  0  0  0  0  0  0  0  0  0  0
   59.7250   30.3550   49.7840 C   0  0  0  0  0  0  0  0  0  0  0  0
   59.4404   30.5119   50.8349 H   0  0  0  0  0  0  0  0  0  0  0  0
   61.0420   30.6390   49.3660 C   0  0  0  0  0  0  0  0  0  0  0  0
   62.0360   31.1620   50.2690 N   0  0  0  0  0  0  0  0  0  0  0  0
   61.8750   31.0520   51.2970 H   0  0  0  0  0  0  0  0  0  0  0  0
   63.3340   31.7100   49.8690 C   0  0  0  0  0  0  0  0  0  0  0  0
   63.7175   31.1355   49.0130 H   0  0  0  0  0  0  0  0  0  0  0  0
   64.0213   31.6369   50.7247 H   0  0  0  0  0  0  0  0  0  0  0  0
   63.2140   33.1840   49.4680 C   0  0  0  0  0  0  0  0  0  0  0  0
   64.1486   33.5028   48.9833 H   0  0  0  0  0  0  0  0  0  0  0  0
   63.0281   33.7808   50.3731 H   0  0  0  0  0  0  0  0  0  0  0  0
   62.0820   33.3860   48.5240 N   0  0  0  0  0  0  0  0  0  0  0  0
   62.5750   33.7170   47.1650 C   0  0  0  0  0  0  0  0  0  0  0  0
   62.8857   34.7720   47.1453 H   0  0  0  0  0  0  0  0  0  0  0  0
   61.7598   33.5337   46.4495 H   0  0  0  0  0  0  0  0  0  0  0  0
   63.7660   32.8410   46.7680 C   0  0  0  0  0  0  0  0  0  0  0  0
   64.2679   32.4718   47.6745 H   0  0  0  0  0  0  0  0  0  0  0  0
   63.4108   31.9873   46.1721 H   0  0  0  0  0  0  0  0  0  0  0  0
   64.4751   33.4344   46.1721 H   0  0  0  0  0  0  0  0  0  0  0  0
   61.1400   34.4170   49.0200 C   0  0  0  0  0  0  0  0  0  0  0  0
   61.6868   35.1314   49.6530 H   0  0  0  0  0  0  0  0  0  0  0  0
   60.6954   34.9348   48.1573 H   0  0  0  0  0  0  0  0  0  0  0  0
   60.0220   33.7760   49.8380 C   0  0  0  0  0  0  0  0  0  0  0  0
   60.2356   33.8985   50.9101 H   0  0  0  0  0  0  0  0  0  0  0  0
   59.0656   34.2630   49.5967 H   0  0  0  0  0  0  0  0  0  0  0  0
   59.9591   32.7046   49.5967 H   0  0  0  0  0  0  0  0  0  0  0  0
   61.3970   30.4050   48.0270 C   0  0  0  0  0  0  0  0  0  0  0  0
   62.4278   30.5968   47.6944 H   0  0  0  0  0  0  0  0  0  0  0  0
   60.4480   29.9290   47.1110 C   0  0  0  0  0  0  0  0  0  0  0  0
   60.7790   29.7040   45.7680 C   0  0  0  0  0  0  0  0  0  0  0  0
   61.8051   29.8852   45.4154 H   0  0  0  0  0  0  0  0  0  0  0  0
   59.8030   29.2490   44.8780 C   0  0  0  0  0  0  0  0  0  0  0  0
   60.0609   29.0564   43.8261 H   0  0  0  0  0  0  0  0  0  0  0  0
   56.8740   30.7500   43.3960 C   0  0  0  0  0  0  0  0  0  0  0  0
   57.0568   31.2710   42.4446 H   0  0  0  0  0  0  0  0  0  0  0  0
   56.6470   31.4630   44.5040 C   0  0  0  0  0  0  0  0  0  0  0  0
   55.7303   31.2588   45.0768 H   0  0  0  0  0  0  0  0  0  0  0  0
   57.5670   32.5150   45.0010 C   0  0  0  0  0  0  0  0  0  0  0  0
   58.4250   33.2340   44.1430 C   0  0  0  0  0  0  0  0  0  0  0  0
   58.4201   33.0245   43.0632 H   0  0  0  0  0  0  0  0  0  0  0  0
   59.2820   34.2120   44.6580 C   0  0  0  0  0  0  0  0  0  0  0  0
   59.9432   34.7736   43.9817 H   0  0  0  0  0  0  0  0  0  0  0  0
   59.3000   34.4770   46.0290 C   0  0  0  0  0  0  0  0  0  0  0  0
   59.9698   35.2515   46.4309 H   0  0  0  0  0  0  0  0  0  0  0  0
   58.4680   33.7590   46.8890 C   0  0  0  0  0  0  0  0  0  0  0  0
   58.4873   33.9646   47.9694 H   0  0  0  0  0  0  0  0  0  0  0  0
   57.6100   32.7790   46.3810 C   0  0  0  0  0  0  0  0  0  0  0  0
   56.9640   32.2105   47.0661 H   0  0  0  0  0  0  0  0  0  0  0  0
  1  2  1  0
  2  3  2  0
  3  4  1  0
  3  5  1  0
  5  6  2  0
  6  7  1  0
  7  8  2  0
  8  9  1  0
  8 10  1  0
 10 11  1  0
 10 12  2  0
 12 13  1  0
 13 14  1  0
 13 15  1  0
 15 16  1  0
 15 17  1  0
 15 18  1  0
 18 19  1  0
 18 20  1  0
 18 21  1  0
 21 22  1  0
 22 23  1  0
 22 24  1  0
 22 25  1  0
 25 26  1  0
 25 27  1  0
 25 28  1  0
 21 29  1  0
 29 30  1  0
 29 31  1  0
 29 32  1  0
 32 33  1  0
 32 34  1  0
 32 35  1  0
 12 36  1  0
 36 37  1  0
 36 38  2  0
 38 39  1  0
 39 40  1  0
 39 41  2  0
 41 42  1  0
  2 43  1  0
 43 44  1  0
 43 45  2  0
 45 46  1  0
 45 47  1  0
 47 48  2  0
 48 49  1  0
 48 50  1  0
 50 51  1  0
 50 52  2  0
 52 53  1  0
 52 54  1  0
 54 55  1  0
 54 56  2  0
 56 57  1  0
 41  5  1  0
 56 47  1  0
 38  7  1  0
M  END
>  <UniqueID>  (7) 
7

>  <SMILES>  (7) 
CCN(CC)CCNc1ccc2nc(/C=C\C=C\c3ccccc3)ccc2c1

>  <Energy>  (7) 
63.76913650713191

>  <Genealogy>  (7) 
CCN(CC)CCNc1ccc2nc(/C=C\C=C\c3ccccc3)ccc2c1 (cis-trans isomerization)
CCN(CC)CCNc1ccc2nc(/C=C\C=C\c3ccccc3)ccc2c1 (3D coordinates assigned)
CCN(CC)CCNc1ccc2nc(/C=C\C=C\c3ccccc3)ccc2c1 (optimized conformer: 63.76913650713191 kcal/mol)

>  <smiles>  (7) 
CCN(CC)CCNc1ccc2nc(C=CC=Cc3ccccc3)ccc2c1

>  <score_type>  (7) 
oracle

>  <origin>  (7) 
adg

>  <m_score__min__energy>  (7) 
-8.1400000000000006

>  <m_primary>  (7) 
energy

$$$$
7:0
     RDKit          3D

 44 45  0  0  0  0  0  0  0  0999 V2000
   58.7210   30.2330   51.7420 C   0  0  0  0  0  0  0  0  0  0  0  0
   58.2110   31.5870   51.4470 N   0  0  0  0  0  0  0  0  0  0  0  0
   56.7930   31.6710   51.8410 C   0  0  0  0  0  0  0  0  0  0  0  0
   58.9980   32.6260   52.1560 C   0  0  0  0  0  0  0  0  0  0  0  0
   59.3070   33.8380   51.2620 C   0  0  0  0  0  0  0  0  0  0  0  0
   59.6150   33.3670   49.8870 N   0  0  0  0  0  0  0  0  0  0  0  0
   59.8870   34.4910   48.9650 C   0  0  0  0  0  0  0  0  0  0  0  0
   59.2560   34.2390   47.6200 C   0  0  0  0  0  0  0  0  0  0  0  0
   58.1520   33.3790   47.4950 C   0  0  0  0  0  0  0  0  0  0  0  0
   57.6100   33.1060   46.2360 C   0  0  0  0  0  0  0  0  0  0  0  0
   58.1640   33.6910   45.0930 C   0  0  0  0  0  0  0  0  0  0  0  0
   57.6380   33.4230   43.8720 F   0  0  0  0  0  0  0  0  0  0  0  0
   59.2630   34.5480   45.2090 C   0  0  0  0  0  0  0  0  0  0  0  0
   59.8090   34.8200   46.4660 C   0  0  0  0  0  0  0  0  0  0  0  0
   60.7340   32.4000   49.8750 C   0  0  0  0  0  0  0  0  0  0  0  0
   60.6290   31.4900   48.6700 C   0  0  0  0  0  0  0  0  0  0  0  0
   59.5770   30.5640   48.6160 C   0  0  0  0  0  0  0  0  0  0  0  0
   59.4580   29.6940   47.5340 C   0  0  0  0  0  0  0  0  0  0  0  0
   60.3940   29.7550   46.5030 C   0  0  0  0  0  0  0  0  0  0  0  0
   61.4080   30.6560   46.5600 N   0  0  0  0  0  0  0  0  0  0  0  0
   61.5550   31.5190   47.6020 C   0  0  0  0  0  0  0  0  0  0  0  0
   63.0360   32.7340   47.5410 Br  0  0  0  0  0  0  0  0  0  0  0  0
   58.7746   30.0907   52.8314 H   0  0  0  0  0  0  0  0  0  0  0  0
   58.0437   29.4833   51.3072 H   0  0  0  0  0  0  0  0  0  0  0  0
   59.7247   30.1164   51.3072 H   0  0  0  0  0  0  0  0  0  0  0  0
   58.2630   31.7450   50.4120 H   0  0  0  0  0  0  0  0  0  0  0  0
   56.7170   31.6755   52.9384 H   0  0  0  0  0  0  0  0  0  0  0  0
   56.3550   32.5967   51.4393 H   0  0  0  0  0  0  0  0  0  0  0  0
   56.2488   30.8035   51.4393 H   0  0  0  0  0  0  0  0  0  0  0  0
   58.4246   32.9686   53.0300 H   0  0  0  0  0  0  0  0  0  0  0  0
   59.9563   32.1759   52.4543 H   0  0  0  0  0  0  0  0  0  0  0  0
   58.4340   34.5067   51.2346 H   0  0  0  0  0  0  0  0  0  0  0  0
   60.1716   34.3843   51.6671 H   0  0  0  0  0  0  0  0  0  0  0  0
   59.4723   35.4164   49.3911 H   0  0  0  0  0  0  0  0  0  0  0  0
   60.9750   34.5864   48.8338 H   0  0  0  0  0  0  0  0  0  0  0  0
   57.7123   32.9185   48.3920 H   0  0  0  0  0  0  0  0  0  0  0  0
   56.7468   32.4303   46.1441 H   0  0  0  0  0  0  0  0  0  0  0  0
   59.6980   35.0084   44.3097 H   0  0  0  0  0  0  0  0  0  0  0  0
   60.6756   35.4919   46.5528 H   0  0  0  0  0  0  0  0  0  0  0  0
   61.6868   32.9481   49.8339 H   0  0  0  0  0  0  0  0  0  0  0  0
   60.6894   31.7898   50.7892 H   0  0  0  0  0  0  0  0  0  0  0  0
   58.8413   30.5243   49.4328 H   0  0  0  0  0  0  0  0  0  0  0  0
   58.6338   28.9666   47.4939 H   0  0  0  0  0  0  0  0  0  0  0  0
   60.3112   29.0735   45.6436 H   0  0  0  0  0  0  0  0  0  0  0  0
  1  2  1  0
  2  3  1  0
  2  4  1  0
  4  5  1  0
  5  6  1  0
  6  7  1  0
  7  8  1  0
  8  9  2  0
  9 10  1  0
 10 11  2  0
 11 12  1  0
 11 13  1  0
 13 14  2  0
  6 15  1  0
 15 16  1  0
 16 17  2  0
 17 18  1  0
 18 19  2  0
 19 20  1  0
 20 21  2  0
 21 22  1  0
 14  8  1  0
 21 16  1  0
  1 23  1  0
  1 24  1  0
  1 25  1  0
  2 26  1  0
  3 27  1  0
  3 28  1  0
  3 29  1  0
  4 30  1  0
  4 31  1  0
  5 32  1  0
  5 33  1  0
  7 34  1  0
  7 35  1  0
  9 36  1  0
 10 37  1  0
 13 38  1  0
 14 39  1  0
 15 40  1  0
 15 41  1  0
 17 42  1  0
 18 43  1  0
 19 44  1  0
M  CHG  1   2   1
M  END
>  <UniqueID>  (8) 
8

>  <SMILES>  (8) 
C[NH+](C)CCN(Cc1ccc(F)cc1)Cc1cccnc1Br

>  <Energy>  (8) 
47.35859867498605

>  <Genealogy>  (8) 
C[NH+](C)CCN(Cc1ccc(F)cc1)Cc1cccnc1Br (protonated)
C[NH+](C)CCN(Cc1ccc(F)cc1)Cc1cccnc1Br (3D coordinates assigned)
C[NH+](C)CCN(Cc1ccc(F)cc1)Cc1cccnc1Br (optimized conformer: 47.35859867498605 kcal/mol)

>  <smiles>  (8) 
CN(C)CCN(Cc1ccc(F)cc1)Cc1cccnc1Br

>  <score_type>  (8) 
oracle

>  <origin>  (8) 
adg

>  <m_score__min__energy>  (8) 
-4.71

>  <m_primary>  (8) 
energy

$$$$
8:0
     RDKit          3D

 47 49  0  0  0  0  0  0  0  0999 V2000
   59.0620   30.0560   47.1690 C   0  0  0  0  0  0  0  0  0  0  0  0
   58.1700   31.1490   46.9790 O   0  0  0  0  0  0  0  0  0  0  0  0
   58.5600   32.4300   46.5600 C   0  0  0  0  0  0  0  0  0  0  0  0
   59.5920   33.1450   47.1990 C   0  0  0  0  0  0  0  0  0  0  0  0
   59.9500   34.4180   46.7500 C   0  0  0  0  0  0  0  0  0  0  0  0
   59.2880   34.9900   45.6630 C   0  0  0  0  0  0  0  0  0  0  0  0
   58.2630   34.2900   45.0200 C   0  0  0  0  0  0  0  0  0  0  0  0
   57.8930   33.0050   45.4660 C   0  0  0  0  0  0  0  0  0  0  0  0
   56.8700   32.2690   44.8500 O   0  0  0  0  0  0  0  0  0  0  0  0
   57.0560   31.3830   43.7490 C   0  0  0  0  0  0  0  0  0  0  0  0
   56.9140   29.9810   44.2300 C   0  0  0  0  0  0  0  0  0  0  0  0
   55.8630   29.5420   44.9490 N   0  0  0  0  0  0  0  0  0  0  0  0
   56.1560   28.3140   45.2480 O   0  0  0  0  0  0  0  0  0  0  0  0
   57.3300   28.0070   44.7530 C   0  0  0  0  0  0  0  0  0  0  0  0
   58.0060   26.6780   44.9340 C   0  0  0  0  0  0  0  0  0  0  0  0
   57.1110   25.5360   44.6480 N   0  0  0  0  0  0  0  0  0  0  0  0
   57.4060   24.9010   43.3430 C   0  0  0  0  0  0  0  0  0  0  0  0
   56.4880   23.6990   43.1080 C   0  0  0  0  0  0  0  0  0  0  0  0
   56.6710   22.6220   44.1920 C   0  0  0  0  0  0  0  0  0  0  0  0
   57.3570   23.1530   45.4620 C   0  0  0  0  0  0  0  0  0  0  0  0
   56.9400   24.6030   45.7990 C   0  0  2  0  0  0  0  0  0  0  0  0
   55.4850   24.6620   46.2880 C   0  0  0  0  0  0  0  0  0  0  0  0
   54.9340   25.9140   45.9850 O   0  0  0  0  0  0  0  0  0  0  0  0
   57.8750   29.0460   44.0880 N   0  0  0  0  0  0  0  0  0  0  0  0
   59.2042   29.8817   48.2457 H   0  0  0  0  0  0  0  0  0  0  0  0
   58.6397   29.1530   46.7040 H   0  0  0  0  0  0  0  0  0  0  0  0
   60.0314   30.2887   46.7040 H   0  0  0  0  0  0  0  0  0  0  0  0
   60.1183   32.6985   48.0556 H   0  0  0  0  0  0  0  0  0  0  0  0
   60.7559   34.9712   47.2545 H   0  0  0  0  0  0  0  0  0  0  0  0
   59.5730   35.9927   45.3117 H   0  0  0  0  0  0  0  0  0  0  0  0
   57.7434   34.7435   44.1631 H   0  0  0  0  0  0  0  0  0  0  0  0
   56.2985   31.5876   42.9781 H   0  0  0  0  0  0  0  0  0  0  0  0
   58.0570   31.5297   43.3171 H   0  0  0  0  0  0  0  0  0  0  0  0
   58.8690   26.6271   44.2538 H   0  0  0  0  0  0  0  0  0  0  0  0
   58.3121   26.6030   45.9879 H   0  0  0  0  0  0  0  0  0  0  0  0
   57.2509   25.6366   42.5399 H   0  0  0  0  0  0  0  0  0  0  0  0
   58.4499   24.5543   43.3457 H   0  0  0  0  0  0  0  0  0  0  0  0
   55.4427   24.0414   43.1186 H   0  0  0  0  0  0  0  0  0  0  0  0
   56.7475   23.2544   42.1359 H   0  0  0  0  0  0  0  0  0  0  0  0
   55.6805   22.2306   44.4670 H   0  0  0  0  0  0  0  0  0  0  0  0
   57.3209   21.8407   43.7710 H   0  0  0  0  0  0  0  0  0  0  0  0
   57.0864   22.5028   46.3070 H   0  0  0  0  0  0  0  0  0  0  0  0
   58.4420   23.1512   45.2810 H   0  0  0  0  0  0  0  0  0  0  0  0
   57.6145   24.9313   46.6036 H   0  0  0  0  0  0  0  0  0  0  0  0
   54.8999   23.8750   45.7897 H   0  0  0  0  0  0  0  0  0  0  0  0
   55.4608   24.5079   47.3769 H   0  0  0  0  0  0  0  0  0  0  0  0
   55.4730   26.2780   45.2360 H   0  0  0  0  0  0  0  0  0  0  0  0
  1  2  1  0
  2  3  1  0
  3  4  2  0
  4  5  1  0
  5  6  2  0
  6  7  1  0
  7  8  2  0
  8  9  1  0
  9 10  1  0
 10 11  1  0
 11 12  2  0
 12 13  1  0
 13 14  1  0
 14 15  1  0
 15 16  1  0
 16 17  1  0
 17 18  1  0
 18 19  1  0
 19 20  1  0
 20 21  1  0
 21 22  1  0
 22 23  1  0
 14 24  2  0
  8  3  1  0
 24 11  1  0
 21 16  1  0
  1 25  1  0
  1 26  1  0
  1 27  1  0
  4 28  1  0
  5 29  1  0
  6 30  1  0
  7 31  1  0
 10 32  1  0
 10 33  1  0
 15 34  1  0
 15 35  1  0
 17 36  1  0
 17 37  1  0
 18 38  1  0
 18 39  1  0
 19 40  1  0
 19 41  1  0
 20 42  1  0
 20 43  1  0
 21 44  1  1
 22 45  1  0
 22 46  1  0
 23 47  1  0
M  END
>  <UniqueID>  (9) 
9

>  <SMILES>  (9) 
COc1ccccc1OCc1noc(CN2CCCC[C@@H]2CO)n1

>  <Energy>  (9) 
84.78986658817952

>  <Genealogy>  (9) 
COc1ccccc1OCc1noc(CN2CCCC[C@@H]2CO)n1 (chirality)
COc1ccccc1OCc1noc(CN2CCCC[C@@H]2CO)n1 (3D coordinates assigned)
COc1ccccc1OCc1noc(CN2CCCC[C@@H]2CO)n1 (nonaromatic ring conformer: 84.78986658817952 kcal/mol)

>  <smiles>  (9) 
COc1ccccc1OCc1noc(CN2CCCCC2CO)n1

>  <score_type>  (9) 
oracle

>  <origin>  (9) 
adg

>  <m_score__min__energy>  (9) 
-8.1799999999999997

>  <m_primary>  (9) 
energy

$$$$
9:0
     RDKit          3D

 49 52  0  0  0  0  0  0  0  0999 V2000
   59.9490   28.8960   47.4780 C   0  0  0  0  0  0  0  0  0  0  0  0
   58.5340   29.4270   47.6630 C   0  0  0  0  0  0  0  0  0  0  0  0
   58.2850   30.5400   46.7410 N   0  0  0  0  0  0  0  0  0  0  0  0
   57.8540   30.4660   45.4560 C   0  0  0  0  0  0  0  0  0  0  0  0
   57.5140   29.3220   44.7260 C   0  0  0  0  0  0  0  0  0  0  0  0
   57.0970   29.4870   43.3930 C   0  0  0  0  0  0  0  0  0  0  0  0
   57.0320   30.7740   42.8150 C   0  0  0  0  0  0  0  0  0  0  0  0
   57.3860   31.9110   43.5610 C   0  0  0  0  0  0  0  0  0  0  0  0
   57.7930   31.7200   44.8800 C   0  0  0  0  0  0  0  0  0  0  0  0
   58.2170   32.6090   45.8400 C   0  0  0  0  0  0  0  0  0  0  0  0
   58.3790   33.9900   45.8080 C   0  0  0  0  0  0  0  0  0  0  0  0
   58.8640   34.6210   46.9640 C   0  0  0  0  0  0  0  0  0  0  0  0
   59.1810   33.8690   48.1290 C   0  0  0  0  0  0  0  0  0  0  0  0
   59.6640   34.5010   49.3300 N   0  0  0  0  0  0  0  0  0  0  0  0
   60.2720   33.7840   50.4510 C   0  0  0  0  0  0  0  0  0  0  0  0
   59.2710   33.5860   51.5590 C   0  0  0  0  0  0  0  0  0  0  0  0
   58.6480   34.5530   51.9770 O   0  0  0  0  0  0  0  0  0  0  0  0
   59.0570   32.2720   52.1380 N   0  0  0  0  0  0  0  0  0  0  0  0
   59.3060   31.2240   51.1190 C   0  0  0  0  0  0  0  0  0  0  0  0
   58.5570   29.9290   51.4760 C   0  0  0  0  0  0  0  0  0  0  0  0
   57.1450   30.0820   51.5450 O   0  0  0  0  0  0  0  0  0  0  0  0
   56.7250   31.4060   51.8470 C   0  0  0  0  0  0  0  0  0  0  0  0
   57.7090   32.1690   52.7530 C   0  0  0  0  0  0  0  0  0  0  0  0
   59.0130   32.4670   48.1170 C   0  0  0  0  0  0  0  0  0  0  0  0
   58.5180   31.8600   46.9590 C   0  0  0  0  0  0  0  0  0  0  0  0
   60.4077   28.7239   48.4629 H   0  0  0  0  0  0  0  0  0  0  0  0
   59.9152   27.9494   46.9187 H   0  0  0  0  0  0  0  0  0  0  0  0
   60.5463   29.6312   46.9187 H   0  0  0  0  0  0  0  0  0  0  0  0
   57.8141   28.6202   47.4611 H   0  0  0  0  0  0  0  0  0  0  0  0
   58.4177   29.7849   48.6966 H   0  0  0  0  0  0  0  0  0  0  0  0
   57.5712   28.3223   45.1814 H   0  0  0  0  0  0  0  0  0  0  0  0
   56.8191   28.6062   42.7955 H   0  0  0  0  0  0  0  0  0  0  0  0
   56.7015   30.8873   41.7720 H   0  0  0  0  0  0  0  0  0  0  0  0
   57.3433   32.9174   43.1189 H   0  0  0  0  0  0  0  0  0  0  0  0
   58.1348   34.5693   44.9053 H   0  0  0  0  0  0  0  0  0  0  0  0
   59.0009   35.7124   46.9692 H   0  0  0  0  0  0  0  0  0  0  0  0
   59.6470   35.5440   49.3860 H   0  0  0  0  0  0  0  0  0  0  0  0
   60.6253   32.8020   50.1032 H   0  0  0  0  0  0  0  0  0  0  0  0
   61.1147   34.3769   50.8361 H   0  0  0  0  0  0  0  0  0  0  0  0
   59.7590   32.1340   52.9040 H   0  0  0  0  0  0  0  0  0  0  0  0
   58.9587   31.5835   50.1391 H   0  0  0  0  0  0  0  0  0  0  0  0
   60.3847   31.0111   51.0873 H   0  0  0  0  0  0  0  0  0  0  0  0
   58.7868   29.1734   50.7103 H   0  0  0  0  0  0  0  0  0  0  0  0
   58.8957   29.6296   52.4788 H   0  0  0  0  0  0  0  0  0  0  0  0
   56.6177   31.9613   50.9036 H   0  0  0  0  0  0  0  0  0  0  0  0
   55.7741   31.3277   52.3944 H   0  0  0  0  0  0  0  0  0  0  0  0
   57.3191   33.1825   52.9284 H   0  0  0  0  0  0  0  0  0  0  0  0
   57.8053   31.6139   53.6978 H   0  0  0  0  0  0  0  0  0  0  0  0
   59.2667   31.8642   49.0015 H   0  0  0  0  0  0  0  0  0  0  0  0
  1  2  1  0
  2  3  1  0
  3  4  1  0
  4  5  2  0
  5  6  1  0
  6  7  2  0
  7  8  1  0
  8  9  2  0
  9 10  1  0
 10 11  2  0
 11 12  1  0
 12 13  2  0
 13 14  1  0
 14 15  1  0
 15 16  1  0
 16 17  2  0
 16 18  1  0
 18 19  1  0
 19 20  1  0
 20 21  1  0
 21 22  1  0
 22 23  1  0
 13 24  1  0
 24 25  2  0
 25  3  1  0
  9  4  1  0
 25 10  1  0
 23 18  1  0
  1 26  1  0
  1 27  1  0
  1 28  1  0
  2 29  1  0
  2 30  1  0
  5 31  1  0
  6 32  1  0
  7 33  1  0
  8 34  1  0
 11 35  1  0
 12 36  1  0
 14 37  1  0
 15 38  1  0
 15 39  1  0
 18 40  1  0
 19 41  1  0
 19 42  1  0
 20 43  1  0
 20 44  1  0
 22 45  1  0
 22 46  1  0
 23 47  1  0
 23 48  1  0
 24 49  1  0
M  CHG  1  18   1
M  END
>  <UniqueID>  (10) 
10

>  <SMILES>  (10) 
CCn1c2ccccc2c2ccc(NCC(=O)[NH+]3CCOCC3)cc21

>  <Energy>  (10) 
102.66194437626132

>  <Genealogy>  (10) 
CCn1c2ccccc2c2ccc(NCC(=O)[NH+]3CCOCC3)cc21 (protonated)
CCn1c2ccccc2c2ccc(NCC(=O)[NH+]3CCOCC3)cc21 (3D coordinates assigned)
CCn1c2ccccc2c2ccc(NCC(=O)[NH+]3CCOCC3)cc21 (nonaromatic ring conformer: 102.66194437626132 kcal/mol)

>  <smiles>  (10) 
CCn1c2ccccc2c2ccc(NCC(=O)N3CCOCC3)cc21

>  <score_type>  (10) 
oracle

>  <origin>  (10) 
adg

>  <m_score__min__energy>  (10) 
-7.1100000000000003

>  <m_primary>  (10) 
energy

$$$$
10:0
     RDKit          3D

 51 54  0  0  0  0  0  0  0  0999 V2000
   58.5940   34.2430   52.9490 C   0  0  0  0  0  0  0  0  0  0  0  0
   58.1640   33.4830   51.8220 O   0  0  0  0  0  0  0  0  0  0  0  0
   59.0180   33.0030   50.8200 C   0  0  0  0  0  0  0  0  0  0  0  0
   59.0180   31.6300   50.5540 C   0  0  0  0  0  0  0  0  0  0  0  0
   59.8460   31.0930   49.5650 C   0  0  0  0  0  0  0  0  0  0  0  0
   60.6850   31.9320   48.8100 C   0  0  0  0  0  0  0  0  0  0  0  0
   61.5260   31.4370   47.7900 C   0  0  0  0  0  0  0  0  0  0  0  0
   61.5380   30.0830   47.4240 O   0  0  0  0  0  0  0  0  0  0  0  0
   60.4780   29.4260   46.7790 C   0  0  0  0  0  0  0  0  0  0  0  0
   60.0660   28.1300   47.1440 C   0  0  0  0  0  0  0  0  0  0  0  0
   59.0090   27.5120   46.4700 C   0  0  0  0  0  0  0  0  0  0  0  0
   58.3510   28.1800   45.4340 C   0  0  0  0  0  0  0  0  0  0  0  0
   58.7510   29.4720   45.0590 C   0  0  0  0  0  0  0  0  0  0  0  0
   58.0270   30.2010   43.9570 C   0  0  0  0  0  0  0  0  0  0  0  0
   57.0080   31.1790   44.4960 C   0  0  0  0  0  0  0  0  0  0  0  0
   55.8200   30.8760   44.4930 O   0  0  0  0  0  0  0  0  0  0  0  0
   57.4240   32.4980   44.9360 N   0  0  0  0  0  0  0  0  0  0  0  0
   58.5160   33.0170   44.0820 C   0  0  0  0  0  0  0  0  0  0  0  0
   59.1790   34.2620   44.7150 C   0  0  0  0  0  0  0  0  0  0  0  0
   58.3760   34.7980   45.7490 O   0  0  0  0  0  0  0  0  0  0  0  0
   58.2880   33.8720   46.8200 C   0  0  0  0  0  0  0  0  0  0  0  0
   57.8340   32.4670   46.3530 C   0  0  0  0  0  0  0  0  0  0  0  0
   59.8060   30.0960   45.7480 C   0  0  0  0  0  0  0  0  0  0  0  0
   62.3890   32.3150   47.1250 C   0  0  0  0  0  0  0  0  0  0  0  0
   62.3790   33.6720   47.4430 C   0  0  0  0  0  0  0  0  0  0  0  0
   61.5420   34.1420   48.4030 N   0  0  0  0  0  0  0  0  0  0  0  0
   60.7050   33.3180   49.0910 C   0  0  0  0  0  0  0  0  0  0  0  0
   59.8720   33.8470   50.0840 C   0  0  0  0  0  0  0  0  0  0  0  0
   58.3009   33.7249   53.8740 H   0  0  0  0  0  0  0  0  0  0  0  0
   59.6881   34.3529   52.9213 H   0  0  0  0  0  0  0  0  0  0  0  0
   58.1247   35.2375   52.9213 H   0  0  0  0  0  0  0  0  0  0  0  0
   58.3582   30.9649   51.1304 H   0  0  0  0  0  0  0  0  0  0  0  0
   59.8416   30.0094   49.3761 H   0  0  0  0  0  0  0  0  0  0  0  0
   60.5777   27.6022   47.9623 H   0  0  0  0  0  0  0  0  0  0  0  0
   58.6944   26.4974   46.7558 H   0  0  0  0  0  0  0  0  0  0  0  0
   57.5162   27.6913   44.9103 H   0  0  0  0  0  0  0  0  0  0  0  0
   58.7629   30.7523   43.3532 H   0  0  0  0  0  0  0  0  0  0  0  0
   57.4926   29.4545   43.3511 H   0  0  0  0  0  0  0  0  0  0  0  0
   56.6080   33.1540   44.8560 H   0  0  0  0  0  0  0  0  0  0  0  0
   59.2758   32.2318   43.9548 H   0  0  0  0  0  0  0  0  0  0  0  0
   58.0898   33.3063   43.1101 H   0  0  0  0  0  0  0  0  0  0  0  0
   60.1562   33.9758   45.1311 H   0  0  0  0  0  0  0  0  0  0  0  0
   59.2995   35.0277   43.9345 H   0  0  0  0  0  0  0  0  0  0  0  0
   59.2774   33.7841   47.2926 H   0  0  0  0  0  0  0  0  0  0  0  0
   57.5343   34.2491   47.5270 H   0  0  0  0  0  0  0  0  0  0  0  0
   58.6676   31.7594   46.4727 H   0  0  0  0  0  0  0  0  0  0  0  0
   56.9756   32.1506   46.9637 H   0  0  0  0  0  0  0  0  0  0  0  0
   60.1063   31.1185   45.4754 H   0  0  0  0  0  0  0  0  0  0  0  0
   63.0740   31.9350   46.3527 H   0  0  0  0  0  0  0  0  0  0  0  0
   63.0512   34.3641   46.9146 H   0  0  0  0  0  0  0  0  0  0  0  0
   59.8846   34.9274   50.2904 H   0  0  0  0  0  0  0  0  0  0  0  0
  1  2  1  0
  2  3  1  0
  3  4  2  0
  4  5  1  0
  5  6  2  0
  6  7  1  0
  7  8  1  0
  8  9  1  0
  9 10  2  0
 10 11  1  0
 11 12  2  0
 12 13  1  0
 13 14  1  0
 14 15  1  0
 15 16  2  0
 15 17  1  0
 17 18  1  0
 18 19  1  0
 19 20  1  0
 20 21  1  0
 21 22  1  0
 13 23  2  0
  7 24  2  0
 24 25  1  0
 25 26  2  0
 26 27  1  0
 27 28  2  0
 28  3  1  0
 27  6  1  0
 23  9  1  0
 22 17  1  0
  1 29  1  0
  1 30  1  0
  1 31  1  0
  4 32  1  0
  5 33  1  0
 10 34  1  0
 11 35  1  0
 12 36  1  0
 14 37  1  0
 14 38  1  0
 17 39  1  0
 18 40  1  0
 18 41  1  0
 19 42  1  0
 19 43  1  0
 21 44  1  0
 21 45  1  0
 22 46  1  0
 22 47  1  0
 23 48  1  0
 24 49  1  0
 25 50  1  0
 28 51  1  0
M  CHG  1  17   1
M  END
>  <UniqueID>  (11) 
11

>  <SMILES>  (11) 
COc1ccc2c(Oc3cccc(CC(=O)[NH+]4CCOCC4)c3)ccnc2c1

>  <Energy>  (11) 
75.66421357590563

>  <Genealogy>  (11) 
COc1ccc2c(Oc3cccc(CC(=O)[NH+]4CCOCC4)c3)ccnc2c1 (protonated)
COc1ccc2c(Oc3cccc(CC(=O)[NH+]4CCOCC4)c3)ccnc2c1 (3D coordinates assigned)
COc1ccc2c(Oc3cccc(CC(=O)[NH+]4CCOCC4)c3)ccnc2c1 (nonaromatic ring conformer: 75.66421357590563 kcal/mol)

>  <smiles>  (11) 
COc1ccc2c(Oc3cccc(CC(=O)N4CCOCC4)c3)ccnc2c1

>  <score_type>  (11) 
oracle

>  <origin>  (11) 
adg

>  <m_score__min__energy>  (11) 
-7.0300000000000002

>  <m_primary>  (11) 
energy

$$$$
11:0
     RDKit          3D

 52 55  0  0  0  0  0  0  0  0999 V2000
   57.4400   32.3150   41.3370 C   0  0  0  0  0  0  0  0  0  0  0  0
   56.6750   31.5200   42.2380 O   0  0  0  0  0  0  0  0  0  0  0  0
   57.2230   30.7530   43.2770 C   0  0  0  0  0  0  0  0  0  0  0  0
   58.4780   31.0370   43.8420 C   0  0  0  0  0  0  0  0  0  0  0  0
   58.9770   30.2590   44.8890 C   0  0  0  0  0  0  0  0  0  0  0  0
   58.2340   29.1720   45.3900 C   0  0  0  0  0  0  0  0  0  0  0  0
   58.6830   28.3510   46.4540 C   0  0  0  0  0  0  0  0  0  0  0  0
   59.9820   28.6070   47.1990 C   0  0  0  0  0  0  0  0  0  0  0  0
   60.0720   30.0130   47.6610 N   0  0  0  0  0  0  0  0  0  0  0  0
   61.2910   30.6510   47.1340 C   0  0  0  0  0  0  0  0  0  0  0  0
   61.2550   32.1650   47.4010 C   0  0  0  0  0  0  0  0  0  0  0  0
   60.7080   32.5020   48.7340 N   0  0  0  0  0  0  0  0  0  0  0  0
   59.5710   33.4490   48.7530 C   0  0  0  0  0  0  0  0  0  0  0  0
   58.9880   33.7280   47.3860 C   0  0  0  0  0  0  0  0  0  0  0  0
   59.6410   34.6020   46.5000 C   0  0  0  0  0  0  0  0  0  0  0  0
   59.0980   34.8670   45.2390 C   0  0  0  0  0  0  0  0  0  0  0  0
   57.9140   34.2430   44.8420 C   0  0  0  0  0  0  0  0  0  0  0  0
   57.2700   33.3520   45.7050 C   0  0  0  0  0  0  0  0  0  0  0  0
   57.8030   33.0930   46.9710 C   0  0  0  0  0  0  0  0  0  0  0  0
   60.6510   31.3970   49.7110 C   0  0  0  0  0  0  0  0  0  0  0  0
   60.0380   30.0950   49.1430 C   0  0  0  0  0  0  0  0  0  0  0  0
   57.8640   27.2940   46.8750 C   0  0  0  0  0  0  0  0  0  0  0  0
   56.6390   27.0770   46.2430 C   0  0  0  0  0  0  0  0  0  0  0  0
   55.8980   26.1300   46.6160 O   0  0  0  0  0  0  0  0  0  0  0  0
   56.2430   27.8660   45.2520 O   0  0  0  0  0  0  0  0  0  0  0  0
   56.9740   28.8840   44.8100 C   0  0  0  0  0  0  0  0  0  0  0  0
   56.4840   29.6720   43.7640 C   0  0  0  0  0  0  0  0  0  0  0  0
   58.0918   32.9923   41.9083 H   0  0  0  0  0  0  0  0  0  0  0  0
   58.0567   31.6605   40.7034 H   0  0  0  0  0  0  0  0  0  0  0  0
   56.7623   32.9061   40.7034 H   0  0  0  0  0  0  0  0  0  0  0  0
   59.0720   31.8788   43.4565 H   0  0  0  0  0  0  0  0  0  0  0  0
   59.9581   30.4969   45.3260 H   0  0  0  0  0  0  0  0  0  0  0  0
   60.0316   27.9395   48.0719 H   0  0  0  0  0  0  0  0  0  0  0  0
   60.8192   28.4138   46.5121 H   0  0  0  0  0  0  0  0  0  0  0  0
   59.2480   30.5300   47.2770 H   0  0  0  0  0  0  0  0  0  0  0  0
   62.1719   30.2156   47.6283 H   0  0  0  0  0  0  0  0  0  0  0  0
   61.3462   30.4788   46.0490 H   0  0  0  0  0  0  0  0  0  0  0  0
   62.2802   32.5579   47.3328 H   0  0  0  0  0  0  0  0  0  0  0  0
   60.5923   32.6172   46.6484 H   0  0  0  0  0  0  0  0  0  0  0  0
   58.7786   33.0272   49.3888 H   0  0  0  0  0  0  0  0  0  0  0  0
   59.9556   34.4045   49.1391 H   0  0  0  0  0  0  0  0  0  0  0  0
   60.5849   35.0804   46.8003 H   0  0  0  0  0  0  0  0  0  0  0  0
   59.6043   35.5679   44.5591 H   0  0  0  0  0  0  0  0  0  0  0  0
   57.4878   34.4526   43.8498 H   0  0  0  0  0  0  0  0  0  0  0  0
   56.3422   32.8537   45.3874 H   0  0  0  0  0  0  0  0  0  0  0  0
   57.2936   32.3895   47.6460 H   0  0  0  0  0  0  0  0  0  0  0  0
   61.6748   31.1798   50.0496 H   0  0  0  0  0  0  0  0  0  0  0  0
   59.9983   31.7277   50.5323 H   0  0  0  0  0  0  0  0  0  0  0  0
   60.5991   29.2411   49.5505 H   0  0  0  0  0  0  0  0  0  0  0  0
   58.9789   30.0836   49.4401 H   0  0  0  0  0  0  0  0  0  0  0  0
   58.1851   26.6395   47.6987 H   0  0  0  0  0  0  0  0  0  0  0  0
   55.5054   29.4381   43.3194 H   0  0  0  0  0  0  0  0  0  0  0  0
  1  2  1  0
  2  3  1  0
  3  4  2  0
  4  5  1  0
  5  6  2  0
  6  7  1  0
  7  8  1  0
  8  9  1  0
  9 10  1  0
 10 11  1  0
 11 12  1  0
 12 13  1  0
 13 14  1  0
 14 15  2  0
 15 16  1  0
 16 17  2  0
 17 18  1  0
 18 19  2  0
 12 20  1  0
 20 21  1  0
  7 22  2  0
 22 23  1  0
 23 24  2  0
 23 25  1  0
 25 26  1  0
 26 27  2  0
 27  3  1  0
 26  6  1  0
 21  9  1  0
 19 14  1  0
  1 28  1  0
  1 29  1  0
  1 30  1  0
  4 31  1  0
  5 32  1  0
  8 33  1  0
  8 34  1  0
  9 35  1  0
 10 36  1  0
 10 37  1  0
 11 38  1  0
 11 39  1  0
 13 40  1  0
 13 41  1  0
 15 42  1  0
 16 43  1  0
 17 44  1  0
 18 45  1  0
 19 46  1  0
 20 47  1  0
 20 48  1  0
 21 49  1  0
 21 50  1  0
 22 51  1  0
 27 52  1  0
M  CHG  1   9   1
M  END
>  <UniqueID>  (12) 
12

>  <SMILES>  (12) 
COc1ccc2c(C[NH+]3CCN(Cc4ccccc4)CC3)cc(=O)oc2c1

>  <Energy>  (12) 
73.05178579100605

>  <Genealogy>  (12) 
COc1ccc2c(C[NH+]3CCN(Cc4ccccc4)CC3)cc(=O)oc2c1 (protonated)
COc1ccc2c(C[NH+]3CCN(Cc4ccccc4)CC3)cc(=O)oc2c1 (3D coordinates assigned)
COc1ccc2c(C[NH+]3CCN(Cc4ccccc4)CC3)cc(=O)oc2c1 (nonaromatic ring conformer: 73.05178579100605 kcal/mol)

>  <smiles>  (12) 
COc1ccc2c(CN3CCN(Cc4ccccc4)CC3)cc(=O)oc2c1

>  <score_type>  (12) 
oracle

>  <origin>  (12) 
adg

>  <m_score__min__energy>  (12) 
-7.1299999999999999

>  <m_primary>  (12) 
energy

$$$$
12:0
     RDKit          3D

 36 36  0  0  0  0  0  0  0  0999 V2000
   55.6950   23.5830   43.9480 C   0  0  0  0  0  0  0  0  0  0  0  0
   54.4120   23.7980   44.7420 C   0  0  0  0  0  0  0  0  0  0  0  0
   54.7000   24.4640   46.0080 N   0  0  0  0  0  0  0  0  0  0  0  0
   55.6350   25.5350   46.1980 C   0  0  0  0  0  0  0  0  0  0  0  0
   55.2520   26.7170   45.9910 O   0  0  0  0  0  0  0  0  0  0  0  0
   57.0760   25.2910   46.5560 C   0  0  0  0  0  0  0  0  0  0  0  0
   57.9850   26.2980   45.8310 C   0  0  0  0  0  0  0  0  0  0  0  0
   57.4020   26.8020   44.5740 N   0  0  0  0  0  0  0  0  0  0  0  0
   58.3530   27.4730   43.6650 C   0  0  0  0  0  0  0  0  0  0  0  0
   59.4000   28.3490   44.3940 C   0  0  0  0  0  0  0  0  0  0  0  0
   58.9160   29.7560   44.6520 C   0  0  0  0  0  0  0  0  0  0  0  0
   59.4380   30.5060   45.7210 C   0  0  0  0  0  0  0  0  0  0  0  0
   58.9920   31.8120   45.9520 C   0  0  0  0  0  0  0  0  0  0  0  0
   58.0080   32.3730   45.1330 C   0  0  0  0  0  0  0  0  0  0  0  0
   57.4050   34.1570   45.4480 Br  0  0  0  0  0  0  0  0  0  0  0  0
   57.4610   31.6230   44.0880 C   0  0  0  0  0  0  0  0  0  0  0  0
   57.9050   30.3180   43.8540 C   0  0  0  0  0  0  0  0  0  0  0  0
   56.5365   23.4420   44.6422 H   0  0  0  0  0  0  0  0  0  0  0  0
   55.5888   22.6901   43.3144 H   0  0  0  0  0  0  0  0  0  0  0  0
   55.8857   24.4617   43.3144 H   0  0  0  0  0  0  0  0  0  0  0  0
   53.7224   24.4213   44.1538 H   0  0  0  0  0  0  0  0  0  0  0  0
   53.9546   22.8196   44.9507 H   0  0  0  0  0  0  0  0  0  0  0  0
   57.2039   25.4039   47.6427 H   0  0  0  0  0  0  0  0  0  0  0  0
   57.3534   24.2723   46.2473 H   0  0  0  0  0  0  0  0  0  0  0  0
   58.1655   27.1520   46.5005 H   0  0  0  0  0  0  0  0  0  0  0  0
   58.9166   25.7729   45.5734 H   0  0  0  0  0  0  0  0  0  0  0  0
   56.6300   27.4680   44.8090 H   0  0  0  0  0  0  0  0  0  0  0  0
   56.9690   25.9980   44.0610 H   0  0  0  0  0  0  0  0  0  0  0  0
   58.8860   26.7018   43.0896 H   0  0  0  0  0  0  0  0  0  0  0  0
   57.7639   28.1445   43.0231 H   0  0  0  0  0  0  0  0  0  0  0  0
   59.6399   27.8784   45.3589 H   0  0  0  0  0  0  0  0  0  0  0  0
   60.2821   28.4193   43.7406 H   0  0  0  0  0  0  0  0  0  0  0  0
   60.2007   30.0638   46.3788 H   0  0  0  0  0  0  0  0  0  0  0  0
   59.4167   32.3985   46.7800 H   0  0  0  0  0  0  0  0  0  0  0  0
   56.6799   32.0602   43.4486 H   0  0  0  0  0  0  0  0  0  0  0  0
   57.4599   29.7273   43.0398 H   0  0  0  0  0  0  0  0  0  0  0  0
  1  2  1  0
  2  3  1  0
  3  4  1  0
  4  5  2  0
  4  6  1  0
  6  7  1  0
  7  8  1  0
  8  9  1  0
  9 10  1  0
 10 11  1  0
 11 12  2  0
 12 13  1  0
 13 14  2  0
 14 15  1  0
 14 16  1  0
 16 17  2  0
 17 11  1  0
  1 18  1  0
  1 19  1  0
  1 20  1  0
  2 21  1  0
  2 22  1  0
  6 23  1  0
  6 24  1  0
  7 25  1  0
  7 26  1  0
  8 27  1  0
  8 28  1  0
  9 29  1  0
  9 30  1  0
 10 31  1  0
 10 32  1  0
 12 33  1  0
 13 34  1  0
 16 35  1  0
 17 36  1  0
M  CHG  2   3  -1   8   1
M  END
>  <UniqueID>  (13) 
13

>  <SMILES>  (13) 
CC[N-]C(=O)CC[NH2+]CCc1ccc(Br)cc1

>  <Energy>  (13) 
28.250910161131543

>  <Genealogy>  (13) 
CC[N-]C(=O)CC[NH2+]CCc1ccc(Br)cc1 (protonated)
CC[N-]C(=O)CC[NH2+]CCc1ccc(Br)cc1 (3D coordinates assigned)
CC[N-]C(=O)CC[NH2+]CCc1ccc(Br)cc1 (optimized conformer: 28.250910161131543 kcal/mol)

>  <smiles>  (13) 
CCNC(=O)CCNCCc1ccc(Br)cc1

>  <score_type>  (13) 
oracle

>  <origin>  (13) 
adg

>  <m_score__min__energy>  (13) 
-7.2999999999999998

>  <m_primary>  (13) 
energy

$$$$
13:0
     RDKit          3D

 47 49  0  0  0  0  0  0  0  0999 V2000
   60.1280   35.8553   46.5075 H   0  0  0  0  0  0  0  0  0  0  0  0
   59.7910   34.8110   46.4310 C   0  0  0  0  0  0  0  0  0  0  0  0
   58.4620   34.2830   45.5330 S   0  0  0  0  0  0  0  0  0  0  0  0
   58.6110   32.6830   45.9920 C   0  0  0  0  0  0  0  0  0  0  0  0
   57.8900   31.6390   45.4970 N   0  0  0  0  0  0  0  0  0  0  0  0
   58.1550   30.3560   45.8850 C   0  0  0  0  0  0  0  0  0  0  0  0
   57.4410   29.3940   45.3680 N   0  0  0  0  0  0  0  0  0  0  0  0
   56.3390   29.4940   44.4550 C   0  0  0  0  0  0  0  0  0  0  0  0
   55.1500   29.4170   44.8700 O   0  0  0  0  0  0  0  0  0  0  0  0
   56.6040   29.6280   42.9900 C   0  0  0  0  0  0  0  0  0  0  0  0
   57.4280   28.9562   42.7076 H   0  0  0  0  0  0  0  0  0  0  0  0
   55.6920   29.3605   42.4362 H   0  0  0  0  0  0  0  0  0  0  0  0
   56.9870   31.0640   42.6490 C   0  0  0  0  0  0  0  0  0  0  0  0
   57.1389   31.6334   43.5778 H   0  0  0  0  0  0  0  0  0  0  0  0
   57.9170   31.0658   42.0616 H   0  0  0  0  0  0  0  0  0  0  0  0
   56.1814   31.5287   42.0616 H   0  0  0  0  0  0  0  0  0  0  0  0
   59.1480   30.1630   46.8770 C   0  0  0  0  0  0  0  0  0  0  0  0
   59.3860   29.0460   47.5890 N   0  0  0  0  0  0  0  0  0  0  0  0
   60.2310   29.4590   48.5620 C   0  0  0  0  0  0  0  0  0  0  0  0
   60.6750   28.5450   49.6610 C   0  0  0  0  0  0  0  0  0  0  0  0
   60.4510   29.0060   50.6343 H   0  0  0  0  0  0  0  0  0  0  0  0
   60.1423   27.5862   49.5782 H   0  0  0  0  0  0  0  0  0  0  0  0
   61.7580   28.3711   49.5782 H   0  0  0  0  0  0  0  0  0  0  0  0
   60.4870   30.7930   48.5260 N   0  0  0  0  0  0  0  0  0  0  0  0
   60.9620   31.5810   49.6680 C   0  0  0  0  0  0  0  0  0  0  0  0
   60.6638   31.0864   50.6042 H   0  0  0  0  0  0  0  0  0  0  0  0
   62.0584   31.6602   49.6282 H   0  0  0  0  0  0  0  0  0  0  0  0
   60.5200   32.5875   49.6282 H   0  0  0  0  0  0  0  0  0  0  0  0
   59.8470   31.2240   47.4120 C   0  0  0  0  0  0  0  0  0  0  0  0
   59.6590   32.5230   46.8950 C   0  0  0  0  0  0  0  0  0  0  0  0
   60.4010   33.7180   47.0650 C   0  0  0  0  0  0  0  0  0  0  0  0
   61.7970   33.8050   47.6400 C   0  0  0  0  0  0  0  0  0  0  0  0
   61.8025   33.3159   48.6252 H   0  0  0  0  0  0  0  0  0  0  0  0
   62.0598   34.8707   47.7122 H   0  0  0  0  0  0  0  0  0  0  0  0
   62.8550   33.1250   46.7460 C   0  0  0  0  0  0  0  0  0  0  0  0
   63.1703   33.8381   45.9701 H   0  0  0  0  0  0  0  0  0  0  0  0
   62.3930   32.2265   46.3109 H   0  0  0  0  0  0  0  0  0  0  0  0
   64.0470   32.6910   47.5000 N   0  0  0  0  0  0  0  0  0  0  0  0
   64.1270   31.6480   47.4380 H   0  0  0  0  0  0  0  0  0  0  0  0
   64.8970   33.0920   47.0380 H   0  0  0  0  0  0  0  0  0  0  0  0
   64.0510   33.0750   48.9240 C   0  0  0  0  0  0  0  0  0  0  0  0
   63.0230   33.3290   49.2218 H   0  0  0  0  0  0  0  0  0  0  0  0
   64.7326   33.9316   49.0326 H   0  0  0  0  0  0  0  0  0  0  0  0
   64.5640   31.9610   49.8410 C   0  0  0  0  0  0  0  0  0  0  0  0
   64.4271   32.2584   50.8912 H   0  0  0  0  0  0  0  0  0  0  0  0
   64.0009   31.0365   49.6453 H   0  0  0  0  0  0  0  0  0  0  0  0
   65.6325   31.7879   49.6453 H   0  0  0  0  0  0  0  0  0  0  0  0
  1  2  1  0
  2  3  1  0
  3  4  1  0
  4  5  1  0
  5  6  1  0
  6  7  2  0
  7  8  1  0
  8  9  2  0
  8 10  1  0
 10 11  1  0
 10 12  1  0
 10 13  1  0
 13 14  1  0
 13 15  1  0
 13 16  1  0
  6 17  1  0
 17 18  1  0
 18 19  2  0
 19 20  1  0
 20 21  1  0
 20 22  1  0
 20 23  1  0
 19 24  1  0
 24 25  1  0
 25 26  1  0
 25 27  1  0
 25 28  1  0
 24 29  1  0
 29 30  1  0
 30 31  1  0
 31 32  1  0
 32 33  1  0
 32 34  1  0
 32 35  1  0
 35 36  1  0
 35 37  1  0
 35 38  1  0
 38 39  1  0
 38 40  1  0
 38 41  1  0
 41 42  1  0
 41 43  1  0
 41 44  1  0
 44 45  1  0
 44 46  1  0
 44 47  1  0
 31  2  2  0
 30  4  2  0
 29 17  2  0
M  CHG  2   5  -1  38   1
M  END
>  <UniqueID>  (14) 
14

>  <SMILES>  (14) 
CC[NH2+]CCc1csc2[n-]/c(=N/C(=O)CC)c3nc(C)n(C)c3c12

>  <Energy>  (14) 
135.39701550023412

>  <Genealogy>  (14) 
CC[NH2+]CCc1csc2[n-]c(=NC(=O)CC)c3nc(C)n(C)c3c12 (protonated)
CC[NH2+]CCc1csc2[n-]/c(=N/C(=O)CC)c3nc(C)n(C)c3c12 (cis-trans isomerization)
CC[NH2+]CCc1csc2[n-]/c(=N/C(=O)CC)c3nc(C)n(C)c3c12 (3D coordinates assigned)
CC[NH2+]CCc1csc2[n-]/c(=N/C(=O)CC)c3nc(C)n(C)c3c12 (optimized conformer: 135.39701550023412 kcal/mol)

>  <smiles>  (14) 
CCNCCc1csc2[nH]c(=NC(=O)CC)c3nc(C)n(C)c3c12

>  <score_type>  (14) 
oracle

>  <origin>  (14) 
adg

>  <m_score__min__energy>  (14) 
-8.4900000000000002

>  <m_primary>  (14) 
energy

$$$$
14:0
     RDKit          3D

 32 33  0  0  0  0  0  0  0  0999 V2000
   57.3770   21.1630   43.1960 C   0  0  0  0  0  0  0  0  0  0  0  0
   56.1650   21.9110   43.1790 O   0  0  0  0  0  0  0  0  0  0  0  0
   55.9250   23.0480   43.9640 C   0  0  0  0  0  0  0  0  0  0  0  0
   54.6490   23.2190   44.5100 C   0  0  0  0  0  0  0  0  0  0  0  0
   54.3600   24.3300   45.3040 C   0  0  0  0  0  0  0  0  0  0  0  0
   55.3440   25.2940   45.5600 C   0  0  0  0  0  0  0  0  0  0  0  0
   55.0440   26.3920   46.3660 O   0  0  0  0  0  0  0  0  0  0  0  0
   56.6300   25.1480   45.0010 C   0  0  0  0  0  0  0  0  0  0  0  0
   57.7200   26.1610   45.2630 C   0  0  0  0  0  0  0  0  0  0  0  0
   57.1570   27.4150   45.7660 N   0  0  0  0  0  0  0  0  0  0  0  0
   57.2010   28.6700   45.0570 C   0  0  0  0  0  0  0  0  0  0  0  0
   56.0400   29.2660   44.5260 C   0  0  0  0  0  0  0  0  0  0  0  0
   56.1220   30.4820   43.8390 C   0  0  0  0  0  0  0  0  0  0  0  0
   57.3570   31.1150   43.6780 C   0  0  0  0  0  0  0  0  0  0  0  0
   58.5120   30.5350   44.2050 C   0  0  0  0  0  0  0  0  0  0  0  0
   58.4360   29.3200   44.8920 C   0  0  0  0  0  0  0  0  0  0  0  0
   56.9160   24.0140   44.2200 C   0  0  0  0  0  0  0  0  0  0  0  0
   57.6785   20.9769   44.2374 H   0  0  0  0  0  0  0  0  0  0  0  0
   57.2226   20.2029   42.6819 H   0  0  0  0  0  0  0  0  0  0  0  0
   58.1660   21.7315   42.6819 H   0  0  0  0  0  0  0  0  0  0  0  0
   53.8665   22.4717   44.3121 H   0  0  0  0  0  0  0  0  0  0  0  0
   53.3535   24.4495   45.7314 H   0  0  0  0  0  0  0  0  0  0  0  0
   55.1570   26.3600   47.3720 H   0  0  0  0  0  0  0  0  0  0  0  0
   58.4178   25.7543   46.0097 H   0  0  0  0  0  0  0  0  0  0  0  0
   58.2449   26.3652   44.3181 H   0  0  0  0  0  0  0  0  0  0  0  0
   56.7310   27.3980   46.7210 H   0  0  0  0  0  0  0  0  0  0  0  0
   55.0648   28.7731   44.6521 H   0  0  0  0  0  0  0  0  0  0  0  0
   55.2121   30.9407   43.4247 H   0  0  0  0  0  0  0  0  0  0  0  0
   57.4191   32.0702   43.1361 H   0  0  0  0  0  0  0  0  0  0  0  0
   59.4838   31.0349   44.0795 H   0  0  0  0  0  0  0  0  0  0  0  0
   59.3498   28.8693   45.3066 H   0  0  0  0  0  0  0  0  0  0  0  0
   57.9257   23.8805   43.8045 H   0  0  0  0  0  0  0  0  0  0  0  0
  1  2  1  0
  2  3  1  0
  3  4  2  0
  4  5  1  0
  5  6  2  0
  6  7  1  0
  6  8  1  0
  8  9  1  0
  9 10  1  0
 10 11  1  0
 11 12  2  0
 12 13  1  0
 13 14  2  0
 14 15  1  0
 15 16  2  0
  8 17  2  0
 17  3  1  0
 16 11  1  0
  1 18  1  0
  1 19  1  0
  1 20  1  0
  4 21  1  0
  5 22  1  0
  7 23  1  0
  9 24  1  0
  9 25  1  0
 10 26  1  0
 12 27  1  0
 13 28  1  0
 14 29  1  0
 15 30  1  0
 16 31  1  0
 17 32  1  0
M  END
>  <UniqueID>  (15) 
15

>  <SMILES>  (15) 
COc1ccc(O)c(CNc2ccccc2)c1

>  <Energy>  (15) 
31.45739053783389

>  <Genealogy>  (15) 
COc1ccc(O)c(CNc2ccccc2)c1 (3D coordinates assigned)
COc1ccc(O)c(CNc2ccccc2)c1 (optimized conformer: 31.45739053783389 kcal/mol)

>  <smiles>  (15) 
COc1ccc(O)c(CNc2ccccc2)c1

>  <score_type>  (15) 
oracle

>  <origin>  (15) 
adg

>  <m_score__min__energy>  (15) 
-7.6600000000000001

>  <m_primary>  (15) 
energy

$$$$
15:0
     RDKit          3D

 59 63  0  0  0  0  0  0  0  0999 V2000
   62.2437   31.4891   46.0550 H   0  0  0  0  0  0  0  0  0  0  0  0
   62.1550   31.7840   47.1110 C   0  0  0  0  0  0  0  0  0  0  0  0
   63.2930   32.1750   47.8220 C   0  0  0  0  0  0  0  0  0  0  0  0
   64.2719   32.1908   47.3205 H   0  0  0  0  0  0  0  0  0  0  0  0
   63.1950   32.5480   49.1730 C   0  0  0  0  0  0  0  0  0  0  0  0
   64.3690   32.9440   49.9080 N   0  0  0  0  0  0  0  0  0  0  0  0
   65.4390   32.3140   49.7850 O   0  0  0  0  0  0  0  0  0  0  0  0
   64.3270   34.0090   50.7800 O   0  0  0  0  0  0  0  0  0  0  0  0
   61.9330   32.5270   49.7950 C   0  0  0  0  0  0  0  0  0  0  0  0
   61.8409   32.8186   50.8516 H   0  0  0  0  0  0  0  0  0  0  0  0
   60.7960   32.1390   49.0820 C   0  0  0  0  0  0  0  0  0  0  0  0
   59.8147   32.1266   49.5789 H   0  0  0  0  0  0  0  0  0  0  0  0
   60.9020   31.7660   47.7370 C   0  0  0  0  0  0  0  0  0  0  0  0
   59.7290   31.3610   47.0030 N   0  0  0  0  0  0  0  0  0  0  0  0
   59.3420   30.0410   47.0010 C   0  0  0  0  0  0  0  0  0  0  0  0
   60.0500   29.0280   47.6700 C   0  0  0  0  0  0  0  0  0  0  0  0
   60.9648   29.2891   48.2223 H   0  0  0  0  0  0  0  0  0  0  0  0
   59.6200   27.6900   47.6520 C   0  0  0  0  0  0  0  0  0  0  0  0
   60.3810   26.8340   48.2870 N   0  0  0  0  0  0  0  0  0  0  0  0
   60.7660   26.7960   49.6940 C   0  0  0  0  0  0  0  0  0  0  0  0
   59.8676   26.8847   50.3225 H   0  0  0  0  0  0  0  0  0  0  0  0
   61.2721   25.8435   49.9101 H   0  0  0  0  0  0  0  0  0  0  0  0
   61.4485   27.6311   49.9101 H   0  0  0  0  0  0  0  0  0  0  0  0
   58.4200   27.3340   46.9580 C   0  0  0  0  0  0  0  0  0  0  0  0
   57.9860   26.1010   46.9870 N   0  0  0  0  0  0  0  0  0  0  0  0
   57.3140   25.3510   45.9230 C   0  0  0  0  0  0  0  0  0  0  0  0
   56.2279   25.3930   46.0920 H   0  0  0  0  0  0  0  0  0  0  0  0
   57.5884   25.8103   44.9619 H   0  0  0  0  0  0  0  0  0  0  0  0
   57.7530   23.8740   45.8830 C   0  0  0  0  0  0  0  0  0  0  0  0
   58.7000   23.7684   46.4326 H   0  0  0  0  0  0  0  0  0  0  0  0
   56.9600   23.2675   46.3448 H   0  0  0  0  0  0  0  0  0  0  0  0
   57.9480   23.4000   44.4970 N   0  0  0  0  0  0  0  0  0  0  0  0
   57.9120   21.9210   44.4040 C   0  0  0  0  0  0  0  0  0  0  0  0
   58.9395   21.5356   44.4801 H   0  0  0  0  0  0  0  0  0  0  0  0
   57.2832   21.5450   45.2245 H   0  0  0  0  0  0  0  0  0  0  0  0
   57.3000   21.4410   43.0810 C   0  0  0  0  0  0  0  0  0  0  0  0
   57.9099   21.8268   42.2508 H   0  0  0  0  0  0  0  0  0  0  0  0
   57.2879   20.3412   43.1006 H   0  0  0  0  0  0  0  0  0  0  0  0
   55.9620   21.8810   42.9040 O   0  0  0  0  0  0  0  0  0  0  0  0
   55.7340   23.2090   43.3540 C   0  0  0  0  0  0  0  0  0  0  0  0
   55.1023   23.7184   42.6114 H   0  0  0  0  0  0  0  0  0  0  0  0
   55.2587   23.1241   44.3424 H   0  0  0  0  0  0  0  0  0  0  0  0
   57.0080   24.0490   43.5560 C   0  0  0  0  0  0  0  0  0  0  0  0
   57.5079   24.1776   42.5846 H   0  0  0  0  0  0  0  0  0  0  0  0
   56.7145   25.0206   43.9800 H   0  0  0  0  0  0  0  0  0  0  0  0
   57.7100   28.3290   46.2500 C   0  0  0  0  0  0  0  0  0  0  0  0
   56.8070   28.0517   45.6864 H   0  0  0  0  0  0  0  0  0  0  0  0
   58.1340   29.6530   46.2540 C   0  0  0  0  0  0  0  0  0  0  0  0
   57.4410   30.5970   45.5820 N   0  0  0  0  0  0  0  0  0  0  0  0
   57.8310   31.8940   45.5860 C   0  0  0  0  0  0  0  0  0  0  0  0
   57.0740   32.8350   44.8780 C   0  0  0  0  0  0  0  0  0  0  0  0
   56.1805   32.5125   44.3233 H   0  0  0  0  0  0  0  0  0  0  0  0
   57.4460   34.1780   44.8720 C   0  0  0  0  0  0  0  0  0  0  0  0
   56.8475   34.9113   44.3116 H   0  0  0  0  0  0  0  0  0  0  0  0
   58.5750   34.5930   45.5750 C   0  0  0  0  0  0  0  0  0  0  0  0
   58.8652   35.6540   45.5677 H   0  0  0  0  0  0  0  0  0  0  0  0
   59.3400   33.6680   46.2890 C   0  0  0  0  0  0  0  0  0  0  0  0
   60.2265   34.0089   46.8439 H   0  0  0  0  0  0  0  0  0  0  0  0
   58.9880   32.2970   46.3070 C   0  0  0  0  0  0  0  0  0  0  0  0
  1  2  1  0
  2  3  2  0
  3  4  1  0
  3  5  1  0
  5  6  1  0
  6  7  2  0
  6  8  1  0
  5  9  2  0
  9 10  1  0
  9 11  1  0
 11 12  1  0
 11 13  2  0
 13 14  1  0
 14 15  1  0
 15 16  2  0
 16 17  1  0
 16 18  1  0
 18 19  2  0
 19 20  1  0
 20 21  1  0
 20 22  1  0
 20 23  1  0
 18 24  1  0
 24 25  2  3
 25 26  1  0
 26 27  1  0
 26 28  1  0
 26 29  1  0
 29 30  1  0
 29 31  1  0
 29 32  1  0
 32 33  1  0
 33 34  1  0
 33 35  1  0
 33 36  1  0
 36 37  1  0
 36 38  1  0
 36 39  1  0
 39 40  1  0
 40 41  1  0
 40 42  1  0
 40 43  1  0
 43 44  1  0
 43 45  1  0
 24 46  1  0
 46 47  1  0
 46 48  2  0
 48 49  1  0
 49 50  1  0
 50 51  2  0
 51 52  1  0
 51 53  1  0
 53 54  1  0
 53 55  2  0
 55 56  1  0
 55 57  1  0
 57 58  1  0
 57 59  2  0
 13  2  1  0
 59 14  1  0
 48 15  1  0
 59 50  1  0
 43 32  1  0
M  CHG  3   6   1   8  -1  49  -1
M  END
>  <UniqueID>  (16) 
16

>  <SMILES>  (16) 
C/N=c1/cc2n(-c3ccc([N+](=O)[O-])cc3)c3ccccc3[n-]c-2cc1=NCCN1CCOCC1

>  <Energy>  (16) 
105.93735328867393

>  <Genealogy>  (16) 
CN=c1cc2n(-c3ccc([N+](=O)[O-])cc3)c3ccccc3[n-]c-2cc1=NCCN1CCOCC1 (protonated)
C/N=c1/cc2n(-c3ccc([N+](=O)[O-])cc3)c3ccccc3[n-]c-2cc1=NCCN1CCOCC1 (cis-trans isomerization)
C/N=c1/cc2n(-c3ccc([N+](=O)[O-])cc3)c3ccccc3[n-]c-2cc1=NCCN1CCOCC1 (3D coordinates assigned)
C/N=c1/cc2n(-c3ccc([N+](=O)[O-])cc3)c3ccccc3[n-]c-2cc1=NCCN1CCOCC1 (nonaromatic ring conformer: 105.93735328867393 kcal/mol)

>  <smiles>  (16) 
CN=c1cc2n(-c3ccc([N+](=O)[O-])cc3)c3ccccc3[nH]c-2cc1=NCCN1CCOCC1

>  <score_type>  (16) 
oracle

>  <origin>  (16) 
adg

>  <m_score__min__energy>  (16) 
-10.460000000000001

>  <m_primary>  (16) 
energy

$$$$
16:0
     RDKit          3D

 50 51  0  0  0  0  0  0  0  0999 V2000
   60.1158   35.1664   49.4299 H   0  0  0  0  0  0  0  0  0  0  0  0
   60.3710   34.1910   48.9900 C   0  0  0  0  0  0  0  0  0  0  0  0
   59.3620   33.4500   48.4820 C   0  0  0  0  0  0  0  0  0  0  0  0
   58.7480   32.3720   49.2940 C   0  0  0  0  0  0  0  0  0  0  0  0
   58.7670   31.1730   48.8960 O   0  0  0  0  0  0  0  0  0  0  0  0
   58.1420   32.6980   50.5090 O   0  0  0  0  0  0  0  0  0  0  0  0
   58.8700   32.9400   51.7080 C   0  0  0  0  0  0  0  0  0  0  0  0
   58.3688   33.7295   52.2872 H   0  0  0  0  0  0  0  0  0  0  0  0
   59.8919   33.2595   51.4557 H   0  0  0  0  0  0  0  0  0  0  0  0
   58.9310   31.6530   52.5450 C   0  0  0  0  0  0  0  0  0  0  0  0
   58.3611   31.8096   53.4727 H   0  0  0  0  0  0  0  0  0  0  0  0
   59.9908   31.4399   52.7486 H   0  0  0  0  0  0  0  0  0  0  0  0
   58.3660   30.4760   51.8330 N   0  0  0  0  0  0  0  0  0  0  0  0
   58.0710   30.7980   50.8810 H   0  0  0  0  0  0  0  0  0  0  0  0
   59.3680   29.3690   51.7290 C   0  0  0  0  0  0  0  0  0  0  0  0
   58.9147   28.5289   51.1824 H   0  0  0  0  0  0  0  0  0  0  0  0
   59.6536   29.0700   52.7483 H   0  0  0  0  0  0  0  0  0  0  0  0
   60.6340   29.8140   50.9920 C   0  0  0  0  0  0  0  0  0  0  0  0
   61.4082   30.0861   51.7245 H   0  0  0  0  0  0  0  0  0  0  0  0
   60.9995   28.9905   50.3610 H   0  0  0  0  0  0  0  0  0  0  0  0
   60.4039   30.6851   50.3610 H   0  0  0  0  0  0  0  0  0  0  0  0
   57.1350   30.0200   52.5300 C   0  0  0  0  0  0  0  0  0  0  0  0
   56.9856   28.9501   52.3229 H   0  0  0  0  0  0  0  0  0  0  0  0
   57.2672   30.2029   53.6066 H   0  0  0  0  0  0  0  0  0  0  0  0
   55.8920   30.7920   52.0680 C   0  0  0  0  0  0  0  0  0  0  0  0
   55.3297   31.1412   52.9466 H   0  0  0  0  0  0  0  0  0  0  0  0
   56.2015   31.6571   51.4631 H   0  0  0  0  0  0  0  0  0  0  0  0
   55.2537   30.1311   51.4631 H   0  0  0  0  0  0  0  0  0  0  0  0
   58.7830   33.7200   47.1420 C   0  0  0  0  0  0  0  0  0  0  0  0
   57.5430   33.1680   46.7720 C   0  0  0  0  0  0  0  0  0  0  0  0
   56.9827   32.5489   47.4881 H   0  0  0  0  0  0  0  0  0  0  0  0
   57.0210   33.4040   45.4970 C   0  0  0  0  0  0  0  0  0  0  0  0
   56.0467   32.9779   45.2155 H   0  0  0  0  0  0  0  0  0  0  0  0
   57.7340   34.1800   44.5790 C   0  0  0  0  0  0  0  0  0  0  0  0
   57.3219   34.3620   43.5755 H   0  0  0  0  0  0  0  0  0  0  0  0
   58.9710   34.7250   44.9360 C   0  0  0  0  0  0  0  0  0  0  0  0
   59.5331   35.3330   44.2119 H   0  0  0  0  0  0  0  0  0  0  0  0
   59.4940   34.4980   46.2120 C   0  0  0  0  0  0  0  0  0  0  0  0
   60.4666   34.9302   46.4898 H   0  0  0  0  0  0  0  0  0  0  0  0
   61.7960   33.7860   48.9980 C   0  0  0  0  0  0  0  0  0  0  0  0
   62.4150   33.4430   47.7860 C   0  0  0  0  0  0  0  0  0  0  0  0
   61.8358   33.4621   46.8511 H   0  0  0  0  0  0  0  0  0  0  0  0
   63.7650   33.0770   47.7610 C   0  0  0  0  0  0  0  0  0  0  0  0
   64.2404   32.7966   46.8095 H   0  0  0  0  0  0  0  0  0  0  0  0
   64.5100   33.0670   48.9420 C   0  0  0  0  0  0  0  0  0  0  0  0
   65.5689   32.7699   48.9222 H   0  0  0  0  0  0  0  0  0  0  0  0
   63.9090   33.4350   50.1500 C   0  0  0  0  0  0  0  0  0  0  0  0
   64.4980   33.4355   51.0790 H   0  0  0  0  0  0  0  0  0  0  0  0
   62.5610   33.8020   50.1780 C   0  0  0  0  0  0  0  0  0  0  0  0
   62.0959   34.1049   51.1277 H   0  0  0  0  0  0  0  0  0  0  0  0
  1  2  1  0
  2  3  2  0
  3  4  1  0
  4  5  2  0
  4  6  1  0
  6  7  1  0
  7  8  1  0
  7  9  1  0
  7 10  1  0
 10 11  1  0
 10 12  1  0
 10 13  1  0
 13 14  1  0
 13 15  1  0
 15 16  1  0
 15 17  1  0
 15 18  1  0
 18 19  1  0
 18 20  1  0
 18 21  1  0
 13 22  1  0
 22 23  1  0
 22 24  1  0
 22 25  1  0
 25 26  1  0
 25 27  1  0
 25 28  1  0
  3 29  1  0
 29 30  2  0
 30 31  1  0
 30 32  1  0
 32 33  1  0
 32 34  2  0
 34 35  1  0
 34 36  1  0
 36 37  1  0
 36 38  2  0
 38 39  1  0
  2 40  1  0
 40 41  2  0
 41 42  1  0
 41 43  1  0
 43 44  1  0
 43 45  2  0
 45 46  1  0
 45 47  1  0
 47 48  1  0
 47 49  2  0
 49 50  1  0
 38 29  1  0
 49 40  1  0
M  CHG  1  13   1
M  END
>  <UniqueID>  (17) 
17

>  <SMILES>  (17) 
CC[NH+](CC)CCOC(=O)/C(=C/c1ccccc1)c1ccccc1

>  <Energy>  (17) 
58.326292779629505

>  <Genealogy>  (17) 
CC[NH+](CC)CCOC(=O)C(=Cc1ccccc1)c1ccccc1 (protonated)
CC[NH+](CC)CCOC(=O)/C(=C/c1ccccc1)c1ccccc1 (cis-trans isomerization)
CC[NH+](CC)CCOC(=O)/C(=C/c1ccccc1)c1ccccc1 (3D coordinates assigned)
CC[NH+](CC)CCOC(=O)/C(=C/c1ccccc1)c1ccccc1 (optimized conformer: 58.326292779629505 kcal/mol)

>  <smiles>  (17) 
CCN(CC)CCOC(=O)C(=Cc1ccccc1)c1ccccc1

>  <score_type>  (17) 
oracle

>  <origin>  (17) 
adg

>  <m_score__min__energy>  (17) 
-4.7400000000000002

>  <m_primary>  (17) 
energy

$$$$
17:0
     RDKit          3D

 45 47  0  0  0  0  0  0  0  0999 V2000
   55.8480   29.8160   43.5620 C   0  0  0  0  0  0  0  0  0  0  0  0
   56.3300   29.8300   44.9010 O   0  0  0  0  0  0  0  0  0  0  0  0
   57.5520   29.2670   45.2880 C   0  0  0  0  0  0  0  0  0  0  0  0
   57.9110   27.9370   45.0580 C   0  0  0  0  0  0  0  0  0  0  0  0
   59.4510   27.7040   45.6980 S   0  0  0  0  0  0  0  0  0  0  0  0
   59.6020   29.2940   46.2230 C   0  0  0  0  0  0  0  0  0  0  0  0
   60.7710   29.8330   46.9830 C   0  0  0  0  0  0  0  0  0  0  0  0
   60.2960   30.5160   48.2080 N   0  0  0  0  0  0  0  0  0  0  0  0
   59.4160   29.6370   48.9990 C   0  0  0  0  0  0  0  0  0  0  0  0
   59.6620   31.8430   47.9850 C   0  0  1  0  0  0  0  0  0  0  0  0
   59.2050   32.4960   49.2870 C   0  0  0  0  0  0  0  0  0  0  0  0
   59.9120   33.8450   49.3230 C   0  0  0  0  0  0  0  0  0  0  0  0
   60.3270   34.1800   47.9530 N   0  0  0  0  0  0  0  0  0  0  0  0
   59.2800   34.9610   47.2570 C   0  0  0  0  0  0  0  0  0  0  0  0
   58.6500   34.1410   46.1610 C   0  0  0  0  0  0  0  0  0  0  0  0
   59.1590   34.1950   44.8550 C   0  0  0  0  0  0  0  0  0  0  0  0
   58.5740   33.4280   43.8470 C   0  0  0  0  0  0  0  0  0  0  0  0
   57.4840   32.6110   44.1530 C   0  0  0  0  0  0  0  0  0  0  0  0
   57.0010   32.5670   45.4230 N   0  0  0  0  0  0  0  0  0  0  0  0
   57.5530   33.3060   46.4230 C   0  0  0  0  0  0  0  0  0  0  0  0
   60.5610   32.8820   47.2970 C   0  0  0  0  0  0  0  0  0  0  0  0
   58.4900   30.0050   45.9370 N   0  0  0  0  0  0  0  0  0  0  0  0
   54.7485   29.7841   43.5684 H   0  0  0  0  0  0  0  0  0  0  0  0
   56.1854   30.7243   43.0413 H   0  0  0  0  0  0  0  0  0  0  0  0
   56.2376   28.9288   43.0413 H   0  0  0  0  0  0  0  0  0  0  0  0
   57.2979   27.1780   44.5500 H   0  0  0  0  0  0  0  0  0  0  0  0
   61.4396   29.0051   47.2615 H   0  0  0  0  0  0  0  0  0  0  0  0
   61.3162   30.5511   46.3529 H   0  0  0  0  0  0  0  0  0  0  0  0
   59.5909   29.8117   50.0709 H   0  0  0  0  0  0  0  0  0  0  0  0
   58.3655   29.8571   48.7582 H   0  0  0  0  0  0  0  0  0  0  0  0
   59.6349   28.5862   48.7582 H   0  0  0  0  0  0  0  0  0  0  0  0
   58.8174   31.5917   47.3265 H   0  0  0  0  0  0  0  0  0  0  0  0
   58.1134   32.6318   49.2887 H   0  0  0  0  0  0  0  0  0  0  0  0
   59.4478   31.8795   50.1650 H   0  0  0  0  0  0  0  0  0  0  0  0
   59.2255   34.6157   49.7036 H   0  0  0  0  0  0  0  0  0  0  0  0
   60.7885   33.7982   49.9860 H   0  0  0  0  0  0  0  0  0  0  0  0
   58.5053   35.2534   47.9811 H   0  0  0  0  0  0  0  0  0  0  0  0
   59.7405   35.8553   46.8119 H   0  0  0  0  0  0  0  0  0  0  0  0
   60.0188   34.8416   44.6257 H   0  0  0  0  0  0  0  0  0  0  0  0
   58.9679   33.4666   42.8207 H   0  0  0  0  0  0  0  0  0  0  0  0
   57.0155   32.0022   43.3656 H   0  0  0  0  0  0  0  0  0  0  0  0
   57.1381   33.2488   47.4402 H   0  0  0  0  0  0  0  0  0  0  0  0
   60.3056   32.9503   46.2292 H   0  0  0  0  0  0  0  0  0  0  0  0
   61.6189   32.5926   47.3811 H   0  0  0  0  0  0  0  0  0  0  0  0
   58.3600   31.0110   46.1880 H   0  0  0  0  0  0  0  0  0  0  0  0
  1  2  1  0
  2  3  1  0
  3  4  2  0
  4  5  1  0
  5  6  1  0
  6  7  1  0
  7  8  1  0
  8  9  1  0
  8 10  1  0
 10 11  1  0
 11 12  1  0
 12 13  1  0
 13 14  1  0
 14 15  1  0
 15 16  2  0
 16 17  1  0
 17 18  2  0
 18 19  1  0
 19 20  2  0
 13 21  1  0
  6 22  2  0
 22  3  1  0
 21 10  1  0
 20 15  1  0
  1 23  1  0
  1 24  1  0
  1 25  1  0
  4 26  1  0
  7 27  1  0
  7 28  1  0
  9 29  1  0
  9 30  1  0
  9 31  1  0
 10 32  1  6
 11 33  1  0
 11 34  1  0
 12 35  1  0
 12 36  1  0
 14 37  1  0
 14 38  1  0
 16 39  1  0
 17 40  1  0
 18 41  1  0
 20 42  1  0
 21 43  1  0
 21 44  1  0
 22 45  1  0
M  CHG  1  22   1
M  END
>  <UniqueID>  (18) 
18

>  <SMILES>  (18) 
COc1csc(CN(C)[C@H]2CCN(Cc3cccnc3)C2)[nH+]1

>  <Energy>  (18) 
82.79387938297847

>  <Genealogy>  (18) 
COc1csc(CN(C)C2CCN(Cc3cccnc3)C2)[nH+]1 (protonated)
COc1csc(CN(C)[C@H]2CCN(Cc3cccnc3)C2)[nH+]1 (chirality)
COc1csc(CN(C)[C@H]2CCN(Cc3cccnc3)C2)[nH+]1 (3D coordinates assigned)
COc1csc(CN(C)[C@H]2CCN(Cc3cccnc3)C2)[nH+]1 (nonaromatic ring conformer: 82.79387938297847 kcal/mol)

>  <smiles>  (18) 
COc1csc(CN(C)C2CCN(Cc3cccnc3)C2)n1

>  <score_type>  (18) 
oracle

>  <origin>  (18) 
adg

>  <m_score__min__energy>  (18) 
-6.1799999999999997

>  <m_primary>  (18) 
energy

$$$$
18:0
     RDKit          3D

 36 38  0  0  0  0  0  0  0  0999 V2000
   60.3670   26.7340   48.4220 C   0  0  0  0  0  0  0  0  0  0  0  0
   59.7100   27.3790   47.2380 C   0  0  0  0  0  0  0  0  0  0  0  0
   58.3200   27.3040   47.0730 C   0  0  0  0  0  0  0  0  0  0  0  0
   57.7090   27.8730   45.9510 C   0  0  0  0  0  0  0  0  0  0  0  0
   58.4830   28.5220   44.9710 C   0  0  0  0  0  0  0  0  0  0  0  0
   57.8890   29.1250   43.8080 N   0  0  0  0  0  0  0  0  0  0  0  0
   56.8730   30.5320   43.8590 S   0  0  0  0  0  0  0  0  0  0  0  0
   56.6460   31.0310   42.4600 O   0  0  0  0  0  0  0  0  0  0  0  0
   55.5500   30.1590   44.4660 O   0  0  0  0  0  0  0  0  0  0  0  0
   57.6550   31.8040   44.7920 C   0  0  0  0  0  0  0  0  0  0  0  0
   57.8270   33.0740   44.2280 C   0  0  0  0  0  0  0  0  0  0  0  0
   58.4610   34.0890   44.9510 C   0  0  0  0  0  0  0  0  0  0  0  0
   58.9280   33.8420   46.2500 C   0  0  0  0  0  0  0  0  0  0  0  0
   59.5670   34.8530   46.9850 C   0  0  0  0  0  0  0  0  0  0  0  0
   60.0270   34.5950   48.2790 C   0  0  0  0  0  0  0  0  0  0  0  0
   59.8530   33.3310   48.8490 C   0  0  0  0  0  0  0  0  0  0  0  0
   59.2180   32.3160   48.1280 C   0  0  0  0  0  0  0  0  0  0  0  0
   58.7510   32.5610   46.8270 C   0  0  0  0  0  0  0  0  0  0  0  0
   58.1140   31.5490   46.0930 C   0  0  0  0  0  0  0  0  0  0  0  0
   59.8780   28.5700   45.1290 C   0  0  0  0  0  0  0  0  0  0  0  0
   60.4870   28.0000   46.2500 C   0  0  0  0  0  0  0  0  0  0  0  0
   59.9434   27.1499   49.3481 H   0  0  0  0  0  0  0  0  0  0  0  0
   60.1905   25.6486   48.3931 H   0  0  0  0  0  0  0  0  0  0  0  0
   61.4489   26.9305   48.3931 H   0  0  0  0  0  0  0  0  0  0  0  0
   57.7062   26.7946   47.8305 H   0  0  0  0  0  0  0  0  0  0  0  0
   56.6169   27.8129   45.8338 H   0  0  0  0  0  0  0  0  0  0  0  0
   58.1360   28.7560   42.8620 H   0  0  0  0  0  0  0  0  0  0  0  0
   57.4612   33.2743   43.2101 H   0  0  0  0  0  0  0  0  0  0  0  0
   58.5938   35.0834   44.4999 H   0  0  0  0  0  0  0  0  0  0  0  0
   59.7058   35.8500   46.5415 H   0  0  0  0  0  0  0  0  0  0  0  0
   60.5279   35.3898   48.8511 H   0  0  0  0  0  0  0  0  0  0  0  0
   60.2169   33.1343   49.8682 H   0  0  0  0  0  0  0  0  0  0  0  0
   59.0838   31.3227   48.5811 H   0  0  0  0  0  0  0  0  0  0  0  0
   57.9741   30.5531   46.5387 H   0  0  0  0  0  0  0  0  0  0  0  0
   60.4966   29.0608   44.3632 H   0  0  0  0  0  0  0  0  0  0  0  0
   61.5810   28.0387   46.3578 H   0  0  0  0  0  0  0  0  0  0  0  0
  1  2  1  0
  2  3  2  0
  3  4  1  0
  4  5  2  0
  5  6  1  0
  6  7  1  0
  7  8  2  0
  7  9  2  0
  7 10  1  0
 10 11  2  0
 11 12  1  0
 12 13  2  0
 13 14  1  0
 14 15  2  0
 15 16  1  0
 16 17  2  0
 17 18  1  0
 18 19  2  0
  5 20  1  0
 20 21  2  0
 21  2  1  0
 19 10  1  0
 18 13  1  0
  1 22  1  0
  1 23  1  0
  1 24  1  0
  3 25  1  0
  4 26  1  0
  6 27  1  0
 11 28  1  0
 12 29  1  0
 14 30  1  0
 15 31  1  0
 16 32  1  0
 17 33  1  0
 19 34  1  0
 20 35  1  0
 21 36  1  0
M  END
>  <UniqueID>  (19) 
19

>  <SMILES>  (19) 
Cc1ccc(NS(=O)(=O)c2ccc3ccccc3c2)cc1

>  <Energy>  (19) 
43.26164589756795

>  <Genealogy>  (19) 
Cc1ccc(NS(=O)(=O)c2ccc3ccccc3c2)cc1 (3D coordinates assigned)
Cc1ccc(NS(=O)(=O)c2ccc3ccccc3c2)cc1 (optimized conformer: 43.26164589756795 kcal/mol)

>  <smiles>  (19) 
Cc1ccc(NS(=O)(=O)c2ccc3ccccc3c2)cc1

>  <score_type>  (19) 
oracle

>  <origin>  (19) 
adg

>  <m_score__min__energy>  (19) 
-8.6699999999999999

>  <m_primary>  (19) 
energy

$$$$
19:0
     RDKit          3D

 36 39  0  0  0  0  0  0  0  0999 V2000
   59.6550   28.2170   48.8190 C   0  0  0  0  0  0  0  0  0  0  0  0
   60.6370   27.1690   47.7040 S   0  0  0  0  0  0  0  0  0  0  0  0
   59.3620   27.1150   46.4460 C   0  0  0  0  0  0  0  0  0  0  0  0
   58.9720   25.9240   45.9030 N   0  0  0  0  0  0  0  0  0  0  0  0
   57.9990   25.8540   44.9370 C   0  0  0  0  0  0  0  0  0  0  0  0
   57.6280   24.5320   44.3920 C   0  0  0  0  0  0  0  0  0  0  0  0
   56.6830   24.2580   43.4050 C   0  0  0  0  0  0  0  0  0  0  0  0
   56.5680   22.8930   43.1110 C   0  0  0  0  0  0  0  0  0  0  0  0
   57.4140   22.0850   43.8590 C   0  0  0  0  0  0  0  0  0  0  0  0
   58.3050   23.0710   44.8860 S   0  0  0  0  0  0  0  0  0  0  0  0
   57.3920   27.0060   44.4950 N   0  0  0  0  0  0  0  0  0  0  0  0
   57.7810   28.1860   45.0380 C   0  0  0  0  0  0  0  0  0  0  0  0
   57.3090   29.4020   44.7330 N   0  0  0  0  0  0  0  0  0  0  0  0
   58.0420   30.1980   45.5590 C   0  0  0  0  0  0  0  0  0  0  0  0
   57.8880   31.6230   45.5930 N   0  0  0  0  0  0  0  0  0  0  0  0
   57.4050   32.4010   44.4670 C   0  0  0  0  0  0  0  0  0  0  0  0
   57.5540   33.8580   44.8870 C   0  0  0  0  0  0  0  0  0  0  0  0
   57.7440   33.8430   46.4030 C   0  0  0  0  0  0  0  0  0  0  0  0
   58.2010   32.4330   46.7550 C   0  0  0  0  0  0  0  0  0  0  0  0
   58.9340   29.5400   46.3500 N   0  0  0  0  0  0  0  0  0  0  0  0
   58.7360   28.2650   45.9890 C   0  0  0  0  0  0  0  0  0  0  0  0
   59.8918   27.9643   49.8630 H   0  0  0  0  0  0  0  0  0  0  0  0
   59.8949   29.2745   48.6343 H   0  0  0  0  0  0  0  0  0  0  0  0
   58.5841   28.0463   48.6343 H   0  0  0  0  0  0  0  0  0  0  0  0
   56.0866   25.0362   42.9063 H   0  0  0  0  0  0  0  0  0  0  0  0
   55.8715   22.4977   42.3569 H   0  0  0  0  0  0  0  0  0  0  0  0
   57.4878   20.9896   43.7908 H   0  0  0  0  0  0  0  0  0  0  0  0
   56.6500   26.9980   43.7630 H   0  0  0  0  0  0  0  0  0  0  0  0
   58.0082   32.1955   43.5704 H   0  0  0  0  0  0  0  0  0  0  0  0
   56.3633   32.1527   44.2155 H   0  0  0  0  0  0  0  0  0  0  0  0
   58.4292   34.3093   44.3967 H   0  0  0  0  0  0  0  0  0  0  0  0
   56.6748   34.4523   44.5974 H   0  0  0  0  0  0  0  0  0  0  0  0
   58.5072   34.5774   46.6998 H   0  0  0  0  0  0  0  0  0  0  0  0
   56.8146   34.1082   46.9282 H   0  0  0  0  0  0  0  0  0  0  0  0
   59.2827   32.4179   46.9541 H   0  0  0  0  0  0  0  0  0  0  0  0
   57.7032   32.0568   47.6609 H   0  0  0  0  0  0  0  0  0  0  0  0
  1  2  1  0
  2  3  1  0
  3  4  2  0
  4  5  1  0
  5  6  1  0
  6  7  2  0
  7  8  1  0
  8  9  2  0
  9 10  1  0
  5 11  2  0
 11 12  1  0
 12 13  1  0
 13 14  2  0
 14 15  1  0
 15 16  1  0
 16 17  1  0
 17 18  1  0
 18 19  1  0
 14 20  1  0
 20 21  1  0
 21  3  1  0
 10  6  1  0
 21 12  2  0
 19 15  1  0
  1 22  1  0
  1 23  1  0
  1 24  1  0
  7 25  1  0
  8 26  1  0
  9 27  1  0
 11 28  1  0
 16 29  1  0
 16 30  1  0
 17 31  1  0
 17 32  1  0
 18 33  1  0
 18 34  1  0
 19 35  1  0
 19 36  1  0
M  CHG  2  11   1  20  -1
M  END
>  <UniqueID>  (20) 
20

>  <SMILES>  (20) 
CSc1nc(-c2cccs2)[nH+]c2nc(N3CCCC3)[n-]c12

>  <Energy>  (20) 
96.91124686244062

>  <Genealogy>  (20) 
CSc1nc(-c2cccs2)[nH+]c2nc(N3CCCC3)[n-]c12 (protonated)
CSc1nc(-c2cccs2)[nH+]c2nc(N3CCCC3)[n-]c12 (3D coordinates assigned)
CSc1nc(-c2cccs2)[nH+]c2nc(N3CCCC3)[n-]c12 (nonaromatic ring conformer: 96.91124686244062 kcal/mol)

>  <smiles>  (20) 
CSc1nc(-c2cccs2)nc2nc(N3CCCC3)[nH]c12

>  <score_type>  (20) 
oracle

>  <origin>  (20) 
adg

>  <m_score__min__energy>  (20) 
-7.1200000000000001

>  <m_primary>  (20) 
energy

$$$$
20:0
     RDKit          3D

 41 42  0  0  0  0  0  0  0  0999 V2000
   63.3460   33.8440   46.3960 C   0  0  0  0  0  0  0  0  0  0  0  0
   63.0210   33.0720   47.6720 C   0  0  0  0  0  0  0  0  0  0  0  0
   61.5770   33.0710   47.9290 N   0  0  0  0  0  0  0  0  0  0  0  0
   61.0440   33.8990   49.0110 C   0  0  0  0  0  0  0  0  0  0  0  0
   60.6950   32.3180   47.0760 C   0  0  0  0  0  0  0  0  0  0  0  0
   60.8080   31.0640   47.0220 O   0  0  0  0  0  0  0  0  0  0  0  0
   59.6780   32.9720   46.2950 N   0  0  0  0  0  0  0  0  0  0  0  0
   59.9560   34.0540   45.3640 C   0  0  0  0  0  0  0  0  0  0  0  0
   58.5970   34.5400   44.8750 C   0  0  0  0  0  0  0  0  0  0  0  0
   57.5740   33.9930   45.8660 C   0  0  0  0  0  0  0  0  0  0  0  0
   58.2560   32.8150   46.5640 C   0  0  1  0  0  0  0  0  0  0  0  0
   57.7710   31.4960   46.0230 C   0  0  0  0  0  0  0  0  0  0  0  0
   56.8390   31.4760   45.1720 O   0  0  0  0  0  0  0  0  0  0  0  0
   58.3140   30.2690   46.5350 N   0  0  0  0  0  0  0  0  0  0  0  0
   58.1190   28.9860   45.9180 C   0  0  0  0  0  0  0  0  0  0  0  0
   58.2090   28.8710   44.5220 C   0  0  0  0  0  0  0  0  0  0  0  0
   58.0010   27.6380   43.8970 C   0  0  0  0  0  0  0  0  0  0  0  0
   57.6880   26.5100   44.6600 C   0  0  0  0  0  0  0  0  0  0  0  0
   57.4010   24.8260   43.8040 Br  0  0  0  0  0  0  0  0  0  0  0  0
   57.5720   26.6180   46.0490 C   0  0  0  0  0  0  0  0  0  0  0  0
   57.7800   27.8500   46.6770 C   0  0  0  0  0  0  0  0  0  0  0  0
   63.7605   34.8285   46.6586 H   0  0  0  0  0  0  0  0  0  0  0  0
   64.0837   33.2814   45.8049 H   0  0  0  0  0  0  0  0  0  0  0  0
   62.4281   33.9784   45.8049 H   0  0  0  0  0  0  0  0  0  0  0  0
   63.3683   32.0339   47.5633 H   0  0  0  0  0  0  0  0  0  0  0  0
   63.5283   33.5601   48.5172 H   0  0  0  0  0  0  0  0  0  0  0  0
   61.3256   33.4616   49.9802 H   0  0  0  0  0  0  0  0  0  0  0  0
   61.4580   34.9151   48.9332 H   0  0  0  0  0  0  0  0  0  0  0  0
   59.9476   33.9428   48.9332 H   0  0  0  0  0  0  0  0  0  0  0  0
   60.4938   34.8680   45.8722 H   0  0  0  0  0  0  0  0  0  0  0  0
   60.5900   33.7180   44.5302 H   0  0  0  0  0  0  0  0  0  0  0  0
   58.5663   35.6395   44.8616 H   0  0  0  0  0  0  0  0  0  0  0  0
   58.3903   34.1958   43.8509 H   0  0  0  0  0  0  0  0  0  0  0  0
   57.3001   34.7659   46.5992 H   0  0  0  0  0  0  0  0  0  0  0  0
   56.6478   33.6821   45.3606 H   0  0  0  0  0  0  0  0  0  0  0  0
   58.0311   32.8128   47.6408 H   0  0  0  0  0  0  0  0  0  0  0  0
   58.8200   30.3050   47.4480 H   0  0  0  0  0  0  0  0  0  0  0  0
   58.4450   29.7577   43.9153 H   0  0  0  0  0  0  0  0  0  0  0  0
   58.0838   27.5557   42.8032 H   0  0  0  0  0  0  0  0  0  0  0  0
   57.3166   25.7322   46.6491 H   0  0  0  0  0  0  0  0  0  0  0  0
   57.6782   27.9318   47.7692 H   0  0  0  0  0  0  0  0  0  0  0  0
  1  2  1  0
  2  3  1  0
  3  4  1  0
  3  5  1  0
  5  6  2  0
  5  7  1  0
  7  8  1  0
  8  9  1  0
  9 10  1  0
 10 11  1  0
 11 12  1  0
 12 13  2  0
 12 14  1  0
 14 15  1  0
 15 16  2  0
 16 17  1  0
 17 18  2  0
 18 19  1  0
 18 20  1  0
 20 21  2  0
 11  7  1  0
 21 15  1  0
  1 22  1  0
  1 23  1  0
  1 24  1  0
  2 25  1  0
  2 26  1  0
  4 27  1  0
  4 28  1  0
  4 29  1  0
  8 30  1  0
  8 31  1  0
  9 32  1  0
  9 33  1  0
 10 34  1  0
 10 35  1  0
 11 36  1  1
 14 37  1  0
 16 38  1  0
 17 39  1  0
 20 40  1  0
 21 41  1  0
M  END
>  <UniqueID>  (21) 
21

>  <SMILES>  (21) 
CCN(C)C(=O)N1CCC[C@H]1C(=O)Nc1ccc(Br)cc1

>  <Energy>  (21) 
42.335615737114736

>  <Genealogy>  (21) 
CCN(C)C(=O)N1CCC[C@H]1C(=O)Nc1ccc(Br)cc1 (chirality)
CCN(C)C(=O)N1CCC[C@H]1C(=O)Nc1ccc(Br)cc1 (3D coordinates assigned)
CCN(C)C(=O)N1CCC[C@H]1C(=O)Nc1ccc(Br)cc1 (nonaromatic ring conformer: 42.335615737114736 kcal/mol)

>  <smiles>  (21) 
CCN(C)C(=O)N1CCCC1C(=O)Nc1ccc(Br)cc1

>  <score_type>  (21) 
oracle

>  <origin>  (21) 
adg

>  <m_score__min__energy>  (21) 
-6.6200000000000001

>  <m_primary>  (21) 
energy

$$$$
21:0
     RDKit          3D

 49 51  0  0  0  0  0  0  0  0999 V2000
   60.0850   25.9850   46.3610 C   0  0  0  0  0  0  0  0  0  0  0  0
   58.9570   26.4930   45.5710 N   0  0  0  0  0  0  0  0  0  0  0  0
   58.0490   25.5320   44.9320 C   0  0  0  0  0  0  0  0  0  0  0  0
   58.7390   27.9200   45.4270 C   0  0  0  0  0  0  0  0  0  0  0  0
   59.6650   28.8460   45.9470 C   0  0  0  0  0  0  0  0  0  0  0  0
   59.4510   30.2170   45.8160 C   0  0  0  0  0  0  0  0  0  0  0  0
   58.3130   30.7040   45.1630 C   0  0  0  0  0  0  0  0  0  0  0  0
   58.0810   32.1210   45.1340 N   0  0  0  0  0  0  0  0  0  0  0  0
   58.9410   32.9970   44.3370 C   0  0  0  0  0  0  0  0  0  0  0  0
   59.6270   34.0490   45.2320 C   0  0  0  0  0  0  0  0  0  0  0  0
   58.8370   34.4440   46.4290 N   0  0  0  0  0  0  0  0  0  0  0  0
   59.3920   33.8620   47.6730 C   0  0  0  0  0  0  0  0  0  0  0  0
   60.7860   33.3310   47.4580 C   0  0  0  0  0  0  0  0  0  0  0  0
   61.8190   34.2030   47.0780 C   0  0  0  0  0  0  0  0  0  0  0  0
   63.1180   33.7190   46.8950 C   0  0  0  0  0  0  0  0  0  0  0  0
   63.3940   32.3620   47.0910 C   0  0  0  0  0  0  0  0  0  0  0  0
   62.3720   31.4890   47.4720 C   0  0  0  0  0  0  0  0  0  0  0  0
   61.0720   31.9690   47.6560 C   0  0  0  0  0  0  0  0  0  0  0  0
   57.3840   34.1990   46.2660 C   0  0  0  0  0  0  0  0  0  0  0  0
   57.0810   32.7120   46.0280 C   0  0  0  0  0  0  0  0  0  0  0  0
   57.3830   29.7970   44.6090 C   0  0  0  0  0  0  0  0  0  0  0  0
   56.2450   30.2610   43.8610 N   0  0  0  0  0  0  0  0  0  0  0  0
   55.1520   30.4540   44.4320 O   0  0  0  0  0  0  0  0  0  0  0  0
   56.3020   30.3500   42.4890 O   0  0  0  0  0  0  0  0  0  0  0  0
   57.6010   28.4160   44.7590 C   0  0  0  0  0  0  0  0  0  0  0  0
   59.8578   26.0873   47.4324 H   0  0  0  0  0  0  0  0  0  0  0  0
   60.2524   24.9246   46.1213 H   0  0  0  0  0  0  0  0  0  0  0  0
   60.9901   26.5624   46.1213 H   0  0  0  0  0  0  0  0  0  0  0  0
   57.5123   24.9640   45.7062 H   0  0  0  0  0  0  0  0  0  0  0  0
   57.3244   26.0729   44.3056 H   0  0  0  0  0  0  0  0  0  0  0  0
   58.6301   24.8392   44.3056 H   0  0  0  0  0  0  0  0  0  0  0  0
   60.5667   28.4829   46.4620 H   0  0  0  0  0  0  0  0  0  0  0  0
   60.1847   30.9241   46.2305 H   0  0  0  0  0  0  0  0  0  0  0  0
   59.7109   32.3903   43.8379 H   0  0  0  0  0  0  0  0  0  0  0  0
   58.3218   33.5170   43.5912 H   0  0  0  0  0  0  0  0  0  0  0  0
   60.5876   33.6364   45.5741 H   0  0  0  0  0  0  0  0  0  0  0  0
   59.7444   34.9550   44.6194 H   0  0  0  0  0  0  0  0  0  0  0  0
   59.4214   34.6401   48.4500 H   0  0  0  0  0  0  0  0  0  0  0  0
   58.7471   33.0260   47.9816 H   0  0  0  0  0  0  0  0  0  0  0  0
   61.6055   35.2710   46.9237 H   0  0  0  0  0  0  0  0  0  0  0  0
   63.9235   34.4061   46.5966 H   0  0  0  0  0  0  0  0  0  0  0  0
   64.4159   31.9820   46.9451 H   0  0  0  0  0  0  0  0  0  0  0  0
   62.5906   30.4222   47.6275 H   0  0  0  0  0  0  0  0  0  0  0  0
   60.2702   31.2786   47.9567 H   0  0  0  0  0  0  0  0  0  0  0  0
   56.8628   34.5275   47.1773 H   0  0  0  0  0  0  0  0  0  0  0  0
   57.0377   34.7640   45.3880 H   0  0  0  0  0  0  0  0  0  0  0  0
   57.0973   32.1806   46.9910 H   0  0  0  0  0  0  0  0  0  0  0  0
   56.0889   32.6213   45.5615 H   0  0  0  0  0  0  0  0  0  0  0  0
   56.8678   27.7075   44.3462 H   0  0  0  0  0  0  0  0  0  0  0  0
  1  2  1  0
  2  3  1  0
  2  4  1  0
  4  5  2  0
  5  6  1  0
  6  7  2  0
  7  8  1  0
  8  9  1  0
  9 10  1  0
 10 11  1  0
 11 12  1  0
 12 13  1  0
 13 14  2  0
 14 15  1  0
 15 16  2  0
 16 17  1  0
 17 18  2  0
 11 19  1  0
 19 20  1  0
  7 21  1  0
 21 22  1  0
 22 23  2  0
 22 24  1  0
 21 25  2  0
 25  4  1  0
 20  8  1  0
 18 13  1  0
  1 26  1  0
  1 27  1  0
  1 28  1  0
  3 29  1  0
  3 30  1  0
  3 31  1  0
  5 32  1  0
  6 33  1  0
  9 34  1  0
  9 35  1  0
 10 36  1  0
 10 37  1  0
 12 38  1  0
 12 39  1  0
 14 40  1  0
 15 41  1  0
 16 42  1  0
 17 43  1  0
 18 44  1  0
 19 45  1  0
 19 46  1  0
 20 47  1  0
 20 48  1  0
 25 49  1  0
M  CHG  2  22   1  24  -1
M  END
>  <UniqueID>  (22) 
22

>  <SMILES>  (22) 
CN(C)c1ccc(N2CCN(Cc3ccccc3)CC2)c([N+](=O)[O-])c1

>  <Energy>  (22) 
69.07995436984807

>  <Genealogy>  (22) 
CN(C)c1ccc(N2CCN(Cc3ccccc3)CC2)c([N+](=O)[O-])c1 (3D coordinates assigned)
CN(C)c1ccc(N2CCN(Cc3ccccc3)CC2)c([N+](=O)[O-])c1 (nonaromatic ring conformer: 69.07995436984807 kcal/mol)

>  <smiles>  (22) 
CN(C)c1ccc(N2CCN(Cc3ccccc3)CC2)c([N+](=O)[O-])c1

>  <score_type>  (22) 
oracle

>  <origin>  (22) 
adg

>  <m_score__min__energy>  (22) 
-7.79

>  <m_primary>  (22) 
energy

$$$$
22:0
     RDKit          3D

 43 45  0  0  0  0  0  0  0  0999 V2000
   62.4310   31.6900   50.0880 C   0  0  0  0  0  0  0  0  0  0  0  0
   61.6760   30.8340   49.1100 C   0  0  0  0  0  0  0  0  0  0  0  0
   61.0520   29.6550   49.5480 C   0  0  0  0  0  0  0  0  0  0  0  0
   60.3410   28.8530   48.6510 C   0  0  0  0  0  0  0  0  0  0  0  0
   60.2520   29.2090   47.2960 C   0  0  0  0  0  0  0  0  0  0  0  0
   59.5090   28.4130   46.3560 N   0  0  0  0  0  0  0  0  0  0  0  0
   58.2830   27.7320   46.6690 C   0  0  0  0  0  0  0  0  0  0  0  0
   57.9010   27.6100   47.8640 O   0  0  0  0  0  0  0  0  0  0  0  0
   57.5000   27.0710   45.5770 C   0  0  0  0  0  0  0  0  0  0  0  0
   57.8330   27.6970   44.2210 C   0  0  0  0  0  0  0  0  0  0  0  0
   57.4890   29.1170   44.2190 N   0  0  0  0  0  0  0  0  0  0  0  0
   56.2220   29.6740   44.5270 C   0  0  0  0  0  0  0  0  0  0  0  0
   55.1550   29.0050   44.5380 O   0  0  0  0  0  0  0  0  0  0  0  0
   56.2700   31.0580   44.8560 N   0  0  0  0  0  0  0  0  0  0  0  0
   57.6780   31.4640   44.8000 C   0  0  0  0  0  0  0  0  0  0  0  0
   57.8710   32.5940   43.7960 C   0  0  0  0  0  0  0  0  0  0  0  0
   57.6230   33.8710   44.5880 C   0  0  0  0  0  0  0  0  0  0  0  0
   57.8660   33.5340   46.0610 C   0  0  0  0  0  0  0  0  0  0  0  0
   58.1260   32.0330   46.1440 C   0  0  0  0  0  0  0  0  0  0  0  0
   58.3910   30.1970   44.4170 C   0  0  0  0  0  0  0  0  0  0  0  0
   59.6420   30.0860   44.2880 O   0  0  0  0  0  0  0  0  0  0  0  0
   60.8480   30.4020   46.8640 C   0  0  0  0  0  0  0  0  0  0  0  0
   61.5610   31.2100   47.7570 C   0  0  0  0  0  0  0  0  0  0  0  0
   62.2930   32.6930   47.1500 Cl  0  0  0  0  0  0  0  0  0  0  0  0
   62.1688   31.3927   51.1141 H   0  0  0  0  0  0  0  0  0  0  0  0
   63.5119   31.5578   49.9328 H   0  0  0  0  0  0  0  0  0  0  0  0
   62.1648   32.7460   49.9328 H   0  0  0  0  0  0  0  0  0  0  0  0
   61.1233   29.3602   50.6054 H   0  0  0  0  0  0  0  0  0  0  0  0
   59.8481   27.9371   49.0090 H   0  0  0  0  0  0  0  0  0  0  0  0
   59.9230   28.2620   45.4080 H   0  0  0  0  0  0  0  0  0  0  0  0
   57.7485   25.9997   45.5515 H   0  0  0  0  0  0  0  0  0  0  0  0
   56.4270   27.2080   45.7770 H   0  0  0  0  0  0  0  0  0  0  0  0
   58.9093   27.5842   44.0239 H   0  0  0  0  0  0  0  0  0  0  0  0
   57.2509   27.1871   43.4392 H   0  0  0  0  0  0  0  0  0  0  0  0
   58.8941   32.5820   43.3922 H   0  0  0  0  0  0  0  0  0  0  0  0
   57.1919   32.5028   42.9355 H   0  0  0  0  0  0  0  0  0  0  0  0
   58.3164   34.6598   44.2609 H   0  0  0  0  0  0  0  0  0  0  0  0
   56.5981   34.2387   44.4318 H   0  0  0  0  0  0  0  0  0  0  0  0
   58.7389   34.0889   46.4354 H   0  0  0  0  0  0  0  0  0  0  0  0
   56.9966   33.8139   46.6740 H   0  0  0  0  0  0  0  0  0  0  0  0
   59.1961   31.8370   46.3065 H   0  0  0  0  0  0  0  0  0  0  0  0
   57.5837   31.5717   46.9825 H   0  0  0  0  0  0  0  0  0  0  0  0
   60.7542   30.7065   45.8112 H   0  0  0  0  0  0  0  0  0  0  0  0
  1  2  1  0
  2  3  2  0
  3  4  1  0
  4  5  2  0
  5  6  1  0
  6  7  1  0
  7  8  2  0
  7  9  1  0
  9 10  1  0
 10 11  1  0
 11 12  1  0
 12 13  2  0
 12 14  1  0
 14 15  1  0
 15 16  1  0
 16 17  1  0
 17 18  1  0
 18 19  1  0
 15 20  1  0
 20 21  2  0
  5 22  1  0
 22 23  2  0
 23 24  1  0
 23  2  1  0
 20 11  1  0
 19 15  1  0
  1 25  1  0
  1 26  1  0
  1 27  1  0
  3 28  1  0
  4 29  1  0
  6 30  1  0
  9 31  1  0
  9 32  1  0
 10 33  1  0
 10 34  1  0
 16 35  1  0
 16 36  1  0
 17 37  1  0
 17 38  1  0
 18 39  1  0
 18 40  1  0
 19 41  1  0
 19 42  1  0
 22 43  1  0
M  CHG  1  14  -1
M  END
>  <UniqueID>  (23) 
23

>  <SMILES>  (23) 
Cc1ccc(NC(=O)CCN2C(=O)[N-]C3(CCCC3)C2=O)cc1Cl

>  <Energy>  (23) 
63.67348606326256

>  <Genealogy>  (23) 
Cc1ccc(NC(=O)CCN2C(=O)[N-]C3(CCCC3)C2=O)cc1Cl (protonated)
Cc1ccc(NC(=O)CCN2C(=O)[N-]C3(CCCC3)C2=O)cc1Cl (3D coordinates assigned)
Cc1ccc(NC(=O)CCN2C(=O)[N-]C3(CCCC3)C2=O)cc1Cl (nonaromatic ring conformer: 63.67348606326256 kcal/mol)

>  <smiles>  (23) 
Cc1ccc(NC(=O)CCN2C(=O)NC3(CCCC3)C2=O)cc1Cl

>  <score_type>  (23) 
oracle

>  <origin>  (23) 
adg

>  <m_score__min__energy>  (23) 
-9.8800000000000008

>  <m_primary>  (23) 
energy

$$$$
23:0
     RDKit          3D

 48 48  0  0  0  0  0  0  0  0999 V2000
   63.3960   33.8530   46.4750 C   0  0  0  0  0  0  0  0  0  0  0  0
   62.0210   33.2830   46.8650 C   0  0  0  0  0  0  0  0  0  0  0  0
   62.0160   32.3950   48.0710 N   0  0  0  0  0  0  0  0  0  0  0  0
   61.0870   32.9430   49.0950 C   0  0  0  0  0  0  0  0  0  0  0  0
   63.3790   32.4110   48.6640 C   0  0  0  0  0  0  0  0  0  0  0  0
   61.6010   30.9870   47.7760 C   0  0  0  0  0  0  0  0  0  0  0  0
   60.1100   30.7960   47.4150 C   0  0  0  0  0  0  0  0  0  0  0  0
   59.9480   30.8520   46.0090 O   0  0  0  0  0  0  0  0  0  0  0  0
   59.3360   29.6720   45.5300 C   0  0  0  0  0  0  0  0  0  0  0  0
   58.1180   29.3550   46.3940 C   0  0  0  0  0  0  0  0  0  0  0  0
   56.9350   29.4170   45.6200 O   0  0  0  0  0  0  0  0  0  0  0  0
   57.2230   29.5700   44.2420 C   0  0  0  0  0  0  0  0  0  0  0  0
   56.9130   30.9920   43.7810 C   0  0  0  0  0  0  0  0  0  0  0  0
   56.6640   31.8220   44.9140 O   0  0  0  0  0  0  0  0  0  0  0  0
   57.5340   32.8210   45.3710 C   0  0  0  0  0  0  0  0  0  0  0  0
   58.3540   33.4680   44.4350 C   0  0  0  0  0  0  0  0  0  0  0  0
   59.2350   34.4750   44.8420 C   0  0  0  0  0  0  0  0  0  0  0  0
   59.3040   34.8440   46.1870 C   0  0  0  0  0  0  0  0  0  0  0  0
   58.4930   34.2050   47.1290 C   0  0  0  0  0  0  0  0  0  0  0  0
   57.6100   33.1970   46.7280 C   0  0  0  0  0  0  0  0  0  0  0  0
   63.9665   34.0895   47.3853 H   0  0  0  0  0  0  0  0  0  0  0  0
   63.9462   33.1088   45.8804 H   0  0  0  0  0  0  0  0  0  0  0  0
   63.2583   34.7682   45.8804 H   0  0  0  0  0  0  0  0  0  0  0  0
   61.3460   34.1287   47.0627 H   0  0  0  0  0  0  0  0  0  0  0  0
   61.7021   32.6530   46.0216 H   0  0  0  0  0  0  0  0  0  0  0  0
   61.4730   32.7153   50.0996 H   0  0  0  0  0  0  0  0  0  0  0  0
   61.0068   34.0331   48.9714 H   0  0  0  0  0  0  0  0  0  0  0  0
   60.0941   32.4859   48.9714 H   0  0  0  0  0  0  0  0  0  0  0  0
   63.3015   32.4101   49.7613 H   0  0  0  0  0  0  0  0  0  0  0  0
   63.9326   31.5193   48.3348 H   0  0  0  0  0  0  0  0  0  0  0  0
   63.9115   33.3155   48.3348 H   0  0  0  0  0  0  0  0  0  0  0  0
   62.2038   30.6260   46.9297 H   0  0  0  0  0  0  0  0  0  0  0  0
   61.7618   30.4228   48.7065 H   0  0  0  0  0  0  0  0  0  0  0  0
   59.7669   29.8181   47.7839 H   0  0  0  0  0  0  0  0  0  0  0  0
   59.5169   31.5960   47.8821 H   0  0  0  0  0  0  0  0  0  0  0  0
   59.0195   29.8185   44.4868 H   0  0  0  0  0  0  0  0  0  0  0  0
   60.0514   28.8378   45.5776 H   0  0  0  0  0  0  0  0  0  0  0  0
   58.2243   28.3436   46.8133 H   0  0  0  0  0  0  0  0  0  0  0  0
   58.0532   30.0953   47.2050 H   0  0  0  0  0  0  0  0  0  0  0  0
   58.2888   29.3589   44.0702 H   0  0  0  0  0  0  0  0  0  0  0  0
   56.5981   28.8684   43.6699 H   0  0  0  0  0  0  0  0  0  0  0  0
   57.7709   31.3891   43.2185 H   0  0  0  0  0  0  0  0  0  0  0  0
   56.0219   30.9794   43.1362 H   0  0  0  0  0  0  0  0  0  0  0  0
   58.3039   33.1816   43.3741 H   0  0  0  0  0  0  0  0  0  0  0  0
   59.8747   34.9772   44.1013 H   0  0  0  0  0  0  0  0  0  0  0  0
   59.9964   35.6374   46.5050 H   0  0  0  0  0  0  0  0  0  0  0  0
   58.5492   34.4955   48.1885 H   0  0  0  0  0  0  0  0  0  0  0  0
   56.9736   32.6966   47.4727 H   0  0  0  0  0  0  0  0  0  0  0  0
  1  2  1  0
  2  3  1  0
  3  4  1  0
  3  5  1  0
  3  6  1  0
  6  7  1  0
  7  8  1  0
  8  9  1  0
  9 10  1  0
 10 11  1  0
 11 12  1  0
 12 13  1  0
 13 14  1  0
 14 15  1  0
 15 16  2  0
 16 17  1  0
 17 18  2  0
 18 19  1  0
 19 20  2  0
 20 15  1  0
  1 21  1  0
  1 22  1  0
  1 23  1  0
  2 24  1  0
  2 25  1  0
  4 26  1  0
  4 27  1  0
  4 28  1  0
  5 29  1  0
  5 30  1  0
  5 31  1  0
  6 32  1  0
  6 33  1  0
  7 34  1  0
  7 35  1  0
  9 36  1  0
  9 37  1  0
 10 38  1  0
 10 39  1  0
 12 40  1  0
 12 41  1  0
 13 42  1  0
 13 43  1  0
 16 44  1  0
 17 45  1  0
 18 46  1  0
 19 47  1  0
 20 48  1  0
M  CHG  1   3   1
M  END
>  <UniqueID>  (24) 
24

>  <SMILES>  (24) 
CC[N+](C)(C)CCOCCOCCOc1ccccc1

>  <Energy>  (24) 
54.07875850732019

>  <Genealogy>  (24) 
CC[N+](C)(C)CCOCCOCCOc1ccccc1 (3D coordinates assigned)
CC[N+](C)(C)CCOCCOCCOc1ccccc1 (optimized conformer: 54.07875850732019 kcal/mol)

>  <smiles>  (24) 
CC[N+](C)(C)CCOCCOCCOc1ccccc1

>  <score_type>  (24) 
oracle

>  <origin>  (24) 
adg

>  <m_score__min__energy>  (24) 
-4.5499999999999998

>  <m_primary>  (24) 
energy

$$$$
24:0
     RDKit          3D

 41 43  0  0  0  0  0  0  0  0999 V2000
   61.2630   34.1970   48.8980 C   0  0  0  0  0  0  0  0  0  0  0  0
   61.4880   33.8880   47.4140 C   0  0  0  0  0  0  0  0  0  0  0  0
   60.6860   32.7180   46.9720 N   0  0  0  0  0  0  0  0  0  0  0  0
   61.1990   31.4420   47.1330 C   0  0  0  0  0  0  0  0  0  0  0  0
   62.6640   31.2150   47.4820 C   0  0  0  0  0  0  0  0  0  0  0  0
   60.3330   30.3230   47.0450 C   0  0  0  0  0  0  0  0  0  0  0  0
   60.7380   29.0370   47.4800 C   0  0  0  0  0  0  0  0  0  0  0  0
   59.8530   27.9630   47.4770 C   0  0  0  0  0  0  0  0  0  0  0  0
   58.5230   28.1500   47.0890 C   0  0  0  0  0  0  0  0  0  0  0  0
   57.5740   27.1180   47.1310 O   0  0  0  0  0  0  0  0  0  0  0  0
   57.5990   25.9670   46.2920 C   0  0  0  0  0  0  0  0  0  0  0  0
   58.1110   29.4110   46.6550 C   0  0  0  0  0  0  0  0  0  0  0  0
   59.0160   30.4980   46.5590 C   0  0  0  0  0  0  0  0  0  0  0  0
   58.6260   31.7700   46.0660 C   0  0  0  0  0  0  0  0  0  0  0  0
   57.4750   31.9610   45.2410 C   0  0  0  0  0  0  0  0  0  0  0  0
   56.8500   30.8580   44.6310 O   0  0  0  0  0  0  0  0  0  0  0  0
   57.0030   30.4780   43.2670 C   0  0  0  0  0  0  0  0  0  0  0  0
   57.0180   33.2620   44.9800 C   0  0  0  0  0  0  0  0  0  0  0  0
   57.7290   34.3610   45.4300 C   0  0  0  0  0  0  0  0  0  0  0  0
   58.9330   34.1910   46.0990 C   0  0  0  0  0  0  0  0  0  0  0  0
   59.4370   32.8970   46.3980 C   0  0  0  0  0  0  0  0  0  0  0  0
   61.8003   33.4590   49.5118 H   0  0  0  0  0  0  0  0  0  0  0  0
   61.6396   35.2056   49.1237 H   0  0  0  0  0  0  0  0  0  0  0  0
   60.1875   34.1482   49.1237 H   0  0  0  0  0  0  0  0  0  0  0  0
   61.1972   34.7659   46.8184 H   0  0  0  0  0  0  0  0  0  0  0  0
   62.5523   33.6505   47.2692 H   0  0  0  0  0  0  0  0  0  0  0  0
   62.7819   31.1967   48.5755 H   0  0  0  0  0  0  0  0  0  0  0  0
   62.9966   30.2546   47.0613 H   0  0  0  0  0  0  0  0  0  0  0  0
   63.2717   32.0297   47.0613 H   0  0  0  0  0  0  0  0  0  0  0  0
   61.7708   28.8846   47.8265 H   0  0  0  0  0  0  0  0  0  0  0  0
   60.2008   26.9646   47.7806 H   0  0  0  0  0  0  0  0  0  0  0  0
   57.6187   25.0601   46.9142 H   0  0  0  0  0  0  0  0  0  0  0  0
   56.7009   25.9566   45.6570 H   0  0  0  0  0  0  0  0  0  0  0  0
   58.4967   25.9956   45.6570 H   0  0  0  0  0  0  0  0  0  0  0  0
   57.0571   29.5653   46.3804 H   0  0  0  0  0  0  0  0  0  0  0  0
   57.4134   29.4588   43.2141 H   0  0  0  0  0  0  0  0  0  0  0  0
   56.0238   30.5054   42.7667 H   0  0  0  0  0  0  0  0  0  0  0  0
   57.6900   31.1763   42.7667 H   0  0  0  0  0  0  0  0  0  0  0  0
   56.0870   33.4096   44.4131 H   0  0  0  0  0  0  0  0  0  0  0  0
   57.3378   35.3743   45.2565 H   0  0  0  0  0  0  0  0  0  0  0  0
   59.5092   35.0770   46.4041 H   0  0  0  0  0  0  0  0  0  0  0  0
  1  2  1  0
  2  3  1  0
  3  4  2  0
  4  5  1  0
  4  6  1  0
  6  7  2  0
  7  8  1  0
  8  9  2  0
  9 10  1  0
 10 11  1  0
  9 12  1  0
 12 13  2  0
 13 14  1  0
 14 15  2  0
 15 16  1  0
 16 17  1  0
 15 18  1  0
 18 19  2  0
 19 20  1  0
 20 21  2  0
 21  3  1  0
 13  6  1  0
 21 14  1  0
  1 22  1  0
  1 23  1  0
  1 24  1  0
  2 25  1  0
  2 26  1  0
  5 27  1  0
  5 28  1  0
  5 29  1  0
  7 30  1  0
  8 31  1  0
 11 32  1  0
 11 33  1  0
 11 34  1  0
 12 35  1  0
 17 36  1  0
 17 37  1  0
 17 38  1  0
 18 39  1  0
 19 40  1  0
 20 41  1  0
M  CHG  1   3   1
M  END
>  <UniqueID>  (25) 
25

>  <SMILES>  (25) 
CC[n+]1c(C)c2ccc(OC)cc2c2c(OC)cccc21

>  <Energy>  (25) 
74.46057552555001

>  <Genealogy>  (25) 
CC[n+]1c(C)c2ccc(OC)cc2c2c(OC)cccc21 (3D coordinates assigned)
CC[n+]1c(C)c2ccc(OC)cc2c2c(OC)cccc21 (optimized conformer: 74.46057552555001 kcal/mol)

>  <smiles>  (25) 
CC[n+]1c(C)c2ccc(OC)cc2c2c(OC)cccc21

>  <score_type>  (25) 
oracle

>  <origin>  (25) 
adg

>  <m_score__min__energy>  (25) 
-5.1500000000000004

>  <m_primary>  (25) 
energy

$$$$
25:0
     RDKit          3D

 44 47  0  0  0  0  0  0  0  0999 V2000
   55.5270   29.7140   43.3690 C   0  0  0  0  0  0  0  0  0  0  0  0
   56.0160   29.2140   44.6120 O   0  0  0  0  0  0  0  0  0  0  0  0
   57.1000   29.7580   45.3200 C   0  0  0  0  0  0  0  0  0  0  0  0
   57.4760   31.1100   45.1800 C   0  0  0  0  0  0  0  0  0  0  0  0
   58.5800   31.6160   45.8820 C   0  0  0  0  0  0  0  0  0  0  0  0
   59.0000   32.9510   45.7680 C   0  0  0  0  0  0  0  0  0  0  0  0
   60.0980   33.4020   46.4560 C   0  0  0  0  0  0  0  0  0  0  0  0
   60.8120   32.5380   47.2960 C   0  0  0  0  0  0  0  0  0  0  0  0
   61.9520   32.9880   48.0390 N   0  0  0  0  0  0  0  0  0  0  0  0
   63.3010   32.7030   47.5530 C   0  0  0  0  0  0  0  0  0  0  0  0
   64.2630   32.6250   48.7400 C   0  0  0  0  0  0  0  0  0  0  0  0
   64.1540   33.7810   49.5510 O   0  0  0  0  0  0  0  0  0  0  0  0
   62.8690   33.8320   50.1440 C   0  0  0  0  0  0  0  0  0  0  0  0
   61.7800   34.0020   49.0780 C   0  0  0  0  0  0  0  0  0  0  0  0
   60.4000   31.2450   47.4170 N   0  0  0  0  0  0  0  0  0  0  0  0
   59.3170   30.7650   46.7380 C   0  0  0  0  0  0  0  0  0  0  0  0
   58.9390   29.4280   46.8860 C   0  0  0  0  0  0  0  0  0  0  0  0
   57.8300   28.9210   46.1890 C   0  0  0  0  0  0  0  0  0  0  0  0
   57.4560   27.4720   46.3330 C   0  0  0  0  0  0  0  0  0  0  0  0
   60.3720   34.8370   46.1950 C   0  0  0  0  0  0  0  0  0  0  0  0
   59.2450   35.2690   45.2410 C   0  0  0  0  0  0  0  0  0  0  0  0
   58.3810   34.0280   44.9520 C   0  0  0  0  0  0  0  0  0  0  0  0
   54.7693   30.4887   43.5580 H   0  0  0  0  0  0  0  0  0  0  0  0
   56.3594   30.1474   42.7952 H   0  0  0  0  0  0  0  0  0  0  0  0
   55.0752   28.8915   42.7952 H   0  0  0  0  0  0  0  0  0  0  0  0
   56.9001   31.7717   44.5163 H   0  0  0  0  0  0  0  0  0  0  0  0
   63.3024   31.7431   47.0159 H   0  0  0  0  0  0  0  0  0  0  0  0
   63.6228   33.5041   46.8714 H   0  0  0  0  0  0  0  0  0  0  0  0
   64.0212   31.7372   49.3428 H   0  0  0  0  0  0  0  0  0  0  0  0
   65.2919   32.5582   48.3568 H   0  0  0  0  0  0  0  0  0  0  0  0
   62.6898   32.8975   50.6959 H   0  0  0  0  0  0  0  0  0  0  0  0
   62.8308   34.6945   50.8256 H   0  0  0  0  0  0  0  0  0  0  0  0
   60.7901   33.8857   49.5434 H   0  0  0  0  0  0  0  0  0  0  0  0
   61.8593   35.0033   48.6296 H   0  0  0  0  0  0  0  0  0  0  0  0
   59.5137   28.7683   47.5527 H   0  0  0  0  0  0  0  0  0  0  0  0
   57.3896   27.2148   47.4004 H   0  0  0  0  0  0  0  0  0  0  0  0
   56.4827   27.2950   45.8520 H   0  0  0  0  0  0  0  0  0  0  0  0
   58.2220   26.8460   45.8520 H   0  0  0  0  0  0  0  0  0  0  0  0
   60.3364   35.4171   47.1289 H   0  0  0  0  0  0  0  0  0  0  0  0
   61.3721   35.0042   45.7687 H   0  0  0  0  0  0  0  0  0  0  0  0
   58.6325   36.0511   45.7133 H   0  0  0  0  0  0  0  0  0  0  0  0
   59.6623   35.6759   44.3081 H   0  0  0  0  0  0  0  0  0  0  0  0
   57.3386   34.1990   45.2588 H   0  0  0  0  0  0  0  0  0  0  0  0
   58.3493   33.7782   43.8812 H   0  0  0  0  0  0  0  0  0  0  0  0
  1  2  1  0
  2  3  1  0
  3  4  2  0
  4  5  1  0
  5  6  2  0
  6  7  1  0
  7  8  2  0
  8  9  1  0
  9 10  1  0
 10 11  1  0
 11 12  1  0
 12 13  1  0
 13 14  1  0
  8 15  1  0
 15 16  2  0
 16 17  1  0
 17 18  2  0
 18 19  1  0
  7 20  1  0
 20 21  1  0
 21 22  1  0
 18  3  1  0
 16  5  1  0
 22  6  1  0
 14  9  1  0
  1 23  1  0
  1 24  1  0
  1 25  1  0
  4 26  1  0
 10 27  1  0
 10 28  1  0
 11 29  1  0
 11 30  1  0
 13 31  1  0
 13 32  1  0
 14 33  1  0
 14 34  1  0
 17 35  1  0
 19 36  1  0
 19 37  1  0
 19 38  1  0
 20 39  1  0
 20 40  1  0
 21 41  1  0
 21 42  1  0
 22 43  1  0
 22 44  1  0
M  END
>  <UniqueID>  (26) 
26

>  <SMILES>  (26) 
COc1cc2c3c(c(N4CCOCC4)nc2cc1C)CCC3

>  <Energy>  (26) 
63.11275775785058

>  <Genealogy>  (26) 
COc1cc2c3c(c(N4CCOCC4)nc2cc1C)CCC3 (3D coordinates assigned)
COc1cc2c3c(c(N4CCOCC4)nc2cc1C)CCC3 (nonaromatic ring conformer: 63.11275775785058 kcal/mol)

>  <smiles>  (26) 
COc1cc2c3c(c(N4CCOCC4)nc2cc1C)CCC3

>  <score_type>  (26) 
oracle

>  <origin>  (26) 
adg

>  <m_score__min__energy>  (26) 
-7.4299999999999997

>  <m_primary>  (26) 
energy

$$$$
26:0
     RDKit          3D

 32 34  0  0  0  0  0  0  0  0999 V2000
   62.0580   33.4530   46.7290 C   0  0  0  0  0  0  0  0  0  0  0  0
   60.7500   33.1090   47.2960 N   0  0  0  0  0  0  0  0  0  0  0  0
   59.8340   34.1650   47.6440 C   0  0  0  0  0  0  0  0  0  0  0  0
   59.9520   34.7710   48.7430 O   0  0  0  0  0  0  0  0  0  0  0  0
   58.7250   34.5460   46.7170 C   0  0  0  0  0  0  0  0  0  0  0  0
   57.8660   33.3880   46.4990 N   0  0  0  0  0  0  0  0  0  0  0  0
   58.2450   32.2690   45.9490 C   0  0  0  0  0  0  0  0  0  0  0  0
   57.8060   31.9800   44.5580 C   0  0  0  0  0  0  0  0  0  0  0  0
   57.0480   30.8330   44.2670 C   0  0  0  0  0  0  0  0  0  0  0  0
   56.6510   30.5660   42.9560 C   0  0  0  0  0  0  0  0  0  0  0  0
   57.0200   31.4430   41.9380 C   0  0  0  0  0  0  0  0  0  0  0  0
   57.7640   32.5440   42.2250 N   0  0  0  0  0  0  0  0  0  0  0  0
   58.1620   32.8280   43.4940 C   0  0  0  0  0  0  0  0  0  0  0  0
   59.1280   31.3120   46.6770 C   0  0  0  0  0  0  0  0  0  0  0  0
   58.7600   29.9540   46.7270 C   0  0  0  0  0  0  0  0  0  0  0  0
   59.5460   29.0250   47.4110 C   0  0  0  0  0  0  0  0  0  0  0  0
   59.0230   27.1890   47.4680 Br  0  0  0  0  0  0  0  0  0  0  0  0
   60.7130   29.4380   48.0510 C   0  0  0  0  0  0  0  0  0  0  0  0
   61.1000   30.7770   48.0070 C   0  0  0  0  0  0  0  0  0  0  0  0
   60.3220   31.7300   47.3220 C   0  0  0  0  0  0  0  0  0  0  0  0
   62.7728   33.6410   47.5437 H   0  0  0  0  0  0  0  0  0  0  0  0
   62.4196   32.6194   46.1090 H   0  0  0  0  0  0  0  0  0  0  0  0
   61.9627   34.3566   46.1090 H   0  0  0  0  0  0  0  0  0  0  0  0
   58.1370   35.3622   47.1620 H   0  0  0  0  0  0  0  0  0  0  0  0
   59.1436   34.8827   45.7571 H   0  0  0  0  0  0  0  0  0  0  0  0
   56.7664   30.1428   45.0759 H   0  0  0  0  0  0  0  0  0  0  0  0
   56.0524   29.6716   42.7284 H   0  0  0  0  0  0  0  0  0  0  0  0
   56.7092   31.2444   40.9017 H   0  0  0  0  0  0  0  0  0  0  0  0
   58.7660   33.7263   43.6894 H   0  0  0  0  0  0  0  0  0  0  0  0
   57.8419   29.6209   46.2209 H   0  0  0  0  0  0  0  0  0  0  0  0
   61.3304   28.7060   48.5922 H   0  0  0  0  0  0  0  0  0  0  0  0
   62.0241   31.0925   48.5135 H   0  0  0  0  0  0  0  0  0  0  0  0
  1  2  1  0
  2  3  1  0
  3  4  2  0
  3  5  1  0
  5  6  1  0
  6  7  2  0
  7  8  1  0
  8  9  2  0
  9 10  1  0
 10 11  2  0
 11 12  1  0
 12 13  2  0
  7 14  1  0
 14 15  2  0
 15 16  1  0
 16 17  1  0
 16 18  2  0
 18 19  1  0
 19 20  2  0
 20  2  1  0
 13  8  1  0
 20 14  1  0
  1 21  1  0
  1 22  1  0
  1 23  1  0
  5 24  1  0
  5 25  1  0
  9 26  1  0
 10 27  1  0
 11 28  1  0
 13 29  1  0
 15 30  1  0
 18 31  1  0
 19 32  1  0
M  END
>  <UniqueID>  (27) 
27

>  <SMILES>  (27) 
CN1C(=O)CN=C(c2cccnc2)c2cc(Br)ccc21

>  <Energy>  (27) 
49.90664351444865

>  <Genealogy>  (27) 
CN1C(=O)CN=C(c2cccnc2)c2cc(Br)ccc21 (3D coordinates assigned)
CN1C(=O)CN=C(c2cccnc2)c2cc(Br)ccc21 (nonaromatic ring conformer: 49.90664351444865 kcal/mol)

>  <smiles>  (27) 
CN1C(=O)CN=C(c2cccnc2)c2cc(Br)ccc21

>  <score_type>  (27) 
oracle

>  <origin>  (27) 
adg

>  <m_score__min__energy>  (27) 
-5.1900000000000004

>  <m_primary>  (27) 
energy

$$$$
27:0
     RDKit          3D

 35 37  0  0  0  0  0  0  0  0999 V2000
   54.9390   24.9530   45.6150 C   0  0  0  0  0  0  0  0  0  0  0  0
   55.3970   26.2480   45.9880 O   0  0  0  0  0  0  0  0  0  0  0  0
   56.7420   26.6450   45.9850 C   0  0  0  0  0  0  0  0  0  0  0  0
   57.8010   25.7180   45.9990 C   0  0  0  0  0  0  0  0  0  0  0  0
   59.1240   26.1630   45.9900 C   0  0  0  0  0  0  0  0  0  0  0  0
   59.4060   27.5310   45.9720 C   0  0  0  0  0  0  0  0  0  0  0  0
   58.3620   28.4730   45.9700 C   0  0  0  0  0  0  0  0  0  0  0  0
   58.6410   29.8870   45.9410 N   0  0  0  0  0  0  0  0  0  0  0  0
   59.8520   30.5170   46.4860 C   0  0  0  0  0  0  0  0  0  0  0  0
   59.5890   31.9880   46.3300 C   0  0  0  0  0  0  0  0  0  0  0  0
   60.4130   33.0560   46.6990 C   0  0  0  0  0  0  0  0  0  0  0  0
   61.6490   32.7880   47.3060 O   0  0  0  0  0  0  0  0  0  0  0  0
   62.8580   33.4720   46.9960 C   0  0  0  0  0  0  0  0  0  0  0  0
   59.9550   34.3690   46.4370 C   0  0  0  0  0  0  0  0  0  0  0  0
   58.7050   34.5800   45.8180 C   0  0  0  0  0  0  0  0  0  0  0  0
   57.8990   33.4910   45.4560 C   0  0  0  0  0  0  0  0  0  0  0  0
   58.3700   32.2090   45.7290 C   0  0  0  0  0  0  0  0  0  0  0  0
   57.7750   30.9230   45.4700 C   0  0  0  0  0  0  0  0  0  0  0  0
   56.6890   30.7310   44.8630 O   0  0  0  0  0  0  0  0  0  0  0  0
   57.0320   28.0140   45.9660 C   0  0  0  0  0  0  0  0  0  0  0  0
   54.7304   24.3632   46.5198 H   0  0  0  0  0  0  0  0  0  0  0  0
   54.0196   25.0470   45.0185 H   0  0  0  0  0  0  0  0  0  0  0  0
   55.7131   24.4480   45.0185 H   0  0  0  0  0  0  0  0  0  0  0  0
   57.5854   24.6395   46.0171 H   0  0  0  0  0  0  0  0  0  0  0  0
   59.9475   25.4338   45.9971 H   0  0  0  0  0  0  0  0  0  0  0  0
   60.4512   27.8735   45.9593 H   0  0  0  0  0  0  0  0  0  0  0  0
   59.9888   30.2531   47.5451 H   0  0  0  0  0  0  0  0  0  0  0  0
   60.7694   30.1912   45.9739 H   0  0  0  0  0  0  0  0  0  0  0  0
   63.3661   33.7594   47.9283 H   0  0  0  0  0  0  0  0  0  0  0  0
   63.5134   32.8109   46.4100 H   0  0  0  0  0  0  0  0  0  0  0  0
   62.6289   34.3743   46.4100 H   0  0  0  0  0  0  0  0  0  0  0  0
   60.5779   35.2310   46.7179 H   0  0  0  0  0  0  0  0  0  0  0  0
   58.3604   35.6053   45.6180 H   0  0  0  0  0  0  0  0  0  0  0  0
   56.9238   33.6447   44.9709 H   0  0  0  0  0  0  0  0  0  0  0  0
   56.2077   28.7421   45.9477 H   0  0  0  0  0  0  0  0  0  0  0  0
  1  2  1  0
  2  3  1  0
  3  4  2  0
  4  5  1  0
  5  6  2  0
  6  7  1  0
  7  8  1  0
  8  9  1  0
  9 10  1  0
 10 11  2  0
 11 12  1  0
 12 13  1  0
 11 14  1  0
 14 15  2  0
 15 16  1  0
 16 17  2  0
 17 18  1  0
 18 19  2  0
  7 20  2  0
 20  3  1  0
 18  8  1  0
 17 10  1  0
  1 21  1  0
  1 22  1  0
  1 23  1  0
  4 24  1  0
  5 25  1  0
  6 26  1  0
  9 27  1  0
  9 28  1  0
 13 29  1  0
 13 30  1  0
 13 31  1  0
 14 32  1  0
 15 33  1  0
 16 34  1  0
 20 35  1  0
M  END
>  <UniqueID>  (28) 
28

>  <SMILES>  (28) 
COc1cccc(N2Cc3c(OC)cccc3C2=O)c1

>  <Energy>  (28) 
61.297119259283846

>  <Genealogy>  (28) 
COc1cccc(N2Cc3c(OC)cccc3C2=O)c1 (3D coordinates assigned)
COc1cccc(N2Cc3c(OC)cccc3C2=O)c1 (nonaromatic ring conformer: 61.297119259283846 kcal/mol)

>  <smiles>  (28) 
COc1cccc(N2Cc3c(OC)cccc3C2=O)c1

>  <score_type>  (28) 
oracle

>  <origin>  (28) 
adg

>  <m_score__min__energy>  (28) 
-7.3200000000000003

>  <m_primary>  (28) 
energy

$$$$
28:0
     RDKit          3D

 56 59  0  0  0  0  0  0  0  0999 V2000
   58.9800   34.7630   45.1770 C   0  0  0  0  0  0  0  0  0  0  0  0
   58.2140   33.8010   45.9040 O   0  0  0  0  0  0  0  0  0  0  0  0
   58.7340   32.6350   46.4900 C   0  0  0  0  0  0  0  0  0  0  0  0
   58.1440   31.4130   46.1330 C   0  0  0  0  0  0  0  0  0  0  0  0
   57.0560   31.4400   45.2420 O   0  0  0  0  0  0  0  0  0  0  0  0
   57.1390   31.6290   43.8280 C   0  0  0  0  0  0  0  0  0  0  0  0
   56.8320   30.3210   43.0900 C   0  0  0  0  0  0  0  0  0  0  0  0
   56.5320   29.1870   44.0800 C   0  0  0  0  0  0  0  0  0  0  0  0
   55.4660   29.5610   45.0090 N   0  0  0  0  0  0  0  0  0  0  0  0
   58.6470   30.2150   46.6690 C   0  0  0  0  0  0  0  0  0  0  0  0
   59.7480   30.2290   47.5310 C   0  0  0  0  0  0  0  0  0  0  0  0
   60.3910   31.4400   47.8390 C   0  0  0  0  0  0  0  0  0  0  0  0
   59.8010   32.6530   47.4170 C   0  0  0  0  0  0  0  0  0  0  0  0
   60.2140   33.8560   47.9900 O   0  0  0  0  0  0  0  0  0  0  0  0
   59.8120   34.2070   49.3130 C   0  0  0  0  0  0  0  0  0  0  0  0
   61.5950   31.3800   48.7260 C   0  0  0  0  0  0  0  0  0  0  0  0
   62.6550   32.3160   48.6280 C   0  0  0  0  0  0  0  0  0  0  0  0
   62.7210   33.2430   47.5820 O   0  0  0  0  0  0  0  0  0  0  0  0
   63.7150   33.1630   46.5660 C   0  0  0  0  0  0  0  0  0  0  0  0
   63.6870   32.2860   49.5810 C   0  0  0  0  0  0  0  0  0  0  0  0
   64.7200   33.2440   49.5710 C   0  0  0  0  0  0  0  0  0  0  0  0
   65.7410   33.1900   50.5240 C   0  0  0  0  0  0  0  0  0  0  0  0
   65.7490   32.1800   51.4900 C   0  0  0  0  0  0  0  0  0  0  0  0
   64.7360   31.2190   51.5060 C   0  0  0  0  0  0  0  0  0  0  0  0
   63.7040   31.2660   50.5540 C   0  0  0  0  0  0  0  0  0  0  0  0
   62.7080   30.2860   50.5340 C   0  0  0  0  0  0  0  0  0  0  0  0
   61.7050   30.3280   49.6080 N   0  0  0  0  0  0  0  0  0  0  0  0
   60.7070   29.2440   49.5950 C   0  0  0  0  0  0  0  0  0  0  0  0
   60.2400   28.9550   48.1640 C   0  0  0  0  0  0  0  0  0  0  0  0
   59.5054   35.4228   45.8831 H   0  0  0  0  0  0  0  0  0  0  0  0
   59.7148   34.2440   44.5440 H   0  0  0  0  0  0  0  0  0  0  0  0
   58.3096   35.3629   44.5440 H   0  0  0  0  0  0  0  0  0  0  0  0
   56.4119   32.3957   43.5224 H   0  0  0  0  0  0  0  0  0  0  0  0
   58.1598   31.9493   43.5723 H   0  0  0  0  0  0  0  0  0  0  0  0
   55.9574   30.4716   42.4401 H   0  0  0  0  0  0  0  0  0  0  0  0
   57.7126   30.0408   42.4932 H   0  0  0  0  0  0  0  0  0  0  0  0
   56.2208   28.2939   43.5183 H   0  0  0  0  0  0  0  0  0  0  0  0
   57.4434   28.9832   44.6611 H   0  0  0  0  0  0  0  0  0  0  0  0
   55.8830   29.7150   45.9570 H   0  0  0  0  0  0  0  0  0  0  0  0
   55.0460   30.4660   44.6960 H   0  0  0  0  0  0  0  0  0  0  0  0
   58.1706   29.2584   46.4082 H   0  0  0  0  0  0  0  0  0  0  0  0
   60.4332   33.6646   50.0410 H   0  0  0  0  0  0  0  0  0  0  0  0
   59.9371   35.2901   49.4591 H   0  0  0  0  0  0  0  0  0  0  0  0
   58.7557   33.9370   49.4591 H   0  0  0  0  0  0  0  0  0  0  0  0
   64.7088   33.0830   47.0308 H   0  0  0  0  0  0  0  0  0  0  0  0
   63.5301   32.2768   45.9411 H   0  0  0  0  0  0  0  0  0  0  0  0
   63.6742   34.0673   45.9411 H   0  0  0  0  0  0  0  0  0  0  0  0
   64.7230   34.0380   48.8098 H   0  0  0  0  0  0  0  0  0  0  0  0
   66.5409   33.9450   50.5137 H   0  0  0  0  0  0  0  0  0  0  0  0
   66.5542   32.1420   52.2385 H   0  0  0  0  0  0  0  0  0  0  0  0
   64.7461   30.4235   52.2656 H   0  0  0  0  0  0  0  0  0  0  0  0
   62.7321   29.4713   51.2727 H   0  0  0  0  0  0  0  0  0  0  0  0
   61.1567   28.3340   50.0188 H   0  0  0  0  0  0  0  0  0  0  0  0
   59.8388   29.5553   50.1944 H   0  0  0  0  0  0  0  0  0  0  0  0
   61.0802   28.5547   47.5777 H   0  0  0  0  0  0  0  0  0  0  0  0
   59.4245   28.2172   48.1859 H   0  0  0  0  0  0  0  0  0  0  0  0
  1  2  1  0
  2  3  1  0
  3  4  2  0
  4  5  1  0
  5  6  1  0
  6  7  1  0
  7  8  1  0
  8  9  1  0
  4 10  1  0
 10 11  2  0
 11 12  1  0
 12 13  2  0
 13 14  1  0
 14 15  1  0
 12 16  1  0
 16 17  2  0
 17 18  1  0
 18 19  1  0
 17 20  1  0
 20 21  2  0
 21 22  1  0
 22 23  2  0
 23 24  1  0
 24 25  2  0
 25 26  1  0
 26 27  2  0
 27 28  1  0
 28 29  1  0
 13  3  1  0
 27 16  1  0
 29 11  1  0
 25 20  1  0
  1 30  1  0
  1 31  1  0
  1 32  1  0
  6 33  1  0
  6 34  1  0
  7 35  1  0
  7 36  1  0
  8 37  1  0
  8 38  1  0
  9 39  1  0
  9 40  1  0
 10 41  1  0
 15 42  1  0
 15 43  1  0
 15 44  1  0
 19 45  1  0
 19 46  1  0
 19 47  1  0
 21 48  1  0
 22 49  1  0
 23 50  1  0
 24 51  1  0
 26 52  1  0
 28 53  1  0
 28 54  1  0
 29 55  1  0
 29 56  1  0
M  CHG  1  27   1
M  END
>  <UniqueID>  (29) 
29

>  <SMILES>  (29) 
COc1c(OCCCN)cc2c(c1OC)-c1c(OC)c3ccccc3c[n+]1CC2

>  <Energy>  (29) 
85.23784606954229

>  <Genealogy>  (29) 
COc1c(OCCCN)cc2c(c1OC)-c1c(OC)c3ccccc3c[n+]1CC2 (3D coordinates assigned)
COc1c(OCCCN)cc2c(c1OC)-c1c(OC)c3ccccc3c[n+]1CC2 (nonaromatic ring conformer: 85.23784606954229 kcal/mol)

>  <smiles>  (29) 
COc1c(OCCCN)cc2c(c1OC)-c1c(OC)c3ccccc3c[n+]1CC2

>  <score_type>  (29) 
oracle

>  <origin>  (29) 
adg

>  <m_score__min__energy>  (29) 
-6.3300000000000001

>  <m_primary>  (29) 
energy

$$$$
29:0
     RDKit          3D

 30 32  0  0  0  0  0  0  0  0999 V2000
   56.2990   24.1130   46.9870 C   0  0  0  0  0  0  0  0  0  0  0  0
   55.8720   25.3670   46.4640 O   0  0  0  0  0  0  0  0  0  0  0  0
   56.6490   26.1810   45.6260 C   0  0  0  0  0  0  0  0  0  0  0  0
   57.3540   25.5750   44.5790 C   0  0  0  0  0  0  0  0  0  0  0  0
   58.1480   26.3410   43.7230 C   0  0  0  0  0  0  0  0  0  0  0  0
   58.2420   27.7220   43.9020 C   0  0  0  0  0  0  0  0  0  0  0  0
   57.5300   28.3540   44.9340 C   0  0  0  0  0  0  0  0  0  0  0  0
   57.6490   29.7770   45.1220 N   0  0  0  0  0  0  0  0  0  0  0  0
   56.6230   30.5460   44.7490 N   0  0  0  0  0  0  0  0  0  0  0  0
   56.6520   31.8700   44.8810 N   0  0  0  0  0  0  0  0  0  0  0  0
   57.7300   32.4970   45.4080 C   0  0  0  0  0  0  0  0  0  0  0  0
   57.7380   33.8910   45.5330 C   0  0  0  0  0  0  0  0  0  0  0  0
   58.8480   34.5370   46.0810 C   0  0  0  0  0  0  0  0  0  0  0  0
   59.9520   33.7930   46.5070 C   0  0  0  0  0  0  0  0  0  0  0  0
   59.9540   32.3990   46.3870 C   0  0  0  0  0  0  0  0  0  0  0  0
   61.0450   31.7110   46.8110 F   0  0  0  0  0  0  0  0  0  0  0  0
   58.8360   31.7370   45.8320 C   0  0  0  0  0  0  0  0  0  0  0  0
   58.7650   30.3400   45.6840 C   0  0  0  0  0  0  0  0  0  0  0  0
   59.7140   29.6100   46.0850 O   0  0  0  0  0  0  0  0  0  0  0  0
   56.7450   27.5750   45.8040 C   0  0  0  0  0  0  0  0  0  0  0  0
   56.2862   24.1507   48.0863 H   0  0  0  0  0  0  0  0  0  0  0  0
   55.6201   23.3204   46.6393 H   0  0  0  0  0  0  0  0  0  0  0  0
   57.3205   23.8994   46.6393 H   0  0  0  0  0  0  0  0  0  0  0  0
   57.2819   24.4876   44.4297 H   0  0  0  0  0  0  0  0  0  0  0  0
   58.7007   25.8548   42.9056 H   0  0  0  0  0  0  0  0  0  0  0  0
   58.8774   28.3185   43.2309 H   0  0  0  0  0  0  0  0  0  0  0  0
   56.8695   34.4779   45.1994 H   0  0  0  0  0  0  0  0  0  0  0  0
   58.8536   35.6327   46.1776 H   0  0  0  0  0  0  0  0  0  0  0  0
   60.8239   34.3062   46.9389 H   0  0  0  0  0  0  0  0  0  0  0  0
   56.2021   28.0584   46.6296 H   0  0  0  0  0  0  0  0  0  0  0  0
  1  2  1  0
  2  3  1  0
  3  4  2  0
  4  5  1  0
  5  6  2  0
  6  7  1  0
  7  8  1  0
  8  9  1  0
  9 10  2  0
 10 11  1  0
 11 12  2  0
 12 13  1  0
 13 14  2  0
 14 15  1  0
 15 16  1  0
 15 17  2  0
 17 18  1  0
 18 19  2  0
  7 20  2  0
 20  3  1  0
 18  8  1  0
 17 11  1  0
  1 21  1  0
  1 22  1  0
  1 23  1  0
  4 24  1  0
  5 25  1  0
  6 26  1  0
 12 27  1  0
 13 28  1  0
 14 29  1  0
 20 30  1  0
M  END
>  <UniqueID>  (30) 
30

>  <SMILES>  (30) 
COc1cccc(-n2nnc3cccc(F)c3c2=O)c1

>  <Energy>  (30) 
45.23469437231929

>  <Genealogy>  (30) 
COc1cccc(-n2nnc3cccc(F)c3c2=O)c1 (3D coordinates assigned)
COc1cccc(-n2nnc3cccc(F)c3c2=O)c1 (optimized conformer: 45.23469437231929 kcal/mol)

>  <smiles>  (30) 
COc1cccc(-n2nnc3cccc(F)c3c2=O)c1

>  <score_type>  (30) 
oracle

>  <origin>  (30) 
adg

>  <m_score__min__energy>  (30) 
-7.4699999999999998

>  <m_primary>  (30) 
energy

$$$$
30:0
     RDKit          3D

 47 51  0  0  1  0  0  0  0  0999 V2000
   59.8890   35.8060   46.1070 C   0  0  0  0  0  0  0  0  0  0  0  0
   59.0540   34.6500   45.7240 C   0  0  0  0  0  0  0  0  0  0  0  0
   58.0950   34.1090   46.5320 C   0  0  0  0  0  0  0  0  0  0  0  0
   57.3330   33.0270   46.1390 C   0  0  0  0  0  0  0  0  0  0  0  0
   57.4990   32.4180   44.8860 C   0  0  0  0  0  0  0  0  0  0  0  0
   56.6840   31.2500   44.4600 C   0  0  0  0  0  0  0  0  0  0  0  0
   57.0720   30.0060   44.9130 N   0  0  0  0  0  0  0  0  0  0  0  0
   57.7260   29.6010   45.8790 C   0  0  0  0  0  0  0  0  0  0  0  0
   58.3110   30.5000   46.6900 N   0  0  0  0  0  0  0  0  0  0  0  0
   59.0590   30.1090   47.7250 C   0  0  0  0  0  0  0  0  0  0  0  0
   59.6570   31.1150   48.5540 N   0  0  0  0  0  0  0  0  0  0  0  0
   59.2460   31.3750   49.8040 C   0  0  0  0  0  0  0  0  0  0  0  0
   60.0090   32.3740   50.3180 N   0  0  0  0  0  0  0  0  0  0  0  0
   60.9110   32.7400   49.3630 C   0  0  0  0  0  0  0  0  0  0  0  0
   61.9010   33.6990   49.3800 C   0  0  0  0  0  0  0  0  0  0  0  0
   62.6630   33.8340   48.2370 C   0  0  0  0  0  0  0  0  0  0  0  0
   62.4410   33.0370   47.1190 C   0  0  0  0  0  0  0  0  0  0  0  0
   61.4430   32.0720   47.1060 C   0  0  0  0  0  0  0  0  0  0  0  0
   60.6750   31.9350   48.2540 C   0  0  0  0  0  0  0  0  0  0  0  0
   59.2490   28.8070   47.9850 N   0  0  0  0  0  0  0  0  0  0  0  0
   58.6650   27.9070   47.1780 C   0  0  0  0  0  0  0  0  0  0  0  0
   58.8630   26.5850   47.4580 C   0  0  0  0  0  0  0  0  0  0  0  0
   58.2520   25.6770   46.6230 C   0  0  0  0  0  0  0  0  0  0  0  0
   57.4740   25.9920   45.5540 C   0  0  0  0  0  0  0  0  0  0  0  0
   57.2700   27.3640   45.2660 C   0  0  0  0  0  0  0  0  0  0  0  0
   57.8770   28.2520   46.0900 C   0  0  0  0  0  0  0  0  0  0  0  0
   58.4820   32.9980   44.1010 C   0  0  0  0  0  0  0  0  0  0  0  0
   59.2440   34.0760   44.4860 C   0  0  0  0  0  0  0  0  0  0  0  0
   59.9388   35.8750   47.2037 H   0  0  0  0  0  0  0  0  0  0  0  0
   60.9032   35.6762   45.7013 H   0  0  0  0  0  0  0  0  0  0  0  0
   59.4470   36.7280   45.7013 H   0  0  0  0  0  0  0  0  0  0  0  0
   57.9246   34.5486   47.5258 H   0  0  0  0  0  0  0  0  0  0  0  0
   56.5732   32.6306   46.8286 H   0  0  0  0  0  0  0  0  0  0  0  0
   55.6546   31.4215   44.8078 H   0  0  0  0  0  0  0  0  0  0  0  0
   56.8087   31.2032   43.3681 H   0  0  0  0  0  0  0  0  0  0  0  0
   58.4251   30.8628   50.3273 H   0  0  0  0  0  0  0  0  0  0  0  0
   62.0760   34.3286   50.2649 H   0  0  0  0  0  0  0  0  0  0  0  0
   63.4632   34.5883   48.2098 H   0  0  0  0  0  0  0  0  0  0  0  0
   63.0692   33.1741   46.2265 H   0  0  0  0  0  0  0  0  0  0  0  0
   61.2680   31.4415   46.2217 H   0  0  0  0  0  0  0  0  0  0  0  0
   59.8440   28.4940   48.8060 H   0  0  0  0  0  0  0  0  0  0  0  0
   59.4804   26.2617   48.3090 H   0  0  0  0  0  0  0  0  0  0  0  0
   58.4060   24.6094   46.8385 H   0  0  0  0  0  0  0  0  0  0  0  0
   57.0177   25.2073   44.9328 H   0  0  0  0  0  0  0  0  0  0  0  0
   56.6511   27.6914   44.4176 H   0  0  0  0  0  0  0  0  0  0  0  0
   58.6649   32.5684   43.1050 H   0  0  0  0  0  0  0  0  0  0  0  0
   60.0066   34.4808   43.8044 H   0  0  0  0  0  0  0  0  0  0  0  0
  1  2  1  0
  2  3  2  0
  3  4  1  0
  4  5  2  0
  5  6  1  0
  6  7  1  0
  7  8  2  0
  8  9  1  0
  9 10  2  0
 10 11  1  0
 11 12  1  0
 12 13  2  0
 13 14  1  0
 14 15  2  0
 15 16  1  0
 16 17  2  0
 17 18  1  0
 18 19  2  0
 10 20  1  0
 20 21  1  0
 21 22  2  0
 22 23  1  0
 23 24  2  0
 24 25  1  0
 25 26  2  0
  5 27  1  0
 27 28  2  0
 28  2  1  0
 26  8  1  0
 19 11  1  0
 26 21  1  0
 19 14  1  0
  1 29  1  0
  1 30  1  0
  1 31  1  0
  3 32  1  0
  4 33  1  0
  6 34  1  0
  6 35  1  0
 12 36  1  0
 15 37  1  0
 16 38  1  0
 17 39  1  0
 18 40  1  0
 20 41  1  0
 22 42  1  0
 23 43  1  0
 24 44  1  0
 25 45  1  0
 27 46  1  0
 28 47  1  0
M  END
>  <smiles>  (31) 
Cc1ccc(CN=c2nc(-n3cnc4ccccc43)[nH]c3ccccc23)cc1

>  <score_type>  (31) 
oracle

>  <origin>  (31) 
adg

>  <m_score__min__energy>  (31) 
-8.4900000000000002

>  <m_primary>  (31) 
energy

$$$$
31:0
     RDKit          3D

 43 45  0  0  0  0  0  0  0  0999 V2000
   59.1310   34.3470   45.8710 C   0  0  0  0  0  0  0  0  0  0  0  0
   59.8340   33.1220   46.0500 O   0  0  0  0  0  0  0  0  0  0  0  0
   59.2360   31.8530   46.0340 C   0  0  0  0  0  0  0  0  0  0  0  0
   59.7900   30.7490   46.7020 C   0  0  0  0  0  0  0  0  0  0  0  0
   59.1530   29.4950   46.6660 C   0  0  0  0  0  0  0  0  0  0  0  0
   59.6810   28.3760   47.3300 O   0  0  0  0  0  0  0  0  0  0  0  0
   60.4210   27.3340   46.7020 C   0  0  0  0  0  0  0  0  0  0  0  0
   57.9470   29.3500   45.9570 C   0  0  0  0  0  0  0  0  0  0  0  0
   57.3050   28.0640   45.9150 N   0  0  0  0  0  0  0  0  0  0  0  0
   57.6770   27.0390   44.9810 C   0  0  0  0  0  0  0  0  0  0  0  0
   58.3710   27.3370   43.9700 O   0  0  0  0  0  0  0  0  0  0  0  0
   57.2070   25.6420   45.1560 C   0  0  0  0  0  0  0  0  0  0  0  0
   58.0690   24.5830   44.8580 C   0  0  0  0  0  0  0  0  0  0  0  0
   57.6540   23.3030   45.0050 N   0  0  0  0  0  0  0  0  0  0  0  0
   56.4060   23.0110   45.4500 C   0  0  0  0  0  0  0  0  0  0  0  0
   56.0280   21.6700   45.5810 C   0  0  0  0  0  0  0  0  0  0  0  0
   54.7520   21.3580   46.0410 C   0  0  0  0  0  0  0  0  0  0  0  0
   53.8670   22.3800   46.3670 C   0  0  0  0  0  0  0  0  0  0  0  0
   54.2680   23.7100   46.2290 C   0  0  0  0  0  0  0  0  0  0  0  0
   55.5270   24.0220   45.7730 N   0  0  0  0  0  0  0  0  0  0  0  0
   55.9200   25.3330   45.6400 C   0  0  0  0  0  0  0  0  0  0  0  0
   55.1390   26.2680   45.9730 O   0  0  0  0  0  0  0  0  0  0  0  0
   57.4010   30.4460   45.2580 C   0  0  0  0  0  0  0  0  0  0  0  0
   56.2330   30.2560   44.5010 O   0  0  0  0  0  0  0  0  0  0  0  0
   56.2000   29.7430   43.1740 C   0  0  0  0  0  0  0  0  0  0  0  0
   58.0480   31.6930   45.3160 C   0  0  0  0  0  0  0  0  0  0  0  0
   58.8850   34.7756   46.8538 H   0  0  0  0  0  0  0  0  0  0  0  0
   59.7614   35.0530   45.3105 H   0  0  0  0  0  0  0  0  0  0  0  0
   58.2034   34.1589   45.3105 H   0  0  0  0  0  0  0  0  0  0  0  0
   60.7314   30.8658   47.2590 H   0  0  0  0  0  0  0  0  0  0  0  0
   60.8764   26.6928   47.4711 H   0  0  0  0  0  0  0  0  0  0  0  0
   59.7469   26.7321   46.0749 H   0  0  0  0  0  0  0  0  0  0  0  0
   61.2114   27.7722   46.0749 H   0  0  0  0  0  0  0  0  0  0  0  0
   56.4300   27.9300   46.4710 H   0  0  0  0  0  0  0  0  0  0  0  0
   59.0891   24.7906   44.5025 H   0  0  0  0  0  0  0  0  0  0  0  0
   56.7347   20.8678   45.3221 H   0  0  0  0  0  0  0  0  0  0  0  0
   54.4447   20.3071   46.1463 H   0  0  0  0  0  0  0  0  0  0  0  0
   52.8569   22.1418   46.7315 H   0  0  0  0  0  0  0  0  0  0  0  0
   53.5682   24.5182   46.4882 H   0  0  0  0  0  0  0  0  0  0  0  0
   56.1294   28.6458   43.2067 H   0  0  0  0  0  0  0  0  0  0  0  0
   55.3262   30.1510   42.6448 H   0  0  0  0  0  0  0  0  0  0  0  0
   57.1188   30.0357   42.6448 H   0  0  0  0  0  0  0  0  0  0  0  0
   57.6128   32.5547   44.7887 H   0  0  0  0  0  0  0  0  0  0  0  0
  1  2  1  0
  2  3  1  0
  3  4  2  0
  4  5  1  0
  5  6  1  0
  6  7  1  0
  5  8  2  0
  8  9  1  0
  9 10  1  0
 10 11  2  0
 10 12  1  0
 12 13  2  0
 13 14  1  0
 14 15  2  0
 15 16  1  0
 16 17  2  0
 17 18  1  0
 18 19  2  0
 19 20  1  0
 20 21  1  0
 21 22  2  0
  8 23  1  0
 23 24  1  0
 24 25  1  0
 23 26  2  0
 26  3  1  0
 21 12  1  0
 20 15  1  0
  1 27  1  0
  1 28  1  0
  1 29  1  0
  4 30  1  0
  7 31  1  0
  7 32  1  0
  7 33  1  0
  9 34  1  0
 13 35  1  0
 16 36  1  0
 17 37  1  0
 18 38  1  0
 19 39  1  0
 25 40  1  0
 25 41  1  0
 25 42  1  0
 26 43  1  0
M  END
>  <UniqueID>  (32) 
31

>  <SMILES>  (32) 
COc1cc(OC)c(NC(=O)c2cnc3ccccn3c2=O)c(OC)c1

>  <Energy>  (32) 
59.029432511319435

>  <Genealogy>  (32) 
COc1cc(OC)c(NC(=O)c2cnc3ccccn3c2=O)c(OC)c1 (3D coordinates assigned)
COc1cc(OC)c(NC(=O)c2cnc3ccccn3c2=O)c(OC)c1 (optimized conformer: 59.029432511319435 kcal/mol)

>  <smiles>  (32) 
COc1cc(OC)c(NC(=O)c2cnc3ccccn3c2=O)c(OC)c1

>  <score_type>  (32) 
oracle

>  <origin>  (32) 
adg

>  <m_score__min__energy>  (32) 
-6.8399999999999999

>  <m_primary>  (32) 
energy

$$$$
32:0
     RDKit          3D

 48 50  0  0  0  0  0  0  0  0999 V2000
   67.8420   33.4670   50.7330 C   0  0  0  0  0  0  0  0  0  0  0  0
   66.8750   33.0760   49.7630 O   0  0  0  0  0  0  0  0  0  0  0  0
   65.6980   32.3740   50.0570 C   0  0  0  0  0  0  0  0  0  0  0  0
   64.4660   32.6750   49.4550 C   0  0  0  0  0  0  0  0  0  0  0  0
   63.3260   31.9280   49.7700 C   0  0  0  0  0  0  0  0  0  0  0  0
   62.0290   32.2540   49.1360 C   0  0  0  0  0  0  0  0  0  0  0  0
   61.6410   31.7340   47.9540 N   0  0  0  0  0  0  0  0  0  0  0  0
   60.4250   32.2640   47.7030 C   0  0  0  0  0  0  0  0  0  0  0  0
   59.6090   31.9820   46.4950 C   0  0  0  0  0  0  0  0  0  0  0  0
   58.9480   33.0200   45.8200 C   0  0  0  0  0  0  0  0  0  0  0  0
   58.1800   32.7560   44.6830 C   0  0  0  0  0  0  0  0  0  0  0  0
   58.0490   31.4430   44.1870 C   0  0  0  0  0  0  0  0  0  0  0  0
   57.2500   31.1670   43.0070 N   0  0  0  0  0  0  0  0  0  0  0  0
   56.2690   30.0740   43.0060 C   0  0  0  0  0  0  0  0  0  0  0  0
   57.4090   31.9770   41.7920 C   0  0  0  0  0  0  0  0  0  0  0  0
   58.7150   30.4050   44.8690 C   0  0  0  0  0  0  0  0  0  0  0  0
   59.4850   30.6720   46.0050 C   0  0  0  0  0  0  0  0  0  0  0  0
   60.0850   33.0980   48.7540 C   0  0  0  0  0  0  0  0  0  0  0  0
   61.0860   33.0760   49.6540 N   0  0  0  0  0  0  0  0  0  0  0  0
   61.0990   33.7940   50.9250 C   0  0  0  0  0  0  0  0  0  0  0  0
   63.4320   30.9030   50.7220 C   0  0  0  0  0  0  0  0  0  0  0  0
   64.6300   30.6280   51.3190 N   0  0  0  0  0  0  0  0  0  0  0  0
   64.7240   29.5250   52.2780 C   0  0  0  0  0  0  0  0  0  0  0  0
   65.7540   31.3300   50.9840 C   0  0  0  0  0  0  0  0  0  0  0  0
   67.4362   33.3029   51.7421 H   0  0  0  0  0  0  0  0  0  0  0  0
   68.7550   32.8674   50.6030 H   0  0  0  0  0  0  0  0  0  0  0  0
   68.0816   34.5327   50.6030 H   0  0  0  0  0  0  0  0  0  0  0  0
   64.3968   33.5017   48.7326 H   0  0  0  0  0  0  0  0  0  0  0  0
   62.1940   31.0890   47.3470 H   0  0  0  0  0  0  0  0  0  0  0  0
   59.0355   34.0522   46.1900 H   0  0  0  0  0  0  0  0  0  0  0  0
   57.6707   33.5839   44.1680 H   0  0  0  0  0  0  0  0  0  0  0  0
   56.0236   29.8006   44.0428 H   0  0  0  0  0  0  0  0  0  0  0  0
   55.3559   30.4013   42.4872 H   0  0  0  0  0  0  0  0  0  0  0  0
   56.6927   29.2015   42.4872 H   0  0  0  0  0  0  0  0  0  0  0  0
   57.6139   33.0210   42.0715 H   0  0  0  0  0  0  0  0  0  0  0  0
   58.2474   31.5853   41.1973 H   0  0  0  0  0  0  0  0  0  0  0  0
   56.4847   31.9313   41.1973 H   0  0  0  0  0  0  0  0  0  0  0  0
   58.6279   29.3714   44.5028 H   0  0  0  0  0  0  0  0  0  0  0  0
   59.9990   29.8472   46.5203 H   0  0  0  0  0  0  0  0  0  0  0  0
   59.1553   33.6797   48.8394 H   0  0  0  0  0  0  0  0  0  0  0  0
   61.0859   33.0715   51.7544 H   0  0  0  0  0  0  0  0  0  0  0  0
   62.0084   34.4095   50.9892 H   0  0  0  0  0  0  0  0  0  0  0  0
   60.2124   34.4420   50.9892 H   0  0  0  0  0  0  0  0  0  0  0  0
   62.5420   30.3149   50.9905 H   0  0  0  0  0  0  0  0  0  0  0  0
   64.6899   29.9255   53.3019 H   0  0  0  0  0  0  0  0  0  0  0  0
   63.8815   28.8343   52.1262 H   0  0  0  0  0  0  0  0  0  0  0  0
   65.6713   28.9868   52.1262 H   0  0  0  0  0  0  0  0  0  0  0  0
   66.7155   31.0695   51.4505 H   0  0  0  0  0  0  0  0  0  0  0  0
  1  2  1  0
  2  3  1  0
  3  4  2  0
  4  5  1  0
  5  6  1  0
  6  7  2  0
  7  8  1  0
  8  9  1  0
  9 10  2  0
 10 11  1  0
 11 12  2  0
 12 13  1  0
 13 14  1  0
 13 15  1  0
 12 16  1  0
 16 17  2  0
  8 18  2  0
 18 19  1  0
 19 20  1  0
  5 21  2  0
 21 22  1  0
 22 23  1  0
 22 24  2  0
 24  3  1  0
 19  6  1  0
 17  9  1  0
  1 25  1  0
  1 26  1  0
  1 27  1  0
  4 28  1  0
  7 29  1  0
 10 30  1  0
 11 31  1  0
 14 32  1  0
 14 33  1  0
 14 34  1  0
 15 35  1  0
 15 36  1  0
 15 37  1  0
 16 38  1  0
 17 39  1  0
 18 40  1  0
 20 41  1  0
 20 42  1  0
 20 43  1  0
 21 44  1  0
 23 45  1  0
 23 46  1  0
 23 47  1  0
 24 48  1  0
M  CHG  2   7   1  22   1
M  END
>  <UniqueID>  (33) 
32

>  <SMILES>  (33) 
COc1cc(-c2[nH+]c(-c3ccc(N(C)C)cc3)cn2C)c[n+](C)c1

>  <Energy>  (33) 
87.73010270490443

>  <Genealogy>  (33) 
COc1cc(-c2[nH+]c(-c3ccc(N(C)C)cc3)cn2C)c[n+](C)c1 (protonated)
COc1cc(-c2[nH+]c(-c3ccc(N(C)C)cc3)cn2C)c[n+](C)c1 (3D coordinates assigned)
COc1cc(-c2[nH+]c(-c3ccc(N(C)C)cc3)cn2C)c[n+](C)c1 (optimized conformer: 87.73010270490443 kcal/mol)

>  <smiles>  (33) 
COc1cc(-c2nc(-c3ccc(N(C)C)cc3)cn2C)c[n+](C)c1

>  <score_type>  (33) 
oracle

>  <origin>  (33) 
adg

>  <m_score__min__energy>  (33) 
-3.9100000000000001

>  <m_primary>  (33) 
energy

$$$$
33:0
     RDKit          3D

 67 70  0  0  0  0  0  0  0  0999 V2000
   66.2800   32.2140   50.2410 C   0  0  0  0  0  0  0  0  0  0  0  0
   65.6160   33.0850   49.3310 O   0  0  0  0  0  0  0  0  0  0  0  0
   64.2220   33.1940   49.2150 C   0  0  0  0  0  0  0  0  0  0  0  0
   63.6470   33.0550   47.9470 C   0  0  0  0  0  0  0  0  0  0  0  0
   62.2640   33.1580   47.7780 C   0  0  0  0  0  0  0  0  0  0  0  0
   61.4310   33.4030   48.8820 C   0  0  0  0  0  0  0  0  0  0  0  0
   59.9400   33.5420   48.7040 C   0  0  0  0  0  0  0  0  0  0  0  0
   59.4850   33.1040   47.2970 C   0  0  0  0  0  0  0  0  0  0  0  0
   58.9730   34.2380   46.4770 N   0  0  0  0  0  0  0  0  0  0  0  0
   59.6450   34.3240   45.1500 C   0  0  0  0  0  0  0  0  0  0  0  0
   58.8760   33.5990   44.0240 C   0  0  0  0  0  0  0  0  0  0  0  0
   58.0940   32.4860   44.5840 N   0  0  0  0  0  0  0  0  0  0  0  0
   57.5940   31.5310   43.5710 C   0  0  0  0  0  0  0  0  0  0  0  0
   56.3760   30.6970   44.0290 C   0  0  0  0  0  0  0  0  0  0  0  0
   56.7150   29.8810   45.1350 O   0  0  0  0  0  0  0  0  0  0  0  0
   57.8900   29.1130   44.9040 C   0  0  0  0  0  0  0  0  0  0  0  0
   58.9010   29.3990   45.9920 C   0  0  0  0  0  0  0  0  0  0  0  0
   60.2130   29.7980   45.6730 C   0  0  0  0  0  0  0  0  0  0  0  0
   61.1310   30.0860   46.6860 C   0  0  0  0  0  0  0  0  0  0  0  0
   60.7500   29.9880   48.0260 C   0  0  0  0  0  0  0  0  0  0  0  0
   61.6430   30.2690   49.0070 F   0  0  0  0  0  0  0  0  0  0  0  0
   59.4470   29.6050   48.3560 C   0  0  0  0  0  0  0  0  0  0  0  0
   58.5240   29.3170   47.3450 C   0  0  0  0  0  0  0  0  0  0  0  0
   57.5560   27.6380   44.9080 C   0  0  0  0  0  0  0  0  0  0  0  0
   56.8060   27.0630   45.9540 C   0  0  0  0  0  0  0  0  0  0  0  0
   56.5400   25.6910   45.9620 C   0  0  0  0  0  0  0  0  0  0  0  0
   57.0240   24.8770   44.9350 C   0  0  0  0  0  0  0  0  0  0  0  0
   56.7660   23.5460   44.9460 F   0  0  0  0  0  0  0  0  0  0  0  0
   57.7750   25.4340   43.8980 C   0  0  0  0  0  0  0  0  0  0  0  0
   58.0480   26.8050   43.8860 C   0  0  0  0  0  0  0  0  0  0  0  0
   57.0430   32.9490   45.5140 C   0  0  0  0  0  0  0  0  0  0  0  0
   57.5000   34.1780   46.3300 C   0  0  0  0  0  0  0  0  0  0  0  0
   62.0060   33.5420   50.1550 C   0  0  0  0  0  0  0  0  0  0  0  0
   63.3890   33.4390   50.3230 C   0  0  0  0  0  0  0  0  0  0  0  0
   66.0492   32.5168   51.2730 H   0  0  0  0  0  0  0  0  0  0  0  0
   65.9376   31.1817   50.0765 H   0  0  0  0  0  0  0  0  0  0  0  0
   67.3661   32.2707   50.0765 H   0  0  0  0  0  0  0  0  0  0  0  0
   64.2897   32.8629   47.0752 H   0  0  0  0  0  0  0  0  0  0  0  0
   61.8253   33.0467   46.7754 H   0  0  0  0  0  0  0  0  0  0  0  0
   59.4327   32.9159   49.4527 H   0  0  0  0  0  0  0  0  0  0  0  0
   59.6791   34.6030   48.8315 H   0  0  0  0  0  0  0  0  0  0  0  0
   60.3414   32.6517   46.7755 H   0  0  0  0  0  0  0  0  0  0  0  0
   58.6599   32.3876   47.4236 H   0  0  0  0  0  0  0  0  0  0  0  0
   59.1710   35.1300   46.9860 H   0  0  0  0  0  0  0  0  0  0  0  0
   59.7436   35.3851   44.8774 H   0  0  0  0  0  0  0  0  0  0  0  0
   60.6214   33.8270   45.2481 H   0  0  0  0  0  0  0  0  0  0  0  0
   58.1964   34.3097   43.5310 H   0  0  0  0  0  0  0  0  0  0  0  0
   59.5958   33.2023   43.2929 H   0  0  0  0  0  0  0  0  0  0  0  0
   57.3048   32.0995   42.6748 H   0  0  0  0  0  0  0  0  0  0  0  0
   58.4099   30.8182   43.3805 H   0  0  0  0  0  0  0  0  0  0  0  0
   55.5612   31.3769   44.3184 H   0  0  0  0  0  0  0  0  0  0  0  0
   56.0573   30.0510   43.1977 H   0  0  0  0  0  0  0  0  0  0  0  0
   58.3092   29.3859   43.9243 H   0  0  0  0  0  0  0  0  0  0  0  0
   60.5172   29.8835   44.6194 H   0  0  0  0  0  0  0  0  0  0  0  0
   62.1559   30.3906   46.4276 H   0  0  0  0  0  0  0  0  0  0  0  0
   59.1470   29.5300   49.4116 H   0  0  0  0  0  0  0  0  0  0  0  0
   57.4971   29.0246   47.6095 H   0  0  0  0  0  0  0  0  0  0  0  0
   56.4279   27.6980   46.7688 H   0  0  0  0  0  0  0  0  0  0  0  0
   55.9484   25.2513   46.7785 H   0  0  0  0  0  0  0  0  0  0  0  0
   58.1528   24.7923   43.0884 H   0  0  0  0  0  0  0  0  0  0  0  0
   58.6510   27.2353   43.0728 H   0  0  0  0  0  0  0  0  0  0  0  0
   56.1483   33.2194   44.9340 H   0  0  0  0  0  0  0  0  0  0  0  0
   56.8258   32.1325   46.2183 H   0  0  0  0  0  0  0  0  0  0  0  0
   57.1580   35.0897   45.8183 H   0  0  0  0  0  0  0  0  0  0  0  0
   57.0640   34.0953   47.3365 H   0  0  0  0  0  0  0  0  0  0  0  0
   61.3629   33.7334   51.0266 H   0  0  0  0  0  0  0  0  0  0  0  0
   63.8288   33.5498   51.3251 H   0  0  0  0  0  0  0  0  0  0  0  0
  1  2  1  0
  2  3  1  0
  3  4  2  0
  4  5  1  0
  5  6  2  0
  6  7  1  0
  7  8  1  0
  8  9  1  0
  9 10  1  0
 10 11  1  0
 11 12  1  0
 12 13  1  0
 13 14  1  0
 14 15  1  0
 15 16  1  0
 16 17  1  0
 17 18  2  0
 18 19  1  0
 19 20  2  0
 20 21  1  0
 20 22  1  0
 22 23  2  0
 16 24  1  0
 24 25  2  0
 25 26  1  0
 26 27  2  0
 27 28  1  0
 27 29  1  0
 29 30  2  0
 12 31  1  0
 31 32  1  0
  6 33  1  0
 33 34  2  0
 34  3  1  0
 32  9  1  0
 23 17  1  0
 30 24  1  0
  1 35  1  0
  1 36  1  0
  1 37  1  0
  4 38  1  0
  5 39  1  0
  7 40  1  0
  7 41  1  0
  8 42  1  0
  8 43  1  0
  9 44  1  0
 10 45  1  0
 10 46  1  0
 11 47  1  0
 11 48  1  0
 13 49  1  0
 13 50  1  0
 14 51  1  0
 14 52  1  0
 16 53  1  0
 18 54  1  0
 19 55  1  0
 22 56  1  0
 23 57  1  0
 25 58  1  0
 26 59  1  0
 29 60  1  0
 30 61  1  0
 31 62  1  0
 31 63  1  0
 32 64  1  0
 32 65  1  0
 33 66  1  0
 34 67  1  0
M  CHG  1   9   1
M  END
>  <UniqueID>  (34) 
33

>  <SMILES>  (34) 
COc1ccc(CC[NH+]2CCN(CCOC(c3ccc(F)cc3)c3ccc(F)cc3)CC2)cc1

>  <Energy>  (34) 
87.28902272288052

>  <Genealogy>  (34) 
COc1ccc(CC[NH+]2CCN(CCOC(c3ccc(F)cc3)c3ccc(F)cc3)CC2)cc1 (protonated)
COc1ccc(CC[NH+]2CCN(CCOC(c3ccc(F)cc3)c3ccc(F)cc3)CC2)cc1 (3D coordinates assigned)
COc1ccc(CC[NH+]2CCN(CCOC(c3ccc(F)cc3)c3ccc(F)cc3)CC2)cc1 (nonaromatic ring conformer: 87.28902272288052 kcal/mol)

>  <smiles>  (34) 
COc1ccc(CCN2CCN(CCOC(c3ccc(F)cc3)c3ccc(F)cc3)CC2)cc1

>  <score_type>  (34) 
oracle

>  <origin>  (34) 
adg

>  <m_score__min__energy>  (34) 
-6.79

>  <m_primary>  (34) 
energy

$$$$
34:0
     RDKit          3D

 50 54  0  0  0  0  0  0  0  0999 V2000
   58.0830   22.4210   44.4800 C   0  0  0  0  0  0  0  0  0  0  0  0
   57.1940   23.3330   45.1180 O   0  0  0  0  0  0  0  0  0  0  0  0
   57.4390   24.7060   45.2620 C   0  0  0  0  0  0  0  0  0  0  0  0
   57.7310   25.5420   44.1680 C   0  0  0  0  0  0  0  0  0  0  0  0
   57.9670   26.9060   44.3650 C   0  0  0  0  0  0  0  0  0  0  0  0
   57.9200   27.4540   45.6550 C   0  0  0  0  0  0  0  0  0  0  0  0
   58.1580   28.8970   45.8630 C   0  0  0  0  0  0  0  0  0  0  0  0
   57.3920   29.9710   45.3960 C   0  0  0  0  0  0  0  0  0  0  0  0
   56.2210   29.8590   44.4990 C   0  0  0  0  0  0  0  0  0  0  0  0
   56.1790   30.4950   43.4150 O   0  0  0  0  0  0  0  0  0  0  0  0
   55.1470   29.0460   44.8460 O   0  0  0  0  0  0  0  0  0  0  0  0
   57.9030   31.1470   45.8610 N   0  0  0  0  0  0  0  0  0  0  0  0
   57.3940   32.4950   45.5950 C   0  0  0  0  0  0  0  0  0  0  0  0
   58.9590   30.8170   46.6380 C   0  0  0  0  0  0  0  0  0  0  0  0
   59.7810   31.6680   47.3870 C   0  0  0  0  0  0  0  0  0  0  0  0
   60.8200   31.1000   48.1600 C   0  0  0  0  0  0  0  0  0  0  0  0
   61.7140   31.9690   48.9660 C   0  0  0  0  0  0  0  0  0  0  0  0
   61.1840   33.0350   49.7150 C   0  0  0  0  0  0  0  0  0  0  0  0
   62.0200   33.8580   50.4760 C   0  0  0  0  0  0  0  0  0  0  0  0
   63.4020   33.6280   50.5000 C   0  0  0  0  0  0  0  0  0  0  0  0
   64.2530   34.4440   51.2580 C   0  0  0  0  0  0  0  0  0  0  0  0
   65.6260   34.1840   51.2610 C   0  0  0  0  0  0  0  0  0  0  0  0
   66.1290   33.1510   50.5340 N   0  0  0  0  0  0  0  0  0  0  0  0
   65.3300   32.3410   49.7890 C   0  0  0  0  0  0  0  0  0  0  0  0
   63.9450   32.5610   49.7520 C   0  0  0  0  0  0  0  0  0  0  0  0
   63.1020   31.7390   48.9910 C   0  0  0  0  0  0  0  0  0  0  0  0
   60.9930   29.6920   48.1670 C   0  0  0  0  0  0  0  0  0  0  0  0
   60.1470   28.8600   47.4150 C   0  0  0  0  0  0  0  0  0  0  0  0
   59.1450   29.4580   46.6520 C   0  0  0  0  0  0  0  0  0  0  0  0
   57.6230   26.6220   46.7450 C   0  0  0  0  0  0  0  0  0  0  0  0
   57.3870   25.2590   46.5480 C   0  0  0  0  0  0  0  0  0  0  0  0
   58.6361   21.8536   45.2430 H   0  0  0  0  0  0  0  0  0  0  0  0
   57.5066   21.7256   43.8521 H   0  0  0  0  0  0  0  0  0  0  0  0
   58.7929   22.9795   43.8521 H   0  0  0  0  0  0  0  0  0  0  0  0
   57.7738   25.1202   43.1530 H   0  0  0  0  0  0  0  0  0  0  0  0
   58.1907   27.5526   43.5037 H   0  0  0  0  0  0  0  0  0  0  0  0
   57.2001   33.0085   46.5483 H   0  0  0  0  0  0  0  0  0  0  0  0
   58.1401   33.0615   45.0185 H   0  0  0  0  0  0  0  0  0  0  0  0
   56.4596   32.4270   45.0185 H   0  0  0  0  0  0  0  0  0  0  0  0
   59.6217   32.7563   47.3743 H   0  0  0  0  0  0  0  0  0  0  0  0
   60.1003   33.2233   49.7020 H   0  0  0  0  0  0  0  0  0  0  0  0
   61.5917   34.6879   51.0572 H   0  0  0  0  0  0  0  0  0  0  0  0
   63.8444   35.2802   51.8443 H   0  0  0  0  0  0  0  0  0  0  0  0
   66.3024   34.8174   51.8537 H   0  0  0  0  0  0  0  0  0  0  0  0
   65.7702   31.5124   49.2148 H   0  0  0  0  0  0  0  0  0  0  0  0
   63.5286   30.9085   48.4094 H   0  0  0  0  0  0  0  0  0  0  0  0
   61.7991   29.2464   48.7684 H   0  0  0  0  0  0  0  0  0  0  0  0
   60.2716   27.7672   47.4278 H   0  0  0  0  0  0  0  0  0  0  0  0
   57.5757   27.0447   47.7594 H   0  0  0  0  0  0  0  0  0  0  0  0
   57.1585   24.6149   47.4099 H   0  0  0  0  0  0  0  0  0  0  0  0
  1  2  1  0
  2  3  1  0
  3  4  2  0
  4  5  1  0
  5  6  2  0
  6  7  1  0
  7  8  2  0
  8  9  1  0
  9 10  2  0
  9 11  1  0
  8 12  1  0
 12 13  1  0
 12 14  1  0
 14 15  2  0
 15 16  1  0
 16 17  1  0
 17 18  2  0
 18 19  1  0
 19 20  2  0
 20 21  1  0
 21 22  2  0
 22 23  1  0
 23 24  2  0
 24 25  1  0
 25 26  2  0
 16 27  2  0
 27 28  1  0
 28 29  2  0
  6 30  1  0
 30 31  2  0
 31  3  1  0
 29  7  1  0
 29 14  1  0
 26 17  1  0
 25 20  1  0
  1 32  1  0
  1 33  1  0
  1 34  1  0
  4 35  1  0
  5 36  1  0
 13 37  1  0
 13 38  1  0
 13 39  1  0
 15 40  1  0
 18 41  1  0
 19 42  1  0
 21 43  1  0
 22 44  1  0
 24 45  1  0
 26 46  1  0
 27 47  1  0
 28 48  1  0
 30 49  1  0
 31 50  1  0
M  CHG  1  11  -1
M  END
>  <UniqueID>  (35) 
34

>  <SMILES>  (35) 
COc1ccc(-c2c(C(=O)[O-])n(C)c3cc(-c4ccc5ccncc5c4)ccc23)cc1

>  <Energy>  (35) 
107.91566508649765

>  <Genealogy>  (35) 
COc1ccc(-c2c(C(=O)[O-])n(C)c3cc(-c4ccc5ccncc5c4)ccc23)cc1 (protonated)
COc1ccc(-c2c(C(=O)[O-])n(C)c3cc(-c4ccc5ccncc5c4)ccc23)cc1 (3D coordinates assigned)
COc1ccc(-c2c(C(=O)[O-])n(C)c3cc(-c4ccc5ccncc5c4)ccc23)cc1 (optimized conformer: 107.91566508649765 kcal/mol)

>  <smiles>  (35) 
COc1ccc(-c2c(C(=O)O)n(C)c3cc(-c4ccc5ccncc5c4)ccc23)cc1

>  <score_type>  (35) 
oracle

>  <origin>  (35) 
adg

>  <m_score__min__energy>  (35) 
-10.49

>  <m_primary>  (35) 
energy

$$$$
35:0
     RDKit          3D

 44 46  0  0  0  0  0  0  0  0999 V2000
   60.0834   29.4693   44.4151 H   0  0  0  0  0  0  0  0  0  0  0  0
   59.1200   29.0070   44.6760 C   0  0  0  0  0  0  0  0  0  0  0  0
   57.9220   29.7510   44.5290 C   0  0  0  0  0  0  0  0  0  0  0  0
   57.9650   31.1450   43.9790 C   0  0  0  0  0  0  0  0  0  0  0  0
   57.9872   31.8662   44.8093 H   0  0  0  0  0  0  0  0  0  0  0  0
   58.8674   31.2681   43.3621 H   0  0  0  0  0  0  0  0  0  0  0  0
   57.0719   31.3235   43.3621 H   0  0  0  0  0  0  0  0  0  0  0  0
   56.6800   29.1510   44.8350 C   0  0  0  0  0  0  0  0  0  0  0  0
   55.7369   29.7019   44.7041 H   0  0  0  0  0  0  0  0  0  0  0  0
   56.6860   27.8420   45.3070 C   0  0  0  0  0  0  0  0  0  0  0  0
   55.6210   27.0840   45.6290 N   0  0  0  0  0  0  0  0  0  0  0  0
   56.1920   25.9020   45.9850 C   0  0  0  0  0  0  0  0  0  0  0  0
   55.5090   24.8530   46.3390 N   0  0  0  0  0  0  0  0  0  0  0  0
   54.2710   24.4090   45.6990 C   0  0  0  0  0  0  0  0  0  0  0  0
   53.5195   24.2034   46.4756 H   0  0  0  0  0  0  0  0  0  0  0  0
   53.9237   25.2047   45.0236 H   0  0  0  0  0  0  0  0  0  0  0  0
   54.4980   23.1360   44.8730 C   0  0  0  0  0  0  0  0  0  0  0  0
   54.4536   22.2672   45.5463 H   0  0  0  0  0  0  0  0  0  0  0  0
   53.7131   23.0954   44.1034 H   0  0  0  0  0  0  0  0  0  0  0  0
   55.8530   23.1300   44.1530 C   0  0  0  0  0  0  0  0  0  0  0  0
   55.7773   23.7248   43.2308 H   0  0  0  0  0  0  0  0  0  0  0  0
   56.6149   23.5636   44.8174 H   0  0  0  0  0  0  0  0  0  0  0  0
   56.2430   21.7420   43.8100 N   0  0  0  0  0  0  0  0  0  0  0  0
   57.6480   21.6570   43.3660 C   0  0  0  0  0  0  0  0  0  0  0  0
   57.8290   20.6569   42.9453 H   0  0  0  0  0  0  0  0  0  0  0  0
   57.8168   22.4388   42.6108 H   0  0  0  0  0  0  0  0  0  0  0  0
   58.6330   21.8950   44.5350 C   0  0  0  0  0  0  0  0  0  0  0  0
   59.4495   21.1618   44.4590 H   0  0  0  0  0  0  0  0  0  0  0  0
   58.9974   22.9294   44.4500 H   0  0  0  0  0  0  0  0  0  0  0  0
   58.0280   21.7650   45.8100 O   0  0  0  0  0  0  0  0  0  0  0  0
   57.2090   20.6160   45.8440 C   0  0  0  0  0  0  0  0  0  0  0  0
   57.7926   19.7461   45.5082 H   0  0  0  0  0  0  0  0  0  0  0  0
   56.8559   20.4628   46.8745 H   0  0  0  0  0  0  0  0  0  0  0  0
   55.9850   20.7930   44.9200 C   0  0  0  0  0  0  0  0  0  0  0  0
   55.7211   19.8142   44.4930 H   0  0  0  0  0  0  0  0  0  0  0  0
   55.1650   21.2042   45.5271 H   0  0  0  0  0  0  0  0  0  0  0  0
   57.5490   25.9070   45.9140 N   0  0  0  0  0  0  0  0  0  0  0  0
   58.4650   24.7880   46.1270 C   0  0  0  0  0  0  0  0  0  0  0  0
   58.5990   24.6242   47.2064 H   0  0  0  0  0  0  0  0  0  0  0  0
   58.0477   23.8799   45.6674 H   0  0  0  0  0  0  0  0  0  0  0  0
   59.4376   25.0177   45.6674 H   0  0  0  0  0  0  0  0  0  0  0  0
   57.8440   27.1370   45.4660 C   0  0  0  0  0  0  0  0  0  0  0  0
   59.0890   27.6840   45.1520 C   0  0  0  0  0  0  0  0  0  0  0  0
   60.0138   27.1007   45.2726 H   0  0  0  0  0  0  0  0  0  0  0  0
  1  2  1  0
  2  3  2  0
  3  4  1  0
  4  5  1  0
  4  6  1  0
  4  7  1  0
  3  8  1  0
  8  9  1  0
  8 10  2  0
 10 11  1  0
 11 12  1  0
 12 13  2  0
 13 14  1  0
 14 15  1  0
 14 16  1  0
 14 17  1  0
 17 18  1  0
 17 19  1  0
 17 20  1  0
 20 21  1  0
 20 22  1  0
 20 23  1  0
 23 24  1  0
 24 25  1  0
 24 26  1  0
 24 27  1  0
 27 28  1  0
 27 29  1  0
 27 30  1  0
 30 31  1  0
 31 32  1  0
 31 33  1  0
 31 34  1  0
 34 35  1  0
 34 36  1  0
 12 37  1  0
 37 38  1  0
 38 39  1  0
 38 40  1  0
 38 41  1  0
 37 42  1  0
 42 43  2  0
 43 44  1  0
 43  2  1  0
 42 10  1  0
 34 23  1  0
M  CHG  1  11  -1
M  END
>  <UniqueID>  (36) 
35

>  <SMILES>  (36) 
Cc1ccc2c(c1)[n-]/c(=N\CCCN1CCOCC1)n2C

>  <Energy>  (36) 
90.16258597426176

>  <Genealogy>  (36) 
Cc1ccc2c(c1)[n-]c(=NCCCN1CCOCC1)n2C (protonated)
Cc1ccc2c(c1)[n-]/c(=N\CCCN1CCOCC1)n2C (cis-trans isomerization)
Cc1ccc2c(c1)[n-]/c(=N\CCCN1CCOCC1)n2C (3D coordinates assigned)
Cc1ccc2c(c1)[n-]/c(=N\CCCN1CCOCC1)n2C (nonaromatic ring conformer: 90.16258597426176 kcal/mol)

>  <smiles>  (36) 
Cc1ccc2c(c1)[nH]c(=NCCCN1CCOCC1)n2C

>  <score_type>  (36) 
oracle

>  <origin>  (36) 
adg

>  <m_score__min__energy>  (36) 
-8.5500000000000007

>  <m_primary>  (36) 
energy

$$$$
36:0
     RDKit          3D

 33 34  0  0  0  0  0  0  0  0999 V2000
   57.0260   25.8800   46.1600 C   0  0  0  0  0  0  0  0  0  0  0  0
   57.7830   27.1350   46.0340 N   0  0  0  0  0  0  0  0  0  0  0  0
   58.2890   27.5380   47.3580 C   0  0  0  0  0  0  0  0  0  0  0  0
   58.8910   26.9670   45.0670 C   0  0  0  0  0  0  0  0  0  0  0  0
   58.5400   27.5570   43.6910 C   0  0  0  0  0  0  0  0  0  0  0  0
   57.2310   28.2250   43.7100 N   0  0  0  0  0  0  0  0  0  0  0  0
   57.4050   29.6330   43.9240 C   0  0  0  0  0  0  0  0  0  0  0  0
   57.0860   30.6320   43.0130 C   0  0  0  0  0  0  0  0  0  0  0  0
   57.4500   31.9090   43.4550 C   0  0  0  0  0  0  0  0  0  0  0  0
   58.0670   31.9100   44.7070 C   0  0  0  0  0  0  0  0  0  0  0  0
   58.5740   33.0960   45.4310 C   0  0  0  0  0  0  0  0  0  0  0  0
   58.4800   33.2430   46.8250 C   0  0  0  0  0  0  0  0  0  0  0  0
   59.0220   34.4290   47.2990 C   0  0  0  0  0  0  0  0  0  0  0  0
   59.6160   35.2910   45.9880 S   0  0  0  0  0  0  0  0  0  0  0  0
   59.1950   34.1760   44.8060 C   0  0  0  0  0  0  0  0  0  0  0  0
   58.1620   30.3180   45.2600 S   0  0  0  0  0  0  0  0  0  0  0  0
   56.8832   25.6432   47.2247 H   0  0  0  0  0  0  0  0  0  0  0  0
   56.0453   25.9930   45.6748 H   0  0  0  0  0  0  0  0  0  0  0  0
   57.5834   25.0653   45.6748 H   0  0  0  0  0  0  0  0  0  0  0  0
   57.6860   27.0578   48.1427 H   0  0  0  0  0  0  0  0  0  0  0  0
   59.3389   27.2260   47.4598 H   0  0  0  0  0  0  0  0  0  0  0  0
   58.2198   28.6311   47.4598 H   0  0  0  0  0  0  0  0  0  0  0  0
   59.7843   27.4774   45.4563 H   0  0  0  0  0  0  0  0  0  0  0  0
   59.0756   25.8899   44.9411 H   0  0  0  0  0  0  0  0  0  0  0  0
   59.3109   28.2891   43.4087 H   0  0  0  0  0  0  0  0  0  0  0  0
   58.4970   26.7336   42.9629 H   0  0  0  0  0  0  0  0  0  0  0  0
   56.7380   28.0760   42.7990 H   0  0  0  0  0  0  0  0  0  0  0  0
   56.6410   27.8400   44.4830 H   0  0  0  0  0  0  0  0  0  0  0  0
   56.5985   30.4396   42.0459 H   0  0  0  0  0  0  0  0  0  0  0  0
   57.2675   32.8237   42.8719 H   0  0  0  0  0  0  0  0  0  0  0  0
   58.0197   32.4883   47.4796 H   0  0  0  0  0  0  0  0  0  0  0  0
   59.0563   34.7484   48.3510 H   0  0  0  0  0  0  0  0  0  0  0  0
   59.3774   34.2796   43.7262 H   0  0  0  0  0  0  0  0  0  0  0  0
  1  2  1  0
  2  3  1  0
  2  4  1  0
  4  5  1  0
  5  6  1  0
  6  7  1  0
  7  8  2  0
  8  9  1  0
  9 10  2  0
 10 11  1  0
 11 12  1  0
 12 13  2  0
 13 14  1  0
 14 15  1  0
 10 16  1  0
 16  7  1  0
 15 11  2  0
  1 17  1  0
  1 18  1  0
  1 19  1  0
  3 20  1  0
  3 21  1  0
  3 22  1  0
  4 23  1  0
  4 24  1  0
  5 25  1  0
  5 26  1  0
  6 27  1  0
  6 28  1  0
  8 29  1  0
  9 30  1  0
 12 31  1  0
 13 32  1  0
 15 33  1  0
M  CHG  1   6   1
M  END
>  <UniqueID>  (37) 
36

>  <SMILES>  (37) 
CN(C)CC[NH2+]c1ccc(-c2ccsc2)s1

>  <Energy>  (37) 
83.86198114339582

>  <Genealogy>  (37) 
CN(C)CC[NH2+]c1ccc(-c2ccsc2)s1 (protonated)
CN(C)CC[NH2+]c1ccc(-c2ccsc2)s1 (3D coordinates assigned)
CN(C)CC[NH2+]c1ccc(-c2ccsc2)s1 (optimized conformer: 83.86198114339582 kcal/mol)

>  <smiles>  (37) 
CN(C)CCNc1ccc(-c2ccsc2)s1

>  <score_type>  (37) 
oracle

>  <origin>  (37) 
adg

>  <m_score__min__energy>  (37) 
-4.4400000000000004

>  <m_primary>  (37) 
energy

$$$$
37:0
     RDKit          3D

 30 32  0  0  0  0  0  0  0  0999 V2000
   63.8730   32.7920   49.2220 C   0  0  0  0  0  0  0  0  0  0  0  0
   62.7390   33.2120   49.8260 N   0  0  0  0  0  0  0  0  0  0  0  0
   61.9340   33.5910   48.8460 N   0  0  0  0  0  0  0  0  0  0  0  0
   62.5790   33.4360   47.6820 C   0  0  0  0  0  0  0  0  0  0  0  0
   63.8010   32.9130   47.8780 N   0  0  0  0  0  0  0  0  0  0  0  0
   61.9540   33.7100   46.3510 C   0  0  0  0  0  0  0  0  0  0  0  0
   60.7010   34.5910   46.5210 C   0  0  0  0  0  0  0  0  0  0  0  0
   59.8090   34.1300   47.7040 C   0  0  1  0  0  0  0  0  0  0  0  0
   59.3120   32.7540   47.4870 N   0  0  0  0  0  0  0  0  0  0  0  0
   57.9080   32.7190   47.0430 C   0  0  0  0  0  0  0  0  0  0  0  0
   57.7850   32.3160   45.6000 C   0  0  0  0  0  0  0  0  0  0  0  0
   58.1640   33.1440   44.5460 C   0  0  0  0  0  0  0  0  0  0  0  0
   57.8300   32.3270   43.1160 S   0  0  0  0  0  0  0  0  0  0  0  0
   57.2180   30.9670   43.8900 C   0  0  0  0  0  0  0  0  0  0  0  0
   57.2600   31.1150   45.2310 N   0  0  0  0  0  0  0  0  0  0  0  0
   60.6200   34.2040   49.0190 C   0  0  0  0  0  0  0  0  0  0  0  0
   64.7486   32.3992   49.7595 H   0  0  0  0  0  0  0  0  0  0  0  0
   64.5210   32.6570   47.1670 H   0  0  0  0  0  0  0  0  0  0  0  0
   62.6799   34.2310   45.7094 H   0  0  0  0  0  0  0  0  0  0  0  0
   61.6610   32.7555   45.8895 H   0  0  0  0  0  0  0  0  0  0  0  0
   61.0203   35.6278   46.7026 H   0  0  0  0  0  0  0  0  0  0  0  0
   60.1054   34.5078   45.6000 H   0  0  0  0  0  0  0  0  0  0  0  0
   58.9378   34.7983   47.7713 H   0  0  0  0  0  0  0  0  0  0  0  0
   59.8960   32.2570   46.7730 H   0  0  0  0  0  0  0  0  0  0  0  0
   57.3574   31.9955   47.6622 H   0  0  0  0  0  0  0  0  0  0  0  0
   57.4918   33.7315   47.1503 H   0  0  0  0  0  0  0  0  0  0  0  0
   58.6020   34.1492   44.6337 H   0  0  0  0  0  0  0  0  0  0  0  0
   56.8343   30.0751   43.3729 H   0  0  0  0  0  0  0  0  0  0  0  0
   60.7476   35.2581   49.3065 H   0  0  0  0  0  0  0  0  0  0  0  0
   60.0746   33.6595   49.8039 H   0  0  0  0  0  0  0  0  0  0  0  0
  1  2  2  0
  2  3  1  0
  3  4  1  0
  4  5  2  0
  4  6  1  0
  6  7  1  0
  7  8  1  0
  8  9  1  0
  9 10  1  0
 10 11  1  0
 11 12  2  0
 12 13  1  0
 13 14  1  0
 14 15  2  0
  8 16  1  0
  5  1  1  0
 15 11  1  0
 16  3  1  0
  1 17  1  0
  5 18  1  0
  6 19  1  0
  6 20  1  0
  7 21  1  0
  7 22  1  0
  8 23  1  1
  9 24  1  0
 10 25  1  0
 10 26  1  0
 12 27  1  0
 14 28  1  0
 16 29  1  0
 16 30  1  0
M  CHG  1   5   1
M  END
>  <UniqueID>  (38) 
37

>  <SMILES>  (38) 
c1nn2c([nH+]1)CC[C@@H](NCc1cscn1)C2

>  <Energy>  (38) 
96.05877388581955

>  <Genealogy>  (38) 
c1nn2c([nH+]1)CCC(NCc1cscn1)C2 (protonated)
c1nn2c([nH+]1)CC[C@@H](NCc1cscn1)C2 (chirality)
c1nn2c([nH+]1)CC[C@@H](NCc1cscn1)C2 (3D coordinates assigned)
c1nn2c([nH+]1)CC[C@@H](NCc1cscn1)C2 (nonaromatic ring conformer: 96.05877388581955 kcal/mol)

>  <smiles>  (38) 
c1nc2n(n1)CC(NCc1cscn1)CC2

>  <score_type>  (38) 
oracle

>  <origin>  (38) 
adg

>  <m_score__min__energy>  (38) 
-4.9400000000000004

>  <m_primary>  (38) 
energy

$$$$
38:0
     RDKit          3D

 63 66  0  0  0  0  0  0  0  0999 V2000
   60.3820   30.9970   46.3740 C   0  0  0  0  0  0  0  0  0  0  0  0
   59.7480   31.2050   47.7290 C   0  0  0  0  0  0  0  0  0  0  0  0
   59.7360   30.1450   48.6740 C   0  0  0  0  0  0  0  0  0  0  0  0
   60.3270   28.8700   48.3570 N   0  0  0  0  0  0  0  0  0  0  0  0
   59.5910   27.7280   47.2760 S   0  0  0  0  0  0  0  0  0  0  0  0
   60.3800   27.7970   45.6830 C   0  0  0  0  0  0  0  0  0  0  0  0
   58.1410   28.0820   47.1040 O   0  0  0  0  0  0  0  0  0  0  0  0
   59.6910   26.3410   47.8480 O   0  0  0  0  0  0  0  0  0  0  0  0
   59.1130   30.3410   49.9200 C   0  0  0  0  0  0  0  0  0  0  0  0
   58.5200   31.5590   50.2360 C   0  0  0  0  0  0  0  0  0  0  0  0
   58.5370   32.6050   49.3180 C   0  0  0  0  0  0  0  0  0  0  0  0
   59.1500   32.4450   48.0690 C   0  0  0  0  0  0  0  0  0  0  0  0
   59.1840   33.5650   47.1680 N   0  0  0  0  0  0  0  0  0  0  0  0
   57.9840   33.8800   46.3800 C   0  0  0  0  0  0  0  0  0  0  0  0
   57.8490   32.9380   45.2130 C   0  0  0  0  0  0  0  0  0  0  0  0
   57.3890   31.6280   45.4160 C   0  0  0  0  0  0  0  0  0  0  0  0
   57.2900   30.7420   44.3370 C   0  0  0  0  0  0  0  0  0  0  0  0
   57.6410   31.1620   43.0500 C   0  0  0  0  0  0  0  0  0  0  0  0
   58.0930   32.4660   42.8380 C   0  0  0  0  0  0  0  0  0  0  0  0
   58.2020   33.3530   43.9140 C   0  0  0  0  0  0  0  0  0  0  0  0
   60.2360   34.5760   47.3510 C   0  0  0  0  0  0  0  0  0  0  0  0
   61.4410   33.9720   48.0220 C   0  0  0  0  0  0  0  0  0  0  0  0
   61.5790   34.0350   49.4140 C   0  0  0  0  0  0  0  0  0  0  0  0
   62.7150   33.5120   50.0370 C   0  0  0  0  0  0  0  0  0  0  0  0
   63.7420   32.9250   49.2780 C   0  0  0  0  0  0  0  0  0  0  0  0
   64.9390   32.3720   49.9580 C   0  0  0  0  0  0  0  0  0  0  0  0
   66.1580   33.0700   49.9920 C   0  0  0  0  0  0  0  0  0  0  0  0
   67.2540   32.5070   50.6470 C   0  0  0  0  0  0  0  0  0  0  0  0
   67.1360   31.2650   51.2680 C   0  0  0  0  0  0  0  0  0  0  0  0
   65.9070   30.5960   51.2300 C   0  0  0  0  0  0  0  0  0  0  0  0
   65.7520   29.2550   51.8860 C   0  0  0  0  0  0  0  0  0  0  0  0
   66.0760   29.3310   53.2290 F   0  0  0  0  0  0  0  0  0  0  0  0
   64.4430   28.8280   51.7650 F   0  0  0  0  0  0  0  0  0  0  0  0
   66.5890   28.3380   51.2760 F   0  0  0  0  0  0  0  0  0  0  0  0
   64.8530   31.1640   50.5830 N   0  0  0  0  0  0  0  0  0  0  0  0
   63.5970   32.8610   47.8790 C   0  0  0  0  0  0  0  0  0  0  0  0
   62.4580   33.3830   47.2590 C   0  0  0  0  0  0  0  0  0  0  0  0
   61.4200   30.6565   46.5032 H   0  0  0  0  0  0  0  0  0  0  0  0
   59.8139   30.2381   45.8160 H   0  0  0  0  0  0  0  0  0  0  0  0
   60.3739   31.9449   45.8160 H   0  0  0  0  0  0  0  0  0  0  0  0
   61.1730   28.5400   48.8710 H   0  0  0  0  0  0  0  0  0  0  0  0
   61.4677   27.8921   45.8164 H   0  0  0  0  0  0  0  0  0  0  0  0
   60.1583   26.8760   45.1238 H   0  0  0  0  0  0  0  0  0  0  0  0
   60.0018   28.6655   45.1238 H   0  0  0  0  0  0  0  0  0  0  0  0
   59.0946   29.5212   50.6532 H   0  0  0  0  0  0  0  0  0  0  0  0
   58.0362   31.6959   51.2144 H   0  0  0  0  0  0  0  0  0  0  0  0
   58.0653   33.5648   49.5755 H   0  0  0  0  0  0  0  0  0  0  0  0
   57.0960   33.7879   47.0226 H   0  0  0  0  0  0  0  0  0  0  0  0
   58.0735   34.9069   45.9961 H   0  0  0  0  0  0  0  0  0  0  0  0
   57.1054   31.2965   46.4258 H   0  0  0  0  0  0  0  0  0  0  0  0
   56.9356   29.7137   44.5015 H   0  0  0  0  0  0  0  0  0  0  0  0
   57.5609   30.4641   42.2036 H   0  0  0  0  0  0  0  0  0  0  0  0
   58.3635   32.7959   41.8241 H   0  0  0  0  0  0  0  0  0  0  0  0
   58.5645   34.3778   43.7453 H   0  0  0  0  0  0  0  0  0  0  0  0
   60.5306   34.9731   46.3684 H   0  0  0  0  0  0  0  0  0  0  0  0
   59.8444   35.3841   47.9863 H   0  0  0  0  0  0  0  0  0  0  0  0
   60.7878   34.4993   50.0210 H   0  0  0  0  0  0  0  0  0  0  0  0
   62.8065   33.5601   51.1321 H   0  0  0  0  0  0  0  0  0  0  0  0
   66.2477   34.0527   49.5060 H   0  0  0  0  0  0  0  0  0  0  0  0
   68.2132   33.0447   50.6732 H   0  0  0  0  0  0  0  0  0  0  0  0
   67.9985   30.8157   51.7820 H   0  0  0  0  0  0  0  0  0  0  0  0
   64.3860   32.3967   47.2692 H   0  0  0  0  0  0  0  0  0  0  0  0
   62.3595   33.3310   46.1647 H   0  0  0  0  0  0  0  0  0  0  0  0
  1  2  1  0
  2  3  2  0
  3  4  1  0
  4  5  1  0
  5  6  1  0
  5  7  2  0
  5  8  2  0
  3  9  1  0
  9 10  2  0
 10 11  1  0
 11 12  2  0
 12 13  1  0
 13 14  1  0
 14 15  1  0
 15 16  2  0
 16 17  1  0
 17 18  2  0
 18 19  1  0
 19 20  2  0
 13 21  1  0
 21 22  1  0
 22 23  2  0
 23 24  1  0
 24 25  2  0
 25 26  1  0
 26 27  2  0
 27 28  1  0
 28 29  2  0
 29 30  1  0
 30 31  1  0
 31 32  1  0
 31 33  1  0
 31 34  1  0
 30 35  2  0
 25 36  1  0
 36 37  2  0
 12  2  1  0
 20 15  1  0
 37 22  1  0
 35 26  1  0
  1 38  1  0
  1 39  1  0
  1 40  1  0
  4 41  1  0
  6 42  1  0
  6 43  1  0
  6 44  1  0
  9 45  1  0
 10 46  1  0
 11 47  1  0
 14 48  1  0
 14 49  1  0
 16 50  1  0
 17 51  1  0
 18 52  1  0
 19 53  1  0
 20 54  1  0
 21 55  1  0
 21 56  1  0
 23 57  1  0
 24 58  1  0
 27 59  1  0
 28 60  1  0
 29 61  1  0
 36 62  1  0
 37 63  1  0
M  END
>  <UniqueID>  (39) 
38

>  <SMILES>  (39) 
Cc1c(NS(C)(=O)=O)cccc1N(Cc1ccccc1)Cc1ccc(-c2cccc(C(F)(F)F)n2)cc1

>  <Energy>  (39) 
74.20564176471778

>  <Genealogy>  (39) 
Cc1c(NS(C)(=O)=O)cccc1N(Cc1ccccc1)Cc1ccc(-c2cccc(C(F)(F)F)n2)cc1 (3D coordinates assigned)
Cc1c(NS(C)(=O)=O)cccc1N(Cc1ccccc1)Cc1ccc(-c2cccc(C(F)(F)F)n2)cc1 (optimized conformer: 74.20564176471778 kcal/mol)

>  <smiles>  (39) 
Cc1c(NS(C)(=O)=O)cccc1N(Cc1ccccc1)Cc1ccc(-c2cccc(C(F)(F)F)n2)cc1

>  <score_type>  (39) 
oracle

>  <origin>  (39) 
adg

>  <m_score__min__energy>  (39) 
-10.199999999999999

>  <m_primary>  (39) 
energy

$$$$
39:0
     RDKit          3D

 49 53  0  0  0  0  0  0  0  0999 V2000
   62.4020   34.2350   48.9740 C   0  0  0  0  0  0  0  0  0  0  0  0
   62.9530   33.0760   48.2560 N   0  0  0  0  0  0  0  0  0  0  0  0
   63.3300   33.4060   46.8740 C   0  0  0  0  0  0  0  0  0  0  0  0
   62.1370   31.8480   48.3790 C   0  0  0  0  0  0  0  0  0  0  0  0
   61.8720   31.0710   47.0610 C   0  0  0  0  0  0  0  0  0  0  0  0
   60.4020   30.9520   46.6930 C   0  0  0  0  0  0  0  0  0  0  0  0
   59.8120   29.6840   46.5590 C   0  0  0  0  0  0  0  0  0  0  0  0
   58.4730   29.5580   46.2840 C   0  0  0  0  0  0  0  0  0  0  0  0
   57.6580   30.6230   46.1060 N   0  0  0  0  0  0  0  0  0  0  0  0
   58.1790   31.8850   46.1640 C   0  0  0  0  0  0  0  0  0  0  0  0
   57.3460   32.9900   45.9320 C   0  0  0  0  0  0  0  0  0  0  0  0
   57.8700   34.2830   45.9310 C   0  0  0  0  0  0  0  0  0  0  0  0
   59.2330   34.4860   46.1470 C   0  0  0  0  0  0  0  0  0  0  0  0
   59.7390   35.7450   46.1160 F   0  0  0  0  0  0  0  0  0  0  0  0
   60.0800   33.4020   46.3850 C   0  0  0  0  0  0  0  0  0  0  0  0
   59.5720   32.0850   46.4300 C   0  0  0  0  0  0  0  0  0  0  0  0
   58.1660   28.1500   46.1760 C   0  0  0  0  0  0  0  0  0  0  0  0
   56.9410   27.5420   45.9110 C   0  0  0  0  0  0  0  0  0  0  0  0
   56.9000   26.1390   45.8500 C   0  0  0  0  0  0  0  0  0  0  0  0
   55.6920   25.4750   45.5880 C   0  0  0  0  0  0  0  0  0  0  0  0
   55.6550   24.0790   45.5280 C   0  0  0  0  0  0  0  0  0  0  0  0
   56.8200   23.3350   45.7270 C   0  0  0  0  0  0  0  0  0  0  0  0
   58.0330   23.9790   45.9890 C   0  0  0  0  0  0  0  0  0  0  0  0
   58.0890   25.3830   46.0530 C   0  0  0  0  0  0  0  0  0  0  0  0
   59.2980   26.0660   46.3150 C   0  0  0  0  0  0  0  0  0  0  0  0
   60.3750   25.4350   46.5010 O   0  0  0  0  0  0  0  0  0  0  0  0
   59.2880   27.4270   46.3660 N   0  0  0  0  0  0  0  0  0  0  0  0
   60.4330   28.3090   46.6210 C   0  0  0  0  0  0  0  0  0  0  0  0
   62.4820   34.0667   50.0581 H   0  0  0  0  0  0  0  0  0  0  0  0
   62.9670   35.1383   48.7005 H   0  0  0  0  0  0  0  0  0  0  0  0
   61.3448   34.3670   48.7005 H   0  0  0  0  0  0  0  0  0  0  0  0
   64.1577   34.1305   46.8828 H   0  0  0  0  0  0  0  0  0  0  0  0
   63.6488   32.4914   46.3525 H   0  0  0  0  0  0  0  0  0  0  0  0
   62.4657   33.8430   46.3525 H   0  0  0  0  0  0  0  0  0  0  0  0
   62.6545   31.1683   49.0720 H   0  0  0  0  0  0  0  0  0  0  0  0
   61.1494   32.1825   48.7293 H   0  0  0  0  0  0  0  0  0  0  0  0
   62.3914   31.5918   46.2431 H   0  0  0  0  0  0  0  0  0  0  0  0
   62.2427   30.0472   47.2175 H   0  0  0  0  0  0  0  0  0  0  0  0
   56.6460   30.4710   45.8950 H   0  0  0  0  0  0  0  0  0  0  0  0
   56.2723   32.8357   45.7496 H   0  0  0  0  0  0  0  0  0  0  0  0
   57.2071   35.1439   45.7596 H   0  0  0  0  0  0  0  0  0  0  0  0
   61.1552   33.5757   46.5392 H   0  0  0  0  0  0  0  0  0  0  0  0
   56.0328   28.1425   45.7542 H   0  0  0  0  0  0  0  0  0  0  0  0
   54.7709   26.0550   45.4293 H   0  0  0  0  0  0  0  0  0  0  0  0
   54.7046   23.5644   45.3232 H   0  0  0  0  0  0  0  0  0  0  0  0
   56.7831   22.2367   45.6774 H   0  0  0  0  0  0  0  0  0  0  0  0
   58.9462   23.3860   46.1455 H   0  0  0  0  0  0  0  0  0  0  0  0
   60.8702   28.1153   47.6116 H   0  0  0  0  0  0  0  0  0  0  0  0
   61.2588   28.1701   45.9077 H   0  0  0  0  0  0  0  0  0  0  0  0
  1  2  1  0
  2  3  1  0
  2  4  1  0
  4  5  1  0
  5  6  1  0
  6  7  2  0
  7  8  1  0
  8  9  2  0
  9 10  1  0
 10 11  2  0
 11 12  1  0
 12 13  2  0
 13 14  1  0
 13 15  1  0
 15 16  2  0
  8 17  1  0
 17 18  2  0
 18 19  1  0
 19 20  2  0
 20 21  1  0
 21 22  2  0
 22 23  1  0
 23 24  2  0
 24 25  1  0
 25 26  2  0
 25 27  1  0
 27 28  1  0
 16  6  1  0
 27 17  1  0
 28  7  1  0
 16 10  1  0
 24 19  1  0
  1 29  1  0
  1 30  1  0
  1 31  1  0
  3 32  1  0
  3 33  1  0
  3 34  1  0
  4 35  1  0
  4 36  1  0
  5 37  1  0
  5 38  1  0
  9 39  1  0
 11 40  1  0
 12 41  1  0
 15 42  1  0
 18 43  1  0
 20 44  1  0
 21 45  1  0
 22 46  1  0
 23 47  1  0
 28 48  1  0
 28 49  1  0
M  CHG  1   9   1
M  END
>  <UniqueID>  (40) 
39

>  <SMILES>  (40) 
CN(C)CCc1c2c([nH+]c3ccc(F)cc13)-c1cc3ccccc3c(=O)n1C2

>  <Energy>  (40) 
94.92495361886239

>  <Genealogy>  (40) 
CN(C)CCc1c2c([nH+]c3ccc(F)cc13)-c1cc3ccccc3c(=O)n1C2 (protonated)
CN(C)CCc1c2c([nH+]c3ccc(F)cc13)-c1cc3ccccc3c(=O)n1C2 (3D coordinates assigned)
CN(C)CCc1c2c([nH+]c3ccc(F)cc13)-c1cc3ccccc3c(=O)n1C2 (nonaromatic ring conformer: 94.92495361886239 kcal/mol)

>  <smiles>  (40) 
CN(C)CCc1c2c(nc3ccc(F)cc13)-c1cc3ccccc3c(=O)n1C2

>  <score_type>  (40) 
oracle

>  <origin>  (40) 
adg

>  <m_score__min__energy>  (40) 
-6.8200000000000003

>  <m_primary>  (40) 
energy

$$$$
40:0
     RDKit          3D

 31 33  0  0  0  0  0  0  0  0999 V2000
   57.3990   32.6430   44.7190 C   0  0  0  0  0  0  0  0  0  0  0  0
   56.7910   31.3560   44.7760 O   0  0  0  0  0  0  0  0  0  0  0  0
   57.4020   30.2130   45.3120 C   0  0  0  0  0  0  0  0  0  0  0  0
   58.6540   30.3520   45.9180 C   0  0  0  0  0  0  0  0  0  0  0  0
   59.3030   29.2440   46.4670 C   0  0  0  0  0  0  0  0  0  0  0  0
   58.7050   27.9830   46.4140 C   0  0  0  0  0  0  0  0  0  0  0  0
   57.4490   27.8200   45.8090 C   0  0  0  0  0  0  0  0  0  0  0  0
   56.8220   26.4850   45.7560 C   0  0  0  0  0  0  0  0  0  0  0  0
   57.4270   25.3780   45.2810 N   0  0  0  0  0  0  0  0  0  0  0  0
   56.4620   24.4480   45.4460 C   0  0  0  0  0  0  0  0  0  0  0  0
   56.6170   23.0260   45.0730 C   0  0  0  0  0  0  0  0  0  0  0  0
   56.3980   22.0110   46.0190 C   0  0  0  0  0  0  0  0  0  0  0  0
   56.5500   20.6740   45.6450 C   0  0  0  0  0  0  0  0  0  0  0  0
   56.9090   20.3540   44.3730 N   0  0  0  0  0  0  0  0  0  0  0  0
   57.1280   21.3160   43.4360 C   0  0  0  0  0  0  0  0  0  0  0  0
   56.9860   22.6660   43.7670 C   0  0  0  0  0  0  0  0  0  0  0  0
   55.3410   24.9650   45.9880 N   0  0  0  0  0  0  0  0  0  0  0  0
   55.6030   26.2240   46.1650 O   0  0  0  0  0  0  0  0  0  0  0  0
   56.7990   28.9390   45.2580 C   0  0  0  0  0  0  0  0  0  0  0  0
   57.5732   33.0118   45.7406 H   0  0  0  0  0  0  0  0  0  0  0  0
   58.3587   32.5719   44.1862 H   0  0  0  0  0  0  0  0  0  0  0  0
   56.7345   33.3392   44.1862 H   0  0  0  0  0  0  0  0  0  0  0  0
   59.1317   31.3418   45.9628 H   0  0  0  0  0  0  0  0  0  0  0  0
   60.2876   29.3647   46.9423 H   0  0  0  0  0  0  0  0  0  0  0  0
   59.2206   27.1138   46.8483 H   0  0  0  0  0  0  0  0  0  0  0  0
   56.1084   22.2678   47.0487 H   0  0  0  0  0  0  0  0  0  0  0  0
   56.3786   19.8762   46.3827 H   0  0  0  0  0  0  0  0  0  0  0  0
   57.0180   19.3490   44.1100 H   0  0  0  0  0  0  0  0  0  0  0  0
   57.4179   21.0299   42.4142 H   0  0  0  0  0  0  0  0  0  0  0  0
   57.1624   23.4428   43.0084 H   0  0  0  0  0  0  0  0  0  0  0  0
   55.8145   28.8199   44.7821 H   0  0  0  0  0  0  0  0  0  0  0  0
  1  2  1  0
  2  3  1  0
  3  4  2  0
  4  5  1  0
  5  6  2  0
  6  7  1  0
  7  8  1  0
  8  9  2  0
  9 10  1  0
 10 11  1  0
 11 12  2  0
 12 13  1  0
 13 14  2  0
 14 15  1  0
 15 16  2  0
 10 17  2  0
 17 18  1  0
  7 19  2  0
 19  3  1  0
 18  8  1  0
 16 11  1  0
  1 20  1  0
  1 21  1  0
  1 22  1  0
  4 23  1  0
  5 24  1  0
  6 25  1  0
 12 26  1  0
 13 27  1  0
 14 28  1  0
 15 29  1  0
 16 30  1  0
 19 31  1  0
M  CHG  1  14   1
M  END
>  <UniqueID>  (41) 
40

>  <SMILES>  (41) 
COc1cccc(-c2nc(-c3cc[nH+]cc3)no2)c1

>  <Energy>  (41) 
66.6133509570195

>  <Genealogy>  (41) 
COc1cccc(-c2nc(-c3cc[nH+]cc3)no2)c1 (protonated)
COc1cccc(-c2nc(-c3cc[nH+]cc3)no2)c1 (3D coordinates assigned)
COc1cccc(-c2nc(-c3cc[nH+]cc3)no2)c1 (optimized conformer: 66.6133509570195 kcal/mol)

>  <smiles>  (41) 
COc1cccc(-c2nc(-c3ccncc3)no2)c1

>  <score_type>  (41) 
oracle

>  <origin>  (41) 
adg

>  <m_score__min__energy>  (41) 
-6.1699999999999999

>  <m_primary>  (41) 
energy

$$$$
41:0
     RDKit          3D

 56 59  0  0  0  0  0  0  0  0999 V2000
   58.5560   35.4194   44.9261 H   0  0  0  0  0  0  0  0  0  0  0  0
   58.5460   34.5240   45.5650 C   0  0  0  0  0  0  0  0  0  0  0  0
   57.5150   33.6740   45.4470 C   0  0  0  0  0  0  0  0  0  0  0  0
   56.4990   34.0382   45.6594 H   0  0  0  0  0  0  0  0  0  0  0  0
   57.6990   32.2570   45.0390 C   0  0  0  0  0  0  0  0  0  0  0  0
   57.3580   31.8740   43.7380 C   0  0  0  0  0  0  0  0  0  0  0  0
   57.0102   32.6301   43.0187 H   0  0  0  0  0  0  0  0  0  0  0  0
   57.4560   30.5440   43.3490 C   0  0  0  0  0  0  0  0  0  0  0  0
   57.1914   30.2618   42.3193 H   0  0  0  0  0  0  0  0  0  0  0  0
   57.8750   29.5800   44.2220 N   0  0  0  0  0  0  0  0  0  0  0  0
   57.9430   28.1920   43.7350 C   0  0  0  0  0  0  0  0  0  0  0  0
   57.9767   27.5038   44.5925 H   0  0  0  0  0  0  0  0  0  0  0  0
   57.0545   27.9737   43.1244 H   0  0  0  0  0  0  0  0  0  0  0  0
   58.8486   28.0616   43.1244 H   0  0  0  0  0  0  0  0  0  0  0  0
   58.2240   29.9140   45.5160 C   0  0  0  0  0  0  0  0  0  0  0  0
   58.6630   28.9370   46.4360 C   0  0  0  0  0  0  0  0  0  0  0  0
   58.7121   27.8861   46.1147 H   0  0  0  0  0  0  0  0  0  0  0  0
   59.0370   29.2640   47.7420 C   0  0  0  0  0  0  0  0  0  0  0  0
   59.4570   28.1970   48.5600 O   0  0  0  0  0  0  0  0  0  0  0  0
   60.6120   28.1700   49.3910 C   0  0  0  0  0  0  0  0  0  0  0  0
   60.3042   28.1772   50.4470 H   0  0  0  0  0  0  0  0  0  0  0  0
   61.1913   27.2581   49.1841 H   0  0  0  0  0  0  0  0  0  0  0  0
   61.2333   29.0539   49.1841 H   0  0  0  0  0  0  0  0  0  0  0  0
   58.9810   30.6100   48.1650 C   0  0  0  0  0  0  0  0  0  0  0  0
   59.3600   30.9480   49.4750 O   0  0  0  0  0  0  0  0  0  0  0  0
   58.7320   31.9400   50.2810 C   0  0  0  0  0  0  0  0  0  0  0  0
   58.8843   31.6995   51.3435 H   0  0  0  0  0  0  0  0  0  0  0  0
   59.1722   32.9238   50.0610 H   0  0  0  0  0  0  0  0  0  0  0  0
   57.6545   31.9630   50.0610 H   0  0  0  0  0  0  0  0  0  0  0  0
   58.5430   31.5950   47.2610 C   0  0  0  0  0  0  0  0  0  0  0  0
   58.5094   32.6454   47.5858 H   0  0  0  0  0  0  0  0  0  0  0  0
   58.1460   31.2670   45.9480 C   0  0  0  0  0  0  0  0  0  0  0  0
   59.6730   34.3250   46.5080 C   0  0  0  0  0  0  0  0  0  0  0  0
   59.5640   34.5900   47.8870 C   0  0  0  0  0  0  0  0  0  0  0  0
   58.6159   34.9681   48.2972 H   0  0  0  0  0  0  0  0  0  0  0  0
   60.6520   34.3760   48.7380 C   0  0  0  0  0  0  0  0  0  0  0  0
   60.5555   34.5936   49.8119 H   0  0  0  0  0  0  0  0  0  0  0  0
   61.8660   33.8860   48.2340 C   0  0  0  0  0  0  0  0  0  0  0  0
   62.9860   33.6780   49.1160 N   0  0  0  0  0  0  0  0  0  0  0  0
   64.2150   33.0580   48.6090 C   0  0  0  0  0  0  0  0  0  0  0  0
   63.9622   32.3398   47.8151 H   0  0  0  0  0  0  0  0  0  0  0  0
   64.8769   33.8372   48.2033 H   0  0  0  0  0  0  0  0  0  0  0  0
   64.9290   32.3270   49.7490 C   0  0  0  0  0  0  0  0  0  0  0  0
   64.3192   31.4674   50.0639 H   0  0  0  0  0  0  0  0  0  0  0  0
   65.9119   31.9883   49.3894 H   0  0  0  0  0  0  0  0  0  0  0  0
   65.1230   33.1880   50.8550 O   0  0  0  0  0  0  0  0  0  0  0  0
   63.8690   33.5580   51.3990 C   0  0  0  0  0  0  0  0  0  0  0  0
   63.3026   32.6491   51.6502 H   0  0  0  0  0  0  0  0  0  0  0  0
   64.0410   34.1637   52.3009 H   0  0  0  0  0  0  0  0  0  0  0  0
   63.0640   34.3900   50.3950 C   0  0  0  0  0  0  0  0  0  0  0  0
   62.0487   34.5530   50.7856 H   0  0  0  0  0  0  0  0  0  0  0  0
   63.5606   35.3597   50.2433 H   0  0  0  0  0  0  0  0  0  0  0  0
   61.9730   33.6110   46.8610 C   0  0  0  0  0  0  0  0  0  0  0  0
   62.9198   33.2277   46.4528 H   0  0  0  0  0  0  0  0  0  0  0  0
   60.8850   33.8210   46.0100 C   0  0  0  0  0  0  0  0  0  0  0  0
   60.9790   33.5891   44.9388 H   0  0  0  0  0  0  0  0  0  0  0  0
  1  2  1  0
  2  3  2  0
  3  4  1  0
  3  5  1  0
  5  6  2  0
  6  7  1  0
  6  8  1  0
  8  9  1  0
  8 10  2  0
 10 11  1  0
 11 12  1  0
 11 13  1  0
 11 14  1  0
 10 15  1  0
 15 16  2  0
 16 17  1  0
 16 18  1  0
 18 19  1  0
 19 20  1  0
 20 21  1  0
 20 22  1  0
 20 23  1  0
 18 24  2  0
 24 25  1  0
 25 26  1  0
 26 27  1  0
 26 28  1  0
 26 29  1  0
 24 30  1  0
 30 31  1  0
 30 32  2  0
  2 33  1  0
 33 34  2  0
 34 35  1  0
 34 36  1  0
 36 37  1  0
 36 38  2  0
 38 39  1  0
 39 40  1  0
 40 41  1  0
 40 42  1  0
 40 43  1  0
 43 44  1  0
 43 45  1  0
 43 46  1  0
 46 47  1  0
 47 48  1  0
 47 49  1  0
 47 50  1  0
 50 51  1  0
 50 52  1  0
 38 53  1  0
 53 54  1  0
 53 55  2  0
 55 56  1  0
 32  5  1  0
 55 33  1  0
 32 15  1  0
 50 39  1  0
M  CHG  1  10   1
M  END
>  <UniqueID>  (42) 
41

>  <SMILES>  (42) 
COc1cc2c(/C=C/c3ccc(N4CCOCC4)cc3)cc[n+](C)c2cc1OC

>  <Energy>  (42) 
82.29791038542932

>  <Genealogy>  (42) 
COc1cc2c(/C=C/c3ccc(N4CCOCC4)cc3)cc[n+](C)c2cc1OC (cis-trans isomerization)
COc1cc2c(/C=C/c3ccc(N4CCOCC4)cc3)cc[n+](C)c2cc1OC (3D coordinates assigned)
COc1cc2c(/C=C/c3ccc(N4CCOCC4)cc3)cc[n+](C)c2cc1OC (nonaromatic ring conformer: 82.29791038542932 kcal/mol)

>  <smiles>  (42) 
COc1cc2c(C=Cc3ccc(N4CCOCC4)cc3)cc[n+](C)c2cc1OC

>  <score_type>  (42) 
oracle

>  <origin>  (42) 
adg

>  <m_score__min__energy>  (42) 
-6.2699999999999996

>  <m_primary>  (42) 
energy

$$$$
42:0
     RDKit          3D

 47 49  0  0  0  0  0  0  0  0999 V2000
   64.2060   31.9120   49.3880 C   0  0  0  0  0  0  0  0  0  0  0  0
   63.0970   32.7060   48.7630 C   0  0  0  0  0  0  0  0  0  0  0  0
   63.1710   33.0720   47.4200 C   0  0  0  0  0  0  0  0  0  0  0  0
   62.1610   33.8500   46.8650 C   0  0  0  0  0  0  0  0  0  0  0  0
   61.0800   34.3000   47.6440 C   0  0  0  0  0  0  0  0  0  0  0  0
   60.0370   35.1960   46.9680 C   0  0  0  0  0  0  0  0  0  0  0  0
   58.8910   34.4690   46.3570 N   0  0  0  0  0  0  0  0  0  0  0  0
   58.8240   34.6500   44.8870 C   0  0  0  0  0  0  0  0  0  0  0  0
   58.8290   33.3090   44.1280 C   0  0  0  0  0  0  0  0  0  0  0  0
   57.4860   32.5790   44.0980 C   0  0  0  0  0  0  0  0  0  0  0  0
   57.3000   31.7630   45.3010 N   0  0  0  0  0  0  0  0  0  0  0  0
   57.3030   30.3260   45.2170 C   0  0  0  0  0  0  0  0  0  0  0  0
   56.2490   29.7180   44.8880 O   0  0  0  0  0  0  0  0  0  0  0  0
   58.5180   29.5440   45.5000 C   0  0  0  0  0  0  0  0  0  0  0  0
   59.3530   28.9450   44.5630 C   0  0  0  0  0  0  0  0  0  0  0  0
   60.4040   28.2230   45.1410 C   0  0  0  0  0  0  0  0  0  0  0  0
   60.3940   28.2370   46.5300 C   0  0  0  0  0  0  0  0  0  0  0  0
   59.0750   29.1470   47.0380 S   0  0  0  0  0  0  0  0  0  0  0  0
   57.4600   32.4190   46.6000 C   0  0  0  0  0  0  0  0  0  0  0  0
   58.8540   33.0380   46.7570 C   0  0  0  0  0  0  0  0  0  0  0  0
   61.0100   33.8570   48.9970 C   0  0  0  0  0  0  0  0  0  0  0  0
   59.8580   34.1750   49.9150 C   0  0  0  0  0  0  0  0  0  0  0  0
   62.0360   33.1130   49.5140 N   0  0  0  0  0  0  0  0  0  0  0  0
   64.1258   31.9695   50.4836 H   0  0  0  0  0  0  0  0  0  0  0  0
   64.1298   30.8619   49.0693 H   0  0  0  0  0  0  0  0  0  0  0  0
   65.1755   32.3225   49.0693 H   0  0  0  0  0  0  0  0  0  0  0  0
   64.0224   32.7476   46.8036 H   0  0  0  0  0  0  0  0  0  0  0  0
   62.2083   34.1179   45.7992 H   0  0  0  0  0  0  0  0  0  0  0  0
   59.6388   35.8883   47.7245 H   0  0  0  0  0  0  0  0  0  0  0  0
   60.5554   35.7060   46.1427 H   0  0  0  0  0  0  0  0  0  0  0  0
   57.8993   35.1921   44.6398 H   0  0  0  0  0  0  0  0  0  0  0  0
   59.7170   35.2131   44.5779 H   0  0  0  0  0  0  0  0  0  0  0  0
   59.1338   33.5057   43.0895 H   0  0  0  0  0  0  0  0  0  0  0  0
   59.5245   32.6514   44.6700 H   0  0  0  0  0  0  0  0  0  0  0  0
   56.6757   33.3205   44.0385 H   0  0  0  0  0  0  0  0  0  0  0  0
   57.4694   31.9155   43.2208 H   0  0  0  0  0  0  0  0  0  0  0  0
   59.2027   29.0300   43.4766 H   0  0  0  0  0  0  0  0  0  0  0  0
   61.1665   27.6940   44.5504 H   0  0  0  0  0  0  0  0  0  0  0  0
   61.1237   27.7384   47.1849 H   0  0  0  0  0  0  0  0  0  0  0  0
   56.7050   33.2135   46.6931 H   0  0  0  0  0  0  0  0  0  0  0  0
   57.3328   31.6590   47.3850 H   0  0  0  0  0  0  0  0  0  0  0  0
   59.1583   32.9586   47.8111 H   0  0  0  0  0  0  0  0  0  0  0  0
   59.5395   32.4886   46.0950 H   0  0  0  0  0  0  0  0  0  0  0  0
   60.1867   34.0843   50.9608 H   0  0  0  0  0  0  0  0  0  0  0  0
   59.5122   35.2022   49.7271 H   0  0  0  0  0  0  0  0  0  0  0  0
   59.0342   33.4707   49.7271 H   0  0  0  0  0  0  0  0  0  0  0  0
   62.0030   32.8320   50.5210 H   0  0  0  0  0  0  0  0  0  0  0  0
  1  2  1  0
  2  3  2  0
  3  4  1  0
  4  5  2  0
  5  6  1  0
  6  7  1  0
  7  8  1  0
  8  9  1  0
  9 10  1  0
 10 11  1  0
 11 12  1  0
 12 13  2  0
 12 14  1  0
 14 15  2  0
 15 16  1  0
 16 17  2  0
 17 18  1  0
 11 19  1  0
 19 20  1  0
  5 21  1  0
 21 22  1  0
 21 23  2  0
 23  2  1  0
 20  7  1  0
 18 14  1  0
  1 24  1  0
  1 25  1  0
  1 26  1  0
  3 27  1  0
  4 28  1  0
  6 29  1  0
  6 30  1  0
  8 31  1  0
  8 32  1  0
  9 33  1  0
  9 34  1  0
 10 35  1  0
 10 36  1  0
 15 37  1  0
 16 38  1  0
 17 39  1  0
 19 40  1  0
 19 41  1  0
 20 42  1  0
 20 43  1  0
 22 44  1  0
 22 45  1  0
 22 46  1  0
 23 47  1  0
M  CHG  1  23   1
M  END
>  <UniqueID>  (43) 
42

>  <SMILES>  (43) 
Cc1ccc(CN2CCCN(C(=O)c3cccs3)CC2)c(C)[nH+]1

>  <Energy>  (43) 
89.11339554782576

>  <Genealogy>  (43) 
Cc1ccc(CN2CCCN(C(=O)c3cccs3)CC2)c(C)[nH+]1 (protonated)
Cc1ccc(CN2CCCN(C(=O)c3cccs3)CC2)c(C)[nH+]1 (3D coordinates assigned)
Cc1ccc(CN2CCCN(C(=O)c3cccs3)CC2)c(C)[nH+]1 (nonaromatic ring conformer: 89.11339554782576 kcal/mol)

>  <smiles>  (43) 
Cc1ccc(CN2CCCN(C(=O)c3cccs3)CC2)c(C)n1

>  <score_type>  (43) 
oracle

>  <origin>  (43) 
adg

>  <m_score__min__energy>  (43) 
-4.9400000000000004

>  <m_primary>  (43) 
energy

$$$$
