0:0
     RDKit          3D

 43 43  0  0  0  0  0  0  0  0999 V2000
   59.8560   34.1750   48.4610 C   0  0  0  0  0  0  0  0  0  0  0  0
   59.7880   33.7620   46.9930 C   0  0  0  0  0  0  0  0  0  0  0  0
   58.7790   34.5640   46.2610 N   0  0  0  0  0  0  0  0  0  0  0  0
   59.2880   34.9420   44.9290 C   0  0  0  0  0  0  0  0  0  0  0  0
   57.5080   33.8180   46.1190 C   0  0  0  0  0  0  0  0  0  0  0  0
   57.7690   32.3960   45.6220 C   0  0  0  0  0  0  0  0  0  0  0  0
   56.6260   31.9350   44.9290 O   0  0  0  0  0  0  0  0  0  0  0  0
   57.0010   31.2560   43.7460 C   0  0  0  0  0  0  0  0  0  0  0  0
   57.0110   29.7480   43.9830 C   0  0  0  0  0  0  0  0  0  0  0  0
   56.5830   29.4770   45.2970 O   0  0  0  0  0  0  0  0  0  0  0  0
   55.9080   28.3000   45.2370 N   0  0  0  0  0  0  0  0  0  0  0  0
   56.4310   27.0950   45.8010 C   0  0  0  0  0  0  0  0  0  0  0  0
   55.6660   26.3420   46.4580 O   0  0  0  0  0  0  0  0  0  0  0  0
   57.8780   26.7220   45.6420 C   0  0  0  0  0  0  0  0  0  0  0  0
   58.7900   27.8700   45.9930 C   0  0  0  0  0  0  0  0  0  0  0  0
   59.8240   28.2470   45.1190 C   0  0  0  0  0  0  0  0  0  0  0  0
   60.6550   29.3260   45.4350 C   0  0  0  0  0  0  0  0  0  0  0  0
   60.4610   30.0360   46.6220 C   0  0  0  0  0  0  0  0  0  0  0  0
   59.4370   29.6660   47.4990 C   0  0  0  0  0  0  0  0  0  0  0  0
   59.2050   30.5530   48.9940 Cl  0  0  0  0  0  0  0  0  0  0  0  0
   58.5980   28.5920   47.1830 C   0  0  0  0  0  0  0  0  0  0  0  0
   59.7103   33.2901   49.0980 H   0  0  0  0  0  0  0  0  0  0  0  0
   60.8396   34.6203   48.6714 H   0  0  0  0  0  0  0  0  0  0  0  0
   59.0671   34.9122   48.6714 H   0  0  0  0  0  0  0  0  0  0  0  0
   60.7740   33.9156   46.5302 H   0  0  0  0  0  0  0  0  0  0  0  0
   59.4981   32.7022   46.9405 H   0  0  0  0  0  0  0  0  0  0  0  0
   60.1663   35.5943   45.0436 H   0  0  0  0  0  0  0  0  0  0  0  0
   59.5741   34.0357   44.3751 H   0  0  0  0  0  0  0  0  0  0  0  0
   58.5031   35.4779   44.3751 H   0  0  0  0  0  0  0  0  0  0  0  0
   57.0049   33.7724   47.0961 H   0  0  0  0  0  0  0  0  0  0  0  0
   56.8727   34.3377   45.3867 H   0  0  0  0  0  0  0  0  0  0  0  0
   58.6363   32.3949   44.9453 H   0  0  0  0  0  0  0  0  0  0  0  0
   57.9778   31.7355   46.4765 H   0  0  0  0  0  0  0  0  0  0  0  0
   56.2824   31.4934   42.9477 H   0  0  0  0  0  0  0  0  0  0  0  0
   58.0104   31.5793   43.4517 H   0  0  0  0  0  0  0  0  0  0  0  0
   56.3322   29.2599   43.2682 H   0  0  0  0  0  0  0  0  0  0  0  0
   58.0311   29.3612   43.8423 H   0  0  0  0  0  0  0  0  0  0  0  0
   58.1024   25.8728   46.3042 H   0  0  0  0  0  0  0  0  0  0  0  0
   58.0505   26.4559   44.5887 H   0  0  0  0  0  0  0  0  0  0  0  0
   59.9801   27.6910   44.1828 H   0  0  0  0  0  0  0  0  0  0  0  0
   61.4631   29.6163   44.7475 H   0  0  0  0  0  0  0  0  0  0  0  0
   61.1141   30.8866   46.8669 H   0  0  0  0  0  0  0  0  0  0  0  0
   57.7849   28.3117   47.8688 H   0  0  0  0  0  0  0  0  0  0  0  0
  1  2  1  0
  2  3  1  0
  3  4  1  0
  3  5  1  0
  5  6  1  0
  6  7  1  0
  7  8  1  0
  8  9  1  0
  9 10  1  0
 10 11  1  0
 11 12  1  0
 12 13  2  0
 12 14  1  0
 14 15  1  0
 15 16  2  0
 16 17  1  0
 17 18  2  0
 18 19  1  0
 19 20  1  0
 19 21  2  0
 21 15  1  0
  1 22  1  0
  1 23  1  0
  1 24  1  0
  2 25  1  0
  2 26  1  0
  4 27  1  0
  4 28  1  0
  4 29  1  0
  5 30  1  0
  5 31  1  0
  6 32  1  0
  6 33  1  0
  8 34  1  0
  8 35  1  0
  9 36  1  0
  9 37  1  0
 14 38  1  0
 14 39  1  0
 16 40  1  0
 17 41  1  0
 18 42  1  0
 21 43  1  0
M  CHG  1  11  -1
M  END
>  <UniqueID>  (1) 
1

>  <SMILES>  (1) 
CCN(C)CCOCCO[N-]C(=O)Cc1cccc(Cl)c1

>  <Energy>  (1) 
30.88975028932643

>  <Genealogy>  (1) 
CCN(C)CCOCCO[N-]C(=O)Cc1cccc(Cl)c1 (protonated)
CCN(C)CCOCCO[N-]C(=O)Cc1cccc(Cl)c1 (3D coordinates assigned)
CCN(C)CCOCCO[N-]C(=O)Cc1cccc(Cl)c1 (optimized conformer: 30.88975028932643 kcal/mol)

>  <smiles>  (1) 
CCN(C)CCOCCONC(=O)Cc1cccc(Cl)c1

>  <score_type>  (1) 
oracle

>  <origin>  (1) 
adg

>  <m_score__min__energy>  (1) 
-9.0199999999999996

>  <m_primary>  (1) 
energy

$$$$
1:0
     RDKit          3D

 47 50  0  0  0  0  0  0  0  0999 V2000
   64.5460   33.1240   49.4430 C   0  0  0  0  0  0  0  0  0  0  0  0
   63.3560   32.9760   48.5870 N   0  0  0  0  0  0  0  0  0  0  0  0
   63.5030   33.8400   47.4020 C   0  0  0  0  0  0  0  0  0  0  0  0
   62.1420   33.3190   49.3600 C   0  0  0  0  0  0  0  0  0  0  0  0
   60.9720   32.3540   49.0840 C   0  0  0  0  0  0  0  0  0  0  0  0
   61.2500   31.3880   48.0030 N   0  0  0  0  0  0  0  0  0  0  0  0
   60.1430   31.2840   47.0670 C   0  0  0  0  0  0  0  0  0  0  0  0
   59.5990   30.0250   46.7700 C   0  0  0  0  0  0  0  0  0  0  0  0
   58.5630   29.8780   45.8640 C   0  0  0  0  0  0  0  0  0  0  0  0
   57.9730   30.9450   45.2460 N   0  0  0  0  0  0  0  0  0  0  0  0
   56.7650   30.7390   44.4250 C   0  0  0  0  0  0  0  0  0  0  0  0
   58.5300   32.2020   45.4200 C   0  0  0  0  0  0  0  0  0  0  0  0
   58.0820   33.3110   44.6610 C   0  0  0  0  0  0  0  0  0  0  0  0
   58.6010   34.5850   44.8700 C   0  0  0  0  0  0  0  0  0  0  0  0
   59.5810   34.7910   45.8300 C   0  0  0  0  0  0  0  0  0  0  0  0
   60.0760   33.7210   46.5700 C   0  0  0  0  0  0  0  0  0  0  0  0
   59.5960   32.4050   46.3670 C   0  0  0  0  0  0  0  0  0  0  0  0
   58.2800   28.4370   45.7280 C   0  0  0  0  0  0  0  0  0  0  0  0
   57.4400   27.8010   44.8720 N   0  0  0  0  0  0  0  0  0  0  0  0
   57.3830   26.4360   44.8670 C   0  0  0  0  0  0  0  0  0  0  0  0
   58.2090   25.6840   45.7270 C   0  0  0  0  0  0  0  0  0  0  0  0
   59.1020   26.3410   46.5870 C   0  0  0  0  0  0  0  0  0  0  0  0
   59.1160   27.7330   46.5640 C   0  0  0  0  0  0  0  0  0  0  0  0
   59.9680   28.6830   47.2580 C   0  0  0  0  0  0  0  0  0  0  0  0
   60.8570   28.3930   48.1010 O   0  0  0  0  0  0  0  0  0  0  0  0
   64.2442   33.0865   50.5001 H   0  0  0  0  0  0  0  0  0  0  0  0
   65.2520   32.3067   49.2340 H   0  0  0  0  0  0  0  0  0  0  0  0
   65.0303   34.0893   49.2340 H   0  0  0  0  0  0  0  0  0  0  0  0
   63.6794   34.8769   47.7239 H   0  0  0  0  0  0  0  0  0  0  0  0
   64.3551   33.4933   46.7989 H   0  0  0  0  0  0  0  0  0  0  0  0
   62.5842   33.7946   46.7989 H   0  0  0  0  0  0  0  0  0  0  0  0
   62.3846   33.2812   50.4323 H   0  0  0  0  0  0  0  0  0  0  0  0
   61.8237   34.3258   49.0516 H   0  0  0  0  0  0  0  0  0  0  0  0
   60.7579   31.7933   50.0058 H   0  0  0  0  0  0  0  0  0  0  0  0
   60.1168   32.9655   48.7604 H   0  0  0  0  0  0  0  0  0  0  0  0
   61.5510   30.4690   48.3900 H   0  0  0  0  0  0  0  0  0  0  0  0
   62.0920   31.7170   47.4790 H   0  0  0  0  0  0  0  0  0  0  0  0
   55.8957   30.5908   45.0825 H   0  0  0  0  0  0  0  0  0  0  0  0
   56.5982   31.6217   43.7901 H   0  0  0  0  0  0  0  0  0  0  0  0
   56.9002   29.8509   43.7901 H   0  0  0  0  0  0  0  0  0  0  0  0
   57.3095   33.1623   43.8921 H   0  0  0  0  0  0  0  0  0  0  0  0
   58.2330   35.4317   44.2720 H   0  0  0  0  0  0  0  0  0  0  0  0
   59.9688   35.8050   46.0073 H   0  0  0  0  0  0  0  0  0  0  0  0
   60.8542   33.9014   47.3262 H   0  0  0  0  0  0  0  0  0  0  0  0
   56.6882   25.9205   44.1876 H   0  0  0  0  0  0  0  0  0  0  0  0
   58.1536   24.5854   45.7238 H   0  0  0  0  0  0  0  0  0  0  0  0
   59.7678   25.7760   47.2560 H   0  0  0  0  0  0  0  0  0  0  0  0
  1  2  1  0
  2  3  1  0
  2  4  1  0
  4  5  1  0
  5  6  1  0
  6  7  1  0
  7  8  2  0
  8  9  1  0
  9 10  2  0
 10 11  1  0
 10 12  1  0
 12 13  2  0
 13 14  1  0
 14 15  2  0
 15 16  1  0
 16 17  2  0
  9 18  1  0
 18 19  2  0
 19 20  1  0
 20 21  2  0
 21 22  1  0
 22 23  2  0
 23 24  1  0
 24 25  2  0
 17  7  1  0
 23 18  1  0
 24  8  1  0
 17 12  1  0
  1 26  1  0
  1 27  1  0
  1 28  1  0
  3 29  1  0
  3 30  1  0
  3 31  1  0
  4 32  1  0
  4 33  1  0
  5 34  1  0
  5 35  1  0
  6 36  1  0
  6 37  1  0
 11 38  1  0
 11 39  1  0
 11 40  1  0
 13 41  1  0
 14 42  1  0
 15 43  1  0
 16 44  1  0
 20 45  1  0
 21 46  1  0
 22 47  1  0
M  CHG  2   6   1  10   1
M  END
>  <UniqueID>  (2) 
2

>  <SMILES>  (2) 
CN(C)CC[NH2+]c1c2c([n+](C)c3ccccc13)-c1ncccc1C2=O

>  <Energy>  (2) 
104.61799959406672

>  <Genealogy>  (2) 
CN(C)CC[NH2+]c1c2c([n+](C)c3ccccc13)-c1ncccc1C2=O (protonated)
CN(C)CC[NH2+]c1c2c([n+](C)c3ccccc13)-c1ncccc1C2=O (3D coordinates assigned)
CN(C)CC[NH2+]c1c2c([n+](C)c3ccccc13)-c1ncccc1C2=O (nonaromatic ring conformer: 104.61799959406672 kcal/mol)

>  <smiles>  (2) 
CN(C)CCNc1c2c([n+](C)c3ccccc13)-c1ncccc1C2=O

>  <score_type>  (2) 
oracle

>  <origin>  (2) 
adg

>  <m_score__min__energy>  (2) 
-4.4800000000000004

>  <m_primary>  (2) 
energy

$$$$
2:0
     RDKit          3D

 46 48  0  0  0  0  0  0  0  0999 V2000
   60.7380   31.2660   47.2210 C   0  0  0  0  0  0  0  0  0  0  0  0
   61.6900   32.3450   47.4730 N   0  0  0  0  0  0  0  0  0  0  0  0
   62.9930   32.3410   47.1460 C   0  0  0  0  0  0  0  0  0  0  0  0
   63.5620   33.4910   47.6420 C   0  0  0  0  0  0  0  0  0  0  0  0
   62.6270   34.2140   48.2920 N   0  0  0  0  0  0  0  0  0  0  0  0
   61.4960   33.4870   48.1700 C   0  0  0  0  0  0  0  0  0  0  0  0
   60.1780   33.9210   48.7650 C   0  0  0  0  0  0  0  0  0  0  0  0
   59.2100   34.3990   47.7540 N   0  0  0  0  0  0  0  0  0  0  0  0
   58.1660   33.4030   47.4350 C   0  0  0  0  0  0  0  0  0  0  0  0
   57.3620   33.8440   46.2070 C   0  0  0  0  0  0  0  0  0  0  0  0
   58.2090   33.9590   44.9910 N   0  0  0  0  0  0  0  0  0  0  0  0
   58.0240   32.7940   44.0960 C   0  0  0  0  0  0  0  0  0  0  0  0
   58.1560   31.4660   44.8490 C   0  0  0  0  0  0  0  0  0  0  0  0
   56.9020   30.8150   44.8760 O   0  0  0  0  0  0  0  0  0  0  0  0
   56.8730   29.7540   43.9430 C   0  0  0  0  0  0  0  0  0  0  0  0
   57.4640   28.4820   44.5700 C   0  0  0  0  0  0  0  0  0  0  0  0
   58.1360   27.5160   43.6080 C   0  0  0  0  0  0  0  0  0  0  0  0
   58.9820   28.3900   44.5220 C   0  0  0  0  0  0  0  0  0  0  0  0
   59.6440   34.1950   45.2920 C   0  0  0  0  0  0  0  0  0  0  0  0
   59.8340   35.0320   46.5660 C   0  0  0  0  0  0  0  0  0  0  0  0
   60.3807   30.8610   48.1793 H   0  0  0  0  0  0  0  0  0  0  0  0
   59.8847   31.6565   46.6470 H   0  0  0  0  0  0  0  0  0  0  0  0
   61.2317   30.4680   46.6470 H   0  0  0  0  0  0  0  0  0  0  0  0
   63.5142   31.5549   46.5801 H   0  0  0  0  0  0  0  0  0  0  0  0
   64.6178   33.7772   47.5263 H   0  0  0  0  0  0  0  0  0  0  0  0
   59.7353   33.0649   49.2952 H   0  0  0  0  0  0  0  0  0  0  0  0
   60.3867   34.7635   49.4408 H   0  0  0  0  0  0  0  0  0  0  0  0
   58.6420   32.4333   47.2271 H   0  0  0  0  0  0  0  0  0  0  0  0
   57.4844   33.3140   48.2938 H   0  0  0  0  0  0  0  0  0  0  0  0
   56.5701   33.1043   46.0181 H   0  0  0  0  0  0  0  0  0  0  0  0
   56.9405   34.8376   46.4193 H   0  0  0  0  0  0  0  0  0  0  0  0
   57.0224   32.8484   43.6445 H   0  0  0  0  0  0  0  0  0  0  0  0
   58.8093   32.8282   43.3265 H   0  0  0  0  0  0  0  0  0  0  0  0
   58.8908   30.8261   44.3385 H   0  0  0  0  0  0  0  0  0  0  0  0
   58.4919   31.6592   45.8785 H   0  0  0  0  0  0  0  0  0  0  0  0
   55.8323   29.5618   43.6431 H   0  0  0  0  0  0  0  0  0  0  0  0
   57.4713   30.0325   43.0630 H   0  0  0  0  0  0  0  0  0  0  0  0
   56.6955   28.3859   45.3512 H   0  0  0  0  0  0  0  0  0  0  0  0
   58.0753   26.4321   43.7852 H   0  0  0  0  0  0  0  0  0  0  0  0
   58.0903   27.3413   42.5229 H   0  0  0  0  0  0  0  0  0  0  0  0
   59.5326   27.9382   45.3603 H   0  0  0  0  0  0  0  0  0  0  0  0
   59.8009   29.1090   44.3720 H   0  0  0  0  0  0  0  0  0  0  0  0
   60.1430   33.2240   45.4271 H   0  0  0  0  0  0  0  0  0  0  0  0
   60.0807   34.7527   44.4504 H   0  0  0  0  0  0  0  0  0  0  0  0
   60.9113   35.1511   46.7536 H   0  0  0  0  0  0  0  0  0  0  0  0
   59.3441   36.0038   46.4063 H   0  0  0  0  0  0  0  0  0  0  0  0
  1  2  1  0
  2  3  1  0
  3  4  2  0
  4  5  1  0
  5  6  2  0
  6  7  1  0
  7  8  1  0
  8  9  1  0
  9 10  1  0
 10 11  1  0
 11 12  1  0
 12 13  1  0
 13 14  1  0
 14 15  1  0
 15 16  1  0
 16 17  1  0
 17 18  1  0
 11 19  1  0
 19 20  1  0
  6  2  1  0
 20  8  1  0
 18 16  1  0
  1 21  1  0
  1 22  1  0
  1 23  1  0
  3 24  1  0
  4 25  1  0
  7 26  1  0
  7 27  1  0
  9 28  1  0
  9 29  1  0
 10 30  1  0
 10 31  1  0
 12 32  1  0
 12 33  1  0
 13 34  1  0
 13 35  1  0
 15 36  1  0
 15 37  1  0
 16 38  1  0
 17 39  1  0
 17 40  1  0
 18 41  1  0
 18 42  1  0
 19 43  1  0
 19 44  1  0
 20 45  1  0
 20 46  1  0
M  END
>  <UniqueID>  (3) 
3

>  <SMILES>  (3) 
Cn1ccnc1CN1CCN(CCOCC2CC2)CC1

>  <Energy>  (3) 
351.0774550578116

>  <Genealogy>  (3) 
Cn1ccnc1CN1CCN(CCOCC2CC2)CC1 (3D coordinates assigned)
Cn1ccnc1CN1CCN(CCOCC2CC2)CC1 (nonaromatic ring conformer: 351.0774550578116 kcal/mol)

>  <smiles>  (3) 
Cn1ccnc1CN1CCN(CCOCC2CC2)CC1

>  <score_type>  (3) 
oracle

>  <origin>  (3) 
adg

>  <m_score__min__energy>  (3) 
-6.8200000000000003

>  <m_primary>  (3) 
energy

$$$$
3:0
     RDKit          3D

 87 90  0  0  0  0  0  0  0  0999 V2000
   66.4560   26.1490   50.9460 C   0  0  0  0  0  0  0  0  0  0  0  0
   67.9670   25.9690   51.1350 C   0  0  0  0  0  0  0  0  0  0  0  0
   68.3900   26.0940   52.5520 N   0  0  1  0  0  0  0  0  0  0  0  0
   69.3540   25.0280   52.8870 C   0  0  0  0  0  0  0  0  0  0  0  0
   68.9390   27.4310   52.8970 C   0  0  0  0  0  0  0  0  0  0  0  0
   68.2590   28.5400   52.2030 C   0  0  0  0  0  0  0  0  0  0  0  0
   67.7070   29.4580   51.6520 C   0  0  0  0  0  0  0  0  0  0  0  0
   67.0230   30.5910   51.0140 C   0  0  0  0  0  0  0  0  0  0  0  0
   65.5180   30.6110   51.3820 C   0  0  1  0  0  0  0  0  0  0  0  0
   65.3530   30.3370   52.8930 C   0  0  0  0  0  0  0  0  0  0  0  0
   64.7730   31.9370   50.9970 C   0  0  1  0  0  0  0  0  0  0  0  0
   65.1910   32.5850   49.6860 C   0  0  0  0  0  0  0  0  0  0  0  0
   64.1100   33.6200   49.4170 C   0  0  0  0  0  0  0  0  0  0  0  0
   62.7630   33.0430   49.9640 C   0  0  2  0  0  0  0  0  0  0  0  0
   62.0490   34.1880   50.7530 C   0  0  0  0  0  0  0  0  0  0  0  0
   63.2210   31.9580   51.0100 C   0  0  1  0  0  0  0  0  0  0  0  0
   62.4990   30.6110   50.8830 C   0  0  0  0  0  0  0  0  0  0  0  0
   61.0060   30.8420   50.7120 C   0  0  0  0  0  0  0  0  0  0  0  0
   60.5860   31.6260   49.4030 C   0  0  2  0  0  0  0  0  0  0  0  0
   59.6950   30.7770   48.3580 C   0  0  1  0  0  0  0  0  0  0  0  0
   58.7830   29.7890   49.1600 C   0  0  0  0  0  0  0  0  0  0  0  0
   58.6840   31.7130   47.5840 C   0  0  0  0  0  0  0  0  0  0  0  0
   58.5160   31.4200   46.0850 C   0  0  0  0  0  0  0  0  0  0  0  0
   58.4770   29.9210   45.7650 C   0  0  2  0  0  0  0  0  0  0  0  0
   57.3050   29.3740   46.3190 O   0  0  0  0  0  0  0  0  0  0  0  0
   59.7930   29.1630   46.2190 C   0  0  0  0  0  0  0  0  0  0  0  0
   59.4670   27.7210   46.7120 C   0  0  0  0  0  0  0  0  0  0  0  0
   60.6510   28.9370   44.9380 C   0  0  0  0  0  0  0  0  0  0  0  0
   60.6100   29.9580   47.3580 C   0  0  1  0  0  0  0  0  0  0  0  0
   61.7450   30.8440   46.7640 C   0  0  0  0  0  0  0  0  0  0  0  0
   62.5950   31.5890   47.7890 C   0  0  0  0  0  0  0  0  0  0  0  0
   61.7960   32.4750   48.7930 C   0  0  2  0  0  0  0  0  0  0  0  0
   61.2580   33.7000   47.9820 C   0  0  0  0  0  0  0  0  0  0  0  0
   65.9678   26.2072   51.9300 H   0  0  0  0  0  0  0  0  0  0  0  0
   66.2644   27.0763   50.3862 H   0  0  0  0  0  0  0  0  0  0  0  0
   66.0519   25.2926   50.3862 H   0  0  0  0  0  0  0  0  0  0  0  0
   68.2499   24.9703   50.7709 H   0  0  0  0  0  0  0  0  0  0  0  0
   68.4683   26.7679   50.5688 H   0  0  0  0  0  0  0  0  0  0  0  0
   67.5470   25.9400   53.1560 H   0  0  0  0  0  0  0  0  0  0  0  0
   69.4356   24.9378   53.9803 H   0  0  0  0  0  0  0  0  0  0  0  0
   69.0063   24.0734   52.4652 H   0  0  0  0  0  0  0  0  0  0  0  0
   70.3386   25.2782   52.4652 H   0  0  0  0  0  0  0  0  0  0  0  0
   68.8341   27.5818   53.9816 H   0  0  0  0  0  0  0  0  0  0  0  0
   69.9909   27.4430   52.5754 H   0  0  0  0  0  0  0  0  0  0  0  0
   67.4883   31.5286   51.3522 H   0  0  0  0  0  0  0  0  0  0  0  0
   67.1152   30.4861   49.9229 H   0  0  0  0  0  0  0  0  0  0  0  0
   65.0465   29.8185   50.7824 H   0  0  0  0  0  0  0  0  0  0  0  0
   65.8372   31.1411   53.4665 H   0  0  0  0  0  0  0  0  0  0  0  0
   64.2827   30.3007   53.1443 H   0  0  0  0  0  0  0  0  0  0  0  0
   65.8215   29.3740   53.1443 H   0  0  0  0  0  0  0  0  0  0  0  0
   65.1292   32.5144   51.8629 H   0  0  0  0  0  0  0  0  0  0  0  0
   66.1751   33.0663   49.7856 H   0  0  0  0  0  0  0  0  0  0  0  0
   65.2870   31.8554   48.8684 H   0  0  0  0  0  0  0  0  0  0  0  0
   64.3532   34.5605   49.9331 H   0  0  0  0  0  0  0  0  0  0  0  0
   64.0334   33.8304   48.3400 H   0  0  0  0  0  0  0  0  0  0  0  0
   62.1585   34.0124   51.8334 H   0  0  0  0  0  0  0  0  0  0  0  0
   62.5051   35.1539   50.4904 H   0  0  0  0  0  0  0  0  0  0  0  0
   60.9809   34.2034   50.4904 H   0  0  0  0  0  0  0  0  0  0  0  0
   62.9004   32.2312   52.0261 H   0  0  0  0  0  0  0  0  0  0  0  0
   62.8875   30.0694   50.0079 H   0  0  0  0  0  0  0  0  0  0  0  0
   62.6733   30.0179   51.7929 H   0  0  0  0  0  0  0  0  0  0  0  0
   60.5106   29.8600   50.6931 H   0  0  0  0  0  0  0  0  0  0  0  0
   60.6987   31.4760   51.5568 H   0  0  0  0  0  0  0  0  0  0  0  0
   59.8561   32.3871   49.7159 H   0  0  0  0  0  0  0  0  0  0  0  0
   58.9298   29.9480   50.2385 H   0  0  0  0  0  0  0  0  0  0  0  0
   57.7293   29.9716   48.9025 H   0  0  0  0  0  0  0  0  0  0  0  0
   59.0492   28.7532   48.9025 H   0  0  0  0  0  0  0  0  0  0  0  0
   57.6977   31.6116   48.0604 H   0  0  0  0  0  0  0  0  0  0  0  0
   59.1080   32.7262   47.6450 H   0  0  0  0  0  0  0  0  0  0  0  0
   57.5751   31.8755   45.7427 H   0  0  0  0  0  0  0  0  0  0  0  0
   59.3904   31.8426   45.5685 H   0  0  0  0  0  0  0  0  0  0  0  0
   58.4491   29.7851   44.6738 H   0  0  0  0  0  0  0  0  0  0  0  0
   56.5930   30.0570   46.2460 H   0  0  0  0  0  0  0  0  0  0  0  0
   59.4626   27.7017   47.8118 H   0  0  0  0  0  0  0  0  0  0  0  0
   58.4781   27.4198   46.3361 H   0  0  0  0  0  0  0  0  0  0  0  0
   60.2302   27.0237   46.3361 H   0  0  0  0  0  0  0  0  0  0  0  0
   61.6773   28.6667   45.2271 H   0  0  0  0  0  0  0  0  0  0  0  0
   60.2119   28.1239   44.3413 H   0  0  0  0  0  0  0  0  0  0  0  0
   60.6694   29.8609   44.3413 H   0  0  0  0  0  0  0  0  0  0  0  0
   61.0827   29.1713   47.9643 H   0  0  0  0  0  0  0  0  0  0  0  0
   62.4115   30.1944   46.1776 H   0  0  0  0  0  0  0  0  0  0  0  0
   61.2441   31.6181   46.1641 H   0  0  0  0  0  0  0  0  0  0  0  0
   63.1613   30.8444   48.3677 H   0  0  0  0  0  0  0  0  0  0  0  0
   63.2338   32.2765   47.2152 H   0  0  0  0  0  0  0  0  0  0  0  0
   60.9157   34.4793   48.6788 H   0  0  0  0  0  0  0  0  0  0  0  0
   62.0623   34.1021   47.3485 H   0  0  0  0  0  0  0  0  0  0  0  0
   60.4177   33.3798   47.3485 H   0  0  0  0  0  0  0  0  0  0  0  0
  1  2  1  0
  2  3  1  0
  3  4  1  0
  3  5  1  0
  5  6  1  0
  6  7  3  0
  7  8  1  0
  8  9  1  0
  9 10  1  0
  9 11  1  0
 11 12  1  0
 12 13  1  0
 13 14  1  0
 14 15  1  1
 14 16  1  0
 16 17  1  0
 17 18  1  0
 18 19  1  0
 19 20  1  0
 20 21  1  1
 20 22  1  0
 22 23  1  0
 23 24  1  0
 24 25  1  0
 24 26  1  0
 26 27  1  0
 26 28  1  0
 26 29  1  0
 29 30  1  0
 30 31  1  0
 31 32  1  0
 32 33  1  6
 16 11  1  0
 32 19  1  0
 32 14  1  0
 29 20  1  0
  1 34  1  0
  1 35  1  0
  1 36  1  0
  2 37  1  0
  2 38  1  0
  3 39  1  1
  4 40  1  0
  4 41  1  0
  4 42  1  0
  5 43  1  0
  5 44  1  0
  8 45  1  0
  8 46  1  0
  9 47  1  6
 10 48  1  0
 10 49  1  0
 10 50  1  0
 11 51  1  1
 12 52  1  0
 12 53  1  0
 13 54  1  0
 13 55  1  0
 15 56  1  0
 15 57  1  0
 15 58  1  0
 16 59  1  1
 17 60  1  0
 17 61  1  0
 18 62  1  0
 18 63  1  0
 19 64  1  1
 21 65  1  0
 21 66  1  0
 21 67  1  0
 22 68  1  0
 22 69  1  0
 23 70  1  0
 23 71  1  0
 24 72  1  6
 25 73  1  0
 27 74  1  0
 27 75  1  0
 27 76  1  0
 28 77  1  0
 28 78  1  0
 28 79  1  0
 29 80  1  1
 30 81  1  0
 30 82  1  0
 31 83  1  0
 31 84  1  0
 33 85  1  0
 33 86  1  0
 33 87  1  0
M  CHG  1   3   1
M  END
>  <UniqueID>  (4) 
4

>  <SMILES>  (4) 
CC[N@@H+](C)CC#CC[C@@H](C)C1CCC2(C)C1CCC1C3(C)CCC(O)C(C)(C)C3CCC12C

>  <Energy>  (4) 
156.44841904884905

>  <Genealogy>  (4) 
CC[NH+](C)CC#CCC(C)C1CCC2(C)C1CCC1C3(C)CCC(O)C(C)(C)C3CCC12C (protonated)
CC[N@@H+](C)CC#CC[C@@H](C)C1CCC2(C)C1CCC1C3(C)CCC(O)C(C)(C)C3CCC12C (chirality)
CC[N@@H+](C)CC#CC[C@@H](C)C1CCC2(C)C1CCC1C3(C)CCC(O)C(C)(C)C3CCC12C (3D coordinates assigned)
CC[N@@H+](C)CC#CC[C@@H](C)C1CCC2(C)C1CCC1C3(C)CCC(O)C(C)(C)C3CCC12C (nonaromatic ring conformer: 156.44841904884905 kcal/mol)

>  <smiles>  (4) 
CCN(C)CC#CCC(C)C1CCC2(C)C1CCC1C3(C)CCC(O)C(C)(C)C3CCC12C

>  <score_type>  (4) 
oracle

>  <origin>  (4) 
adg

>  <m_score__min__energy>  (4) 
-8.2100000000000009

>  <m_primary>  (4) 
energy

$$$$
4:0
     RDKit          3D

 79 82  0  0  0  0  0  0  0  0999 V2000
   62.0390   33.8800   46.4630 C   0  0  0  0  0  0  0  0  0  0  0  0
   63.4390   33.7690   47.0710 C   0  0  0  0  0  0  0  0  0  0  0  0
   63.9000   32.3700   47.1650 N   0  0  0  0  0  0  0  0  0  0  0  0
   62.7790   31.4160   47.1870 C   0  0  0  0  0  0  0  0  0  0  0  0
   62.2410   31.2340   48.6160 C   0  0  0  0  0  0  0  0  0  0  0  0
   61.1320   30.1730   48.6770 C   0  0  0  0  0  0  0  0  0  0  0  0
   59.8020   30.7820   48.6060 N   0  0  0  0  0  0  0  0  0  0  0  0
   59.1110   30.8660   47.3510 C   0  0  0  0  0  0  0  0  0  0  0  0
   58.8180   29.6830   46.6510 C   0  0  0  0  0  0  0  0  0  0  0  0
   59.1030   28.4220   47.2180 C   0  0  0  0  0  0  0  0  0  0  0  0
   58.7450   27.2490   46.5590 C   0  0  0  0  0  0  0  0  0  0  0  0
   58.0900   27.3110   45.3370 C   0  0  0  0  0  0  0  0  0  0  0  0
   57.8320   28.5460   44.7400 C   0  0  0  0  0  0  0  0  0  0  0  0
   58.2270   29.7570   45.3640 C   0  0  0  0  0  0  0  0  0  0  0  0
   58.0490   30.9870   44.7580 N   0  0  0  0  0  0  0  0  0  0  0  0
   57.7410   31.0480   43.3080 C   0  0  0  0  0  0  0  0  0  0  0  0
   58.1970   32.1560   45.4870 C   0  0  0  0  0  0  0  0  0  0  0  0
   57.8100   33.4130   44.9560 C   0  0  0  0  0  0  0  0  0  0  0  0
   58.0290   34.5910   45.6580 C   0  0  0  0  0  0  0  0  0  0  0  0
   58.5580   34.5540   46.9390 C   0  0  0  0  0  0  0  0  0  0  0  0
   58.8510   33.3240   47.5550 C   0  0  0  0  0  0  0  0  0  0  0  0
   59.2070   33.2570   48.9120 O   0  0  0  0  0  0  0  0  0  0  0  0
   60.0410   34.1580   49.6400 C   0  0  0  0  0  0  0  0  0  0  0  0
   60.8980   33.3510   50.6400 C   0  0  0  0  0  0  0  0  0  0  0  0
   60.2370   33.0370   51.9560 N   0  0  0  0  0  0  0  0  0  0  0  0
   60.9560   33.7100   53.0740 C   0  0  0  0  0  0  0  0  0  0  0  0
   60.2260   31.5510   52.1960 C   0  0  0  0  0  0  0  0  0  0  0  0
   58.9150   30.8800   51.7400 C   0  0  0  0  0  0  0  0  0  0  0  0
   57.7220   31.3980   52.4820 N   0  0  0  0  0  0  0  0  0  0  0  0
   57.5160   30.5950   53.7180 C   0  0  0  0  0  0  0  0  0  0  0  0
   56.5210   31.2340   51.6270 C   0  0  0  0  0  0  0  0  0  0  0  0
   57.8810   32.8390   52.8540 C   0  0  0  0  0  0  0  0  0  0  0  0
   58.8430   33.5860   51.9060 C   0  0  0  0  0  0  0  0  0  0  0  0
   58.7270   32.1150   46.8100 C   0  0  0  0  0  0  0  0  0  0  0  0
   61.2928   33.9392   47.2691 H   0  0  0  0  0  0  0  0  0  0  0  0
   61.9799   34.7856   45.8415 H   0  0  0  0  0  0  0  0  0  0  0  0
   61.8379   32.9950   45.8415 H   0  0  0  0  0  0  0  0  0  0  0  0
   64.1437   34.3320   46.4414 H   0  0  0  0  0  0  0  0  0  0  0  0
   63.3961   34.1782   48.0911 H   0  0  0  0  0  0  0  0  0  0  0  0
   64.4910   32.2440   48.0200 H   0  0  0  0  0  0  0  0  0  0  0  0
   64.4930   32.1700   46.3240 H   0  0  0  0  0  0  0  0  0  0  0  0
   61.9712   31.7947   46.5436 H   0  0  0  0  0  0  0  0  0  0  0  0
   63.1383   30.4432   46.8203 H   0  0  0  0  0  0  0  0  0  0  0  0
   63.0681   30.9226   49.2709 H   0  0  0  0  0  0  0  0  0  0  0  0
   61.8152   32.1931   48.9458 H   0  0  0  0  0  0  0  0  0  0  0  0
   61.2534   29.4800   47.8314 H   0  0  0  0  0  0  0  0  0  0  0  0
   61.2167   29.6399   49.6355 H   0  0  0  0  0  0  0  0  0  0  0  0
   59.2820   31.0420   49.4740 H   0  0  0  0  0  0  0  0  0  0  0  0
   59.6133   28.3656   48.1908 H   0  0  0  0  0  0  0  0  0  0  0  0
   58.9814   26.2726   47.0071 H   0  0  0  0  0  0  0  0  0  0  0  0
   57.7731   26.3837   44.8373 H   0  0  0  0  0  0  0  0  0  0  0  0
   57.3141   28.5807   43.7702 H   0  0  0  0  0  0  0  0  0  0  0  0
   56.6706   31.2600   43.1691 H   0  0  0  0  0  0  0  0  0  0  0  0
   58.3365   31.8456   42.8399 H   0  0  0  0  0  0  0  0  0  0  0  0
   57.9875   30.0836   42.8399 H   0  0  0  0  0  0  0  0  0  0  0  0
   57.3269   33.4556   43.9687 H   0  0  0  0  0  0  0  0  0  0  0  0
   57.7816   35.5579   45.1956 H   0  0  0  0  0  0  0  0  0  0  0  0
   58.7500   35.4937   47.4776 H   0  0  0  0  0  0  0  0  0  0  0  0
   60.6982   34.6979   48.9425 H   0  0  0  0  0  0  0  0  0  0  0  0
   59.4189   34.8840   50.1840 H   0  0  0  0  0  0  0  0  0  0  0  0
   61.1696   32.3984   50.1616 H   0  0  0  0  0  0  0  0  0  0  0  0
   61.7612   33.9890   50.8808 H   0  0  0  0  0  0  0  0  0  0  0  0
   60.5648   33.3438   54.0347 H   0  0  0  0  0  0  0  0  0  0  0  0
   62.0308   33.4858   53.0064 H   0  0  0  0  0  0  0  0  0  0  0  0
   60.8033   34.7972   53.0064 H   0  0  0  0  0  0  0  0  0  0  0  0
   61.0625   31.0997   51.6423 H   0  0  0  0  0  0  0  0  0  0  0  0
   60.3194   31.3907   53.2802 H   0  0  0  0  0  0  0  0  0  0  0  0
   58.7743   31.0724   50.6661 H   0  0  0  0  0  0  0  0  0  0  0  0
   58.9986   29.8031   51.9483 H   0  0  0  0  0  0  0  0  0  0  0  0
   57.6793   31.2314   54.6002 H   0  0  0  0  0  0  0  0  0  0  0  0
   56.4883   30.2032   53.7337 H   0  0  0  0  0  0  0  0  0  0  0  0
   58.2282   29.7568   53.7337 H   0  0  0  0  0  0  0  0  0  0  0  0
   55.6318   31.1126   52.2631 H   0  0  0  0  0  0  0  0  0  0  0  0
   56.3987   32.1238   50.9919 H   0  0  0  0  0  0  0  0  0  0  0  0
   56.6418   30.3440   50.9919 H   0  0  0  0  0  0  0  0  0  0  0  0
   56.8954   33.3257   52.8132 H   0  0  0  0  0  0  0  0  0  0  0  0
   58.3077   32.8799   53.8671 H   0  0  0  0  0  0  0  0  0  0  0  0
   58.4649   33.4964   50.8769 H   0  0  0  0  0  0  0  0  0  0  0  0
   58.8848   34.6362   52.2306 H   0  0  0  0  0  0  0  0  0  0  0  0
  1  2  1  0
  2  3  1  0
  3  4  1  0
  4  5  1  0
  5  6  1  0
  6  7  1  0
  7  8  1  0
  8  9  2  0
  9 10  1  0
 10 11  2  0
 11 12  1  0
 12 13  2  0
 13 14  1  0
 14 15  2  0
 15 16  1  0
 15 17  1  0
 17 18  2  0
 18 19  1  0
 19 20  2  0
 20 21  1  0
 21 22  1  0
 22 23  1  0
 23 24  1  0
 24 25  1  0
 25 26  1  0
 25 27  1  0
 27 28  1  0
 28 29  1  0
 29 30  1  0
 29 31  1  0
 29 32  1  0
 32 33  1  0
 21 34  2  0
 34  8  1  0
 14  9  1  0
 34 17  1  0
 33 25  1  0
  1 35  1  0
  1 36  1  0
  1 37  1  0
  2 38  1  0
  2 39  1  0
  3 40  1  0
  3 41  1  0
  4 42  1  0
  4 43  1  0
  5 44  1  0
  5 45  1  0
  6 46  1  0
  6 47  1  0
  7 48  1  0
 10 49  1  0
 11 50  1  0
 12 51  1  0
 13 52  1  0
 16 53  1  0
 16 54  1  0
 16 55  1  0
 18 56  1  0
 19 57  1  0
 20 58  1  0
 23 59  1  0
 23 60  1  0
 24 61  1  0
 24 62  1  0
 26 63  1  0
 26 64  1  0
 26 65  1  0
 27 66  1  0
 27 67  1  0
 28 68  1  0
 28 69  1  0
 30 70  1  0
 30 71  1  0
 30 72  1  0
 31 73  1  0
 31 74  1  0
 31 75  1  0
 32 76  1  0
 32 77  1  0
 33 78  1  0
 33 79  1  0
M  CHG  4   3   1  15   1  25   1  29   1
M  END
>  <UniqueID>  (5) 
5

>  <SMILES>  (5) 
CC[NH2+]CCCNc1c2ccccc2[n+](C)c2cccc(OCC[N+]3(C)CC[N+](C)(C)CC3)c12

>  <Energy>  (5) 
132.46652429087277

>  <Genealogy>  (5) 
CC[NH2+]CCCNc1c2ccccc2[n+](C)c2cccc(OCC[N+]3(C)CC[N+](C)(C)CC3)c12 (protonated)
CC[NH2+]CCCNc1c2ccccc2[n+](C)c2cccc(OCC[N+]3(C)CC[N+](C)(C)CC3)c12 (3D coordinates assigned)
CC[NH2+]CCCNc1c2ccccc2[n+](C)c2cccc(OCC[N+]3(C)CC[N+](C)(C)CC3)c12 (nonaromatic ring conformer: 132.46652429087277 kcal/mol)

>  <smiles>  (5) 
CCNCCCNc1c2ccccc2[n+](C)c2cccc(OCC[N+]3(C)CC[N+](C)(C)CC3)c12

>  <score_type>  (5) 
oracle

>  <origin>  (5) 
adg

>  <m_score__min__energy>  (5) 
-2.9199999999999999

>  <m_primary>  (5) 
energy

$$$$
5:0
     RDKit          3D

 37 38  0  0  0  0  0  0  0  0999 V2000
   57.3673   28.2450   43.5203 H   0  0  0  0  0  0  0  0  0  0  0  0
   56.8350   28.9900   44.1300 C   0  0  0  0  0  0  0  0  0  0  0  0
   56.4740   28.6760   45.3350 N   0  0  0  0  0  0  0  0  0  0  0  0
   55.8940   27.4610   45.6230 O   0  0  0  0  0  0  0  0  0  0  0  0
   56.6520   26.4280   46.2330 C   0  0  0  0  0  0  0  0  0  0  0  0
   56.4701   26.4323   47.3178 H   0  0  0  0  0  0  0  0  0  0  0  0
   57.7215   26.5961   46.0382 H   0  0  0  0  0  0  0  0  0  0  0  0
   56.2390   25.0830   45.6560 C   0  0  0  0  0  0  0  0  0  0  0  0
   56.0239   24.3825   46.4764 H   0  0  0  0  0  0  0  0  0  0  0  0
   55.3386   25.2104   45.0371 H   0  0  0  0  0  0  0  0  0  0  0  0
   57.0558   24.6831   45.0371 H   0  0  0  0  0  0  0  0  0  0  0  0
   56.5470   30.3420   43.5430 C   0  0  0  0  0  0  0  0  0  0  0  0
   57.3982   30.6529   42.9195 H   0  0  0  0  0  0  0  0  0  0  0  0
   55.6316   30.2747   42.9367 H   0  0  0  0  0  0  0  0  0  0  0  0
   56.3430   31.3100   44.5720 O   0  0  0  0  0  0  0  0  0  0  0  0
   57.3570   32.0410   45.2120 C   0  0  0  0  0  0  0  0  0  0  0  0
   58.3330   31.4350   46.0260 C   0  0  0  0  0  0  0  0  0  0  0  0
   58.3186   30.3460   46.1805 H   0  0  0  0  0  0  0  0  0  0  0  0
   59.3210   32.2130   46.6390 C   0  0  0  0  0  0  0  0  0  0  0  0
   60.0881   31.7314   47.2632 H   0  0  0  0  0  0  0  0  0  0  0  0
   59.3380   33.6070   46.4610 C   0  0  0  0  0  0  0  0  0  0  0  0
   60.3220   34.4180   47.0470 O   0  0  0  0  0  0  0  0  0  0  0  0
   61.5410   33.9660   47.5740 C   0  0  0  0  0  0  0  0  0  0  0  0
   61.7140   33.9660   48.9650 C   0  0  0  0  0  0  0  0  0  0  0  0
   60.9051   34.3272   49.6171 H   0  0  0  0  0  0  0  0  0  0  0  0
   62.9100   33.5090   49.5280 C   0  0  0  0  0  0  0  0  0  0  0  0
   63.0437   33.5220   50.6198 H   0  0  0  0  0  0  0  0  0  0  0  0
   63.9350   33.0360   48.7050 C   0  0  0  0  0  0  0  0  0  0  0  0
   64.8766   32.6807   49.1490 H   0  0  0  0  0  0  0  0  0  0  0  0
   63.7650   33.0140   47.3190 C   0  0  0  0  0  0  0  0  0  0  0  0
   64.5710   32.6372   46.6721 H   0  0  0  0  0  0  0  0  0  0  0  0
   62.5700   33.4710   46.7530 C   0  0  0  0  0  0  0  0  0  0  0  0
   62.4347   33.4431   45.6617 H   0  0  0  0  0  0  0  0  0  0  0  0
   58.3780   34.2040   45.6390 C   0  0  0  0  0  0  0  0  0  0  0  0
   58.4001   35.2912   45.4734 H   0  0  0  0  0  0  0  0  0  0  0  0
   57.3900   33.4280   45.0260 C   0  0  0  0  0  0  0  0  0  0  0  0
   56.6320   33.9114   44.3921 H   0  0  0  0  0  0  0  0  0  0  0  0
  1  2  1  0
  2  3  2  0
  3  4  1  0
  4  5  1  0
  5  6  1  0
  5  7  1  0
  5  8  1  0
  8  9  1  0
  8 10  1  0
  8 11  1  0
  2 12  1  0
 12 13  1  0
 12 14  1  0
 12 15  1  0
 15 16  1  0
 16 17  2  0
 17 18  1  0
 17 19  1  0
 19 20  1  0
 19 21  2  0
 21 22  1  0
 22 23  1  0
 23 24  2  0
 24 25  1  0
 24 26  1  0
 26 27  1  0
 26 28  2  0
 28 29  1  0
 28 30  1  0
 30 31  1  0
 30 32  2  0
 32 33  1  0
 21 34  1  0
 34 35  1  0
 34 36  2  0
 36 37  1  0
 36 16  1  0
 32 23  1  0
M  END
>  <UniqueID>  (6) 
6

>  <SMILES>  (6) 
CCO/N=C\COc1ccc(Oc2ccccc2)cc1

>  <Energy>  (6) 
35.67791022743511

>  <Genealogy>  (6) 
CCO/N=C\COc1ccc(Oc2ccccc2)cc1 (cis-trans isomerization)
CCO/N=C\COc1ccc(Oc2ccccc2)cc1 (3D coordinates assigned)
CCO/N=C\COc1ccc(Oc2ccccc2)cc1 (optimized conformer: 35.67791022743511 kcal/mol)

>  <smiles>  (6) 
CCON=CCOc1ccc(Oc2ccccc2)cc1

>  <score_type>  (6) 
oracle

>  <origin>  (6) 
adg

>  <m_score__min__energy>  (6) 
-6.6399999999999997

>  <m_primary>  (6) 
energy

$$$$
6:0
     RDKit          3D

 67 69  0  0  0  0  0  0  0  0999 V2000
   59.7800   34.5690   47.4360 C   0  0  0  0  0  0  0  0  0  0  0  0
   60.4470   33.3050   46.8910 C   0  0  0  0  0  0  0  0  0  0  0  0
   61.5090   32.8290   47.8050 N   0  0  0  0  0  0  0  0  0  0  0  0
   62.5800   33.8380   47.9720 C   0  0  0  0  0  0  0  0  0  0  0  0
   63.7720   33.4860   47.0860 C   0  0  0  0  0  0  0  0  0  0  0  0
   62.0550   31.5230   47.3610 C   0  0  0  0  0  0  0  0  0  0  0  0
   61.0360   30.4100   47.5950 C   0  0  0  0  0  0  0  0  0  0  0  0
   60.9490   30.0910   48.9730 O   0  0  0  0  0  0  0  0  0  0  0  0
   59.6120   29.8230   49.3340 C   0  0  0  0  0  0  0  0  0  0  0  0
   58.7740   31.0920   49.2130 C   0  0  0  0  0  0  0  0  0  0  0  0
   59.5320   32.2390   49.7340 N   0  0  0  0  0  0  0  0  0  0  0  0
   59.5280   32.2680   51.2040 C   0  0  0  0  0  0  0  0  0  0  0  0
   60.3600   33.4500   51.7190 C   0  0  0  0  0  0  0  0  0  0  0  0
   61.8640   33.2990   51.4380 C   0  0  0  0  0  0  0  0  0  0  0  0
   62.1590   32.0620   50.7120 N   0  0  0  0  0  0  0  0  0  0  0  0
   63.2580   31.2220   51.0970 C   0  0  0  0  0  0  0  0  0  0  0  0
   64.5770   31.6740   50.9290 C   0  0  0  0  0  0  0  0  0  0  0  0
   64.8360   32.9840   50.4690 C   0  0  0  0  0  0  0  0  0  0  0  0
   66.1420   33.4530   50.3570 C   0  0  0  0  0  0  0  0  0  0  0  0
   67.2090   32.6360   50.7150 C   0  0  0  0  0  0  0  0  0  0  0  0
   66.9770   31.3340   51.1600 C   0  0  0  0  0  0  0  0  0  0  0  0
   65.6610   30.8120   51.2440 C   0  0  0  0  0  0  0  0  0  0  0  0
   65.4200   29.5060   51.6300 N   0  0  0  0  0  0  0  0  0  0  0  0
   66.5320   28.5300   51.6700 C   0  0  0  0  0  0  0  0  0  0  0  0
   64.1350   29.1040   51.9440 C   0  0  0  0  0  0  0  0  0  0  0  0
   63.8740   27.8600   52.5770 C   0  0  0  0  0  0  0  0  0  0  0  0
   62.5700   27.4390   52.8280 C   0  0  0  0  0  0  0  0  0  0  0  0
   61.4950   28.2460   52.4760 C   0  0  0  0  0  0  0  0  0  0  0  0
   61.7210   29.4910   51.8950 C   0  0  0  0  0  0  0  0  0  0  0  0
   63.0300   29.9470   51.6450 C   0  0  0  0  0  0  0  0  0  0  0  0
   59.7926   34.5452   48.5357 H   0  0  0  0  0  0  0  0  0  0  0  0
   60.3282   35.4546   47.0821 H   0  0  0  0  0  0  0  0  0  0  0  0
   58.7395   34.6162   47.0821 H   0  0  0  0  0  0  0  0  0  0  0  0
   59.6877   32.5168   46.7805 H   0  0  0  0  0  0  0  0  0  0  0  0
   60.9023   33.5410   45.9179 H   0  0  0  0  0  0  0  0  0  0  0  0
   62.1949   34.8284   47.6878 H   0  0  0  0  0  0  0  0  0  0  0  0
   62.9031   33.8508   49.0234 H   0  0  0  0  0  0  0  0  0  0  0  0
   64.6357   33.2309   47.7176 H   0  0  0  0  0  0  0  0  0  0  0  0
   63.5153   32.6253   46.4509 H   0  0  0  0  0  0  0  0  0  0  0  0
   64.0240   34.3481   46.4509 H   0  0  0  0  0  0  0  0  0  0  0  0
   62.2933   31.5760   46.2884 H   0  0  0  0  0  0  0  0  0  0  0  0
   62.9632   31.3015   47.9407 H   0  0  0  0  0  0  0  0  0  0  0  0
   60.0499   30.7426   47.2386 H   0  0  0  0  0  0  0  0  0  0  0  0
   61.3589   29.5140   47.0447 H   0  0  0  0  0  0  0  0  0  0  0  0
   59.2022   29.0509   48.6662 H   0  0  0  0  0  0  0  0  0  0  0  0
   59.5833   29.4695   50.3752 H   0  0  0  0  0  0  0  0  0  0  0  0
   58.5267   31.2672   48.1556 H   0  0  0  0  0  0  0  0  0  0  0  0
   57.8479   30.9734   49.7946 H   0  0  0  0  0  0  0  0  0  0  0  0
   60.5260   32.1490   49.4190 H   0  0  0  0  0  0  0  0  0  0  0  0
   58.4928   32.3706   51.5615 H   0  0  0  0  0  0  0  0  0  0  0  0
   59.9673   31.3323   51.5801 H   0  0  0  0  0  0  0  0  0  0  0  0
   60.0033   34.3683   51.2297 H   0  0  0  0  0  0  0  0  0  0  0  0
   60.2333   33.4882   52.8110 H   0  0  0  0  0  0  0  0  0  0  0  0
   62.2015   34.1550   50.8352 H   0  0  0  0  0  0  0  0  0  0  0  0
   62.3907   33.2635   52.4030 H   0  0  0  0  0  0  0  0  0  0  0  0
   61.7700   31.9200   49.7520 H   0  0  0  0  0  0  0  0  0  0  0  0
   63.9968   33.6408   50.1963 H   0  0  0  0  0  0  0  0  0  0  0  0
   66.3302   34.4709   49.9849 H   0  0  0  0  0  0  0  0  0  0  0  0
   68.2386   33.0172   50.6472 H   0  0  0  0  0  0  0  0  0  0  0  0
   67.8291   30.7019   51.4505 H   0  0  0  0  0  0  0  0  0  0  0  0
   66.7864   28.3067   52.7166 H   0  0  0  0  0  0  0  0  0  0  0  0
   66.2255   27.6040   51.1616 H   0  0  0  0  0  0  0  0  0  0  0  0
   67.4105   28.9540   51.1616 H   0  0  0  0  0  0  0  0  0  0  0  0
   64.7160   27.2177   52.8743 H   0  0  0  0  0  0  0  0  0  0  0  0
   62.3908   26.4648   53.3063 H   0  0  0  0  0  0  0  0  0  0  0  0
   60.4660   27.9015   52.6563 H   0  0  0  0  0  0  0  0  0  0  0  0
   60.8649   30.1277   51.6274 H   0  0  0  0  0  0  0  0  0  0  0  0
  1  2  1  0
  2  3  1  0
  3  4  1  0
  4  5  1  0
  3  6  1  0
  6  7  1  0
  7  8  1  0
  8  9  1  0
  9 10  1  0
 10 11  1  0
 11 12  1  0
 12 13  1  0
 13 14  1  0
 14 15  1  0
 15 16  1  0
 16 17  2  0
 17 18  1  0
 18 19  2  0
 19 20  1  0
 20 21  2  0
 21 22  1  0
 22 23  2  0
 23 24  1  0
 23 25  1  0
 25 26  2  0
 26 27  1  0
 27 28  2  0
 28 29  1  0
 29 30  2  0
 30 16  1  0
 22 17  1  0
 30 25  1  0
  1 31  1  0
  1 32  1  0
  1 33  1  0
  2 34  1  0
  2 35  1  0
  4 36  1  0
  4 37  1  0
  5 38  1  0
  5 39  1  0
  5 40  1  0
  6 41  1  0
  6 42  1  0
  7 43  1  0
  7 44  1  0
  9 45  1  0
  9 46  1  0
 10 47  1  0
 10 48  1  0
 11 49  1  0
 12 50  1  0
 12 51  1  0
 13 52  1  0
 13 53  1  0
 14 54  1  0
 14 55  1  0
 15 56  1  0
 18 57  1  0
 19 58  1  0
 20 59  1  0
 21 60  1  0
 24 61  1  0
 24 62  1  0
 24 63  1  0
 26 64  1  0
 27 65  1  0
 28 66  1  0
 29 67  1  0
M  CHG  1  23   1
M  END
>  <UniqueID>  (7) 
7

>  <SMILES>  (7) 
CCN(CC)CCOCCNCCCNc1c2ccccc2[n+](C)c2ccccc12

>  <Energy>  (7) 
83.9334071831104

>  <Genealogy>  (7) 
CCN(CC)CCOCCNCCCNc1c2ccccc2[n+](C)c2ccccc12 (3D coordinates assigned)
CCN(CC)CCOCCNCCCNc1c2ccccc2[n+](C)c2ccccc12 (optimized conformer: 83.9334071831104 kcal/mol)

>  <smiles>  (7) 
CCN(CC)CCOCCNCCCNc1c2ccccc2[n+](C)c2ccccc12

>  <score_type>  (7) 
oracle

>  <origin>  (7) 
adg

>  <m_score__min__energy>  (7) 
-5.9400000000000004

>  <m_primary>  (7) 
energy

$$$$
7:0
     RDKit          3D

 41 44  0  0  0  0  0  0  0  0999 V2000
   62.7660   31.8730   47.5150 C   0  0  0  0  0  0  0  0  0  0  0  0
   61.4200   32.3950   47.1300 C   0  0  0  0  0  0  0  0  0  0  0  0
   61.1820   33.6840   46.8150 N   0  0  0  0  0  0  0  0  0  0  0  0
   59.9100   33.7810   46.4580 N   0  0  0  0  0  0  0  0  0  0  0  0
   59.2920   35.0330   46.0340 C   0  0  0  0  0  0  0  0  0  0  0  0
   59.3180   32.5690   46.5370 C   0  0  0  0  0  0  0  0  0  0  0  0
   57.8990   32.2690   46.1470 C   0  0  0  0  0  0  0  0  0  0  0  0
   60.2680   31.6480   46.9460 C   0  0  0  0  0  0  0  0  0  0  0  0
   60.1080   30.1610   47.1150 C   0  0  0  0  0  0  0  0  0  0  0  0
   60.3090   29.4620   45.8290 N   0  0  0  0  0  0  0  0  0  0  0  0
   59.1610   29.6630   44.9130 C   0  0  0  0  0  0  0  0  0  0  0  0
   58.3730   28.3570   44.8470 C   0  0  2  0  0  0  0  0  0  0  0  0
   56.9630   28.4520   45.4980 C   0  0  0  0  0  0  0  0  0  0  0  0
   56.4390   27.0710   45.7810 C   0  0  0  0  0  0  0  0  0  0  0  0
   55.1580   26.7170   45.9880 N   0  0  0  0  0  0  0  0  0  0  0  0
   55.1470   25.4380   46.3550 N   0  0  0  0  0  0  0  0  0  0  0  0
   56.4190   24.9800   46.4030 C   0  0  0  0  0  0  0  0  0  0  0  0
   57.2530   26.0100   46.0460 C   0  0  0  0  0  0  0  0  0  0  0  0
   58.7040   26.1360   45.9960 C   0  0  0  0  0  0  0  0  0  0  0  0
   59.4680   25.2110   46.3820 O   0  0  0  0  0  0  0  0  0  0  0  0
   59.2190   27.3960   45.5380 N   0  0  0  0  0  0  0  0  0  0  0  0
   60.4350   28.0050   46.0330 C   0  0  0  0  0  0  0  0  0  0  0  0
   62.8472   31.8415   48.6115 H   0  0  0  0  0  0  0  0  0  0  0  0
   62.8961   30.8592   47.1084 H   0  0  0  0  0  0  0  0  0  0  0  0
   63.5456   32.5340   47.1084 H   0  0  0  0  0  0  0  0  0  0  0  0
   59.0033   35.6178   46.9198 H   0  0  0  0  0  0  0  0  0  0  0  0
   60.0088   35.6100   45.4313 H   0  0  0  0  0  0  0  0  0  0  0  0
   58.3980   34.8150   45.4313 H   0  0  0  0  0  0  0  0  0  0  0  0
   57.2891   32.1401   47.0533 H   0  0  0  0  0  0  0  0  0  0  0  0
   57.4985   33.1023   45.5510 H   0  0  0  0  0  0  0  0  0  0  0  0
   57.8701   31.3449   45.5510 H   0  0  0  0  0  0  0  0  0  0  0  0
   60.8498   29.7988   47.8421 H   0  0  0  0  0  0  0  0  0  0  0  0
   59.0885   29.9546   47.4728 H   0  0  0  0  0  0  0  0  0  0  0  0
   58.5163   30.4686   45.2942 H   0  0  0  0  0  0  0  0  0  0  0  0
   59.5174   29.9442   43.9111 H   0  0  0  0  0  0  0  0  0  0  0  0
   58.1602   28.0725   43.8059 H   0  0  0  0  0  0  0  0  0  0  0  0
   57.0327   29.0163   46.4397 H   0  0  0  0  0  0  0  0  0  0  0  0
   56.2780   28.9662   44.8079 H   0  0  0  0  0  0  0  0  0  0  0  0
   56.7300   23.9617   46.6794 H   0  0  0  0  0  0  0  0  0  0  0  0
   60.5584   27.7838   47.1034 H   0  0  0  0  0  0  0  0  0  0  0  0
   61.3133   27.6110   45.5007 H   0  0  0  0  0  0  0  0  0  0  0  0
  1  2  1  0
  2  3  2  0
  3  4  1  0
  4  5  1  0
  4  6  1  0
  6  7  1  0
  6  8  2  0
  8  9  1  0
  9 10  1  0
 10 11  1  0
 11 12  1  0
 12 13  1  0
 13 14  1  0
 14 15  1  0
 15 16  1  0
 16 17  2  0
 17 18  1  0
 18 19  1  0
 19 20  2  0
 19 21  1  0
 21 22  1  0
  8  2  1  0
 22 10  1  0
 21 12  1  0
 18 14  2  0
  1 23  1  0
  1 24  1  0
  1 25  1  0
  5 26  1  0
  5 27  1  0
  5 28  1  0
  7 29  1  0
  7 30  1  0
  7 31  1  0
  9 32  1  0
  9 33  1  0
 11 34  1  0
 11 35  1  0
 12 36  1  6
 13 37  1  0
 13 38  1  0
 17 39  1  0
 22 40  1  0
 22 41  1  0
M  CHG  1  15  -1
M  END
>  <UniqueID>  (8) 
8

>  <SMILES>  (8) 
Cc1nn(C)c(C)c1CN1C[C@@H]2Cc3[n-]ncc3C(=O)N2C1

>  <Energy>  (8) 
111.46441278216791

>  <Genealogy>  (8) 
Cc1nn(C)c(C)c1CN1CC2Cc3[n-]ncc3C(=O)N2C1 (protonated)
Cc1nn(C)c(C)c1CN1C[C@@H]2Cc3[n-]ncc3C(=O)N2C1 (chirality)
Cc1nn(C)c(C)c1CN1C[C@@H]2Cc3[n-]ncc3C(=O)N2C1 (3D coordinates assigned)
Cc1nn(C)c(C)c1CN1C[C@@H]2Cc3[n-]ncc3C(=O)N2C1 (nonaromatic ring conformer: 111.46441278216791 kcal/mol)

>  <smiles>  (8) 
Cc1nn(C)c(C)c1CN1CC2Cc3[nH]ncc3C(=O)N2C1

>  <score_type>  (8) 
oracle

>  <origin>  (8) 
adg

>  <m_score__min__energy>  (8) 
-10.199999999999999

>  <m_primary>  (8) 
energy

$$$$
8:0
     RDKit          3D

 36 37  0  0  0  0  0  0  0  0999 V2000
   60.8330   30.4560   46.7310 C   0  0  0  0  0  0  0  0  0  0  0  0
   60.0310   29.1860   47.0120 C   0  0  0  0  0  0  0  0  0  0  0  0
   59.7210   28.3850   45.7370 C   0  0  0  0  0  0  0  0  0  0  0  0
   59.4930   29.2900   44.5110 C   0  0  0  0  0  0  0  0  0  0  0  0
   58.2520   28.9520   43.7740 N   0  0  1  0  0  0  0  0  0  0  0  0
   57.7200   27.6690   44.2600 C   0  0  0  0  0  0  0  0  0  0  0  0
   57.0200   30.1900   43.9520 S   0  0  0  0  0  0  0  0  0  0  0  0
   55.9590   29.7200   44.9100 O   0  0  0  0  0  0  0  0  0  0  0  0
   56.3710   30.4770   42.6260 O   0  0  0  0  0  0  0  0  0  0  0  0
   57.7330   31.6950   44.5330 C   0  0  0  0  0  0  0  0  0  0  0  0
   58.1440   32.7030   43.6240 C   0  0  0  0  0  0  0  0  0  0  0  0
   58.6890   33.8710   44.0790 N   0  0  0  0  0  0  0  0  0  0  0  0
   58.8380   34.0520   45.4140 C   0  0  0  0  0  0  0  0  0  0  0  0
   59.3520   35.1340   46.0160 N   0  0  0  0  0  0  0  0  0  0  0  0
   59.3040   34.8640   47.3420 C   0  0  0  0  0  0  0  0  0  0  0  0
   58.7560   33.6030   47.5730 C   0  0  0  0  0  0  0  0  0  0  0  0
   58.4650   33.1050   46.3230 C   0  0  0  0  0  0  0  0  0  0  0  0
   57.9080   31.8990   45.9170 C   0  0  0  0  0  0  0  0  0  0  0  0
   61.1273   30.9220   47.6830 H   0  0  0  0  0  0  0  0  0  0  0  0
   61.7339   30.2006   46.1539 H   0  0  0  0  0  0  0  0  0  0  0  0
   60.2151   31.1597   46.1539 H   0  0  0  0  0  0  0  0  0  0  0  0
   60.6102   28.5483   47.6960 H   0  0  0  0  0  0  0  0  0  0  0  0
   59.0710   29.4907   47.4543 H   0  0  0  0  0  0  0  0  0  0  0  0
   60.5673   27.7143   45.5275 H   0  0  0  0  0  0  0  0  0  0  0  0
   58.7924   27.8224   45.9138 H   0  0  0  0  0  0  0  0  0  0  0  0
   59.4270   30.3339   44.8515 H   0  0  0  0  0  0  0  0  0  0  0  0
   60.3390   29.1391   43.8244 H   0  0  0  0  0  0  0  0  0  0  0  0
   58.4730   28.8390   42.7580 H   0  0  0  0  0  0  0  0  0  0  0  0
   57.7186   27.6657   45.3600 H   0  0  0  0  0  0  0  0  0  0  0  0
   56.6922   27.5351   43.8917 H   0  0  0  0  0  0  0  0  0  0  0  0
   58.3515   26.8471   43.8917 H   0  0  0  0  0  0  0  0  0  0  0  0
   58.0230   32.5433   42.5424 H   0  0  0  0  0  0  0  0  0  0  0  0
   59.7150   36.0000   45.5610 H   0  0  0  0  0  0  0  0  0  0  0  0
   59.6508   35.5477   48.1309 H   0  0  0  0  0  0  0  0  0  0  0  0
   58.5917   33.1123   48.5437 H   0  0  0  0  0  0  0  0  0  0  0  0
   57.6143   31.1315   46.6483 H   0  0  0  0  0  0  0  0  0  0  0  0
  1  2  1  0
  2  3  1  0
  3  4  1  0
  4  5  1  0
  5  6  1  0
  5  7  1  0
  7  8  2  0
  7  9  2  0
  7 10  1  0
 10 11  2  0
 11 12  1  0
 12 13  2  0
 13 14  1  0
 14 15  1  0
 15 16  2  0
 16 17  1  0
 17 18  2  0
 18 10  1  0
 17 13  1  0
  1 19  1  0
  1 20  1  0
  1 21  1  0
  2 22  1  0
  2 23  1  0
  3 24  1  0
  3 25  1  0
  4 26  1  0
  4 27  1  0
  5 28  1  6
  6 29  1  0
  6 30  1  0
  6 31  1  0
 11 32  1  0
 14 33  1  0
 15 34  1  0
 16 35  1  0
 18 36  1  0
M  CHG  1   5   1
M  END
>  <UniqueID>  (9) 
9

>  <SMILES>  (9) 
CCCC[N@@H+](C)S(=O)(=O)c1cnc2[nH]ccc2c1

>  <Energy>  (9) 
65.44033042845828

>  <Genealogy>  (9) 
CCCC[NH+](C)S(=O)(=O)c1cnc2[nH]ccc2c1 (protonated)
CCCC[N@@H+](C)S(=O)(=O)c1cnc2[nH]ccc2c1 (chirality)
CCCC[N@@H+](C)S(=O)(=O)c1cnc2[nH]ccc2c1 (3D coordinates assigned)
CCCC[N@@H+](C)S(=O)(=O)c1cnc2[nH]ccc2c1 (optimized conformer: 65.44033042845828 kcal/mol)

>  <smiles>  (9) 
CCCCN(C)S(=O)(=O)c1cnc2[nH]ccc2c1

>  <score_type>  (9) 
oracle

>  <origin>  (9) 
adg

>  <m_score__min__energy>  (9) 
-5.6500000000000004

>  <m_primary>  (9) 
energy

$$$$
9:0
     RDKit          3D

 38 40  0  0  0  0  0  0  0  0999 V2000
   59.8300   29.6780   44.8850 C   0  0  0  0  0  0  0  0  0  0  0  0
   58.3910   29.7500   44.6360 N   0  0  0  0  0  0  0  0  0  0  0  0
   57.5300   30.7710   44.8670 C   0  0  0  0  0  0  0  0  0  0  0  0
   57.8740   32.0810   45.4610 C   0  0  0  0  0  0  0  0  0  0  0  0
   57.9510   33.2410   44.6760 C   0  0  0  0  0  0  0  0  0  0  0  0
   58.3010   34.4560   45.2720 C   0  0  0  0  0  0  0  0  0  0  0  0
   58.5790   34.5090   46.6020 N   0  0  0  0  0  0  0  0  0  0  0  0
   58.5320   33.3980   47.3830 C   0  0  0  0  0  0  0  0  0  0  0  0
   58.1870   32.1640   46.8270 C   0  0  0  0  0  0  0  0  0  0  0  0
   56.2780   30.4590   44.4650 N   0  0  0  0  0  0  0  0  0  0  0  0
   56.3360   29.2230   43.9960 N   0  0  0  0  0  0  0  0  0  0  0  0
   57.6030   28.7960   44.1030 C   0  0  0  0  0  0  0  0  0  0  0  0
   58.1540   27.1680   43.5840 S   0  0  0  0  0  0  0  0  0  0  0  0
   57.3950   26.3290   45.0180 C   0  0  0  0  0  0  0  0  0  0  0  0
   57.1450   27.3160   46.1610 C   0  0  0  0  0  0  0  0  0  0  0  0
   58.3830   27.5270   46.9960 C   0  0  0  0  0  0  0  0  0  0  0  0
   58.5130   28.6720   47.8010 C   0  0  0  0  0  0  0  0  0  0  0  0
   59.6520   28.8510   48.5910 C   0  0  0  0  0  0  0  0  0  0  0  0
   60.6660   27.8890   48.5890 C   0  0  0  0  0  0  0  0  0  0  0  0
   60.5420   26.7460   47.7950 C   0  0  0  0  0  0  0  0  0  0  0  0
   59.4040   26.5620   47.0020 C   0  0  0  0  0  0  0  0  0  0  0  0
   60.0145   29.6688   45.9694 H   0  0  0  0  0  0  0  0  0  0  0  0
   60.2342   28.7585   44.4365 H   0  0  0  0  0  0  0  0  0  0  0  0
   60.3239   30.5526   44.4365 H   0  0  0  0  0  0  0  0  0  0  0  0
   57.7373   33.1948   43.5980 H   0  0  0  0  0  0  0  0  0  0  0  0
   58.3516   35.3712   44.6638 H   0  0  0  0  0  0  0  0  0  0  0  0
   58.7661   33.4706   48.4553 H   0  0  0  0  0  0  0  0  0  0  0  0
   58.1607   31.2620   47.4561 H   0  0  0  0  0  0  0  0  0  0  0  0
   55.5230   28.6930   43.6100 H   0  0  0  0  0  0  0  0  0  0  0  0
   56.4368   25.8853   44.7096 H   0  0  0  0  0  0  0  0  0  0  0  0
   58.0842   25.5486   45.3729 H   0  0  0  0  0  0  0  0  0  0  0  0
   56.8324   28.2814   45.7365 H   0  0  0  0  0  0  0  0  0  0  0  0
   56.3608   26.8984   46.8096 H   0  0  0  0  0  0  0  0  0  0  0  0
   57.7156   29.4297   47.8092 H   0  0  0  0  0  0  0  0  0  0  0  0
   59.7506   29.7510   49.2157 H   0  0  0  0  0  0  0  0  0  0  0  0
   61.5611   28.0317   49.2122 H   0  0  0  0  0  0  0  0  0  0  0  0
   61.3405   25.9894   47.7933 H   0  0  0  0  0  0  0  0  0  0  0  0
   59.3085   25.6589   46.3813 H   0  0  0  0  0  0  0  0  0  0  0  0
  1  2  1  0
  2  3  1  0
  3  4  1  0
  4  5  2  0
  5  6  1  0
  6  7  2  0
  7  8  1  0
  8  9  2  0
  3 10  2  0
 10 11  1  0
 11 12  2  0
 12 13  1  0
 13 14  1  0
 14 15  1  0
 15 16  1  0
 16 17  2  0
 17 18  1  0
 18 19  2  0
 19 20  1  0
 20 21  2  0
 12  2  1  0
 21 16  1  0
  9  4  1  0
  1 22  1  0
  1 23  1  0
  1 24  1  0
  5 25  1  0
  6 26  1  0
  8 27  1  0
  9 28  1  0
 11 29  1  0
 14 30  1  0
 14 31  1  0
 15 32  1  0
 15 33  1  0
 17 34  1  0
 18 35  1  0
 19 36  1  0
 20 37  1  0
 21 38  1  0
M  CHG  1  11   1
M  END
>  <UniqueID>  (10) 
10

>  <SMILES>  (10) 
Cn1c(-c2ccncc2)n[nH+]c1SCCc1ccccc1

>  <Energy>  (10) 
74.53872156826061

>  <Genealogy>  (10) 
Cn1c(-c2ccncc2)n[nH+]c1SCCc1ccccc1 (protonated)
Cn1c(-c2ccncc2)n[nH+]c1SCCc1ccccc1 (3D coordinates assigned)
Cn1c(-c2ccncc2)n[nH+]c1SCCc1ccccc1 (optimized conformer: 74.53872156826061 kcal/mol)

>  <smiles>  (10) 
Cn1c(SCCc2ccccc2)nnc1-c1ccncc1

>  <score_type>  (10) 
oracle

>  <origin>  (10) 
adg

>  <m_score__min__energy>  (10) 
-5.9500000000000002

>  <m_primary>  (10) 
energy

$$$$
10:0
     RDKit          3D

 60 62  0  0  0  0  0  0  0  0999 V2000
   60.2240   29.4900   47.3370 C   0  0  0  0  0  0  0  0  0  0  0  0
   60.0760   29.9310   45.8840 C   0  0  0  0  0  0  0  0  0  0  0  0
   58.6930   30.4000   45.6350 N   0  0  0  0  0  0  0  0  0  0  0  0
   57.7020   29.3610   45.9960 C   0  0  0  0  0  0  0  0  0  0  0  0
   57.4040   28.4720   44.7910 C   0  0  0  0  0  0  0  0  0  0  0  0
   58.5140   30.8690   44.2390 C   0  0  0  0  0  0  0  0  0  0  0  0
   57.3970   31.9120   44.1750 C   0  0  0  0  0  0  0  0  0  0  0  0
   57.0190   32.3040   45.4800 O   0  0  0  0  0  0  0  0  0  0  0  0
   57.2230   33.6860   45.6760 C   0  0  0  0  0  0  0  0  0  0  0  0
   58.3830   33.9060   46.6530 C   0  0  0  0  0  0  0  0  0  0  0  0
   59.1150   32.6640   46.9910 N   0  0  0  0  0  0  0  0  0  0  0  0
   59.9730   32.8120   48.1630 C   0  0  0  0  0  0  0  0  0  0  0  0
   61.3580   33.1030   48.0030 C   0  0  0  0  0  0  0  0  0  0  0  0
   61.9560   33.2060   46.7210 C   0  0  0  0  0  0  0  0  0  0  0  0
   63.3240   33.4260   46.5770 C   0  0  0  0  0  0  0  0  0  0  0  0
   64.1310   33.5420   47.6980 C   0  0  0  0  0  0  0  0  0  0  0  0
   63.5710   33.4740   48.9700 C   0  0  0  0  0  0  0  0  0  0  0  0
   62.1750   33.2960   49.1510 C   0  0  0  0  0  0  0  0  0  0  0  0
   61.6170   33.2850   50.4120 N   0  0  0  0  0  0  0  0  0  0  0  0
   62.3890   33.8040   51.5640 C   0  0  0  0  0  0  0  0  0  0  0  0
   60.3330   32.8160   50.5980 C   0  0  0  0  0  0  0  0  0  0  0  0
   59.8560   32.4930   51.8960 C   0  0  0  0  0  0  0  0  0  0  0  0
   58.5430   32.0670   52.1050 C   0  0  0  0  0  0  0  0  0  0  0  0
   58.0600   31.7660   53.4950 C   0  0  0  0  0  0  0  0  0  0  0  0
   57.6740   31.9770   51.0230 C   0  0  0  0  0  0  0  0  0  0  0  0
   58.1240   32.2400   49.7340 C   0  0  0  0  0  0  0  0  0  0  0  0
   59.4660   32.6260   49.4840 C   0  0  0  0  0  0  0  0  0  0  0  0
   59.9453   30.3204   48.0024 H   0  0  0  0  0  0  0  0  0  0  0  0
   59.5652   28.6301   47.5281 H   0  0  0  0  0  0  0  0  0  0  0  0
   61.2682   29.2016   47.5281 H   0  0  0  0  0  0  0  0  0  0  0  0
   60.7809   30.7500   45.6783 H   0  0  0  0  0  0  0  0  0  0  0  0
   60.2922   29.0780   45.2240 H   0  0  0  0  0  0  0  0  0  0  0  0
   58.1048   28.7431   46.8121 H   0  0  0  0  0  0  0  0  0  0  0  0
   56.7713   29.8507   46.3185 H   0  0  0  0  0  0  0  0  0  0  0  0
   57.0723   27.4824   45.1385 H   0  0  0  0  0  0  0  0  0  0  0  0
   56.6109   28.9320   44.1832 H   0  0  0  0  0  0  0  0  0  0  0  0
   58.3141   28.3611   44.1832 H   0  0  0  0  0  0  0  0  0  0  0  0
   59.4526   31.3186   43.8829 H   0  0  0  0  0  0  0  0  0  0  0  0
   58.2446   30.0129   43.6029 H   0  0  0  0  0  0  0  0  0  0  0  0
   57.7534   32.7924   43.6201 H   0  0  0  0  0  0  0  0  0  0  0  0
   56.5260   31.4740   43.6655 H   0  0  0  0  0  0  0  0  0  0  0  0
   57.4620   34.1601   44.7126 H   0  0  0  0  0  0  0  0  0  0  0  0
   56.3080   34.1328   46.0920 H   0  0  0  0  0  0  0  0  0  0  0  0
   59.0911   34.6146   46.1987 H   0  0  0  0  0  0  0  0  0  0  0  0
   57.9496   34.2905   47.5881 H   0  0  0  0  0  0  0  0  0  0  0  0
   59.6150   32.2970   46.1560 H   0  0  0  0  0  0  0  0  0  0  0  0
   58.4220   31.9040   47.1730 H   0  0  0  0  0  0  0  0  0  0  0  0
   61.3275   33.1103   45.8233 H   0  0  0  0  0  0  0  0  0  0  0  0
   63.7644   33.5078   45.5723 H   0  0  0  0  0  0  0  0  0  0  0  0
   65.2151   33.6879   47.5820 H   0  0  0  0  0  0  0  0  0  0  0  0
   64.2229   33.5599   49.8519 H   0  0  0  0  0  0  0  0  0  0  0  0
   61.9106   33.4823   52.5008 H   0  0  0  0  0  0  0  0  0  0  0  0
   63.4161   33.4122   51.5235 H   0  0  0  0  0  0  0  0  0  0  0  0
   62.4139   34.9030   51.5235 H   0  0  0  0  0  0  0  0  0  0  0  0
   60.5363   32.5804   52.7560 H   0  0  0  0  0  0  0  0  0  0  0  0
   58.7566   32.2001   54.2273 H   0  0  0  0  0  0  0  0  0  0  0  0
   57.0598   32.2010   53.6378 H   0  0  0  0  0  0  0  0  0  0  0  0
   58.0098   30.6765   53.6378 H   0  0  0  0  0  0  0  0  0  0  0  0
   56.6234   31.6958   51.1881 H   0  0  0  0  0  0  0  0  0  0  0  0
   57.4246   32.1468   48.8901 H   0  0  0  0  0  0  0  0  0  0  0  0
  1  2  1  0
  2  3  1  0
  3  4  1  0
  4  5  1  0
  3  6  1  0
  6  7  1  0
  7  8  1  0
  8  9  1  0
  9 10  1  0
 10 11  1  0
 11 12  1  0
 12 13  2  0
 13 14  1  0
 14 15  2  0
 15 16  1  0
 16 17  2  0
 17 18  1  0
 18 19  2  0
 19 20  1  0
 19 21  1  0
 21 22  2  0
 22 23  1  0
 23 24  1  0
 23 25  2  0
 25 26  1  0
 26 27  2  0
 27 12  1  0
 18 13  1  0
 27 21  1  0
  1 28  1  0
  1 29  1  0
  1 30  1  0
  2 31  1  0
  2 32  1  0
  4 33  1  0
  4 34  1  0
  5 35  1  0
  5 36  1  0
  5 37  1  0
  6 38  1  0
  6 39  1  0
  7 40  1  0
  7 41  1  0
  9 42  1  0
  9 43  1  0
 10 44  1  0
 10 45  1  0
 11 46  1  0
 11 47  1  0
 14 48  1  0
 15 49  1  0
 16 50  1  0
 17 51  1  0
 20 52  1  0
 20 53  1  0
 20 54  1  0
 22 55  1  0
 24 56  1  0
 24 57  1  0
 24 58  1  0
 25 59  1  0
 26 60  1  0
M  CHG  2  11   1  19   1
M  END
>  <UniqueID>  (11) 
11

>  <SMILES>  (11) 
CCN(CC)CCOCC[NH2+]c1c2ccccc2[n+](C)c2cc(C)ccc12

>  <Energy>  (11) 
84.92249241714511

>  <Genealogy>  (11) 
CCN(CC)CCOCC[NH2+]c1c2ccccc2[n+](C)c2cc(C)ccc12 (protonated)
CCN(CC)CCOCC[NH2+]c1c2ccccc2[n+](C)c2cc(C)ccc12 (3D coordinates assigned)
CCN(CC)CCOCC[NH2+]c1c2ccccc2[n+](C)c2cc(C)ccc12 (optimized conformer: 84.92249241714511 kcal/mol)

>  <smiles>  (11) 
CCN(CC)CCOCCNc1c2ccccc2[n+](C)c2cc(C)ccc12

>  <score_type>  (11) 
oracle

>  <origin>  (11) 
adg

>  <m_score__min__energy>  (11) 
-4.4699999999999998

>  <m_primary>  (11) 
energy

$$$$
11:0
     RDKit          3D

 80 83  0  0  0  0  0  0  0  0999 V2000
   61.2017   35.5426   49.7980 H   0  0  0  0  0  0  0  0  0  0  0  0
   61.2940   34.5910   49.2540 C   0  0  0  0  0  0  0  0  0  0  0  0
   62.1350   33.6520   49.7260 C   0  0  0  0  0  0  0  0  0  0  0  0
   62.7990   33.9060   51.0620 C   0  0  0  0  0  0  0  0  0  0  0  0
   62.9926   34.9844   51.1596 H   0  0  0  0  0  0  0  0  0  0  0  0
   62.1185   33.5428   51.8462 H   0  0  0  0  0  0  0  0  0  0  0  0
   64.0950   33.1710   51.2110 C   0  0  0  0  0  0  0  0  0  0  0  0
   64.9960   33.6740   52.0000 N   0  0  0  0  0  0  0  0  0  0  0  0
   66.0880   34.3770   51.5330 O   0  0  0  0  0  0  0  0  0  0  0  0
   66.7020   35.3580   52.3550 C   0  0  0  0  0  0  0  0  0  0  0  0
   66.5420   35.1023   53.4128 H   0  0  0  0  0  0  0  0  0  0  0  0
   67.7812   35.3894   52.1446 H   0  0  0  0  0  0  0  0  0  0  0  0
   66.2586   36.3424   52.1446 H   0  0  0  0  0  0  0  0  0  0  0  0
   64.2410   31.7890   50.6280 C   0  0  0  0  0  0  0  0  0  0  0  0
   65.3067   31.5174   50.6069 H   0  0  0  0  0  0  0  0  0  0  0  0
   63.6774   31.0813   51.2538 H   0  0  0  0  0  0  0  0  0  0  0  0
   63.6810   31.7370   49.2020 C   0  0  0  0  0  0  0  0  0  0  0  0
   64.3279   32.3473   48.5546 H   0  0  0  0  0  0  0  0  0  0  0  0
   63.6625   30.6774   48.9074 H   0  0  0  0  0  0  0  0  0  0  0  0
   62.2170   32.2660   49.0710 C   0  0  1  0  0  0  0  0  0  0  0  0
   61.2470   31.3200   49.8170 C   0  0  0  0  0  0  0  0  0  0  0  0
   61.3752   31.4450   50.9023 H   0  0  0  0  0  0  0  0  0  0  0  0
   60.2109   31.5641   49.5396 H   0  0  0  0  0  0  0  0  0  0  0  0
   61.4651   30.2781   49.5396 H   0  0  0  0  0  0  0  0  0  0  0  0
   61.8500   32.3790   47.5380 C   0  0  2  0  0  0  0  0  0  0  0  0
   62.7575   32.8371   47.1178 H   0  0  0  0  0  0  0  0  0  0  0  0
   60.6970   33.3230   47.2590 C   0  0  0  0  0  0  0  0  0  0  0  0
   60.4940   34.3890   48.0360 C   0  0  0  0  0  0  0  0  0  0  0  0
   59.7216   35.1231   47.7632 H   0  0  0  0  0  0  0  0  0  0  0  0
   59.8950   33.0190   46.0250 C   0  0  2  0  0  0  0  0  0  0  0  0
   60.7022   33.0981   45.2819 H   0  0  0  0  0  0  0  0  0  0  0  0
   58.8230   33.9660   45.4940 C   0  0  0  0  0  0  0  0  0  0  0  0
   59.2739   34.7856   44.9153 H   0  0  0  0  0  0  0  0  0  0  0  0
   58.2435   34.4495   46.2942 H   0  0  0  0  0  0  0  0  0  0  0  0
   57.9630   33.0640   44.5920 C   0  0  0  0  0  0  0  0  0  0  0  0
   58.0895   33.3502   43.5374 H   0  0  0  0  0  0  0  0  0  0  0  0
   56.8949   33.1602   44.8367 H   0  0  0  0  0  0  0  0  0  0  0  0
   58.4600   31.6130   44.8160 C   0  0  2  0  0  0  0  0  0  0  0  0
   59.1479   31.2732   44.0277 H   0  0  0  0  0  0  0  0  0  0  0  0
   57.3760   30.5540   44.6700 C   0  0  0  0  0  0  0  0  0  0  0  0
   56.1980   30.8750   44.7250 O   0  0  0  0  0  0  0  0  0  0  0  0
   57.7240   29.0860   44.6100 C   0  0  0  0  0  0  0  0  0  0  0  0
   58.8069   28.9642   44.7600 H   0  0  0  0  0  0  0  0  0  0  0  0
   57.4308   28.6906   43.6263 H   0  0  0  0  0  0  0  0  0  0  0  0
   56.9910   28.3300   45.6740 C   0  0  0  0  0  0  0  0  0  0  0  0
   56.7022   28.8367   46.6066 H   0  0  0  0  0  0  0  0  0  0  0  0
   56.6950   27.0770   45.4990 N   0  0  0  0  0  0  0  0  0  0  0  0
   55.8990   26.3350   46.3580 O   0  0  0  0  0  0  0  0  0  0  0  0
   56.2670   25.0510   46.8680 C   0  0  0  0  0  0  0  0  0  0  0  0
   55.6587   24.8254   47.7563 H   0  0  0  0  0  0  0  0  0  0  0  0
   57.3339   25.0646   47.1354 H   0  0  0  0  0  0  0  0  0  0  0  0
   56.0320   23.9670   45.8040 C   0  0  0  0  0  0  0  0  0  0  0  0
   55.1161   23.4160   46.0639 H   0  0  0  0  0  0  0  0  0  0  0  0
   56.9204   23.3183   45.7996 H   0  0  0  0  0  0  0  0  0  0  0  0
   55.8810   24.5080   44.4400 N   0  0  0  0  0  0  0  0  0  0  0  0
   55.9540   25.5510   44.4760 H   0  0  0  0  0  0  0  0  0  0  0  0
   56.8810   24.0090   43.4840 C   0  0  0  0  0  0  0  0  0  0  0  0
   57.8674   24.0080   43.9708 H   0  0  0  0  0  0  0  0  0  0  0  0
   56.8700   24.6712   42.6057 H   0  0  0  0  0  0  0  0  0  0  0  0
   56.5650   22.5930   43.0090 C   0  0  0  0  0  0  0  0  0  0  0  0
   56.4188   21.9380   43.8805 H   0  0  0  0  0  0  0  0  0  0  0  0
   55.6477   22.6060   42.4021 H   0  0  0  0  0  0  0  0  0  0  0  0
   57.4008   22.2147   42.4021 H   0  0  0  0  0  0  0  0  0  0  0  0
   59.1980   31.6670   46.1810 C   0  0  2  0  0  0  0  0  0  0  0  0
   58.1530   31.7070   47.3530 C   0  0  0  0  0  0  0  0  0  0  0  0
   58.6823   31.6867   48.3171 H   0  0  0  0  0  0  0  0  0  0  0  0
   57.5568   32.6286   47.2814 H   0  0  0  0  0  0  0  0  0  0  0  0
   57.4881   30.8337   47.2814 H   0  0  0  0  0  0  0  0  0  0  0  0
   60.2740   30.5320   46.3970 C   0  0  2  0  0  0  0  0  0  0  0  0
   60.3440   30.0459   45.4127 H   0  0  0  0  0  0  0  0  0  0  0  0
   59.8490   29.6110   47.4090 O   0  0  0  0  0  0  0  0  0  0  0  0
   59.8410   28.2160   47.2630 C   0  0  0  0  0  0  0  0  0  0  0  0
   59.3910   27.4680   48.1730 O   0  0  0  0  0  0  0  0  0  0  0  0
   60.3830   27.6070   46.0140 C   0  0  0  0  0  0  0  0  0  0  0  0
   61.0936   26.8085   46.2738 H   0  0  0  0  0  0  0  0  0  0  0  0
   59.5566   27.1846   45.4235 H   0  0  0  0  0  0  0  0  0  0  0  0
   60.8985   28.3788   45.4235 H   0  0  0  0  0  0  0  0  0  0  0  0
   61.7170   31.0270   46.7490 C   0  0  0  0  0  0  0  0  0  0  0  0
   62.2651   31.1431   45.8024 H   0  0  0  0  0  0  0  0  0  0  0  0
   62.1148   30.2637   47.4339 H   0  0  0  0  0  0  0  0  0  0  0  0
  1  2  1  0
  2  3  2  0
  3  4  1  0
  4  5  1  0
  4  6  1  0
  4  7  1  0
  7  8  2  3
  8  9  1  0
  9 10  1  0
 10 11  1  0
 10 12  1  0
 10 13  1  0
  7 14  1  0
 14 15  1  0
 14 16  1  0
 14 17  1  0
 17 18  1  0
 17 19  1  0
 17 20  1  0
 20 21  1  1
 21 22  1  0
 21 23  1  0
 21 24  1  0
 20 25  1  0
 25 26  1  6
 25 27  1  0
 27 28  2  0
 28 29  1  0
 27 30  1  0
 30 31  1  6
 30 32  1  0
 32 33  1  0
 32 34  1  0
 32 35  1  0
 35 36  1  0
 35 37  1  0
 35 38  1  0
 38 39  1  6
 38 40  1  0
 40 41  2  0
 40 42  1  0
 42 43  1  0
 42 44  1  0
 42 45  1  0
 45 46  1  0
 45 47  2  0
 47 48  1  0
 48 49  1  0
 49 50  1  0
 49 51  1  0
 49 52  1  0
 52 53  1  0
 52 54  1  0
 52 55  1  0
 55 56  1  0
 55 57  1  0
 57 58  1  0
 57 59  1  0
 57 60  1  0
 60 61  1  0
 60 62  1  0
 60 63  1  0
 38 64  1  0
 64 65  1  1
 65 66  1  0
 65 67  1  0
 65 68  1  0
 64 69  1  0
 69 70  1  6
 69 71  1  0
 71 72  1  0
 72 73  2  0
 72 74  1  0
 74 75  1  0
 74 76  1  0
 74 77  1  0
 69 78  1  0
 78 79  1  0
 78 80  1  0
 28  2  1  0
 64 30  1  0
 20  3  1  0
 78 25  1  0
M  END
>  <UniqueID>  (12) 
12

>  <SMILES>  (12) 
CCNCCO/N=C/CC(=O)[C@H]1CC[C@H]2C3=CC=C4CC(=NOC)CCC4(C)C3CC(OC(C)=O)C12C

>  <Energy>  (12) 
111.02590286427782

>  <Genealogy>  (12) 
CCNCCON=CCC(=O)[C@H]1CC[C@H]2C3=CC=C4CC(=NOC)CCC4(C)C3CC(OC(C)=O)C12C (chirality)
CCNCCO/N=C/CC(=O)[C@H]1CC[C@H]2C3=CC=C4CC(=NOC)CCC4(C)C3CC(OC(C)=O)C12C (cis-trans isomerization)
CCNCCO/N=C/CC(=O)[C@H]1CC[C@H]2C3=CC=C4CC(=NOC)CCC4(C)C3CC(OC(C)=O)C12C (3D coordinates assigned)
CCNCCO/N=C/CC(=O)[C@H]1CC[C@H]2C3=CC=C4CC(=NOC)CCC4(C)C3CC(OC(C)=O)C12C (nonaromatic ring conformer: 111.02590286427782 kcal/mol)

>  <smiles>  (12) 
CCNCCON=CCC(=O)C1CCC2C3=CC=C4CC(=NOC)CCC4(C)C3CC(OC(C)=O)C12C

>  <score_type>  (12) 
oracle

>  <origin>  (12) 
adg

>  <m_score__min__energy>  (12) 
-10.43

>  <m_primary>  (12) 
energy

$$$$
12:0
     RDKit          3D

 36 37  0  0  0  0  0  0  0  0999 V2000
   59.9330   33.8270   49.8840 C   0  0  0  0  0  0  0  0  0  0  0  0
   61.1150   34.1390   48.9550 C   0  0  0  0  0  0  0  0  0  0  0  0
   60.9940   33.5850   47.5740 N   0  0  0  0  0  0  0  0  0  0  0  0
   62.1820   33.8520   46.7230 C   0  0  0  0  0  0  0  0  0  0  0  0
   63.4110   33.0320   47.1250 C   0  0  0  0  0  0  0  0  0  0  0  0
   59.7690   34.0400   46.8690 C   0  0  0  0  0  0  0  0  0  0  0  0
   58.9570   32.8960   46.3300 C   0  0  0  0  0  0  0  0  0  0  0  0
   57.6770   32.9710   45.8320 C   0  0  0  0  0  0  0  0  0  0  0  0
   57.3540   31.7740   45.4110 O   0  0  0  0  0  0  0  0  0  0  0  0
   58.3870   30.9880   45.6240 C   0  0  0  0  0  0  0  0  0  0  0  0
   58.3940   29.5450   45.2810 C   0  0  0  0  0  0  0  0  0  0  0  0
   59.1190   28.6690   46.1090 C   0  0  0  0  0  0  0  0  0  0  0  0
   59.1740   27.3020   45.8290 C   0  0  0  0  0  0  0  0  0  0  0  0
   58.5030   26.7880   44.7210 C   0  0  0  0  0  0  0  0  0  0  0  0
   57.7680   27.6380   43.8950 C   0  0  0  0  0  0  0  0  0  0  0  0
   57.7010   29.0120   44.1620 C   0  0  0  0  0  0  0  0  0  0  0  0
   56.5940   30.0640   42.9970 Br  0  0  0  0  0  0  0  0  0  0  0  0
   59.4190   31.6410   46.2000 N   0  0  0  0  0  0  0  0  0  0  0  0
   60.2574   33.9126   50.9316 H   0  0  0  0  0  0  0  0  0  0  0  0
   59.1182   34.5408   49.6930 H   0  0  0  0  0  0  0  0  0  0  0  0
   59.5766   32.8040   49.6930 H   0  0  0  0  0  0  0  0  0  0  0  0
   61.2089   35.2322   48.8773 H   0  0  0  0  0  0  0  0  0  0  0  0
   61.9955   33.6564   49.4043 H   0  0  0  0  0  0  0  0  0  0  0  0
   60.9170   32.5450   47.6720 H   0  0  0  0  0  0  0  0  0  0  0  0
   61.9265   33.6102   45.6808 H   0  0  0  0  0  0  0  0  0  0  0  0
   62.4423   34.9132   46.8502 H   0  0  0  0  0  0  0  0  0  0  0  0
   63.4788   32.9868   48.2220 H   0  0  0  0  0  0  0  0  0  0  0  0
   63.3201   32.0130   46.7209 H   0  0  0  0  0  0  0  0  0  0  0  0
   64.3170   33.5072   46.7209 H   0  0  0  0  0  0  0  0  0  0  0  0
   59.1480   34.6120   47.5741 H   0  0  0  0  0  0  0  0  0  0  0  0
   60.0845   34.6576   46.0151 H   0  0  0  0  0  0  0  0  0  0  0  0
   57.0430   33.8691   45.7944 H   0  0  0  0  0  0  0  0  0  0  0  0
   59.6490   29.0655   46.9876 H   0  0  0  0  0  0  0  0  0  0  0  0
   59.7478   26.6299   46.4840 H   0  0  0  0  0  0  0  0  0  0  0  0
   58.5531   25.7120   44.4980 H   0  0  0  0  0  0  0  0  0  0  0  0
   57.2355   27.2257   43.0252 H   0  0  0  0  0  0  0  0  0  0  0  0
  1  2  1  0
  2  3  1  0
  3  4  1  0
  4  5  1  0
  3  6  1  0
  6  7  1  0
  7  8  2  0
  8  9  1  0
  9 10  1  0
 10 11  1  0
 11 12  2  0
 12 13  1  0
 13 14  2  0
 14 15  1  0
 15 16  2  0
 16 17  1  0
 10 18  2  0
 18  7  1  0
 16 11  1  0
  1 19  1  0
  1 20  1  0
  1 21  1  0
  2 22  1  0
  2 23  1  0
  3 24  1  0
  4 25  1  0
  4 26  1  0
  5 27  1  0
  5 28  1  0
  5 29  1  0
  6 30  1  0
  6 31  1  0
  8 32  1  0
 12 33  1  0
 13 34  1  0
 14 35  1  0
 15 36  1  0
M  CHG  1   3   1
M  END
>  <UniqueID>  (13) 
13

>  <SMILES>  (13) 
CC[NH+](CC)Cc1coc(-c2ccccc2Br)n1

>  <Energy>  (13) 
71.2885995021816

>  <Genealogy>  (13) 
CC[NH+](CC)Cc1coc(-c2ccccc2Br)n1 (protonated)
CC[NH+](CC)Cc1coc(-c2ccccc2Br)n1 (3D coordinates assigned)
CC[NH+](CC)Cc1coc(-c2ccccc2Br)n1 (optimized conformer: 71.2885995021816 kcal/mol)

>  <smiles>  (13) 
CCN(CC)Cc1coc(-c2ccccc2Br)n1

>  <score_type>  (13) 
oracle

>  <origin>  (13) 
adg

>  <m_score__min__energy>  (13) 
-4.5099999999999998

>  <m_primary>  (13) 
energy

$$$$
13:0
     RDKit          3D

 68 70  0  0  0  0  0  0  0  0999 V2000
   59.8970   34.9540   47.7990 C   0  0  0  0  0  0  0  0  0  0  0  0
   59.9090   34.2730   46.4220 C   0  0  0  0  0  0  0  0  0  0  0  0
   58.8030   33.3120   46.1960 N   0  0  0  0  0  0  0  0  0  0  0  0
   57.6480   33.4410   47.0990 C   0  0  0  0  0  0  0  0  0  0  0  0
   58.4440   33.0730   44.7810 C   0  0  0  0  0  0  0  0  0  0  0  0
   57.1830   32.2160   44.5900 C   0  0  0  0  0  0  0  0  0  0  0  0
   57.3440   30.9660   45.2360 O   0  0  0  0  0  0  0  0  0  0  0  0
   57.6590   29.9400   44.3130 C   0  0  0  0  0  0  0  0  0  0  0  0
   57.6180   28.5740   45.0020 C   0  0  0  0  0  0  0  0  0  0  0  0
   57.9070   28.7150   46.3810 O   0  0  0  0  0  0  0  0  0  0  0  0
   59.3000   28.8150   46.5880 C   0  0  0  0  0  0  0  0  0  0  0  0
   59.5560   29.4510   47.9510 C   0  0  0  0  0  0  0  0  0  0  0  0
   59.5960   30.9100   47.8470 N   0  0  0  0  0  0  0  0  0  0  0  0
   60.2790   31.6920   48.8330 C   0  0  0  0  0  0  0  0  0  0  0  0
   59.6150   32.0790   50.0090 C   0  0  0  0  0  0  0  0  0  0  0  0
   60.3090   32.8600   50.9730 C   0  0  0  0  0  0  0  0  0  0  0  0
   61.6460   33.1600   50.7840 N   0  0  0  0  0  0  0  0  0  0  0  0
   62.4250   33.8100   51.8590 C   0  0  0  0  0  0  0  0  0  0  0  0
   62.2580   32.8760   49.5800 C   0  0  0  0  0  0  0  0  0  0  0  0
   61.6060   32.0870   48.6190 C   0  0  0  0  0  0  0  0  0  0  0  0
   62.3980   31.6140   47.4180 C   0  0  0  0  0  0  0  0  0  0  0  0
   63.1950   32.7590   46.7700 C   0  0  0  0  0  0  0  0  0  0  0  0
   63.7230   33.8130   47.7690 C   0  0  0  0  0  0  0  0  0  0  0  0
   63.6580   33.3610   49.2340 C   0  0  0  0  0  0  0  0  0  0  0  0
   59.5930   33.2940   52.2480 C   0  0  0  0  0  0  0  0  0  0  0  0
   58.0690   33.2290   52.1540 C   0  0  0  0  0  0  0  0  0  0  0  0
   57.6440   31.8750   51.6060 C   0  0  0  0  0  0  0  0  0  0  0  0
   58.1490   31.7180   50.1750 C   0  0  0  0  0  0  0  0  0  0  0  0
   59.9105   34.1871   48.5875 H   0  0  0  0  0  0  0  0  0  0  0  0
   60.7840   35.5971   47.8978 H   0  0  0  0  0  0  0  0  0  0  0  0
   58.9879   35.5654   47.8978 H   0  0  0  0  0  0  0  0  0  0  0  0
   59.8451   35.0560   45.6520 H   0  0  0  0  0  0  0  0  0  0  0  0
   60.8411   33.6911   46.3716 H   0  0  0  0  0  0  0  0  0  0  0  0
   57.9926   33.4025   48.1429 H   0  0  0  0  0  0  0  0  0  0  0  0
   57.1438   34.4011   46.9145 H   0  0  0  0  0  0  0  0  0  0  0  0
   56.9444   32.6159   46.9145 H   0  0  0  0  0  0  0  0  0  0  0  0
   58.2763   34.0469   44.2979 H   0  0  0  0  0  0  0  0  0  0  0  0
   59.2784   32.5142   44.3320 H   0  0  0  0  0  0  0  0  0  0  0  0
   56.3176   32.7402   45.0216 H   0  0  0  0  0  0  0  0  0  0  0  0
   57.0199   32.0484   43.5151 H   0  0  0  0  0  0  0  0  0  0  0  0
   56.9277   29.9540   43.4914 H   0  0  0  0  0  0  0  0  0  0  0  0
   58.6717   30.1117   43.9193 H   0  0  0  0  0  0  0  0  0  0  0  0
   56.6156   28.1367   44.8833 H   0  0  0  0  0  0  0  0  0  0  0  0
   58.3704   27.9164   44.5422 H   0  0  0  0  0  0  0  0  0  0  0  0
   59.7500   27.8117   46.5590 H   0  0  0  0  0  0  0  0  0  0  0  0
   59.7491   29.4354   45.7985 H   0  0  0  0  0  0  0  0  0  0  0  0
   58.7498   29.1611   48.6409 H   0  0  0  0  0  0  0  0  0  0  0  0
   60.5281   29.0986   48.3264 H   0  0  0  0  0  0  0  0  0  0  0  0
   59.0660   31.4100   47.0960 H   0  0  0  0  0  0  0  0  0  0  0  0
   62.0391   33.4880   52.8375 H   0  0  0  0  0  0  0  0  0  0  0  0
   63.4832   33.5232   51.7697 H   0  0  0  0  0  0  0  0  0  0  0  0
   62.3324   34.9025   51.7697 H   0  0  0  0  0  0  0  0  0  0  0  0
   63.0994   30.8305   47.7406 H   0  0  0  0  0  0  0  0  0  0  0  0
   61.6881   31.2276   46.6719 H   0  0  0  0  0  0  0  0  0  0  0  0
   64.0561   32.3233   46.2421 H   0  0  0  0  0  0  0  0  0  0  0  0
   62.5008   33.2837   46.0970 H   0  0  0  0  0  0  0  0  0  0  0  0
   64.7715   34.0333   47.5197 H   0  0  0  0  0  0  0  0  0  0  0  0
   63.0750   34.6970   47.6762 H   0  0  0  0  0  0  0  0  0  0  0  0
   64.3745   32.5415   49.3922 H   0  0  0  0  0  0  0  0  0  0  0  0
   63.9092   34.2142   49.8812 H   0  0  0  0  0  0  0  0  0  0  0  0
   59.9179   32.6373   53.0685 H   0  0  0  0  0  0  0  0  0  0  0  0
   59.8580   34.3475   52.4207 H   0  0  0  0  0  0  0  0  0  0  0  0
   57.6350   33.3705   53.1548 H   0  0  0  0  0  0  0  0  0  0  0  0
   57.7125   34.0219   51.4800 H   0  0  0  0  0  0  0  0  0  0  0  0
   58.0684   31.0771   52.2331 H   0  0  0  0  0  0  0  0  0  0  0  0
   56.5461   31.8069   51.6144 H   0  0  0  0  0  0  0  0  0  0  0  0
   58.0113   30.6702   49.8698 H   0  0  0  0  0  0  0  0  0  0  0  0
   57.5707   32.4133   49.5487 H   0  0  0  0  0  0  0  0  0  0  0  0
  1  2  1  0
  2  3  1  0
  3  4  1  0
  3  5  1  0
  5  6  1  0
  6  7  1  0
  7  8  1  0
  8  9  1  0
  9 10  1  0
 10 11  1  0
 11 12  1  0
 12 13  1  0
 13 14  1  0
 14 15  2  0
 15 16  1  0
 16 17  2  0
 17 18  1  0
 17 19  1  0
 19 20  2  0
 20 21  1  0
 21 22  1  0
 22 23  1  0
 23 24  1  0
 16 25  1  0
 25 26  1  0
 26 27  1  0
 27 28  1  0
 20 14  1  0
 28 15  1  0
 24 19  1  0
  1 29  1  0
  1 30  1  0
  1 31  1  0
  2 32  1  0
  2 33  1  0
  4 34  1  0
  4 35  1  0
  4 36  1  0
  5 37  1  0
  5 38  1  0
  6 39  1  0
  6 40  1  0
  8 41  1  0
  8 42  1  0
  9 43  1  0
  9 44  1  0
 11 45  1  0
 11 46  1  0
 12 47  1  0
 12 48  1  0
 13 49  1  0
 18 50  1  0
 18 51  1  0
 18 52  1  0
 21 53  1  0
 21 54  1  0
 22 55  1  0
 22 56  1  0
 23 57  1  0
 23 58  1  0
 24 59  1  0
 24 60  1  0
 25 61  1  0
 25 62  1  0
 26 63  1  0
 26 64  1  0
 27 65  1  0
 27 66  1  0
 28 67  1  0
 28 68  1  0
M  CHG  1  17   1
M  END
>  <UniqueID>  (14) 
14

>  <SMILES>  (14) 
CCN(C)CCOCCOCCNc1c2c([n+](C)c3c1CCCC3)CCCC2

>  <Energy>  (14) 
93.43670603682423

>  <Genealogy>  (14) 
CCN(C)CCOCCOCCNc1c2c([n+](C)c3c1CCCC3)CCCC2 (3D coordinates assigned)
CCN(C)CCOCCOCCNc1c2c([n+](C)c3c1CCCC3)CCCC2 (nonaromatic ring conformer: 93.43670603682423 kcal/mol)

>  <smiles>  (14) 
CCN(C)CCOCCOCCNc1c2c([n+](C)c3c1CCCC3)CCCC2

>  <score_type>  (14) 
oracle

>  <origin>  (14) 
adg

>  <m_score__min__energy>  (14) 
-5.3700000000000001

>  <m_primary>  (14) 
energy

$$$$
14:0
     RDKit          3D

 38 39  0  0  0  0  0  0  0  0999 V2000
   64.9850   32.6430   49.7510 C   0  0  0  0  0  0  0  0  0  0  0  0
   63.6170   32.0950   49.3290 C   0  0  0  0  0  0  0  0  0  0  0  0
   62.7870   33.1030   48.6230 N   0  0  1  0  0  0  0  0  0  0  0  0
   62.7530   32.7840   47.1790 C   0  0  0  0  0  0  0  0  0  0  0  0
   61.9800   33.8430   46.3790 C   0  0  0  0  0  0  0  0  0  0  0  0
   60.5760   34.1460   46.9440 C   0  0  1  0  0  0  0  0  0  0  0  0
   59.4810   33.2590   46.3560 C   0  0  0  0  0  0  0  0  0  0  0  0
   59.4940   31.8570   46.4820 C   0  0  0  0  0  0  0  0  0  0  0  0
   58.4730   31.0810   45.9280 C   0  0  0  0  0  0  0  0  0  0  0  0
   57.4160   31.6790   45.2380 C   0  0  0  0  0  0  0  0  0  0  0  0
   56.4160   30.8540   44.7020 O   0  0  0  0  0  0  0  0  0  0  0  0
   56.5520   30.1050   43.4980 C   0  0  0  0  0  0  0  0  0  0  0  0
   57.3920   33.0790   45.1050 C   0  0  0  0  0  0  0  0  0  0  0  0
   58.4140   33.8560   45.6580 C   0  0  0  0  0  0  0  0  0  0  0  0
   60.5540   34.2150   48.4850 C   0  0  0  0  0  0  0  0  0  0  0  0
   61.4110   33.1400   49.1720 C   0  0  0  0  0  0  0  0  0  0  0  0
   65.0472   32.6679   50.8490 H   0  0  0  0  0  0  0  0  0  0  0  0
   65.7787   31.9934   49.3534 H   0  0  0  0  0  0  0  0  0  0  0  0
   65.1108   33.6609   49.3534 H   0  0  0  0  0  0  0  0  0  0  0  0
   63.7736   31.2369   48.6589 H   0  0  0  0  0  0  0  0  0  0  0  0
   63.0795   31.8052   50.2439 H   0  0  0  0  0  0  0  0  0  0  0  0
   63.2310   34.0460   48.7420 H   0  0  0  0  0  0  0  0  0  0  0  0
   62.2653   31.8077   47.0414 H   0  0  0  0  0  0  0  0  0  0  0  0
   63.7886   32.7643   46.8087 H   0  0  0  0  0  0  0  0  0  0  0  0
   61.8681   33.4839   45.3453 H   0  0  0  0  0  0  0  0  0  0  0  0
   62.5587   34.7765   46.4391 H   0  0  0  0  0  0  0  0  0  0  0  0
   60.3289   35.1614   46.6006 H   0  0  0  0  0  0  0  0  0  0  0  0
   60.3172   31.3671   47.0227 H   0  0  0  0  0  0  0  0  0  0  0  0
   58.5018   29.9867   46.0364 H   0  0  0  0  0  0  0  0  0  0  0  0
   56.7436   29.0497   43.7423 H   0  0  0  0  0  0  0  0  0  0  0  0
   55.6250   30.1830   42.9110 H   0  0  0  0  0  0  0  0  0  0  0  0
   57.3924   30.5039   42.9110 H   0  0  0  0  0  0  0  0  0  0  0  0
   56.5662   33.5641   44.5640 H   0  0  0  0  0  0  0  0  0  0  0  0
   58.3841   34.9499   45.5462 H   0  0  0  0  0  0  0  0  0  0  0  0
   59.5137   34.0951   48.8216 H   0  0  0  0  0  0  0  0  0  0  0  0
   60.9809   35.1892   48.7657 H   0  0  0  0  0  0  0  0  0  0  0  0
   60.9400   32.1576   49.0201 H   0  0  0  0  0  0  0  0  0  0  0  0
   61.4752   33.3848   50.2425 H   0  0  0  0  0  0  0  0  0  0  0  0
  1  2  1  0
  2  3  1  0
  3  4  1  0
  4  5  1  0
  5  6  1  0
  6  7  1  0
  7  8  2  0
  8  9  1  0
  9 10  2  0
 10 11  1  0
 11 12  1  0
 10 13  1  0
 13 14  2  0
  6 15  1  0
 15 16  1  0
 16  3  1  0
 14  7  1  0
  1 17  1  0
  1 18  1  0
  1 19  1  0
  2 20  1  0
  2 21  1  0
  3 22  1  6
  4 23  1  0
  4 24  1  0
  5 25  1  0
  5 26  1  0
  6 27  1  6
  8 28  1  0
  9 29  1  0
 12 30  1  0
 12 31  1  0
 12 32  1  0
 13 33  1  0
 14 34  1  0
 15 35  1  0
 15 36  1  0
 16 37  1  0
 16 38  1  0
M  CHG  1   3   1
M  END
>  <UniqueID>  (15) 
15

>  <SMILES>  (15) 
CC[NH+]1CCC(c2ccc(OC)cc2)CC1

>  <Energy>  (15) 
40.346621054912134

>  <Genealogy>  (15) 
CC[NH+]1CCC(c2ccc(OC)cc2)CC1 (protonated)
CC[NH+]1CCC(c2ccc(OC)cc2)CC1 (3D coordinates assigned)
CC[NH+]1CCC(c2ccc(OC)cc2)CC1 (nonaromatic ring conformer: 40.346621054912134 kcal/mol)

>  <smiles>  (15) 
CCN1CCC(c2ccc(OC)cc2)CC1

>  <score_type>  (15) 
oracle

>  <origin>  (15) 
adg

>  <m_score__min__energy>  (15) 
-4.8399999999999999

>  <m_primary>  (15) 
energy

$$$$
15:0
     RDKit          3D

 83 86  0  0  0  0  0  0  0  0999 V2000
   58.1350   26.7970   42.5910 C   0  0  0  0  0  0  0  0  0  0  0  0
   58.1060   27.4130   43.9940 C   0  0  0  0  0  0  0  0  0  0  0  0
   58.3410   28.8750   43.9750 N   0  0  1  0  0  0  0  0  0  0  0  0
   57.1800   29.6340   44.4880 C   0  0  0  0  0  0  0  0  0  0  0  0
   59.6040   29.2510   44.6620 C   0  0  0  0  0  0  0  0  0  0  0  0
   59.7350   28.7630   46.1250 C   0  0  0  0  0  0  0  0  0  0  0  0
   59.0210   29.6270   47.0660 N   0  0  0  0  0  0  0  0  0  0  0  0
   59.6710   30.7900   47.6040 C   0  0  0  0  0  0  0  0  0  0  0  0
   59.4090   32.0550   47.0550 C   0  0  0  0  0  0  0  0  0  0  0  0
   58.5130   32.2010   45.9740 C   0  0  0  0  0  0  0  0  0  0  0  0
   58.2010   33.4630   45.4740 C   0  0  0  0  0  0  0  0  0  0  0  0
   58.7710   34.5960   46.0440 C   0  0  0  0  0  0  0  0  0  0  0  0
   59.6730   34.4750   47.1000 C   0  0  0  0  0  0  0  0  0  0  0  0
   60.0360   33.2020   47.6100 C   0  0  0  0  0  0  0  0  0  0  0  0
   60.9540   33.0630   48.6350 N   0  0  0  0  0  0  0  0  0  0  0  0
   61.8140   34.2050   49.0150 C   0  0  0  0  0  0  0  0  0  0  0  0
   61.0940   31.8470   49.2780 C   0  0  0  0  0  0  0  0  0  0  0  0
   61.8080   31.7250   50.4940 C   0  0  0  0  0  0  0  0  0  0  0  0
   62.0410   30.4720   51.0870 C   0  0  0  0  0  0  0  0  0  0  0  0
   62.8010   30.3170   52.2610 O   0  0  0  0  0  0  0  0  0  0  0  0
   64.1810   30.6470   52.4210 C   0  0  0  0  0  0  0  0  0  0  0  0
   65.1300   29.7310   51.6020 C   0  0  0  0  0  0  0  0  0  0  0  0
   65.8250   28.6320   52.3560 N   0  0  0  0  0  0  0  0  0  0  0  0
   65.2810   28.5380   53.7360 C   0  0  0  0  0  0  0  0  0  0  0  0
   67.2840   28.9850   52.4630 C   0  0  0  0  0  0  0  0  0  0  0  0
   68.1020   28.4620   51.2660 C   0  0  0  0  0  0  0  0  0  0  0  0
   68.0950   26.9650   51.1930 N   0  0  0  0  0  0  0  0  0  0  0  0
   69.2800   26.4280   51.9070 C   0  0  0  0  0  0  0  0  0  0  0  0
   68.1930   26.5490   49.7710 C   0  0  0  0  0  0  0  0  0  0  0  0
   66.8590   26.3830   51.8060 C   0  0  0  0  0  0  0  0  0  0  0  0
   65.6430   27.3180   51.6520 C   0  0  0  0  0  0  0  0  0  0  0  0
   61.5190   29.3210   50.4940 C   0  0  0  0  0  0  0  0  0  0  0  0
   61.7940   28.0790   51.0930 O   0  0  0  0  0  0  0  0  0  0  0  0
   61.1560   27.5880   52.2670 C   0  0  0  0  0  0  0  0  0  0  0  0
   60.7410   29.4310   49.3340 C   0  0  0  0  0  0  0  0  0  0  0  0
   60.5000   30.6820   48.7340 C   0  0  0  0  0  0  0  0  0  0  0  0
   58.1866   25.7012   42.6726 H   0  0  0  0  0  0  0  0  0  0  0  0
   57.2225   27.0816   42.0467 H   0  0  0  0  0  0  0  0  0  0  0  0
   59.0168   27.1660   42.0467 H   0  0  0  0  0  0  0  0  0  0  0  0
   57.1211   27.2196   44.4442 H   0  0  0  0  0  0  0  0  0  0  0  0
   58.9151   26.9514   44.5791 H   0  0  0  0  0  0  0  0  0  0  0  0
   58.4700   29.1610   42.9740 H   0  0  0  0  0  0  0  0  0  0  0  0
   57.1933   29.6253   45.5879 H   0  0  0  0  0  0  0  0  0  0  0  0
   57.2331   30.6724   44.1288 H   0  0  0  0  0  0  0  0  0  0  0  0
   56.2501   29.1689   44.1288 H   0  0  0  0  0  0  0  0  0  0  0  0
   60.4415   28.8289   44.0872 H   0  0  0  0  0  0  0  0  0  0  0  0
   59.6084   30.3500   44.7077 H   0  0  0  0  0  0  0  0  0  0  0  0
   59.3228   27.7457   46.1966 H   0  0  0  0  0  0  0  0  0  0  0  0
   60.8019   28.7846   46.3921 H   0  0  0  0  0  0  0  0  0  0  0  0
   58.1360   29.3090   47.5210 H   0  0  0  0  0  0  0  0  0  0  0  0
   58.0562   31.3084   45.5216 H   0  0  0  0  0  0  0  0  0  0  0  0
   57.5042   33.5633   44.6288 H   0  0  0  0  0  0  0  0  0  0  0  0
   58.5089   35.5928   45.6597 H   0  0  0  0  0  0  0  0  0  0  0  0
   60.1102   35.3810   47.5449 H   0  0  0  0  0  0  0  0  0  0  0  0
   61.8669   34.2753   50.1115 H   0  0  0  0  0  0  0  0  0  0  0  0
   62.8248   34.0542   48.6080 H   0  0  0  0  0  0  0  0  0  0  0  0
   61.3898   35.1348   48.6080 H   0  0  0  0  0  0  0  0  0  0  0  0
   62.1894   32.6317   50.9864 H   0  0  0  0  0  0  0  0  0  0  0  0
   64.3316   31.6866   52.0947 H   0  0  0  0  0  0  0  0  0  0  0  0
   64.4288   30.5063   53.4835 H   0  0  0  0  0  0  0  0  0  0  0  0
   64.5348   29.2629   50.8041 H   0  0  0  0  0  0  0  0  0  0  0  0
   65.9348   30.3919   51.2477 H   0  0  0  0  0  0  0  0  0  0  0  0
   66.0956   28.6788   54.4616 H   0  0  0  0  0  0  0  0  0  0  0  0
   64.5194   29.3179   53.8838 H   0  0  0  0  0  0  0  0  0  0  0  0
   64.8253   27.5478   53.8838 H   0  0  0  0  0  0  0  0  0  0  0  0
   67.3807   30.0799   52.5061 H   0  0  0  0  0  0  0  0  0  0  0  0
   67.6790   28.5105   53.3734 H   0  0  0  0  0  0  0  0  0  0  0  0
   67.6707   28.8649   50.3378 H   0  0  0  0  0  0  0  0  0  0  0  0
   69.1435   28.7912   51.3961 H   0  0  0  0  0  0  0  0  0  0  0  0
   69.1183   26.5013   52.9926 H   0  0  0  0  0  0  0  0  0  0  0  0
   69.4293   25.3743   51.6288 H   0  0  0  0  0  0  0  0  0  0  0  0
   70.1707   27.0104   51.6288 H   0  0  0  0  0  0  0  0  0  0  0  0
   68.4449   25.4795   49.7184 H   0  0  0  0  0  0  0  0  0  0  0  0
   67.2291   26.7237   49.2706 H   0  0  0  0  0  0  0  0  0  0  0  0
   68.9775   27.1356   49.2706 H   0  0  0  0  0  0  0  0  0  0  0  0
   66.6353   25.4253   51.3133 H   0  0  0  0  0  0  0  0  0  0  0  0
   67.0462   26.2431   52.8809 H   0  0  0  0  0  0  0  0  0  0  0  0
   65.4828   27.5124   50.5812 H   0  0  0  0  0  0  0  0  0  0  0  0
   64.7787   26.8145   52.1097 H   0  0  0  0  0  0  0  0  0  0  0  0
   61.6695   27.9832   53.1559 H   0  0  0  0  0  0  0  0  0  0  0  0
   60.1050   27.9125   52.2761 H   0  0  0  0  0  0  0  0  0  0  0  0
   61.2005   26.4889   52.2761 H   0  0  0  0  0  0  0  0  0  0  0  0
   60.3108   28.5241   48.8840 H   0  0  0  0  0  0  0  0  0  0  0  0
  1  2  1  0
  2  3  1  0
  3  4  1  0
  3  5  1  0
  5  6  1  0
  6  7  1  0
  7  8  1  0
  8  9  2  0
  9 10  1  0
 10 11  2  0
 11 12  1  0
 12 13  2  0
 13 14  1  0
 14 15  2  0
 15 16  1  0
 15 17  1  0
 17 18  2  0
 18 19  1  0
 19 20  1  0
 20 21  1  0
 21 22  1  0
 22 23  1  0
 23 24  1  0
 23 25  1  0
 25 26  1  0
 26 27  1  0
 27 28  1  0
 27 29  1  0
 27 30  1  0
 30 31  1  0
 19 32  2  0
 32 33  1  0
 33 34  1  0
 32 35  1  0
 35 36  2  0
 36  8  1  0
 14  9  1  0
 36 17  1  0
 31 23  1  0
  1 37  1  0
  1 38  1  0
  1 39  1  0
  2 40  1  0
  2 41  1  0
  3 42  1  6
  4 43  1  0
  4 44  1  0
  4 45  1  0
  5 46  1  0
  5 47  1  0
  6 48  1  0
  6 49  1  0
  7 50  1  0
 10 51  1  0
 11 52  1  0
 12 53  1  0
 13 54  1  0
 16 55  1  0
 16 56  1  0
 16 57  1  0
 18 58  1  0
 21 59  1  0
 21 60  1  0
 22 61  1  0
 22 62  1  0
 24 63  1  0
 24 64  1  0
 24 65  1  0
 25 66  1  0
 25 67  1  0
 26 68  1  0
 26 69  1  0
 28 70  1  0
 28 71  1  0
 28 72  1  0
 29 73  1  0
 29 74  1  0
 29 75  1  0
 30 76  1  0
 30 77  1  0
 31 78  1  0
 31 79  1  0
 34 80  1  0
 34 81  1  0
 34 82  1  0
 35 83  1  0
M  CHG  4   3   1  15   1  23   1  27   1
M  END
>  <UniqueID>  (16) 
16

>  <SMILES>  (16) 
CC[N@@H+](C)CCNc1c2ccccc2[n+](C)c2cc(OCC[N+]3(C)CC[N+](C)(C)CC3)c(OC)cc12

>  <Energy>  (16) 
138.26571515285406

>  <Genealogy>  (16) 
CC[NH+](C)CCNc1c2ccccc2[n+](C)c2cc(OCC[N+]3(C)CC[N+](C)(C)CC3)c(OC)cc12 (protonated)
CC[N@@H+](C)CCNc1c2ccccc2[n+](C)c2cc(OCC[N+]3(C)CC[N+](C)(C)CC3)c(OC)cc12 (chirality)
CC[N@@H+](C)CCNc1c2ccccc2[n+](C)c2cc(OCC[N+]3(C)CC[N+](C)(C)CC3)c(OC)cc12 (3D coordinates assigned)
CC[N@@H+](C)CCNc1c2ccccc2[n+](C)c2cc(OCC[N+]3(C)CC[N+](C)(C)CC3)c(OC)cc12 (nonaromatic ring conformer: 138.26571515285406 kcal/mol)

>  <smiles>  (16) 
CCN(C)CCNc1c2ccccc2[n+](C)c2cc(OCC[N+]3(C)CC[N+](C)(C)CC3)c(OC)cc12

>  <score_type>  (16) 
oracle

>  <origin>  (16) 
adg

>  <m_score__min__energy>  (16) 
-2.25

>  <m_primary>  (16) 
energy

$$$$
16:0
     RDKit          3D

 92 96  0  0  0  0  0  0  0  0999 V2000
   62.6780   33.6590   46.3780 C   0  0  0  0  0  0  0  0  0  0  0  0
   63.7530   33.9150   47.4430 C   0  0  0  0  0  0  0  0  0  0  0  0
   63.9350   32.7580   48.3610 N   0  0  0  0  0  0  0  0  0  0  0  0
   64.7500   33.1430   49.5470 C   0  0  0  0  0  0  0  0  0  0  0  0
   65.5810   31.9980   50.1470 C   0  0  0  0  0  0  0  0  0  0  0  0
   62.6240   32.1550   48.7190 C   0  0  0  0  0  0  0  0  0  0  0  0
   61.7130   33.1100   49.5130 C   0  0  0  0  0  0  0  0  0  0  0  0
   60.3020   32.7680   49.3160 N   0  0  0  0  0  0  0  0  0  0  0  0
   59.8370   32.0920   48.1340 C   0  0  0  0  0  0  0  0  0  0  0  0
   59.3850   32.8280   47.0280 C   0  0  0  0  0  0  0  0  0  0  0  0
   59.4500   34.2380   47.0190 C   0  0  0  0  0  0  0  0  0  0  0  0
   58.9490   34.9680   45.9450 C   0  0  0  0  0  0  0  0  0  0  0  0
   58.3730   34.3070   44.8640 C   0  0  0  0  0  0  0  0  0  0  0  0
   58.3280   32.9130   44.8360 C   0  0  0  0  0  0  0  0  0  0  0  0
   58.8730   32.1390   45.8950 C   0  0  0  0  0  0  0  0  0  0  0  0
   58.9050   30.7560   45.8450 N   0  0  0  0  0  0  0  0  0  0  0  0
   58.6360   30.0600   44.5670 C   0  0  0  0  0  0  0  0  0  0  0  0
   59.2390   30.0290   46.9730 C   0  0  0  0  0  0  0  0  0  0  0  0
   59.0480   28.6250   47.0450 C   0  0  0  0  0  0  0  0  0  0  0  0
   59.4360   27.8990   48.1700 C   0  0  0  0  0  0  0  0  0  0  0  0
   60.0140   28.5490   49.2660 C   0  0  0  0  0  0  0  0  0  0  0  0
   60.4110   27.8730   50.4260 O   0  0  0  0  0  0  0  0  0  0  0  0
   61.1700   26.6660   50.4510 C   0  0  0  0  0  0  0  0  0  0  0  0
   60.7560   25.8610   51.6980 C   0  0  0  0  0  0  0  0  0  0  0  0
   61.3470   26.3000   53.0090 N   0  0  1  0  0  0  0  0  0  0  0  0
   62.0110   25.1400   53.6630 C   0  0  0  0  0  0  0  0  0  0  0  0
   62.3930   27.3460   52.7110 C   0  0  0  0  0  0  0  0  0  0  0  0
   62.2920   28.6010   53.6000 C   0  0  0  0  0  0  0  0  0  0  0  0
   60.9420   29.2530   53.5460 N   0  0  1  0  0  0  0  0  0  0  0  0
   60.8340   30.1110   54.7560 C   0  0  0  0  0  0  0  0  0  0  0  0
   60.8640   30.1020   52.3060 C   0  0  0  0  0  0  0  0  0  0  0  0
   59.6620   31.0390   52.2440 C   0  0  0  0  0  0  0  0  0  0  0  0
   58.3810   30.5410   51.9270 C   0  0  0  0  0  0  0  0  0  0  0  0
   57.2760   31.3960   51.8930 C   0  0  0  0  0  0  0  0  0  0  0  0
   57.4370   32.7630   52.1430 C   0  0  0  0  0  0  0  0  0  0  0  0
   58.7090   33.2780   52.4150 C   0  0  0  0  0  0  0  0  0  0  0  0
   59.8200   32.4280   52.4550 C   0  0  0  0  0  0  0  0  0  0  0  0
   61.0490   32.9610   52.6950 F   0  0  0  0  0  0  0  0  0  0  0  0
   59.8350   28.2310   53.5580 C   0  0  0  0  0  0  0  0  0  0  0  0
   60.3120   26.8260   53.9550 C   0  0  0  0  0  0  0  0  0  0  0  0
   60.1910   29.9300   49.2220 C   0  0  0  0  0  0  0  0  0  0  0  0
   59.7690   30.6880   48.1110 C   0  0  0  0  0  0  0  0  0  0  0  0
   61.7211   33.4311   46.8703 H   0  0  0  0  0  0  0  0  0  0  0  0
   62.5632   34.5549   45.7502 H   0  0  0  0  0  0  0  0  0  0  0  0
   62.9793   32.8075   45.7502 H   0  0  0  0  0  0  0  0  0  0  0  0
   64.7087   34.1176   46.9375 H   0  0  0  0  0  0  0  0  0  0  0  0
   63.4250   34.7728   48.0485 H   0  0  0  0  0  0  0  0  0  0  0  0
   64.4930   32.0280   47.8550 H   0  0  0  0  0  0  0  0  0  0  0  0
   65.4386   33.9458   49.2449 H   0  0  0  0  0  0  0  0  0  0  0  0
   64.0400   33.4566   50.3265 H   0  0  0  0  0  0  0  0  0  0  0  0
   65.5414   32.0525   51.2449 H   0  0  0  0  0  0  0  0  0  0  0  0
   65.1713   31.0334   49.8128 H   0  0  0  0  0  0  0  0  0  0  0  0
   66.6251   32.0885   49.8128 H   0  0  0  0  0  0  0  0  0  0  0  0
   62.1063   31.8683   47.7918 H   0  0  0  0  0  0  0  0  0  0  0  0
   62.8286   31.2874   49.3635 H   0  0  0  0  0  0  0  0  0  0  0  0
   61.9564   33.0340   50.5830 H   0  0  0  0  0  0  0  0  0  0  0  0
   61.8802   34.1362   49.1539 H   0  0  0  0  0  0  0  0  0  0  0  0
   59.5990   33.0830   50.0220 H   0  0  0  0  0  0  0  0  0  0  0  0
   59.9022   34.7664   47.8713 H   0  0  0  0  0  0  0  0  0  0  0  0
   59.0082   36.0664   45.9506 H   0  0  0  0  0  0  0  0  0  0  0  0
   57.9518   34.8858   44.0288 H   0  0  0  0  0  0  0  0  0  0  0  0
   57.8624   32.4044   43.9790 H   0  0  0  0  0  0  0  0  0  0  0  0
   58.2465   29.0522   44.7733 H   0  0  0  0  0  0  0  0  0  0  0  0
   57.8930   30.6290   43.9889 H   0  0  0  0  0  0  0  0  0  0  0  0
   59.5685   29.9815   43.9889 H   0  0  0  0  0  0  0  0  0  0  0  0
   58.5849   28.0993   46.1969 H   0  0  0  0  0  0  0  0  0  0  0  0
   59.2870   26.8095   48.1962 H   0  0  0  0  0  0  0  0  0  0  0  0
   60.9649   26.0786   49.5439 H   0  0  0  0  0  0  0  0  0  0  0  0
   62.2454   26.8947   50.4869 H   0  0  0  0  0  0  0  0  0  0  0  0
   59.6615   25.9237   51.7876 H   0  0  0  0  0  0  0  0  0  0  0  0
   61.1444   24.8456   51.5301 H   0  0  0  0  0  0  0  0  0  0  0  0
   61.9482   25.2498   54.7557 H   0  0  0  0  0  0  0  0  0  0  0  0
   61.5084   24.2102   53.3584 H   0  0  0  0  0  0  0  0  0  0  0  0
   63.0673   25.1026   53.3584 H   0  0  0  0  0  0  0  0  0  0  0  0
   63.3855   26.8955   52.8593 H   0  0  0  0  0  0  0  0  0  0  0  0
   62.2293   27.6750   51.6742 H   0  0  0  0  0  0  0  0  0  0  0  0
   62.4992   28.3106   54.6405 H   0  0  0  0  0  0  0  0  0  0  0  0
   63.0239   29.3303   53.2225 H   0  0  0  0  0  0  0  0  0  0  0  0
   60.9128   29.4854   55.6573 H   0  0  0  0  0  0  0  0  0  0  0  0
   61.6458   30.8533   54.7528 H   0  0  0  0  0  0  0  0  0  0  0  0
   59.8636   30.6289   54.7528 H   0  0  0  0  0  0  0  0  0  0  0  0
   61.7769   30.7133   52.2524 H   0  0  0  0  0  0  0  0  0  0  0  0
   60.7562   29.4055   51.4614 H   0  0  0  0  0  0  0  0  0  0  0  0
   58.2507   29.4716   51.7049 H   0  0  0  0  0  0  0  0  0  0  0  0
   56.2772   30.9931   51.6691 H   0  0  0  0  0  0  0  0  0  0  0  0
   56.5642   33.4323   52.1257 H   0  0  0  0  0  0  0  0  0  0  0  0
   58.8363   34.3551   52.5981 H   0  0  0  0  0  0  0  0  0  0  0  0
   59.0676   28.5555   54.2762 H   0  0  0  0  0  0  0  0  0  0  0  0
   59.4407   28.1646   52.5333 H   0  0  0  0  0  0  0  0  0  0  0  0
   60.7434   26.8693   54.9660 H   0  0  0  0  0  0  0  0  0  0  0  0
   59.4451   26.1497   53.9226 H   0  0  0  0  0  0  0  0  0  0  0  0
   60.6697   30.4393   50.0714 H   0  0  0  0  0  0  0  0  0  0  0  0
  1  2  1  0
  2  3  1  0
  3  4  1  0
  4  5  1  0
  3  6  1  0
  6  7  1  0
  7  8  1  0
  8  9  1  0
  9 10  2  0
 10 11  1  0
 11 12  2  0
 12 13  1  0
 13 14  2  0
 14 15  1  0
 15 16  2  0
 16 17  1  0
 16 18  1  0
 18 19  2  0
 19 20  1  0
 20 21  2  0
 21 22  1  0
 22 23  1  0
 23 24  1  0
 25 24  1  6
 25 26  1  0
 25 27  1  0
 27 28  1  0
 28 29  1  0
 29 30  1  1
 29 31  1  0
 31 32  1  0
 32 33  2  0
 33 34  1  0
 34 35  2  0
 35 36  1  0
 36 37  2  0
 37 38  1  0
 29 39  1  0
 39 40  1  0
 21 41  1  0
 41 42  2  0
 42  9  1  0
 15 10  1  0
 42 18  1  0
 40 25  1  0
 37 32  1  0
  1 43  1  0
  1 44  1  0
  1 45  1  0
  2 46  1  0
  2 47  1  0
  3 48  1  0
  4 49  1  0
  4 50  1  0
  5 51  1  0
  5 52  1  0
  5 53  1  0
  6 54  1  0
  6 55  1  0
  7 56  1  0
  7 57  1  0
  8 58  1  0
 11 59  1  0
 12 60  1  0
 13 61  1  0
 14 62  1  0
 17 63  1  0
 17 64  1  0
 17 65  1  0
 19 66  1  0
 20 67  1  0
 23 68  1  0
 23 69  1  0
 24 70  1  0
 24 71  1  0
 26 72  1  0
 26 73  1  0
 26 74  1  0
 27 75  1  0
 27 76  1  0
 28 77  1  0
 28 78  1  0
 30 79  1  0
 30 80  1  0
 30 81  1  0
 31 82  1  0
 31 83  1  0
 33 84  1  0
 34 85  1  0
 35 86  1  0
 36 87  1  0
 39 88  1  0
 39 89  1  0
 40 90  1  0
 40 91  1  0
 41 92  1  0
M  CHG  4   3   1  16   1  25   1  29   1
M  END
>  <UniqueID>  (17) 
17

>  <SMILES>  (17) 
CC[NH+](CC)CCNc1c2ccccc2[n+](C)c2ccc(OCC[N+]3(C)CC[N+](C)(Cc4ccccc4F)CC3)cc12

>  <Energy>  (17) 
158.00204531505403

>  <Genealogy>  (17) 
CC[NH+](CC)CCNc1c2ccccc2[n+](C)c2ccc(OCC[N+]3(C)CC[N+](C)(Cc4ccccc4F)CC3)cc12 (protonated)
CC[NH+](CC)CCNc1c2ccccc2[n+](C)c2ccc(OCC[N+]3(C)CC[N+](C)(Cc4ccccc4F)CC3)cc12 (3D coordinates assigned)
CC[NH+](CC)CCNc1c2ccccc2[n+](C)c2ccc(OCC[N+]3(C)CC[N+](C)(Cc4ccccc4F)CC3)cc12 (nonaromatic ring conformer: 158.00204531505403 kcal/mol)

>  <smiles>  (17) 
CCN(CC)CCNc1c2ccccc2[n+](C)c2ccc(OCC[N+]3(C)CC[N+](C)(Cc4ccccc4F)CC3)cc12

>  <score_type>  (17) 
oracle

>  <origin>  (17) 
adg

>  <m_score__min__energy>  (17) 
-3.7799999999999998

>  <m_primary>  (17) 
energy

$$$$
17:0
     RDKit          3D

 38 39  0  0  0  0  0  0  0  0999 V2000
   57.4530   25.3620   43.9200 C   0  0  0  0  0  0  0  0  0  0  0  0
   58.1640   26.6400   44.3720 C   0  0  0  0  0  0  0  0  0  0  0  0
   57.9000   27.7780   43.4750 N   0  0  0  0  0  0  0  0  0  0  0  0
   58.1060   29.0460   44.1430 C   0  0  0  0  0  0  0  0  0  0  0  0
   59.3200   29.2970   44.7890 C   0  0  0  0  0  0  0  0  0  0  0  0
   59.5160   30.4720   45.4350 N   0  0  0  0  0  0  0  0  0  0  0  0
   58.5860   31.4310   45.4880 N   0  0  0  0  0  0  0  0  0  0  0  0
   58.9260   32.6630   46.2340 C   0  0  2  0  0  0  0  0  0  0  0  0
   59.6820   33.6650   45.3220 C   0  0  0  0  0  0  0  0  0  0  0  0
   60.0820   34.9880   45.9930 C   0  0  0  0  0  0  0  0  0  0  0  0
   59.2890   35.3070   47.2760 C   0  0  0  0  0  0  0  0  0  0  0  0
   59.8170   34.6900   48.5090 N   0  0  0  0  0  0  0  0  0  0  0  0
   59.3910   33.3030   48.7580 C   0  0  0  0  0  0  0  0  0  0  0  0
   59.6330   32.3230   47.5740 C   0  0  0  0  0  0  0  0  0  0  0  0
   57.3710   31.2390   44.8730 C   0  0  0  0  0  0  0  0  0  0  0  0
   56.4730   32.1250   44.9250 O   0  0  0  0  0  0  0  0  0  0  0  0
   57.1140   30.0450   44.1850 C   0  0  0  0  0  0  0  0  0  0  0  0
   55.5470   29.8290   43.3970 Cl  0  0  0  0  0  0  0  0  0  0  0  0
   57.1338   24.7883   44.8026 H   0  0  0  0  0  0  0  0  0  0  0  0
   56.5723   25.6263   43.3163 H   0  0  0  0  0  0  0  0  0  0  0  0
   58.1420   24.7530   43.3163 H   0  0  0  0  0  0  0  0  0  0  0  0
   57.8159   26.8990   45.3828 H   0  0  0  0  0  0  0  0  0  0  0  0
   59.2464   26.4447   44.3556 H   0  0  0  0  0  0  0  0  0  0  0  0
   58.5610   27.7180   42.6660 H   0  0  0  0  0  0  0  0  0  0  0  0
   56.9390   27.7020   43.0690 H   0  0  0  0  0  0  0  0  0  0  0  0
   60.1175   28.5395   44.7729 H   0  0  0  0  0  0  0  0  0  0  0  0
   58.0052   33.1870   46.5297 H   0  0  0  0  0  0  0  0  0  0  0  0
   60.5991   33.1741   44.9642 H   0  0  0  0  0  0  0  0  0  0  0  0
   58.9825   33.9312   44.5159 H   0  0  0  0  0  0  0  0  0  0  0  0
   61.1501   34.9356   46.2509 H   0  0  0  0  0  0  0  0  0  0  0  0
   59.8579   35.7894   45.2736 H   0  0  0  0  0  0  0  0  0  0  0  0
   59.2892   36.3983   47.4141 H   0  0  0  0  0  0  0  0  0  0  0  0
   58.2844   34.8840   47.1280 H   0  0  0  0  0  0  0  0  0  0  0  0
   59.6920   35.3030   49.3470 H   0  0  0  0  0  0  0  0  0  0  0  0
   59.9436   32.9270   49.6317 H   0  0  0  0  0  0  0  0  0  0  0  0
   58.3027   33.3369   48.9141 H   0  0  0  0  0  0  0  0  0  0  0  0
   60.7157   32.2929   47.3818 H   0  0  0  0  0  0  0  0  0  0  0  0
   59.1978   31.3656   47.8966 H   0  0  0  0  0  0  0  0  0  0  0  0
  1  2  1  0
  2  3  1  0
  3  4  1  0
  4  5  1  0
  5  6  2  0
  6  7  1  0
  7  8  1  0
  8  9  1  0
  9 10  1  0
 10 11  1  0
 11 12  1  0
 12 13  1  0
 13 14  1  0
  7 15  1  0
 15 16  2  0
 15 17  1  0
 17 18  1  0
 17  4  2  0
 14  8  1  0
  1 19  1  0
  1 20  1  0
  1 21  1  0
  2 22  1  0
  2 23  1  0
  3 24  1  0
  3 25  1  0
  5 26  1  0
  8 27  1  1
  9 28  1  0
  9 29  1  0
 10 30  1  0
 10 31  1  0
 11 32  1  0
 11 33  1  0
 12 34  1  0
 13 35  1  0
 13 36  1  0
 14 37  1  0
 14 38  1  0
M  CHG  1   3   1
M  END
>  <UniqueID>  (18) 
18

>  <SMILES>  (18) 
CC[NH2+]c1cnn([C@@H]2CCCNCC2)c(=O)c1Cl

>  <Energy>  (18) 
55.59390715934913

>  <Genealogy>  (18) 
CC[NH2+]c1cnn(C2CCCNCC2)c(=O)c1Cl (protonated)
CC[NH2+]c1cnn([C@@H]2CCCNCC2)c(=O)c1Cl (chirality)
CC[NH2+]c1cnn([C@@H]2CCCNCC2)c(=O)c1Cl (3D coordinates assigned)
CC[NH2+]c1cnn([C@@H]2CCCNCC2)c(=O)c1Cl (nonaromatic ring conformer: 55.59390715934913 kcal/mol)

>  <smiles>  (18) 
CCNc1cnn(C2CCCNCC2)c(=O)c1Cl

>  <score_type>  (18) 
oracle

>  <origin>  (18) 
adg

>  <m_score__min__energy>  (18) 
-3.7200000000000002

>  <m_primary>  (18) 
energy

$$$$
18:0
     RDKit          3D

 43 45  0  0  0  0  0  0  0  0999 V2000
   57.6910   28.6230   44.1100 Br  0  0  0  0  0  0  0  0  0  0  0  0
   56.5730   30.2030   44.0900 C   0  0  0  0  0  0  0  0  0  0  0  0
   57.3820   31.3980   44.4840 C   0  0  0  0  0  0  0  0  0  0  0  0
   57.7970   32.3300   43.5210 C   0  0  0  0  0  0  0  0  0  0  0  0
   58.5200   33.4550   43.9200 C   0  0  0  0  0  0  0  0  0  0  0  0
   58.8170   33.6510   45.2740 C   0  0  0  0  0  0  0  0  0  0  0  0
   59.5360   34.7720   45.7020 C   0  0  0  0  0  0  0  0  0  0  0  0
   59.8150   34.9460   47.0590 C   0  0  0  0  0  0  0  0  0  0  0  0
   59.3780   34.0050   47.9970 C   0  0  0  0  0  0  0  0  0  0  0  0
   58.6470   32.8700   47.5850 C   0  0  0  0  0  0  0  0  0  0  0  0
   58.1780   31.8950   48.4840 O   0  0  0  0  0  0  0  0  0  0  0  0
   58.9160   31.2830   49.5460 C   0  0  0  0  0  0  0  0  0  0  0  0
   59.5340   29.9430   49.0980 C   0  0  0  0  0  0  0  0  0  0  0  0
   59.3840   29.6710   47.6470 N   0  0  0  0  0  0  0  0  0  0  0  0
   60.6510   30.0110   46.9440 C   0  0  0  0  0  0  0  0  0  0  0  0
   60.7120   29.3830   45.5480 C   0  0  0  0  0  0  0  0  0  0  0  0
   60.6940   27.8460   45.6320 C   0  0  0  0  0  0  0  0  0  0  0  0
   60.0400   27.3350   46.9250 C   0  0  0  0  0  0  0  0  0  0  0  0
   58.9150   28.2750   47.3850 C   0  0  0  0  0  0  0  0  0  0  0  0
   58.3740   32.6970   46.2180 C   0  0  0  0  0  0  0  0  0  0  0  0
   57.6710   31.6090   45.7970 N   0  0  0  0  0  0  0  0  0  0  0  0
   56.1692   30.3524   43.0778 H   0  0  0  0  0  0  0  0  0  0  0  0
   55.7451   30.0725   44.8024 H   0  0  0  0  0  0  0  0  0  0  0  0
   57.5543   32.1752   42.4593 H   0  0  0  0  0  0  0  0  0  0  0  0
   58.8563   34.1872   43.1712 H   0  0  0  0  0  0  0  0  0  0  0  0
   59.8816   35.5164   44.9695 H   0  0  0  0  0  0  0  0  0  0  0  0
   60.3816   35.8280   47.3922 H   0  0  0  0  0  0  0  0  0  0  0  0
   59.6056   34.1505   49.0633 H   0  0  0  0  0  0  0  0  0  0  0  0
   59.7221   31.9623   49.8602 H   0  0  0  0  0  0  0  0  0  0  0  0
   58.2264   31.0861   50.3800 H   0  0  0  0  0  0  0  0  0  0  0  0
   60.6071   29.9579   49.3392 H   0  0  0  0  0  0  0  0  0  0  0  0
   58.9943   29.1465   49.6313 H   0  0  0  0  0  0  0  0  0  0  0  0
   58.6630   30.3250   47.2640 H   0  0  0  0  0  0  0  0  0  0  0  0
   60.7218   31.1044   46.8462 H   0  0  0  0  0  0  0  0  0  0  0  0
   61.4884   29.6125   47.5356 H   0  0  0  0  0  0  0  0  0  0  0  0
   59.8438   29.7213   44.9634 H   0  0  0  0  0  0  0  0  0  0  0  0
   61.6489   29.6961   45.0640 H   0  0  0  0  0  0  0  0  0  0  0  0
   60.1314   27.4523   44.7727 H   0  0  0  0  0  0  0  0  0  0  0  0
   61.7377   27.4987   45.6255 H   0  0  0  0  0  0  0  0  0  0  0  0
   59.6206   26.3343   46.7442 H   0  0  0  0  0  0  0  0  0  0  0  0
   60.8069   27.2964   47.7127 H   0  0  0  0  0  0  0  0  0  0  0  0
   58.1435   28.3066   46.6015 H   0  0  0  0  0  0  0  0  0  0  0  0
   58.5245   27.8779   48.3336 H   0  0  0  0  0  0  0  0  0  0  0  0
  1  2  1  0
  2  3  1  0
  3  4  2  0
  4  5  1  0
  5  6  2  0
  6  7  1  0
  7  8  2  0
  8  9  1  0
  9 10  2  0
 10 11  1  0
 11 12  1  0
 12 13  1  0
 13 14  1  0
 14 15  1  0
 15 16  1  0
 16 17  1  0
 17 18  1  0
 18 19  1  0
 10 20  1  0
 20 21  2  0
 21  3  1  0
 20  6  1  0
 19 14  1  0
  2 22  1  0
  2 23  1  0
  4 24  1  0
  5 25  1  0
  7 26  1  0
  8 27  1  0
  9 28  1  0
 12 29  1  0
 12 30  1  0
 13 31  1  0
 13 32  1  0
 14 33  1  0
 15 34  1  0
 15 35  1  0
 16 36  1  0
 16 37  1  0
 17 38  1  0
 17 39  1  0
 18 40  1  0
 18 41  1  0
 19 42  1  0
 19 43  1  0
M  CHG  1  14   1
M  END
>  <UniqueID>  (19) 
19

>  <SMILES>  (19) 
BrCc1ccc2cccc(OCC[NH+]3CCCCC3)c2n1

>  <Energy>  (19) 
55.38856590890573

>  <Genealogy>  (19) 
BrCc1ccc2cccc(OCC[NH+]3CCCCC3)c2n1 (protonated)
BrCc1ccc2cccc(OCC[NH+]3CCCCC3)c2n1 (3D coordinates assigned)
BrCc1ccc2cccc(OCC[NH+]3CCCCC3)c2n1 (nonaromatic ring conformer: 55.38856590890573 kcal/mol)

>  <smiles>  (19) 
BrCc1ccc2cccc(OCCN3CCCCC3)c2n1

>  <score_type>  (19) 
oracle

>  <origin>  (19) 
adg

>  <m_score__min__energy>  (19) 
-5.5099999999999998

>  <m_primary>  (19) 
energy

$$$$
19:0
     RDKit          3D

 51 55  0  0  0  0  0  0  0  0999 V2000
   59.3000   29.8270   45.4240 C   0  0  0  0  0  0  0  0  0  0  0  0
   57.8880   30.0090   45.0970 N   0  0  0  0  0  0  0  0  0  0  0  0
   57.2850   31.1310   44.6530 C   0  0  0  0  0  0  0  0  0  0  0  0
   58.1230   32.6740   44.2770 S   0  0  0  0  0  0  0  0  0  0  0  0
   57.5800   33.4750   45.8250 C   0  0  0  0  0  0  0  0  0  0  0  0
   58.6260   34.4720   46.3390 C   0  0  0  0  0  0  0  0  0  0  0  0
   60.0220   34.2970   45.7180 C   0  0  0  0  0  0  0  0  0  0  0  0
   61.0870   34.5070   46.7320 N   0  0  0  0  0  0  0  0  0  0  0  0
   62.3520   33.8360   46.3750 C   0  0  0  0  0  0  0  0  0  0  0  0
   62.4280   32.5150   47.1270 C   0  0  1  0  0  0  0  0  0  0  0  0
   62.8610   32.5840   48.5860 C   0  0  0  0  0  0  0  0  0  0  0  0
   61.3840   32.6150   48.2160 C   0  0  2  0  0  0  0  0  0  0  0  0
   60.5610   31.3760   48.4620 C   0  0  0  0  0  0  0  0  0  0  0  0
   59.3130   31.4540   49.1030 C   0  0  0  0  0  0  0  0  0  0  0  0
   58.5860   30.2910   49.3690 C   0  0  0  0  0  0  0  0  0  0  0  0
   59.1040   29.0430   49.0120 C   0  0  0  0  0  0  0  0  0  0  0  0
   60.3540   28.9570   48.3910 C   0  0  0  0  0  0  0  0  0  0  0  0
   60.8620   27.7450   48.0560 F   0  0  0  0  0  0  0  0  0  0  0  0
   61.0840   30.1190   48.1230 C   0  0  0  0  0  0  0  0  0  0  0  0
   60.7050   33.9650   48.0490 C   0  0  0  0  0  0  0  0  0  0  0  0
   55.9610   30.9560   44.4980 N   0  0  0  0  0  0  0  0  0  0  0  0
   55.6980   29.7020   44.8320 N   0  0  0  0  0  0  0  0  0  0  0  0
   56.8660   29.1260   45.1790 C   0  0  0  0  0  0  0  0  0  0  0  0
   56.9550   27.7110   45.5830 C   0  0  0  0  0  0  0  0  0  0  0  0
   58.0770   26.9010   45.5770 C   0  0  0  0  0  0  0  0  0  0  0  0
   57.6490   25.6650   46.0080 C   0  0  0  0  0  0  0  0  0  0  0  0
   56.2950   25.7890   46.2430 C   0  0  0  0  0  0  0  0  0  0  0  0
   55.9120   27.0160   45.9760 O   0  0  0  0  0  0  0  0  0  0  0  0
   59.4242   29.8110   46.5169 H   0  0  0  0  0  0  0  0  0  0  0  0
   59.6547   28.8757   45.0007 H   0  0  0  0  0  0  0  0  0  0  0  0
   59.8844   30.6573   45.0007 H   0  0  0  0  0  0  0  0  0  0  0  0
   56.6372   34.0103   45.6388 H   0  0  0  0  0  0  0  0  0  0  0  0
   57.4431   32.6944   46.5879 H   0  0  0  0  0  0  0  0  0  0  0  0
   58.2731   35.4892   46.1135 H   0  0  0  0  0  0  0  0  0  0  0  0
   58.7346   34.2881   47.4181 H   0  0  0  0  0  0  0  0  0  0  0  0
   60.1092   33.2790   45.3106 H   0  0  0  0  0  0  0  0  0  0  0  0
   60.1463   35.0439   44.9201 H   0  0  0  0  0  0  0  0  0  0  0  0
   62.3792   33.6481   45.2915 H   0  0  0  0  0  0  0  0  0  0  0  0
   63.2062   34.4736   46.6468 H   0  0  0  0  0  0  0  0  0  0  0  0
   62.7411   31.8428   46.3145 H   0  0  0  0  0  0  0  0  0  0  0  0
   63.2879   31.6970   49.0770 H   0  0  0  0  0  0  0  0  0  0  0  0
   63.5329   33.2290   49.1713 H   0  0  0  0  0  0  0  0  0  0  0  0
   58.9073   32.4335   49.3962 H   0  0  0  0  0  0  0  0  0  0  0  0
   57.6041   30.3577   49.8603 H   0  0  0  0  0  0  0  0  0  0  0  0
   58.5286   28.1287   49.2194 H   0  0  0  0  0  0  0  0  0  0  0  0
   62.0719   30.0474   47.6446 H   0  0  0  0  0  0  0  0  0  0  0  0
   59.6130   33.8425   48.0999 H   0  0  0  0  0  0  0  0  0  0  0  0
   61.0169   34.6514   48.8499 H   0  0  0  0  0  0  0  0  0  0  0  0
   59.0994   27.1856   45.2878 H   0  0  0  0  0  0  0  0  0  0  0  0
   58.2626   24.7614   46.1385 H   0  0  0  0  0  0  0  0  0  0  0  0
   55.6370   24.9829   46.5996 H   0  0  0  0  0  0  0  0  0  0  0  0
  1  2  1  0
  2  3  1  0
  3  4  1  0
  4  5  1  0
  5  6  1  0
  6  7  1  0
  7  8  1  0
  8  9  1  0
  9 10  1  0
 10 11  1  0
 11 12  1  0
 12 13  1  1
 13 14  2  0
 14 15  1  0
 15 16  2  0
 16 17  1  0
 17 18  1  0
 17 19  2  0
 12 20  1  0
  3 21  2  0
 21 22  1  0
 22 23  2  0
 23 24  1  0
 24 25  2  0
 25 26  1  0
 26 27  2  0
 27 28  1  0
 23  2  1  0
 28 24  1  0
 20  8  1  0
 12 10  1  0
 19 13  1  0
  1 29  1  0
  1 30  1  0
  1 31  1  0
  5 32  1  0
  5 33  1  0
  6 34  1  0
  6 35  1  0
  7 36  1  0
  7 37  1  0
  9 38  1  0
  9 39  1  0
 10 40  1  6
 11 41  1  0
 11 42  1  0
 14 43  1  0
 15 44  1  0
 16 45  1  0
 19 46  1  0
 20 47  1  0
 20 48  1  0
 25 49  1  0
 26 50  1  0
 27 51  1  0
M  END
>  <UniqueID>  (20) 
20

>  <SMILES>  (20) 
Cn1c(SCCCN2C[C@H]3C[C@@]3(c3cccc(F)c3)C2)nnc1-c1ccco1

>  <Energy>  (20) 
386.11388155036343

>  <Genealogy>  (20) 
Cn1c(SCCCN2C[C@H]3C[C@@]3(c3cccc(F)c3)C2)nnc1-c1ccco1 (chirality)
Cn1c(SCCCN2C[C@H]3C[C@@]3(c3cccc(F)c3)C2)nnc1-c1ccco1 (3D coordinates assigned)
Cn1c(SCCCN2C[C@H]3C[C@@]3(c3cccc(F)c3)C2)nnc1-c1ccco1 (nonaromatic ring conformer: 386.11388155036343 kcal/mol)

>  <smiles>  (20) 
Cn1c(SCCCN2CC3CC3(c3cccc(F)c3)C2)nnc1-c1ccco1

>  <score_type>  (20) 
oracle

>  <origin>  (20) 
adg

>  <m_score__min__energy>  (20) 
-9.4100000000000001

>  <m_primary>  (20) 
energy

$$$$
20:0
     RDKit          3D

 55 58  0  0  0  0  0  0  0  0999 V2000
   63.2810   33.5790   46.7450 C   0  0  0  0  0  0  0  0  0  0  0  0
   62.4000   32.7070   47.6350 C   0  0  0  0  0  0  0  0  0  0  0  0
   62.6250   31.2840   47.3410 N   0  0  0  0  0  0  0  0  0  0  0  0
   61.4000   30.6370   46.8510 C   0  0  0  0  0  0  0  0  0  0  0  0
   60.7670   29.7930   47.9600 C   0  0  0  0  0  0  0  0  0  0  0  0
   59.3070   29.8540   47.9040 N   0  0  0  0  0  0  0  0  0  0  0  0
   58.6390   30.0750   46.6570 C   0  0  0  0  0  0  0  0  0  0  0  0
   58.3080   31.3760   46.2150 C   0  0  0  0  0  0  0  0  0  0  0  0
   58.5830   32.4980   47.0190 C   0  0  0  0  0  0  0  0  0  0  0  0
   58.2960   33.7840   46.5680 C   0  0  0  0  0  0  0  0  0  0  0  0
   57.7340   33.9740   45.3100 C   0  0  0  0  0  0  0  0  0  0  0  0
   57.4360   32.8800   44.4970 C   0  0  0  0  0  0  0  0  0  0  0  0
   57.6890   31.5570   44.9310 C   0  0  0  0  0  0  0  0  0  0  0  0
   57.3630   30.4580   44.1480 N   0  0  0  0  0  0  0  0  0  0  0  0
   56.6480   30.6180   42.8670 C   0  0  0  0  0  0  0  0  0  0  0  0
   57.7310   29.2110   44.5890 C   0  0  0  0  0  0  0  0  0  0  0  0
   57.5840   28.0380   43.9210 N   0  0  0  0  0  0  0  0  0  0  0  0
   58.0850   27.0990   44.7470 C   0  0  0  0  0  0  0  0  0  0  0  0
   58.1620   25.7280   44.5030 C   0  0  0  0  0  0  0  0  0  0  0  0
   58.7250   24.9080   45.4980 C   0  0  0  0  0  0  0  0  0  0  0  0
   58.8340   23.1770   45.2320 S   0  0  0  0  0  0  0  0  0  0  0  0
   60.3680   22.5540   45.5250 O   0  0  0  0  0  0  0  0  0  0  0  0
   57.5480   22.2490   45.9880 C   0  0  0  0  0  0  0  0  0  0  0  0
   56.6860   21.3320   45.1800 C   0  0  0  0  0  0  0  0  0  0  0  0
   57.3580   22.3590   47.1890 O   0  0  0  0  0  0  0  0  0  0  0  0
   59.2000   25.4740   46.7040 C   0  0  0  0  0  0  0  0  0  0  0  0
   59.1150   26.8600   46.9250 C   0  0  0  0  0  0  0  0  0  0  0  0
   58.5520   27.6500   45.9200 C   0  0  0  0  0  0  0  0  0  0  0  0
   58.3340   29.0120   45.8150 C   0  0  0  0  0  0  0  0  0  0  0  0
   63.9226   34.2140   47.3736 H   0  0  0  0  0  0  0  0  0  0  0  0
   63.9096   32.9374   46.1099 H   0  0  0  0  0  0  0  0  0  0  0  0
   62.6459   34.2141   46.1099 H   0  0  0  0  0  0  0  0  0  0  0  0
   62.6440   32.9024   48.6897 H   0  0  0  0  0  0  0  0  0  0  0  0
   61.3448   32.9494   47.4404 H   0  0  0  0  0  0  0  0  0  0  0  0
   63.3400   31.2260   46.5780 H   0  0  0  0  0  0  0  0  0  0  0  0
   60.6854   31.4089   46.5292 H   0  0  0  0  0  0  0  0  0  0  0  0
   61.6541   29.9832   46.0037 H   0  0  0  0  0  0  0  0  0  0  0  0
   61.0871   28.7472   47.8419 H   0  0  0  0  0  0  0  0  0  0  0  0
   61.0950   30.1921   48.9312 H   0  0  0  0  0  0  0  0  0  0  0  0
   58.7260   29.7070   48.7610 H   0  0  0  0  0  0  0  0  0  0  0  0
   59.0295   32.3576   48.0145 H   0  0  0  0  0  0  0  0  0  0  0  0
   58.5143   34.6515   47.2082 H   0  0  0  0  0  0  0  0  0  0  0  0
   57.5232   34.9932   44.9538 H   0  0  0  0  0  0  0  0  0  0  0  0
   56.9973   33.0486   43.5025 H   0  0  0  0  0  0  0  0  0  0  0  0
   55.5918   30.8543   43.0636 H   0  0  0  0  0  0  0  0  0  0  0  0
   57.1057   31.4359   42.2913 H   0  0  0  0  0  0  0  0  0  0  0  0
   56.7135   29.6830   42.2913 H   0  0  0  0  0  0  0  0  0  0  0  0
   57.2030   27.8630   42.9660 H   0  0  0  0  0  0  0  0  0  0  0  0
   57.7930   25.2999   43.5593 H   0  0  0  0  0  0  0  0  0  0  0  0
   60.7810   22.4650   44.6300 H   0  0  0  0  0  0  0  0  0  0  0  0
   56.0909   20.6989   45.8546 H   0  0  0  0  0  0  0  0  0  0  0  0
   56.0121   21.9265   44.5455 H   0  0  0  0  0  0  0  0  0  0  0  0
   57.3210   20.6961   44.5455 H   0  0  0  0  0  0  0  0  0  0  0  0
   59.6395   24.8246   47.4754 H   0  0  0  0  0  0  0  0  0  0  0  0
   59.4806   27.3084   47.8606 H   0  0  0  0  0  0  0  0  0  0  0  0
  1  2  1  0
  2  3  1  0
  3  4  1  0
  4  5  1  0
  5  6  1  0
  6  7  1  0
  7  8  2  0
  8  9  1  0
  9 10  2  0
 10 11  1  0
 11 12  2  0
 12 13  1  0
 13 14  2  0
 14 15  1  0
 14 16  1  0
 16 17  1  0
 17 18  1  0
 18 19  2  0
 19 20  1  0
 20 21  1  0
 21 22  1  1
 21 23  1  0
 23 24  1  0
 23 25  2  0
 20 26  2  0
 26 27  1  0
 27 28  2  0
 28 29  1  0
 29  7  1  0
 13  8  1  0
 29 16  2  0
 28 18  1  0
  1 30  1  0
  1 31  1  0
  1 32  1  0
  2 33  1  0
  2 34  1  0
  3 35  1  0
  4 36  1  0
  4 37  1  0
  5 38  1  0
  5 39  1  0
  6 40  1  0
  9 41  1  0
 10 42  1  0
 11 43  1  0
 12 44  1  0
 15 45  1  0
 15 46  1  0
 15 47  1  0
 17 48  1  0
 19 49  1  0
 22 50  1  0
 24 51  1  0
 24 52  1  0
 24 53  1  0
 26 54  1  0
 27 55  1  0
M  CHG  2  14   1  21   1
M  END
>  <UniqueID>  (21) 
21

>  <SMILES>  (21) 
CCNCCNc1c2ccccc2[n+](C)c2[nH]c3cc([S@@+](O)C(C)=O)ccc3c12

>  <Energy>  (21) 
105.06830213027523

>  <Genealogy>  (21) 
CCNCCNc1c2ccccc2[n+](C)c2[nH]c3cc([S+](O)C(C)=O)ccc3c12 (protonated)
CCNCCNc1c2ccccc2[n+](C)c2[nH]c3cc([S@@+](O)C(C)=O)ccc3c12 (chirality)
CCNCCNc1c2ccccc2[n+](C)c2[nH]c3cc([S@@+](O)C(C)=O)ccc3c12 (3D coordinates assigned)
CCNCCNc1c2ccccc2[n+](C)c2[nH]c3cc([S@@+](O)C(C)=O)ccc3c12 (optimized conformer: 105.06830213027523 kcal/mol)

>  <smiles>  (21) 
CCNCCNc1c2ccccc2[n+](C)c2[nH]c3cc([S+]([O-])C(C)=O)ccc3c12

>  <score_type>  (21) 
oracle

>  <origin>  (21) 
adg

>  <m_score__min__energy>  (21) 
-6.0300000000000002

>  <m_primary>  (21) 
energy

$$$$
21:0
     RDKit          3D

 55 57  0  0  0  0  0  0  0  0999 V2000
   62.7270   33.8370   46.3370 C   0  0  0  0  0  0  0  0  0  0  0  0
   63.7700   33.7240   47.4580 C   0  0  0  0  0  0  0  0  0  0  0  0
   63.8610   32.3800   48.0930 N   0  0  0  0  0  0  0  0  0  0  0  0
   64.3150   32.4170   49.5080 C   0  0  0  0  0  0  0  0  0  0  0  0
   63.7760   33.6240   50.2830 C   0  0  0  0  0  0  0  0  0  0  0  0
   62.5920   31.6120   48.0030 C   0  0  0  0  0  0  0  0  0  0  0  0
   62.2940   30.8690   49.2410 N   0  0  0  0  0  0  0  0  0  0  0  0
   60.9980   31.2020   49.8600 C   0  0  0  0  0  0  0  0  0  0  0  0
   59.8000   30.4840   49.2060 C   0  0  0  0  0  0  0  0  0  0  0  0
   60.2040   29.6910   48.0440 N   0  0  0  0  0  0  0  0  0  0  0  0
   59.3320   29.5700   46.9110 C   0  0  0  0  0  0  0  0  0  0  0  0
   58.8530   28.3120   46.5100 C   0  0  0  0  0  0  0  0  0  0  0  0
   59.2250   27.1420   47.2060 C   0  0  0  0  0  0  0  0  0  0  0  0
   58.7010   25.9030   46.8460 C   0  0  0  0  0  0  0  0  0  0  0  0
   57.7940   25.8090   45.7970 C   0  0  0  0  0  0  0  0  0  0  0  0
   57.4340   26.9470   45.0780 C   0  0  0  0  0  0  0  0  0  0  0  0
   57.9850   28.2160   45.3890 C   0  0  0  0  0  0  0  0  0  0  0  0
   57.6920   29.3430   44.6410 N   0  0  0  0  0  0  0  0  0  0  0  0
   57.0310   29.2030   43.3230 C   0  0  0  0  0  0  0  0  0  0  0  0
   58.0430   30.5960   45.1090 C   0  0  0  0  0  0  0  0  0  0  0  0
   57.5470   31.7830   44.5110 C   0  0  0  0  0  0  0  0  0  0  0  0
   57.9490   33.0400   44.9620 C   0  0  0  0  0  0  0  0  0  0  0  0
   58.8380   33.1510   46.0260 C   0  0  0  0  0  0  0  0  0  0  0  0
   59.3850   34.8760   46.6380 Br  0  0  0  0  0  0  0  0  0  0  0  0
   59.3090   32.0040   46.6620 C   0  0  0  0  0  0  0  0  0  0  0  0
   58.9060   30.7230   46.2290 C   0  0  0  0  0  0  0  0  0  0  0  0
   61.7251   33.9456   46.7779 H   0  0  0  0  0  0  0  0  0  0  0  0
   62.9511   34.7161   45.7150 H   0  0  0  0  0  0  0  0  0  0  0  0
   62.7576   32.9303   45.7150 H   0  0  0  0  0  0  0  0  0  0  0  0
   64.7551   33.9700   47.0349 H   0  0  0  0  0  0  0  0  0  0  0  0
   63.4514   34.4192   48.2487 H   0  0  0  0  0  0  0  0  0  0  0  0
   64.5890   31.8430   47.5670 H   0  0  0  0  0  0  0  0  0  0  0  0
   63.9737   31.4990   50.0089 H   0  0  0  0  0  0  0  0  0  0  0  0
   65.4119   32.4983   49.4975 H   0  0  0  0  0  0  0  0  0  0  0  0
   63.8609   33.4339   51.3631 H   0  0  0  0  0  0  0  0  0  0  0  0
   64.3602   34.5185   50.0211 H   0  0  0  0  0  0  0  0  0  0  0  0
   62.7200   33.7861   50.0211 H   0  0  0  0  0  0  0  0  0  0  0  0
   61.7681   32.3135   47.8054 H   0  0  0  0  0  0  0  0  0  0  0  0
   62.7015   30.8785   47.1906 H   0  0  0  0  0  0  0  0  0  0  0  0
   62.3170   29.8440   49.0300 H   0  0  0  0  0  0  0  0  0  0  0  0
   61.0364   30.9180   50.9220 H   0  0  0  0  0  0  0  0  0  0  0  0
   60.8420   32.2821   49.7218 H   0  0  0  0  0  0  0  0  0  0  0  0
   59.3377   29.8165   49.9481 H   0  0  0  0  0  0  0  0  0  0  0  0
   59.0897   31.2510   48.8637 H   0  0  0  0  0  0  0  0  0  0  0  0
   61.2010   29.4050   47.9180 H   0  0  0  0  0  0  0  0  0  0  0  0
   59.9367   27.2095   48.0420 H   0  0  0  0  0  0  0  0  0  0  0  0
   59.0052   24.9980   47.3923 H   0  0  0  0  0  0  0  0  0  0  0  0
   57.3592   24.8335   45.5337 H   0  0  0  0  0  0  0  0  0  0  0  0
   56.7097   26.8594   44.2548 H   0  0  0  0  0  0  0  0  0  0  0  0
   55.9645   28.9771   43.4698 H   0  0  0  0  0  0  0  0  0  0  0  0
   57.1327   30.1426   42.7602 H   0  0  0  0  0  0  0  0  0  0  0  0
   57.5049   28.3853   42.7602 H   0  0  0  0  0  0  0  0  0  0  0  0
   56.8331   31.7107   43.6773 H   0  0  0  0  0  0  0  0  0  0  0  0
   57.5617   33.9468   44.4746 H   0  0  0  0  0  0  0  0  0  0  0  0
   60.0024   32.0983   47.5107 H   0  0  0  0  0  0  0  0  0  0  0  0
  1  2  1  0
  2  3  1  0
  3  4  1  0
  4  5  1  0
  3  6  1  0
  6  7  1  0
  7  8  1  0
  8  9  1  0
  9 10  1  0
 10 11  1  0
 11 12  2  0
 12 13  1  0
 13 14  2  0
 14 15  1  0
 15 16  2  0
 16 17  1  0
 17 18  2  0
 18 19  1  0
 18 20  1  0
 20 21  2  0
 21 22  1  0
 22 23  2  0
 23 24  1  0
 23 25  1  0
 25 26  2  0
 26 11  1  0
 17 12  1  0
 26 20  1  0
  1 27  1  0
  1 28  1  0
  1 29  1  0
  2 30  1  0
  2 31  1  0
  3 32  1  0
  4 33  1  0
  4 34  1  0
  5 35  1  0
  5 36  1  0
  5 37  1  0
  6 38  1  0
  6 39  1  0
  7 40  1  0
  8 41  1  0
  8 42  1  0
  9 43  1  0
  9 44  1  0
 10 45  1  0
 13 46  1  0
 14 47  1  0
 15 48  1  0
 16 49  1  0
 19 50  1  0
 19 51  1  0
 19 52  1  0
 21 53  1  0
 22 54  1  0
 25 55  1  0
M  CHG  2   3   1  18   1
M  END
>  <UniqueID>  (22) 
22

>  <SMILES>  (22) 
CC[NH+](CC)CNCCNc1c2ccccc2[n+](C)c2ccc(Br)cc12

>  <Energy>  (22) 
86.82412122431444

>  <Genealogy>  (22) 
CC[NH+](CC)CNCCNc1c2ccccc2[n+](C)c2ccc(Br)cc12 (protonated)
CC[NH+](CC)CNCCNc1c2ccccc2[n+](C)c2ccc(Br)cc12 (3D coordinates assigned)
CC[NH+](CC)CNCCNc1c2ccccc2[n+](C)c2ccc(Br)cc12 (optimized conformer: 86.82412122431444 kcal/mol)

>  <smiles>  (22) 
CCN(CC)CNCCNc1c2ccccc2[n+](C)c2ccc(Br)cc12

>  <score_type>  (22) 
oracle

>  <origin>  (22) 
adg

>  <m_score__min__energy>  (22) 
-4.9100000000000001

>  <m_primary>  (22) 
energy

$$$$
22:0
     RDKit          3D

 64 65  0  0  0  0  0  0  0  0999 V2000
   63.3380   33.8430   46.5300 C   0  0  0  0  0  0  0  0  0  0  0  0
   62.8130   33.1020   47.5110 C   0  0  0  0  0  0  0  0  0  0  0  0
   62.1320   33.7280   48.7050 C   0  0  0  0  0  0  0  0  0  0  0  0
   60.7980   33.1380   48.9830 N   0  0  2  0  0  0  0  0  0  0  0  0
   60.6230   31.7720   48.4020 C   0  0  0  0  0  0  0  0  0  0  0  0
   59.6080   30.8690   49.1290 C   0  0  0  0  0  0  0  0  0  0  0  0
   58.8040   30.2040   48.1800 O   0  0  0  0  0  0  0  0  0  0  0  0
   59.6090   29.6810   47.1460 C   0  0  0  0  0  0  0  0  0  0  0  0
   59.1540   28.2820   46.8410 C   0  0  0  0  0  0  0  0  0  0  0  0
   60.0840   27.2540   46.6240 C   0  0  0  0  0  0  0  0  0  0  0  0
   59.6470   25.9620   46.3260 C   0  0  0  0  0  0  0  0  0  0  0  0
   58.2810   25.6860   46.2340 C   0  0  0  0  0  0  0  0  0  0  0  0
   57.3360   26.6990   46.4460 C   0  0  0  0  0  0  0  0  0  0  0  0
   55.9750   26.3780   46.3290 O   0  0  0  0  0  0  0  0  0  0  0  0
   55.4770   25.2070   45.6890 C   0  0  0  0  0  0  0  0  0  0  0  0
   57.7810   27.9990   46.7600 C   0  0  0  0  0  0  0  0  0  0  0  0
   59.7360   34.0960   48.5800 C   0  0  0  0  0  0  0  0  0  0  0  0
   59.1550   33.7880   47.2190 C   0  0  0  0  0  0  0  0  0  0  0  0
   57.9440   33.0860   47.1050 C   0  0  0  0  0  0  0  0  0  0  0  0
   57.3850   32.8370   45.8490 C   0  0  0  0  0  0  0  0  0  0  0  0
   58.0300   33.2920   44.6810 C   0  0  0  0  0  0  0  0  0  0  0  0
   57.5110   33.0760   43.3940 O   0  0  0  0  0  0  0  0  0  0  0  0
   57.8420   31.9810   42.5390 C   0  0  0  0  0  0  0  0  0  0  0  0
   56.7110   30.9460   42.5280 C   0  0  0  0  0  0  0  0  0  0  0  0
   57.0160   29.8300   43.4490 N   0  0  0  0  0  0  0  0  0  0  0  0
   58.2950   30.0550   44.1440 C   0  0  0  0  0  0  0  0  0  0  0  0
   55.9400   29.6830   44.4430 C   0  0  0  0  0  0  0  0  0  0  0  0
   59.2410   33.9850   44.7990 C   0  0  0  0  0  0  0  0  0  0  0  0
   59.7990   34.2360   46.0550 C   0  0  0  0  0  0  0  0  0  0  0  0
   63.8273   33.3553   45.6740 H   0  0  0  0  0  0  0  0  0  0  0  0
   63.2807   34.9404   46.5788 H   0  0  0  0  0  0  0  0  0  0  0  0
   62.8788   32.0058   47.4469 H   0  0  0  0  0  0  0  0  0  0  0  0
   62.7707   33.5842   49.5889 H   0  0  0  0  0  0  0  0  0  0  0  0
   61.9814   34.7938   48.4785 H   0  0  0  0  0  0  0  0  0  0  0  0
   60.7210   33.0310   50.0220 H   0  0  0  0  0  0  0  0  0  0  0  0
   60.2897   31.8867   47.3600 H   0  0  0  0  0  0  0  0  0  0  0  0
   61.5982   31.2731   48.5021 H   0  0  0  0  0  0  0  0  0  0  0  0
   60.1470   30.1272   49.7367 H   0  0  0  0  0  0  0  0  0  0  0  0
   58.9711   31.4851   49.7808 H   0  0  0  0  0  0  0  0  0  0  0  0
   59.5092   30.3068   46.2469 H   0  0  0  0  0  0  0  0  0  0  0  0
   60.6631   29.6718   47.4604 H   0  0  0  0  0  0  0  0  0  0  0  0
   61.1613   27.4668   46.6889 H   0  0  0  0  0  0  0  0  0  0  0  0
   60.3808   25.1589   46.1632 H   0  0  0  0  0  0  0  0  0  0  0  0
   57.9446   24.6667   45.9935 H   0  0  0  0  0  0  0  0  0  0  0  0
   55.1664   24.4767   46.4508 H   0  0  0  0  0  0  0  0  0  0  0  0
   54.6135   25.4715   45.0610 H   0  0  0  0  0  0  0  0  0  0  0  0
   56.2665   24.7685   45.0610 H   0  0  0  0  0  0  0  0  0  0  0  0
   57.0473   28.7978   46.9430 H   0  0  0  0  0  0  0  0  0  0  0  0
   58.9270   34.0575   49.3244 H   0  0  0  0  0  0  0  0  0  0  0  0
   60.1939   35.0947   48.5263 H   0  0  0  0  0  0  0  0  0  0  0  0
   57.4320   32.7297   48.0110 H   0  0  0  0  0  0  0  0  0  0  0  0
   56.4376   32.2836   45.7712 H   0  0  0  0  0  0  0  0  0  0  0  0
   58.0000   32.3551   41.5167 H   0  0  0  0  0  0  0  0  0  0  0  0
   58.7584   31.5019   42.9139 H   0  0  0  0  0  0  0  0  0  0  0  0
   55.7753   31.4300   42.8444 H   0  0  0  0  0  0  0  0  0  0  0  0
   56.6074   30.5456   41.5087 H   0  0  0  0  0  0  0  0  0  0  0  0
   58.1314   30.0262   45.2314 H   0  0  0  0  0  0  0  0  0  0  0  0
   59.0100   29.2688   43.8598 H   0  0  0  0  0  0  0  0  0  0  0  0
   58.6988   31.0380   43.8598 H   0  0  0  0  0  0  0  0  0  0  0  0
   56.3658   29.7412   45.4556 H   0  0  0  0  0  0  0  0  0  0  0  0
   55.2036   30.4889   44.3081 H   0  0  0  0  0  0  0  0  0  0  0  0
   55.4467   28.7091   44.3081 H   0  0  0  0  0  0  0  0  0  0  0  0
   59.7582   34.3353   43.8936 H   0  0  0  0  0  0  0  0  0  0  0  0
   60.7477   34.7874   46.1321 H   0  0  0  0  0  0  0  0  0  0  0  0
  1  2  2  0
  2  3  1  0
  3  4  1  0
  4  5  1  0
  5  6  1  0
  6  7  1  0
  7  8  1  0
  8  9  1  0
  9 10  2  0
 10 11  1  0
 11 12  2  0
 12 13  1  0
 13 14  1  0
 14 15  1  0
 13 16  2  0
  4 17  1  0
 17 18  1  0
 18 19  2  0
 19 20  1  0
 20 21  2  0
 21 22  1  0
 22 23  1  0
 23 24  1  0
 24 25  1  0
 25 26  1  0
 25 27  1  0
 21 28  1  0
 28 29  2  0
 16  9  1  0
 29 18  1  0
  1 30  1  0
  1 31  1  0
  2 32  1  0
  3 33  1  0
  3 34  1  0
  4 35  1  1
  5 36  1  0
  5 37  1  0
  6 38  1  0
  6 39  1  0
  8 40  1  0
  8 41  1  0
 10 42  1  0
 11 43  1  0
 12 44  1  0
 15 45  1  0
 15 46  1  0
 15 47  1  0
 16 48  1  0
 17 49  1  0
 17 50  1  0
 19 51  1  0
 20 52  1  0
 23 53  1  0
 23 54  1  0
 24 55  1  0
 24 56  1  0
 26 57  1  0
 26 58  1  0
 26 59  1  0
 27 60  1  0
 27 61  1  0
 27 62  1  0
 28 63  1  0
 29 64  1  0
M  CHG  1   4   1
M  END
>  <UniqueID>  (23) 
23

>  <SMILES>  (23) 
C=CC[N@H+](CCOCc1cccc(OC)c1)Cc1ccc(OCCN(C)C)cc1

>  <Energy>  (23) 
64.17694631556618

>  <Genealogy>  (23) 
C=CC[NH+](CCOCc1cccc(OC)c1)Cc1ccc(OCCN(C)C)cc1 (protonated)
C=CC[N@H+](CCOCc1cccc(OC)c1)Cc1ccc(OCCN(C)C)cc1 (chirality)
C=CC[N@H+](CCOCc1cccc(OC)c1)Cc1ccc(OCCN(C)C)cc1 (3D coordinates assigned)
C=CC[N@H+](CCOCc1cccc(OC)c1)Cc1ccc(OCCN(C)C)cc1 (optimized conformer: 64.17694631556618 kcal/mol)

>  <smiles>  (23) 
C=CCN(CCOCc1cccc(OC)c1)Cc1ccc(OCCN(C)C)cc1

>  <score_type>  (23) 
oracle

>  <origin>  (23) 
adg

>  <m_score__min__energy>  (23) 
-6.0499999999999998

>  <m_primary>  (23) 
energy

$$$$
23:0
     RDKit          3D

 36 38  0  0  0  0  0  0  0  0999 V2000
   56.9740   27.1940   45.6510 C   0  0  0  0  0  0  0  0  0  0  0  0
   56.7030   28.5950   45.2230 C   0  0  0  0  0  0  0  0  0  0  0  0
   57.6360   29.5660   45.1900 N   0  0  0  0  0  0  0  0  0  0  0  0
   56.9040   30.6180   44.7660 C   0  0  0  0  0  0  0  0  0  0  0  0
   57.4600   32.0020   44.6130 C   0  0  2  0  0  0  0  0  0  0  0  0
   58.9040   32.0680   45.1600 C   0  0  0  0  0  0  0  0  0  0  0  0
   59.2430   33.4020   45.7040 N   0  0  0  0  0  0  0  0  0  0  0  0
   59.3670   33.4700   47.1790 C   0  0  0  0  0  0  0  0  0  0  0  0
   60.7940   33.5760   47.6670 C   0  0  0  0  0  0  0  0  0  0  0  0
   61.8670   33.3970   46.7810 C   0  0  0  0  0  0  0  0  0  0  0  0
   63.1790   33.5130   47.2390 C   0  0  0  0  0  0  0  0  0  0  0  0
   63.4120   33.7940   48.5860 C   0  0  0  0  0  0  0  0  0  0  0  0
   62.3650   33.9450   49.4420 N   0  0  0  0  0  0  0  0  0  0  0  0
   61.0770   33.8370   49.0170 C   0  0  0  0  0  0  0  0  0  0  0  0
   58.5040   34.5210   45.0860 C   0  0  0  0  0  0  0  0  0  0  0  0
   56.9880   34.2390   44.9460 C   0  0  0  0  0  0  0  0  0  0  0  0
   56.6370   32.9170   45.3040 O   0  0  0  0  0  0  0  0  0  0  0  0
   55.6060   30.3050   44.5800 N   0  0  0  0  0  0  0  0  0  0  0  0
   55.5240   29.0430   44.8680 O   0  0  0  0  0  0  0  0  0  0  0  0
   56.9841   27.1417   46.7497 H   0  0  0  0  0  0  0  0  0  0  0  0
   56.1872   26.5323   45.2597 H   0  0  0  0  0  0  0  0  0  0  0  0
   57.9508   26.8735   45.2597 H   0  0  0  0  0  0  0  0  0  0  0  0
   57.4822   32.2641   43.5449 H   0  0  0  0  0  0  0  0  0  0  0  0
   59.0122   31.3222   45.9613 H   0  0  0  0  0  0  0  0  0  0  0  0
   59.5883   31.8643   44.3232 H   0  0  0  0  0  0  0  0  0  0  0  0
   58.8129   34.3517   47.5334 H   0  0  0  0  0  0  0  0  0  0  0  0
   58.9608   32.5290   47.5784 H   0  0  0  0  0  0  0  0  0  0  0  0
   61.6730   33.1648   45.7234 H   0  0  0  0  0  0  0  0  0  0  0  0
   64.0226   33.3842   46.5449 H   0  0  0  0  0  0  0  0  0  0  0  0
   64.4431   33.8935   48.9561 H   0  0  0  0  0  0  0  0  0  0  0  0
   62.5550   34.1480   50.4490 H   0  0  0  0  0  0  0  0  0  0  0  0
   60.2525   33.9549   49.7355 H   0  0  0  0  0  0  0  0  0  0  0  0
   58.6380   35.4169   45.7100 H   0  0  0  0  0  0  0  0  0  0  0  0
   58.9078   34.6630   44.0727 H   0  0  0  0  0  0  0  0  0  0  0  0
   56.4401   34.9358   45.5974 H   0  0  0  0  0  0  0  0  0  0  0  0
   56.7244   34.3742   43.8866 H   0  0  0  0  0  0  0  0  0  0  0  0
  1  2  1  0
  2  3  2  0
  3  4  1  0
  4  5  1  0
  5  6  1  0
  6  7  1  0
  7  8  1  0
  8  9  1  0
  9 10  2  0
 10 11  1  0
 11 12  2  0
 12 13  1  0
 13 14  2  0
  7 15  1  0
 15 16  1  0
 16 17  1  0
  4 18  2  0
 18 19  1  0
 19  2  1  0
 17  5  1  0
 14  9  1  0
  1 20  1  0
  1 21  1  0
  1 22  1  0
  5 23  1  6
  6 24  1  0
  6 25  1  0
  8 26  1  0
  8 27  1  0
 10 28  1  0
 11 29  1  0
 12 30  1  0
 13 31  1  0
 14 32  1  0
 15 33  1  0
 15 34  1  0
 16 35  1  0
 16 36  1  0
M  CHG  1  13   1
M  END
>  <UniqueID>  (24) 
24

>  <SMILES>  (24) 
Cc1nc([C@@H]2CN(Cc3ccc[nH+]c3)CCO2)no1

>  <Energy>  (24) 
82.5096409799143

>  <Genealogy>  (24) 
Cc1nc(C2CN(Cc3ccc[nH+]c3)CCO2)no1 (protonated)
Cc1nc([C@@H]2CN(Cc3ccc[nH+]c3)CCO2)no1 (chirality)
Cc1nc([C@@H]2CN(Cc3ccc[nH+]c3)CCO2)no1 (3D coordinates assigned)
Cc1nc([C@@H]2CN(Cc3ccc[nH+]c3)CCO2)no1 (nonaromatic ring conformer: 82.5096409799143 kcal/mol)

>  <smiles>  (24) 
Cc1nc(C2CN(Cc3cccnc3)CCO2)no1

>  <score_type>  (24) 
oracle

>  <origin>  (24) 
adg

>  <m_score__min__energy>  (24) 
-6.2999999999999998

>  <m_primary>  (24) 
energy

$$$$
24:0
     RDKit          3D

 52 54  0  0  0  0  0  0  0  0999 V2000
   63.3580   32.7170   47.4480 C   0  0  0  0  0  0  0  0  0  0  0  0
   63.3030   33.0530   48.9360 C   0  0  0  0  0  0  0  0  0  0  0  0
   62.0040   32.6690   49.5140 N   0  0  0  0  0  0  0  0  0  0  0  0
   61.2560   33.8360   50.0180 C   0  0  0  0  0  0  0  0  0  0  0  0
   60.0290   34.1620   49.1510 C   0  0  0  0  0  0  0  0  0  0  0  0
   60.2700   33.8000   47.8040 O   0  0  0  0  0  0  0  0  0  0  0  0
   59.0890   33.8800   47.0280 C   0  0  0  0  0  0  0  0  0  0  0  0
   59.3330   33.3110   45.6300 C   0  0  0  0  0  0  0  0  0  0  0  0
   59.0010   31.8830   45.6010 N   0  0  0  0  0  0  0  0  0  0  0  0
   58.1610   31.2580   44.7350 C   0  0  0  0  0  0  0  0  0  0  0  0
   57.9700   29.9370   45.1070 C   0  0  0  0  0  0  0  0  0  0  0  0
   58.7520   29.7400   46.2240 C   0  0  0  0  0  0  0  0  0  0  0  0
   58.9510   28.6080   47.0100 C   0  0  0  0  0  0  0  0  0  0  0  0
   59.7980   28.7240   48.1240 C   0  0  0  0  0  0  0  0  0  0  0  0
   60.4210   29.9640   48.4370 C   0  0  0  0  0  0  0  0  0  0  0  0
   61.2720   30.1170   49.5420 O   0  0  0  0  0  0  0  0  0  0  0  0
   61.3480   29.2000   50.6300 C   0  0  0  0  0  0  0  0  0  0  0  0
   60.1900   31.0870   47.6180 C   0  0  0  0  0  0  0  0  0  0  0  0
   59.3550   30.9420   46.5080 C   0  0  0  0  0  0  0  0  0  0  0  0
   57.1150   28.9590   44.3610 C   0  0  0  0  0  0  0  0  0  0  0  0
   56.1150   29.7030   43.4580 C   0  0  0  0  0  0  0  0  0  0  0  0
   56.7990   30.8390   42.6700 C   0  0  0  0  0  0  0  0  0  0  0  0
   57.4020   31.9040   43.6080 C   0  0  0  0  0  0  0  0  0  0  0  0
   63.5345   31.6386   47.3219 H   0  0  0  0  0  0  0  0  0  0  0  0
   62.4032   32.9900   46.9749 H   0  0  0  0  0  0  0  0  0  0  0  0
   64.1759   33.2802   46.9749 H   0  0  0  0  0  0  0  0  0  0  0  0
   64.1042   32.5092   49.4578 H   0  0  0  0  0  0  0  0  0  0  0  0
   63.4339   34.1386   49.0562 H   0  0  0  0  0  0  0  0  0  0  0  0
   61.4260   32.2130   48.7670 H   0  0  0  0  0  0  0  0  0  0  0  0
   62.1480   31.9720   50.2830 H   0  0  0  0  0  0  0  0  0  0  0  0
   60.9183   33.6238   51.0432 H   0  0  0  0  0  0  0  0  0  0  0  0
   61.9293   34.7054   49.9884 H   0  0  0  0  0  0  0  0  0  0  0  0
   59.1597   33.6027   49.5272 H   0  0  0  0  0  0  0  0  0  0  0  0
   59.8318   35.2430   49.2015 H   0  0  0  0  0  0  0  0  0  0  0  0
   58.2917   33.3038   47.5202 H   0  0  0  0  0  0  0  0  0  0  0  0
   58.7909   34.9350   46.9379 H   0  0  0  0  0  0  0  0  0  0  0  0
   58.7023   33.8458   44.9046 H   0  0  0  0  0  0  0  0  0  0  0  0
   60.3942   33.4388   45.3700 H   0  0  0  0  0  0  0  0  0  0  0  0
   58.4607   27.6540   46.7662 H   0  0  0  0  0  0  0  0  0  0  0  0
   59.9817   27.8466   48.7615 H   0  0  0  0  0  0  0  0  0  0  0  0
   61.3022   29.7532   51.5797 H   0  0  0  0  0  0  0  0  0  0  0  0
   60.5052   28.4953   50.5751 H   0  0  0  0  0  0  0  0  0  0  0  0
   62.2953   28.6436   50.5751 H   0  0  0  0  0  0  0  0  0  0  0  0
   60.6569   32.0562   47.8477 H   0  0  0  0  0  0  0  0  0  0  0  0
   57.7563   28.3165   43.7398 H   0  0  0  0  0  0  0  0  0  0  0  0
   56.5566   28.3473   45.0849 H   0  0  0  0  0  0  0  0  0  0  0  0
   55.6765   28.9883   42.7460 H   0  0  0  0  0  0  0  0  0  0  0  0
   55.3378   30.1469   44.0974 H   0  0  0  0  0  0  0  0  0  0  0  0
   57.6033   30.4108   42.0538 H   0  0  0  0  0  0  0  0  0  0  0  0
   56.0379   31.3268   42.0433 H   0  0  0  0  0  0  0  0  0  0  0  0
   58.0869   32.5444   43.0329 H   0  0  0  0  0  0  0  0  0  0  0  0
   56.5829   32.5026   44.0332 H   0  0  0  0  0  0  0  0  0  0  0  0
  1  2  1  0
  2  3  1  0
  3  4  1  0
  4  5  1  0
  5  6  1  0
  6  7  1  0
  7  8  1  0
  8  9  1  0
  9 10  1  0
 10 11  2  0
 11 12  1  0
 12 13  2  0
 13 14  1  0
 14 15  2  0
 15 16  1  0
 16 17  1  0
 15 18  1  0
 18 19  2  0
 11 20  1  0
 20 21  1  0
 21 22  1  0
 22 23  1  0
 19  9  1  0
 23 10  1  0
 19 12  1  0
  1 24  1  0
  1 25  1  0
  1 26  1  0
  2 27  1  0
  2 28  1  0
  3 29  1  0
  3 30  1  0
  4 31  1  0
  4 32  1  0
  5 33  1  0
  5 34  1  0
  7 35  1  0
  7 36  1  0
  8 37  1  0
  8 38  1  0
 13 39  1  0
 14 40  1  0
 17 41  1  0
 17 42  1  0
 17 43  1  0
 18 44  1  0
 20 45  1  0
 20 46  1  0
 21 47  1  0
 21 48  1  0
 22 49  1  0
 22 50  1  0
 23 51  1  0
 23 52  1  0
M  CHG  1   3   1
M  END
>  <UniqueID>  (25) 
25

>  <SMILES>  (25) 
CC[NH2+]CCOCCn1c2c(c3ccc(OC)cc31)CCCC2

>  <Energy>  (25) 
81.60725658263033

>  <Genealogy>  (25) 
CC[NH2+]CCOCCn1c2c(c3ccc(OC)cc31)CCCC2 (protonated)
CC[NH2+]CCOCCn1c2c(c3ccc(OC)cc31)CCCC2 (3D coordinates assigned)
CC[NH2+]CCOCCn1c2c(c3ccc(OC)cc31)CCCC2 (nonaromatic ring conformer: 81.60725658263033 kcal/mol)

>  <smiles>  (25) 
CCNCCOCCn1c2c(c3ccc(OC)cc31)CCCC2

>  <score_type>  (25) 
oracle

>  <origin>  (25) 
adg

>  <m_score__min__energy>  (25) 
-5.4199999999999999

>  <m_primary>  (25) 
energy

$$$$
25:0
     RDKit          3D

 62 65  0  0  0  0  0  0  0  0999 V2000
   63.1840   33.7730   46.5670 C   0  0  0  0  0  0  0  0  0  0  0  0
   62.7990   32.4390   47.2140 C   0  0  0  0  0  0  0  0  0  0  0  0
   63.7910   31.9850   48.2030 N   0  0  0  0  0  0  0  0  0  0  0  0
   64.4170   33.1050   48.9280 C   0  0  0  0  0  0  0  0  0  0  0  0
   65.1060   32.6060   50.2100 C   0  0  0  0  0  0  0  0  0  0  0  0
   64.8420   31.2370   50.4500 O   0  0  0  0  0  0  0  0  0  0  0  0
   64.1080   31.0520   51.6490 C   0  0  0  0  0  0  0  0  0  0  0  0
   62.8050   30.3310   51.3370 C   0  0  0  0  0  0  0  0  0  0  0  0
   62.3550   30.7270   50.0530 O   0  0  0  0  0  0  0  0  0  0  0  0
   60.9450   30.6850   49.9580 C   0  0  0  0  0  0  0  0  0  0  0  0
   60.5000   30.0780   48.6200 C   0  0  0  0  0  0  0  0  0  0  0  0
   59.2140   30.6310   48.1800 N   0  0  0  0  0  0  0  0  0  0  0  0
   58.9990   31.0770   46.8340 C   0  0  0  0  0  0  0  0  0  0  0  0
   59.0780   32.4470   46.4790 C   0  0  0  0  0  0  0  0  0  0  0  0
   59.5530   33.4030   47.3990 C   0  0  0  0  0  0  0  0  0  0  0  0
   59.6540   34.7450   47.0400 C   0  0  0  0  0  0  0  0  0  0  0  0
   59.3120   35.1550   45.7570 C   0  0  0  0  0  0  0  0  0  0  0  0
   58.8570   34.2290   44.8170 C   0  0  0  0  0  0  0  0  0  0  0  0
   58.7190   32.8600   45.1500 C   0  0  0  0  0  0  0  0  0  0  0  0
   58.2740   31.9290   44.2220 N   0  0  0  0  0  0  0  0  0  0  0  0
   57.7880   32.3370   42.8910 C   0  0  0  0  0  0  0  0  0  0  0  0
   58.3270   30.6010   44.5590 C   0  0  0  0  0  0  0  0  0  0  0  0
   58.0590   29.5510   43.7430 N   0  0  0  0  0  0  0  0  0  0  0  0
   58.2450   28.4560   44.5060 C   0  0  0  0  0  0  0  0  0  0  0  0
   58.1060   27.1270   44.1070 C   0  0  0  0  0  0  0  0  0  0  0  0
   58.3730   26.1210   45.0520 C   0  0  0  0  0  0  0  0  0  0  0  0
   58.7870   26.4580   46.3560 C   0  0  0  0  0  0  0  0  0  0  0  0
   58.9330   27.8050   46.7340 C   0  0  0  0  0  0  0  0  0  0  0  0
   58.6340   28.7880   45.7880 C   0  0  0  0  0  0  0  0  0  0  0  0
   58.6840   30.1720   45.8230 C   0  0  0  0  0  0  0  0  0  0  0  0
   63.3976   34.5132   47.3522 H   0  0  0  0  0  0  0  0  0  0  0  0
   64.0783   33.6328   45.9421 H   0  0  0  0  0  0  0  0  0  0  0  0
   62.3525   34.1309   45.9421 H   0  0  0  0  0  0  0  0  0  0  0  0
   61.8282   32.5582   47.7172 H   0  0  0  0  0  0  0  0  0  0  0  0
   62.7511   31.6824   46.4170 H   0  0  0  0  0  0  0  0  0  0  0  0
   64.5320   31.4540   47.6900 H   0  0  0  0  0  0  0  0  0  0  0  0
   63.3390   31.3340   48.8860 H   0  0  0  0  0  0  0  0  0  0  0  0
   65.1654   33.5824   48.2783 H   0  0  0  0  0  0  0  0  0  0  0  0
   63.6354   33.8277   49.2051 H   0  0  0  0  0  0  0  0  0  0  0  0
   66.1922   32.7465   50.1082 H   0  0  0  0  0  0  0  0  0  0  0  0
   64.7101   33.1842   51.0579 H   0  0  0  0  0  0  0  0  0  0  0  0
   64.7010   30.4502   52.3533 H   0  0  0  0  0  0  0  0  0  0  0  0
   63.8877   32.0308   52.1000 H   0  0  0  0  0  0  0  0  0  0  0  0
   62.9727   29.2439   51.3500 H   0  0  0  0  0  0  0  0  0  0  0  0
   62.0477   30.5884   52.0921 H   0  0  0  0  0  0  0  0  0  0  0  0
   60.5474   30.0724   50.7806 H   0  0  0  0  0  0  0  0  0  0  0  0
   60.5594   31.7133   50.0211 H   0  0  0  0  0  0  0  0  0  0  0  0
   61.2624   30.2957   47.8575 H   0  0  0  0  0  0  0  0  0  0  0  0
   60.3808   28.9929   48.7558 H   0  0  0  0  0  0  0  0  0  0  0  0
   58.4240   30.6860   48.8600 H   0  0  0  0  0  0  0  0  0  0  0  0
   59.8469   33.0863   48.4106 H   0  0  0  0  0  0  0  0  0  0  0  0
   60.0060   35.4835   47.7753 H   0  0  0  0  0  0  0  0  0  0  0  0
   59.4004   36.2160   45.4805 H   0  0  0  0  0  0  0  0  0  0  0  0
   58.6018   34.5681   43.8022 H   0  0  0  0  0  0  0  0  0  0  0  0
   56.9502   33.0404   43.0063 H   0  0  0  0  0  0  0  0  0  0  0  0
   58.6031   32.8254   42.3369 H   0  0  0  0  0  0  0  0  0  0  0  0
   57.4482   31.4496   42.3369 H   0  0  0  0  0  0  0  0  0  0  0  0
   57.8030   29.5510   42.7320 H   0  0  0  0  0  0  0  0  0  0  0  0
   57.7964   26.8732   43.0824 H   0  0  0  0  0  0  0  0  0  0  0  0
   58.2579   25.0636   44.7715 H   0  0  0  0  0  0  0  0  0  0  0  0
   58.9978   25.6611   47.0844 H   0  0  0  0  0  0  0  0  0  0  0  0
   59.2725   28.0761   47.7446 H   0  0  0  0  0  0  0  0  0  0  0  0
  1  2  1  0
  2  3  1  0
  3  4  1  0
  4  5  1  0
  5  6  1  0
  6  7  1  0
  7  8  1  0
  8  9  1  0
  9 10  1  0
 10 11  1  0
 11 12  1  0
 12 13  1  0
 13 14  2  0
 14 15  1  0
 15 16  2  0
 16 17  1  0
 17 18  2  0
 18 19  1  0
 19 20  2  0
 20 21  1  0
 20 22  1  0
 22 23  1  0
 23 24  1  0
 24 25  2  0
 25 26  1  0
 26 27  2  0
 27 28  1  0
 28 29  2  0
 29 30  1  0
 30 13  1  0
 19 14  1  0
 30 22  2  0
 29 24  1  0
  1 31  1  0
  1 32  1  0
  1 33  1  0
  2 34  1  0
  2 35  1  0
  3 36  1  0
  3 37  1  0
  4 38  1  0
  4 39  1  0
  5 40  1  0
  5 41  1  0
  7 42  1  0
  7 43  1  0
  8 44  1  0
  8 45  1  0
 10 46  1  0
 10 47  1  0
 11 48  1  0
 11 49  1  0
 12 50  1  0
 15 51  1  0
 16 52  1  0
 17 53  1  0
 18 54  1  0
 21 55  1  0
 21 56  1  0
 21 57  1  0
 23 58  1  0
 25 59  1  0
 26 60  1  0
 27 61  1  0
 28 62  1  0
M  CHG  2   3   1  20   1
M  END
>  <UniqueID>  (26) 
26

>  <SMILES>  (26) 
CC[NH2+]CCOCCOCCNc1c2ccccc2[n+](C)c2[nH]c3ccccc3c12

>  <Energy>  (26) 
120.58171568193633

>  <Genealogy>  (26) 
CC[NH2+]CCOCCOCCNc1c2ccccc2[n+](C)c2[nH]c3ccccc3c12 (protonated)
CC[NH2+]CCOCCOCCNc1c2ccccc2[n+](C)c2[nH]c3ccccc3c12 (3D coordinates assigned)
CC[NH2+]CCOCCOCCNc1c2ccccc2[n+](C)c2[nH]c3ccccc3c12 (optimized conformer: 120.58171568193633 kcal/mol)

>  <smiles>  (26) 
CCNCCOCCOCCNc1c2ccccc2[n+](C)c2[nH]c3ccccc3c12

>  <score_type>  (26) 
oracle

>  <origin>  (26) 
adg

>  <m_score__min__energy>  (26) 
-5.5999999999999996

>  <m_primary>  (26) 
energy

$$$$
26:0
     RDKit          3D

 59 62  0  0  0  0  0  0  0  0999 V2000
   56.6190   23.2580   43.0250 C   0  0  0  0  0  0  0  0  0  0  0  0
   55.7720   23.8820   44.1390 C   0  0  0  0  0  0  0  0  0  0  0  0
   56.4620   25.0140   44.8080 N   0  0  1  0  0  0  0  0  0  0  0  0
   55.6740   25.5530   45.9340 C   0  0  0  0  0  0  0  0  0  0  0  0
   57.8400   24.6510   45.2260 C   0  0  0  0  0  0  0  0  0  0  0  0
   58.5210   25.6910   46.1400 C   0  0  0  0  0  0  0  0  0  0  0  0
   59.2130   26.6920   45.3290 N   0  0  0  0  0  0  0  0  0  0  0  0
   59.3430   28.0850   45.6910 C   0  0  0  0  0  0  0  0  0  0  0  0
   60.2900   28.4930   46.6460 C   0  0  0  0  0  0  0  0  0  0  0  0
   60.4360   29.8360   46.9800 C   0  0  0  0  0  0  0  0  0  0  0  0
   59.7040   30.8280   46.3080 C   0  0  0  0  0  0  0  0  0  0  0  0
   58.7410   30.4320   45.3500 C   0  0  0  0  0  0  0  0  0  0  0  0
   58.5150   29.0630   45.0890 C   0  0  0  0  0  0  0  0  0  0  0  0
   57.3510   28.6600   44.2240 C   0  0  0  0  0  0  0  0  0  0  0  0
   56.2600   29.7330   44.2610 C   0  0  0  0  0  0  0  0  0  0  0  0
   56.7770   31.0520   43.8550 N   0  0  0  0  0  0  0  0  0  0  0  0
   57.0410   31.1200   42.4060 C   0  0  0  0  0  0  0  0  0  0  0  0
   57.9350   31.5260   44.6580 C   0  0  1  0  0  0  0  0  0  0  0  0
   57.4570   32.5300   45.7170 C   0  0  0  0  0  0  0  0  0  0  0  0
   58.6510   33.0930   46.4520 C   0  0  0  0  0  0  0  0  0  0  0  0
   58.6340   34.4230   46.8890 C   0  0  0  0  0  0  0  0  0  0  0  0
   59.7550   34.9730   47.5040 C   0  0  0  0  0  0  0  0  0  0  0  0
   60.9130   34.2130   47.6610 C   0  0  0  0  0  0  0  0  0  0  0  0
   60.9560   32.8710   47.2340 C   0  0  0  0  0  0  0  0  0  0  0  0
   62.1480   32.1300   47.2980 O   0  0  0  0  0  0  0  0  0  0  0  0
   63.4580   32.6860   47.2170 C   0  0  0  0  0  0  0  0  0  0  0  0
   59.7880   32.2780   46.6910 C   0  0  0  0  0  0  0  0  0  0  0  0
   57.4287   22.6615   43.4705 H   0  0  0  0  0  0  0  0  0  0  0  0
   55.9854   22.6092   42.4024 H   0  0  0  0  0  0  0  0  0  0  0  0
   57.0509   24.0554   42.4024 H   0  0  0  0  0  0  0  0  0  0  0  0
   54.8310   24.2494   43.7036 H   0  0  0  0  0  0  0  0  0  0  0  0
   55.5895   23.1056   44.8965 H   0  0  0  0  0  0  0  0  0  0  0  0
   56.5710   25.7880   44.1100 H   0  0  0  0  0  0  0  0  0  0  0  0
   56.1312   25.2403   46.8844 H   0  0  0  0  0  0  0  0  0  0  0  0
   55.6589   26.6515   45.8783 H   0  0  0  0  0  0  0  0  0  0  0  0
   54.6448   25.1689   45.8783 H   0  0  0  0  0  0  0  0  0  0  0  0
   57.7952   23.6941   45.7667 H   0  0  0  0  0  0  0  0  0  0  0  0
   58.4433   24.5955   44.3079 H   0  0  0  0  0  0  0  0  0  0  0  0
   57.7587   26.1870   46.7587 H   0  0  0  0  0  0  0  0  0  0  0  0
   59.2514   25.1814   46.7856 H   0  0  0  0  0  0  0  0  0  0  0  0
   59.6930   26.3420   44.4700 H   0  0  0  0  0  0  0  0  0  0  0  0
   60.9247   27.7402   47.1363 H   0  0  0  0  0  0  0  0  0  0  0  0
   61.1335   30.1240   47.7804 H   0  0  0  0  0  0  0  0  0  0  0  0
   57.6973   28.5312   43.1879 H   0  0  0  0  0  0  0  0  0  0  0  0
   56.9347   27.7156   44.6044 H   0  0  0  0  0  0  0  0  0  0  0  0
   55.4502   29.4415   43.5759 H   0  0  0  0  0  0  0  0  0  0  0  0
   55.8930   29.8126   45.2949 H   0  0  0  0  0  0  0  0  0  0  0  0
   58.0936   31.3911   42.2374 H   0  0  0  0  0  0  0  0  0  0  0  0
   56.8372   30.1400   41.9498 H   0  0  0  0  0  0  0  0  0  0  0  0
   56.3891   31.8796   41.9498 H   0  0  0  0  0  0  0  0  0  0  0  0
   58.6149   31.9889   43.9276 H   0  0  0  0  0  0  0  0  0  0  0  0
   56.9094   33.3480   45.2261 H   0  0  0  0  0  0  0  0  0  0  0  0
   56.7929   32.0214   46.4314 H   0  0  0  0  0  0  0  0  0  0  0  0
   57.7316   35.0354   46.7458 H   0  0  0  0  0  0  0  0  0  0  0  0
   59.7270   36.0109   47.8674 H   0  0  0  0  0  0  0  0  0  0  0  0
   61.8026   34.6658   48.1231 H   0  0  0  0  0  0  0  0  0  0  0  0
   63.8492   32.8520   48.2316 H   0  0  0  0  0  0  0  0  0  0  0  0
   64.1188   31.9908   46.6785 H   0  0  0  0  0  0  0  0  0  0  0  0
   63.4170   33.6443   46.6785 H   0  0  0  0  0  0  0  0  0  0  0  0
  1  2  1  0
  2  3  1  0
  3  4  1  0
  3  5  1  0
  5  6  1  0
  6  7  1  0
  7  8  1  0
  8  9  2  0
  9 10  1  0
 10 11  2  0
 11 12  1  0
 12 13  2  0
 13 14  1  0
 14 15  1  0
 15 16  1  0
 16 17  1  0
 16 18  1  0
 18 19  1  0
 19 20  1  0
 20 21  2  0
 21 22  1  0
 22 23  2  0
 23 24  1  0
 24 25  1  0
 25 26  1  0
 24 27  2  0
 13  8  1  0
 27 20  1  0
 27 11  1  0
 18 12  1  0
  1 28  1  0
  1 29  1  0
  1 30  1  0
  2 31  1  0
  2 32  1  0
  3 33  1  6
  4 34  1  0
  4 35  1  0
  4 36  1  0
  5 37  1  0
  5 38  1  0
  6 39  1  0
  6 40  1  0
  7 41  1  0
  9 42  1  0
 10 43  1  0
 14 44  1  0
 14 45  1  0
 15 46  1  0
 15 47  1  0
 17 48  1  0
 17 49  1  0
 17 50  1  0
 18 51  1  6
 19 52  1  0
 19 53  1  0
 21 54  1  0
 22 55  1  0
 23 56  1  0
 26 57  1  0
 26 58  1  0
 26 59  1  0
M  CHG  1   3   1
M  END
>  <UniqueID>  (27) 
27

>  <SMILES>  (27) 
CC[N@@H+](C)CCNc1ccc2c3c1CCN(C)[C@H]3Cc1cccc(OC)c1-2

>  <Energy>  (27) 
84.26485129075746

>  <Genealogy>  (27) 
CC[NH+](C)CCNc1ccc2c3c1CCN(C)C3Cc1cccc(OC)c1-2 (protonated)
CC[N@@H+](C)CCNc1ccc2c3c1CCN(C)[C@H]3Cc1cccc(OC)c1-2 (chirality)
CC[N@@H+](C)CCNc1ccc2c3c1CCN(C)[C@H]3Cc1cccc(OC)c1-2 (3D coordinates assigned)
CC[N@@H+](C)CCNc1ccc2c3c1CCN(C)[C@H]3Cc1cccc(OC)c1-2 (nonaromatic ring conformer: 84.26485129075746 kcal/mol)

>  <smiles>  (27) 
CCN(C)CCNc1ccc2c3c1CCN(C)C3Cc1cccc(OC)c1-2

>  <score_type>  (27) 
oracle

>  <origin>  (27) 
adg

>  <m_score__min__energy>  (27) 
-6.4100000000000001

>  <m_primary>  (27) 
energy

$$$$
27:0
     RDKit          3D

 47 50  0  0  0  0  0  0  0  0999 V2000
   65.5600   33.0860   49.7760 C   0  0  0  0  0  0  0  0  0  0  0  0
   64.1020   33.1510   49.7250 N   0  0  0  0  0  0  0  0  0  0  0  0
   63.3420   33.1820   48.6060 C   0  0  0  0  0  0  0  0  0  0  0  0
   61.9920   33.2700   48.9410 C   0  0  0  0  0  0  0  0  0  0  0  0
   60.8620   33.3110   47.9880 C   0  0  0  0  0  0  0  0  0  0  0  0
   60.0090   34.4250   47.9340 C   0  0  0  0  0  0  0  0  0  0  0  0
   58.9330   34.4490   47.0420 C   0  0  0  0  0  0  0  0  0  0  0  0
   58.6910   33.3570   46.1940 C   0  0  0  0  0  0  0  0  0  0  0  0
   57.5040   33.3590   45.2670 C   0  0  0  0  0  0  0  0  0  0  0  0
   57.5240   32.1740   44.2930 C   0  0  0  0  0  0  0  0  0  0  0  0
   56.7590   31.0280   44.8480 N   0  0  0  0  0  0  0  0  0  0  0  0
   57.6500   29.9310   45.2650 C   0  0  0  0  0  0  0  0  0  0  0  0
   57.7640   28.9470   44.1050 C   0  0  0  0  0  0  0  0  0  0  0  0
   56.6750   29.3450   43.1270 C   0  0  0  0  0  0  0  0  0  0  0  0
   55.8760   30.4170   43.8450 C   0  0  0  0  0  0  0  0  0  0  0  0
   59.5300   32.2340   46.2620 C   0  0  0  0  0  0  0  0  0  0  0  0
   60.6050   32.2110   47.1550 C   0  0  0  0  0  0  0  0  0  0  0  0
   61.9530   33.3120   50.3280 C   0  0  0  0  0  0  0  0  0  0  0  0
   60.8890   33.4700   51.2200 C   0  0  0  0  0  0  0  0  0  0  0  0
   61.1820   33.5140   52.5950 C   0  0  0  0  0  0  0  0  0  0  0  0
   62.5150   33.4170   53.0470 C   0  0  0  0  0  0  0  0  0  0  0  0
   63.5700   33.2820   52.1280 C   0  0  0  0  0  0  0  0  0  0  0  0
   63.2530   33.2370   50.7680 C   0  0  0  0  0  0  0  0  0  0  0  0
   65.8899   33.0713   50.8253 H   0  0  0  0  0  0  0  0  0  0  0  0
   65.9042   32.1716   49.2706 H   0  0  0  0  0  0  0  0  0  0  0  0
   65.9842   33.9661   49.2706 H   0  0  0  0  0  0  0  0  0  0  0  0
   63.7336   33.1433   47.5788 H   0  0  0  0  0  0  0  0  0  0  0  0
   60.1885   35.2838   48.5975 H   0  0  0  0  0  0  0  0  0  0  0  0
   58.2727   35.3280   47.0045 H   0  0  0  0  0  0  0  0  0  0  0  0
   56.5849   33.3066   45.8691 H   0  0  0  0  0  0  0  0  0  0  0  0
   57.5427   34.2838   44.6727 H   0  0  0  0  0  0  0  0  0  0  0  0
   57.0716   32.4825   43.3390 H   0  0  0  0  0  0  0  0  0  0  0  0
   58.5669   31.8615   44.1362 H   0  0  0  0  0  0  0  0  0  0  0  0
   58.6439   30.3317   45.5133 H   0  0  0  0  0  0  0  0  0  0  0  0
   57.2438   29.4268   46.1542 H   0  0  0  0  0  0  0  0  0  0  0  0
   58.7535   29.0247   43.6309 H   0  0  0  0  0  0  0  0  0  0  0  0
   57.6502   27.9057   44.4407 H   0  0  0  0  0  0  0  0  0  0  0  0
   57.1140   29.7449   42.2011 H   0  0  0  0  0  0  0  0  0  0  0  0
   56.0491   28.4891   42.8343 H   0  0  0  0  0  0  0  0  0  0  0  0
   55.5395   31.1791   43.1267 H   0  0  0  0  0  0  0  0  0  0  0  0
   54.9871   29.9817   44.3249 H   0  0  0  0  0  0  0  0  0  0  0  0
   59.3408   31.3685   45.6100 H   0  0  0  0  0  0  0  0  0  0  0  0
   61.2542   31.3245   47.2053 H   0  0  0  0  0  0  0  0  0  0  0  0
   59.8540   33.5573   50.8579 H   0  0  0  0  0  0  0  0  0  0  0  0
   60.3654   33.6249   53.3237 H   0  0  0  0  0  0  0  0  0  0  0  0
   62.7300   33.4472   54.1254 H   0  0  0  0  0  0  0  0  0  0  0  0
   64.6135   33.2139   52.4692 H   0  0  0  0  0  0  0  0  0  0  0  0
  1  2  1  0
  2  3  1  0
  3  4  2  0
  4  5  1  0
  5  6  2  0
  6  7  1  0
  7  8  2  0
  8  9  1  0
  9 10  1  0
 10 11  1  0
 11 12  1  0
 12 13  1  0
 13 14  1  0
 14 15  1  0
  8 16  1  0
 16 17  2  0
  4 18  1  0
 18 19  2  0
 19 20  1  0
 20 21  2  0
 21 22  1  0
 22 23  2  0
 23  2  1  0
 17  5  1  0
 23 18  1  0
 15 11  1  0
  1 24  1  0
  1 25  1  0
  1 26  1  0
  3 27  1  0
  6 28  1  0
  7 29  1  0
  9 30  1  0
  9 31  1  0
 10 32  1  0
 10 33  1  0
 12 34  1  0
 12 35  1  0
 13 36  1  0
 13 37  1  0
 14 38  1  0
 14 39  1  0
 15 40  1  0
 15 41  1  0
 16 42  1  0
 17 43  1  0
 19 44  1  0
 20 45  1  0
 21 46  1  0
 22 47  1  0
M  END
>  <UniqueID>  (28) 
28

>  <SMILES>  (28) 
Cn1cc(-c2ccc(CCN3CCCC3)cc2)c2ccccc21

>  <Energy>  (28) 
89.55286510625427

>  <Genealogy>  (28) 
Cn1cc(-c2ccc(CCN3CCCC3)cc2)c2ccccc21 (3D coordinates assigned)
Cn1cc(-c2ccc(CCN3CCCC3)cc2)c2ccccc21 (nonaromatic ring conformer: 89.55286510625427 kcal/mol)

>  <smiles>  (28) 
Cn1cc(-c2ccc(CCN3CCCC3)cc2)c2ccccc21

>  <score_type>  (28) 
oracle

>  <origin>  (28) 
adg

>  <m_score__min__energy>  (28) 
-8.2599999999999998

>  <m_primary>  (28) 
energy

$$$$
28:0
     RDKit          3D

 48 50  0  0  0  0  0  0  0  0999 V2000
   54.4580   23.9430   45.0640 C   0  0  0  0  0  0  0  0  0  0  0  0
   55.2290   22.6390   44.8840 C   0  0  0  0  0  0  0  0  0  0  0  0
   55.8960   22.5980   43.5650 N   0  0  0  0  0  0  0  0  0  0  0  0
   56.8890   21.5050   43.4620 C   0  0  0  0  0  0  0  0  0  0  0  0
   57.4790   21.0750   44.8130 C   0  0  0  0  0  0  0  0  0  0  0  0
   56.4320   23.9120   43.1310 C   0  0  0  0  0  0  0  0  0  0  0  0
   57.6140   24.3080   44.0190 C   0  0  0  0  0  0  0  0  0  0  0  0
   57.5680   25.7350   44.3380 N   0  0  0  0  0  0  0  0  0  0  0  0
   58.2510   26.2900   45.4710 C   0  0  0  0  0  0  0  0  0  0  0  0
   58.7050   25.5270   46.3670 O   0  0  0  0  0  0  0  0  0  0  0  0
   58.4360   27.7460   45.6090 C   0  0  0  0  0  0  0  0  0  0  0  0
   57.5670   28.7410   45.1590 C   0  0  0  0  0  0  0  0  0  0  0  0
   58.0480   30.0350   45.4170 C   0  0  0  0  0  0  0  0  0  0  0  0
   57.4120   31.2340   45.0870 C   0  0  0  0  0  0  0  0  0  0  0  0
   56.2930   31.1950   44.5030 O   0  0  0  0  0  0  0  0  0  0  0  0
   58.0080   32.4400   45.4010 N   0  0  0  0  0  0  0  0  0  0  0  0
   57.3230   33.7010   45.0480 C   0  0  0  0  0  0  0  0  0  0  0  0
   59.2400   32.4710   46.0420 C   0  0  0  0  0  0  0  0  0  0  0  0
   59.8820   33.6890   46.3790 C   0  0  0  0  0  0  0  0  0  0  0  0
   61.1220   33.6920   47.0220 C   0  0  0  0  0  0  0  0  0  0  0  0
   61.7530   32.4920   47.3460 C   0  0  0  0  0  0  0  0  0  0  0  0
   61.1480   31.2770   47.0300 C   0  0  0  0  0  0  0  0  0  0  0  0
   59.9020   31.2550   46.3820 C   0  0  0  0  0  0  0  0  0  0  0  0
   59.2710   30.0580   46.0530 C   0  0  0  0  0  0  0  0  0  0  0  0
   59.7890   28.4760   46.3080 S   0  0  0  0  0  0  0  0  0  0  0  0
   54.3350   24.1511   46.1371 H   0  0  0  0  0  0  0  0  0  0  0  0
   55.0147   24.7662   44.5923 H   0  0  0  0  0  0  0  0  0  0  0  0
   53.4684   23.8520   44.5923 H   0  0  0  0  0  0  0  0  0  0  0  0
   55.9894   22.5581   45.6747 H   0  0  0  0  0  0  0  0  0  0  0  0
   54.5200   21.8002   44.9454 H   0  0  0  0  0  0  0  0  0  0  0  0
   56.3989   20.6331   43.0042 H   0  0  0  0  0  0  0  0  0  0  0  0
   57.7232   21.8859   42.8545 H   0  0  0  0  0  0  0  0  0  0  0  0
   56.8825   21.5097   45.6286 H   0  0  0  0  0  0  0  0  0  0  0  0
   57.4596   19.9778   44.8891 H   0  0  0  0  0  0  0  0  0  0  0  0
   58.5175   21.4295   44.8891 H   0  0  0  0  0  0  0  0  0  0  0  0
   56.7676   23.8424   42.0858 H   0  0  0  0  0  0  0  0  0  0  0  0
   55.6422   24.6729   43.2165 H   0  0  0  0  0  0  0  0  0  0  0  0
   57.5738   23.7281   44.9529 H   0  0  0  0  0  0  0  0  0  0  0  0
   58.5482   24.0973   43.4778 H   0  0  0  0  0  0  0  0  0  0  0  0
   56.9910   26.3520   43.7250 H   0  0  0  0  0  0  0  0  0  0  0  0
   56.6102   28.5344   44.6572 H   0  0  0  0  0  0  0  0  0  0  0  0
   57.0348   34.2315   45.9675 H   0  0  0  0  0  0  0  0  0  0  0  0
   58.0014   34.3337   44.4569 H   0  0  0  0  0  0  0  0  0  0  0  0
   56.4229   33.4763   44.4569 H   0  0  0  0  0  0  0  0  0  0  0  0
   59.3972   34.6447   46.1308 H   0  0  0  0  0  0  0  0  0  0  0  0
   61.6040   34.6480   47.2745 H   0  0  0  0  0  0  0  0  0  0  0  0
   62.7298   32.5041   47.8518 H   0  0  0  0  0  0  0  0  0  0  0  0
   61.6479   30.3320   47.2889 H   0  0  0  0  0  0  0  0  0  0  0  0
  1  2  1  0
  2  3  1  0
  3  4  1  0
  4  5  1  0
  3  6  1  0
  6  7  1  0
  7  8  1  0
  8  9  1  0
  9 10  2  0
  9 11  1  0
 11 12  2  0
 12 13  1  0
 13 14  1  0
 14 15  2  0
 14 16  1  0
 16 17  1  0
 16 18  1  0
 18 19  2  0
 19 20  1  0
 20 21  2  0
 21 22  1  0
 22 23  2  0
 23 24  1  0
 24 25  1  0
 25 11  1  0
 24 13  2  0
 23 18  1  0
  1 26  1  0
  1 27  1  0
  1 28  1  0
  2 29  1  0
  2 30  1  0
  4 31  1  0
  4 32  1  0
  5 33  1  0
  5 34  1  0
  5 35  1  0
  6 36  1  0
  6 37  1  0
  7 38  1  0
  7 39  1  0
  8 40  1  0
 12 41  1  0
 17 42  1  0
 17 43  1  0
 17 44  1  0
 19 45  1  0
 20 46  1  0
 21 47  1  0
 22 48  1  0
M  END
>  <UniqueID>  (29) 
29

>  <SMILES>  (29) 
CCN(CC)CCNC(=O)c1cc2c(=O)n(C)c3ccccc3c2s1

>  <Energy>  (29) 
88.38914694157928

>  <Genealogy>  (29) 
CCN(CC)CCNC(=O)c1cc2c(=O)n(C)c3ccccc3c2s1 (3D coordinates assigned)
CCN(CC)CCNC(=O)c1cc2c(=O)n(C)c3ccccc3c2s1 (optimized conformer: 88.38914694157928 kcal/mol)

>  <smiles>  (29) 
CCN(CC)CCNC(=O)c1cc2c(=O)n(C)c3ccccc3c2s1

>  <score_type>  (29) 
oracle

>  <origin>  (29) 
adg

>  <m_score__min__energy>  (29) 
-7.5899999999999999

>  <m_primary>  (29) 
energy

$$$$
