0:0
     RDKit          3D

 53 55  0  0  0  0  0  0  0  0999 V2000
   56.2610   29.8050   42.8400 C   0  0  0  0  0  0  0  0  0  0  0  0
   55.5260   29.8710   44.1740 C   0  0  0  0  0  0  0  0  0  0  0  0
   56.4020   29.4110   45.2620 N   0  0  0  0  0  0  0  0  0  0  0  0
   57.3270   28.3450   44.8340 C   0  0  0  0  0  0  0  0  0  0  0  0
   58.7530   28.8800   44.5890 C   0  0  0  0  0  0  0  0  0  0  0  0
   59.7130   28.5620   45.7530 C   0  0  0  0  0  0  0  0  0  0  0  0
   59.0740   28.6580   47.1530 C   0  0  0  0  0  0  0  0  0  0  0  0
   58.5290   29.9970   47.4790 N   0  0  0  0  0  0  0  0  0  0  0  0
   59.5780   31.0000   47.6200 C   0  0  0  0  0  0  0  0  0  0  0  0
   59.5400   32.1960   46.8410 C   0  0  0  0  0  0  0  0  0  0  0  0
   60.5440   33.1780   47.0310 C   0  0  0  0  0  0  0  0  0  0  0  0
   61.6550   32.9020   47.7940 N   0  0  0  0  0  0  0  0  0  0  0  0
   62.8440   33.7800   47.7000 C   0  0  0  0  0  0  0  0  0  0  0  0
   61.6570   31.8230   48.6500 C   0  0  0  0  0  0  0  0  0  0  0  0
   62.6660   31.6800   49.6410 C   0  0  0  0  0  0  0  0  0  0  0  0
   62.6870   30.5860   50.4970 C   0  0  0  0  0  0  0  0  0  0  0  0
   61.7050   29.6150   50.4050 C   0  0  0  0  0  0  0  0  0  0  0  0
   60.6850   29.7370   49.4670 C   0  0  0  0  0  0  0  0  0  0  0  0
   60.6270   30.8410   48.5750 C   0  0  0  0  0  0  0  0  0  0  0  0
   60.3910   34.5320   46.3480 C   0  0  0  0  0  0  0  0  0  0  0  0
   58.9230   34.9200   46.2080 C   0  0  0  0  0  0  0  0  0  0  0  0
   58.1880   33.8890   45.3630 C   0  0  0  0  0  0  0  0  0  0  0  0
   58.4650   32.4880   45.8280 C   0  0  0  0  0  0  0  0  0  0  0  0
   57.8270   31.5640   45.2600 O   0  0  0  0  0  0  0  0  0  0  0  0
   57.3416   29.7080   43.0212 H   0  0  0  0  0  0  0  0  0  0  0  0
   55.9055   28.9352   42.2681 H   0  0  0  0  0  0  0  0  0  0  0  0
   56.0662   30.7243   42.2681 H   0  0  0  0  0  0  0  0  0  0  0  0
   55.2200   30.9094   44.3688 H   0  0  0  0  0  0  0  0  0  0  0  0
   54.6406   29.2199   44.1276 H   0  0  0  0  0  0  0  0  0  0  0  0
   56.9470   30.2240   45.6350 H   0  0  0  0  0  0  0  0  0  0  0  0
   57.3669   27.5739   45.6175 H   0  0  0  0  0  0  0  0  0  0  0  0
   56.9524   27.9309   43.8863 H   0  0  0  0  0  0  0  0  0  0  0  0
   59.1485   28.4215   43.6707 H   0  0  0  0  0  0  0  0  0  0  0  0
   58.6878   29.9745   44.5000 H   0  0  0  0  0  0  0  0  0  0  0  0
   60.0904   27.5378   45.6171 H   0  0  0  0  0  0  0  0  0  0  0  0
   60.5081   29.3213   45.7192 H   0  0  0  0  0  0  0  0  0  0  0  0
   58.2530   27.9280   47.2088 H   0  0  0  0  0  0  0  0  0  0  0  0
   59.8733   28.4551   47.8810 H   0  0  0  0  0  0  0  0  0  0  0  0
   57.8710   30.2920   46.7240 H   0  0  0  0  0  0  0  0  0  0  0  0
   57.8880   29.9630   48.2940 H   0  0  0  0  0  0  0  0  0  0  0  0
   63.1913   34.0365   48.7117 H   0  0  0  0  0  0  0  0  0  0  0  0
   63.6454   33.2553   47.1592 H   0  0  0  0  0  0  0  0  0  0  0  0
   62.5784   34.7003   47.1592 H   0  0  0  0  0  0  0  0  0  0  0  0
   63.4455   32.4508   49.7319 H   0  0  0  0  0  0  0  0  0  0  0  0
   63.4847   30.4914   51.2485 H   0  0  0  0  0  0  0  0  0  0  0  0
   61.7312   28.7437   51.0760 H   0  0  0  0  0  0  0  0  0  0  0  0
   59.9064   28.9617   49.4149 H   0  0  0  0  0  0  0  0  0  0  0  0
   60.9078   35.2960   46.9474 H   0  0  0  0  0  0  0  0  0  0  0  0
   60.8294   34.4643   45.3414 H   0  0  0  0  0  0  0  0  0  0  0  0
   58.4625   34.9677   47.2058 H   0  0  0  0  0  0  0  0  0  0  0  0
   58.8553   35.9022   45.7173 H   0  0  0  0  0  0  0  0  0  0  0  0
   57.1066   34.0792   45.4298 H   0  0  0  0  0  0  0  0  0  0  0  0
   58.5420   33.9816   44.3256 H   0  0  0  0  0  0  0  0  0  0  0  0
  1  2  1  0
  2  3  1  0
  3  4  1  0
  4  5  1  0
  5  6  1  0
  6  7  1  0
  7  8  1  0
  8  9  1  0
  9 10  2  0
 10 11  1  0
 11 12  2  0
 12 13  1  0
 12 14  1  0
 14 15  2  0
 15 16  1  0
 16 17  2  0
 17 18  1  0
 18 19  2  0
 11 20  1  0
 20 21  1  0
 21 22  1  0
 22 23  1  0
 23 24  2  0
 19  9  1  0
 23 10  1  0
 19 14  1  0
  1 25  1  0
  1 26  1  0
  1 27  1  0
  2 28  1  0
  2 29  1  0
  3 30  1  0
  4 31  1  0
  4 32  1  0
  5 33  1  0
  5 34  1  0
  6 35  1  0
  6 36  1  0
  7 37  1  0
  7 38  1  0
  8 39  1  0
  8 40  1  0
 13 41  1  0
 13 42  1  0
 13 43  1  0
 15 44  1  0
 16 45  1  0
 17 46  1  0
 18 47  1  0
 20 48  1  0
 20 49  1  0
 21 50  1  0
 21 51  1  0
 22 52  1  0
 22 53  1  0
M  CHG  2   8   1  12   1
M  END
>  <UniqueID>  (1) 
1

>  <SMILES>  (1) 
CCNCCCC[NH2+]c1c2c([n+](C)c3ccccc13)CCCC2=O

>  <Energy>  (1) 
78.78043482932367

>  <Genealogy>  (1) 
CCNCCCC[NH2+]c1c2c([n+](C)c3ccccc13)CCCC2=O (protonated)
CCNCCCC[NH2+]c1c2c([n+](C)c3ccccc13)CCCC2=O (3D coordinates assigned)
CCNCCCC[NH2+]c1c2c([n+](C)c3ccccc13)CCCC2=O (nonaromatic ring conformer: 78.78043482932367 kcal/mol)

>  <smiles>  (1) 
CCNCCCCNc1c2c([n+](C)c3ccccc13)CCCC2=O

>  <score_type>  (1) 
oracle

>  <origin>  (1) 
adg

>  <m_score__min__energy>  (1) 
-4.8300000000000001

>  <m_primary>  (1) 
energy

$$$$
1:0
     RDKit          3D

 38 40  0  0  0  0  0  0  0  0999 V2000
   56.4540   29.3460   42.5440 C   0  0  0  0  0  0  0  0  0  0  0  0
   55.4880   29.7230   43.6640 C   0  0  0  0  0  0  0  0  0  0  0  0
   56.2300   30.1800   44.8570 N   0  0  0  0  0  0  0  0  0  0  0  0
   57.0280   29.0750   45.4440 C   0  0  0  0  0  0  0  0  0  0  0  0
   58.1670   29.5970   46.3240 C   0  0  0  0  0  0  0  0  0  0  0  0
   59.1780   30.3740   45.4610 C   0  0  0  0  0  0  0  0  0  0  0  0
   60.0040   31.2450   46.3060 N   0  0  0  0  0  0  0  0  0  0  0  0
   61.2260   30.9530   46.7640 N   0  0  0  0  0  0  0  0  0  0  0  0
   61.6910   32.0130   47.4770 C   0  0  0  0  0  0  0  0  0  0  0  0
   62.9330   32.0960   48.1100 O   0  0  0  0  0  0  0  0  0  0  0  0
   63.8190   33.1900   47.9130 C   0  0  0  0  0  0  0  0  0  0  0  0
   60.7250   32.9850   47.4510 C   0  0  0  0  0  0  0  0  0  0  0  0
   60.4040   34.5370   47.9790 S   0  0  0  0  0  0  0  0  0  0  0  0
   58.8630   34.5540   47.2230 C   0  0  0  0  0  0  0  0  0  0  0  0
   58.6240   33.3380   46.5620 C   0  0  0  0  0  0  0  0  0  0  0  0
   59.7130   32.4900   46.7300 C   0  0  0  0  0  0  0  0  0  0  0  0
   58.4920   31.1760   44.3280 C   0  0  0  0  0  0  0  0  0  0  0  0
   57.0000   31.4290   44.6050 C   0  0  0  0  0  0  0  0  0  0  0  0
   57.3950   28.9788   42.9795 H   0  0  0  0  0  0  0  0  0  0  0  0
   56.0051   28.5571   41.9227 H   0  0  0  0  0  0  0  0  0  0  0  0
   56.6581   30.2305   41.9227 H   0  0  0  0  0  0  0  0  0  0  0  0
   54.8288   30.5320   43.3161 H   0  0  0  0  0  0  0  0  0  0  0  0
   54.8933   28.8376   43.9332 H   0  0  0  0  0  0  0  0  0  0  0  0
   56.3661   28.4448   46.0561 H   0  0  0  0  0  0  0  0  0  0  0  0
   57.4720   28.4997   44.6182 H   0  0  0  0  0  0  0  0  0  0  0  0
   57.7560   30.2648   47.0954 H   0  0  0  0  0  0  0  0  0  0  0  0
   58.6753   28.7470   46.8026 H   0  0  0  0  0  0  0  0  0  0  0  0
   59.8303   29.6370   44.9697 H   0  0  0  0  0  0  0  0  0  0  0  0
   61.7330   30.0590   46.5840 H   0  0  0  0  0  0  0  0  0  0  0  0
   64.1380   33.5839   48.8893 H   0  0  0  0  0  0  0  0  0  0  0  0
   64.7003   32.8511   47.3486 H   0  0  0  0  0  0  0  0  0  0  0  0
   63.3044   33.9816   47.3486 H   0  0  0  0  0  0  0  0  0  0  0  0
   58.1603   35.3998   47.2522 H   0  0  0  0  0  0  0  0  0  0  0  0
   57.7127   33.0934   45.9966 H   0  0  0  0  0  0  0  0  0  0  0  0
   59.0009   32.1457   44.2243 H   0  0  0  0  0  0  0  0  0  0  0  0
   58.5644   30.5805   43.4060 H   0  0  0  0  0  0  0  0  0  0  0  0
   56.9137   32.0773   45.4894 H   0  0  0  0  0  0  0  0  0  0  0  0
   56.5757   31.8986   43.7053 H   0  0  0  0  0  0  0  0  0  0  0  0
  1  2  1  0
  2  3  1  0
  3  4  1  0
  4  5  1  0
  5  6  1  0
  6  7  1  0
  7  8  1  0
  8  9  2  0
  9 10  1  0
 10 11  1  0
  9 12  1  0
 12 13  1  0
 13 14  1  0
 14 15  2  0
 15 16  1  0
  6 17  1  0
 17 18  1  0
 18  3  1  0
 16  7  1  0
 16 12  2  0
  1 19  1  0
  1 20  1  0
  1 21  1  0
  2 22  1  0
  2 23  1  0
  4 24  1  0
  4 25  1  0
  5 26  1  0
  5 27  1  0
  6 28  1  0
  8 29  1  0
 11 30  1  0
 11 31  1  0
 11 32  1  0
 14 33  1  0
 15 34  1  0
 17 35  1  0
 17 36  1  0
 18 37  1  0
 18 38  1  0
M  CHG  1   8   1
M  END
>  <UniqueID>  (2) 
2

>  <SMILES>  (2) 
CCN1CCC(n2[nH+]c(OC)c3sccc32)CC1

>  <Energy>  (2) 
125.97999274179247

>  <Genealogy>  (2) 
CCN1CCC(n2[nH+]c(OC)c3sccc32)CC1 (protonated)
CCN1CCC(n2[nH+]c(OC)c3sccc32)CC1 (3D coordinates assigned)
CCN1CCC(n2[nH+]c(OC)c3sccc32)CC1 (nonaromatic ring conformer: 125.97999274179247 kcal/mol)

>  <smiles>  (2) 
CCN1CCC(n2nc(OC)c3sccc32)CC1

>  <score_type>  (2) 
oracle

>  <origin>  (2) 
adg

>  <m_score__min__energy>  (2) 
-4.9900000000000002

>  <m_primary>  (2) 
energy

$$$$
2:0
     RDKit          3D

 66 69  0  0  0  0  0  0  0  0999 V2000
   56.0570   31.2310   52.2700 C   0  0  0  0  0  0  0  0  0  0  0  0
   57.2030   31.3680   51.2800 C   0  0  0  0  0  0  0  0  0  0  0  0
   57.7630   30.0950   51.0360 O   0  0  0  0  0  0  0  0  0  0  0  0
   58.5810   29.6920   52.1200 C   0  0  0  0  0  0  0  0  0  0  0  0
   59.8220   28.9650   51.6030 C   0  0  0  0  0  0  0  0  0  0  0  0
   60.3260   29.6420   50.4700 O   0  0  0  0  0  0  0  0  0  0  0  0
   60.6490   28.7270   49.4400 C   0  0  0  0  0  0  0  0  0  0  0  0
   60.0400   29.1530   48.1000 C   0  0  0  0  0  0  0  0  0  0  0  0
   59.1940   30.3390   48.2540 N   0  0  0  0  0  0  0  0  0  0  0  0
   58.7710   31.1130   47.1170 C   0  0  0  0  0  0  0  0  0  0  0  0
   58.1420   30.4670   46.0380 C   0  0  0  0  0  0  0  0  0  0  0  0
   57.7500   29.1130   46.1270 C   0  0  0  0  0  0  0  0  0  0  0  0
   57.0930   28.4920   45.0670 C   0  0  0  0  0  0  0  0  0  0  0  0
   56.8090   29.2070   43.9090 C   0  0  0  0  0  0  0  0  0  0  0  0
   57.2100   30.5370   43.7900 C   0  0  0  0  0  0  0  0  0  0  0  0
   57.9190   31.1820   44.8340 C   0  0  0  0  0  0  0  0  0  0  0  0
   58.4020   32.4680   44.6970 N   0  0  0  0  0  0  0  0  0  0  0  0
   58.5070   33.0780   43.3540 C   0  0  0  0  0  0  0  0  0  0  0  0
   58.8120   33.1740   45.8130 C   0  0  0  0  0  0  0  0  0  0  0  0
   59.0350   34.5700   45.7540 C   0  0  0  0  0  0  0  0  0  0  0  0
   59.4690   35.2770   46.8690 C   0  0  0  0  0  0  0  0  0  0  0  0
   59.6440   34.6310   48.0840 C   0  0  0  0  0  0  0  0  0  0  0  0
   59.3770   33.2570   48.2110 C   0  0  0  0  0  0  0  0  0  0  0  0
   59.4260   32.6280   49.4690 O   0  0  0  0  0  0  0  0  0  0  0  0
   60.0350   33.1460   50.6520 C   0  0  0  0  0  0  0  0  0  0  0  0
   61.4680   32.6270   50.7930 C   0  0  0  0  0  0  0  0  0  0  0  0
   62.1620   32.6950   49.5040 N   0  0  0  0  0  0  0  0  0  0  0  0
   62.2500   31.5790   48.7180 C   0  0  0  0  0  0  0  0  0  0  0  0
   62.9330   31.6190   47.5010 C   0  0  0  0  0  0  0  0  0  0  0  0
   63.5370   32.8090   47.0950 C   0  0  0  0  0  0  0  0  0  0  0  0
   63.4560   33.9370   47.9080 C   0  0  0  0  0  0  0  0  0  0  0  0
   62.7640   33.8630   49.1190 C   0  0  0  0  0  0  0  0  0  0  0  0
   59.0000   32.5070   47.0590 C   0  0  0  0  0  0  0  0  0  0  0  0
   56.4511   31.2781   53.2959 H   0  0  0  0  0  0  0  0  0  0  0  0
   55.3388   32.0497   52.1151 H   0  0  0  0  0  0  0  0  0  0  0  0
   55.5520   30.2661   52.1151 H   0  0  0  0  0  0  0  0  0  0  0  0
   56.8256   31.7904   50.3370 H   0  0  0  0  0  0  0  0  0  0  0  0
   57.9720   32.0354   51.6962 H   0  0  0  0  0  0  0  0  0  0  0  0
   58.8913   30.5797   52.6907 H   0  0  0  0  0  0  0  0  0  0  0  0
   58.0093   29.0105   52.7671 H   0  0  0  0  0  0  0  0  0  0  0  0
   60.5901   28.9453   52.3902 H   0  0  0  0  0  0  0  0  0  0  0  0
   59.5547   27.9346   51.3259 H   0  0  0  0  0  0  0  0  0  0  0  0
   61.7429   28.6773   49.3359 H   0  0  0  0  0  0  0  0  0  0  0  0
   60.2366   27.7436   49.7098 H   0  0  0  0  0  0  0  0  0  0  0  0
   60.8518   29.3810   47.3936 H   0  0  0  0  0  0  0  0  0  0  0  0
   59.4172   28.3282   47.7233 H   0  0  0  0  0  0  0  0  0  0  0  0
   58.7970   30.5550   49.1960 H   0  0  0  0  0  0  0  0  0  0  0  0
   57.9657   28.5429   47.0427 H   0  0  0  0  0  0  0  0  0  0  0  0
   56.7987   27.4351   45.1463 H   0  0  0  0  0  0  0  0  0  0  0  0
   56.2663   28.7220   43.0842 H   0  0  0  0  0  0  0  0  0  0  0  0
   56.9725   31.0942   42.8718 H   0  0  0  0  0  0  0  0  0  0  0  0
   58.6928   34.1575   43.4551 H   0  0  0  0  0  0  0  0  0  0  0  0
   59.3383   32.6128   42.8039 H   0  0  0  0  0  0  0  0  0  0  0  0
   57.5680   32.9175   42.8039 H   0  0  0  0  0  0  0  0  0  0  0  0
   58.8618   35.1052   44.8087 H   0  0  0  0  0  0  0  0  0  0  0  0
   59.6748   36.3545   46.7876 H   0  0  0  0  0  0  0  0  0  0  0  0
   59.9954   35.2001   48.9573 H   0  0  0  0  0  0  0  0  0  0  0  0
   60.0522   34.2445   50.5982 H   0  0  0  0  0  0  0  0  0  0  0  0
   59.4515   32.8163   51.5242 H   0  0  0  0  0  0  0  0  0  0  0  0
   62.0065   33.2431   51.5282 H   0  0  0  0  0  0  0  0  0  0  0  0
   61.4382   31.5800   51.1289 H   0  0  0  0  0  0  0  0  0  0  0  0
   61.7784   30.6415   49.0478 H   0  0  0  0  0  0  0  0  0  0  0  0
   62.9942   30.7210   46.8686 H   0  0  0  0  0  0  0  0  0  0  0  0
   64.0750   32.8564   46.1367 H   0  0  0  0  0  0  0  0  0  0  0  0
   63.9332   34.8786   47.5988 H   0  0  0  0  0  0  0  0  0  0  0  0
   62.7022   34.7491   49.7679 H   0  0  0  0  0  0  0  0  0  0  0  0
  1  2  1  0
  2  3  1  0
  3  4  1  0
  4  5  1  0
  5  6  1  0
  6  7  1  0
  7  8  1  0
  8  9  1  0
  9 10  1  0
 10 11  2  0
 11 12  1  0
 12 13  2  0
 13 14  1  0
 14 15  2  0
 15 16  1  0
 16 17  2  0
 17 18  1  0
 17 19  1  0
 19 20  2  0
 20 21  1  0
 21 22  2  0
 22 23  1  0
 23 24  1  0
 24 25  1  0
 25 26  1  0
 26 27  1  0
 27 28  2  0
 28 29  1  0
 29 30  2  0
 30 31  1  0
 31 32  2  0
 23 33  2  0
 33 10  1  0
 16 11  1  0
 33 19  1  0
 32 27  1  0
  1 34  1  0
  1 35  1  0
  1 36  1  0
  2 37  1  0
  2 38  1  0
  4 39  1  0
  4 40  1  0
  5 41  1  0
  5 42  1  0
  7 43  1  0
  7 44  1  0
  8 45  1  0
  8 46  1  0
  9 47  1  0
 12 48  1  0
 13 49  1  0
 14 50  1  0
 15 51  1  0
 18 52  1  0
 18 53  1  0
 18 54  1  0
 20 55  1  0
 21 56  1  0
 22 57  1  0
 25 58  1  0
 25 59  1  0
 26 60  1  0
 26 61  1  0
 28 62  1  0
 29 63  1  0
 30 64  1  0
 31 65  1  0
 32 66  1  0
M  CHG  2  17   1  27   1
M  END
>  <UniqueID>  (3) 
3

>  <SMILES>  (3) 
CCOCCOCCNc1c2ccccc2[n+](C)c2cccc(OCC[n+]3ccccc3)c12

>  <Energy>  (3) 
90.087185322274

>  <Genealogy>  (3) 
CCOCCOCCNc1c2ccccc2[n+](C)c2cccc(OCC[n+]3ccccc3)c12 (3D coordinates assigned)
CCOCCOCCNc1c2ccccc2[n+](C)c2cccc(OCC[n+]3ccccc3)c12 (optimized conformer: 90.087185322274 kcal/mol)

>  <smiles>  (3) 
CCOCCOCCNc1c2ccccc2[n+](C)c2cccc(OCC[n+]3ccccc3)c12

>  <score_type>  (3) 
oracle

>  <origin>  (3) 
adg

>  <m_score__min__energy>  (3) 
-5.1699999999999999

>  <m_primary>  (3) 
energy

$$$$
3:0
     RDKit          3D

 53 55  0  0  0  0  0  0  0  0999 V2000
   60.4130   33.8090   50.2100 C   0  0  0  0  0  0  0  0  0  0  0  0
   61.7990   33.1730   50.1320 C   0  0  0  0  0  0  0  0  0  0  0  0
   62.1390   32.8640   48.7260 N   0  0  0  0  0  0  0  0  0  0  0  0
   63.0720   33.8550   48.1350 C   0  0  0  0  0  0  0  0  0  0  0  0
   63.3880   33.6220   46.6500 C   0  0  0  0  0  0  0  0  0  0  0  0
   62.5750   31.4570   48.5580 C   0  0  0  0  0  0  0  0  0  0  0  0
   61.5210   30.6120   47.8260 C   0  0  0  0  0  0  0  0  0  0  0  0
   60.1480   31.0580   48.1460 N   0  0  0  0  0  0  0  0  0  0  0  0
   59.3430   31.1980   46.9430 C   0  0  0  0  0  0  0  0  0  0  0  0
   58.6880   30.0770   46.3540 C   0  0  0  0  0  0  0  0  0  0  0  0
   58.0690   30.2250   45.0800 C   0  0  0  0  0  0  0  0  0  0  0  0
   58.1180   31.4350   44.4160 N   0  0  0  0  0  0  0  0  0  0  0  0
   57.6800   31.5240   43.0040 C   0  0  0  0  0  0  0  0  0  0  0  0
   58.5510   32.5700   45.0680 C   0  0  0  0  0  0  0  0  0  0  0  0
   58.3580   33.8620   44.5070 C   0  0  0  0  0  0  0  0  0  0  0  0
   58.8520   35.0020   45.1310 C   0  0  0  0  0  0  0  0  0  0  0  0
   59.5350   34.8960   46.3320 C   0  0  0  0  0  0  0  0  0  0  0  0
   59.7090   33.6500   46.9280 C   0  0  0  0  0  0  0  0  0  0  0  0
   59.2080   32.4690   46.3220 C   0  0  0  0  0  0  0  0  0  0  0  0
   57.4120   29.0170   44.4060 C   0  0  0  0  0  0  0  0  0  0  0  0
   57.0450   27.8810   45.3620 C   0  0  0  0  0  0  0  0  0  0  0  0
   58.2390   27.5290   46.2290 C   0  0  0  0  0  0  0  0  0  0  0  0
   58.6170   28.7350   47.0220 C   0  0  0  0  0  0  0  0  0  0  0  0
   58.7960   28.5910   48.2590 O   0  0  0  0  0  0  0  0  0  0  0  0
   60.1283   33.9396   51.2645 H   0  0  0  0  0  0  0  0  0  0  0  0
   60.4307   34.7891   49.7109 H   0  0  0  0  0  0  0  0  0  0  0  0
   59.6815   33.1565   49.7109 H   0  0  0  0  0  0  0  0  0  0  0  0
   62.5434   33.8720   50.5410 H   0  0  0  0  0  0  0  0  0  0  0  0
   61.8002   32.2406   50.7156 H   0  0  0  0  0  0  0  0  0  0  0  0
   62.6236   34.8541   48.2387 H   0  0  0  0  0  0  0  0  0  0  0  0
   64.0232   33.7534   48.6781 H   0  0  0  0  0  0  0  0  0  0  0  0
   64.2704   32.9714   46.5606 H   0  0  0  0  0  0  0  0  0  0  0  0
   62.5269   33.1410   46.1630 H   0  0  0  0  0  0  0  0  0  0  0  0
   63.5929   34.5868   46.1630 H   0  0  0  0  0  0  0  0  0  0  0  0
   63.5089   31.4414   47.9770 H   0  0  0  0  0  0  0  0  0  0  0  0
   62.7222   31.0248   49.5588 H   0  0  0  0  0  0  0  0  0  0  0  0
   61.6819   30.7016   46.7415 H   0  0  0  0  0  0  0  0  0  0  0  0
   61.6288   29.5676   48.1540 H   0  0  0  0  0  0  0  0  0  0  0  0
   59.6870   30.3880   48.8020 H   0  0  0  0  0  0  0  0  0  0  0  0
   60.1690   31.9450   48.6970 H   0  0  0  0  0  0  0  0  0  0  0  0
   56.6026   31.7429   42.9674 H   0  0  0  0  0  0  0  0  0  0  0  0
   58.2349   32.3277   42.4979 H   0  0  0  0  0  0  0  0  0  0  0  0
   57.8772   30.5674   42.4979 H   0  0  0  0  0  0  0  0  0  0  0  0
   57.8068   33.9617   43.5603 H   0  0  0  0  0  0  0  0  0  0  0  0
   58.7004   35.9895   44.6707 H   0  0  0  0  0  0  0  0  0  0  0  0
   59.9402   35.7974   46.8150 H   0  0  0  0  0  0  0  0  0  0  0  0
   60.2447   33.5798   47.8862 H   0  0  0  0  0  0  0  0  0  0  0  0
   56.4922   29.3587   43.9089 H   0  0  0  0  0  0  0  0  0  0  0  0
   58.1533   28.6084   43.7035 H   0  0  0  0  0  0  0  0  0  0  0  0
   56.2100   28.1995   46.0033 H   0  0  0  0  0  0  0  0  0  0  0  0
   56.7492   26.9974   44.7774 H   0  0  0  0  0  0  0  0  0  0  0  0
   57.9747   26.7054   46.9086 H   0  0  0  0  0  0  0  0  0  0  0  0
   59.0829   27.2111   45.5991 H   0  0  0  0  0  0  0  0  0  0  0  0
  1  2  1  0
  2  3  1  0
  3  4  1  0
  4  5  1  0
  3  6  1  0
  6  7  1  0
  7  8  1  0
  8  9  1  0
  9 10  2  0
 10 11  1  0
 11 12  2  0
 12 13  1  0
 12 14  1  0
 14 15  2  0
 15 16  1  0
 16 17  2  0
 17 18  1  0
 18 19  2  0
 11 20  1  0
 20 21  1  0
 21 22  1  0
 22 23  1  0
 23 24  2  0
 19  9  1  0
 23 10  1  0
 19 14  1  0
  1 25  1  0
  1 26  1  0
  1 27  1  0
  2 28  1  0
  2 29  1  0
  4 30  1  0
  4 31  1  0
  5 32  1  0
  5 33  1  0
  5 34  1  0
  6 35  1  0
  6 36  1  0
  7 37  1  0
  7 38  1  0
  8 39  1  0
  8 40  1  0
 13 41  1  0
 13 42  1  0
 13 43  1  0
 15 44  1  0
 16 45  1  0
 17 46  1  0
 18 47  1  0
 20 48  1  0
 20 49  1  0
 21 50  1  0
 21 51  1  0
 22 52  1  0
 22 53  1  0
M  CHG  2   8   1  12   1
M  END
>  <UniqueID>  (4) 
4

>  <SMILES>  (4) 
CCN(CC)CC[NH2+]c1c2c([n+](C)c3ccccc13)CCCC2=O

>  <Energy>  (4) 
79.68966390271545

>  <Genealogy>  (4) 
CCN(CC)CC[NH2+]c1c2c([n+](C)c3ccccc13)CCCC2=O (protonated)
CCN(CC)CC[NH2+]c1c2c([n+](C)c3ccccc13)CCCC2=O (3D coordinates assigned)
CCN(CC)CC[NH2+]c1c2c([n+](C)c3ccccc13)CCCC2=O (nonaromatic ring conformer: 79.68966390271545 kcal/mol)

>  <smiles>  (4) 
CCN(CC)CCNc1c2c([n+](C)c3ccccc13)CCCC2=O

>  <score_type>  (4) 
oracle

>  <origin>  (4) 
adg

>  <m_score__min__energy>  (4) 
-4.2800000000000002

>  <m_primary>  (4) 
energy

$$$$
4:0
     RDKit          3D

 52 52  0  0  0  0  0  0  0  0999 V2000
   56.6440   24.0820   43.6010 C   0  0  0  0  0  0  0  0  0  0  0  0
   57.7300   24.7190   44.4650 C   0  0  0  0  0  0  0  0  0  0  0  0
   57.1700   25.9220   45.2550 C   0  0  0  0  0  0  0  0  0  0  0  0
   57.3770   27.2500   44.6120 N   0  0  0  0  0  0  0  0  0  0  0  0
   58.7720   27.5040   44.1550 C   0  0  0  0  0  0  0  0  0  0  0  0
   59.7990   27.7250   45.2910 C   0  0  0  0  0  0  0  0  0  0  0  0
   60.9530   28.6120   44.8310 C   0  0  0  0  0  0  0  0  0  0  0  0
   56.7980   28.3580   45.3450 C   0  0  0  0  0  0  0  0  0  0  0  0
   57.3750   28.8430   46.3580 O   0  0  0  0  0  0  0  0  0  0  0  0
   55.5470   28.9030   44.9090 N   0  0  0  0  0  0  0  0  0  0  0  0
   55.4070   30.0810   44.0580 C   0  0  0  0  0  0  0  0  0  0  0  0
   56.3010   29.9780   42.8130 C   0  0  0  0  0  0  0  0  0  0  0  0
   57.2090   31.2180   42.6390 C   0  0  0  0  0  0  0  0  0  0  0  0
   57.6270   31.8540   43.9080 N   0  0  0  0  0  0  0  0  0  0  0  0
   58.1630   33.2180   43.7400 C   0  0  0  0  0  0  0  0  0  0  0  0
   58.6200   33.8070   45.0910 C   0  0  0  0  0  0  0  0  0  0  0  0
   58.1070   32.9950   46.2120 N   0  0  0  0  0  0  0  0  0  0  0  0
   58.4600   33.6180   47.4980 C   0  0  0  0  0  0  0  0  0  0  0  0
   58.6390   31.6150   46.1490 C   0  0  0  0  0  0  0  0  0  0  0  0
   58.5300   31.0250   44.7270 C   0  0  0  0  0  0  0  0  0  0  0  0
   55.8771   23.6321   44.2486 H   0  0  0  0  0  0  0  0  0  0  0  0
   56.1819   24.8522   42.9660 H   0  0  0  0  0  0  0  0  0  0  0  0
   57.0907   23.3028   42.9660 H   0  0  0  0  0  0  0  0  0  0  0  0
   58.1126   23.9695   45.1734 H   0  0  0  0  0  0  0  0  0  0  0  0
   58.5380   25.0746   43.8087 H   0  0  0  0  0  0  0  0  0  0  0  0
   56.0882   25.7709   45.3850 H   0  0  0  0  0  0  0  0  0  0  0  0
   57.7246   25.9508   46.2045 H   0  0  0  0  0  0  0  0  0  0  0  0
   56.8060   27.1940   43.7340 H   0  0  0  0  0  0  0  0  0  0  0  0
   59.1002   26.6381   43.5612 H   0  0  0  0  0  0  0  0  0  0  0  0
   58.7425   28.4406   43.5789 H   0  0  0  0  0  0  0  0  0  0  0  0
   59.2943   28.2063   46.1417 H   0  0  0  0  0  0  0  0  0  0  0  0
   60.2084   26.7469   45.5839 H   0  0  0  0  0  0  0  0  0  0  0  0
   61.4780   29.0155   45.7094 H   0  0  0  0  0  0  0  0  0  0  0  0
   61.6536   28.0177   44.2261 H   0  0  0  0  0  0  0  0  0  0  0  0
   60.5590   29.4419   44.2261 H   0  0  0  0  0  0  0  0  0  0  0  0
   54.3579   30.1707   43.7397 H   0  0  0  0  0  0  0  0  0  0  0  0
   55.7149   30.9654   44.6350 H   0  0  0  0  0  0  0  0  0  0  0  0
   56.9360   29.0847   42.9063 H   0  0  0  0  0  0  0  0  0  0  0  0
   55.6455   29.9143   41.9320 H   0  0  0  0  0  0  0  0  0  0  0  0
   58.1137   30.9081   42.0954 H   0  0  0  0  0  0  0  0  0  0  0  0
   56.6157   31.9668   42.0938 H   0  0  0  0  0  0  0  0  0  0  0  0
   59.0223   33.1841   43.0541 H   0  0  0  0  0  0  0  0  0  0  0  0
   57.3667   33.8579   43.3320 H   0  0  0  0  0  0  0  0  0  0  0  0
   59.7194   33.8190   45.1268 H   0  0  0  0  0  0  0  0  0  0  0  0
   58.2250   34.8294   45.1839 H   0  0  0  0  0  0  0  0  0  0  0  0
   58.1012   32.9849   48.3229 H   0  0  0  0  0  0  0  0  0  0  0  0
   59.5527   33.7246   47.5661 H   0  0  0  0  0  0  0  0  0  0  0  0
   57.9899   34.6101   47.5661 H   0  0  0  0  0  0  0  0  0  0  0  0
   59.6970   31.6268   46.4498 H   0  0  0  0  0  0  0  0  0  0  0  0
   58.0431   30.9867   46.8273 H   0  0  0  0  0  0  0  0  0  0  0  0
   59.5272   31.0043   44.2632 H   0  0  0  0  0  0  0  0  0  0  0  0
   58.1275   30.0031   44.7886 H   0  0  0  0  0  0  0  0  0  0  0  0
  1  2  1  0
  2  3  1  0
  3  4  1  0
  4  5  1  0
  5  6  1  0
  6  7  1  0
  4  8  1  0
  8  9  2  0
  8 10  1  0
 10 11  1  0
 11 12  1  0
 12 13  1  0
 13 14  1  0
 14 15  1  0
 15 16  1  0
 16 17  1  0
 17 18  1  0
 17 19  1  0
 19 20  1  0
 20 14  1  0
  1 21  1  0
  1 22  1  0
  1 23  1  0
  2 24  1  0
  2 25  1  0
  3 26  1  0
  3 27  1  0
  4 28  1  0
  5 29  1  0
  5 30  1  0
  6 31  1  0
  6 32  1  0
  7 33  1  0
  7 34  1  0
  7 35  1  0
 11 36  1  0
 11 37  1  0
 12 38  1  0
 12 39  1  0
 13 40  1  0
 13 41  1  0
 15 42  1  0
 15 43  1  0
 16 44  1  0
 16 45  1  0
 18 46  1  0
 18 47  1  0
 18 48  1  0
 19 49  1  0
 19 50  1  0
 20 51  1  0
 20 52  1  0
M  CHG  2   4   1  10  -1
M  END
>  <UniqueID>  (5) 
5

>  <SMILES>  (5) 
CCC[NH+](CCC)C(=O)[N-]CCCN1CCN(C)CC1

>  <Energy>  (5) 
58.13817140326237

>  <Genealogy>  (5) 
CCC[NH+](CCC)C(=O)[N-]CCCN1CCN(C)CC1 (protonated)
CCC[NH+](CCC)C(=O)[N-]CCCN1CCN(C)CC1 (3D coordinates assigned)
CCC[NH+](CCC)C(=O)[N-]CCCN1CCN(C)CC1 (nonaromatic ring conformer: 58.13817140326237 kcal/mol)

>  <smiles>  (5) 
CCCN(CCC)C(=O)NCCCN1CCN(C)CC1

>  <score_type>  (5) 
oracle

>  <origin>  (5) 
adg

>  <m_score__min__energy>  (5) 
-6.7599999999999998

>  <m_primary>  (5) 
energy

$$$$
5:0
     RDKit          3D

 63 66  0  0  0  0  0  0  0  0999 V2000
   63.3840   34.1870   46.0520 C   0  0  0  0  0  0  0  0  0  0  0  0
   63.7680   33.8520   47.4960 C   0  0  0  0  0  0  0  0  0  0  0  0
   64.1280   32.4310   47.6610 N   0  0  0  0  0  0  0  0  0  0  0  0
   62.9740   31.5870   48.0380 C   0  0  0  0  0  0  0  0  0  0  0  0
   62.4090   31.9560   49.4210 C   0  0  0  0  0  0  0  0  0  0  0  0
   61.0930   32.5910   49.3070 N   0  0  0  0  0  0  0  0  0  0  0  0
   60.1330   32.1570   48.3270 C   0  0  0  0  0  0  0  0  0  0  0  0
   59.7440   33.0520   47.3150 C   0  0  0  0  0  0  0  0  0  0  0  0
   60.0330   34.4310   47.4220 C   0  0  0  0  0  0  0  0  0  0  0  0
   59.7060   35.3100   46.3950 C   0  0  0  0  0  0  0  0  0  0  0  0
   59.0980   34.8340   45.2390 C   0  0  0  0  0  0  0  0  0  0  0  0
   58.7920   33.4800   45.1150 C   0  0  0  0  0  0  0  0  0  0  0  0
   59.0800   32.5630   46.1610 C   0  0  0  0  0  0  0  0  0  0  0  0
   58.7760   31.2190   46.0540 N   0  0  0  0  0  0  0  0  0  0  0  0
   57.9050   30.7470   44.9530 C   0  0  0  0  0  0  0  0  0  0  0  0
   59.2400   30.3240   46.9980 C   0  0  0  0  0  0  0  0  0  0  0  0
   59.2250   28.9280   46.7600 C   0  0  0  0  0  0  0  0  0  0  0  0
   59.5960   28.0170   47.7560 C   0  0  0  0  0  0  0  0  0  0  0  0
   59.6230   26.6310   47.5390 O   0  0  0  0  0  0  0  0  0  0  0  0
   60.0900   26.0070   46.3460 C   0  0  0  0  0  0  0  0  0  0  0  0
   59.9270   28.4890   49.0210 C   0  0  0  0  0  0  0  0  0  0  0  0
   59.9590   29.8640   49.3010 C   0  0  0  0  0  0  0  0  0  0  0  0
   60.0960   30.3110   50.7530 C   0  0  0  0  0  0  0  0  0  0  0  0
   58.7880   30.3910   51.4350 N   0  0  0  0  0  0  0  0  0  0  0  0
   57.9170   31.3630   51.0150 C   0  0  0  0  0  0  0  0  0  0  0  0
   56.6840   31.5430   51.6400 C   0  0  0  0  0  0  0  0  0  0  0  0
   56.3320   30.7220   52.7050 C   0  0  0  0  0  0  0  0  0  0  0  0
   57.2050   29.7220   53.1230 C   0  0  0  0  0  0  0  0  0  0  0  0
   58.4350   29.5480   52.4700 C   0  0  0  0  0  0  0  0  0  0  0  0
   59.2750   28.4590   52.8810 N   0  0  0  0  0  0  0  0  0  0  0  0
   59.7810   30.7900   48.2270 C   0  0  0  0  0  0  0  0  0  0  0  0
   62.5551   34.9101   46.0514 H   0  0  0  0  0  0  0  0  0  0  0  0
   64.2510   34.6226   45.5337 H   0  0  0  0  0  0  0  0  0  0  0  0
   63.0701   33.2690   45.5337 H   0  0  0  0  0  0  0  0  0  0  0  0
   64.6291   34.4717   47.7865 H   0  0  0  0  0  0  0  0  0  0  0  0
   62.8952   34.0557   48.1337 H   0  0  0  0  0  0  0  0  0  0  0  0
   64.5440   32.0910   46.7630 H   0  0  0  0  0  0  0  0  0  0  0  0
   64.8730   32.3350   48.3900 H   0  0  0  0  0  0  0  0  0  0  0  0
   62.1813   31.7150   47.2862 H   0  0  0  0  0  0  0  0  0  0  0  0
   63.3199   30.5437   48.0827 H   0  0  0  0  0  0  0  0  0  0  0  0
   62.3144   31.0415   50.0249 H   0  0  0  0  0  0  0  0  0  0  0  0
   63.0978   32.6684   49.8984 H   0  0  0  0  0  0  0  0  0  0  0  0
   60.8830   33.4290   49.8950 H   0  0  0  0  0  0  0  0  0  0  0  0
   60.5229   34.8142   48.3293 H   0  0  0  0  0  0  0  0  0  0  0  0
   59.9286   36.3824   46.4975 H   0  0  0  0  0  0  0  0  0  0  0  0
   58.8578   35.5279   44.4200 H   0  0  0  0  0  0  0  0  0  0  0  0
   58.3193   33.1151   44.1912 H   0  0  0  0  0  0  0  0  0  0  0  0
   57.0116   30.2628   45.3741 H   0  0  0  0  0  0  0  0  0  0  0  0
   57.6004   31.6035   44.3336 H   0  0  0  0  0  0  0  0  0  0  0  0
   58.4562   30.0242   44.3336 H   0  0  0  0  0  0  0  0  0  0  0  0
   58.9158   28.5523   45.7734 H   0  0  0  0  0  0  0  0  0  0  0  0
   60.7304   25.1513   46.6063 H   0  0  0  0  0  0  0  0  0  0  0  0
   59.2310   25.6559   45.7554 H   0  0  0  0  0  0  0  0  0  0  0  0
   60.6691   26.7321   45.7554 H   0  0  0  0  0  0  0  0  0  0  0  0
   60.1686   27.7707   49.8183 H   0  0  0  0  0  0  0  0  0  0  0  0
   60.7315   29.5898   51.2878 H   0  0  0  0  0  0  0  0  0  0  0  0
   60.5427   31.3162   50.7575 H   0  0  0  0  0  0  0  0  0  0  0  0
   58.1957   32.0113   50.1712 H   0  0  0  0  0  0  0  0  0  0  0  0
   55.9956   32.3279   51.2934 H   0  0  0  0  0  0  0  0  0  0  0  0
   55.3676   30.8621   53.2152 H   0  0  0  0  0  0  0  0  0  0  0  0
   56.9312   29.0686   53.9645 H   0  0  0  0  0  0  0  0  0  0  0  0
   59.6200   28.4060   53.8660 H   0  0  0  0  0  0  0  0  0  0  0  0
   59.4290   27.6140   52.2890 H   0  0  0  0  0  0  0  0  0  0  0  0
  1  2  1  0
  2  3  1  0
  3  4  1  0
  4  5  1  0
  5  6  1  0
  6  7  1  0
  7  8  2  0
  8  9  1  0
  9 10  2  0
 10 11  1  0
 11 12  2  0
 12 13  1  0
 13 14  2  0
 14 15  1  0
 14 16  1  0
 16 17  2  0
 17 18  1  0
 18 19  1  0
 19 20  1  0
 18 21  2  0
 21 22  1  0
 22 23  1  0
 23 24  1  0
 24 25  2  0
 25 26  1  0
 26 27  2  0
 27 28  1  0
 28 29  2  0
 29 30  1  0
 22 31  2  0
 31  7  1  0
 13  8  1  0
 31 16  1  0
 29 24  1  0
  1 32  1  0
  1 33  1  0
  1 34  1  0
  2 35  1  0
  2 36  1  0
  3 37  1  0
  3 38  1  0
  4 39  1  0
  4 40  1  0
  5 41  1  0
  5 42  1  0
  6 43  1  0
  9 44  1  0
 10 45  1  0
 11 46  1  0
 12 47  1  0
 15 48  1  0
 15 49  1  0
 15 50  1  0
 17 51  1  0
 20 52  1  0
 20 53  1  0
 20 54  1  0
 21 55  1  0
 23 56  1  0
 23 57  1  0
 25 58  1  0
 26 59  1  0
 27 60  1  0
 28 61  1  0
 30 62  1  0
 30 63  1  0
M  CHG  3   3   1  14   1  24   1
M  END
>  <UniqueID>  (6) 
6

>  <SMILES>  (6) 
CC[NH2+]CCNc1c2ccccc2[n+](C)c2cc(OC)cc(C[n+]3ccccc3N)c12

>  <Energy>  (6) 
105.32612264223003

>  <Genealogy>  (6) 
CC[NH2+]CCNc1c2ccccc2[n+](C)c2cc(OC)cc(C[n+]3ccccc3N)c12 (protonated)
CC[NH2+]CCNc1c2ccccc2[n+](C)c2cc(OC)cc(C[n+]3ccccc3N)c12 (3D coordinates assigned)
CC[NH2+]CCNc1c2ccccc2[n+](C)c2cc(OC)cc(C[n+]3ccccc3N)c12 (optimized conformer: 105.32612264223003 kcal/mol)

>  <smiles>  (6) 
CCNCCNc1c2ccccc2[n+](C)c2cc(OC)cc(C[n+]3ccccc3N)c12

>  <score_type>  (6) 
oracle

>  <origin>  (6) 
adg

>  <m_score__min__energy>  (6) 
-3.4100000000000001

>  <m_primary>  (6) 
energy

$$$$
6:0
     RDKit          3D

 52 54  0  0  0  0  0  0  0  0999 V2000
   63.0530   33.8710   46.3850 C   0  0  0  0  0  0  0  0  0  0  0  0
   63.4060   33.7390   47.8710 C   0  0  0  0  0  0  0  0  0  0  0  0
   64.0670   32.4580   48.1800 N   0  0  0  0  0  0  0  0  0  0  0  0
   64.5100   32.3900   49.5850 C   0  0  0  0  0  0  0  0  0  0  0  0
   63.6300   31.4410   50.4300 C   0  0  0  0  0  0  0  0  0  0  0  0
   62.3810   30.9920   49.7800 N   0  0  0  0  0  0  0  0  0  0  0  0
   61.1740   31.7680   50.1140 C   0  0  0  0  0  0  0  0  0  0  0  0
   60.0160   31.5060   49.1400 C   0  0  0  0  0  0  0  0  0  0  0  0
   60.5250   30.9610   47.8820 N   0  0  0  0  0  0  0  0  0  0  0  0
   59.7110   30.9470   46.6940 C   0  0  0  0  0  0  0  0  0  0  0  0
   59.2580   32.1500   46.1250 C   0  0  0  0  0  0  0  0  0  0  0  0
   59.7280   33.3930   46.5980 C   0  0  0  0  0  0  0  0  0  0  0  0
   59.3010   34.5830   46.0130 C   0  0  0  0  0  0  0  0  0  0  0  0
   58.4220   34.5540   44.9380 C   0  0  0  0  0  0  0  0  0  0  0  0
   57.9510   33.3350   44.4490 C   0  0  0  0  0  0  0  0  0  0  0  0
   58.3370   32.1080   45.0450 C   0  0  0  0  0  0  0  0  0  0  0  0
   57.8550   30.8940   44.5900 N   0  0  0  0  0  0  0  0  0  0  0  0
   56.6890   30.8550   43.6810 C   0  0  0  0  0  0  0  0  0  0  0  0
   58.4480   29.7160   45.0080 C   0  0  0  0  0  0  0  0  0  0  0  0
   58.1710   28.4760   44.3780 C   0  0  0  0  0  0  0  0  0  0  0  0
   58.7270   27.2890   44.8520 C   0  0  0  0  0  0  0  0  0  0  0  0
   58.4430   26.1140   44.2350 F   0  0  0  0  0  0  0  0  0  0  0  0
   59.5790   27.3040   45.9500 C   0  0  0  0  0  0  0  0  0  0  0  0
   59.9030   28.5110   46.5650 C   0  0  0  0  0  0  0  0  0  0  0  0
   59.3640   29.7260   46.0940 C   0  0  0  0  0  0  0  0  0  0  0  0
   62.0270   34.2547   46.2845 H   0  0  0  0  0  0  0  0  0  0  0  0
   63.7539   34.5678   45.9021 H   0  0  0  0  0  0  0  0  0  0  0  0
   63.1248   32.8853   45.9021 H   0  0  0  0  0  0  0  0  0  0  0  0
   64.0822   34.5612   48.1478 H   0  0  0  0  0  0  0  0  0  0  0  0
   62.4675   33.7788   48.4435 H   0  0  0  0  0  0  0  0  0  0  0  0
   64.8710   32.3190   47.5260 H   0  0  0  0  0  0  0  0  0  0  0  0
   63.3770   31.6880   48.0120 H   0  0  0  0  0  0  0  0  0  0  0  0
   65.5483   32.0278   49.6118 H   0  0  0  0  0  0  0  0  0  0  0  0
   64.4265   33.3993   50.0144 H   0  0  0  0  0  0  0  0  0  0  0  0
   64.2269   30.5492   50.6718 H   0  0  0  0  0  0  0  0  0  0  0  0
   63.3222   32.0183   51.3143 H   0  0  0  0  0  0  0  0  0  0  0  0
   62.2090   29.9930   50.0410 H   0  0  0  0  0  0  0  0  0  0  0  0
   60.8493   31.4953   51.1290 H   0  0  0  0  0  0  0  0  0  0  0  0
   61.4335   32.8347   50.0443 H   0  0  0  0  0  0  0  0  0  0  0  0
   59.3179   30.7858   49.5915 H   0  0  0  0  0  0  0  0  0  0  0  0
   59.4984   32.4548   48.9357 H   0  0  0  0  0  0  0  0  0  0  0  0
   61.4630   30.5020   47.8630 H   0  0  0  0  0  0  0  0  0  0  0  0
   60.4387   33.4230   47.4371 H   0  0  0  0  0  0  0  0  0  0  0  0
   59.6604   35.5467   46.4029 H   0  0  0  0  0  0  0  0  0  0  0  0
   58.0961   35.4950   44.4707 H   0  0  0  0  0  0  0  0  0  0  0  0
   57.2685   33.3259   43.5863 H   0  0  0  0  0  0  0  0  0  0  0  0
   55.7629   30.8240   44.2737 H   0  0  0  0  0  0  0  0  0  0  0  0
   56.6884   31.7536   43.0466 H   0  0  0  0  0  0  0  0  0  0  0  0
   56.7485   29.9583   43.0466 H   0  0  0  0  0  0  0  0  0  0  0  0
   57.5069   28.4506   43.5015 H   0  0  0  0  0  0  0  0  0  0  0  0
   59.9977   26.3619   46.3336 H   0  0  0  0  0  0  0  0  0  0  0  0
   60.5864   28.5165   47.4270 H   0  0  0  0  0  0  0  0  0  0  0  0
  1  2  1  0
  2  3  1  0
  3  4  1  0
  4  5  1  0
  5  6  1  0
  6  7  1  0
  7  8  1  0
  8  9  1  0
  9 10  1  0
 10 11  2  0
 11 12  1  0
 12 13  2  0
 13 14  1  0
 14 15  2  0
 15 16  1  0
 16 17  2  0
 17 18  1  0
 17 19  1  0
 19 20  2  0
 20 21  1  0
 21 22  1  0
 21 23  2  0
 23 24  1  0
 24 25  2  0
 25 10  1  0
 16 11  1  0
 25 19  1  0
  1 26  1  0
  1 27  1  0
  1 28  1  0
  2 29  1  0
  2 30  1  0
  3 31  1  0
  3 32  1  0
  4 33  1  0
  4 34  1  0
  5 35  1  0
  5 36  1  0
  6 37  1  0
  7 38  1  0
  7 39  1  0
  8 40  1  0
  8 41  1  0
  9 42  1  0
 12 43  1  0
 13 44  1  0
 14 45  1  0
 15 46  1  0
 18 47  1  0
 18 48  1  0
 18 49  1  0
 20 50  1  0
 23 51  1  0
 24 52  1  0
M  CHG  2   3   1  17   1
M  END
>  <UniqueID>  (7) 
7

>  <SMILES>  (7) 
CC[NH2+]CCNCCNc1c2ccccc2[n+](C)c2cc(F)ccc12

>  <Energy>  (7) 
74.47924625695053

>  <Genealogy>  (7) 
CC[NH2+]CCNCCNc1c2ccccc2[n+](C)c2cc(F)ccc12 (protonated)
CC[NH2+]CCNCCNc1c2ccccc2[n+](C)c2cc(F)ccc12 (3D coordinates assigned)
CC[NH2+]CCNCCNc1c2ccccc2[n+](C)c2cc(F)ccc12 (optimized conformer: 74.47924625695053 kcal/mol)

>  <smiles>  (7) 
CCNCCNCCNc1c2ccccc2[n+](C)c2cc(F)ccc12

>  <score_type>  (7) 
oracle

>  <origin>  (7) 
adg

>  <m_score__min__energy>  (7) 
-4.1799999999999997

>  <m_primary>  (7) 
energy

$$$$
7:0
     RDKit          3D

 50 51  0  0  0  0  0  0  0  0999 V2000
   59.9490   28.7490   47.8850 C   0  0  0  0  0  0  0  0  0  0  0  0
   59.4320   28.6640   46.4570 C   0  0  0  0  0  0  0  0  0  0  0  0
   59.1640   29.9700   45.9810 O   0  0  0  0  0  0  0  0  0  0  0  0
   57.8240   30.2440   46.0980 N   0  0  0  0  0  0  0  0  0  0  0  0
   57.1200   29.6630   44.9510 C   0  0  0  0  0  0  0  0  0  0  0  0
   56.5420   30.7630   44.0520 C   0  0  0  0  0  0  0  0  0  0  0  0
   57.5790   31.2750   43.0380 C   0  0  0  0  0  0  0  0  0  0  0  0
   58.0570   32.7080   43.3420 C   0  0  0  0  0  0  0  0  0  0  0  0
   57.5570   33.2460   44.6900 C   0  0  0  0  0  0  0  0  0  0  0  0
   58.6000   33.1190   45.7190 N   0  0  0  0  0  0  0  0  0  0  0  0
   58.1840   33.6730   47.0190 C   0  0  0  0  0  0  0  0  0  0  0  0
   58.7020   32.8560   48.2280 C   0  0  2  0  0  0  0  0  0  0  0  0
   59.2810   33.7670   49.3290 C   0  0  0  0  0  0  0  0  0  0  0  0
   60.6000   34.4300   48.9000 C   0  0  0  0  0  0  0  0  0  0  0  0
   61.5700   33.4380   48.3050 C   0  0  0  0  0  0  0  0  0  0  0  0
   62.9350   33.7590   48.2330 C   0  0  0  0  0  0  0  0  0  0  0  0
   63.8390   32.8680   47.6480 C   0  0  0  0  0  0  0  0  0  0  0  0
   63.3870   31.6540   47.1220 C   0  0  0  0  0  0  0  0  0  0  0  0
   62.0280   31.3320   47.1720 C   0  0  0  0  0  0  0  0  0  0  0  0
   61.1110   32.2220   47.7530 C   0  0  0  0  0  0  0  0  0  0  0  0
   59.7140   31.8880   47.7990 N   0  0  0  0  0  0  0  0  0  0  0  0
   59.1129   28.6115   48.5865 H   0  0  0  0  0  0  0  0  0  0  0  0
   60.6997   27.9622   48.0506 H   0  0  0  0  0  0  0  0  0  0  0  0
   60.4083   29.7347   48.0506 H   0  0  0  0  0  0  0  0  0  0  0  0
   60.1909   28.1881   45.8186 H   0  0  0  0  0  0  0  0  0  0  0  0
   58.5097   28.0650   46.4327 H   0  0  0  0  0  0  0  0  0  0  0  0
   57.5980   31.2680   46.1840 H   0  0  0  0  0  0  0  0  0  0  0  0
   57.8246   29.0530   44.3667 H   0  0  0  0  0  0  0  0  0  0  0  0
   56.2925   29.0412   45.3234 H   0  0  0  0  0  0  0  0  0  0  0  0
   55.6782   30.3581   43.5044 H   0  0  0  0  0  0  0  0  0  0  0  0
   56.2440   31.6065   44.6921 H   0  0  0  0  0  0  0  0  0  0  0  0
   58.4497   30.6031   43.0566 H   0  0  0  0  0  0  0  0  0  0  0  0
   57.0954   31.2906   42.0501 H   0  0  0  0  0  0  0  0  0  0  0  0
   59.1569   32.7138   43.3509 H   0  0  0  0  0  0  0  0  0  0  0  0
   57.6433   33.3606   42.5591 H   0  0  0  0  0  0  0  0  0  0  0  0
   57.2873   34.3065   44.5780 H   0  0  0  0  0  0  0  0  0  0  0  0
   56.6796   32.6602   45.0013 H   0  0  0  0  0  0  0  0  0  0  0  0
   58.8630   32.1120   45.8270 H   0  0  0  0  0  0  0  0  0  0  0  0
   58.5702   34.6998   47.1005 H   0  0  0  0  0  0  0  0  0  0  0  0
   57.0850   33.6393   47.0504 H   0  0  0  0  0  0  0  0  0  0  0  0
   57.8410   32.3177   48.6511 H   0  0  0  0  0  0  0  0  0  0  0  0
   58.5477   34.5538   49.5597 H   0  0  0  0  0  0  0  0  0  0  0  0
   59.4882   33.1420   50.2101 H   0  0  0  0  0  0  0  0  0  0  0  0
   60.3799   35.2038   48.1498 H   0  0  0  0  0  0  0  0  0  0  0  0
   61.0674   34.8630   49.7967 H   0  0  0  0  0  0  0  0  0  0  0  0
   63.2945   34.7161   48.6389 H   0  0  0  0  0  0  0  0  0  0  0  0
   64.9082   33.1224   47.6013 H   0  0  0  0  0  0  0  0  0  0  0  0
   64.1018   30.9516   46.6684 H   0  0  0  0  0  0  0  0  0  0  0  0
   61.6755   30.3773   46.7544 H   0  0  0  0  0  0  0  0  0  0  0  0
   59.3970   30.9510   47.4630 H   0  0  0  0  0  0  0  0  0  0  0  0
  1  2  1  0
  2  3  1  0
  3  4  1  0
  4  5  1  0
  5  6  1  0
  6  7  1  0
  7  8  1  0
  8  9  1  0
  9 10  1  0
 10 11  1  0
 11 12  1  0
 12 13  1  0
 13 14  1  0
 14 15  1  0
 15 16  2  0
 16 17  1  0
 17 18  2  0
 18 19  1  0
 19 20  2  0
 20 21  1  0
 21 12  1  0
 20 15  1  0
  1 22  1  0
  1 23  1  0
  1 24  1  0
  2 25  1  0
  2 26  1  0
  4 27  1  0
  5 28  1  0
  5 29  1  0
  6 30  1  0
  6 31  1  0
  7 32  1  0
  7 33  1  0
  8 34  1  0
  8 35  1  0
  9 36  1  0
  9 37  1  0
 10 38  1  0
 11 39  1  0
 11 40  1  0
 12 41  1  1
 13 42  1  0
 13 43  1  0
 14 44  1  0
 14 45  1  0
 16 46  1  0
 17 47  1  0
 18 48  1  0
 19 49  1  0
 21 50  1  0
M  END
>  <UniqueID>  (8) 
8

>  <SMILES>  (8) 
CCONCCCCCNC[C@@H]1CCc2ccccc2N1

>  <Energy>  (8) 
43.08899390169302

>  <Genealogy>  (8) 
CCONCCCCCNC[C@@H]1CCc2ccccc2N1 (chirality)
CCONCCCCCNC[C@@H]1CCc2ccccc2N1 (3D coordinates assigned)
CCONCCCCCNC[C@@H]1CCc2ccccc2N1 (nonaromatic ring conformer: 43.08899390169302 kcal/mol)

>  <smiles>  (8) 
CCONCCCCCNCC1CCc2ccccc2N1

>  <score_type>  (8) 
oracle

>  <origin>  (8) 
adg

>  <m_score__min__energy>  (8) 
-7.0499999999999998

>  <m_primary>  (8) 
energy

$$$$
8:0
     RDKit          3D

 51 53  0  0  0  0  0  0  0  0999 V2000
   58.5230   34.5210   52.8280 C   0  0  0  0  0  0  0  0  0  0  0  0
   58.9640   33.2190   53.4890 C   0  0  0  0  0  0  0  0  0  0  0  0
   59.3010   32.2380   52.5070 O   0  0  0  0  0  0  0  0  0  0  0  0
   59.4400   32.4700   51.1230 C   0  0  0  0  0  0  0  0  0  0  0  0
   60.5450   33.1530   50.5810 C   0  0  0  0  0  0  0  0  0  0  0  0
   60.6480   33.3520   49.2010 C   0  0  0  0  0  0  0  0  0  0  0  0
   59.6520   32.8840   48.3390 C   0  0  0  0  0  0  0  0  0  0  0  0
   58.5080   32.2650   48.8910 C   0  0  0  0  0  0  0  0  0  0  0  0
   58.4220   31.9900   50.2730 C   0  0  0  0  0  0  0  0  0  0  0  0
   57.3630   31.2950   50.9000 O   0  0  0  0  0  0  0  0  0  0  0  0
   56.4780   31.5860   51.9980 C   0  0  0  0  0  0  0  0  0  0  0  0
   55.1390   30.8550   52.0730 C   0  0  0  0  0  0  0  0  0  0  0  0
   59.8070   33.1760   46.8480 C   0  0  2  0  0  0  0  0  0  0  0  0
   58.9270   32.2800   45.9930 C   0  0  0  0  0  0  0  0  0  0  0  0
   59.1440   30.8900   45.9870 C   0  0  0  0  0  0  0  0  0  0  0  0
   58.3080   30.0440   45.2560 C   0  0  0  0  0  0  0  0  0  0  0  0
   57.2400   30.5740   44.5270 C   0  0  0  0  0  0  0  0  0  0  0  0
   57.0110   31.9510   44.5230 C   0  0  0  0  0  0  0  0  0  0  0  0
   57.8480   32.8060   45.2480 C   0  0  0  0  0  0  0  0  0  0  0  0
   57.5960   34.1380   45.2270 F   0  0  0  0  0  0  0  0  0  0  0  0
   61.2100   33.0340   46.3800 N   0  0  0  0  0  0  0  0  0  0  0  0
   62.3150   33.3300   47.3370 C   0  0  0  0  0  0  0  0  0  0  0  0
   62.9610   31.9870   47.7430 C   0  0  0  0  0  0  0  0  0  0  0  0
   63.3960   34.2070   46.6560 C   0  0  0  0  0  0  0  0  0  0  0  0
   61.8160   34.0800   48.6020 C   0  0  0  0  0  0  0  0  0  0  0  0
   58.2728   35.2596   53.6038 H   0  0  0  0  0  0  0  0  0  0  0  0
   59.3397   34.9093   52.2018 H   0  0  0  0  0  0  0  0  0  0  0  0
   57.6384   34.3330   52.2018 H   0  0  0  0  0  0  0  0  0  0  0  0
   59.8440   33.4150   54.1192 H   0  0  0  0  0  0  0  0  0  0  0  0
   58.1329   32.8351   54.0988 H   0  0  0  0  0  0  0  0  0  0  0  0
   61.3330   33.5328   51.2479 H   0  0  0  0  0  0  0  0  0  0  0  0
   57.6700   31.9927   48.2325 H   0  0  0  0  0  0  0  0  0  0  0  0
   57.0248   31.3564   52.9245 H   0  0  0  0  0  0  0  0  0  0  0  0
   56.1997   32.6392   51.8455 H   0  0  0  0  0  0  0  0  0  0  0  0
   54.8623   30.7039   53.1268 H   0  0  0  0  0  0  0  0  0  0  0  0
   54.3648   31.4556   51.5731 H   0  0  0  0  0  0  0  0  0  0  0  0
   55.2256   29.8790   51.5731 H   0  0  0  0  0  0  0  0  0  0  0  0
   59.4921   34.2234   46.7302 H   0  0  0  0  0  0  0  0  0  0  0  0
   59.9796   30.4661   46.5633 H   0  0  0  0  0  0  0  0  0  0  0  0
   58.4901   28.9592   45.2538 H   0  0  0  0  0  0  0  0  0  0  0  0
   56.5792   29.9054   43.9558 H   0  0  0  0  0  0  0  0  0  0  0  0
   56.1697   32.3652   43.9479 H   0  0  0  0  0  0  0  0  0  0  0  0
   61.3100   33.5790   45.4870 H   0  0  0  0  0  0  0  0  0  0  0  0
   62.9962   31.9139   48.8400 H   0  0  0  0  0  0  0  0  0  0  0  0
   62.3641   31.1560   47.3391 H   0  0  0  0  0  0  0  0  0  0  0  0
   63.9828   31.9347   47.3391 H   0  0  0  0  0  0  0  0  0  0  0  0
   64.0057   34.7016   47.4265 H   0  0  0  0  0  0  0  0  0  0  0  0
   64.0407   33.5735   46.0291 H   0  0  0  0  0  0  0  0  0  0  0  0
   62.9090   34.9684   46.0291 H   0  0  0  0  0  0  0  0  0  0  0  0
   62.6302   34.1324   49.3397 H   0  0  0  0  0  0  0  0  0  0  0  0
   61.5031   35.0962   48.3203 H   0  0  0  0  0  0  0  0  0  0  0  0
  1  2  1  0
  2  3  1  0
  3  4  1  0
  4  5  2  0
  5  6  1  0
  6  7  2  0
  7  8  1  0
  8  9  2  0
  9 10  1  0
 10 11  1  0
 11 12  1  0
  7 13  1  0
 13 14  1  0
 14 15  2  0
 15 16  1  0
 16 17  2  0
 17 18  1  0
 18 19  2  0
 19 20  1  0
 13 21  1  0
 21 22  1  0
 22 23  1  0
 22 24  1  0
 22 25  1  0
  9  4  1  0
 19 14  1  0
 25  6  1  0
  1 26  1  0
  1 27  1  0
  1 28  1  0
  2 29  1  0
  2 30  1  0
  5 31  1  0
  8 32  1  0
 11 33  1  0
 11 34  1  0
 12 35  1  0
 12 36  1  0
 12 37  1  0
 13 38  1  1
 15 39  1  0
 16 40  1  0
 17 41  1  0
 18 42  1  0
 21 43  1  0
 23 44  1  0
 23 45  1  0
 23 46  1  0
 24 47  1  0
 24 48  1  0
 24 49  1  0
 25 50  1  0
 25 51  1  0
M  END
>  <UniqueID>  (9) 
9

>  <SMILES>  (9) 
CCOc1cc2c(cc1OCC)[C@H](c1ccccc1F)NC(C)(C)C2

>  <Energy>  (9) 
75.21882494344602

>  <Genealogy>  (9) 
CCOc1cc2c(cc1OCC)[C@H](c1ccccc1F)NC(C)(C)C2 (chirality)
CCOc1cc2c(cc1OCC)[C@H](c1ccccc1F)NC(C)(C)C2 (3D coordinates assigned)
CCOc1cc2c(cc1OCC)[C@H](c1ccccc1F)NC(C)(C)C2 (nonaromatic ring conformer: 75.21882494344602 kcal/mol)

>  <smiles>  (9) 
CCOc1cc2c(cc1OCC)C(c1ccccc1F)NC(C)(C)C2

>  <score_type>  (9) 
oracle

>  <origin>  (9) 
adg

>  <m_score__min__energy>  (9) 
-6.5700000000000003

>  <m_primary>  (9) 
energy

$$$$
9:0
     RDKit          3D

 41 40  0  0  0  0  0  0  0  0999 V2000
   57.2910   33.6080   45.5960 C   0  0  0  0  0  0  0  0  0  0  0  0
   57.8670   32.3510   44.9530 C   0  0  0  0  0  0  0  0  0  0  0  0
   56.9150   31.3030   44.9840 O   0  0  0  0  0  0  0  0  0  0  0  0
   57.1640   30.3790   43.9450 C   0  0  0  0  0  0  0  0  0  0  0  0
   56.0380   29.3550   43.9080 C   0  0  0  0  0  0  0  0  0  0  0  0
   55.8420   28.7960   45.2380 N   0  0  0  0  0  0  0  0  0  0  0  0
   56.2580   27.4780   45.5990 C   0  0  0  0  0  0  0  0  0  0  0  0
   55.4230   26.6420   46.0390 O   0  0  0  0  0  0  0  0  0  0  0  0
   57.7070   27.1090   45.5120 C   0  0  0  0  0  0  0  0  0  0  0  0
   58.2920   26.7730   46.8920 C   0  0  0  0  0  0  0  0  0  0  0  0
   59.7430   27.2560   47.0750 C   0  0  0  0  0  0  0  0  0  0  0  0
   59.8220   28.7340   47.1160 N   0  0  0  0  0  0  0  0  0  0  0  0
   60.0080   29.4150   45.8120 C   0  0  0  0  0  0  0  0  0  0  0  0
   60.8020   28.6080   44.7730 C   0  0  0  0  0  0  0  0  0  0  0  0
   58.8680   29.3940   48.0390 C   0  0  0  0  0  0  0  0  0  0  0  0
   58.8980   30.9240   47.9850 C   0  0  0  0  0  0  0  0  0  0  0  0
   57.3347   33.5127   46.6910 H   0  0  0  0  0  0  0  0  0  0  0  0
   57.8779   34.4832   45.2804 H   0  0  0  0  0  0  0  0  0  0  0  0
   56.2449   33.7349   45.2804 H   0  0  0  0  0  0  0  0  0  0  0  0
   58.1343   32.5677   43.9082 H   0  0  0  0  0  0  0  0  0  0  0  0
   58.7607   32.0395   45.5137 H   0  0  0  0  0  0  0  0  0  0  0  0
   57.2104   30.9103   42.9829 H   0  0  0  0  0  0  0  0  0  0  0  0
   58.1223   29.8695   44.1242 H   0  0  0  0  0  0  0  0  0  0  0  0
   55.1100   29.8432   43.5757 H   0  0  0  0  0  0  0  0  0  0  0  0
   56.3008   28.5483   43.2079 H   0  0  0  0  0  0  0  0  0  0  0  0
   57.8126   26.2317   44.8569 H   0  0  0  0  0  0  0  0  0  0  0  0
   58.2567   27.9717   45.1076 H   0  0  0  0  0  0  0  0  0  0  0  0
   57.6663   27.2491   47.6613 H   0  0  0  0  0  0  0  0  0  0  0  0
   58.3006   25.6768   46.9831 H   0  0  0  0  0  0  0  0  0  0  0  0
   60.1384   26.8507   48.0181 H   0  0  0  0  0  0  0  0  0  0  0  0
   60.3350   26.9024   46.2180 H   0  0  0  0  0  0  0  0  0  0  0  0
   59.0139   29.6292   45.3926 H   0  0  0  0  0  0  0  0  0  0  0  0
   60.5963   30.3217   46.0164 H   0  0  0  0  0  0  0  0  0  0  0  0
   61.4833   27.9156   45.2892 H   0  0  0  0  0  0  0  0  0  0  0  0
   60.1053   28.0355   44.1430 H   0  0  0  0  0  0  0  0  0  0  0  0
   61.3858   29.2953   44.1430 H   0  0  0  0  0  0  0  0  0  0  0  0
   57.8521   29.0597   47.7819 H   0  0  0  0  0  0  0  0  0  0  0  0
   59.1658   29.1080   49.0586 H   0  0  0  0  0  0  0  0  0  0  0  0
   58.9059   31.3269   49.0085 H   0  0  0  0  0  0  0  0  0  0  0  0
   59.8028   31.2545   47.4538 H   0  0  0  0  0  0  0  0  0  0  0  0
   58.0069   31.2897   47.4538 H   0  0  0  0  0  0  0  0  0  0  0  0
  1  2  1  0
  2  3  1  0
  3  4  1  0
  4  5  1  0
  5  6  1  0
  6  7  1  0
  7  8  2  0
  7  9  1  0
  9 10  1  0
 10 11  1  0
 11 12  1  0
 12 13  1  0
 13 14  1  0
 12 15  1  0
 15 16  1  0
  1 17  1  0
  1 18  1  0
  1 19  1  0
  2 20  1  0
  2 21  1  0
  4 22  1  0
  4 23  1  0
  5 24  1  0
  5 25  1  0
  9 26  1  0
  9 27  1  0
 10 28  1  0
 10 29  1  0
 11 30  1  0
 11 31  1  0
 13 32  1  0
 13 33  1  0
 14 34  1  0
 14 35  1  0
 14 36  1  0
 15 37  1  0
 15 38  1  0
 16 39  1  0
 16 40  1  0
 16 41  1  0
M  CHG  1   6  -1
M  END
>  <UniqueID>  (10) 
10

>  <SMILES>  (10) 
CCOCC[N-]C(=O)CCCN(CC)CC

>  <Energy>  (10) 
31.542845953846708

>  <Genealogy>  (10) 
CCOCC[N-]C(=O)CCCN(CC)CC (protonated)
CCOCC[N-]C(=O)CCCN(CC)CC (3D coordinates assigned)
CCOCC[N-]C(=O)CCCN(CC)CC (optimized conformer: 31.542845953846708 kcal/mol)

>  <smiles>  (10) 
CCOCCNC(=O)CCCN(CC)CC

>  <score_type>  (10) 
oracle

>  <origin>  (10) 
adg

>  <m_score__min__energy>  (10) 
-7.7199999999999998

>  <m_primary>  (10) 
energy

$$$$
10:0
     RDKit          3D

 48 50  0  0  0  0  0  0  0  0999 V2000
   57.4040   31.5590   42.5860 C   0  0  0  0  0  0  0  0  0  0  0  0
   56.7890   30.5440   43.5440 C   0  0  0  0  0  0  0  0  0  0  0  0
   56.5220   31.1470   44.7960 O   0  0  0  0  0  0  0  0  0  0  0  0
   57.0640   32.4530   44.8620 C   0  0  0  0  0  0  0  0  0  0  0  0
   58.1750   32.5110   45.8770 C   0  0  0  0  0  0  0  0  0  0  0  0
   58.9090   31.3550   46.1790 C   0  0  0  0  0  0  0  0  0  0  0  0
   59.9520   31.4040   47.1070 C   0  0  0  0  0  0  0  0  0  0  0  0
   60.2780   32.6110   47.7420 C   0  0  0  0  0  0  0  0  0  0  0  0
   61.3740   32.6670   48.7330 C   0  0  0  0  0  0  0  0  0  0  0  0
   62.7310   32.7320   48.4500 C   0  0  0  0  0  0  0  0  0  0  0  0
   63.4050   32.6800   47.1050 C   0  0  0  0  0  0  0  0  0  0  0  0
   63.3130   34.0240   46.3900 C   0  0  0  0  0  0  0  0  0  0  0  0
   63.3330   32.9250   49.6850 C   0  0  0  0  0  0  0  0  0  0  0  0
   64.7990   33.0390   49.9600 C   0  0  0  0  0  0  0  0  0  0  0  0
   62.3940   32.9620   50.6480 N   0  0  0  0  0  0  0  0  0  0  0  0
   61.2110   32.8080   50.0720 N   0  0  0  0  0  0  0  0  0  0  0  0
   59.9820   32.7790   50.8190 C   0  0  0  0  0  0  0  0  0  0  0  0
   59.6470   33.8210   51.7030 C   0  0  0  0  0  0  0  0  0  0  0  0
   58.4450   33.7840   52.4150 C   0  0  0  0  0  0  0  0  0  0  0  0
   57.5610   32.7160   52.2420 C   0  0  0  0  0  0  0  0  0  0  0  0
   57.8750   31.6870   51.3500 C   0  0  0  0  0  0  0  0  0  0  0  0
   59.0780   31.7210   50.6360 C   0  0  0  0  0  0  0  0  0  0  0  0
   59.5460   33.7690   47.4380 C   0  0  0  0  0  0  0  0  0  0  0  0
   58.5020   33.7190   46.5100 C   0  0  0  0  0  0  0  0  0  0  0  0
   57.8894   32.3601   43.1627 H   0  0  0  0  0  0  0  0  0  0  0  0
   58.1512   31.0590   41.9522 H   0  0  0  0  0  0  0  0  0  0  0  0
   56.6149   31.9899   41.9522 H   0  0  0  0  0  0  0  0  0  0  0  0
   55.8491   30.1651   43.1163 H   0  0  0  0  0  0  0  0  0  0  0  0
   57.4982   29.7160   43.6905 H   0  0  0  0  0  0  0  0  0  0  0  0
   57.4608   32.7308   43.8744 H   0  0  0  0  0  0  0  0  0  0  0  0
   56.2705   33.1533   45.1619 H   0  0  0  0  0  0  0  0  0  0  0  0
   58.6623   30.4048   45.6827 H   0  0  0  0  0  0  0  0  0  0  0  0
   60.5202   30.4916   47.3407 H   0  0  0  0  0  0  0  0  0  0  0  0
   64.4646   32.4195   47.2444 H   0  0  0  0  0  0  0  0  0  0  0  0
   62.8972   31.9226   46.4898 H   0  0  0  0  0  0  0  0  0  0  0  0
   63.2577   34.8322   47.1342 H   0  0  0  0  0  0  0  0  0  0  0  0
   64.2035   34.1659   45.7601 H   0  0  0  0  0  0  0  0  0  0  0  0
   62.4114   34.0433   45.7601 H   0  0  0  0  0  0  0  0  0  0  0  0
   64.9683   33.0522   51.0468 H   0  0  0  0  0  0  0  0  0  0  0  0
   65.3230   32.1789   49.5177 H   0  0  0  0  0  0  0  0  0  0  0  0
   65.1837   33.9698   49.5177 H   0  0  0  0  0  0  0  0  0  0  0  0
   60.3348   34.6693   51.8344 H   0  0  0  0  0  0  0  0  0  0  0  0
   58.1946   34.5968   53.1126 H   0  0  0  0  0  0  0  0  0  0  0  0
   56.6181   32.6851   52.8077 H   0  0  0  0  0  0  0  0  0  0  0  0
   57.1758   30.8496   51.2090 H   0  0  0  0  0  0  0  0  0  0  0  0
   59.3165   30.9141   49.9274 H   0  0  0  0  0  0  0  0  0  0  0  0
   59.7948   34.7198   47.9320 H   0  0  0  0  0  0  0  0  0  0  0  0
   57.9342   34.6314   46.2751 H   0  0  0  0  0  0  0  0  0  0  0  0
  1  2  1  0
  2  3  1  0
  3  4  1  0
  4  5  1  0
  5  6  2  0
  6  7  1  0
  7  8  2  0
  8  9  1  0
  9 10  2  0
 10 11  1  0
 11 12  1  0
 10 13  1  0
 13 14  1  0
 13 15  2  0
 15 16  1  0
 16 17  1  0
 17 18  2  0
 18 19  1  0
 19 20  2  0
 20 21  1  0
 21 22  2  0
  8 23  1  0
 23 24  2  0
 24  5  1  0
 16  9  1  0
 22 17  1  0
  1 25  1  0
  1 26  1  0
  1 27  1  0
  2 28  1  0
  2 29  1  0
  4 30  1  0
  4 31  1  0
  6 32  1  0
  7 33  1  0
 11 34  1  0
 11 35  1  0
 12 36  1  0
 12 37  1  0
 12 38  1  0
 14 39  1  0
 14 40  1  0
 14 41  1  0
 18 42  1  0
 19 43  1  0
 20 44  1  0
 21 45  1  0
 22 46  1  0
 23 47  1  0
 24 48  1  0
M  END
>  <UniqueID>  (11) 
11

>  <SMILES>  (11) 
CCOCc1ccc(-c2c(CC)c(C)nn2-c2ccccc2)cc1

>  <Energy>  (11) 
85.27310544902183

>  <Genealogy>  (11) 
CCOCc1ccc(-c2c(CC)c(C)nn2-c2ccccc2)cc1 (3D coordinates assigned)
CCOCc1ccc(-c2c(CC)c(C)nn2-c2ccccc2)cc1 (optimized conformer: 85.27310544902183 kcal/mol)

>  <smiles>  (11) 
CCOCc1ccc(-c2c(CC)c(C)nn2-c2ccccc2)cc1

>  <score_type>  (11) 
oracle

>  <origin>  (11) 
adg

>  <m_score__min__energy>  (11) 
-7.6699999999999999

>  <m_primary>  (11) 
energy

$$$$
11:0
     RDKit          3D

 65 69  0  0  0  0  0  0  0  0999 V2000
   55.6870   29.8810   44.2150 C   0  0  0  0  0  0  0  0  0  0  0  0
   56.6570   29.7830   43.0360 C   0  0  0  0  0  0  0  0  0  0  0  0
   57.3760   28.4870   43.0170 N   0  0  0  0  0  0  0  0  0  0  0  0
   58.1030   28.2050   44.2680 C   0  0  0  0  0  0  0  0  0  0  0  0
   59.0320   29.3650   44.6750 C   0  0  0  0  0  0  0  0  0  0  0  0
   59.8150   29.0660   45.9630 C   0  0  0  0  0  0  0  0  0  0  0  0
   58.9040   28.8950   47.1860 C   0  0  0  0  0  0  0  0  0  0  0  0
   58.8620   30.1250   47.9750 N   0  0  0  0  0  0  0  0  0  0  0  0
   59.7910   31.1990   47.7560 C   0  0  0  0  0  0  0  0  0  0  0  0
   61.0430   31.2020   48.3960 C   0  0  0  0  0  0  0  0  0  0  0  0
   61.9740   32.2290   48.0940 C   0  0  0  0  0  0  0  0  0  0  0  0
   61.7050   33.1210   47.0750 N   0  0  0  0  0  0  0  0  0  0  0  0
   62.7990   33.8560   46.4180 C   0  0  0  0  0  0  0  0  0  0  0  0
   60.4140   33.2510   46.6000 C   0  0  0  0  0  0  0  0  0  0  0  0
   60.0300   34.3430   45.7820 C   0  0  0  0  0  0  0  0  0  0  0  0
   58.7320   34.4410   45.2810 C   0  0  0  0  0  0  0  0  0  0  0  0
   57.7890   33.4650   45.5840 C   0  0  0  0  0  0  0  0  0  0  0  0
   58.1320   32.3930   46.4050 C   0  0  0  0  0  0  0  0  0  0  0  0
   59.4350   32.2800   46.9320 C   0  0  0  0  0  0  0  0  0  0  0  0
   63.1800   32.3110   48.9780 C   0  0  0  0  0  0  0  0  0  0  0  0
   64.2370   33.2110   49.0510 C   0  0  0  0  0  0  0  0  0  0  0  0
   64.9810   32.8330   50.1630 C   0  0  0  0  0  0  0  0  0  0  0  0
   66.2220   33.4700   50.6640 C   0  0  0  0  0  0  0  0  0  0  0  0
   67.4910   33.0950   50.1810 C   0  0  0  0  0  0  0  0  0  0  0  0
   68.6460   33.7110   50.6740 C   0  0  0  0  0  0  0  0  0  0  0  0
   68.5490   34.7030   51.6520 C   0  0  0  0  0  0  0  0  0  0  0  0
   67.2970   35.0810   52.1410 C   0  0  0  0  0  0  0  0  0  0  0  0
   66.1390   34.4670   51.6520 C   0  0  0  0  0  0  0  0  0  0  0  0
   64.4030   31.8120   50.7550 O   0  0  0  0  0  0  0  0  0  0  0  0
   63.3290   31.4970   50.0770 C   0  0  0  0  0  0  0  0  0  0  0  0
   62.3120   30.4930   50.5030 C   0  0  0  0  0  0  0  0  0  0  0  0
   61.4510   30.0500   49.3120 C   0  0  0  0  0  0  0  0  0  0  0  0
   56.2497   29.8242   45.1585 H   0  0  0  0  0  0  0  0  0  0  0  0
   55.1472   30.8383   44.1671 H   0  0  0  0  0  0  0  0  0  0  0  0
   54.9666   29.0511   44.1671 H   0  0  0  0  0  0  0  0  0  0  0  0
   56.0899   29.8887   42.0994 H   0  0  0  0  0  0  0  0  0  0  0  0
   57.4028   30.5847   43.1411 H   0  0  0  0  0  0  0  0  0  0  0  0
   58.0860   28.5190   42.2470 H   0  0  0  0  0  0  0  0  0  0  0  0
   56.7350   27.6880   42.7970 H   0  0  0  0  0  0  0  0  0  0  0  0
   57.3719   28.0375   45.0726 H   0  0  0  0  0  0  0  0  0  0  0  0
   58.7271   27.3144   44.1027 H   0  0  0  0  0  0  0  0  0  0  0  0
   59.7485   29.5459   43.8602 H   0  0  0  0  0  0  0  0  0  0  0  0
   58.4029   30.2476   44.8629 H   0  0  0  0  0  0  0  0  0  0  0  0
   60.3878   28.1380   45.8188 H   0  0  0  0  0  0  0  0  0  0  0  0
   60.4733   29.9255   46.1577 H   0  0  0  0  0  0  0  0  0  0  0  0
   57.8870   28.6485   46.8471 H   0  0  0  0  0  0  0  0  0  0  0  0
   59.3036   28.0853   47.8142 H   0  0  0  0  0  0  0  0  0  0  0  0
   58.0980   30.2550   48.6770 H   0  0  0  0  0  0  0  0  0  0  0  0
   63.4554   34.2970   47.1826 H   0  0  0  0  0  0  0  0  0  0  0  0
   63.3802   33.1645   45.7903 H   0  0  0  0  0  0  0  0  0  0  0  0
   62.3785   34.6555   45.7903 H   0  0  0  0  0  0  0  0  0  0  0  0
   60.7657   35.1238   45.5390 H   0  0  0  0  0  0  0  0  0  0  0  0
   58.4533   35.2934   44.6440 H   0  0  0  0  0  0  0  0  0  0  0  0
   56.7707   33.5395   45.1748 H   0  0  0  0  0  0  0  0  0  0  0  0
   57.3792   31.6275   46.6444 H   0  0  0  0  0  0  0  0  0  0  0  0
   64.4424   34.0495   48.3693 H   0  0  0  0  0  0  0  0  0  0  0  0
   67.5741   32.3132   49.4117 H   0  0  0  0  0  0  0  0  0  0  0  0
   69.6330   33.4133   50.2904 H   0  0  0  0  0  0  0  0  0  0  0  0
   69.4589   35.1866   52.0371 H   0  0  0  0  0  0  0  0  0  0  0  0
   67.2211   35.8624   52.9115 H   0  0  0  0  0  0  0  0  0  0  0  0
   65.1557   34.7666   52.0436 H   0  0  0  0  0  0  0  0  0  0  0  0
   62.8254   29.6155   50.9230 H   0  0  0  0  0  0  0  0  0  0  0  0
   61.6583   30.9524   51.2590 H   0  0  0  0  0  0  0  0  0  0  0  0
   62.0233   29.3202   48.7205 H   0  0  0  0  0  0  0  0  0  0  0  0
   60.5261   29.6189   49.7228 H   0  0  0  0  0  0  0  0  0  0  0  0
  1  2  1  0
  2  3  1  0
  3  4  1  0
  4  5  1  0
  5  6  1  0
  6  7  1  0
  7  8  1  0
  8  9  1  0
  9 10  2  0
 10 11  1  0
 11 12  2  0
 12 13  1  0
 12 14  1  0
 14 15  2  0
 15 16  1  0
 16 17  2  0
 17 18  1  0
 18 19  2  0
 11 20  1  0
 20 21  1  0
 21 22  2  0
 22 23  1  0
 23 24  2  0
 24 25  1  0
 25 26  2  0
 26 27  1  0
 27 28  2  0
 22 29  1  0
 29 30  1  0
 30 31  1  0
 31 32  1  0
 19  9  1  0
 30 20  2  0
 32 10  1  0
 19 14  1  0
 28 23  1  0
  1 33  1  0
  1 34  1  0
  1 35  1  0
  2 36  1  0
  2 37  1  0
  3 38  1  0
  3 39  1  0
  4 40  1  0
  4 41  1  0
  5 42  1  0
  5 43  1  0
  6 44  1  0
  6 45  1  0
  7 46  1  0
  7 47  1  0
  8 48  1  0
 13 49  1  0
 13 50  1  0
 13 51  1  0
 15 52  1  0
 16 53  1  0
 17 54  1  0
 18 55  1  0
 21 56  1  0
 24 57  1  0
 25 58  1  0
 26 59  1  0
 27 60  1  0
 28 61  1  0
 31 62  1  0
 31 63  1  0
 32 64  1  0
 32 65  1  0
M  CHG  2   3   1  12   1
M  END
>  <UniqueID>  (12) 
12

>  <SMILES>  (12) 
CC[NH2+]CCCCNc1c2c([n+](C)c3ccccc13)-c1cc(-c3ccccc3)oc1CC2

>  <Energy>  (12) 
125.42409102635405

>  <Genealogy>  (12) 
CC[NH2+]CCCCNc1c2c([n+](C)c3ccccc13)-c1cc(-c3ccccc3)oc1CC2 (protonated)
CC[NH2+]CCCCNc1c2c([n+](C)c3ccccc13)-c1cc(-c3ccccc3)oc1CC2 (3D coordinates assigned)
CC[NH2+]CCCCNc1c2c([n+](C)c3ccccc13)-c1cc(-c3ccccc3)oc1CC2 (nonaromatic ring conformer: 125.42409102635405 kcal/mol)

>  <smiles>  (12) 
CCNCCCCNc1c2c([n+](C)c3ccccc13)-c1cc(-c3ccccc3)oc1CC2

>  <score_type>  (12) 
oracle

>  <origin>  (12) 
adg

>  <m_score__min__energy>  (12) 
-6.2999999999999998

>  <m_primary>  (12) 
energy

$$$$
12:0
     RDKit          3D

 37 39  0  0  0  0  0  0  0  0999 V2000
   60.8840   28.9160   44.9060 C   0  0  0  0  0  0  0  0  0  0  0  0
   59.7580   29.5120   45.6210 N   0  0  0  0  0  0  0  0  0  0  0  0
   59.7620   30.3220   46.7110 C   0  0  0  0  0  0  0  0  0  0  0  0
   60.9430   30.8390   47.4360 C   0  0  0  0  0  0  0  0  0  0  0  0
   61.2030   30.8030   48.7960 C   0  0  0  0  0  0  0  0  0  0  0  0
   62.4190   31.4270   48.9620 C   0  0  0  0  0  0  0  0  0  0  0  0
   62.8290   31.8100   47.7040 C   0  0  0  0  0  0  0  0  0  0  0  0
   61.9300   31.4500   46.8190 O   0  0  0  0  0  0  0  0  0  0  0  0
   58.5050   30.6450   47.0840 N   0  0  0  0  0  0  0  0  0  0  0  0
   57.6930   30.0320   46.2410 N   0  0  0  0  0  0  0  0  0  0  0  0
   58.4440   29.3550   45.3590 C   0  0  0  0  0  0  0  0  0  0  0  0
   57.7560   28.3690   44.0220 S   0  0  0  0  0  0  0  0  0  0  0  0
   56.2700   29.4130   43.7990 C   0  0  0  0  0  0  0  0  0  0  0  0
   56.6300   30.8770   43.5300 C   0  0  0  0  0  0  0  0  0  0  0  0
   56.5960   31.6480   44.7310 O   0  0  0  0  0  0  0  0  0  0  0  0
   57.4750   32.6930   45.0580 C   0  0  0  0  0  0  0  0  0  0  0  0
   58.4300   33.2010   44.1540 C   0  0  0  0  0  0  0  0  0  0  0  0
   59.2780   34.2430   44.5380 C   0  0  0  0  0  0  0  0  0  0  0  0
   59.1820   34.7910   45.8200 C   0  0  0  0  0  0  0  0  0  0  0  0
   58.2350   34.2970   46.7190 C   0  0  0  0  0  0  0  0  0  0  0  0
   57.3840   33.2540   46.3390 C   0  0  0  0  0  0  0  0  0  0  0  0
   61.6152   28.5290   45.6309 H   0  0  0  0  0  0  0  0  0  0  0  0
   60.5221   28.0913   44.2743 H   0  0  0  0  0  0  0  0  0  0  0  0
   61.3625   29.6789   44.2743 H   0  0  0  0  0  0  0  0  0  0  0  0
   60.5688   30.3660   49.5814 H   0  0  0  0  0  0  0  0  0  0  0  0
   62.9553   31.5874   49.9089 H   0  0  0  0  0  0  0  0  0  0  0  0
   63.7671   32.3373   47.4762 H   0  0  0  0  0  0  0  0  0  0  0  0
   56.6510   30.0870   46.2700 H   0  0  0  0  0  0  0  0  0  0  0  0
   55.6905   29.0279   42.9470 H   0  0  0  0  0  0  0  0  0  0  0  0
   55.6852   29.3734   44.7298 H   0  0  0  0  0  0  0  0  0  0  0  0
   57.6423   30.9244   43.1022 H   0  0  0  0  0  0  0  0  0  0  0  0
   55.8916   31.2932   42.8289 H   0  0  0  0  0  0  0  0  0  0  0  0
   58.5079   32.7755   43.1426 H   0  0  0  0  0  0  0  0  0  0  0  0
   60.0233   34.6331   43.8292 H   0  0  0  0  0  0  0  0  0  0  0  0
   59.8516   35.6104   46.1203 H   0  0  0  0  0  0  0  0  0  0  0  0
   58.1580   34.7287   47.7278 H   0  0  0  0  0  0  0  0  0  0  0  0
   56.6378   32.8713   47.0509 H   0  0  0  0  0  0  0  0  0  0  0  0
  1  2  1  0
  2  3  1  0
  3  4  1  0
  4  5  2  0
  5  6  1  0
  6  7  2  0
  7  8  1  0
  3  9  2  0
  9 10  1  0
 10 11  2  0
 11 12  1  0
 12 13  1  0
 13 14  1  0
 14 15  1  0
 15 16  1  0
 16 17  2  0
 17 18  1  0
 18 19  2  0
 19 20  1  0
 20 21  2  0
 11  2  1  0
 21 16  1  0
  8  4  1  0
  1 22  1  0
  1 23  1  0
  1 24  1  0
  5 25  1  0
  6 26  1  0
  7 27  1  0
 10 28  1  0
 13 29  1  0
 13 30  1  0
 14 31  1  0
 14 32  1  0
 17 33  1  0
 18 34  1  0
 19 35  1  0
 20 36  1  0
 21 37  1  0
M  CHG  1  10   1
M  END
>  <UniqueID>  (13) 
13

>  <SMILES>  (13) 
Cn1c(-c2ccco2)n[nH+]c1SCCOc1ccccc1

>  <Energy>  (13) 
97.58818041948304

>  <Genealogy>  (13) 
Cn1c(-c2ccco2)n[nH+]c1SCCOc1ccccc1 (protonated)
Cn1c(-c2ccco2)n[nH+]c1SCCOc1ccccc1 (3D coordinates assigned)
Cn1c(-c2ccco2)n[nH+]c1SCCOc1ccccc1 (optimized conformer: 97.58818041948304 kcal/mol)

>  <smiles>  (13) 
Cn1c(SCCOc2ccccc2)nnc1-c1ccco1

>  <score_type>  (13) 
oracle

>  <origin>  (13) 
adg

>  <m_score__min__energy>  (13) 
-4.9299999999999997

>  <m_primary>  (13) 
energy

$$$$
13:0
     RDKit          3D

 67 70  0  0  0  0  0  0  0  0999 V2000
   57.0220   27.2070   46.3580 C   0  0  0  0  0  0  0  0  0  0  0  0
   58.2070   28.1140   46.2040 C   0  0  0  0  0  0  0  0  0  0  0  0
   58.8440   28.5460   47.3260 N   0  0  0  0  0  0  0  0  0  0  0  0
   59.9140   29.3840   47.2790 C   0  0  0  0  0  0  0  0  0  0  0  0
   60.5350   29.8460   48.5340 C   0  0  0  0  0  0  0  0  0  0  0  0
   60.8690   31.1550   48.8580 C   0  0  0  0  0  0  0  0  0  0  0  0
   60.5630   32.3830   48.0930 C   0  0  0  0  0  0  0  0  0  0  0  0
   61.4680   32.8490   47.1250 C   0  0  0  0  0  0  0  0  0  0  0  0
   61.1850   34.0090   46.3970 C   0  0  0  0  0  0  0  0  0  0  0  0
   60.0040   34.7170   46.6390 C   0  0  0  0  0  0  0  0  0  0  0  0
   59.7340   35.8440   45.9330 F   0  0  0  0  0  0  0  0  0  0  0  0
   59.1090   34.2720   47.6140 C   0  0  0  0  0  0  0  0  0  0  0  0
   59.3890   33.1150   48.3440 C   0  0  0  0  0  0  0  0  0  0  0  0
   61.4720   31.1550   50.0620 N   0  0  0  0  0  0  0  0  0  0  0  0
   61.4900   29.8680   50.4630 C   0  0  0  0  0  0  0  0  0  0  0  0
   62.0760   29.4460   51.7830 C   0  0  0  0  0  0  0  0  0  0  0  0
   63.3000   30.2100   52.0610 N   0  0  0  0  0  0  0  0  0  0  0  0
   63.0320   31.4940   52.7360 C   0  0  0  0  0  0  0  0  0  0  0  0
   63.8860   32.6020   52.1150 C   0  0  0  0  0  0  0  0  0  0  0  0
   63.8860   32.5020   50.6380 N   0  0  0  0  0  0  0  0  0  0  0  0
   63.3990   33.7500   50.0330 C   0  0  0  0  0  0  0  0  0  0  0  0
   65.2340   32.2020   50.1280 C   0  0  0  0  0  0  0  0  0  0  0  0
   60.9340   29.0390   49.5460 N   0  0  0  0  0  0  0  0  0  0  0  0
   60.7550   27.5900   49.6430 C   0  0  0  0  0  0  0  0  0  0  0  0
   60.4010   29.8140   46.0390 C   0  0  0  0  0  0  0  0  0  0  0  0
   59.7700   29.3900   44.8710 C   0  0  0  0  0  0  0  0  0  0  0  0
   58.6460   28.5600   44.9410 C   0  0  0  0  0  0  0  0  0  0  0  0
   57.7970   28.0980   43.4180 S   0  0  0  0  0  0  0  0  0  0  0  0
   56.4680   29.3470   43.5610 C   0  0  0  0  0  0  0  0  0  0  0  0
   57.0210   30.7130   43.8400 C   0  0  0  0  0  0  0  0  0  0  0  0
   57.6150   31.4660   42.8160 C   0  0  0  0  0  0  0  0  0  0  0  0
   58.1550   32.7160   43.1120 C   0  0  0  0  0  0  0  0  0  0  0  0
   58.0990   33.2050   44.4180 C   0  0  0  0  0  0  0  0  0  0  0  0
   57.5000   32.4290   45.4150 C   0  0  0  0  0  0  0  0  0  0  0  0
   56.9820   31.2100   45.1070 N   0  0  0  0  0  0  0  0  0  0  0  0
   56.8169   27.0500   47.4273 H   0  0  0  0  0  0  0  0  0  0  0  0
   56.1442   27.6662   45.8798 H   0  0  0  0  0  0  0  0  0  0  0  0
   57.2360   26.2398   45.8798 H   0  0  0  0  0  0  0  0  0  0  0  0
   62.4026   32.2995   46.9390 H   0  0  0  0  0  0  0  0  0  0  0  0
   61.8922   34.3647   45.6333 H   0  0  0  0  0  0  0  0  0  0  0  0
   58.1828   34.8332   47.8072 H   0  0  0  0  0  0  0  0  0  0  0  0
   58.6873   32.7744   49.1196 H   0  0  0  0  0  0  0  0  0  0  0  0
   61.8270   31.9830   50.5910 H   0  0  0  0  0  0  0  0  0  0  0  0
   61.3428   29.6307   52.5819 H   0  0  0  0  0  0  0  0  0  0  0  0
   62.3227   28.3749   51.7407 H   0  0  0  0  0  0  0  0  0  0  0  0
   63.7640   30.4110   51.1430 H   0  0  0  0  0  0  0  0  0  0  0  0
   61.9678   31.7488   52.6242 H   0  0  0  0  0  0  0  0  0  0  0  0
   63.2839   31.3999   53.8026 H   0  0  0  0  0  0  0  0  0  0  0  0
   63.4777   33.5799   52.4100 H   0  0  0  0  0  0  0  0  0  0  0  0
   64.9197   32.4935   52.4752 H   0  0  0  0  0  0  0  0  0  0  0  0
   63.1223   34.4589   50.8273 H   0  0  0  0  0  0  0  0  0  0  0  0
   64.1918   34.1890   49.4095 H   0  0  0  0  0  0  0  0  0  0  0  0
   62.5184   33.5360   49.4095 H   0  0  0  0  0  0  0  0  0  0  0  0
   65.9204   32.0492   50.9738 H   0  0  0  0  0  0  0  0  0  0  0  0
   65.1993   31.2896   49.5145 H   0  0  0  0  0  0  0  0  0  0  0  0
   65.5895   33.0430   49.5145 H   0  0  0  0  0  0  0  0  0  0  0  0
   60.7186   27.2951   50.7021 H   0  0  0  0  0  0  0  0  0  0  0  0
   59.8146   27.3029   49.1499 H   0  0  0  0  0  0  0  0  0  0  0  0
   61.5973   27.0827   49.1499 H   0  0  0  0  0  0  0  0  0  0  0  0
   61.2743   30.4809   45.9870 H   0  0  0  0  0  0  0  0  0  0  0  0
   60.1566   29.7087   43.8917 H   0  0  0  0  0  0  0  0  0  0  0  0
   55.9030   29.3766   42.6176 H   0  0  0  0  0  0  0  0  0  0  0  0
   55.8169   29.0616   44.4004 H   0  0  0  0  0  0  0  0  0  0  0  0
   57.6541   31.0733   41.7892 H   0  0  0  0  0  0  0  0  0  0  0  0
   58.6243   33.3159   42.3183 H   0  0  0  0  0  0  0  0  0  0  0  0
   58.5219   34.1911   44.6605 H   0  0  0  0  0  0  0  0  0  0  0  0
   57.4478   32.8043   46.4477 H   0  0  0  0  0  0  0  0  0  0  0  0
  1  2  1  0
  2  3  2  0
  3  4  1  0
  4  5  1  0
  5  6  2  0
  6  7  1  0
  7  8  2  0
  8  9  1  0
  9 10  2  0
 10 11  1  0
 10 12  1  0
 12 13  2  0
  6 14  1  0
 14 15  2  0
 15 16  1  0
 16 17  1  0
 17 18  1  0
 18 19  1  0
 19 20  1  0
 20 21  1  0
 20 22  1  0
 15 23  1  0
 23 24  1  0
  4 25  2  0
 25 26  1  0
 26 27  2  0
 27 28  1  0
 28 29  1  0
 29 30  1  0
 30 31  2  0
 31 32  1  0
 32 33  2  0
 33 34  1  0
 34 35  2  0
 27  2  1  0
 35 30  1  0
 23  5  1  0
 13  7  1  0
  1 36  1  0
  1 37  1  0
  1 38  1  0
  8 39  1  0
  9 40  1  0
 12 41  1  0
 13 42  1  0
 14 43  1  0
 16 44  1  0
 16 45  1  0
 17 46  1  0
 18 47  1  0
 18 48  1  0
 19 49  1  0
 19 50  1  0
 21 51  1  0
 21 52  1  0
 21 53  1  0
 22 54  1  0
 22 55  1  0
 22 56  1  0
 24 57  1  0
 24 58  1  0
 24 59  1  0
 25 60  1  0
 26 61  1  0
 29 62  1  0
 29 63  1  0
 31 64  1  0
 32 65  1  0
 33 66  1  0
 34 67  1  0
M  CHG  1  14   1
M  END
>  <UniqueID>  (14) 
14

>  <SMILES>  (14) 
Cc1nc(-c2c(-c3ccc(F)cc3)[nH+]c(CNCCN(C)C)n2C)ccc1SCc1ccccn1

>  <Energy>  (14) 
99.2572997287573

>  <Genealogy>  (14) 
Cc1nc(-c2c(-c3ccc(F)cc3)[nH+]c(CNCCN(C)C)n2C)ccc1SCc1ccccn1 (protonated)
Cc1nc(-c2c(-c3ccc(F)cc3)[nH+]c(CNCCN(C)C)n2C)ccc1SCc1ccccn1 (3D coordinates assigned)
Cc1nc(-c2c(-c3ccc(F)cc3)[nH+]c(CNCCN(C)C)n2C)ccc1SCc1ccccn1 (optimized conformer: 99.2572997287573 kcal/mol)

>  <smiles>  (14) 
Cc1nc(-c2c(-c3ccc(F)cc3)nc(CNCCN(C)C)n2C)ccc1SCc1ccccn1

>  <score_type>  (14) 
oracle

>  <origin>  (14) 
adg

>  <m_score__min__energy>  (14) 
-7.54

>  <m_primary>  (14) 
energy

$$$$
14:0
     RDKit          3D

 47 49  0  0  0  0  0  0  0  0999 V2000
   56.6580   30.3890   43.7700 C   0  0  0  0  0  0  0  0  0  0  0  0
   57.4080   31.6900   44.0630 C   0  0  0  0  0  0  0  0  0  0  0  0
   57.5550   31.9420   45.5070 N   0  0  0  0  0  0  0  0  0  0  0  0
   57.0960   33.2810   45.9120 C   0  0  0  0  0  0  0  0  0  0  0  0
   58.2870   34.1960   46.2260 C   0  0  0  0  0  0  0  0  0  0  0  0
   59.3430   33.4930   47.1060 C   0  0  0  0  0  0  0  0  0  0  0  0
   60.2710   32.6690   46.3040 N   0  0  0  0  0  0  0  0  0  0  0  0
   60.9050   31.6140   47.0920 C   0  0  0  0  0  0  0  0  0  0  0  0
   60.3570   30.3100   47.0850 C   0  0  0  0  0  0  0  0  0  0  0  0
   59.6910   29.7940   45.9500 C   0  0  0  0  0  0  0  0  0  0  0  0
   59.1360   28.5160   45.9670 C   0  0  0  0  0  0  0  0  0  0  0  0
   59.2490   27.7220   47.1020 C   0  0  0  0  0  0  0  0  0  0  0  0
   59.9240   28.1980   48.2240 C   0  0  0  0  0  0  0  0  0  0  0  0
   60.4850   29.5000   48.2420 C   0  0  0  0  0  0  0  0  0  0  0  0
   61.1400   29.9920   49.3500 N   0  0  0  0  0  0  0  0  0  0  0  0
   60.9550   29.3460   50.6660 C   0  0  0  0  0  0  0  0  0  0  0  0
   61.9880   31.0730   49.2150 C   0  0  0  0  0  0  0  0  0  0  0  0
   62.9390   31.3830   50.2160 C   0  0  0  0  0  0  0  0  0  0  0  0
   63.8010   32.4640   50.0810 C   0  0  0  0  0  0  0  0  0  0  0  0
   63.7820   33.2260   48.9230 C   0  0  0  0  0  0  0  0  0  0  0  0
   62.8850   32.9390   47.8940 C   0  0  0  0  0  0  0  0  0  0  0  0
   63.1520   33.8320   46.3980 Cl  0  0  0  0  0  0  0  0  0  0  0  0
   61.9270   31.8900   48.0460 C   0  0  0  0  0  0  0  0  0  0  0  0
   56.3791   29.9052   44.7177 H   0  0  0  0  0  0  0  0  0  0  0  0
   55.7497   30.6118   43.1908 H   0  0  0  0  0  0  0  0  0  0  0  0
   57.3060   29.7147   43.1908 H   0  0  0  0  0  0  0  0  0  0  0  0
   58.4092   31.6296   43.6115 H   0  0  0  0  0  0  0  0  0  0  0  0
   56.8220   32.5176   43.6367 H   0  0  0  0  0  0  0  0  0  0  0  0
   57.0250   31.2170   46.0480 H   0  0  0  0  0  0  0  0  0  0  0  0
   56.5081   33.7229   45.0940 H   0  0  0  0  0  0  0  0  0  0  0  0
   56.4800   33.1824   46.8180 H   0  0  0  0  0  0  0  0  0  0  0  0
   58.7592   34.5007   45.2804 H   0  0  0  0  0  0  0  0  0  0  0  0
   57.9082   35.0666   46.7815 H   0  0  0  0  0  0  0  0  0  0  0  0
   59.9219   34.2573   47.6452 H   0  0  0  0  0  0  0  0  0  0  0  0
   58.8149   32.8278   47.8050 H   0  0  0  0  0  0  0  0  0  0  0  0
   59.6910   32.2790   45.5290 H   0  0  0  0  0  0  0  0  0  0  0  0
   60.9880   33.2600   45.8340 H   0  0  0  0  0  0  0  0  0  0  0  0
   59.6098   30.4092   45.0417 H   0  0  0  0  0  0  0  0  0  0  0  0
   58.6076   28.1350   45.0807 H   0  0  0  0  0  0  0  0  0  0  0  0
   58.8047   26.7158   47.1145 H   0  0  0  0  0  0  0  0  0  0  0  0
   60.0233   27.5535   49.1099 H   0  0  0  0  0  0  0  0  0  0  0  0
   61.1634   30.0737   51.4642 H   0  0  0  0  0  0  0  0  0  0  0  0
   59.9185   28.9890   50.7567 H   0  0  0  0  0  0  0  0  0  0  0  0
   61.6454   28.4945   50.7567 H   0  0  0  0  0  0  0  0  0  0  0  0
   62.9968   30.7561   51.1181 H   0  0  0  0  0  0  0  0  0  0  0  0
   64.4989   32.7155   50.8932 H   0  0  0  0  0  0  0  0  0  0  0  0
   64.4827   34.0670   48.8143 H   0  0  0  0  0  0  0  0  0  0  0  0
  1  2  1  0
  2  3  1  0
  3  4  1  0
  4  5  1  0
  5  6  1  0
  6  7  1  0
  7  8  1  0
  8  9  2  0
  9 10  1  0
 10 11  2  0
 11 12  1  0
 12 13  2  0
 13 14  1  0
 14 15  2  0
 15 16  1  0
 15 17  1  0
 17 18  2  0
 18 19  1  0
 19 20  2  0
 20 21  1  0
 21 22  1  0
 21 23  2  0
 23  8  1  0
 14  9  1  0
 23 17  1  0
  1 24  1  0
  1 25  1  0
  1 26  1  0
  2 27  1  0
  2 28  1  0
  3 29  1  0
  4 30  1  0
  4 31  1  0
  5 32  1  0
  5 33  1  0
  6 34  1  0
  6 35  1  0
  7 36  1  0
  7 37  1  0
 10 38  1  0
 11 39  1  0
 12 40  1  0
 13 41  1  0
 16 42  1  0
 16 43  1  0
 16 44  1  0
 18 45  1  0
 19 46  1  0
 20 47  1  0
M  CHG  2   7   1  15   1
M  END
>  <UniqueID>  (15) 
15

>  <SMILES>  (15) 
CCNCCC[NH2+]c1c2ccccc2[n+](C)c2cccc(Cl)c12

>  <Energy>  (15) 
85.59411377794353

>  <Genealogy>  (15) 
CCNCCC[NH2+]c1c2ccccc2[n+](C)c2cccc(Cl)c12 (protonated)
CCNCCC[NH2+]c1c2ccccc2[n+](C)c2cccc(Cl)c12 (3D coordinates assigned)
CCNCCC[NH2+]c1c2ccccc2[n+](C)c2cccc(Cl)c12 (optimized conformer: 85.59411377794353 kcal/mol)

>  <smiles>  (15) 
CCNCCCNc1c2ccccc2[n+](C)c2cccc(Cl)c12

>  <score_type>  (15) 
oracle

>  <origin>  (15) 
adg

>  <m_score__min__energy>  (15) 
-4.0599999999999996

>  <m_primary>  (15) 
energy

$$$$
15:0
     RDKit          3D

 58 59  0  0  0  0  0  0  0  0999 V2000
   63.4100   32.3480   47.1280 C   0  0  0  0  0  0  0  0  0  0  0  0
   62.9540   33.7980   47.3140 C   0  0  0  0  0  0  0  0  0  0  0  0
   62.6910   34.1250   48.7280 N   0  0  0  0  0  0  0  0  0  0  0  0
   63.0560   33.0150   49.6270 C   0  0  0  0  0  0  0  0  0  0  0  0
   62.0650   32.8580   50.8010 C   0  0  0  0  0  0  0  0  0  0  0  0
   61.0330   33.9100   50.8770 N   0  0  0  0  0  0  0  0  0  0  0  0
   59.6870   33.4590   50.4950 C   0  0  0  0  0  0  0  0  0  0  0  0
   59.5380   33.3980   49.0050 C   0  0  0  0  0  0  0  0  0  0  0  0
   59.6270   34.4720   48.1900 N   0  0  0  0  0  0  0  0  0  0  0  0
   59.3920   34.0550   46.9530 N   0  0  0  0  0  0  0  0  0  0  0  0
   59.3090   34.9440   45.8020 C   0  0  0  0  0  0  0  0  0  0  0  0
   59.1290   32.7340   46.9680 C   0  0  0  0  0  0  0  0  0  0  0  0
   59.2390   32.2780   48.2500 C   0  0  0  0  0  0  0  0  0  0  0  0
   58.8730   30.8950   48.6710 C   0  0  0  0  0  0  0  0  0  0  0  0
   58.9900   29.9470   47.4680 C   0  0  0  0  0  0  0  0  0  0  0  0
   58.3400   30.5150   46.2630 N   0  0  0  0  0  0  0  0  0  0  0  0
   57.6190   29.6340   45.3680 C   0  0  0  0  0  0  0  0  0  0  0  0
   56.3750   29.7770   45.2090 O   0  0  0  0  0  0  0  0  0  0  0  0
   58.3130   28.5460   44.5970 C   0  0  0  0  0  0  0  0  0  0  0  0
   57.4240   27.3840   44.4700 N   0  0  0  0  0  0  0  0  0  0  0  0
   57.7070   26.3540   45.4860 C   0  0  0  0  0  0  0  0  0  0  0  0
   56.6390   26.2960   46.5870 C   0  0  0  0  0  0  0  0  0  0  0  0
   55.3550   26.3860   46.0070 O   0  0  0  0  0  0  0  0  0  0  0  0
   54.9300   25.1030   45.6080 C   0  0  0  0  0  0  0  0  0  0  0  0
   58.7000   31.8790   45.8140 C   0  0  0  0  0  0  0  0  0  0  0  0
   63.5570   31.8807   48.1129 H   0  0  0  0  0  0  0  0  0  0  0  0
   62.6435   31.7915   46.5688 H   0  0  0  0  0  0  0  0  0  0  0  0
   64.3571   32.3303   46.5688 H   0  0  0  0  0  0  0  0  0  0  0  0
   63.7409   34.4675   46.9365 H   0  0  0  0  0  0  0  0  0  0  0  0
   62.0141   33.9292   46.7578 H   0  0  0  0  0  0  0  0  0  0  0  0
   63.2780   34.9550   48.9720 H   0  0  0  0  0  0  0  0  0  0  0  0
   61.6850   34.3840   48.8560 H   0  0  0  0  0  0  0  0  0  0  0  0
   63.0679   32.0802   49.0473 H   0  0  0  0  0  0  0  0  0  0  0  0
   64.0459   33.2387   50.0513 H   0  0  0  0  0  0  0  0  0  0  0  0
   61.5586   31.8872   50.6954 H   0  0  0  0  0  0  0  0  0  0  0  0
   62.6589   32.9359   51.7236 H   0  0  0  0  0  0  0  0  0  0  0  0
   61.0030   34.3230   51.8380 H   0  0  0  0  0  0  0  0  0  0  0  0
   59.5118   32.4573   50.9143 H   0  0  0  0  0  0  0  0  0  0  0  0
   58.9539   34.1783   50.8890 H   0  0  0  0  0  0  0  0  0  0  0  0
   59.2119   35.9837   46.1480 H   0  0  0  0  0  0  0  0  0  0  0  0
   60.2204   34.8433   45.1944 H   0  0  0  0  0  0  0  0  0  0  0  0
   58.4319   34.6763   45.1944 H   0  0  0  0  0  0  0  0  0  0  0  0
   59.5538   30.5619   49.4682 H   0  0  0  0  0  0  0  0  0  0  0  0
   57.8388   30.8868   49.0457 H   0  0  0  0  0  0  0  0  0  0  0  0
   60.0545   29.7738   47.2517 H   0  0  0  0  0  0  0  0  0  0  0  0
   58.4832   29.0041   47.7213 H   0  0  0  0  0  0  0  0  0  0  0  0
   58.5742   28.9176   43.5952 H   0  0  0  0  0  0  0  0  0  0  0  0
   59.2274   28.2480   45.1309 H   0  0  0  0  0  0  0  0  0  0  0  0
   56.4280   27.7010   44.5450 H   0  0  0  0  0  0  0  0  0  0  0  0
   57.7534   25.3736   44.9893 H   0  0  0  0  0  0  0  0  0  0  0  0
   58.6626   26.6143   45.9646 H   0  0  0  0  0  0  0  0  0  0  0  0
   56.7280   25.3455   47.1335 H   0  0  0  0  0  0  0  0  0  0  0  0
   56.7853   27.1358   47.2822 H   0  0  0  0  0  0  0  0  0  0  0  0
   54.7271   24.4904   46.4988 H   0  0  0  0  0  0  0  0  0  0  0  0
   54.0130   25.1910   45.0069 H   0  0  0  0  0  0  0  0  0  0  0  0
   55.7182   24.6261   45.0069 H   0  0  0  0  0  0  0  0  0  0  0  0
   59.5258   31.8123   45.0904 H   0  0  0  0  0  0  0  0  0  0  0  0
   57.8144   32.3382   45.3506 H   0  0  0  0  0  0  0  0  0  0  0  0
  1  2  1  0
  2  3  1  0
  3  4  1  0
  4  5  1  0
  5  6  1  0
  6  7  1  0
  7  8  1  0
  8  9  2  0
  9 10  1  0
 10 11  1  0
 10 12  1  0
 12 13  2  0
 13 14  1  0
 14 15  1  0
 15 16  1  0
 16 17  1  0
 17 18  2  0
 17 19  1  0
 19 20  1  0
 20 21  1  0
 21 22  1  0
 22 23  1  0
 23 24  1  0
 16 25  1  0
 13  8  1  0
 25 12  1  0
  1 26  1  0
  1 27  1  0
  1 28  1  0
  2 29  1  0
  2 30  1  0
  3 31  1  0
  3 32  1  0
  4 33  1  0
  4 34  1  0
  5 35  1  0
  5 36  1  0
  6 37  1  0
  7 38  1  0
  7 39  1  0
 11 40  1  0
 11 41  1  0
 11 42  1  0
 14 43  1  0
 14 44  1  0
 15 45  1  0
 15 46  1  0
 19 47  1  0
 19 48  1  0
 20 49  1  0
 21 50  1  0
 21 51  1  0
 22 52  1  0
 22 53  1  0
 24 54  1  0
 24 55  1  0
 24 56  1  0
 25 57  1  0
 25 58  1  0
M  CHG  1   3   1
M  END
>  <UniqueID>  (16) 
16

>  <SMILES>  (16) 
CC[NH2+]CCNCc1nn(C)c2c1CCN(C(=O)CNCCOC)C2

>  <Energy>  (16) 
86.06893415199804

>  <Genealogy>  (16) 
CC[NH2+]CCNCc1nn(C)c2c1CCN(C(=O)CNCCOC)C2 (protonated)
CC[NH2+]CCNCc1nn(C)c2c1CCN(C(=O)CNCCOC)C2 (3D coordinates assigned)
CC[NH2+]CCNCc1nn(C)c2c1CCN(C(=O)CNCCOC)C2 (nonaromatic ring conformer: 86.06893415199804 kcal/mol)

>  <smiles>  (16) 
CCNCCNCc1nn(C)c2c1CCN(C(=O)CNCCOC)C2

>  <score_type>  (16) 
oracle

>  <origin>  (16) 
adg

>  <m_score__min__energy>  (16) 
-4.7400000000000002

>  <m_primary>  (16) 
energy

$$$$
16:0
     RDKit          3D

 60 62  0  0  0  0  0  0  0  0999 V2000
   59.6110   34.3780   46.8580 C   0  0  0  0  0  0  0  0  0  0  0  0
   59.2480   32.9470   46.4320 C   0  0  0  0  0  0  0  0  0  0  0  0
   58.2310   32.8610   45.3490 N   0  0  1  0  0  0  0  0  0  0  0  0
   56.9420   33.4370   45.7750 C   0  0  0  0  0  0  0  0  0  0  0  0
   58.6540   33.4590   44.0580 C   0  0  0  0  0  0  0  0  0  0  0  0
   58.1100   32.6960   42.8360 C   0  0  0  0  0  0  0  0  0  0  0  0
   57.9680   31.3200   43.1370 O   0  0  0  0  0  0  0  0  0  0  0  0
   56.7210   30.8380   42.6800 C   0  0  0  0  0  0  0  0  0  0  0  0
   56.0670   30.0110   43.7790 C   0  0  0  0  0  0  0  0  0  0  0  0
   56.6030   30.4060   45.0250 O   0  0  0  0  0  0  0  0  0  0  0  0
   57.7410   29.6880   45.2990 N   0  0  0  0  0  0  0  0  0  0  0  0
   58.1580   29.8900   46.6940 C   0  0  0  0  0  0  0  0  0  0  0  0
   58.6200   28.5840   47.3550 C   0  0  0  0  0  0  0  0  0  0  0  0
   59.6120   28.8350   48.4020 N   0  0  0  0  0  0  0  0  0  0  0  0
   60.2100   30.1330   48.5810 C   0  0  0  0  0  0  0  0  0  0  0  0
   61.3200   30.4830   47.8200 C   0  0  0  0  0  0  0  0  0  0  0  0
   61.9550   31.7120   48.0050 C   0  0  0  0  0  0  0  0  0  0  0  0
   63.0810   31.9970   47.2150 C   0  0  0  0  0  0  0  0  0  0  0  0
   63.7610   33.1940   47.3820 C   0  0  0  0  0  0  0  0  0  0  0  0
   63.3190   34.0970   48.3350 C   0  0  0  0  0  0  0  0  0  0  0  0
   62.1970   33.7970   49.1100 C   0  0  0  0  0  0  0  0  0  0  0  0
   61.4980   32.6170   48.9480 N   0  0  0  0  0  0  0  0  0  0  0  0
   60.3640   32.3130   49.6990 C   0  0  0  0  0  0  0  0  0  0  0  0
   59.8020   33.2180   50.6440 C   0  0  0  0  0  0  0  0  0  0  0  0
   58.6590   32.8920   51.3710 C   0  0  0  0  0  0  0  0  0  0  0  0
   58.0270   31.6720   51.1760 C   0  0  0  0  0  0  0  0  0  0  0  0
   58.5380   30.7630   50.2570 C   0  0  0  0  0  0  0  0  0  0  0  0
   59.7060   31.0550   49.5210 C   0  0  0  0  0  0  0  0  0  0  0  0
   59.6269   34.4408   47.9561 H   0  0  0  0  0  0  0  0  0  0  0  0
   60.6035   34.6380   46.4614 H   0  0  0  0  0  0  0  0  0  0  0  0
   58.8624   35.0797   46.4614 H   0  0  0  0  0  0  0  0  0  0  0  0
   60.1649   32.4506   46.0815 H   0  0  0  0  0  0  0  0  0  0  0  0
   58.8047   32.4626   47.3145 H   0  0  0  0  0  0  0  0  0  0  0  0
   58.0560   31.8410   45.1810 H   0  0  0  0  0  0  0  0  0  0  0  0
   56.8950   33.4580   46.8738 H   0  0  0  0  0  0  0  0  0  0  0  0
   56.8512   34.4613   45.3845 H   0  0  0  0  0  0  0  0  0  0  0  0
   56.1183   32.8213   45.3845 H   0  0  0  0  0  0  0  0  0  0  0  0
   58.2888   34.4957   44.0153 H   0  0  0  0  0  0  0  0  0  0  0  0
   59.7521   33.4091   44.0157 H   0  0  0  0  0  0  0  0  0  0  0  0
   57.1293   33.1093   42.5577 H   0  0  0  0  0  0  0  0  0  0  0  0
   58.8177   32.8077   42.0013 H   0  0  0  0  0  0  0  0  0  0  0  0
   56.0707   31.6872   42.4230 H   0  0  0  0  0  0  0  0  0  0  0  0
   56.8726   30.2116   41.7885 H   0  0  0  0  0  0  0  0  0  0  0  0
   54.9803   30.1814   43.7731 H   0  0  0  0  0  0  0  0  0  0  0  0
   56.2629   28.9419   43.6095 H   0  0  0  0  0  0  0  0  0  0  0  0
   58.5360   29.8980   44.6460 H   0  0  0  0  0  0  0  0  0  0  0  0
   58.9886   30.6109   46.7148 H   0  0  0  0  0  0  0  0  0  0  0  0
   57.2895   30.2644   47.2557 H   0  0  0  0  0  0  0  0  0  0  0  0
   57.7490   28.0813   47.8008 H   0  0  0  0  0  0  0  0  0  0  0  0
   59.0842   27.9519   46.5837 H   0  0  0  0  0  0  0  0  0  0  0  0
   59.8830   28.0540   49.0410 H   0  0  0  0  0  0  0  0  0  0  0  0
   61.7023   29.7826   47.0629 H   0  0  0  0  0  0  0  0  0  0  0  0
   63.4235   31.2704   46.4636 H   0  0  0  0  0  0  0  0  0  0  0  0
   64.6418   33.4239   46.7644 H   0  0  0  0  0  0  0  0  0  0  0  0
   63.8510   35.0487   48.4809 H   0  0  0  0  0  0  0  0  0  0  0  0
   61.8612   34.5190   49.8690 H   0  0  0  0  0  0  0  0  0  0  0  0
   60.2806   34.1955   50.8034 H   0  0  0  0  0  0  0  0  0  0  0  0
   58.2551   33.6059   52.1039 H   0  0  0  0  0  0  0  0  0  0  0  0
   57.1213   31.4242   51.7490 H   0  0  0  0  0  0  0  0  0  0  0  0
   58.0248   29.8026   50.1013 H   0  0  0  0  0  0  0  0  0  0  0  0
  1  2  1  0
  2  3  1  0
  3  4  1  0
  3  5  1  0
  5  6  1  0
  6  7  1  0
  7  8  1  0
  8  9  1  0
  9 10  1  0
 10 11  1  0
 11 12  1  0
 12 13  1  0
 13 14  1  0
 14 15  1  0
 15 16  2  0
 16 17  1  0
 17 18  2  0
 18 19  1  0
 19 20  2  0
 20 21  1  0
 21 22  2  0
 22 23  1  0
 23 24  2  0
 24 25  1  0
 25 26  2  0
 26 27  1  0
 27 28  2  0
 28 15  1  0
 22 17  1  0
 28 23  1  0
  1 29  1  0
  1 30  1  0
  1 31  1  0
  2 32  1  0
  2 33  1  0
  3 34  1  6
  4 35  1  0
  4 36  1  0
  4 37  1  0
  5 38  1  0
  5 39  1  0
  6 40  1  0
  6 41  1  0
  8 42  1  0
  8 43  1  0
  9 44  1  0
  9 45  1  0
 11 46  1  0
 12 47  1  0
 12 48  1  0
 13 49  1  0
 13 50  1  0
 14 51  1  0
 16 52  1  0
 18 53  1  0
 19 54  1  0
 20 55  1  0
 21 56  1  0
 24 57  1  0
 25 58  1  0
 26 59  1  0
 27 60  1  0
M  CHG  2   3   1  22   1
M  END
>  <UniqueID>  (17) 
17

>  <SMILES>  (17) 
CC[N@@H+](C)CCOCCONCCNc1cc2cccc[n+]2c2ccccc12

>  <Energy>  (17) 
85.3488122441531

>  <Genealogy>  (17) 
CC[NH+](C)CCOCCONCCNc1cc2cccc[n+]2c2ccccc12 (protonated)
CC[N@@H+](C)CCOCCONCCNc1cc2cccc[n+]2c2ccccc12 (chirality)
CC[N@@H+](C)CCOCCONCCNc1cc2cccc[n+]2c2ccccc12 (3D coordinates assigned)
CC[N@@H+](C)CCOCCONCCNc1cc2cccc[n+]2c2ccccc12 (optimized conformer: 85.3488122441531 kcal/mol)

>  <smiles>  (17) 
CCN(C)CCOCCONCCNc1cc2cccc[n+]2c2ccccc12

>  <score_type>  (17) 
oracle

>  <origin>  (17) 
adg

>  <m_score__min__energy>  (17) 
-5.0899999999999999

>  <m_primary>  (17) 
energy

$$$$
17:0
     RDKit          3D

 80 85  0  0  0  0  0  0  0  0999 V2000
   59.8470   32.0210   46.6747 H   0  0  0  0  0  0  0  0  0  0  0  0
   60.3210   31.1050   47.0570 C   0  0  0  0  0  0  0  0  0  0  0  0
   61.4390   31.2280   47.7730 C   0  0  0  0  0  0  0  0  0  0  0  0
   61.4152   31.0396   48.8565 H   0  0  0  0  0  0  0  0  0  0  0  0
   62.7070   31.6140   47.1270 C   0  0  0  0  0  0  0  0  0  0  0  0
   63.4409   30.8215   46.9186 H   0  0  0  0  0  0  0  0  0  0  0  0
   63.0220   32.8670   46.7780 C   0  0  0  0  0  0  0  0  0  0  0  0
   62.8831   33.1588   45.7265 H   0  0  0  0  0  0  0  0  0  0  0  0
   63.5430   33.8810   47.7120 C   0  0  0  0  0  0  0  0  0  0  0  0
   63.8241   34.8769   47.3389 H   0  0  0  0  0  0  0  0  0  0  0  0
   63.6740   33.5970   49.0000 C   0  0  0  0  0  0  0  0  0  0  0  0
   64.2280   32.7440   50.1500 N   0  0  0  0  0  0  0  0  0  0  0  0
   64.9960   31.6570   50.6640 C   0  0  0  0  0  0  0  0  0  0  0  0
   64.3530   30.5640   51.2570 C   0  0  0  0  0  0  0  0  0  0  0  0
   63.2557   30.5464   51.3323 H   0  0  0  0  0  0  0  0  0  0  0  0
   65.1050   29.4940   51.7540 C   0  0  0  0  0  0  0  0  0  0  0  0
   64.5978   28.6374   52.2221 H   0  0  0  0  0  0  0  0  0  0  0  0
   66.5010   29.5110   51.6570 C   0  0  0  0  0  0  0  0  0  0  0  0
   67.0905   28.6670   52.0445 H   0  0  0  0  0  0  0  0  0  0  0  0
   67.1460   30.6040   51.0660 C   0  0  0  0  0  0  0  0  0  0  0  0
   68.2435   30.6214   50.9932 H   0  0  0  0  0  0  0  0  0  0  0  0
   66.3950   31.6740   50.5680 C   0  0  0  0  0  0  0  0  0  0  0  0
   66.9028   32.5304   50.1002 H   0  0  0  0  0  0  0  0  0  0  0  0
   63.3860   33.8380   50.3340 C   0  0  2  0  0  0  0  0  0  0  0  0
   63.4674   34.7538   50.9379 H   0  0  0  0  0  0  0  0  0  0  0  0
   61.9950   33.4440   50.7720 C   0  0  0  0  0  0  0  0  0  0  0  0
   60.9040   33.8440   49.9910 C   0  0  0  0  0  0  0  0  0  0  0  0
   61.0658   34.4379   49.0793 H   0  0  0  0  0  0  0  0  0  0  0  0
   59.6130   33.4870   50.3730 C   0  0  0  0  0  0  0  0  0  0  0  0
   58.7532   33.7965   49.7606 H   0  0  0  0  0  0  0  0  0  0  0  0
   59.4090   32.7350   51.5350 C   0  0  0  0  0  0  0  0  0  0  0  0
   58.0240   32.3190   51.9330 C   0  0  0  0  0  0  0  0  0  0  0  0
   57.9490   32.2965   53.0302 H   0  0  0  0  0  0  0  0  0  0  0  0
   57.2953   33.0379   51.5303 H   0  0  0  0  0  0  0  0  0  0  0  0
   57.8120   31.3175   51.5303 H   0  0  0  0  0  0  0  0  0  0  0  0
   60.5230   32.3380   52.2870 C   0  0  0  0  0  0  0  0  0  0  0  0
   60.3835   31.7313   53.1939 H   0  0  0  0  0  0  0  0  0  0  0  0
   61.7770   32.7000   51.9000 N   0  0  0  0  0  0  0  0  0  0  0  0
   62.5810   32.3900   52.4920 H   0  0  0  0  0  0  0  0  0  0  0  0
   59.6790   29.8030   46.7460 C   0  0  0  0  0  0  0  0  0  0  0  0
   59.1300   29.4690   45.5970 N   0  0  0  0  0  0  0  0  0  0  0  0
   58.9660   30.3170   44.3990 C   0  0  0  0  0  0  0  0  0  0  0  0
   59.6702   31.1591   44.4703 H   0  0  0  0  0  0  0  0  0  0  0  0
   59.1620   29.6797   43.5241 H   0  0  0  0  0  0  0  0  0  0  0  0
   57.5380   30.8870   44.2330 C   0  0  0  0  0  0  0  0  0  0  0  0
   57.0710   30.3792   43.3762 H   0  0  0  0  0  0  0  0  0  0  0  0
   57.0343   30.7067   45.1942 H   0  0  0  0  0  0  0  0  0  0  0  0
   57.4380   32.4050   43.9920 C   0  0  0  0  0  0  0  0  0  0  0  0
   57.9507   32.6350   43.0463 H   0  0  0  0  0  0  0  0  0  0  0  0
   56.3644   32.6439   43.9757 H   0  0  0  0  0  0  0  0  0  0  0  0
   58.0470   33.2660   45.0780 C   0  0  0  0  0  0  0  0  0  0  0  0
   57.7320   33.0540   46.4330 C   0  0  0  0  0  0  0  0  0  0  0  0
   56.9859   32.2940   46.7084 H   0  0  0  0  0  0  0  0  0  0  0  0
   58.3620   33.8040   47.4320 C   0  0  0  0  0  0  0  0  0  0  0  0
   58.0831   33.6570   48.4859 H   0  0  0  0  0  0  0  0  0  0  0  0
   59.3430   34.7380   47.0960 C   0  0  0  0  0  0  0  0  0  0  0  0
   59.8405   35.3220   47.8843 H   0  0  0  0  0  0  0  0  0  0  0  0
   59.6920   34.9300   45.7580 C   0  0  0  0  0  0  0  0  0  0  0  0
   60.4714   35.6596   45.4929 H   0  0  0  0  0  0  0  0  0  0  0  0
   59.0520   34.1960   44.7540 C   0  0  0  0  0  0  0  0  0  0  0  0
   59.3367   34.3471   43.7023 H   0  0  0  0  0  0  0  0  0  0  0  0
   58.4850   28.2090   45.7940 C   0  0  0  0  0  0  0  0  0  0  0  0
   57.6310   27.5260   44.9140 C   0  0  0  0  0  0  0  0  0  0  0  0
   57.3836   27.9489   43.9291 H   0  0  0  0  0  0  0  0  0  0  0  0
   57.0990   26.2900   45.3190 C   0  0  0  0  0  0  0  0  0  0  0  0
   56.4588   25.7181   44.6312 H   0  0  0  0  0  0  0  0  0  0  0  0
   57.3810   25.7800   46.6000 C   0  0  0  0  0  0  0  0  0  0  0  0
   56.9760   24.8032   46.9030 H   0  0  0  0  0  0  0  0  0  0  0  0
   58.1770   26.5140   47.4910 C   0  0  0  0  0  0  0  0  0  0  0  0
   58.3785   26.1388   48.5052 H   0  0  0  0  0  0  0  0  0  0  0  0
   58.7090   27.7340   47.0610 C   0  0  0  0  0  0  0  0  0  0  0  0
   59.4500   28.7690   47.8400 C   0  0  0  0  0  0  0  0  0  0  0  0
   58.5580   29.3230   48.9660 C   0  0  0  0  0  0  0  0  0  0  0  0
   58.9899   29.0548   49.9415 H   0  0  0  0  0  0  0  0  0  0  0  0
   58.4973   30.4180   48.8805 H   0  0  0  0  0  0  0  0  0  0  0  0
   57.5495   28.8921   48.8805 H   0  0  0  0  0  0  0  0  0  0  0  0
   60.7750   28.2250   48.3890 C   0  0  0  0  0  0  0  0  0  0  0  0
   60.7484   28.2359   49.4886 H   0  0  0  0  0  0  0  0  0  0  0  0
   60.9223   27.1936   48.0360 H   0  0  0  0  0  0  0  0  0  0  0  0
   61.6045   28.8553   48.0360 H   0  0  0  0  0  0  0  0  0  0  0  0
  1  2  1  0
  2  3  2  0
  3  4  1  0
  3  5  1  0
  5  6  1  0
  5  7  2  0
  7  8  1  0
  7  9  1  0
  9 10  1  0
  9 11  2  0
 11 12  1  0
 12 13  1  0
 13 14  2  0
 14 15  1  0
 14 16  1  0
 16 17  1  0
 16 18  2  0
 18 19  1  0
 18 20  1  0
 20 21  1  0
 20 22  2  0
 22 23  1  0
 12 24  1  0
 24 25  1  1
 24 26  1  0
 26 27  2  0
 27 28  1  0
 27 29  1  0
 29 30  1  0
 29 31  2  0
 31 32  1  0
 32 33  1  0
 32 34  1  0
 32 35  1  0
 31 36  1  0
 36 37  1  0
 36 38  2  0
 38 39  1  0
  2 40  1  0
 40 41  2  0
 41 42  1  0
 42 43  1  0
 42 44  1  0
 42 45  1  0
 45 46  1  0
 45 47  1  0
 45 48  1  0
 48 49  1  0
 48 50  1  0
 48 51  1  0
 51 52  2  0
 52 53  1  0
 52 54  1  0
 54 55  1  0
 54 56  2  0
 56 57  1  0
 56 58  1  0
 58 59  1  0
 58 60  2  0
 60 61  1  0
 41 62  1  0
 62 63  2  0
 63 64  1  0
 63 65  1  0
 65 66  1  0
 65 67  2  0
 67 68  1  0
 67 69  1  0
 69 70  1  0
 69 71  2  0
 71 72  1  0
 72 73  1  0
 73 74  1  0
 73 75  1  0
 73 76  1  0
 72 77  1  0
 77 78  1  0
 77 79  1  0
 77 80  1  0
 24 11  1  0
 38 26  1  0
 72 40  1  0
 22 13  1  0
 60 51  1  0
 71 62  1  0
M  CHG  2  38   1  41   1
M  END
>  <UniqueID>  (18) 
18

>  <SMILES>  (18) 
Cc1ccc([C@@H]2/C(=C/C=C\C=CC3=[N+](CCCc4ccccc4)c4ccccc4C3(C)C)N2c2ccccc2)[nH+]c1

>  <Energy>  (18) 
213.79645391389337

>  <Genealogy>  (18) 
Cc1ccc(C2C(=CC=CC=CC3=[N+](CCCc4ccccc4)c4ccccc4C3(C)C)N2c2ccccc2)[nH+]c1 (protonated)
Cc1ccc([C@@H]2C(=CC=CC=CC3=[N+](CCCc4ccccc4)c4ccccc4C3(C)C)N2c2ccccc2)[nH+]c1 (chirality)
Cc1ccc([C@@H]2/C(=C/C=C\C=CC3=[N+](CCCc4ccccc4)c4ccccc4C3(C)C)N2c2ccccc2)[nH+]c1 (cis-trans isomerization)
Cc1ccc([C@@H]2/C(=C/C=C\C=CC3=[N+](CCCc4ccccc4)c4ccccc4C3(C)C)N2c2ccccc2)[nH+]c1 (3D coordinates assigned)
Cc1ccc([C@@H]2/C(=C/C=C\C=CC3=[N+](CCCc4ccccc4)c4ccccc4C3(C)C)N2c2ccccc2)[nH+]c1 (nonaromatic ring conformer: 213.79645391389337 kcal/mol)

>  <smiles>  (18) 
Cc1ccc(C2C(=CC=CC=CC3=[N+](CCCc4ccccc4)c4ccccc4C3(C)C)N2c2ccccc2)nc1

>  <score_type>  (18) 
oracle

>  <origin>  (18) 
adg

>  <m_score__min__energy>  (18) 
-8.4900000000000002

>  <m_primary>  (18) 
energy

$$$$
18:0
     RDKit          3D

 54 55  0  0  0  0  0  0  0  0999 V2000
   64.5680   32.6030   50.8890 C   0  0  0  0  0  0  0  0  0  0  0  0
   64.7000   32.4340   49.3640 C   0  0  0  0  0  0  0  0  0  0  0  0
   63.4720   32.7500   48.5740 N   0  0  0  0  0  0  0  0  0  0  0  0
   63.6270   33.9320   47.6850 C   0  0  0  0  0  0  0  0  0  0  0  0
   62.8320   33.8170   46.3770 C   0  0  0  0  0  0  0  0  0  0  0  0
   62.8540   31.5480   47.9420 C   0  0  0  0  0  0  0  0  0  0  0  0
   61.8090   30.8020   48.7850 C   0  0  0  0  0  0  0  0  0  0  0  0
   61.8030   31.2840   50.1110 O   0  0  0  0  0  0  0  0  0  0  0  0
   60.4740   31.3770   50.5740 C   0  0  0  0  0  0  0  0  0  0  0  0
   60.3110   32.6750   51.3680 C   0  0  0  0  0  0  0  0  0  0  0  0
   61.1070   33.8240   50.7440 C   0  0  0  0  0  0  0  0  0  0  0  0
   60.8950   33.8470   49.2870 N   0  0  0  0  0  0  0  0  0  0  0  0
   59.6230   34.4810   48.9210 C   0  0  0  0  0  0  0  0  0  0  0  0
   59.3310   34.2650   47.4480 C   0  0  0  0  0  0  0  0  0  0  0  0
   59.4640   35.3580   46.5720 C   0  0  0  0  0  0  0  0  0  0  0  0
   59.2570   35.2060   45.2030 C   0  0  0  0  0  0  0  0  0  0  0  0
   58.9190   33.9620   44.6750 C   0  0  0  0  0  0  0  0  0  0  0  0
   58.7750   32.8520   45.5200 C   0  0  0  0  0  0  0  0  0  0  0  0
   58.4380   31.5990   44.9810 C   0  0  0  0  0  0  0  0  0  0  0  0
   58.2930   30.4890   45.8150 C   0  0  0  0  0  0  0  0  0  0  0  0
   58.4780   30.6180   47.1910 C   0  0  0  0  0  0  0  0  0  0  0  0
   58.8110   31.8580   47.7440 C   0  0  0  0  0  0  0  0  0  0  0  0
   58.9720   32.9940   46.9210 C   0  0  0  0  0  0  0  0  0  0  0  0
   65.1687   31.8339   51.3965 H   0  0  0  0  0  0  0  0  0  0  0  0
   64.9283   33.6008   51.1799 H   0  0  0  0  0  0  0  0  0  0  0  0
   63.5127   32.4951   51.1799 H   0  0  0  0  0  0  0  0  0  0  0  0
   65.5060   33.0977   49.0178 H   0  0  0  0  0  0  0  0  0  0  0  0
   64.9021   31.3661   49.1945 H   0  0  0  0  0  0  0  0  0  0  0  0
   62.7700   33.0440   49.2960 H   0  0  0  0  0  0  0  0  0  0  0  0
   63.2802   34.8242   48.2269 H   0  0  0  0  0  0  0  0  0  0  0  0
   64.6911   33.9986   47.4144 H   0  0  0  0  0  0  0  0  0  0  0  0
   61.7675   33.6630   46.6073 H   0  0  0  0  0  0  0  0  0  0  0  0
   62.9508   34.7417   45.7932 H   0  0  0  0  0  0  0  0  0  0  0  0
   63.2080   32.9639   45.7932 H   0  0  0  0  0  0  0  0  0  0  0  0
   62.3656   31.8717   47.0110 H   0  0  0  0  0  0  0  0  0  0  0  0
   63.6786   30.8348   47.7956 H   0  0  0  0  0  0  0  0  0  0  0  0
   60.8135   30.9517   48.3417 H   0  0  0  0  0  0  0  0  0  0  0  0
   62.0633   29.7319   48.7984 H   0  0  0  0  0  0  0  0  0  0  0  0
   59.7845   31.3803   49.7169 H   0  0  0  0  0  0  0  0  0  0  0  0
   60.2449   30.5161   51.2193 H   0  0  0  0  0  0  0  0  0  0  0  0
   59.2459   32.9490   51.3885 H   0  0  0  0  0  0  0  0  0  0  0  0
   60.6939   32.5052   52.3851 H   0  0  0  0  0  0  0  0  0  0  0  0
   60.7708   34.7778   51.1766 H   0  0  0  0  0  0  0  0  0  0  0  0
   62.1772   33.6782   50.9521 H   0  0  0  0  0  0  0  0  0  0  0  0
   60.8800   32.8580   48.9410 H   0  0  0  0  0  0  0  0  0  0  0  0
   58.8124   34.0403   49.5199 H   0  0  0  0  0  0  0  0  0  0  0  0
   59.6924   35.5611   49.1171 H   0  0  0  0  0  0  0  0  0  0  0  0
   59.7350   36.3456   46.9736 H   0  0  0  0  0  0  0  0  0  0  0  0
   59.3611   36.0735   44.5347 H   0  0  0  0  0  0  0  0  0  0  0  0
   58.7645   33.8499   43.5917 H   0  0  0  0  0  0  0  0  0  0  0  0
   58.2877   31.4922   43.8966 H   0  0  0  0  0  0  0  0  0  0  0  0
   58.0322   29.5104   45.3857 H   0  0  0  0  0  0  0  0  0  0  0  0
   58.3615   29.7405   47.8440 H   0  0  0  0  0  0  0  0  0  0  0  0
   58.9490   31.9497   48.8315 H   0  0  0  0  0  0  0  0  0  0  0  0
  1  2  1  0
  2  3  1  0
  3  4  1  0
  4  5  1  0
  3  6  1  0
  6  7  1  0
  7  8  1  0
  8  9  1  0
  9 10  1  0
 10 11  1  0
 11 12  1  0
 12 13  1  0
 13 14  1  0
 14 15  2  0
 15 16  1  0
 16 17  2  0
 17 18  1  0
 18 19  2  0
 19 20  1  0
 20 21  2  0
 21 22  1  0
 22 23  2  0
 23 14  1  0
 23 18  1  0
  1 24  1  0
  1 25  1  0
  1 26  1  0
  2 27  1  0
  2 28  1  0
  3 29  1  0
  4 30  1  0
  4 31  1  0
  5 32  1  0
  5 33  1  0
  5 34  1  0
  6 35  1  0
  6 36  1  0
  7 37  1  0
  7 38  1  0
  9 39  1  0
  9 40  1  0
 10 41  1  0
 10 42  1  0
 11 43  1  0
 11 44  1  0
 12 45  1  0
 13 46  1  0
 13 47  1  0
 15 48  1  0
 16 49  1  0
 17 50  1  0
 19 51  1  0
 20 52  1  0
 21 53  1  0
 22 54  1  0
M  CHG  1   3   1
M  END
>  <UniqueID>  (19) 
19

>  <SMILES>  (19) 
CC[NH+](CC)CCOCCCNCc1cccc2ccccc12

>  <Energy>  (19) 
60.89817936975585

>  <Genealogy>  (19) 
CC[NH+](CC)CCOCCCNCc1cccc2ccccc12 (protonated)
CC[NH+](CC)CCOCCCNCc1cccc2ccccc12 (3D coordinates assigned)
CC[NH+](CC)CCOCCCNCc1cccc2ccccc12 (optimized conformer: 60.89817936975585 kcal/mol)

>  <smiles>  (19) 
CCN(CC)CCOCCCNCc1cccc2ccccc12

>  <score_type>  (19) 
oracle

>  <origin>  (19) 
adg

>  <m_score__min__energy>  (19) 
-4.7199999999999998

>  <m_primary>  (19) 
energy

$$$$
19:0
     RDKit          3D

 57 59  0  0  0  0  0  0  0  0999 V2000
   58.4550   30.4510   50.5090 C   0  0  0  0  0  0  0  0  0  0  0  0
   58.5900   31.9440   50.1570 C   0  0  0  0  0  0  0  0  0  0  0  0
   59.8060   32.6330   50.6840 N   0  0  0  0  0  0  0  0  0  0  0  0
   59.5500   33.7480   51.6350 C   0  0  0  0  0  0  0  0  0  0  0  0
   58.2330   33.5660   52.3980 C   0  0  0  0  0  0  0  0  0  0  0  0
   60.8470   31.6930   51.1780 C   0  0  0  0  0  0  0  0  0  0  0  0
   62.0310   31.4850   50.2160 C   0  0  0  0  0  0  0  0  0  0  0  0
   61.8840   32.2950   49.0610 O   0  0  0  0  0  0  0  0  0  0  0  0
   62.6830   31.8110   47.9960 C   0  0  0  0  0  0  0  0  0  0  0  0
   61.8630   30.8950   47.0730 C   0  0  0  0  0  0  0  0  0  0  0  0
   60.4690   30.8000   47.5170 N   0  0  0  0  0  0  0  0  0  0  0  0
   59.3790   30.8430   46.5800 C   0  0  0  0  0  0  0  0  0  0  0  0
   58.8600   32.0910   46.1930 C   0  0  0  0  0  0  0  0  0  0  0  0
   59.1460   33.2600   46.9320 C   0  0  0  0  0  0  0  0  0  0  0  0
   58.5880   34.4840   46.5720 C   0  0  0  0  0  0  0  0  0  0  0  0
   57.7360   34.5650   45.4770 C   0  0  0  0  0  0  0  0  0  0  0  0
   57.4700   33.4310   44.7100 C   0  0  0  0  0  0  0  0  0  0  0  0
   58.0620   32.1810   45.0250 C   0  0  0  0  0  0  0  0  0  0  0  0
   57.9020   31.0740   44.2150 N   0  0  0  0  0  0  0  0  0  0  0  0
   57.3880   31.2400   42.8360 C   0  0  0  0  0  0  0  0  0  0  0  0
   58.2280   29.8170   44.6910 C   0  0  0  0  0  0  0  0  0  0  0  0
   57.8490   28.6430   43.9930 C   0  0  0  0  0  0  0  0  0  0  0  0
   58.1730   27.3810   44.4750 C   0  0  0  0  0  0  0  0  0  0  0  0
   58.8160   27.2450   45.6960 C   0  0  0  0  0  0  0  0  0  0  0  0
   59.1700   28.3690   46.4420 C   0  0  0  0  0  0  0  0  0  0  0  0
   59.7270   28.0080   48.2500 Br  0  0  0  0  0  0  0  0  0  0  0  0
   58.9420   29.6750   45.9180 C   0  0  0  0  0  0  0  0  0  0  0  0
   58.4442   30.3316   51.6024 H   0  0  0  0  0  0  0  0  0  0  0  0
   57.5177   30.0583   50.0880 H   0  0  0  0  0  0  0  0  0  0  0  0
   59.3067   29.8966   50.0880 H   0  0  0  0  0  0  0  0  0  0  0  0
   58.6020   32.0317   49.0606 H   0  0  0  0  0  0  0  0  0  0  0  0
   57.7350   32.4410   50.6386 H   0  0  0  0  0  0  0  0  0  0  0  0
   60.2560   33.0730   49.8440 H   0  0  0  0  0  0  0  0  0  0  0  0
   60.3763   33.7925   52.3598 H   0  0  0  0  0  0  0  0  0  0  0  0
   59.4779   34.6788   51.0533 H   0  0  0  0  0  0  0  0  0  0  0  0
   58.4293   33.5931   53.4800 H   0  0  0  0  0  0  0  0  0  0  0  0
   57.5394   34.3768   52.1308 H   0  0  0  0  0  0  0  0  0  0  0  0
   57.7852   32.5974   52.1308 H   0  0  0  0  0  0  0  0  0  0  0  0
   61.2409   32.0853   52.1272 H   0  0  0  0  0  0  0  0  0  0  0  0
   60.3572   30.7140   51.2859 H   0  0  0  0  0  0  0  0  0  0  0  0
   62.9657   31.7541   50.7297 H   0  0  0  0  0  0  0  0  0  0  0  0
   62.0564   30.4293   49.9079 H   0  0  0  0  0  0  0  0  0  0  0  0
   63.0630   32.6633   47.4137 H   0  0  0  0  0  0  0  0  0  0  0  0
   63.5188   31.2323   48.4162 H   0  0  0  0  0  0  0  0  0  0  0  0
   61.8865   31.3022   46.0514 H   0  0  0  0  0  0  0  0  0  0  0  0
   62.3054   29.8883   47.1015 H   0  0  0  0  0  0  0  0  0  0  0  0
   60.2660   30.8130   48.5420 H   0  0  0  0  0  0  0  0  0  0  0  0
   59.8171   33.2030   47.8017 H   0  0  0  0  0  0  0  0  0  0  0  0
   58.8217   35.3873   47.1546 H   0  0  0  0  0  0  0  0  0  0  0  0
   57.2701   35.5263   45.2145 H   0  0  0  0  0  0  0  0  0  0  0  0
   56.7910   33.5070   43.8479 H   0  0  0  0  0  0  0  0  0  0  0  0
   56.3418   31.5779   42.8728 H   0  0  0  0  0  0  0  0  0  0  0  0
   57.9962   31.9874   42.3055 H   0  0  0  0  0  0  0  0  0  0  0  0
   57.4442   30.2780   42.3055 H   0  0  0  0  0  0  0  0  0  0  0  0
   57.2874   28.7329   43.0514 H   0  0  0  0  0  0  0  0  0  0  0  0
   57.9188   26.4872   43.8864 H   0  0  0  0  0  0  0  0  0  0  0  0
   59.0491   26.2409   46.0799 H   0  0  0  0  0  0  0  0  0  0  0  0
  1  2  1  0
  2  3  1  0
  3  4  1  0
  4  5  1  0
  3  6  1  0
  6  7  1  0
  7  8  1  0
  8  9  1  0
  9 10  1  0
 10 11  1  0
 11 12  1  0
 12 13  2  0
 13 14  1  0
 14 15  2  0
 15 16  1  0
 16 17  2  0
 17 18  1  0
 18 19  2  0
 19 20  1  0
 19 21  1  0
 21 22  2  0
 22 23  1  0
 23 24  2  0
 24 25  1  0
 25 26  1  0
 25 27  2  0
 27 12  1  0
 18 13  1  0
 27 21  1  0
  1 28  1  0
  1 29  1  0
  1 30  1  0
  2 31  1  0
  2 32  1  0
  3 33  1  0
  4 34  1  0
  4 35  1  0
  5 36  1  0
  5 37  1  0
  5 38  1  0
  6 39  1  0
  6 40  1  0
  7 41  1  0
  7 42  1  0
  9 43  1  0
  9 44  1  0
 10 45  1  0
 10 46  1  0
 11 47  1  0
 14 48  1  0
 15 49  1  0
 16 50  1  0
 17 51  1  0
 20 52  1  0
 20 53  1  0
 20 54  1  0
 22 55  1  0
 23 56  1  0
 24 57  1  0
M  CHG  2   3   1  19   1
M  END
>  <UniqueID>  (20) 
20

>  <SMILES>  (20) 
CC[NH+](CC)CCOCCNc1c2ccccc2[n+](C)c2cccc(Br)c12

>  <Energy>  (20) 
97.04269007608687

>  <Genealogy>  (20) 
CC[NH+](CC)CCOCCNc1c2ccccc2[n+](C)c2cccc(Br)c12 (protonated)
CC[NH+](CC)CCOCCNc1c2ccccc2[n+](C)c2cccc(Br)c12 (3D coordinates assigned)
CC[NH+](CC)CCOCCNc1c2ccccc2[n+](C)c2cccc(Br)c12 (optimized conformer: 97.04269007608687 kcal/mol)

>  <smiles>  (20) 
CCN(CC)CCOCCNc1c2ccccc2[n+](C)c2cccc(Br)c12

>  <score_type>  (20) 
oracle

>  <origin>  (20) 
adg

>  <m_score__min__energy>  (20) 
-4.5300000000000002

>  <m_primary>  (20) 
energy

$$$$
20:0
     RDKit          3D

 51 52  0  0  0  0  0  0  0  0999 V2000
   63.3990   33.8240   46.3700 C   0  0  0  0  0  0  0  0  0  0  0  0
   63.7660   32.7720   47.1050 C   0  0  0  0  0  0  0  0  0  0  0  0
   63.9300   32.8880   48.5930 C   0  0  0  0  0  0  0  0  0  0  0  0
   62.6160   33.0290   49.2350 N   0  0  0  0  0  0  0  0  0  0  0  0
   61.7200   31.9280   48.8620 C   0  0  0  0  0  0  0  0  0  0  0  0
   60.7510   32.3720   47.8000 C   0  0  0  0  0  0  0  0  0  0  0  0
   60.4490   33.6750   47.5990 N   0  0  0  0  0  0  0  0  0  0  0  0
   59.5570   33.6620   46.5990 C   0  0  0  0  0  0  0  0  0  0  0  0
   58.9830   34.7640   45.9720 C   0  0  0  0  0  0  0  0  0  0  0  0
   58.1090   34.5250   44.9010 C   0  0  0  0  0  0  0  0  0  0  0  0
   57.8200   33.2070   44.4970 C   0  0  0  0  0  0  0  0  0  0  0  0
   58.3960   32.1010   45.1590 C   0  0  0  0  0  0  0  0  0  0  0  0
   57.9730   30.7540   44.7660 C   0  0  0  0  0  0  0  0  0  0  0  0
   58.8150   29.9470   44.2880 O   0  0  0  0  0  0  0  0  0  0  0  0
   56.6530   30.3580   44.9920 O   0  0  0  0  0  0  0  0  0  0  0  0
   55.8560   29.7400   43.9880 C   0  0  0  0  0  0  0  0  0  0  0  0
   56.4280   30.0600   42.6170 C   0  0  0  0  0  0  0  0  0  0  0  0
   59.2990   32.3710   46.2140 C   0  0  0  0  0  0  0  0  0  0  0  0
   60.0660   31.5360   46.9660 N   0  0  0  0  0  0  0  0  0  0  0  0
   60.2940   30.0920   46.8070 C   0  0  0  0  0  0  0  0  0  0  0  0
   59.2610   29.2810   47.6010 C   0  0  0  0  0  0  0  0  0  0  0  0
   59.1390   27.9130   47.0500 N   0  0  0  0  0  0  0  0  0  0  0  0
   60.2090   27.6450   46.0770 C   0  0  0  0  0  0  0  0  0  0  0  0
   57.8270   27.7160   46.4100 C   0  0  0  0  0  0  0  0  0  0  0  0
   63.2837   33.7207   45.2809 H   0  0  0  0  0  0  0  0  0  0  0  0
   63.2118   34.7942   46.8533 H   0  0  0  0  0  0  0  0  0  0  0  0
   63.9511   31.8056   46.6133 H   0  0  0  0  0  0  0  0  0  0  0  0
   64.4273   31.9846   48.9760 H   0  0  0  0  0  0  0  0  0  0  0  0
   64.5395   33.7750   48.8205 H   0  0  0  0  0  0  0  0  0  0  0  0
   62.7620   32.9760   50.2710 H   0  0  0  0  0  0  0  0  0  0  0  0
   62.3185   31.0889   48.4776 H   0  0  0  0  0  0  0  0  0  0  0  0
   61.1533   31.6145   49.7512 H   0  0  0  0  0  0  0  0  0  0  0  0
   60.8390   34.5070   48.0960 H   0  0  0  0  0  0  0  0  0  0  0  0
   59.2071   35.7881   46.3051 H   0  0  0  0  0  0  0  0  0  0  0  0
   57.6465   35.3722   44.3734 H   0  0  0  0  0  0  0  0  0  0  0  0
   57.1353   33.0369   43.6531 H   0  0  0  0  0  0  0  0  0  0  0  0
   55.8555   28.6505   44.1396 H   0  0  0  0  0  0  0  0  0  0  0  0
   54.8259   30.1203   44.0527 H   0  0  0  0  0  0  0  0  0  0  0  0
   57.3826   30.5940   42.7335 H   0  0  0  0  0  0  0  0  0  0  0  0
   56.5962   29.1250   42.0625 H   0  0  0  0  0  0  0  0  0  0  0  0
   55.7192   30.6926   42.0625 H   0  0  0  0  0  0  0  0  0  0  0  0
   60.2146   29.8305   45.7415 H   0  0  0  0  0  0  0  0  0  0  0  0
   61.2970   29.8516   47.1893 H   0  0  0  0  0  0  0  0  0  0  0  0
   59.5792   29.2205   48.6522 H   0  0  0  0  0  0  0  0  0  0  0  0
   58.2843   29.7816   47.5278 H   0  0  0  0  0  0  0  0  0  0  0  0
   61.1412   27.4115   46.6122 H   0  0  0  0  0  0  0  0  0  0  0  0
   59.9248   26.7903   45.4456 H   0  0  0  0  0  0  0  0  0  0  0  0
   60.3612   28.5328   45.4456 H   0  0  0  0  0  0  0  0  0  0  0  0
   57.0548   27.6001   47.1848 H   0  0  0  0  0  0  0  0  0  0  0  0
   57.5898   28.5886   45.7836 H   0  0  0  0  0  0  0  0  0  0  0  0
   57.8566   26.8122   45.7836 H   0  0  0  0  0  0  0  0  0  0  0  0
  1  2  2  0
  2  3  1  0
  3  4  1  0
  4  5  1  0
  5  6  1  0
  6  7  2  0
  7  8  1  0
  8  9  2  0
  9 10  1  0
 10 11  2  0
 11 12  1  0
 12 13  1  0
 13 14  2  0
 13 15  1  0
 15 16  1  0
 16 17  1  0
 12 18  2  0
 18 19  1  0
 19 20  1  0
 20 21  1  0
 21 22  1  0
 22 23  1  0
 22 24  1  0
 19  6  1  0
 18  8  1  0
  1 25  1  0
  1 26  1  0
  2 27  1  0
  3 28  1  0
  3 29  1  0
  4 30  1  0
  5 31  1  0
  5 32  1  0
  7 33  1  0
  9 34  1  0
 10 35  1  0
 11 36  1  0
 16 37  1  0
 16 38  1  0
 17 39  1  0
 17 40  1  0
 17 41  1  0
 20 42  1  0
 20 43  1  0
 21 44  1  0
 21 45  1  0
 23 46  1  0
 23 47  1  0
 23 48  1  0
 24 49  1  0
 24 50  1  0
 24 51  1  0
M  CHG  1   7   1
M  END
>  <UniqueID>  (21) 
21

>  <SMILES>  (21) 
C=CCNCc1[nH+]c2cccc(C(=O)OCC)c2n1CCN(C)C

>  <Energy>  (21) 
85.57647822187974

>  <Genealogy>  (21) 
C=CCNCc1[nH+]c2cccc(C(=O)OCC)c2n1CCN(C)C (protonated)
C=CCNCc1[nH+]c2cccc(C(=O)OCC)c2n1CCN(C)C (3D coordinates assigned)
C=CCNCc1[nH+]c2cccc(C(=O)OCC)c2n1CCN(C)C (optimized conformer: 85.57647822187974 kcal/mol)

>  <smiles>  (21) 
C=CCNCc1nc2cccc(C(=O)OCC)c2n1CCN(C)C

>  <score_type>  (21) 
oracle

>  <origin>  (21) 
adg

>  <m_score__min__energy>  (21) 
-5.21

>  <m_primary>  (21) 
energy

$$$$
21:0
     RDKit          3D

 60 62  0  0  0  0  0  0  0  0999 V2000
   61.8050   29.1250   50.9220 C   0  0  0  0  0  0  0  0  0  0  0  0
   60.3290   29.0090   50.5520 C   0  0  0  0  0  0  0  0  0  0  0  0
   59.8480   30.2560   49.9400 N   0  0  0  0  0  0  0  0  0  0  0  0
   58.5320   30.6380   50.4690 C   0  0  0  0  0  0  0  0  0  0  0  0
   58.2890   32.1300   50.2330 C   0  0  0  0  0  0  0  0  0  0  0  0
   59.3710   32.6990   49.4150 N   0  0  0  0  0  0  0  0  0  0  0  0
   60.0000   33.8490   50.0820 C   0  0  0  0  0  0  0  0  0  0  0  0
   61.4060   33.4890   50.5650 C   0  0  0  0  0  0  0  0  0  0  0  0
   62.0260   32.5060   49.6650 N   0  0  0  0  0  0  0  0  0  0  0  0
   62.4910   33.1150   48.4080 C   0  0  0  0  0  0  0  0  0  0  0  0
   62.0820   32.2990   47.1710 C   0  0  0  0  0  0  0  0  0  0  0  0
   60.8830   31.5110   47.4500 N   0  0  0  0  0  0  0  0  0  0  0  0
   59.8520   31.3110   46.4700 C   0  0  0  0  0  0  0  0  0  0  0  0
   59.1450   32.3970   45.9540 C   0  0  0  0  0  0  0  0  0  0  0  0
   58.2010   32.2250   44.9740 C   0  0  0  0  0  0  0  0  0  0  0  0
   57.8830   30.9850   44.4770 N   0  0  0  0  0  0  0  0  0  0  0  0
   56.8290   30.8470   43.4540 C   0  0  0  0  0  0  0  0  0  0  0  0
   58.5810   29.8800   44.9330 C   0  0  0  0  0  0  0  0  0  0  0  0
   58.3390   28.5830   44.4190 C   0  0  0  0  0  0  0  0  0  0  0  0
   59.0500   27.4790   44.8900 C   0  0  0  0  0  0  0  0  0  0  0  0
   60.0180   27.6360   45.8770 C   0  0  0  0  0  0  0  0  0  0  0  0
   60.2880   28.8980   46.4000 C   0  0  0  0  0  0  0  0  0  0  0  0
   59.5860   30.0300   45.9410 C   0  0  0  0  0  0  0  0  0  0  0  0
   57.6350   33.5340   44.5350 C   0  0  0  0  0  0  0  0  0  0  0  0
   58.4970   34.5810   45.2560 C   0  0  0  0  0  0  0  0  0  0  0  0
   59.3250   33.8300   46.3070 C   0  0  0  0  0  0  0  0  0  0  0  0
   61.9090   29.1332   52.0170 H   0  0  0  0  0  0  0  0  0  0  0  0
   62.3553   28.2673   50.5078 H   0  0  0  0  0  0  0  0  0  0  0  0
   62.2146   30.0581   50.5078 H   0  0  0  0  0  0  0  0  0  0  0  0
   60.1995   28.1826   49.8376 H   0  0  0  0  0  0  0  0  0  0  0  0
   59.7488   28.8168   51.4666 H   0  0  0  0  0  0  0  0  0  0  0  0
   60.5220   31.0140   50.2010 H   0  0  0  0  0  0  0  0  0  0  0  0
   57.7507   30.0560   49.9584 H   0  0  0  0  0  0  0  0  0  0  0  0
   58.5024   30.4327   51.5493 H   0  0  0  0  0  0  0  0  0  0  0  0
   57.3302   32.2636   49.7106 H   0  0  0  0  0  0  0  0  0  0  0  0
   58.2638   32.6469   51.2036 H   0  0  0  0  0  0  0  0  0  0  0  0
   60.1040   31.9590   49.3040 H   0  0  0  0  0  0  0  0  0  0  0  0
   60.0651   34.6871   49.3725 H   0  0  0  0  0  0  0  0  0  0  0  0
   59.3884   34.1326   50.9512 H   0  0  0  0  0  0  0  0  0  0  0  0
   62.0243   34.3985   50.5881 H   0  0  0  0  0  0  0  0  0  0  0  0
   61.3342   33.0522   51.5720 H   0  0  0  0  0  0  0  0  0  0  0  0
   61.3290   31.7580   49.4410 H   0  0  0  0  0  0  0  0  0  0  0  0
   62.0593   34.1233   48.3238 H   0  0  0  0  0  0  0  0  0  0  0  0
   63.5901   33.1465   48.4388 H   0  0  0  0  0  0  0  0  0  0  0  0
   61.8777   32.9854   46.3361 H   0  0  0  0  0  0  0  0  0  0  0  0
   62.9032   31.6158   46.9085 H   0  0  0  0  0  0  0  0  0  0  0  0
   60.6970   31.2180   48.4350 H   0  0  0  0  0  0  0  0  0  0  0  0
   55.8540   30.7193   43.9470 H   0  0  0  0  0  0  0  0  0  0  0  0
   56.8070   31.7499   42.8261 H   0  0  0  0  0  0  0  0  0  0  0  0
   57.0402   29.9688   42.8261 H   0  0  0  0  0  0  0  0  0  0  0  0
   57.5787   28.4438   43.6363 H   0  0  0  0  0  0  0  0  0  0  0  0
   58.8443   26.4796   44.4791 H   0  0  0  0  0  0  0  0  0  0  0  0
   60.5720   26.7601   46.2455 H   0  0  0  0  0  0  0  0  0  0  0  0
   61.0565   29.0121   47.1787 H   0  0  0  0  0  0  0  0  0  0  0  0
   57.7158   33.6472   43.4438 H   0  0  0  0  0  0  0  0  0  0  0  0
   56.5661   33.6317   44.7757 H   0  0  0  0  0  0  0  0  0  0  0  0
   59.1625   35.0824   44.5379 H   0  0  0  0  0  0  0  0  0  0  0  0
   57.8687   35.3514   45.7269 H   0  0  0  0  0  0  0  0  0  0  0  0
   60.3852   34.1168   46.2468 H   0  0  0  0  0  0  0  0  0  0  0  0
   59.0060   34.0548   47.3354 H   0  0  0  0  0  0  0  0  0  0  0  0
  1  2  1  0
  2  3  1  0
  3  4  1  0
  4  5  1  0
  5  6  1  0
  6  7  1  0
  7  8  1  0
  8  9  1  0
  9 10  1  0
 10 11  1  0
 11 12  1  0
 12 13  1  0
 13 14  2  0
 14 15  1  0
 15 16  2  0
 16 17  1  0
 16 18  1  0
 18 19  2  0
 19 20  1  0
 20 21  2  0
 21 22  1  0
 22 23  2  0
 15 24  1  0
 24 25  1  0
 25 26  1  0
 23 13  1  0
 26 14  1  0
 23 18  1  0
  1 27  1  0
  1 28  1  0
  1 29  1  0
  2 30  1  0
  2 31  1  0
  3 32  1  0
  4 33  1  0
  4 34  1  0
  5 35  1  0
  5 36  1  0
  6 37  1  0
  7 38  1  0
  7 39  1  0
  8 40  1  0
  8 41  1  0
  9 42  1  0
 10 43  1  0
 10 44  1  0
 11 45  1  0
 11 46  1  0
 12 47  1  0
 17 48  1  0
 17 49  1  0
 17 50  1  0
 19 51  1  0
 20 52  1  0
 21 53  1  0
 22 54  1  0
 24 55  1  0
 24 56  1  0
 25 57  1  0
 25 58  1  0
 26 59  1  0
 26 60  1  0
M  CHG  1  16   1
M  END
>  <UniqueID>  (22) 
22

>  <SMILES>  (22) 
CCNCCNCCNCCNc1c2c([n+](C)c3ccccc13)CCC2

>  <Energy>  (22) 
73.7086663643861

>  <Genealogy>  (22) 
CCNCCNCCNCCNc1c2c([n+](C)c3ccccc13)CCC2 (3D coordinates assigned)
CCNCCNCCNCCNc1c2c([n+](C)c3ccccc13)CCC2 (nonaromatic ring conformer: 73.7086663643861 kcal/mol)

>  <smiles>  (22) 
CCNCCNCCNCCNc1c2c([n+](C)c3ccccc13)CCC2

>  <score_type>  (22) 
oracle

>  <origin>  (22) 
adg

>  <m_score__min__energy>  (22) 
-5.5300000000000002

>  <m_primary>  (22) 
energy

$$$$
22:0
     RDKit          3D

 47 48  0  0  0  0  0  0  0  0999 V2000
   58.2240   32.5510   41.4280 C   0  0  0  0  0  0  0  0  0  0  0  0
   57.0380   31.6730   41.8080 C   0  0  0  0  0  0  0  0  0  0  0  0
   57.4560   30.6290   42.6690 O   0  0  0  0  0  0  0  0  0  0  0  0
   56.3490   29.8560   43.0810 C   0  0  0  0  0  0  0  0  0  0  0  0
   56.2210   29.9500   44.5650 C   0  0  0  0  0  0  0  0  0  0  0  0
   55.1520   29.5830   45.1220 O   0  0  0  0  0  0  0  0  0  0  0  0
   57.3530   30.3540   45.3460 N   0  0  0  0  0  0  0  0  0  0  0  0
   57.9030   31.6770   45.4310 C   0  0  0  0  0  0  0  0  0  0  0  0
   57.3240   32.7660   44.7650 C   0  0  0  0  0  0  0  0  0  0  0  0
   57.8990   34.0320   44.8600 C   0  0  0  0  0  0  0  0  0  0  0  0
   59.0770   34.2370   45.5960 C   0  0  0  0  0  0  0  0  0  0  0  0
   59.6140   35.6410   45.7010 C   0  0  0  0  0  0  0  0  0  0  0  0
   59.6760   33.1370   46.2640 C   0  0  0  0  0  0  0  0  0  0  0  0
   61.1510   33.2990   47.2440 S   0  0  0  0  0  0  0  0  0  0  0  0
   61.0170   34.4930   48.1480 O   0  0  0  0  0  0  0  0  0  0  0  0
   62.3300   33.5320   46.3400 O   0  0  0  0  0  0  0  0  0  0  0  0
   61.4390   31.8600   48.1980 N   0  0  0  0  0  0  0  0  0  0  0  0
   60.3240   31.6330   49.1600 C   0  0  0  0  0  0  0  0  0  0  0  0
   60.6600   32.0940   50.5850 C   0  0  0  0  0  0  0  0  0  0  0  0
   61.8960   31.3560   51.1280 C   0  0  0  0  0  0  0  0  0  0  0  0
   62.9010   30.9850   50.0220 C   0  0  0  0  0  0  0  0  0  0  0  0
   62.7800   31.9380   48.8280 C   0  0  0  0  0  0  0  0  0  0  0  0
   59.0810   31.8670   46.1590 C   0  0  0  0  0  0  0  0  0  0  0  0
   58.7173   32.9162   42.3409 H   0  0  0  0  0  0  0  0  0  0  0  0
   58.9399   31.9635   40.8344 H   0  0  0  0  0  0  0  0  0  0  0  0
   57.8711   33.4072   40.8344 H   0  0  0  0  0  0  0  0  0  0  0  0
   56.2822   32.2859   42.3210 H   0  0  0  0  0  0  0  0  0  0  0  0
   56.6101   31.2342   40.8946 H   0  0  0  0  0  0  0  0  0  0  0  0
   55.4337   30.2390   42.6062 H   0  0  0  0  0  0  0  0  0  0  0  0
   56.4953   28.8068   42.7847 H   0  0  0  0  0  0  0  0  0  0  0  0
   56.4131   32.6210   44.1656 H   0  0  0  0  0  0  0  0  0  0  0  0
   57.4230   34.8830   44.3509 H   0  0  0  0  0  0  0  0  0  0  0  0
   59.7189   35.9151   46.7611 H   0  0  0  0  0  0  0  0  0  0  0  0
   60.5965   35.6955   45.2093 H   0  0  0  0  0  0  0  0  0  0  0  0
   58.9187   36.3372   45.2093 H   0  0  0  0  0  0  0  0  0  0  0  0
   61.4430   31.0530   47.5340 H   0  0  0  0  0  0  0  0  0  0  0  0
   59.4409   32.1881   48.8108 H   0  0  0  0  0  0  0  0  0  0  0  0
   60.1380   30.5496   49.1993 H   0  0  0  0  0  0  0  0  0  0  0  0
   60.8627   33.1751   50.5746 H   0  0  0  0  0  0  0  0  0  0  0  0
   59.8033   31.8680   51.2369 H   0  0  0  0  0  0  0  0  0  0  0  0
   62.4007   32.0054   51.8585 H   0  0  0  0  0  0  0  0  0  0  0  0
   61.5479   30.4194   51.5879 H   0  0  0  0  0  0  0  0  0  0  0  0
   63.9215   31.0451   50.4283 H   0  0  0  0  0  0  0  0  0  0  0  0
   62.6826   29.9631   49.6784 H   0  0  0  0  0  0  0  0  0  0  0  0
   62.9517   32.9677   49.1748 H   0  0  0  0  0  0  0  0  0  0  0  0
   63.5292   31.6449   48.0777 H   0  0  0  0  0  0  0  0  0  0  0  0
   59.5513   31.0074   46.6590 H   0  0  0  0  0  0  0  0  0  0  0  0
  1  2  1  0
  2  3  1  0
  3  4  1  0
  4  5  1  0
  5  6  2  0
  5  7  1  0
  7  8  1  0
  8  9  2  0
  9 10  1  0
 10 11  2  0
 11 12  1  0
 11 13  1  0
 13 14  1  0
 14 15  2  0
 14 16  2  0
 14 17  1  0
 17 18  1  0
 18 19  1  0
 19 20  1  0
 20 21  1  0
 21 22  1  0
 13 23  2  0
 23  8  1  0
 22 17  1  0
  1 24  1  0
  1 25  1  0
  1 26  1  0
  2 27  1  0
  2 28  1  0
  4 29  1  0
  4 30  1  0
  9 31  1  0
 10 32  1  0
 12 33  1  0
 12 34  1  0
 12 35  1  0
 17 36  1  0
 18 37  1  0
 18 38  1  0
 19 39  1  0
 19 40  1  0
 20 41  1  0
 20 42  1  0
 21 43  1  0
 21 44  1  0
 22 45  1  0
 22 46  1  0
 23 47  1  0
M  CHG  2   7  -1  17   1
M  END
>  <UniqueID>  (23) 
23

>  <SMILES>  (23) 
CCOCC(=O)[N-]c1ccc(C)c(S(=O)(=O)[NH+]2CCCCC2)c1

>  <Energy>  (23) 
54.02092507754887

>  <Genealogy>  (23) 
CCOCC(=O)[N-]c1ccc(C)c(S(=O)(=O)[NH+]2CCCCC2)c1 (protonated)
CCOCC(=O)[N-]c1ccc(C)c(S(=O)(=O)[NH+]2CCCCC2)c1 (3D coordinates assigned)
CCOCC(=O)[N-]c1ccc(C)c(S(=O)(=O)[NH+]2CCCCC2)c1 (nonaromatic ring conformer: 54.02092507754887 kcal/mol)

>  <smiles>  (23) 
CCOCC(=O)Nc1ccc(C)c(S(=O)(=O)N2CCCCC2)c1

>  <score_type>  (23) 
oracle

>  <origin>  (23) 
adg

>  <m_score__min__energy>  (23) 
-8.5500000000000007

>  <m_primary>  (23) 
energy

$$$$
23:0
     RDKit          3D

 49 50  0  0  0  0  0  0  0  0999 V2000
   63.3920   33.8340   46.5210 C   0  0  0  0  0  0  0  0  0  0  0  0
   62.8720   32.5330   47.1150 C   0  0  0  0  0  0  0  0  0  0  0  0
   62.4700   32.7330   48.5120 N   0  0  0  0  0  0  0  0  0  0  0  0
   62.7330   34.1100   48.9610 C   0  0  0  0  0  0  0  0  0  0  0  0
   62.5220   34.2240   50.4740 C   0  0  0  0  0  0  0  0  0  0  0  0
   61.1950   33.5900   50.9050 C   0  0  0  0  0  0  0  0  0  0  0  0
   60.3160   33.4840   49.8030 O   0  0  0  0  0  0  0  0  0  0  0  0
   59.1810   32.7060   50.1300 C   0  0  0  0  0  0  0  0  0  0  0  0
   58.5560   32.1800   48.8440 C   0  0  0  0  0  0  0  0  0  0  0  0
   59.4460   32.3660   47.7460 O   0  0  0  0  0  0  0  0  0  0  0  0
   59.4760   33.5100   46.9340 C   0  0  0  0  0  0  0  0  0  0  0  0
   60.0340   34.6830   47.3330 N   0  0  0  0  0  0  0  0  0  0  0  0
   59.6770   35.6980   46.0840 S   0  0  0  0  0  0  0  0  0  0  0  0
   58.8570   34.7500   45.0100 N   0  0  0  0  0  0  0  0  0  0  0  0
   58.8580   33.5380   45.6440 C   0  0  0  0  0  0  0  0  0  0  0  0
   58.1900   32.3650   45.0290 C   0  0  0  0  0  0  0  0  0  0  0  0
   57.7530   32.4120   43.7580 C   0  0  0  0  0  0  0  0  0  0  0  0
   57.0820   31.2430   43.0950 C   0  0  0  0  0  0  0  0  0  0  0  0
   57.4540   29.9400   43.8010 C   0  0  0  0  0  0  0  0  0  0  0  0
   57.1900   30.0780   45.2430 N   0  0  0  0  0  0  0  0  0  0  0  0
   57.3950   28.7870   45.9140 C   0  0  0  0  0  0  0  0  0  0  0  0
   58.0590   31.1000   45.8590 C   0  0  0  0  0  0  0  0  0  0  0  0
   63.6675   34.5234   47.3327 H   0  0  0  0  0  0  0  0  0  0  0  0
   64.2762   33.6262   45.9005 H   0  0  0  0  0  0  0  0  0  0  0  0
   62.6082   34.2929   45.9005 H   0  0  0  0  0  0  0  0  0  0  0  0
   62.0034   32.1907   46.5334 H   0  0  0  0  0  0  0  0  0  0  0  0
   63.6723   31.7792   47.0785 H   0  0  0  0  0  0  0  0  0  0  0  0
   61.4420   32.5500   48.5730 H   0  0  0  0  0  0  0  0  0  0  0  0
   63.7715   34.3791   48.7179 H   0  0  0  0  0  0  0  0  0  0  0  0
   62.0380   34.7925   48.4499 H   0  0  0  0  0  0  0  0  0  0  0  0
   63.3473   33.7113   50.9897 H   0  0  0  0  0  0  0  0  0  0  0  0
   62.4972   35.2911   50.7397 H   0  0  0  0  0  0  0  0  0  0  0  0
   61.3885   32.5864   51.3116 H   0  0  0  0  0  0  0  0  0  0  0  0
   60.7291   34.2264   51.6718 H   0  0  0  0  0  0  0  0  0  0  0  0
   59.4833   31.8610   50.7661 H   0  0  0  0  0  0  0  0  0  0  0  0
   58.4506   33.3228   50.6742 H   0  0  0  0  0  0  0  0  0  0  0  0
   58.3406   31.1074   48.9582 H   0  0  0  0  0  0  0  0  0  0  0  0
   57.6261   32.7337   48.6470 H   0  0  0  0  0  0  0  0  0  0  0  0
   60.5280   34.9130   48.2210 H   0  0  0  0  0  0  0  0  0  0  0  0
   57.8919   33.3396   43.1834 H   0  0  0  0  0  0  0  0  0  0  0  0
   55.9914   31.3795   43.1385 H   0  0  0  0  0  0  0  0  0  0  0  0
   57.4164   31.1881   42.0485 H   0  0  0  0  0  0  0  0  0  0  0  0
   56.8503   29.1156   43.3937 H   0  0  0  0  0  0  0  0  0  0  0  0
   58.5204   29.7237   43.6396 H   0  0  0  0  0  0  0  0  0  0  0  0
   57.3719   28.9326   47.0041 H   0  0  0  0  0  0  0  0  0  0  0  0
   56.5963   28.0901   45.6201 H   0  0  0  0  0  0  0  0  0  0  0  0
   58.3703   28.3718   45.6201 H   0  0  0  0  0  0  0  0  0  0  0  0
   57.6389   31.3690   46.8394 H   0  0  0  0  0  0  0  0  0  0  0  0
   59.0647   30.6620   45.9415 H   0  0  0  0  0  0  0  0  0  0  0  0
  1  2  1  0
  2  3  1  0
  3  4  1  0
  4  5  1  0
  5  6  1  0
  6  7  1  0
  7  8  1  0
  8  9  1  0
  9 10  1  0
 10 11  1  0
 11 12  2  0
 12 13  1  0
 13 14  1  0
 14 15  2  0
 15 16  1  0
 16 17  2  0
 17 18  1  0
 18 19  1  0
 19 20  1  0
 20 21  1  0
 20 22  1  0
 15 11  1  0
 22 16  1  0
  1 23  1  0
  1 24  1  0
  1 25  1  0
  2 26  1  0
  2 27  1  0
  3 28  1  0
  4 29  1  0
  4 30  1  0
  5 31  1  0
  5 32  1  0
  6 33  1  0
  6 34  1  0
  8 35  1  0
  8 36  1  0
  9 37  1  0
  9 38  1  0
 12 39  1  0
 17 40  1  0
 18 41  1  0
 18 42  1  0
 19 43  1  0
 19 44  1  0
 21 45  1  0
 21 46  1  0
 21 47  1  0
 22 48  1  0
 22 49  1  0
M  CHG  1  12   1
M  END
>  <UniqueID>  (24) 
24

>  <SMILES>  (24) 
CCNCCCOCCOc1[nH+]snc1C1=CCCN(C)C1

>  <Energy>  (24) 
82.97959514388008

>  <Genealogy>  (24) 
CCNCCCOCCOc1[nH+]snc1C1=CCCN(C)C1 (protonated)
CCNCCCOCCOc1[nH+]snc1C1=CCCN(C)C1 (3D coordinates assigned)
CCNCCCOCCOc1[nH+]snc1C1=CCCN(C)C1 (nonaromatic ring conformer: 82.97959514388008 kcal/mol)

>  <smiles>  (24) 
CCNCCCOCCOc1nsnc1C1=CCCN(C)C1

>  <score_type>  (24) 
oracle

>  <origin>  (24) 
adg

>  <m_score__min__energy>  (24) 
-5.3099999999999996

>  <m_primary>  (24) 
energy

$$$$
