0:0
     RDKit          3D

 43 45  0  0  0  0  0  0  0  0999 V2000
   63.3440   33.5870   47.1190 C   0  0  0  0  0  0  0  0  0  0  0  0
   63.2700   32.6610   48.2630 N   0  0  0  0  0  0  0  0  0  0  0  0
   64.5270   32.7320   49.0270 C   0  0  0  0  0  0  0  0  0  0  0  0
   62.1230   32.9810   49.1440 C   0  0  0  0  0  0  0  0  0  0  0  0
   60.8900   32.1310   48.7970 C   0  0  0  0  0  0  0  0  0  0  0  0
   61.0660   31.3890   47.5470 N   0  0  0  0  0  0  0  0  0  0  0  0
   59.9630   31.2200   46.6450 C   0  0  0  0  0  0  0  0  0  0  0  0
   59.3930   32.3410   46.0150 C   0  0  0  0  0  0  0  0  0  0  0  0
   59.8810   33.6390   46.2790 C   0  0  0  0  0  0  0  0  0  0  0  0
   59.2780   34.7540   45.7030 C   0  0  0  0  0  0  0  0  0  0  0  0
   58.1750   34.5980   44.8720 C   0  0  0  0  0  0  0  0  0  0  0  0
   57.6840   33.3240   44.5880 C   0  0  0  0  0  0  0  0  0  0  0  0
   58.3020   32.1640   45.1240 C   0  0  0  0  0  0  0  0  0  0  0  0
   57.8570   30.8920   44.8150 N   0  0  0  0  0  0  0  0  0  0  0  0
   56.9200   30.6920   43.6860 C   0  0  0  0  0  0  0  0  0  0  0  0
   58.3110   29.8040   45.5370 C   0  0  0  0  0  0  0  0  0  0  0  0
   57.7030   28.5260   45.4270 C   0  0  0  0  0  0  0  0  0  0  0  0
   58.2170   27.4220   46.1080 C   0  0  0  0  0  0  0  0  0  0  0  0
   57.3810   25.7140   45.9290 Br  0  0  0  0  0  0  0  0  0  0  0  0
   59.3380   27.5620   46.9190 C   0  0  0  0  0  0  0  0  0  0  0  0
   59.9280   28.8120   47.0850 C   0  0  0  0  0  0  0  0  0  0  0  0
   59.4090   29.9480   46.4290 C   0  0  0  0  0  0  0  0  0  0  0  0
   63.4265   34.6199   47.4881 H   0  0  0  0  0  0  0  0  0  0  0  0
   64.2256   33.3446   46.5075 H   0  0  0  0  0  0  0  0  0  0  0  0
   62.4351   33.4877   46.5075 H   0  0  0  0  0  0  0  0  0  0  0  0
   64.3028   32.7193   50.1038 H   0  0  0  0  0  0  0  0  0  0  0  0
   65.1592   31.8681   48.7739 H   0  0  0  0  0  0  0  0  0  0  0  0
   65.0579   33.6616   48.7739 H   0  0  0  0  0  0  0  0  0  0  0  0
   62.4091   32.7857   50.1880 H   0  0  0  0  0  0  0  0  0  0  0  0
   61.8630   34.0401   49.0001 H   0  0  0  0  0  0  0  0  0  0  0  0
   60.7122   31.4146   49.6126 H   0  0  0  0  0  0  0  0  0  0  0  0
   60.0350   32.8112   48.6694 H   0  0  0  0  0  0  0  0  0  0  0  0
   62.0260   31.1900   47.1820 H   0  0  0  0  0  0  0  0  0  0  0  0
   60.7457   33.7708   46.9460 H   0  0  0  0  0  0  0  0  0  0  0  0
   59.6751   35.7596   45.9059 H   0  0  0  0  0  0  0  0  0  0  0  0
   57.6874   35.4827   44.4367 H   0  0  0  0  0  0  0  0  0  0  0  0
   56.8032   33.2163   43.9379 H   0  0  0  0  0  0  0  0  0  0  0  0
   55.9147   30.4774   44.0775 H   0  0  0  0  0  0  0  0  0  0  0  0
   56.8871   31.6034   43.0709 H   0  0  0  0  0  0  0  0  0  0  0  0
   57.2621   29.8466   43.0709 H   0  0  0  0  0  0  0  0  0  0  0  0
   56.8116   28.4040   44.7942 H   0  0  0  0  0  0  0  0  0  0  0  0
   59.7592   26.6837   47.4301 H   0  0  0  0  0  0  0  0  0  0  0  0
   60.8092   28.9151   47.7353 H   0  0  0  0  0  0  0  0  0  0  0  0
  1  2  1  0
  2  3  1  0
  2  4  1  0
  4  5  1  0
  5  6  1  0
  6  7  1  0
  7  8  2  0
  8  9  1  0
  9 10  2  0
 10 11  1  0
 11 12  2  0
 12 13  1  0
 13 14  2  0
 14 15  1  0
 14 16  1  0
 16 17  2  0
 17 18  1  0
 18 19  1  0
 18 20  2  0
 20 21  1  0
 21 22  2  0
 22  7  1  0
 13  8  1  0
 22 16  1  0
  1 23  1  0
  1 24  1  0
  1 25  1  0
  3 26  1  0
  3 27  1  0
  3 28  1  0
  4 29  1  0
  4 30  1  0
  5 31  1  0
  5 32  1  0
  6 33  1  0
  9 34  1  0
 10 35  1  0
 11 36  1  0
 12 37  1  0
 15 38  1  0
 15 39  1  0
 15 40  1  0
 17 41  1  0
 20 42  1  0
 21 43  1  0
M  CHG  1  14   1
M  END
>  <UniqueID>  (1) 
1

>  <SMILES>  (1) 
CN(C)CCNc1c2ccccc2[n+](C)c2cc(Br)ccc12

>  <Energy>  (1) 
71.2311398704038

>  <Genealogy>  (1) 
CN(C)CCNc1c2ccccc2[n+](C)c2cc(Br)ccc12 (3D coordinates assigned)
CN(C)CCNc1c2ccccc2[n+](C)c2cc(Br)ccc12 (optimized conformer: 71.2311398704038 kcal/mol)

>  <smiles>  (1) 
CN(C)CCNc1c2ccccc2[n+](C)c2cc(Br)ccc12

>  <score_type>  (1) 
oracle

>  <origin>  (1) 
adg

>  <m_score__min__energy>  (1) 
-5.6299999999999999

>  <m_primary>  (1) 
energy

$$$$
1:0
     RDKit          3D

 45 48  0  0  0  0  0  0  0  0999 V2000
   59.7050   35.6500   45.9820 C   0  0  0  0  0  0  0  0  0  0  0  0
   60.2800   34.2400   46.0810 C   0  0  0  0  0  0  0  0  0  0  0  0
   61.2800   34.1540   47.1650 N   0  0  0  0  0  0  0  0  0  0  0  0
   60.6920   33.8710   48.4960 C   0  0  0  0  0  0  0  0  0  0  0  0
   59.2080   33.5630   48.3420 C   0  0  0  0  0  0  0  0  0  0  0  0
   62.4180   33.2650   46.8340 C   0  0  0  0  0  0  0  0  0  0  0  0
   62.1610   31.7710   47.1400 C   0  0  0  0  0  0  0  0  0  0  0  0
   60.7640   31.4070   46.9060 N   0  0  0  0  0  0  0  0  0  0  0  0
   60.2190   30.0890   47.1150 C   0  0  0  0  0  0  0  0  0  0  0  0
   60.7450   29.1940   48.0920 C   0  0  0  0  0  0  0  0  0  0  0  0
   60.2350   27.8790   48.2340 C   0  0  0  0  0  0  0  0  0  0  0  0
   59.1950   27.4390   47.3980 C   0  0  0  0  0  0  0  0  0  0  0  0
   58.5750   26.1760   47.4720 C   0  0  0  0  0  0  0  0  0  0  0  0
   57.4870   25.8760   46.6120 C   0  0  0  0  0  0  0  0  0  0  0  0
   57.0180   26.8300   45.6780 C   0  0  0  0  0  0  0  0  0  0  0  0
   57.6820   28.0560   45.6110 C   0  0  0  0  0  0  0  0  0  0  0  0
   58.7200   28.3290   46.4530 C   0  0  0  0  0  0  0  0  0  0  0  0
   59.1660   29.6150   46.3130 C   0  0  0  0  0  0  0  0  0  0  0  0
   58.3050   30.2130   45.2740 C   0  0  0  0  0  0  0  0  0  0  0  0
   57.4480   29.2850   44.8550 C   0  0  0  0  0  0  0  0  0  0  0  0
   56.1930   29.9390   44.5140 C   0  0  0  0  0  0  0  0  0  0  0  0
   55.1430   29.3490   44.1490 O   0  0  0  0  0  0  0  0  0  0  0  0
   56.2760   31.3470   44.7170 N   0  0  0  0  0  0  0  0  0  0  0  0
   57.5990   31.4950   45.2350 C   0  0  0  0  0  0  0  0  0  0  0  0
   58.0470   32.5890   45.6630 O   0  0  0  0  0  0  0  0  0  0  0  0
   59.5414   36.0511   46.9931 H   0  0  0  0  0  0  0  0  0  0  0  0
   60.4112   36.2968   45.4408 H   0  0  0  0  0  0  0  0  0  0  0  0
   58.7479   35.6185   45.4408 H   0  0  0  0  0  0  0  0  0  0  0  0
   59.4639   33.5318   46.2867 H   0  0  0  0  0  0  0  0  0  0  0  0
   60.7717   33.9930   45.1285 H   0  0  0  0  0  0  0  0  0  0  0  0
   61.2012   33.0055   48.9450 H   0  0  0  0  0  0  0  0  0  0  0  0
   60.8181   34.7493   49.1462 H   0  0  0  0  0  0  0  0  0  0  0  0
   58.7482   33.4676   49.3367 H   0  0  0  0  0  0  0  0  0  0  0  0
   58.7196   34.3789   47.7890 H   0  0  0  0  0  0  0  0  0  0  0  0
   59.0847   32.6201   47.7890 H   0  0  0  0  0  0  0  0  0  0  0  0
   62.6341   33.3656   45.7601 H   0  0  0  0  0  0  0  0  0  0  0  0
   63.2606   33.5785   47.4678 H   0  0  0  0  0  0  0  0  0  0  0  0
   62.8034   31.1578   46.4909 H   0  0  0  0  0  0  0  0  0  0  0  0
   62.3905   31.5923   48.2008 H   0  0  0  0  0  0  0  0  0  0  0  0
   60.1310   32.1610   46.5650 H   0  0  0  0  0  0  0  0  0  0  0  0
   61.5617   29.5300   48.7478 H   0  0  0  0  0  0  0  0  0  0  0  0
   60.6523   27.2049   48.9966 H   0  0  0  0  0  0  0  0  0  0  0  0
   58.9327   25.4261   48.1930 H   0  0  0  0  0  0  0  0  0  0  0  0
   57.0024   24.8903   46.6720 H   0  0  0  0  0  0  0  0  0  0  0  0
   56.1588   26.6127   45.0265 H   0  0  0  0  0  0  0  0  0  0  0  0
  1  2  1  0
  2  3  1  0
  3  4  1  0
  4  5  1  0
  3  6  1  0
  6  7  1  0
  7  8  1  0
  8  9  1  0
  9 10  2  0
 10 11  1  0
 11 12  2  0
 12 13  1  0
 13 14  2  0
 14 15  1  0
 15 16  2  0
 16 17  1  0
 17 18  2  0
 18 19  1  0
 19 20  2  0
 20 21  1  0
 21 22  2  0
 21 23  1  0
 23 24  1  0
 24 25  2  0
 18  9  1  0
 24 19  1  0
 17 12  1  0
 20 16  1  0
  1 26  1  0
  1 27  1  0
  1 28  1  0
  2 29  1  0
  2 30  1  0
  4 31  1  0
  4 32  1  0
  5 33  1  0
  5 34  1  0
  5 35  1  0
  6 36  1  0
  6 37  1  0
  7 38  1  0
  7 39  1  0
  8 40  1  0
 10 41  1  0
 11 42  1  0
 13 43  1  0
 14 44  1  0
 15 45  1  0
M  CHG  1  23  -1
M  END
>  <UniqueID>  (2) 
2

>  <SMILES>  (2) 
CCN(CC)CCNc1ccc2cccc3c2c1C1=C3C(=O)[N-]C1=O

>  <Energy>  (2) 
132.95028668550103

>  <Genealogy>  (2) 
CCN(CC)CCNc1ccc2cccc3c2c1C1=C3C(=O)[N-]C1=O (protonated)
CCN(CC)CCNc1ccc2cccc3c2c1C1=C3C(=O)[N-]C1=O (3D coordinates assigned)
CCN(CC)CCNc1ccc2cccc3c2c1C1=C3C(=O)[N-]C1=O (nonaromatic ring conformer: 132.95028668550103 kcal/mol)

>  <smiles>  (2) 
CCN(CC)CCNc1ccc2cccc3c2c1C1=C3C(=O)NC1=O

>  <score_type>  (2) 
oracle

>  <origin>  (2) 
adg

>  <m_score__min__energy>  (2) 
-9.4900000000000002

>  <m_primary>  (2) 
energy

$$$$
2:0
     RDKit          3D

 42 44  0  0  0  0  0  0  0  0999 V2000
   59.2600   35.3250   45.0410 C   0  0  0  0  0  0  0  0  0  0  0  0
   58.1730   34.2510   45.0000 C   0  0  0  0  0  0  0  0  0  0  0  0
   58.7520   32.8880   45.0080 N   0  0  0  0  0  0  0  0  0  0  0  0
   58.4620   32.2160   46.2910 C   0  0  0  0  0  0  0  0  0  0  0  0
   59.7250   31.6560   46.8810 C   0  0  0  0  0  0  0  0  0  0  0  0
   59.8510   30.4340   47.5330 C   0  0  0  0  0  0  0  0  0  0  0  0
   61.1140   30.2680   47.9850 N   0  0  0  0  0  0  0  0  0  0  0  0
   61.7860   31.3770   47.6300 C   0  0  0  0  0  0  0  0  0  0  0  0
   63.1220   31.6740   47.8900 C   0  0  0  0  0  0  0  0  0  0  0  0
   63.6220   32.9090   47.4380 C   0  0  0  0  0  0  0  0  0  0  0  0
   62.7830   33.8100   46.7450 C   0  0  0  0  0  0  0  0  0  0  0  0
   61.4370   33.4840   46.4970 C   0  0  0  0  0  0  0  0  0  0  0  0
   60.9710   32.2500   46.9540 C   0  0  0  0  0  0  0  0  0  0  0  0
   58.2780   32.0800   43.8570 C   0  0  0  0  0  0  0  0  0  0  0  0
   57.4950   30.9000   44.3550 C   0  0  0  0  0  0  0  0  0  0  0  0
   56.1540   30.9130   44.4980 N   0  0  0  0  0  0  0  0  0  0  0  0
   55.7920   29.6920   44.8640 N   0  0  0  0  0  0  0  0  0  0  0  0
   56.9120   28.9470   44.9280 C   0  0  0  0  0  0  0  0  0  0  0  0
   57.9980   29.6770   44.6160 N   0  0  0  0  0  0  0  0  0  0  0  0
   59.3730   29.1910   44.4930 C   0  0  0  0  0  0  0  0  0  0  0  0
   59.5440   27.8780   45.2480 C   0  0  0  0  0  0  0  0  0  0  0  0
   59.5009   35.5631   46.0876 H   0  0  0  0  0  0  0  0  0  0  0  0
   60.1619   34.9535   44.5325 H   0  0  0  0  0  0  0  0  0  0  0  0
   58.8994   36.2313   44.5325 H   0  0  0  0  0  0  0  0  0  0  0  0
   57.5227   34.3677   45.8795 H   0  0  0  0  0  0  0  0  0  0  0  0
   57.6010   34.3761   44.0688 H   0  0  0  0  0  0  0  0  0  0  0  0
   58.0252   32.9431   46.9913 H   0  0  0  0  0  0  0  0  0  0  0  0
   57.7537   31.3934   46.1130 H   0  0  0  0  0  0  0  0  0  0  0  0
   59.0374   29.7052   47.6626 H   0  0  0  0  0  0  0  0  0  0  0  0
   61.4880   29.4470   48.5130 H   0  0  0  0  0  0  0  0  0  0  0  0
   63.7657   30.9653   48.4316 H   0  0  0  0  0  0  0  0  0  0  0  0
   64.6728   33.1747   47.6254 H   0  0  0  0  0  0  0  0  0  0  0  0
   63.1849   34.7730   46.3969 H   0  0  0  0  0  0  0  0  0  0  0  0
   60.7737   34.1786   45.9607 H   0  0  0  0  0  0  0  0  0  0  0  0
   57.6356   32.7003   43.2147 H   0  0  0  0  0  0  0  0  0  0  0  0
   59.1446   31.7247   43.2800 H   0  0  0  0  0  0  0  0  0  0  0  0
   56.9357   27.8814   45.1997 H   0  0  0  0  0  0  0  0  0  0  0  0
   59.6067   29.0306   43.4301 H   0  0  0  0  0  0  0  0  0  0  0  0
   60.0550   29.9398   44.9221 H   0  0  0  0  0  0  0  0  0  0  0  0
   59.5188   28.0716   46.3305 H   0  0  0  0  0  0  0  0  0  0  0  0
   58.7277   27.1914   44.9792 H   0  0  0  0  0  0  0  0  0  0  0  0
   60.5089   27.4234   44.9792 H   0  0  0  0  0  0  0  0  0  0  0  0
  1  2  1  0
  2  3  1  0
  3  4  1  0
  4  5  1  0
  5  6  2  0
  6  7  1  0
  7  8  1  0
  8  9  2  0
  9 10  1  0
 10 11  2  0
 11 12  1  0
 12 13  2  0
  3 14  1  0
 14 15  1  0
 15 16  2  0
 16 17  1  0
 17 18  2  0
 18 19  1  0
 19 20  1  0
 20 21  1  0
 13  5  1  0
 19 15  1  0
 13  8  1  0
  1 22  1  0
  1 23  1  0
  1 24  1  0
  2 25  1  0
  2 26  1  0
  4 27  1  0
  4 28  1  0
  6 29  1  0
  7 30  1  0
  9 31  1  0
 10 32  1  0
 11 33  1  0
 12 34  1  0
 14 35  1  0
 14 36  1  0
 18 37  1  0
 20 38  1  0
 20 39  1  0
 21 40  1  0
 21 41  1  0
 21 42  1  0
M  END
>  <UniqueID>  (3) 
3

>  <SMILES>  (3) 
CCN(Cc1c[nH]c2ccccc12)Cc1nncn1CC

>  <Energy>  (3) 
107.14990411623074

>  <Genealogy>  (3) 
CCN(Cc1c[nH]c2ccccc12)Cc1nncn1CC (3D coordinates assigned)
CCN(Cc1c[nH]c2ccccc12)Cc1nncn1CC (optimized conformer: 107.14990411623074 kcal/mol)

>  <smiles>  (3) 
CCN(Cc1c[nH]c2ccccc12)Cc1nncn1CC

>  <score_type>  (3) 
oracle

>  <origin>  (3) 
adg

>  <m_score__min__energy>  (3) 
-7.7300000000000004

>  <m_primary>  (3) 
energy

$$$$
3:0
     RDKit          3D

 45 48  0  0  0  0  0  0  0  0999 V2000
   58.8750   32.2830   50.2260 C   0  0  0  0  0  0  0  0  0  0  0  0
   59.1140   33.4170   49.3980 O   0  0  0  0  0  0  0  0  0  0  0  0
   59.0600   33.4010   47.9960 C   0  0  0  0  0  0  0  0  0  0  0  0
   59.3770   34.5260   47.2190 C   0  0  0  0  0  0  0  0  0  0  0  0
   59.2310   34.4810   45.8340 C   0  0  0  0  0  0  0  0  0  0  0  0
   58.8140   33.2990   45.2020 C   0  0  0  0  0  0  0  0  0  0  0  0
   58.5210   33.3070   43.8400 C   0  0  0  0  0  0  0  0  0  0  0  0
   57.9720   32.2170   43.2300 N   0  0  0  0  0  0  0  0  0  0  0  0
   57.5790   32.3440   41.8160 C   0  0  0  0  0  0  0  0  0  0  0  0
   57.8090   31.0340   43.9220 C   0  0  0  0  0  0  0  0  0  0  0  0
   57.1610   29.9280   43.3310 C   0  0  0  0  0  0  0  0  0  0  0  0
   57.0530   28.7160   44.0030 C   0  0  0  0  0  0  0  0  0  0  0  0
   57.6980   28.5270   45.2250 C   0  0  0  0  0  0  0  0  0  0  0  0
   57.7070   27.2520   45.8120 C   0  0  0  0  0  0  0  0  0  0  0  0
   58.4770   27.0000   46.9590 C   0  0  0  0  0  0  0  0  0  0  0  0
   58.5000   25.7400   47.5810 O   0  0  0  0  0  0  0  0  0  0  0  0
   57.3780   24.8690   47.6810 C   0  0  0  0  0  0  0  0  0  0  0  0
   59.2720   28.0190   47.4940 C   0  0  0  0  0  0  0  0  0  0  0  0
   60.0800   27.7190   48.6030 O   0  0  0  0  0  0  0  0  0  0  0  0
   60.6400   28.6890   49.4820 C   0  0  0  0  0  0  0  0  0  0  0  0
   59.2510   29.2990   46.9110 C   0  0  0  0  0  0  0  0  0  0  0  0
   58.3870   29.6030   45.8340 C   0  0  0  0  0  0  0  0  0  0  0  0
   58.2870   30.9130   45.2620 C   0  0  0  0  0  0  0  0  0  0  0  0
   58.6280   32.1170   45.9490 C   0  0  0  0  0  0  0  0  0  0  0  0
   58.6650   32.2190   47.3610 C   0  0  0  0  0  0  0  0  0  0  0  0
   58.9378   32.5810   51.2830 H   0  0  0  0  0  0  0  0  0  0  0  0
   57.8725   31.8813   50.0172 H   0  0  0  0  0  0  0  0  0  0  0  0
   59.6301   31.5109   50.0172 H   0  0  0  0  0  0  0  0  0  0  0  0
   59.7410   35.4439   47.7037 H   0  0  0  0  0  0  0  0  0  0  0  0
   59.4438   35.3770   45.2324 H   0  0  0  0  0  0  0  0  0  0  0  0
   58.7360   34.2076   43.2462 H   0  0  0  0  0  0  0  0  0  0  0  0
   56.5339   32.6817   41.7548 H   0  0  0  0  0  0  0  0  0  0  0  0
   58.2310   33.0772   41.3187 H   0  0  0  0  0  0  0  0  0  0  0  0
   57.6786   31.3679   41.3187 H   0  0  0  0  0  0  0  0  0  0  0  0
   56.7344   30.0269   42.3219 H   0  0  0  0  0  0  0  0  0  0  0  0
   56.4553   27.9012   43.5684 H   0  0  0  0  0  0  0  0  0  0  0  0
   57.1060   26.4437   45.3700 H   0  0  0  0  0  0  0  0  0  0  0  0
   57.1466   24.6894   48.7413 H   0  0  0  0  0  0  0  0  0  0  0  0
   56.5096   25.3318   47.1895 H   0  0  0  0  0  0  0  0  0  0  0  0
   57.6111   23.9129   47.1895 H   0  0  0  0  0  0  0  0  0  0  0  0
   60.4641   28.3843   50.5242 H   0  0  0  0  0  0  0  0  0  0  0  0
   61.7221   28.7670   49.3004 H   0  0  0  0  0  0  0  0  0  0  0  0
   60.1665   29.6651   49.3004 H   0  0  0  0  0  0  0  0  0  0  0  0
   59.9207   30.0796   47.3011 H   0  0  0  0  0  0  0  0  0  0  0  0
   58.3770   31.3503   47.9713 H   0  0  0  0  0  0  0  0  0  0  0  0
  1  2  1  0
  2  3  1  0
  3  4  2  0
  4  5  1  0
  5  6  2  0
  6  7  1  0
  7  8  2  0
  8  9  1  0
  8 10  1  0
 10 11  2  0
 11 12  1  0
 12 13  2  0
 13 14  1  0
 14 15  2  0
 15 16  1  0
 16 17  1  0
 15 18  1  0
 18 19  1  0
 19 20  1  0
 18 21  2  0
 21 22  1  0
 22 23  2  0
 23 24  1  0
 24 25  2  0
 25  3  1  0
 24  6  1  0
 23 10  1  0
 22 13  1  0
  1 26  1  0
  1 27  1  0
  1 28  1  0
  4 29  1  0
  5 30  1  0
  7 31  1  0
  9 32  1  0
  9 33  1  0
  9 34  1  0
 11 35  1  0
 12 36  1  0
 14 37  1  0
 17 38  1  0
 17 39  1  0
 17 40  1  0
 20 41  1  0
 20 42  1  0
 20 43  1  0
 21 44  1  0
 25 45  1  0
M  CHG  1   8   1
M  END
>  <UniqueID>  (4) 
4

>  <SMILES>  (4) 
COc1ccc2c[n+](C)c3ccc4cc(OC)c(OC)cc4c3c2c1

>  <Energy>  (4) 
80.70594337019769

>  <Genealogy>  (4) 
COc1ccc2c[n+](C)c3ccc4cc(OC)c(OC)cc4c3c2c1 (3D coordinates assigned)
COc1ccc2c[n+](C)c3ccc4cc(OC)c(OC)cc4c3c2c1 (optimized conformer: 80.70594337019769 kcal/mol)

>  <smiles>  (4) 
COc1ccc2c[n+](C)c3ccc4cc(OC)c(OC)cc4c3c2c1

>  <score_type>  (4) 
oracle

>  <origin>  (4) 
adg

>  <m_score__min__energy>  (4) 
-5.7400000000000002

>  <m_primary>  (4) 
energy

$$$$
4:0
     RDKit          3D

 47 48  0  0  0  0  0  0  0  0999 V2000
   63.1120   33.4800   47.2340 C   0  0  0  0  0  0  0  0  0  0  0  0
   62.2450   33.8790   48.4230 C   0  0  0  0  0  0  0  0  0  0  0  0
   60.8250   33.6290   48.1430 N   0  0  0  0  0  0  0  0  0  0  0  0
   60.3130   33.7430   46.7950 C   0  0  0  0  0  0  0  0  0  0  0  0
   60.4480   32.7830   45.9900 O   0  0  0  0  0  0  0  0  0  0  0  0
   59.5820   34.9710   46.3240 C   0  0  0  0  0  0  0  0  0  0  0  0
   58.8820   34.6820   45.0660 N   0  0  0  0  0  0  0  0  0  0  0  0
   57.4540   34.3800   45.2630 C   0  0  0  0  0  0  0  0  0  0  0  0
   57.1300   32.8810   45.4970 C   0  0  0  0  0  0  0  0  0  0  0  0
   58.1250   31.9250   44.9350 N   0  0  0  0  0  0  0  0  0  0  0  0
   57.7790   31.4380   43.5800 C   0  0  0  0  0  0  0  0  0  0  0  0
   56.5390   30.5150   43.5970 C   0  0  0  0  0  0  0  0  0  0  0  0
   56.2390   30.0040   44.8850 O   0  0  0  0  0  0  0  0  0  0  0  0
   57.4200   29.5740   45.5260 C   0  0  0  0  0  0  0  0  0  0  0  0
   58.3370   30.7730   45.8510 C   0  0  0  0  0  0  0  0  0  0  0  0
   59.9670   33.2580   49.2330 C   0  0  0  0  0  0  0  0  0  0  0  0
   58.9630   32.2960   49.0490 C   0  0  0  0  0  0  0  0  0  0  0  0
   58.1280   31.9400   50.1120 C   0  0  0  0  0  0  0  0  0  0  0  0
   58.2970   32.5380   51.3650 C   0  0  0  0  0  0  0  0  0  0  0  0
   59.3030   33.4910   51.5560 C   0  0  0  0  0  0  0  0  0  0  0  0
   60.1390   33.8480   50.4940 C   0  0  0  0  0  0  0  0  0  0  0  0
   64.0552   33.0459   47.5973 H   0  0  0  0  0  0  0  0  0  0  0  0
   62.5777   32.7372   46.6235 H   0  0  0  0  0  0  0  0  0  0  0  0
   63.3286   34.3690   46.6235 H   0  0  0  0  0  0  0  0  0  0  0  0
   62.5475   33.2918   49.3026 H   0  0  0  0  0  0  0  0  0  0  0  0
   62.3820   34.9537   48.6131 H   0  0  0  0  0  0  0  0  0  0  0  0
   58.8506   35.2757   47.0871 H   0  0  0  0  0  0  0  0  0  0  0  0
   60.3055   35.7829   46.1585 H   0  0  0  0  0  0  0  0  0  0  0  0
   59.3480   33.8970   44.5600 H   0  0  0  0  0  0  0  0  0  0  0  0
   57.1025   34.9463   46.1381 H   0  0  0  0  0  0  0  0  0  0  0  0
   56.9469   34.6632   44.3289 H   0  0  0  0  0  0  0  0  0  0  0  0
   57.0688   32.7108   46.5820 H   0  0  0  0  0  0  0  0  0  0  0  0
   56.1848   32.6855   44.9693 H   0  0  0  0  0  0  0  0  0  0  0  0
   59.0430   32.4190   44.8710 H   0  0  0  0  0  0  0  0  0  0  0  0
   57.5691   32.3034   42.9342 H   0  0  0  0  0  0  0  0  0  0  0  0
   58.6314   30.8560   43.1996 H   0  0  0  0  0  0  0  0  0  0  0  0
   55.6717   31.0885   43.2380 H   0  0  0  0  0  0  0  0  0  0  0  0
   56.7636   29.6550   42.9490 H   0  0  0  0  0  0  0  0  0  0  0  0
   57.1553   29.0589   46.4612 H   0  0  0  0  0  0  0  0  0  0  0  0
   57.9583   28.8920   44.8514 H   0  0  0  0  0  0  0  0  0  0  0  0
   58.1347   31.1012   46.8812 H   0  0  0  0  0  0  0  0  0  0  0  0
   59.3773   30.4378   45.7266 H   0  0  0  0  0  0  0  0  0  0  0  0
   58.8324   31.8205   48.0657 H   0  0  0  0  0  0  0  0  0  0  0  0
   57.3378   31.1894   49.9630 H   0  0  0  0  0  0  0  0  0  0  0  0
   57.6385   32.2588   52.2007 H   0  0  0  0  0  0  0  0  0  0  0  0
   59.4363   33.9597   52.5422 H   0  0  0  0  0  0  0  0  0  0  0  0
   60.9334   34.5932   50.6475 H   0  0  0  0  0  0  0  0  0  0  0  0
  1  2  1  0
  2  3  1  0
  3  4  1  0
  4  5  2  0
  4  6  1  0
  6  7  1  0
  7  8  1  0
  8  9  1  0
  9 10  1  0
 10 11  1  0
 11 12  1  0
 12 13  1  0
 13 14  1  0
 14 15  1  0
  3 16  1  0
 16 17  2  0
 17 18  1  0
 18 19  2  0
 19 20  1  0
 20 21  2  0
 15 10  1  0
 21 16  1  0
  1 22  1  0
  1 23  1  0
  1 24  1  0
  2 25  1  0
  2 26  1  0
  6 27  1  0
  6 28  1  0
  7 29  1  0
  8 30  1  0
  8 31  1  0
  9 32  1  0
  9 33  1  0
 10 34  1  0
 11 35  1  0
 11 36  1  0
 12 37  1  0
 12 38  1  0
 14 39  1  0
 14 40  1  0
 15 41  1  0
 15 42  1  0
 17 43  1  0
 18 44  1  0
 19 45  1  0
 20 46  1  0
 21 47  1  0
M  CHG  1  10   1
M  END
>  <UniqueID>  (5) 
5

>  <SMILES>  (5) 
CCN(C(=O)CNCC[NH+]1CCOCC1)c1ccccc1

>  <Energy>  (5) 
60.03346273863627

>  <Genealogy>  (5) 
CCN(C(=O)CNCC[NH+]1CCOCC1)c1ccccc1 (protonated)
CCN(C(=O)CNCC[NH+]1CCOCC1)c1ccccc1 (3D coordinates assigned)
CCN(C(=O)CNCC[NH+]1CCOCC1)c1ccccc1 (nonaromatic ring conformer: 60.03346273863627 kcal/mol)

>  <smiles>  (5) 
CCN(C(=O)CNCCN1CCOCC1)c1ccccc1

>  <score_type>  (5) 
oracle

>  <origin>  (5) 
adg

>  <m_score__min__energy>  (5) 
-4.21

>  <m_primary>  (5) 
energy

$$$$
5:0
     RDKit          3D

 43 45  0  0  0  0  0  0  0  0999 V2000
   54.5150   23.8730   45.0180 C   0  0  0  0  0  0  0  0  0  0  0  0
   55.2610   23.9950   46.3480 C   0  0  0  0  0  0  0  0  0  0  0  0
   55.9300   25.2970   46.5010 N   0  0  0  0  0  0  0  0  0  0  0  0
   57.4040   25.2080   46.5800 C   0  0  0  0  0  0  0  0  0  0  0  0
   58.0080   26.3220   47.4900 C   0  0  0  0  0  0  0  0  0  0  0  0
   58.6810   27.4600   46.7070 C   0  0  0  0  0  0  0  0  0  0  0  0
   57.9440   27.7330   45.4660 N   0  0  0  0  0  0  0  0  0  0  0  0
   57.4950   29.0590   45.1310 C   0  0  0  0  0  0  0  0  0  0  0  0
   58.1730   30.1940   45.6000 C   0  0  0  0  0  0  0  0  0  0  0  0
   57.6850   31.4660   45.2630 C   0  0  0  0  0  0  0  0  0  0  0  0
   58.3580   32.7080   45.7240 C   0  0  0  0  0  0  0  0  0  0  0  0
   58.6310   33.7690   44.8370 C   0  0  0  0  0  0  0  0  0  0  0  0
   59.2590   34.9320   45.2940 C   0  0  0  0  0  0  0  0  0  0  0  0
   59.6180   35.0530   46.6380 C   0  0  0  0  0  0  0  0  0  0  0  0
   59.3440   34.0150   47.5300 C   0  0  0  0  0  0  0  0  0  0  0  0
   58.7150   32.8500   47.0800 C   0  0  0  0  0  0  0  0  0  0  0  0
   56.5520   31.5600   44.5150 N   0  0  0  0  0  0  0  0  0  0  0  0
   55.8940   30.4540   44.0830 C   0  0  0  0  0  0  0  0  0  0  0  0
   56.3630   29.2200   44.3930 N   0  0  0  0  0  0  0  0  0  0  0  0
   57.7230   26.6400   44.5080 C   0  0  0  0  0  0  0  0  0  0  0  0
   57.9800   25.2680   45.1530 C   0  0  0  0  0  0  0  0  0  0  0  0
   53.4464   23.6982   45.2117 H   0  0  0  0  0  0  0  0  0  0  0  0
   54.6361   24.8029   44.4430 H   0  0  0  0  0  0  0  0  0  0  0  0
   54.9261   23.0301   44.4430 H   0  0  0  0  0  0  0  0  0  0  0  0
   54.5403   23.8699   47.1696 H   0  0  0  0  0  0  0  0  0  0  0  0
   56.0371   23.2157   46.3689 H   0  0  0  0  0  0  0  0  0  0  0  0
   55.5210   25.8260   47.3070 H   0  0  0  0  0  0  0  0  0  0  0  0
   57.6812   24.2513   47.0468 H   0  0  0  0  0  0  0  0  0  0  0  0
   57.1982   26.7505   48.0987 H   0  0  0  0  0  0  0  0  0  0  0  0
   58.7881   25.8484   48.1041 H   0  0  0  0  0  0  0  0  0  0  0  0
   58.6950   28.3681   47.3275 H   0  0  0  0  0  0  0  0  0  0  0  0
   59.7084   27.1598   46.4533 H   0  0  0  0  0  0  0  0  0  0  0  0
   59.0737   30.0886   46.2226 H   0  0  0  0  0  0  0  0  0  0  0  0
   58.3480   33.6816   43.7776 H   0  0  0  0  0  0  0  0  0  0  0  0
   59.4706   35.7531   44.5933 H   0  0  0  0  0  0  0  0  0  0  0  0
   60.1168   35.9665   46.9938 H   0  0  0  0  0  0  0  0  0  0  0  0
   59.6235   34.1136   48.5893 H   0  0  0  0  0  0  0  0  0  0  0  0
   58.4972   32.0383   47.7897 H   0  0  0  0  0  0  0  0  0  0  0  0
   54.9794   30.5589   43.4809 H   0  0  0  0  0  0  0  0  0  0  0  0
   56.6824   26.6796   44.1537 H   0  0  0  0  0  0  0  0  0  0  0  0
   58.4255   26.7660   43.6709 H   0  0  0  0  0  0  0  0  0  0  0  0
   57.5035   24.4884   44.5405 H   0  0  0  0  0  0  0  0  0  0  0  0
   59.0667   25.1067   45.2085 H   0  0  0  0  0  0  0  0  0  0  0  0
  1  2  1  0
  2  3  1  0
  3  4  1  0
  4  5  1  0
  5  6  1  0
  6  7  1  0
  7  8  1  0
  8  9  2  0
  9 10  1  0
 10 11  1  0
 11 12  2  0
 12 13  1  0
 13 14  2  0
 14 15  1  0
 15 16  2  0
 10 17  2  0
 17 18  1  0
 18 19  2  0
  7 20  1  0
 20 21  1  0
 21  4  1  0
 19  8  1  0
 16 11  1  0
  1 22  1  0
  1 23  1  0
  1 24  1  0
  2 25  1  0
  2 26  1  0
  3 27  1  0
  4 28  1  0
  5 29  1  0
  5 30  1  0
  6 31  1  0
  6 32  1  0
  9 33  1  0
 12 34  1  0
 13 35  1  0
 14 36  1  0
 15 37  1  0
 16 38  1  0
 18 39  1  0
 20 40  1  0
 20 41  1  0
 21 42  1  0
 21 43  1  0
M  END
>  <UniqueID>  (6) 
6

>  <SMILES>  (6) 
CCNC1CCN(c2cc(-c3ccccc3)ncn2)CC1

>  <Energy>  (6) 
55.090238763276595

>  <Genealogy>  (6) 
CCNC1CCN(c2cc(-c3ccccc3)ncn2)CC1 (3D coordinates assigned)
CCNC1CCN(c2cc(-c3ccccc3)ncn2)CC1 (nonaromatic ring conformer: 55.090238763276595 kcal/mol)

>  <smiles>  (6) 
CCNC1CCN(c2cc(-c3ccccc3)ncn2)CC1

>  <score_type>  (6) 
oracle

>  <origin>  (6) 
adg

>  <m_score__min__energy>  (6) 
-7.8499999999999996

>  <m_primary>  (6) 
energy

$$$$
6:0
     RDKit          3D

 58 62  0  0  0  0  0  0  0  0999 V2000
   63.2030   31.2030   50.4420 C   0  0  0  0  0  0  0  0  0  0  0  0
   62.2310   32.3690   50.6830 C   0  0  0  0  0  0  0  0  0  0  0  0
   61.5310   32.8420   49.4610 N   0  0  1  0  0  0  0  0  0  0  0  0
   60.4900   33.8360   49.7930 C   0  0  0  0  0  0  0  0  0  0  0  0
   62.4810   33.3560   48.4330 C   0  0  0  0  0  0  0  0  0  0  0  0
   62.4720   32.5280   47.1330 C   0  0  0  0  0  0  0  0  0  0  0  0
   61.1170   32.1340   46.7470 N   0  0  0  0  0  0  0  0  0  0  0  0
   60.6310   30.8700   46.7390 C   0  0  0  0  0  0  0  0  0  0  0  0
   59.2980   30.8680   46.3470 C   0  0  0  0  0  0  0  0  0  0  0  0
   58.4350   29.6790   46.2280 C   0  0  0  0  0  0  0  0  0  0  0  0
   58.4370   28.5960   47.0080 C   0  0  0  0  0  0  0  0  0  0  0  0
   59.2210   28.4000   48.2430 C   0  0  0  0  0  0  0  0  0  0  0  0
   60.0060   27.2940   48.5610 C   0  0  0  0  0  0  0  0  0  0  0  0
   60.5560   27.4490   49.7870 N   0  0  0  0  0  0  0  0  0  0  0  0
   61.3830   26.4720   50.4880 C   0  0  0  0  0  0  0  0  0  0  0  0
   60.1170   28.6330   50.2570 C   0  0  0  0  0  0  0  0  0  0  0  0
   60.3700   29.2090   51.5050 C   0  0  0  0  0  0  0  0  0  0  0  0
   59.7610   30.4420   51.7980 C   0  0  0  0  0  0  0  0  0  0  0  0
   58.9130   31.0630   50.8570 C   0  0  0  0  0  0  0  0  0  0  0  0
   58.6680   30.4590   49.6110 C   0  0  0  0  0  0  0  0  0  0  0  0
   59.3020   29.2460   49.3360 C   0  0  0  0  0  0  0  0  0  0  0  0
   57.3900   27.7030   46.5100 C   0  0  0  0  0  0  0  0  0  0  0  0
   57.0630   26.6080   47.0390 O   0  0  0  0  0  0  0  0  0  0  0  0
   56.7200   28.2470   45.3790 N   0  0  0  0  0  0  0  0  0  0  0  0
   57.3890   29.4920   45.2250 C   0  0  0  0  0  0  0  0  0  0  0  0
   57.1050   30.3170   44.3160 O   0  0  0  0  0  0  0  0  0  0  0  0
   58.9670   32.1950   46.1280 C   0  0  0  0  0  0  0  0  0  0  0  0
   57.7540   32.8000   45.7900 C   0  0  0  0  0  0  0  0  0  0  0  0
   57.7310   34.1980   45.6540 C   0  0  0  0  0  0  0  0  0  0  0  0
   58.8980   34.9580   45.8750 C   0  0  0  0  0  0  0  0  0  0  0  0
   60.1000   34.3270   46.2450 C   0  0  0  0  0  0  0  0  0  0  0  0
   60.0990   32.9350   46.3700 C   0  0  0  0  0  0  0  0  0  0  0  0
   63.5390   30.7999   51.4088 H   0  0  0  0  0  0  0  0  0  0  0  0
   62.6929   30.4122   49.8724 H   0  0  0  0  0  0  0  0  0  0  0  0
   64.0727   31.5624   49.8724 H   0  0  0  0  0  0  0  0  0  0  0  0
   61.4729   32.0414   51.4096 H   0  0  0  0  0  0  0  0  0  0  0  0
   62.8348   33.2131   51.0476 H   0  0  0  0  0  0  0  0  0  0  0  0
   61.0340   32.0030   49.0790 H   0  0  0  0  0  0  0  0  0  0  0  0
   60.4002   33.9218   50.8860 H   0  0  0  0  0  0  0  0  0  0  0  0
   60.7676   34.8128   49.3701 H   0  0  0  0  0  0  0  0  0  0  0  0
   59.5271   33.5136   49.3701 H   0  0  0  0  0  0  0  0  0  0  0  0
   62.2059   34.3928   48.1895 H   0  0  0  0  0  0  0  0  0  0  0  0
   63.4931   33.2872   48.8584 H   0  0  0  0  0  0  0  0  0  0  0  0
   62.9111   33.1307   46.3244 H   0  0  0  0  0  0  0  0  0  0  0  0
   63.0567   31.6127   47.3075 H   0  0  0  0  0  0  0  0  0  0  0  0
   61.2091   29.9728   47.0049 H   0  0  0  0  0  0  0  0  0  0  0  0
   60.1568   26.4208   47.9093 H   0  0  0  0  0  0  0  0  0  0  0  0
   61.2689   26.6068   51.5737 H   0  0  0  0  0  0  0  0  0  0  0  0
   61.0662   25.4561   50.2093 H   0  0  0  0  0  0  0  0  0  0  0  0
   62.4372   26.6167   50.2093 H   0  0  0  0  0  0  0  0  0  0  0  0
   61.0256   28.7129   52.2358 H   0  0  0  0  0  0  0  0  0  0  0  0
   59.9472   30.9260   52.7681 H   0  0  0  0  0  0  0  0  0  0  0  0
   58.4403   32.0262   51.0996 H   0  0  0  0  0  0  0  0  0  0  0  0
   57.9975   30.9278   48.8757 H   0  0  0  0  0  0  0  0  0  0  0  0
   56.8450   32.2002   45.6351 H   0  0  0  0  0  0  0  0  0  0  0  0
   56.7954   34.7037   45.3729 H   0  0  0  0  0  0  0  0  0  0  0  0
   58.8685   36.0513   45.7574 H   0  0  0  0  0  0  0  0  0  0  0  0
   61.0131   34.9118   46.4303 H   0  0  0  0  0  0  0  0  0  0  0  0
  1  2  1  0
  2  3  1  0
  3  4  1  0
  3  5  1  0
  5  6  1  0
  6  7  1  0
  7  8  1  0
  8  9  2  0
  9 10  1  0
 10 11  2  0
 11 12  1  0
 12 13  2  0
 13 14  1  0
 14 15  1  0
 14 16  1  0
 16 17  2  0
 17 18  1  0
 18 19  2  0
 19 20  1  0
 20 21  2  0
 11 22  1  0
 22 23  2  0
 22 24  1  0
 24 25  1  0
 25 26  2  0
  9 27  1  0
 27 28  2  0
 28 29  1  0
 29 30  2  0
 30 31  1  0
 31 32  2  0
 32  7  1  0
 25 10  1  0
 32 27  1  0
 21 12  1  0
 21 16  1  0
  1 33  1  0
  1 34  1  0
  1 35  1  0
  2 36  1  0
  2 37  1  0
  3 38  1  6
  4 39  1  0
  4 40  1  0
  4 41  1  0
  5 42  1  0
  5 43  1  0
  6 44  1  0
  6 45  1  0
  8 46  1  0
 13 47  1  0
 15 48  1  0
 15 49  1  0
 15 50  1  0
 17 51  1  0
 18 52  1  0
 19 53  1  0
 20 54  1  0
 28 55  1  0
 29 56  1  0
 30 57  1  0
 31 58  1  0
M  CHG  2   3   1  24  -1
M  END
>  <UniqueID>  (7) 
7

>  <SMILES>  (7) 
CC[N@@H+](C)CCn1cc(C2=C(c3cn(C)c4ccccc34)C(=O)[N-]C2=O)c2ccccc21

>  <Energy>  (7) 
163.38387255178813

>  <Genealogy>  (7) 
CC[NH+](C)CCn1cc(C2=C(c3cn(C)c4ccccc34)C(=O)[N-]C2=O)c2ccccc21 (protonated)
CC[N@@H+](C)CCn1cc(C2=C(c3cn(C)c4ccccc34)C(=O)[N-]C2=O)c2ccccc21 (chirality)
CC[N@@H+](C)CCn1cc(C2=C(c3cn(C)c4ccccc34)C(=O)[N-]C2=O)c2ccccc21 (3D coordinates assigned)
CC[N@@H+](C)CCn1cc(C2=C(c3cn(C)c4ccccc34)C(=O)[N-]C2=O)c2ccccc21 (nonaromatic ring conformer: 163.38387255178813 kcal/mol)

>  <smiles>  (7) 
CCN(C)CCn1cc(C2=C(c3cn(C)c4ccccc34)C(=O)NC2=O)c2ccccc21

>  <score_type>  (7) 
oracle

>  <origin>  (7) 
adg

>  <m_score__min__energy>  (7) 
-8.9499999999999993

>  <m_primary>  (7) 
energy

$$$$
7:0
     RDKit          3D

 55 56  0  0  0  0  0  0  0  0999 V2000
   59.6720   35.3510   46.5190 C   0  0  0  0  0  0  0  0  0  0  0  0
   59.3860   34.6430   45.1960 C   0  0  0  0  0  0  0  0  0  0  0  0
   58.0040   33.9800   45.1720 C   0  0  0  0  0  0  0  0  0  0  0  0
   57.4400   33.4390   46.8310 S   0  0  0  0  0  0  0  0  0  0  0  0
   58.5750   32.0300   46.9610 C   0  0  0  0  0  0  0  0  0  0  0  0
   59.5360   32.0020   47.9920 C   0  0  0  0  0  0  0  0  0  0  0  0
   59.5750   33.0630   48.9780 C   0  0  0  0  0  0  0  0  0  0  0  0
   59.6030   33.9120   49.7640 N   0  0  0  0  0  0  0  0  0  0  0  0
   60.4690   30.9460   48.0530 C   0  0  0  0  0  0  0  0  0  0  0  0
   61.4950   30.9400   49.0700 N   0  0  0  0  0  0  0  0  0  0  0  0
   61.5290   29.9970   50.1890 C   0  0  0  0  0  0  0  0  0  0  0  0
   62.5420   30.4300   51.2540 C   0  0  0  0  0  0  0  0  0  0  0  0
   62.9840   31.7520   50.9990 O   0  0  0  0  0  0  0  0  0  0  0  0
   64.3670   31.7710   50.7010 C   0  0  0  0  0  0  0  0  0  0  0  0
   64.6260   32.6150   49.4400 C   0  0  0  0  0  0  0  0  0  0  0  0
   63.4310   32.8850   48.6010 N   0  0  0  0  0  0  0  0  0  0  0  0
   62.7950   34.1700   48.9290 C   0  0  0  0  0  0  0  0  0  0  0  0
   63.6460   32.7650   47.1420 C   0  0  0  0  0  0  0  0  0  0  0  0
   63.0160   33.9210   46.3630 C   0  0  0  0  0  0  0  0  0  0  0  0
   60.4010   29.9350   47.1380 N   0  0  0  0  0  0  0  0  0  0  0  0
   59.4490   29.9010   46.1650 C   0  0  0  0  0  0  0  0  0  0  0  0
   59.4000   28.8200   45.2700 C   0  0  0  0  0  0  0  0  0  0  0  0
   58.4250   28.7700   44.2740 C   0  0  0  0  0  0  0  0  0  0  0  0
   57.4900   29.7980   44.1580 C   0  0  0  0  0  0  0  0  0  0  0  0
   56.2610   29.7260   42.9080 Cl  0  0  0  0  0  0  0  0  0  0  0  0
   57.5260   30.8830   45.0400 C   0  0  0  0  0  0  0  0  0  0  0  0
   58.5050   30.9500   46.0530 C   0  0  0  0  0  0  0  0  0  0  0  0
   59.4042   34.6881   47.3550 H   0  0  0  0  0  0  0  0  0  0  0  0
   60.7416   35.6010   46.5774 H   0  0  0  0  0  0  0  0  0  0  0  0
   59.0761   36.2738   46.5774 H   0  0  0  0  0  0  0  0  0  0  0  0
   59.4372   35.3815   44.3824 H   0  0  0  0  0  0  0  0  0  0  0  0
   60.1390   33.8509   45.0711 H   0  0  0  0  0  0  0  0  0  0  0  0
   57.2761   34.7013   44.7723 H   0  0  0  0  0  0  0  0  0  0  0  0
   58.0808   33.0819   44.5415 H   0  0  0  0  0  0  0  0  0  0  0  0
   62.3040   31.5980   48.9840 H   0  0  0  0  0  0  0  0  0  0  0  0
   60.5293   29.9467   50.6453 H   0  0  0  0  0  0  0  0  0  0  0  0
   61.8317   29.0124   49.8031 H   0  0  0  0  0  0  0  0  0  0  0  0
   62.0667   30.3905   52.2452 H   0  0  0  0  0  0  0  0  0  0  0  0
   63.4064   29.7503   51.2251 H   0  0  0  0  0  0  0  0  0  0  0  0
   64.9158   32.2065   51.5491 H   0  0  0  0  0  0  0  0  0  0  0  0
   64.7103   30.7415   50.5214 H   0  0  0  0  0  0  0  0  0  0  0  0
   65.0436   33.5817   49.7579 H   0  0  0  0  0  0  0  0  0  0  0  0
   65.3104   32.0241   48.8136 H   0  0  0  0  0  0  0  0  0  0  0  0
   62.7390   34.2831   50.0217 H   0  0  0  0  0  0  0  0  0  0  0  0
   63.3901   34.9924   48.5053 H   0  0  0  0  0  0  0  0  0  0  0  0
   61.7802   34.1956   48.5053 H   0  0  0  0  0  0  0  0  0  0  0  0
   64.7280   32.7537   46.9441 H   0  0  0  0  0  0  0  0  0  0  0  0
   63.1655   31.8337   46.8075 H   0  0  0  0  0  0  0  0  0  0  0  0
   62.6123   34.6618   47.0688 H   0  0  0  0  0  0  0  0  0  0  0  0
   63.7800   34.3960   45.7300 H   0  0  0  0  0  0  0  0  0  0  0  0
   62.2027   33.5364   45.7300 H   0  0  0  0  0  0  0  0  0  0  0  0
   61.0800   29.1450   47.1980 H   0  0  0  0  0  0  0  0  0  0  0  0
   60.1359   28.0068   45.3551 H   0  0  0  0  0  0  0  0  0  0  0  0
   58.3935   27.9182   43.5787 H   0  0  0  0  0  0  0  0  0  0  0  0
   56.7851   31.6902   44.9428 H   0  0  0  0  0  0  0  0  0  0  0  0
  1  2  1  0
  2  3  1  0
  3  4  1  0
  4  5  1  0
  5  6  2  0
  6  7  1  0
  7  8  3  0
  6  9  1  0
  9 10  1  0
 10 11  1  0
 11 12  1  0
 12 13  1  0
 13 14  1  0
 14 15  1  0
 15 16  1  0
 16 17  1  0
 16 18  1  0
 18 19  1  0
  9 20  2  0
 20 21  1  0
 21 22  2  0
 22 23  1  0
 23 24  2  0
 24 25  1  0
 24 26  1  0
 26 27  2  0
 27  5  1  0
 27 21  1  0
  1 28  1  0
  1 29  1  0
  1 30  1  0
  2 31  1  0
  2 32  1  0
  3 33  1  0
  3 34  1  0
 10 35  1  0
 11 36  1  0
 11 37  1  0
 12 38  1  0
 12 39  1  0
 14 40  1  0
 14 41  1  0
 15 42  1  0
 15 43  1  0
 17 44  1  0
 17 45  1  0
 17 46  1  0
 18 47  1  0
 18 48  1  0
 19 49  1  0
 19 50  1  0
 19 51  1  0
 20 52  1  0
 22 53  1  0
 23 54  1  0
 26 55  1  0
M  CHG  1  20   1
M  END
>  <UniqueID>  (8) 
8

>  <SMILES>  (8) 
CCCSc1c(C#N)c(NCCOCCN(C)CC)[nH+]c2ccc(Cl)cc12

>  <Energy>  (8) 
53.902631835206755

>  <Genealogy>  (8) 
CCCSc1c(C#N)c(NCCOCCN(C)CC)[nH+]c2ccc(Cl)cc12 (protonated)
CCCSc1c(C#N)c(NCCOCCN(C)CC)[nH+]c2ccc(Cl)cc12 (3D coordinates assigned)
CCCSc1c(C#N)c(NCCOCCN(C)CC)[nH+]c2ccc(Cl)cc12 (optimized conformer: 53.902631835206755 kcal/mol)

>  <smiles>  (8) 
CCCSc1c(C#N)c(NCCOCCN(C)CC)nc2ccc(Cl)cc12

>  <score_type>  (8) 
oracle

>  <origin>  (8) 
adg

>  <m_score__min__energy>  (8) 
-5.0199999999999996

>  <m_primary>  (8) 
energy

$$$$
8:0
     RDKit          3D

 49 50  0  0  0  0  0  0  0  0999 V2000
   63.5720   33.8360   49.8310 C   0  0  0  0  0  0  0  0  0  0  0  0
   64.2320   32.6730   49.0860 C   0  0  0  0  0  0  0  0  0  0  0  0
   63.7570   32.5110   47.6950 N   0  0  0  0  0  0  0  0  0  0  0  0
   62.8050   31.3900   47.4890 C   0  0  0  0  0  0  0  0  0  0  0  0
   61.8500   31.1210   48.6600 C   0  0  0  0  0  0  0  0  0  0  0  0
   63.4480   33.7860   47.0100 C   0  0  0  0  0  0  0  0  0  0  0  0
   61.9540   33.8960   46.7070 C   0  0  0  0  0  0  0  0  0  0  0  0
   61.2500   34.1950   47.9070 O   0  0  0  0  0  0  0  0  0  0  0  0
   59.8700   34.0070   48.0430 C   0  0  0  0  0  0  0  0  0  0  0  0
   59.3260   34.1270   49.1760 O   0  0  0  0  0  0  0  0  0  0  0  0
   59.0530   33.6680   46.8580 C   0  0  0  0  0  0  0  0  0  0  0  0
   58.6900   34.6690   45.9410 C   0  0  0  0  0  0  0  0  0  0  0  0
   57.9260   34.3540   44.8170 C   0  0  0  0  0  0  0  0  0  0  0  0
   57.5100   33.0400   44.5950 C   0  0  0  0  0  0  0  0  0  0  0  0
   57.8490   32.0210   45.5030 C   0  0  0  0  0  0  0  0  0  0  0  0
   57.4040   30.6280   45.2580 C   0  0  0  0  0  0  0  0  0  0  0  0
   56.2800   30.4200   44.7230 O   0  0  0  0  0  0  0  0  0  0  0  0
   58.2130   29.5120   45.6690 N   0  0  0  0  0  0  0  0  0  0  0  0
   58.0710   28.1830   45.1380 C   0  0  0  0  0  0  0  0  0  0  0  0
   58.2480   27.9690   43.7610 C   0  0  0  0  0  0  0  0  0  0  0  0
   58.0960   26.6890   43.2190 C   0  0  0  0  0  0  0  0  0  0  0  0
   57.7530   25.6150   44.0440 C   0  0  0  0  0  0  0  0  0  0  0  0
   57.5530   25.8210   45.4120 C   0  0  0  0  0  0  0  0  0  0  0  0
   57.7050   27.0990   45.9580 C   0  0  0  0  0  0  0  0  0  0  0  0
   58.6310   32.3440   46.6290 C   0  0  0  0  0  0  0  0  0  0  0  0
   63.6630   33.6756   50.9154 H   0  0  0  0  0  0  0  0  0  0  0  0
   64.0705   34.7774   49.5565 H   0  0  0  0  0  0  0  0  0  0  0  0
   62.5082   33.8908   49.5565 H   0  0  0  0  0  0  0  0  0  0  0  0
   65.3180   32.8466   49.0640 H   0  0  0  0  0  0  0  0  0  0  0  0
   63.9645   31.7527   49.6259 H   0  0  0  0  0  0  0  0  0  0  0  0
   62.1982   31.6177   46.6002 H   0  0  0  0  0  0  0  0  0  0  0  0
   63.4189   30.4837   47.3810 H   0  0  0  0  0  0  0  0  0  0  0  0
   62.3835   31.2713   49.6102 H   0  0  0  0  0  0  0  0  0  0  0  0
   60.9975   31.8140   48.6045 H   0  0  0  0  0  0  0  0  0  0  0  0
   61.4845   30.0850   48.6045 H   0  0  0  0  0  0  0  0  0  0  0  0
   63.7466   34.6238   47.6572 H   0  0  0  0  0  0  0  0  0  0  0  0
   64.0018   33.8170   46.0601 H   0  0  0  0  0  0  0  0  0  0  0  0
   61.7863   34.6982   45.9733 H   0  0  0  0  0  0  0  0  0  0  0  0
   61.5910   32.9427   46.2954 H   0  0  0  0  0  0  0  0  0  0  0  0
   59.0103   35.7076   46.1105 H   0  0  0  0  0  0  0  0  0  0  0  0
   57.6503   35.1440   44.1029 H   0  0  0  0  0  0  0  0  0  0  0  0
   56.9126   32.7999   43.7031 H   0  0  0  0  0  0  0  0  0  0  0  0
   58.8600   29.6470   46.4790 H   0  0  0  0  0  0  0  0  0  0  0  0
   58.5077   28.8132   43.1053 H   0  0  0  0  0  0  0  0  0  0  0  0
   58.2467   26.5275   42.1414 H   0  0  0  0  0  0  0  0  0  0  0  0
   57.6403   24.6075   43.6171 H   0  0  0  0  0  0  0  0  0  0  0  0
   57.2756   24.9764   46.0598 H   0  0  0  0  0  0  0  0  0  0  0  0
   57.5378   27.2582   47.0335 H   0  0  0  0  0  0  0  0  0  0  0  0
   58.9156   31.5526   47.3381 H   0  0  0  0  0  0  0  0  0  0  0  0
  1  2  1  0
  2  3  1  0
  3  4  1  0
  4  5  1  0
  3  6  1  0
  6  7  1  0
  7  8  1  0
  8  9  1  0
  9 10  2  0
  9 11  1  0
 11 12  2  0
 12 13  1  0
 13 14  2  0
 14 15  1  0
 15 16  1  0
 16 17  2  0
 16 18  1  0
 18 19  1  0
 19 20  2  0
 20 21  1  0
 21 22  2  0
 22 23  1  0
 23 24  2  0
 15 25  2  0
 25 11  1  0
 24 19  1  0
  1 26  1  0
  1 27  1  0
  1 28  1  0
  2 29  1  0
  2 30  1  0
  4 31  1  0
  4 32  1  0
  5 33  1  0
  5 34  1  0
  5 35  1  0
  6 36  1  0
  6 37  1  0
  7 38  1  0
  7 39  1  0
 12 40  1  0
 13 41  1  0
 14 42  1  0
 18 43  1  0
 20 44  1  0
 21 45  1  0
 22 46  1  0
 23 47  1  0
 24 48  1  0
 25 49  1  0
M  END
>  <UniqueID>  (9) 
9

>  <SMILES>  (9) 
CCN(CC)CCOC(=O)c1cccc(C(=O)Nc2ccccc2)c1

>  <Energy>  (9) 
57.18358908121042

>  <Genealogy>  (9) 
CCN(CC)CCOC(=O)c1cccc(C(=O)Nc2ccccc2)c1 (3D coordinates assigned)
CCN(CC)CCOC(=O)c1cccc(C(=O)Nc2ccccc2)c1 (optimized conformer: 57.18358908121042 kcal/mol)

>  <smiles>  (9) 
CCN(CC)CCOC(=O)c1cccc(C(=O)Nc2ccccc2)c1

>  <score_type>  (9) 
oracle

>  <origin>  (9) 
adg

>  <m_score__min__energy>  (9) 
-7.4800000000000004

>  <m_primary>  (9) 
energy

$$$$
9:0
     RDKit          3D

 54 56  0  0  0  0  0  0  0  0999 V2000
   54.3190   24.6740   45.6120 C   0  0  0  0  0  0  0  0  0  0  0  0
   54.8040   26.0000   45.8190 O   0  0  0  0  0  0  0  0  0  0  0  0
   56.1230   26.3340   46.1660 C   0  0  0  0  0  0  0  0  0  0  0  0
   56.9450   25.4030   46.8260 C   0  0  0  0  0  0  0  0  0  0  0  0
   58.2360   25.7410   47.2100 C   0  0  0  0  0  0  0  0  0  0  0  0
   58.7490   27.0170   46.9560 C   0  0  0  0  0  0  0  0  0  0  0  0
   60.1430   27.3770   47.4660 C   0  0  0  0  0  0  0  0  0  0  0  0
   60.1620   28.4120   48.5420 N   0  0  1  0  0  0  0  0  0  0  0  0
   60.7110   27.9140   49.8180 C   0  0  0  0  0  0  0  0  0  0  0  0
   60.8620   29.6550   48.1250 C   0  0  0  0  0  0  0  0  0  0  0  0
   59.9210   30.8340   48.0880 C   0  0  0  0  0  0  0  0  0  0  0  0
   58.9230   30.8350   48.8570 O   0  0  0  0  0  0  0  0  0  0  0  0
   60.1610   31.9620   47.2260 N   0  0  0  0  0  0  0  0  0  0  0  0
   61.3350   32.8340   47.3270 C   0  0  0  0  0  0  0  0  0  0  0  0
   60.9750   34.1420   46.5810 C   0  0  0  0  0  0  0  0  0  0  0  0
   59.6040   33.8780   46.0700 C   0  0  0  0  0  0  0  0  0  0  0  0
   58.8120   34.7060   45.2720 C   0  0  0  0  0  0  0  0  0  0  0  0
   57.5480   34.2420   44.8700 C   0  0  0  0  0  0  0  0  0  0  0  0
   57.1050   32.9640   45.2650 C   0  0  0  0  0  0  0  0  0  0  0  0
   57.9250   32.1440   46.0620 C   0  0  0  0  0  0  0  0  0  0  0  0
   59.1730   32.6380   46.4620 C   0  0  0  0  0  0  0  0  0  0  0  0
   57.9730   27.9510   46.2310 C   0  0  0  0  0  0  0  0  0  0  0  0
   58.5820   29.1870   45.9200 O   0  0  0  0  0  0  0  0  0  0  0  0
   59.5140   29.4540   44.8750 C   0  0  0  0  0  0  0  0  0  0  0  0
   56.6400   27.6210   45.8510 C   0  0  0  0  0  0  0  0  0  0  0  0
   55.8760   28.5990   45.1850 O   0  0  0  0  0  0  0  0  0  0  0  0
   56.2770   29.4150   44.0900 C   0  0  0  0  0  0  0  0  0  0  0  0
   54.1427   24.1920   46.5849 H   0  0  0  0  0  0  0  0  0  0  0  0
   53.3767   24.7124   45.0457 H   0  0  0  0  0  0  0  0  0  0  0  0
   55.0637   24.0954   45.0457 H   0  0  0  0  0  0  0  0  0  0  0  0
   56.5606   24.3949   47.0406 H   0  0  0  0  0  0  0  0  0  0  0  0
   58.8633   24.9954   47.7206 H   0  0  0  0  0  0  0  0  0  0  0  0
   60.6108   26.4630   47.8606 H   0  0  0  0  0  0  0  0  0  0  0  0
   60.6872   27.8052   46.6113 H   0  0  0  0  0  0  0  0  0  0  0  0
   59.1640   28.6550   48.7480 H   0  0  0  0  0  0  0  0  0  0  0  0
   60.1832   28.3928   50.6560 H   0  0  0  0  0  0  0  0  0  0  0  0
   60.5761   26.8238   49.8746 H   0  0  0  0  0  0  0  0  0  0  0  0
   61.7830   28.1542   49.8746 H   0  0  0  0  0  0  0  0  0  0  0  0
   61.6715   29.8661   48.8393 H   0  0  0  0  0  0  0  0  0  0  0  0
   61.2632   29.5019   47.1123 H   0  0  0  0  0  0  0  0  0  0  0  0
   61.5602   33.0478   48.3823 H   0  0  0  0  0  0  0  0  0  0  0  0
   62.2241   32.3573   46.8886 H   0  0  0  0  0  0  0  0  0  0  0  0
   60.9810   35.0015   47.2674 H   0  0  0  0  0  0  0  0  0  0  0  0
   61.6903   34.3940   45.7842 H   0  0  0  0  0  0  0  0  0  0  0  0
   59.1697   35.6998   44.9647 H   0  0  0  0  0  0  0  0  0  0  0  0
   56.9030   34.8778   44.2457 H   0  0  0  0  0  0  0  0  0  0  0  0
   56.1141   32.6059   44.9490 H   0  0  0  0  0  0  0  0  0  0  0  0
   57.5939   31.1393   46.3636 H   0  0  0  0  0  0  0  0  0  0  0  0
   60.4846   29.7321   45.3116 H   0  0  0  0  0  0  0  0  0  0  0  0
   59.6356   28.5546   44.2535 H   0  0  0  0  0  0  0  0  0  0  0  0
   59.1409   30.2814   44.2535 H   0  0  0  0  0  0  0  0  0  0  0  0
   56.7322   30.3413   44.4704 H   0  0  0  0  0  0  0  0  0  0  0  0
   57.0104   28.8711   43.4766 H   0  0  0  0  0  0  0  0  0  0  0  0
   55.3983   29.6633   43.4766 H   0  0  0  0  0  0  0  0  0  0  0  0
  1  2  1  0
  2  3  1  0
  3  4  2  0
  4  5  1  0
  5  6  2  0
  6  7  1  0
  7  8  1  0
  8  9  1  0
  8 10  1  0
 10 11  1  0
 11 12  2  0
 11 13  1  0
 13 14  1  0
 14 15  1  0
 15 16  1  0
 16 17  2  0
 17 18  1  0
 18 19  2  0
 19 20  1  0
 20 21  2  0
  6 22  1  0
 22 23  1  0
 23 24  1  0
 22 25  2  0
 25 26  1  0
 26 27  1  0
 25  3  1  0
 21 13  1  0
 21 16  1  0
  1 28  1  0
  1 29  1  0
  1 30  1  0
  4 31  1  0
  5 32  1  0
  7 33  1  0
  7 34  1  0
  8 35  1  1
  9 36  1  0
  9 37  1  0
  9 38  1  0
 10 39  1  0
 10 40  1  0
 14 41  1  0
 14 42  1  0
 15 43  1  0
 15 44  1  0
 17 45  1  0
 18 46  1  0
 19 47  1  0
 20 48  1  0
 24 49  1  0
 24 50  1  0
 24 51  1  0
 27 52  1  0
 27 53  1  0
 27 54  1  0
M  CHG  1   8   1
M  END
>  <UniqueID>  (10) 
10

>  <SMILES>  (10) 
COc1ccc(C[N@@H+](C)CC(=O)N2CCc3ccccc32)c(OC)c1OC

>  <Energy>  (10) 
84.39369100354865

>  <Genealogy>  (10) 
COc1ccc(C[NH+](C)CC(=O)N2CCc3ccccc32)c(OC)c1OC (protonated)
COc1ccc(C[N@@H+](C)CC(=O)N2CCc3ccccc32)c(OC)c1OC (chirality)
COc1ccc(C[N@@H+](C)CC(=O)N2CCc3ccccc32)c(OC)c1OC (3D coordinates assigned)
COc1ccc(C[N@@H+](C)CC(=O)N2CCc3ccccc32)c(OC)c1OC (nonaromatic ring conformer: 84.39369100354865 kcal/mol)

>  <smiles>  (10) 
COc1ccc(CN(C)CC(=O)N2CCc3ccccc32)c(OC)c1OC

>  <score_type>  (10) 
oracle

>  <origin>  (10) 
adg

>  <m_score__min__energy>  (10) 
-6.1900000000000004

>  <m_primary>  (10) 
energy

$$$$
10:0
     RDKit          3D

 43 45  0  0  0  0  0  0  0  0999 V2000
   61.6900   33.7830   46.6080 C   0  0  0  0  0  0  0  0  0  0  0  0
   61.1870   33.8300   48.0480 C   0  0  0  0  0  0  0  0  0  0  0  0
   59.9370   33.0650   48.1880 N   0  0  0  0  0  0  0  0  0  0  0  0
   59.3400   32.8540   49.4880 C   0  0  0  0  0  0  0  0  0  0  0  0
   59.5840   33.7650   50.5330 C   0  0  0  0  0  0  0  0  0  0  0  0
   59.0160   33.5660   51.7950 C   0  0  0  0  0  0  0  0  0  0  0  0
   58.2000   32.4580   52.0300 C   0  0  0  0  0  0  0  0  0  0  0  0
   57.9510   31.5450   51.0030 C   0  0  0  0  0  0  0  0  0  0  0  0
   57.1630   30.4670   51.2340 F   0  0  0  0  0  0  0  0  0  0  0  0
   58.5160   31.7390   49.7380 C   0  0  0  0  0  0  0  0  0  0  0  0
   59.2600   32.5860   47.0080 C   0  0  0  0  0  0  0  0  0  0  0  0
   58.2040   33.3250   46.4570 C   0  0  0  0  0  0  0  0  0  0  0  0
   57.5370   32.8680   45.3210 C   0  0  0  0  0  0  0  0  0  0  0  0
   57.9060   31.6570   44.7110 C   0  0  0  0  0  0  0  0  0  0  0  0
   58.9830   30.9170   45.2500 C   0  0  0  0  0  0  0  0  0  0  0  0
   59.6410   31.3800   46.4020 C   0  0  0  0  0  0  0  0  0  0  0  0
   59.3790   29.5980   44.6430 C   0  0  0  0  0  0  0  0  0  0  0  0
   58.2210   28.5840   44.7000 C   0  0  0  0  0  0  0  0  0  0  0  0
   57.3060   28.6540   43.5430 N   0  0  0  0  0  0  0  0  0  0  0  0
   56.4250   29.8380   43.5660 C   0  0  0  0  0  0  0  0  0  0  0  0
   57.1720   31.1990   43.4640 C   0  0  0  0  0  0  0  0  0  0  0  0
   62.7852   33.6807   46.6053 H   0  0  0  0  0  0  0  0  0  0  0  0
   61.2401   32.9230   46.0903 H   0  0  0  0  0  0  0  0  0  0  0  0
   61.4072   34.7115   46.0903 H   0  0  0  0  0  0  0  0  0  0  0  0
   61.9508   33.3983   48.7115 H   0  0  0  0  0  0  0  0  0  0  0  0
   60.9927   34.8778   48.3206 H   0  0  0  0  0  0  0  0  0  0  0  0
   60.2264   34.6401   50.3554 H   0  0  0  0  0  0  0  0  0  0  0  0
   59.2126   34.2842   52.6046 H   0  0  0  0  0  0  0  0  0  0  0  0
   57.7534   32.3042   53.0234 H   0  0  0  0  0  0  0  0  0  0  0  0
   58.3156   31.0163   48.9333 H   0  0  0  0  0  0  0  0  0  0  0  0
   57.8991   34.2729   46.9245 H   0  0  0  0  0  0  0  0  0  0  0  0
   56.7133   33.4617   44.8978 H   0  0  0  0  0  0  0  0  0  0  0  0
   60.4635   30.7904   46.8330 H   0  0  0  0  0  0  0  0  0  0  0  0
   59.6633   29.7582   43.5925 H   0  0  0  0  0  0  0  0  0  0  0  0
   60.2242   29.1916   45.2180 H   0  0  0  0  0  0  0  0  0  0  0  0
   58.6491   27.5716   44.7421 H   0  0  0  0  0  0  0  0  0  0  0  0
   57.6262   28.8289   45.5923 H   0  0  0  0  0  0  0  0  0  0  0  0
   57.8990   28.7110   42.6820 H   0  0  0  0  0  0  0  0  0  0  0  0
   56.7480   27.7720   43.4560 H   0  0  0  0  0  0  0  0  0  0  0  0
   55.7278   29.7642   42.7184 H   0  0  0  0  0  0  0  0  0  0  0  0
   55.9173   29.8317   44.5418 H   0  0  0  0  0  0  0  0  0  0  0  0
   57.9094   31.1168   42.6520 H   0  0  0  0  0  0  0  0  0  0  0  0
   56.3888   31.9518   43.2909 H   0  0  0  0  0  0  0  0  0  0  0  0
  1  2  1  0
  2  3  1  0
  3  4  1  0
  4  5  2  0
  5  6  1  0
  6  7  2  0
  7  8  1  0
  8  9  1  0
  8 10  2  0
  3 11  1  0
 11 12  2  0
 12 13  1  0
 13 14  2  0
 14 15  1  0
 15 16  2  0
 15 17  1  0
 17 18  1  0
 18 19  1  0
 19 20  1  0
 20 21  1  0
 10  4  1  0
 16 11  1  0
 21 14  1  0
  1 22  1  0
  1 23  1  0
  1 24  1  0
  2 25  1  0
  2 26  1  0
  5 27  1  0
  6 28  1  0
  7 29  1  0
 10 30  1  0
 12 31  1  0
 13 32  1  0
 16 33  1  0
 17 34  1  0
 17 35  1  0
 18 36  1  0
 18 37  1  0
 19 38  1  0
 19 39  1  0
 20 40  1  0
 20 41  1  0
 21 42  1  0
 21 43  1  0
M  CHG  1  19   1
M  END
>  <UniqueID>  (11) 
11

>  <SMILES>  (11) 
CCN(c1cccc(F)c1)c1ccc2c(c1)CC[NH2+]CC2

>  <Energy>  (11) 
60.96021024357415

>  <Genealogy>  (11) 
CCN(c1cccc(F)c1)c1ccc2c(c1)CC[NH2+]CC2 (protonated)
CCN(c1cccc(F)c1)c1ccc2c(c1)CC[NH2+]CC2 (3D coordinates assigned)
CCN(c1cccc(F)c1)c1ccc2c(c1)CC[NH2+]CC2 (nonaromatic ring conformer: 60.96021024357415 kcal/mol)

>  <smiles>  (11) 
CCN(c1cccc(F)c1)c1ccc2c(c1)CCNCC2

>  <score_type>  (11) 
oracle

>  <origin>  (11) 
adg

>  <m_score__min__energy>  (11) 
-4.5099999999999998

>  <m_primary>  (11) 
energy

$$$$
11:0
     RDKit          3D

 52 54  0  0  0  0  0  0  0  0999 V2000
   59.9620   29.6260   44.5130 O   0  0  0  0  0  0  0  0  0  0  0  0
   59.5770   29.1580   45.6190 C   0  0  0  0  0  0  0  0  0  0  0  0
   60.3680   29.2350   46.8610 C   0  0  0  0  0  0  0  0  0  0  0  0
   59.4550   28.5710   47.9030 C   0  0  0  0  0  0  0  0  0  0  0  0
   58.2520   27.9750   47.1460 C   0  0  0  0  0  0  0  0  0  0  0  0
   58.3500   28.4750   45.7860 N   0  0  0  0  0  0  0  0  0  0  0  0
   57.3900   28.1750   44.7240 C   0  0  0  0  0  0  0  0  0  0  0  0
   56.3540   29.2950   44.5800 C   0  0  0  0  0  0  0  0  0  0  0  0
   56.6530   30.2140   43.3800 C   0  0  0  0  0  0  0  0  0  0  0  0
   57.9300   30.9430   43.5500 N   0  0  0  0  0  0  0  0  0  0  0  0
   57.8810   32.3300   43.0490 C   0  0  0  0  0  0  0  0  0  0  0  0
   57.4130   33.3410   44.1120 C   0  0  0  0  0  0  0  0  0  0  0  0
   57.5260   32.8050   45.4310 O   0  0  0  0  0  0  0  0  0  0  0  0
   58.6650   32.8780   46.2500 C   0  0  0  0  0  0  0  0  0  0  0  0
   59.7400   33.6580   45.8150 C   0  0  0  0  0  0  0  0  0  0  0  0
   60.8990   33.7690   46.5880 C   0  0  0  0  0  0  0  0  0  0  0  0
   61.0050   33.0930   47.8160 C   0  0  0  0  0  0  0  0  0  0  0  0
   62.2360   33.2110   48.6390 C   0  0  0  0  0  0  0  0  0  0  0  0
   63.3930   32.4840   48.3040 C   0  0  0  0  0  0  0  0  0  0  0  0
   64.5510   32.5980   49.0810 C   0  0  0  0  0  0  0  0  0  0  0  0
   64.5660   33.4340   50.1990 C   0  0  0  0  0  0  0  0  0  0  0  0
   66.1490   33.5860   51.2580 Br  0  0  0  0  0  0  0  0  0  0  0  0
   63.4230   34.1610   50.5410 C   0  0  0  0  0  0  0  0  0  0  0  0
   62.2630   34.0520   49.7680 C   0  0  0  0  0  0  0  0  0  0  0  0
   59.9260   32.3030   48.2500 C   0  0  0  0  0  0  0  0  0  0  0  0
   58.7670   32.1930   47.4760 C   0  0  0  0  0  0  0  0  0  0  0  0
   61.3153   28.6852   46.7596 H   0  0  0  0  0  0  0  0  0  0  0  0
   60.6498   30.2640   47.1289 H   0  0  0  0  0  0  0  0  0  0  0  0
   60.0013   27.7739   48.4285 H   0  0  0  0  0  0  0  0  0  0  0  0
   59.1195   29.3050   48.6505 H   0  0  0  0  0  0  0  0  0  0  0  0
   58.3011   26.8761   47.1541 H   0  0  0  0  0  0  0  0  0  0  0  0
   57.2985   28.2613   47.6138 H   0  0  0  0  0  0  0  0  0  0  0  0
   57.9309   28.0623   43.7728 H   0  0  0  0  0  0  0  0  0  0  0  0
   56.8632   27.2449   44.9836 H   0  0  0  0  0  0  0  0  0  0  0  0
   55.3608   28.8431   44.4412 H   0  0  0  0  0  0  0  0  0  0  0  0
   56.3909   29.9084   45.4924 H   0  0  0  0  0  0  0  0  0  0  0  0
   56.7115   29.6013   42.4683 H   0  0  0  0  0  0  0  0  0  0  0  0
   55.8435   30.9552   43.3072 H   0  0  0  0  0  0  0  0  0  0  0  0
   58.2540   30.9360   44.5460 H   0  0  0  0  0  0  0  0  0  0  0  0
   58.6650   30.4440   42.9970 H   0  0  0  0  0  0  0  0  0  0  0  0
   58.8885   32.6165   42.7132 H   0  0  0  0  0  0  0  0  0  0  0  0
   57.1497   32.3560   42.2277 H   0  0  0  0  0  0  0  0  0  0  0  0
   58.0324   34.2472   44.0403 H   0  0  0  0  0  0  0  0  0  0  0  0
   56.3545   33.5737   43.9240 H   0  0  0  0  0  0  0  0  0  0  0  0
   59.6732   34.1899   44.8545 H   0  0  0  0  0  0  0  0  0  0  0  0
   61.7346   34.3900   46.2329 H   0  0  0  0  0  0  0  0  0  0  0  0
   63.3872   31.8218   47.4257 H   0  0  0  0  0  0  0  0  0  0  0  0
   65.4517   32.0276   48.8103 H   0  0  0  0  0  0  0  0  0  0  0  0
   63.4357   34.8210   51.4209 H   0  0  0  0  0  0  0  0  0  0  0  0
   61.3663   34.6266   50.0434 H   0  0  0  0  0  0  0  0  0  0  0  0
   59.9944   31.7663   49.2078 H   0  0  0  0  0  0  0  0  0  0  0  0
   57.9315   31.5689   47.8261 H   0  0  0  0  0  0  0  0  0  0  0  0
  1  2  2  0
  2  3  1  0
  3  4  1  0
  4  5  1  0
  5  6  1  0
  6  7  1  0
  7  8  1  0
  8  9  1  0
  9 10  1  0
 10 11  1  0
 11 12  1  0
 12 13  1  0
 13 14  1  0
 14 15  2  0
 15 16  1  0
 16 17  2  0
 17 18  1  0
 18 19  2  0
 19 20  1  0
 20 21  2  0
 21 22  1  0
 21 23  1  0
 23 24  2  0
 17 25  1  0
 25 26  2  0
  6  2  1  0
 26 14  1  0
 24 18  1  0
  3 27  1  0
  3 28  1  0
  4 29  1  0
  4 30  1  0
  5 31  1  0
  5 32  1  0
  7 33  1  0
  7 34  1  0
  8 35  1  0
  8 36  1  0
  9 37  1  0
  9 38  1  0
 10 39  1  0
 10 40  1  0
 11 41  1  0
 11 42  1  0
 12 43  1  0
 12 44  1  0
 15 45  1  0
 16 46  1  0
 19 47  1  0
 20 48  1  0
 23 49  1  0
 24 50  1  0
 25 51  1  0
 26 52  1  0
M  CHG  1  10   1
M  END
>  <UniqueID>  (12) 
12

>  <SMILES>  (12) 
O=C1CCCN1CCC[NH2+]CCOc1ccc(-c2ccc(Br)cc2)cc1

>  <Energy>  (12) 
59.564020907439435

>  <Genealogy>  (12) 
O=C1CCCN1CCC[NH2+]CCOc1ccc(-c2ccc(Br)cc2)cc1 (protonated)
O=C1CCCN1CCC[NH2+]CCOc1ccc(-c2ccc(Br)cc2)cc1 (3D coordinates assigned)
O=C1CCCN1CCC[NH2+]CCOc1ccc(-c2ccc(Br)cc2)cc1 (nonaromatic ring conformer: 59.564020907439435 kcal/mol)

>  <smiles>  (12) 
O=C1CCCN1CCCNCCOc1ccc(-c2ccc(Br)cc2)cc1

>  <score_type>  (12) 
oracle

>  <origin>  (12) 
adg

>  <m_score__min__energy>  (12) 
-7.4699999999999998

>  <m_primary>  (12) 
energy

$$$$
12:0
     RDKit          3D

 59 61  0  0  0  0  0  0  0  0999 V2000
   67.0000   28.5250   51.2450 C   0  0  0  0  0  0  0  0  0  0  0  0
   67.3260   29.9520   51.6800 C   0  0  0  0  0  0  0  0  0  0  0  0
   66.7840   30.9300   50.7200 N   0  0  0  0  0  0  0  0  0  0  0  0
   66.9060   32.3130   51.2110 C   0  0  0  0  0  0  0  0  0  0  0  0
   65.8410   33.2450   50.6030 C   0  0  0  0  0  0  0  0  0  0  0  0
   65.0760   32.5500   49.6170 O   0  0  0  0  0  0  0  0  0  0  0  0
   63.9390   33.0570   48.9660 C   0  0  0  0  0  0  0  0  0  0  0  0
   63.9820   33.1940   47.5740 C   0  0  0  0  0  0  0  0  0  0  0  0
   62.8680   33.6640   46.8700 C   0  0  0  0  0  0  0  0  0  0  0  0
   61.6880   33.9960   47.5540 C   0  0  0  0  0  0  0  0  0  0  0  0
   60.4770   34.4860   46.7970 C   0  0  0  0  0  0  0  0  0  0  0  0
   59.8620   33.4570   45.9300 N   0  0  0  0  0  0  0  0  0  0  0  0
   59.2950   32.2670   46.6040 C   0  0  0  0  0  0  0  0  0  0  0  0
   57.7750   32.3620   46.8220 C   0  0  0  0  0  0  0  0  0  0  0  0
   57.0340   32.7400   45.5350 C   0  0  0  0  0  0  0  0  0  0  0  0
   57.1470   31.6570   44.5570 N   0  0  0  0  0  0  0  0  0  0  0  0
   56.7150   30.3070   44.7910 C   0  0  0  0  0  0  0  0  0  0  0  0
   55.4930   30.0260   44.6610 O   0  0  0  0  0  0  0  0  0  0  0  0
   57.6790   29.2250   45.0940 C   0  0  0  0  0  0  0  0  0  0  0  0
   59.0580   29.4540   44.9470 C   0  0  0  0  0  0  0  0  0  0  0  0
   59.9730   28.4230   45.1740 C   0  0  0  0  0  0  0  0  0  0  0  0
   59.5190   27.1550   45.5430 C   0  0  0  0  0  0  0  0  0  0  0  0
   58.1510   26.9160   45.6900 C   0  0  0  0  0  0  0  0  0  0  0  0
   57.2290   27.9420   45.4610 C   0  0  0  0  0  0  0  0  0  0  0  0
   55.9040   27.6880   45.6160 F   0  0  0  0  0  0  0  0  0  0  0  0
   57.6100   34.0390   44.9580 C   0  0  0  0  0  0  0  0  0  0  0  0
   59.1310   33.9390   44.7340 C   0  0  0  0  0  0  0  0  0  0  0  0
   61.6570   33.9030   48.9540 C   0  0  0  0  0  0  0  0  0  0  0  0
   62.7690   33.4320   49.6560 C   0  0  0  0  0  0  0  0  0  0  0  0
   66.8559   27.8943   52.1347 H   0  0  0  0  0  0  0  0  0  0  0  0
   66.0790   28.5264   50.6435 H   0  0  0  0  0  0  0  0  0  0  0  0
   67.8302   28.1263   50.6435 H   0  0  0  0  0  0  0  0  0  0  0  0
   66.8845   30.1365   52.6705 H   0  0  0  0  0  0  0  0  0  0  0  0
   68.4193   30.0667   51.7199 H   0  0  0  0  0  0  0  0  0  0  0  0
   65.7640   30.7300   50.5780 H   0  0  0  0  0  0  0  0  0  0  0  0
   67.2680   30.8300   49.7960 H   0  0  0  0  0  0  0  0  0  0  0  0
   66.7917   32.3114   52.3050 H   0  0  0  0  0  0  0  0  0  0  0  0
   67.8946   32.6907   50.9111 H   0  0  0  0  0  0  0  0  0  0  0  0
   65.1701   33.5975   51.4002 H   0  0  0  0  0  0  0  0  0  0  0  0
   66.3442   34.0997   50.1273 H   0  0  0  0  0  0  0  0  0  0  0  0
   64.8999   32.9298   47.0284 H   0  0  0  0  0  0  0  0  0  0  0  0
   62.9170   33.7738   45.7766 H   0  0  0  0  0  0  0  0  0  0  0  0
   59.7242   34.8216   47.5255 H   0  0  0  0  0  0  0  0  0  0  0  0
   60.8162   35.3000   46.1394 H   0  0  0  0  0  0  0  0  0  0  0  0
   59.5051   31.3816   45.9859 H   0  0  0  0  0  0  0  0  0  0  0  0
   59.7644   32.1982   47.5965 H   0  0  0  0  0  0  0  0  0  0  0  0
   57.4046   31.3872   47.1720 H   0  0  0  0  0  0  0  0  0  0  0  0
   57.5867   33.1493   47.5667 H   0  0  0  0  0  0  0  0  0  0  0  0
   55.9706   32.8986   45.7674 H   0  0  0  0  0  0  0  0  0  0  0  0
   59.4187   30.4503   44.6516 H   0  0  0  0  0  0  0  0  0  0  0  0
   61.0512   28.6100   45.0621 H   0  0  0  0  0  0  0  0  0  0  0  0
   60.2402   26.3431   45.7182 H   0  0  0  0  0  0  0  0  0  0  0  0
   57.7976   25.9175   45.9869 H   0  0  0  0  0  0  0  0  0  0  0  0
   57.1211   34.2488   43.9952 H   0  0  0  0  0  0  0  0  0  0  0  0
   57.4226   34.8473   45.6802 H   0  0  0  0  0  0  0  0  0  0  0  0
   59.3180   33.2416   43.9042 H   0  0  0  0  0  0  0  0  0  0  0  0
   59.4979   34.9515   44.5100 H   0  0  0  0  0  0  0  0  0  0  0  0
   60.7515   34.2028   49.5018 H   0  0  0  0  0  0  0  0  0  0  0  0
   62.7312   33.3535   50.7525 H   0  0  0  0  0  0  0  0  0  0  0  0
  1  2  1  0
  2  3  1  0
  3  4  1  0
  4  5  1  0
  5  6  1  0
  6  7  1  0
  7  8  2  0
  8  9  1  0
  9 10  2  0
 10 11  1  0
 11 12  1  0
 12 13  1  0
 13 14  1  0
 14 15  1  0
 15 16  1  0
 16 17  1  0
 17 18  2  0
 17 19  1  0
 19 20  2  0
 20 21  1  0
 21 22  2  0
 22 23  1  0
 23 24  2  0
 24 25  1  0
 15 26  1  0
 26 27  1  0
 10 28  1  0
 28 29  2  0
 29  7  1  0
 27 12  1  0
 24 19  1  0
  1 30  1  0
  1 31  1  0
  1 32  1  0
  2 33  1  0
  2 34  1  0
  3 35  1  0
  3 36  1  0
  4 37  1  0
  4 38  1  0
  5 39  1  0
  5 40  1  0
  8 41  1  0
  9 42  1  0
 11 43  1  0
 11 44  1  0
 13 45  1  0
 13 46  1  0
 14 47  1  0
 14 48  1  0
 15 49  1  0
 20 50  1  0
 21 51  1  0
 22 52  1  0
 23 53  1  0
 26 54  1  0
 26 55  1  0
 27 56  1  0
 27 57  1  0
 28 58  1  0
 29 59  1  0
M  CHG  2   3   1  16  -1
M  END
>  <UniqueID>  (13) 
13

>  <SMILES>  (13) 
CC[NH2+]CCOc1ccc(CN2CCC([N-]C(=O)c3ccccc3F)CC2)cc1

>  <Energy>  (13) 
68.04920333186125

>  <Genealogy>  (13) 
CC[NH2+]CCOc1ccc(CN2CCC([N-]C(=O)c3ccccc3F)CC2)cc1 (protonated)
CC[NH2+]CCOc1ccc(CN2CCC([N-]C(=O)c3ccccc3F)CC2)cc1 (3D coordinates assigned)
CC[NH2+]CCOc1ccc(CN2CCC([N-]C(=O)c3ccccc3F)CC2)cc1 (nonaromatic ring conformer: 68.04920333186125 kcal/mol)

>  <smiles>  (13) 
CCNCCOc1ccc(CN2CCC(NC(=O)c3ccccc3F)CC2)cc1

>  <score_type>  (13) 
oracle

>  <origin>  (13) 
adg

>  <m_score__min__energy>  (13) 
-9.5899999999999999

>  <m_primary>  (13) 
energy

$$$$
13:0
     RDKit          3D

 53 56  0  0  0  0  0  0  0  0999 V2000
   63.4900   34.1450   50.8230 C   0  0  0  0  0  0  0  0  0  0  0  0
   63.0770   33.4260   49.5750 C   0  0  0  0  0  0  0  0  0  0  0  0
   64.0450   32.8200   48.7600 C   0  0  0  0  0  0  0  0  0  0  0  0
   63.6700   32.1880   47.5730 C   0  0  0  0  0  0  0  0  0  0  0  0
   62.3270   32.1630   47.1840 C   0  0  0  0  0  0  0  0  0  0  0  0
   61.3480   32.7730   47.9830 C   0  0  0  0  0  0  0  0  0  0  0  0
   59.8990   32.7520   47.5530 C   0  0  0  0  0  0  0  0  0  0  0  0
   59.4240   34.0840   47.0900 N   0  0  2  0  0  0  0  0  0  0  0  0
   57.9440   34.1990   47.1070 C   0  0  0  0  0  0  0  0  0  0  0  0
   57.2630   33.3380   46.0250 C   0  0  0  0  0  0  0  0  0  0  0  0
   57.9900   33.3800   44.6650 C   0  0  2  0  0  0  0  0  0  0  0  0
   58.6310   32.1220   44.4250 O   0  0  0  0  0  0  0  0  0  0  0  0
   58.0180   30.8920   44.6910 C   0  0  0  0  0  0  0  0  0  0  0  0
   56.7260   30.6820   44.1970 C   0  0  0  0  0  0  0  0  0  0  0  0
   56.0310   29.5150   44.4960 C   0  0  0  0  0  0  0  0  0  0  0  0
   56.6140   28.5370   45.3000 C   0  0  0  0  0  0  0  0  0  0  0  0
   55.9050   27.4220   45.6220 N   0  0  0  0  0  0  0  0  0  0  0  0
   56.4190   26.4450   46.4110 C   0  0  0  0  0  0  0  0  0  0  0  0
   55.7220   25.4360   46.6920 O   0  0  0  0  0  0  0  0  0  0  0  0
   57.7120   26.5670   46.9200 C   0  0  0  0  0  0  0  0  0  0  0  0
   58.4680   27.6980   46.6110 C   0  0  0  0  0  0  0  0  0  0  0  0
   57.9350   28.7080   45.7840 C   0  0  0  0  0  0  0  0  0  0  0  0
   58.6670   29.8730   45.4290 C   0  0  0  0  0  0  0  0  0  0  0  0
   60.1230   30.0240   45.8110 C   0  0  0  0  0  0  0  0  0  0  0  0
   59.0110   34.5250   44.6090 C   0  0  0  0  0  0  0  0  0  0  0  0
   60.0230   34.4450   45.7690 C   0  0  0  0  0  0  0  0  0  0  0  0
   61.7300   33.4120   49.1750 C   0  0  0  0  0  0  0  0  0  0  0  0
   63.1608   33.5719   51.7023 H   0  0  0  0  0  0  0  0  0  0  0  0
   64.5850   34.2481   50.8414 H   0  0  0  0  0  0  0  0  0  0  0  0
   63.0274   35.1428   50.8414 H   0  0  0  0  0  0  0  0  0  0  0  0
   65.1038   32.8429   49.0575 H   0  0  0  0  0  0  0  0  0  0  0  0
   64.4329   31.7085   46.9421 H   0  0  0  0  0  0  0  0  0  0  0  0
   62.0369   31.6632   46.2480 H   0  0  0  0  0  0  0  0  0  0  0  0
   59.7854   32.0311   46.7300 H   0  0  0  0  0  0  0  0  0  0  0  0
   59.2946   32.4661   48.4265 H   0  0  0  0  0  0  0  0  0  0  0  0
   59.7800   34.7890   47.7800 H   0  0  0  0  0  0  0  0  0  0  0  0
   57.5783   33.8772   48.0932 H   0  0  0  0  0  0  0  0  0  0  0  0
   57.6921   35.2495   46.8998 H   0  0  0  0  0  0  0  0  0  0  0  0
   57.2359   32.2953   46.3744 H   0  0  0  0  0  0  0  0  0  0  0  0
   56.2547   33.7489   45.8684 H   0  0  0  0  0  0  0  0  0  0  0  0
   57.2446   33.5657   43.8777 H   0  0  0  0  0  0  0  0  0  0  0  0
   56.2544   31.4488   43.5648 H   0  0  0  0  0  0  0  0  0  0  0  0
   55.0174   29.3633   44.0965 H   0  0  0  0  0  0  0  0  0  0  0  0
   58.1323   25.7774   47.5602 H   0  0  0  0  0  0  0  0  0  0  0  0
   59.4858   27.8025   47.0149 H   0  0  0  0  0  0  0  0  0  0  0  0
   60.2154   30.0336   46.9071 H   0  0  0  0  0  0  0  0  0  0  0  0
   60.6988   29.1808   45.4018 H   0  0  0  0  0  0  0  0  0  0  0  0
   60.5135   30.9675   45.4018 H   0  0  0  0  0  0  0  0  0  0  0  0
   59.5568   34.4694   43.6556 H   0  0  0  0  0  0  0  0  0  0  0  0
   58.4646   35.4757   44.6961 H   0  0  0  0  0  0  0  0  0  0  0  0
   60.7776   33.6860   45.5150 H   0  0  0  0  0  0  0  0  0  0  0  0
   60.4484   35.4529   45.8832 H   0  0  0  0  0  0  0  0  0  0  0  0
   60.9696   33.9044   49.7989 H   0  0  0  0  0  0  0  0  0  0  0  0
  1  2  1  0
  2  3  2  0
  3  4  1  0
  4  5  2  0
  5  6  1  0
  6  7  1  0
  7  8  1  0
  8  9  1  0
  9 10  1  0
 10 11  1  0
 11 12  1  0
 12 13  1  0
 13 14  2  0
 14 15  1  0
 15 16  2  0
 16 17  1  0
 17 18  1  0
 18 19  2  0
 18 20  1  0
 20 21  2  0
 21 22  1  0
 22 23  2  0
 23 24  1  0
 11 25  1  0
 25 26  1  0
  6 27  2  0
 27  2  1  0
 26  8  1  0
 23 13  1  0
 22 16  1  0
  1 28  1  0
  1 29  1  0
  1 30  1  0
  3 31  1  0
  4 32  1  0
  5 33  1  0
  7 34  1  0
  7 35  1  0
  8 36  1  1
  9 37  1  0
  9 38  1  0
 10 39  1  0
 10 40  1  0
 11 41  1  6
 14 42  1  0
 15 43  1  0
 20 44  1  0
 21 45  1  0
 24 46  1  0
 24 47  1  0
 24 48  1  0
 25 49  1  0
 25 50  1  0
 26 51  1  0
 26 52  1  0
 27 53  1  0
M  CHG  2   8   1  17  -1
M  END
>  <UniqueID>  (14) 
14

>  <SMILES>  (14) 
Cc1cccc(C[NH+]2CCC(Oc3ccc4[n-]c(=O)ccc4c3C)CC2)c1

>  <Energy>  (14) 
78.19700797811424

>  <Genealogy>  (14) 
Cc1cccc(C[NH+]2CCC(Oc3ccc4[n-]c(=O)ccc4c3C)CC2)c1 (protonated)
Cc1cccc(C[NH+]2CCC(Oc3ccc4[n-]c(=O)ccc4c3C)CC2)c1 (3D coordinates assigned)
Cc1cccc(C[NH+]2CCC(Oc3ccc4[n-]c(=O)ccc4c3C)CC2)c1 (nonaromatic ring conformer: 78.19700797811424 kcal/mol)

>  <smiles>  (14) 
Cc1cccc(CN2CCC(Oc3ccc4[nH]c(=O)ccc4c3C)CC2)c1

>  <score_type>  (14) 
oracle

>  <origin>  (14) 
adg

>  <m_score__min__energy>  (14) 
-10.1

>  <m_primary>  (14) 
energy

$$$$
14:0
     RDKit          3D

 57 60  0  0  0  0  0  0  0  0999 V2000
   57.1720   34.3510   44.8830 C   0  0  0  0  0  0  0  0  0  0  0  0
   58.4390   34.8190   45.3350 O   0  0  0  0  0  0  0  0  0  0  0  0
   59.2770   34.1170   46.2150 C   0  0  0  0  0  0  0  0  0  0  0  0
   60.3730   34.7170   46.8410 C   0  0  0  0  0  0  0  0  0  0  0  0
   61.1620   33.9860   47.7220 C   0  0  0  0  0  0  0  0  0  0  0  0
   60.8800   32.6280   48.0040 C   0  0  0  0  0  0  0  0  0  0  0  0
   61.6590   31.9000   48.9360 C   0  0  0  0  0  0  0  0  0  0  0  0
   62.8110   32.5680   49.5960 C   0  0  0  0  0  0  0  0  0  0  0  0
   64.1130   32.3530   49.1180 C   0  0  0  0  0  0  0  0  0  0  0  0
   65.2000   32.9730   49.7430 C   0  0  0  0  0  0  0  0  0  0  0  0
   64.9910   33.8050   50.8470 C   0  0  0  0  0  0  0  0  0  0  0  0
   63.6970   34.0180   51.3280 C   0  0  0  0  0  0  0  0  0  0  0  0
   62.6080   33.4010   50.7070 C   0  0  0  0  0  0  0  0  0  0  0  0
   61.3600   30.5840   49.2210 N   0  0  0  0  0  0  0  0  0  0  0  0
   62.1010   29.8760   50.2920 C   0  0  0  0  0  0  0  0  0  0  0  0
   60.3880   29.9130   48.5030 C   0  0  0  0  0  0  0  0  0  0  0  0
   60.1860   28.5190   48.6720 C   0  0  0  0  0  0  0  0  0  0  0  0
   59.1960   27.8370   47.9750 C   0  0  0  0  0  0  0  0  0  0  0  0
   58.3750   28.5100   47.0680 C   0  0  0  0  0  0  0  0  0  0  0  0
   57.3410   27.8300   46.3270 N   0  0  0  0  0  0  0  0  0  0  0  0
   57.3650   27.5970   44.8820 C   0  0  0  0  0  0  0  0  0  0  0  0
   57.7700   28.8610   44.1150 C   0  0  0  0  0  0  0  0  0  0  0  0
   56.8460   29.9740   44.4370 N   0  0  0  0  0  0  0  0  0  0  0  0
   57.3670   31.2560   43.9360 C   0  0  0  0  0  0  0  0  0  0  0  0
   55.5050   29.7350   43.8760 C   0  0  0  0  0  0  0  0  0  0  0  0
   58.5770   29.8790   46.8590 C   0  0  0  0  0  0  0  0  0  0  0  0
   59.5730   30.6070   47.5620 C   0  0  0  0  0  0  0  0  0  0  0  0
   59.8000   31.9940   47.3420 C   0  0  0  0  0  0  0  0  0  0  0  0
   58.9970   32.7730   46.4660 C   0  0  0  0  0  0  0  0  0  0  0  0
   56.5371   34.1165   45.7501 H   0  0  0  0  0  0  0  0  0  0  0  0
   56.6890   35.1300   44.2749 H   0  0  0  0  0  0  0  0  0  0  0  0
   57.3114   33.4450   44.2749 H   0  0  0  0  0  0  0  0  0  0  0  0
   60.6122   35.7709   46.6361 H   0  0  0  0  0  0  0  0  0  0  0  0
   62.0207   34.4717   48.2085 H   0  0  0  0  0  0  0  0  0  0  0  0
   64.2787   31.6964   48.2512 H   0  0  0  0  0  0  0  0  0  0  0  0
   66.2197   32.8059   49.3657 H   0  0  0  0  0  0  0  0  0  0  0  0
   65.8465   34.2924   51.3374 H   0  0  0  0  0  0  0  0  0  0  0  0
   63.5351   34.6726   52.1971 H   0  0  0  0  0  0  0  0  0  0  0  0
   61.5903   33.5684   51.0894 H   0  0  0  0  0  0  0  0  0  0  0  0
   61.7425   30.2185   51.2739 H   0  0  0  0  0  0  0  0  0  0  0  0
   61.9347   28.7927   50.1984 H   0  0  0  0  0  0  0  0  0  0  0  0
   63.1756   30.0914   50.1984 H   0  0  0  0  0  0  0  0  0  0  0  0
   60.8286   27.9645   49.3717 H   0  0  0  0  0  0  0  0  0  0  0  0
   59.0580   26.7581   48.1391 H   0  0  0  0  0  0  0  0  0  0  0  0
   56.5100   27.4670   46.8480 H   0  0  0  0  0  0  0  0  0  0  0  0
   58.0879   26.7979   44.6609 H   0  0  0  0  0  0  0  0  0  0  0  0
   56.3526   27.3092   44.5623 H   0  0  0  0  0  0  0  0  0  0  0  0
   58.7940   29.1455   44.3986 H   0  0  0  0  0  0  0  0  0  0  0  0
   57.7221   28.6561   43.0353 H   0  0  0  0  0  0  0  0  0  0  0  0
   57.6297   31.9025   44.7863 H   0  0  0  0  0  0  0  0  0  0  0  0
   58.2624   31.0737   43.3236 H   0  0  0  0  0  0  0  0  0  0  0  0
   56.5983   31.7500   43.3236 H   0  0  0  0  0  0  0  0  0  0  0  0
   54.7824   29.6062   44.6953 H   0  0  0  0  0  0  0  0  0  0  0  0
   55.2080   30.5944   43.2569 H   0  0  0  0  0  0  0  0  0  0  0  0
   55.5232   28.8259   43.2569 H   0  0  0  0  0  0  0  0  0  0  0  0
   57.9457   30.4065   46.1288 H   0  0  0  0  0  0  0  0  0  0  0  0
   58.1324   32.3047   45.9730 H   0  0  0  0  0  0  0  0  0  0  0  0
  1  2  1  0
  2  3  1  0
  3  4  2  0
  4  5  1  0
  5  6  2  0
  6  7  1  0
  7  8  1  0
  8  9  2  0
  9 10  1  0
 10 11  2  0
 11 12  1  0
 12 13  2  0
  7 14  2  0
 14 15  1  0
 14 16  1  0
 16 17  2  0
 17 18  1  0
 18 19  2  0
 19 20  1  0
 20 21  1  0
 21 22  1  0
 22 23  1  0
 23 24  1  0
 23 25  1  0
 19 26  1  0
 26 27  2  0
 27 28  1  0
 28 29  2  0
 29  3  1  0
 28  6  1  0
 13  8  1  0
 27 16  1  0
  1 30  1  0
  1 31  1  0
  1 32  1  0
  4 33  1  0
  5 34  1  0
  9 35  1  0
 10 36  1  0
 11 37  1  0
 12 38  1  0
 13 39  1  0
 15 40  1  0
 15 41  1  0
 15 42  1  0
 17 43  1  0
 18 44  1  0
 20 45  1  0
 21 46  1  0
 21 47  1  0
 22 48  1  0
 22 49  1  0
 24 50  1  0
 24 51  1  0
 24 52  1  0
 25 53  1  0
 25 54  1  0
 25 55  1  0
 26 56  1  0
 29 57  1  0
M  CHG  1  14   1
M  END
>  <UniqueID>  (15) 
15

>  <SMILES>  (15) 
COc1ccc2c(-c3ccccc3)[n+](C)c3ccc(NCCN(C)C)cc3c2c1

>  <Energy>  (15) 
90.88676158544341

>  <Genealogy>  (15) 
COc1ccc2c(-c3ccccc3)[n+](C)c3ccc(NCCN(C)C)cc3c2c1 (3D coordinates assigned)
COc1ccc2c(-c3ccccc3)[n+](C)c3ccc(NCCN(C)C)cc3c2c1 (optimized conformer: 90.88676158544341 kcal/mol)

>  <smiles>  (15) 
COc1ccc2c(-c3ccccc3)[n+](C)c3ccc(NCCN(C)C)cc3c2c1

>  <score_type>  (15) 
oracle

>  <origin>  (15) 
adg

>  <m_score__min__energy>  (15) 
-6.6900000000000004

>  <m_primary>  (15) 
energy

$$$$
15:0
     RDKit          3D

 60 63  0  0  0  0  0  0  0  0999 V2000
   63.3920   34.2530   48.1740 F   0  0  0  0  0  0  0  0  0  0  0  0
   63.4380   33.6180   49.4030 C   0  0  0  0  0  0  0  0  0  0  0  0
   64.4630   32.6900   49.3930 F   0  0  0  0  0  0  0  0  0  0  0  0
   63.7030   34.5720   50.3720 F   0  0  0  0  0  0  0  0  0  0  0  0
   62.1350   32.9160   49.6980 C   0  0  0  0  0  0  0  0  0  0  0  0
   61.2890   33.3750   50.7230 C   0  0  0  0  0  0  0  0  0  0  0  0
   60.0700   32.7400   50.9670 C   0  0  0  0  0  0  0  0  0  0  0  0
   59.6710   31.6570   50.1830 C   0  0  0  0  0  0  0  0  0  0  0  0
   60.4850   31.1990   49.1320 C   0  0  0  0  0  0  0  0  0  0  0  0
   60.0510   30.0620   48.2830 C   0  0  0  0  0  0  0  0  0  0  0  0
   60.7950   29.6940   47.1470 C   0  0  0  0  0  0  0  0  0  0  0  0
   60.3920   28.6150   46.3530 C   0  0  0  0  0  0  0  0  0  0  0  0
   59.2380   27.8880   46.6790 C   0  0  0  0  0  0  0  0  0  0  0  0
   58.8270   26.7100   45.8370 C   0  0  0  0  0  0  0  0  0  0  0  0
   59.1720   26.9300   44.4820 O   0  0  0  0  0  0  0  0  0  0  0  0
   58.0760   27.4520   43.7500 C   0  0  0  0  0  0  0  0  0  0  0  0
   57.6730   28.8390   44.2820 C   0  0  0  0  0  0  0  0  0  0  0  0
   56.4070   29.3510   43.5740 C   0  0  0  0  0  0  0  0  0  0  0  0
   55.9650   30.7250   44.1270 C   0  0  0  0  0  0  0  0  0  0  0  0
   57.0360   31.4030   44.8930 N   0  0  0  0  0  0  0  0  0  0  0  0
   56.6650   32.8070   45.1630 C   0  0  0  0  0  0  0  0  0  0  0  0
   57.8030   33.5300   45.8350 C   0  0  0  0  0  0  0  0  0  0  0  0
   58.5860   34.4560   45.1230 C   0  0  0  0  0  0  0  0  0  0  0  0
   59.6540   35.1050   45.7510 C   0  0  0  0  0  0  0  0  0  0  0  0
   59.9480   34.8330   47.0900 C   0  0  0  0  0  0  0  0  0  0  0  0
   59.1760   33.9120   47.8030 C   0  0  0  0  0  0  0  0  0  0  0  0
   58.1080   33.2610   47.1790 C   0  0  0  0  0  0  0  0  0  0  0  0
   58.3220   31.3180   44.1700 C   0  0  0  0  0  0  0  0  0  0  0  0
   58.8210   29.8620   44.1260 C   0  0  0  0  0  0  0  0  0  0  0  0
   58.4940   28.2510   47.8110 C   0  0  0  0  0  0  0  0  0  0  0  0
   58.8950   29.3280   48.6060 C   0  0  0  0  0  0  0  0  0  0  0  0
   61.7150   31.8430   48.8930 C   0  0  0  0  0  0  0  0  0  0  0  0
   61.5890   34.2382   51.3353 H   0  0  0  0  0  0  0  0  0  0  0  0
   59.4210   33.0951   51.7811 H   0  0  0  0  0  0  0  0  0  0  0  0
   58.7126   31.1578   50.3886 H   0  0  0  0  0  0  0  0  0  0  0  0
   61.7005   30.2591   46.8811 H   0  0  0  0  0  0  0  0  0  0  0  0
   60.9833   28.3355   45.4686 H   0  0  0  0  0  0  0  0  0  0  0  0
   59.3406   25.8076   46.2002 H   0  0  0  0  0  0  0  0  0  0  0  0
   57.7373   26.5796   45.9120 H   0  0  0  0  0  0  0  0  0  0  0  0
   58.3594   27.5406   42.6908 H   0  0  0  0  0  0  0  0  0  0  0  0
   57.2206   26.7696   43.8622 H   0  0  0  0  0  0  0  0  0  0  0  0
   57.4581   28.7282   45.3551 H   0  0  0  0  0  0  0  0  0  0  0  0
   56.6139   29.4485   42.4980 H   0  0  0  0  0  0  0  0  0  0  0  0
   55.5959   28.6298   43.7531 H   0  0  0  0  0  0  0  0  0  0  0  0
   55.6751   31.3677   43.2826 H   0  0  0  0  0  0  0  0  0  0  0  0
   55.1232   30.5521   44.8137 H   0  0  0  0  0  0  0  0  0  0  0  0
   56.4274   33.3083   44.2132 H   0  0  0  0  0  0  0  0  0  0  0  0
   55.7890   32.8234   45.8281 H   0  0  0  0  0  0  0  0  0  0  0  0
   58.3577   34.6707   44.0686 H   0  0  0  0  0  0  0  0  0  0  0  0
   60.2629   35.8299   45.1908 H   0  0  0  0  0  0  0  0  0  0  0  0
   60.7879   35.3444   47.5830 H   0  0  0  0  0  0  0  0  0  0  0  0
   59.4091   33.6990   48.8567 H   0  0  0  0  0  0  0  0  0  0  0  0
   57.5040   32.5350   47.7431 H   0  0  0  0  0  0  0  0  0  0  0  0
   58.1842   31.6846   43.1421 H   0  0  0  0  0  0  0  0  0  0  0  0
   59.0669   31.9335   44.6956 H   0  0  0  0  0  0  0  0  0  0  0  0
   59.3194   29.6887   43.1608 H   0  0  0  0  0  0  0  0  0  0  0  0
   59.5129   29.7197   44.9692 H   0  0  0  0  0  0  0  0  0  0  0  0
   57.5889   27.6843   48.0748 H   0  0  0  0  0  0  0  0  0  0  0  0
   58.3025   29.6039   49.4908 H   0  0  0  0  0  0  0  0  0  0  0  0
   62.3549   31.5018   48.0659 H   0  0  0  0  0  0  0  0  0  0  0  0
  1  2  1  0
  2  3  1  0
  2  4  1  0
  2  5  1  0
  5  6  2  0
  6  7  1  0
  7  8  2  0
  8  9  1  0
  9 10  1  0
 10 11  2  0
 11 12  1  0
 12 13  2  0
 13 14  1  0
 14 15  1  0
 15 16  1  0
 16 17  1  0
 17 18  1  0
 18 19  1  0
 19 20  1  0
 20 21  1  0
 21 22  1  0
 22 23  2  0
 23 24  1  0
 24 25  2  0
 25 26  1  0
 26 27  2  0
 20 28  1  0
 28 29  1  0
 13 30  1  0
 30 31  2  0
  9 32  2  0
 32  5  1  0
 31 10  1  0
 29 17  1  0
 27 22  1  0
  6 33  1  0
  7 34  1  0
  8 35  1  0
 11 36  1  0
 12 37  1  0
 14 38  1  0
 14 39  1  0
 16 40  1  0
 16 41  1  0
 17 42  1  0
 18 43  1  0
 18 44  1  0
 19 45  1  0
 19 46  1  0
 21 47  1  0
 21 48  1  0
 23 49  1  0
 24 50  1  0
 25 51  1  0
 26 52  1  0
 27 53  1  0
 28 54  1  0
 28 55  1  0
 29 56  1  0
 29 57  1  0
 30 58  1  0
 31 59  1  0
 32 60  1  0
M  END
>  <UniqueID>  (16) 
16

>  <SMILES>  (16) 
FC(F)(F)c1cccc(-c2ccc(COCC3CCN(Cc4ccccc4)CC3)cc2)c1

>  <Energy>  (16) 
75.57546375040643

>  <Genealogy>  (16) 
FC(F)(F)c1cccc(-c2ccc(COCC3CCN(Cc4ccccc4)CC3)cc2)c1 (3D coordinates assigned)
FC(F)(F)c1cccc(-c2ccc(COCC3CCN(Cc4ccccc4)CC3)cc2)c1 (nonaromatic ring conformer: 75.57546375040643 kcal/mol)

>  <smiles>  (16) 
FC(F)(F)c1cccc(-c2ccc(COCC3CCN(Cc4ccccc4)CC3)cc2)c1

>  <score_type>  (16) 
oracle

>  <origin>  (16) 
adg

>  <m_score__min__energy>  (16) 
-8.6300000000000008

>  <m_primary>  (16) 
energy

$$$$
16:0
     RDKit          3D

 51 51  0  0  0  0  0  0  0  0999 V2000
   60.5990   28.8420   44.9150 C   0  0  0  0  0  0  0  0  0  0  0  0
   59.2670   28.8840   45.6780 C   0  0  0  0  0  0  0  0  0  0  0  0
   58.2080   28.0130   45.1130 N   0  0  0  0  0  0  0  0  0  0  0  0
   58.5270   27.5240   43.7610 C   0  0  0  0  0  0  0  0  0  0  0  0
   56.8510   28.6030   45.1860 C   0  0  0  0  0  0  0  0  0  0  0  0
   56.6350   29.5680   44.0220 C   0  0  0  0  0  0  0  0  0  0  0  0
   56.3040   30.8480   44.5330 O   0  0  0  0  0  0  0  0  0  0  0  0
   57.4690   31.6130   44.7720 C   0  0  0  0  0  0  0  0  0  0  0  0
   57.7720   32.5030   43.5620 C   0  0  0  0  0  0  0  0  0  0  0  0
   58.7470   33.4740   43.8930 O   0  0  0  0  0  0  0  0  0  0  0  0
   58.2700   34.3660   44.8850 C   0  0  0  0  0  0  0  0  0  0  0  0
   59.3680   34.6490   45.9180 C   0  0  0  0  0  0  0  0  0  0  0  0
   59.3980   33.6110   46.9730 N   0  0  0  0  0  0  0  0  0  0  0  0
   59.6560   34.2100   48.2920 C   0  0  0  0  0  0  0  0  0  0  0  0
   60.3110   32.4750   46.6880 C   0  0  0  0  0  0  0  0  0  0  0  0
   61.6120   32.5130   47.4650 C   0  0  0  0  0  0  0  0  0  0  0  0
   62.6400   33.3970   47.0930 C   0  0  0  0  0  0  0  0  0  0  0  0
   63.8310   33.4410   47.8220 C   0  0  0  0  0  0  0  0  0  0  0  0
   64.0060   32.6090   48.9330 C   0  0  0  0  0  0  0  0  0  0  0  0
   65.6310   32.6840   49.9400 Br  0  0  0  0  0  0  0  0  0  0  0  0
   62.9870   31.7320   49.3150 C   0  0  0  0  0  0  0  0  0  0  0  0
   61.7930   31.6860   48.5890 C   0  0  0  0  0  0  0  0  0  0  0  0
   61.4321   28.8157   45.6328 H   0  0  0  0  0  0  0  0  0  0  0  0
   60.6312   27.9424   44.2828 H   0  0  0  0  0  0  0  0  0  0  0  0
   60.6878   29.7378   44.2828 H   0  0  0  0  0  0  0  0  0  0  0  0
   59.4547   28.5685   46.7149 H   0  0  0  0  0  0  0  0  0  0  0  0
   58.8959   29.9168   45.6038 H   0  0  0  0  0  0  0  0  0  0  0  0
   59.1266   26.6048   43.8355 H   0  0  0  0  0  0  0  0  0  0  0  0
   57.5941   27.3102   43.2188 H   0  0  0  0  0  0  0  0  0  0  0  0
   59.0986   28.2917   43.2188 H   0  0  0  0  0  0  0  0  0  0  0  0
   56.1017   27.7993   45.1361 H   0  0  0  0  0  0  0  0  0  0  0  0
   56.7478   29.1526   46.1332 H   0  0  0  0  0  0  0  0  0  0  0  0
   57.5566   29.6371   43.4255 H   0  0  0  0  0  0  0  0  0  0  0  0
   55.8165   29.2014   43.3851 H   0  0  0  0  0  0  0  0  0  0  0  0
   57.3136   32.2451   45.6587 H   0  0  0  0  0  0  0  0  0  0  0  0
   58.3175   30.9336   44.9407 H   0  0  0  0  0  0  0  0  0  0  0  0
   58.1481   31.8784   42.7383 H   0  0  0  0  0  0  0  0  0  0  0  0
   56.8479   33.0160   43.2573 H   0  0  0  0  0  0  0  0  0  0  0  0
   57.9675   35.3103   44.4088 H   0  0  0  0  0  0  0  0  0  0  0  0
   57.4090   33.9082   45.3940 H   0  0  0  0  0  0  0  0  0  0  0  0
   60.3424   34.6692   45.4080 H   0  0  0  0  0  0  0  0  0  0  0  0
   59.1553   35.6184   46.3923 H   0  0  0  0  0  0  0  0  0  0  0  0
   59.3525   33.5054   49.0804 H   0  0  0  0  0  0  0  0  0  0  0  0
   60.7291   34.4309   48.3908 H   0  0  0  0  0  0  0  0  0  0  0  0
   59.0793   35.1415   48.3908 H   0  0  0  0  0  0  0  0  0  0  0  0
   59.7872   31.5405   46.9378 H   0  0  0  0  0  0  0  0  0  0  0  0
   60.5770   32.5430   45.6228 H   0  0  0  0  0  0  0  0  0  0  0  0
   62.5059   34.0574   46.2235 H   0  0  0  0  0  0  0  0  0  0  0  0
   64.6330   34.1314   47.5217 H   0  0  0  0  0  0  0  0  0  0  0  0
   63.1246   31.0771   50.1880 H   0  0  0  0  0  0  0  0  0  0  0  0
   60.9909   30.9997   48.8981 H   0  0  0  0  0  0  0  0  0  0  0  0
  1  2  1  0
  2  3  1  0
  3  4  1  0
  3  5  1  0
  5  6  1  0
  6  7  1  0
  7  8  1  0
  8  9  1  0
  9 10  1  0
 10 11  1  0
 11 12  1  0
 12 13  1  0
 13 14  1  0
 13 15  1  0
 15 16  1  0
 16 17  2  0
 17 18  1  0
 18 19  2  0
 19 20  1  0
 19 21  1  0
 21 22  2  0
 22 16  1  0
  1 23  1  0
  1 24  1  0
  1 25  1  0
  2 26  1  0
  2 27  1  0
  4 28  1  0
  4 29  1  0
  4 30  1  0
  5 31  1  0
  5 32  1  0
  6 33  1  0
  6 34  1  0
  8 35  1  0
  8 36  1  0
  9 37  1  0
  9 38  1  0
 11 39  1  0
 11 40  1  0
 12 41  1  0
 12 42  1  0
 14 43  1  0
 14 44  1  0
 14 45  1  0
 15 46  1  0
 15 47  1  0
 17 48  1  0
 18 49  1  0
 21 50  1  0
 22 51  1  0
M  END
>  <UniqueID>  (17) 
17

>  <SMILES>  (17) 
CCN(C)CCOCCOCCN(C)Cc1ccc(Br)cc1

>  <Energy>  (17) 
55.00317193079929

>  <Genealogy>  (17) 
CCN(C)CCOCCOCCN(C)Cc1ccc(Br)cc1 (3D coordinates assigned)
CCN(C)CCOCCOCCN(C)Cc1ccc(Br)cc1 (optimized conformer: 55.00317193079929 kcal/mol)

>  <smiles>  (17) 
CCN(C)CCOCCOCCN(C)Cc1ccc(Br)cc1

>  <score_type>  (17) 
oracle

>  <origin>  (17) 
adg

>  <m_score__min__energy>  (17) 
-6.3399999999999999

>  <m_primary>  (17) 
energy

$$$$
17:0
     RDKit          3D

 62 66  0  0  0  0  0  0  0  0999 V2000
   67.4080   34.5560   51.5440 C   0  0  0  0  0  0  0  0  0  0  0  0
   67.8750   33.5330   50.5040 C   0  0  0  0  0  0  0  0  0  0  0  0
   66.7580   32.7180   49.9560 N   0  0  0  0  0  0  0  0  0  0  0  0
   66.7980   31.3320   50.4940 C   0  0  0  0  0  0  0  0  0  0  0  0
   66.1070   31.1670   51.8580 C   0  0  0  0  0  0  0  0  0  0  0  0
   65.4250   33.3540   50.1690 C   0  0  0  0  0  0  0  0  0  0  0  0
   64.4770   33.1340   48.9760 C   0  0  0  0  0  0  0  0  0  0  0  0
   63.0970   33.4560   49.3380 N   0  0  0  0  0  0  0  0  0  0  0  0
   62.0160   32.5490   49.0680 C   0  0  0  0  0  0  0  0  0  0  0  0
   61.9760   31.2820   49.6780 C   0  0  0  0  0  0  0  0  0  0  0  0
   62.9660   30.8840   50.6010 C   0  0  0  0  0  0  0  0  0  0  0  0
   62.8960   29.6400   51.2250 C   0  0  0  0  0  0  0  0  0  0  0  0
   61.8350   28.7820   50.9540 C   0  0  0  0  0  0  0  0  0  0  0  0
   60.8310   29.1650   50.0660 C   0  0  0  0  0  0  0  0  0  0  0  0
   60.8770   30.4230   49.4150 C   0  0  0  0  0  0  0  0  0  0  0  0
   59.8740   30.8250   48.5580 N   0  0  0  0  0  0  0  0  0  0  0  0
   58.5290   30.2210   48.7040 C   0  0  0  0  0  0  0  0  0  0  0  0
   60.0540   31.9400   47.7610 C   0  0  0  0  0  0  0  0  0  0  0  0
   61.0100   32.9070   48.1540 C   0  0  0  0  0  0  0  0  0  0  0  0
   60.9240   34.2150   47.6480 C   0  0  0  0  0  0  0  0  0  0  0  0
   59.9150   34.5600   46.7550 C   0  0  0  0  0  0  0  0  0  0  0  0
   59.0870   33.5730   46.2150 C   0  0  0  0  0  0  0  0  0  0  0  0
   58.1270   33.9230   45.2570 C   0  0  0  0  0  0  0  0  0  0  0  0
   57.3920   32.9380   44.6040 C   0  0  0  0  0  0  0  0  0  0  0  0
   57.6890   31.5870   44.8120 C   0  0  0  0  0  0  0  0  0  0  0  0
   57.0650   30.6070   44.0240 C   0  0  0  0  0  0  0  0  0  0  0  0
   57.4630   29.2730   44.1160 C   0  0  0  0  0  0  0  0  0  0  0  0
   58.5060   28.9130   44.9670 C   0  0  0  0  0  0  0  0  0  0  0  0
   59.1220   29.8760   45.7700 C   0  0  0  0  0  0  0  0  0  0  0  0
   58.6720   31.2140   45.7700 C   0  0  0  0  0  0  0  0  0  0  0  0
   59.2500   32.2180   46.6060 C   0  0  0  0  0  0  0  0  0  0  0  0
   67.5886   34.1603   52.5544 H   0  0  0  0  0  0  0  0  0  0  0  0
   67.9670   35.4941   51.4123 H   0  0  0  0  0  0  0  0  0  0  0  0
   66.3330   34.7482   51.4123 H   0  0  0  0  0  0  0  0  0  0  0  0
   68.3580   34.0703   49.6745 H   0  0  0  0  0  0  0  0  0  0  0  0
   68.5721   32.8454   51.0053 H   0  0  0  0  0  0  0  0  0  0  0  0
   66.9300   32.6100   48.9270 H   0  0  0  0  0  0  0  0  0  0  0  0
   66.3009   30.6670   49.7724 H   0  0  0  0  0  0  0  0  0  0  0  0
   67.8584   31.0806   50.6435 H   0  0  0  0  0  0  0  0  0  0  0  0
   66.8369   31.3413   52.6623 H   0  0  0  0  0  0  0  0  0  0  0  0
   65.2863   31.8944   51.9437 H   0  0  0  0  0  0  0  0  0  0  0  0
   65.7035   30.1473   51.9437 H   0  0  0  0  0  0  0  0  0  0  0  0
   64.9662   32.9212   51.0702 H   0  0  0  0  0  0  0  0  0  0  0  0
   65.5820   34.4371   50.2796 H   0  0  0  0  0  0  0  0  0  0  0  0
   64.7907   33.7803   48.1430 H   0  0  0  0  0  0  0  0  0  0  0  0
   64.5244   32.0754   48.6807 H   0  0  0  0  0  0  0  0  0  0  0  0
   62.8870   34.3700   49.7990 H   0  0  0  0  0  0  0  0  0  0  0  0
   63.8012   31.5622   50.8303 H   0  0  0  0  0  0  0  0  0  0  0  0
   63.6810   29.3359   51.9330 H   0  0  0  0  0  0  0  0  0  0  0  0
   61.7881   27.7975   51.4424 H   0  0  0  0  0  0  0  0  0  0  0  0
   59.9920   28.4818   49.8680 H   0  0  0  0  0  0  0  0  0  0  0  0
   58.2894   30.1134   49.7722 H   0  0  0  0  0  0  0  0  0  0  0  0
   57.7816   30.8699   48.2241 H   0  0  0  0  0  0  0  0  0  0  0  0
   58.5175   29.2313   48.2241 H   0  0  0  0  0  0  0  0  0  0  0  0
   61.6595   34.9711   47.9602 H   0  0  0  0  0  0  0  0  0  0  0  0
   59.7686   35.6132   46.4732 H   0  0  0  0  0  0  0  0  0  0  0  0
   57.9530   34.9828   45.0193 H   0  0  0  0  0  0  0  0  0  0  0  0
   56.5761   33.2223   43.9232 H   0  0  0  0  0  0  0  0  0  0  0  0
   56.2593   30.8919   43.3315 H   0  0  0  0  0  0  0  0  0  0  0  0
   56.9530   28.5048   43.5162 H   0  0  0  0  0  0  0  0  0  0  0  0
   58.8453   27.8674   45.0066 H   0  0  0  0  0  0  0  0  0  0  0  0
   59.9686   29.5879   46.4105 H   0  0  0  0  0  0  0  0  0  0  0  0
  1  2  1  0
  2  3  1  0
  3  4  1  0
  4  5  1  0
  3  6  1  0
  6  7  1  0
  7  8  1  0
  8  9  1  0
  9 10  2  0
 10 11  1  0
 11 12  2  0
 12 13  1  0
 13 14  2  0
 14 15  1  0
 15 16  2  0
 16 17  1  0
 16 18  1  0
 18 19  2  0
 19 20  1  0
 20 21  2  0
 21 22  1  0
 22 23  2  0
 23 24  1  0
 24 25  2  0
 25 26  1  0
 26 27  2  0
 27 28  1  0
 28 29  2  0
 29 30  1  0
 30 31  2  0
 19  9  1  0
 31 22  1  0
 15 10  1  0
 31 18  1  0
 30 25  1  0
  1 32  1  0
  1 33  1  0
  1 34  1  0
  2 35  1  0
  2 36  1  0
  3 37  1  0
  4 38  1  0
  4 39  1  0
  5 40  1  0
  5 41  1  0
  5 42  1  0
  6 43  1  0
  6 44  1  0
  7 45  1  0
  7 46  1  0
  8 47  1  0
 11 48  1  0
 12 49  1  0
 13 50  1  0
 14 51  1  0
 17 52  1  0
 17 53  1  0
 17 54  1  0
 20 55  1  0
 21 56  1  0
 23 57  1  0
 24 58  1  0
 26 59  1  0
 27 60  1  0
 28 61  1  0
 29 62  1  0
M  CHG  2   3   1  16   1
M  END
>  <UniqueID>  (18) 
18

>  <SMILES>  (18) 
CC[NH+](CC)CCNc1c2ccccc2[n+](C)c2c1ccc1ccc3ccccc3c12

>  <Energy>  (18) 
123.11319837451423

>  <Genealogy>  (18) 
CC[NH+](CC)CCNc1c2ccccc2[n+](C)c2c1ccc1ccc3ccccc3c12 (protonated)
CC[NH+](CC)CCNc1c2ccccc2[n+](C)c2c1ccc1ccc3ccccc3c12 (3D coordinates assigned)
CC[NH+](CC)CCNc1c2ccccc2[n+](C)c2c1ccc1ccc3ccccc3c12 (optimized conformer: 123.11319837451423 kcal/mol)

>  <smiles>  (18) 
CCN(CC)CCNc1c2ccccc2[n+](C)c2c1ccc1ccc3ccccc3c12

>  <score_type>  (18) 
oracle

>  <origin>  (18) 
adg

>  <m_score__min__energy>  (18) 
-6.0899999999999999

>  <m_primary>  (18) 
energy

$$$$
18:0
     RDKit          3D

 46 47  0  0  0  0  0  0  0  0999 V2000
   60.3770   28.0290   46.8500 C   0  0  0  0  0  0  0  0  0  0  0  0
   60.5120   29.0480   45.7230 C   0  0  0  0  0  0  0  0  0  0  0  0
   59.6790   28.6430   44.5020 C   0  0  0  0  0  0  0  0  0  0  0  0
   58.2840   28.3780   44.8930 N   0  0  0  0  0  0  0  0  0  0  0  0
   57.3410   29.4740   44.9210 C   0  0  0  0  0  0  0  0  0  0  0  0
   56.1080   29.2460   44.8020 O   0  0  0  0  0  0  0  0  0  0  0  0
   57.8030   30.8710   45.0760 C   0  0  0  0  0  0  0  0  0  0  0  0
   58.3320   31.2900   46.3080 C   0  0  0  0  0  0  0  0  0  0  0  0
   58.7860   32.5990   46.4760 C   0  0  0  0  0  0  0  0  0  0  0  0
   58.7220   33.5040   45.4150 C   0  0  0  0  0  0  0  0  0  0  0  0
   59.3070   35.1860   45.6340 S   0  0  0  0  0  0  0  0  0  0  0  0
   59.6150   34.9730   47.4150 C   0  0  0  0  0  0  0  0  0  0  0  0
   58.2110   33.0970   44.1780 C   0  0  0  0  0  0  0  0  0  0  0  0
   57.7430   31.7800   43.9970 C   0  0  0  0  0  0  0  0  0  0  0  0
   57.2020   31.3500   42.7730 O   0  0  0  0  0  0  0  0  0  0  0  0
   57.4090   32.0020   41.5240 C   0  0  0  0  0  0  0  0  0  0  0  0
   57.9000   27.0190   45.3290 C   0  0  2  0  0  0  0  0  0  0  0  0
   57.6500   26.0580   44.1480 C   0  0  0  0  0  0  0  0  0  0  0  0
   56.9210   24.8310   44.6880 C   0  0  0  0  0  0  0  0  0  0  0  0
   55.9390   25.4290   46.0330 S   0  0  0  0  0  0  0  0  0  0  0  0
   54.4880   25.5280   45.6550 O   0  0  0  0  0  0  0  0  0  0  0  0
   56.1120   24.5830   47.2630 O   0  0  0  0  0  0  0  0  0  0  0  0
   56.6640   27.0300   46.2350 C   0  0  0  0  0  0  0  0  0  0  0  0
   60.4452   28.5437   47.8198 H   0  0  0  0  0  0  0  0  0  0  0  0
   59.4039   27.5222   46.7715 H   0  0  0  0  0  0  0  0  0  0  0  0
   61.1846   27.2863   46.7715 H   0  0  0  0  0  0  0  0  0  0  0  0
   60.1664   30.0282   46.0832 H   0  0  0  0  0  0  0  0  0  0  0  0
   61.5690   29.0940   45.4219 H   0  0  0  0  0  0  0  0  0  0  0  0
   59.6992   29.4582   43.7637 H   0  0  0  0  0  0  0  0  0  0  0  0
   60.1065   27.7271   44.0681 H   0  0  0  0  0  0  0  0  0  0  0  0
   58.3889   30.5808   47.1469 H   0  0  0  0  0  0  0  0  0  0  0  0
   59.1949   32.9181   47.4460 H   0  0  0  0  0  0  0  0  0  0  0  0
   58.8423   35.5074   47.9872 H   0  0  0  0  0  0  0  0  0  0  0  0
   59.5836   33.9027   47.6671 H   0  0  0  0  0  0  0  0  0  0  0  0
   60.6053   35.3802   47.6671 H   0  0  0  0  0  0  0  0  0  0  0  0
   58.1742   33.8097   43.3409 H   0  0  0  0  0  0  0  0  0  0  0  0
   57.7375   33.0368   41.7006 H   0  0  0  0  0  0  0  0  0  0  0  0
   58.1807   31.4646   40.9533 H   0  0  0  0  0  0  0  0  0  0  0  0
   56.4686   32.0082   40.9533 H   0  0  0  0  0  0  0  0  0  0  0  0
   58.7637   26.6487   45.9008 H   0  0  0  0  0  0  0  0  0  0  0  0
   57.0315   26.5550   43.3862 H   0  0  0  0  0  0  0  0  0  0  0  0
   58.6034   25.7642   43.6846 H   0  0  0  0  0  0  0  0  0  0  0  0
   56.2812   24.3890   43.9100 H   0  0  0  0  0  0  0  0  0  0  0  0
   57.6208   24.0448   45.0077 H   0  0  0  0  0  0  0  0  0  0  0  0
   55.9610   27.8158   45.9214 H   0  0  0  0  0  0  0  0  0  0  0  0
   56.9207   27.2395   47.2839 H   0  0  0  0  0  0  0  0  0  0  0  0
  1  2  1  0
  2  3  1  0
  3  4  1  0
  4  5  1  0
  5  6  2  0
  5  7  1  0
  7  8  2  0
  8  9  1  0
  9 10  2  0
 10 11  1  0
 11 12  1  0
 10 13  1  0
 13 14  2  0
 14 15  1  0
 15 16  1  0
  4 17  1  0
 17 18  1  0
 18 19  1  0
 19 20  1  0
 20 21  2  0
 20 22  2  0
 20 23  1  0
 14  7  1  0
 23 17  1  0
  1 24  1  0
  1 25  1  0
  1 26  1  0
  2 27  1  0
  2 28  1  0
  3 29  1  0
  3 30  1  0
  8 31  1  0
  9 32  1  0
 12 33  1  0
 12 34  1  0
 12 35  1  0
 13 36  1  0
 16 37  1  0
 16 38  1  0
 16 39  1  0
 17 40  1  1
 18 41  1  0
 18 42  1  0
 19 43  1  0
 19 44  1  0
 23 45  1  0
 23 46  1  0
M  END
>  <UniqueID>  (19) 
19

>  <SMILES>  (19) 
CCCN(C(=O)c1ccc(SC)cc1OC)[C@@H]1CCS(=O)(=O)C1

>  <Energy>  (19) 
39.199835741545236

>  <Genealogy>  (19) 
CCCN(C(=O)c1ccc(SC)cc1OC)[C@@H]1CCS(=O)(=O)C1 (chirality)
CCCN(C(=O)c1ccc(SC)cc1OC)[C@@H]1CCS(=O)(=O)C1 (3D coordinates assigned)
CCCN(C(=O)c1ccc(SC)cc1OC)[C@@H]1CCS(=O)(=O)C1 (nonaromatic ring conformer: 39.199835741545236 kcal/mol)

>  <smiles>  (19) 
CCCN(C(=O)c1ccc(SC)cc1OC)C1CCS(=O)(=O)C1

>  <score_type>  (19) 
oracle

>  <origin>  (19) 
adg

>  <m_score__min__energy>  (19) 
-7.8300000000000001

>  <m_primary>  (19) 
energy

$$$$
19:0
     RDKit          3D

 33 34  0  0  0  0  0  0  0  0999 V2000
   56.4253   31.9697   44.0437 H   0  0  0  0  0  0  0  0  0  0  0  0
   57.3050   31.7080   44.6500 C   0  0  0  0  0  0  0  0  0  0  0  0
   57.6440   30.4070   44.7080 C   0  0  0  0  0  0  0  0  0  0  0  0
   59.3070   29.7580   44.6170 S   0  0  0  0  0  0  0  0  0  0  0  0
   58.5450   28.1810   44.2330 C   0  0  0  0  0  0  0  0  0  0  0  0
   59.1610   27.3240   43.6180 O   0  0  0  0  0  0  0  0  0  0  0  0
   57.1620   27.9960   44.5900 N   0  0  1  0  0  0  0  0  0  0  0  0
   56.6440   27.5230   43.8120 H   0  0  0  0  0  0  0  0  0  0  0  0
   57.0330   27.2510   45.8580 C   0  0  0  0  0  0  0  0  0  0  0  0
   56.3257   27.7797   46.5139 H   0  0  0  0  0  0  0  0  0  0  0  0
   58.0261   27.1887   46.3268 H   0  0  0  0  0  0  0  0  0  0  0  0
   56.5320   25.8560   45.6220 C   0  0  0  0  0  0  0  0  0  0  0  0
   55.8210   25.2910   46.4970 O   0  0  0  0  0  0  0  0  0  0  0  0
   56.8260   25.2150   44.4140 O   0  0  0  0  0  0  0  0  0  0  0  0
   56.0900   24.0970   43.9190 C   0  0  0  0  0  0  0  0  0  0  0  0
   55.6124   24.3717   42.9669 H   0  0  0  0  0  0  0  0  0  0  0  0
   55.3275   23.8182   44.6612 H   0  0  0  0  0  0  0  0  0  0  0  0
   57.0120   22.9050   43.6910 C   0  0  0  0  0  0  0  0  0  0  0  0
   57.3287   22.4955   44.6616 H   0  0  0  0  0  0  0  0  0  0  0  0
   56.4759   22.1301   43.1234 H   0  0  0  0  0  0  0  0  0  0  0  0
   57.8968   23.2291   43.1234 H   0  0  0  0  0  0  0  0  0  0  0  0
   56.6550   29.3280   44.7450 C   0  0  0  0  0  0  0  0  0  0  0  0
   55.4180   29.5480   44.8710 O   0  0  0  0  0  0  0  0  0  0  0  0
   58.0110   32.8200   45.3300 C   0  0  0  0  0  0  0  0  0  0  0  0
   58.0580   32.9080   46.6900 N   0  0  0  0  0  0  0  0  0  0  0  0
   58.6850   33.9310   47.3280 C   0  0  0  0  0  0  0  0  0  0  0  0
   58.7038   33.9637   48.4274 H   0  0  0  0  0  0  0  0  0  0  0  0
   59.3050   34.9400   46.5900 C   0  0  0  0  0  0  0  0  0  0  0  0
   59.8159   35.7695   47.1008 H   0  0  0  0  0  0  0  0  0  0  0  0
   59.2690   34.8840   45.1960 C   0  0  0  0  0  0  0  0  0  0  0  0
   59.7518   35.6722   44.5997 H   0  0  0  0  0  0  0  0  0  0  0  0
   58.6180   33.8240   44.5600 C   0  0  0  0  0  0  0  0  0  0  0  0
   58.5814   33.7767   43.4616 H   0  0  0  0  0  0  0  0  0  0  0  0
  1  2  1  0
  2  3  2  0
  3  4  1  0
  4  5  1  0
  5  6  2  0
  5  7  1  0
  7  8  1  6
  7  9  1  0
  9 10  1  0
  9 11  1  0
  9 12  1  0
 12 13  2  0
 12 14  1  0
 14 15  1  0
 15 16  1  0
 15 17  1  0
 15 18  1  0
 18 19  1  0
 18 20  1  0
 18 21  1  0
  7 22  1  0
 22 23  2  0
  2 24  1  0
 24 25  2  0
 25 26  1  0
 26 27  1  0
 26 28  2  0
 28 29  1  0
 28 30  1  0
 30 31  1  0
 30 32  2  0
 32 33  1  0
 22  3  1  0
 32 24  1  0
M  CHG  1   7   1
M  END
>  <UniqueID>  (20) 
20

>  <SMILES>  (20) 
CCOC(=O)C[N@@H+]1C(=O)S/C(=C\c2ccccn2)C1=O

>  <Energy>  (20) 
48.62506466592045

>  <Genealogy>  (20) 
CCOC(=O)C[NH+]1C(=O)SC(=Cc2ccccn2)C1=O (protonated)
CCOC(=O)C[N@@H+]1C(=O)SC(=Cc2ccccn2)C1=O (chirality)
CCOC(=O)C[N@@H+]1C(=O)S/C(=C\c2ccccn2)C1=O (cis-trans isomerization)
CCOC(=O)C[N@@H+]1C(=O)S/C(=C\c2ccccn2)C1=O (3D coordinates assigned)
CCOC(=O)C[N@@H+]1C(=O)S/C(=C\c2ccccn2)C1=O (nonaromatic ring conformer: 48.62506466592045 kcal/mol)

>  <smiles>  (20) 
CCOC(=O)CN1C(=O)SC(=Cc2ccccn2)C1=O

>  <score_type>  (20) 
oracle

>  <origin>  (20) 
adg

>  <m_score__min__energy>  (20) 
-5.96

>  <m_primary>  (20) 
energy

$$$$
20:0
     RDKit          3D

 39 42  0  0  0  0  0  0  0  0999 V2000
   60.7710   28.9650   44.8890 C   0  0  0  0  0  0  0  0  0  0  0  0
   60.8240   29.6250   46.2610 C   0  0  0  0  0  0  0  0  0  0  0  0
   60.0400   30.8660   46.2630 N   0  0  0  0  0  0  0  0  0  0  0  0
   58.7520   31.0290   45.8490 C   0  0  0  0  0  0  0  0  0  0  0  0
   57.9790   30.0090   45.1970 N   0  0  0  0  0  0  0  0  0  0  0  0
   57.7080   28.7550   45.9060 C   0  0  0  0  0  0  0  0  0  0  0  0
   56.5430   28.0210   45.2440 C   0  0  0  0  0  0  0  0  0  0  0  0
   55.5200   28.9500   44.9580 O   0  0  0  0  0  0  0  0  0  0  0  0
   55.8860   29.7840   43.8690 C   0  0  0  0  0  0  0  0  0  0  0  0
   57.3610   30.2560   43.8900 C   0  0  0  0  0  0  0  0  0  0  0  0
   58.2280   32.2430   46.1480 N   0  0  0  0  0  0  0  0  0  0  0  0
   59.2400   32.8600   46.7790 C   0  0  0  0  0  0  0  0  0  0  0  0
   59.2240   34.1410   47.3260 C   0  0  0  0  0  0  0  0  0  0  0  0
   60.3760   34.5920   47.9940 C   0  0  0  0  0  0  0  0  0  0  0  0
   61.5100   33.7530   48.1060 C   0  0  0  0  0  0  0  0  0  0  0  0
   62.6610   34.1820   48.7780 C   0  0  0  0  0  0  0  0  0  0  0  0
   63.7640   33.3310   48.8800 C   0  0  0  0  0  0  0  0  0  0  0  0
   63.7080   32.0570   48.3100 C   0  0  0  0  0  0  0  0  0  0  0  0
   62.5870   31.6490   47.6580 N   0  0  0  0  0  0  0  0  0  0  0  0
   61.4950   32.4510   47.5390 C   0  0  0  0  0  0  0  0  0  0  0  0
   60.3320   32.0390   46.8670 C   0  0  0  0  0  0  0  0  0  0  0  0
   60.6835   27.8751   45.0095 H   0  0  0  0  0  0  0  0  0  0  0  0
   59.9004   29.3435   44.3334 H   0  0  0  0  0  0  0  0  0  0  0  0
   61.6909   29.1998   44.3334 H   0  0  0  0  0  0  0  0  0  0  0  0
   60.4115   28.9346   47.0114 H   0  0  0  0  0  0  0  0  0  0  0  0
   61.8704   29.8639   46.5016 H   0  0  0  0  0  0  0  0  0  0  0  0
   58.6044   28.1182   45.8751 H   0  0  0  0  0  0  0  0  0  0  0  0
   57.4459   28.9803   46.9503 H   0  0  0  0  0  0  0  0  0  0  0  0
   56.8857   27.5504   44.3107 H   0  0  0  0  0  0  0  0  0  0  0  0
   56.1606   27.2425   45.9206 H   0  0  0  0  0  0  0  0  0  0  0  0
   55.7170   29.2256   42.9365 H   0  0  0  0  0  0  0  0  0  0  0  0
   55.2663   30.6895   43.9459 H   0  0  0  0  0  0  0  0  0  0  0  0
   57.9234   29.7099   43.1184 H   0  0  0  0  0  0  0  0  0  0  0  0
   57.3830   31.3381   43.6935 H   0  0  0  0  0  0  0  0  0  0  0  0
   58.3345   34.7821   47.2377 H   0  0  0  0  0  0  0  0  0  0  0  0
   60.3959   35.6011   48.4313 H   0  0  0  0  0  0  0  0  0  0  0  0
   62.6966   35.1867   49.2245 H   0  0  0  0  0  0  0  0  0  0  0  0
   64.6714   33.6622   49.4062 H   0  0  0  0  0  0  0  0  0  0  0  0
   64.5731   31.3822   48.3889 H   0  0  0  0  0  0  0  0  0  0  0  0
  1  2  1  0
  2  3  1  0
  3  4  1  0
  4  5  1  0
  5  6  1  0
  6  7  1  0
  7  8  1  0
  8  9  1  0
  9 10  1  0
  4 11  2  0
 11 12  1  0
 12 13  2  0
 13 14  1  0
 14 15  2  0
 15 16  1  0
 16 17  2  0
 17 18  1  0
 18 19  2  0
 19 20  1  0
 20 21  2  0
 21  3  1  0
 10  5  1  0
 21 12  1  0
 20 15  1  0
  1 22  1  0
  1 23  1  0
  1 24  1  0
  2 25  1  0
  2 26  1  0
  6 27  1  0
  6 28  1  0
  7 29  1  0
  7 30  1  0
  9 31  1  0
  9 32  1  0
 10 33  1  0
 10 34  1  0
 13 35  1  0
 14 36  1  0
 16 37  1  0
 17 38  1  0
 18 39  1  0
M  END
>  <UniqueID>  (21) 
21

>  <SMILES>  (21) 
CCn1c(N2CCOCC2)nc2ccc3cccnc3c21

>  <Energy>  (21) 
92.49676286518155

>  <Genealogy>  (21) 
CCn1c(N2CCOCC2)nc2ccc3cccnc3c21 (3D coordinates assigned)
CCn1c(N2CCOCC2)nc2ccc3cccnc3c21 (nonaromatic ring conformer: 92.49676286518155 kcal/mol)

>  <smiles>  (21) 
CCn1c(N2CCOCC2)nc2ccc3cccnc3c21

>  <score_type>  (21) 
oracle

>  <origin>  (21) 
adg

>  <m_score__min__energy>  (21) 
-7.1100000000000003

>  <m_primary>  (21) 
energy

$$$$
21:0
     RDKit          3D

 34 37  0  0  0  0  0  0  0  0999 V2000
   58.2630   22.4850   45.3610 C   0  0  0  0  0  0  0  0  0  0  0  0
   58.1320   23.4890   46.3620 O   0  0  0  0  0  0  0  0  0  0  0  0
   57.9350   24.8520   46.0960 C   0  0  0  0  0  0  0  0  0  0  0  0
   58.9830   25.7020   45.6930 C   0  0  0  0  0  0  0  0  0  0  0  0
   58.7360   27.0540   45.4390 C   0  0  0  0  0  0  0  0  0  0  0  0
   57.4420   27.5800   45.5820 C   0  0  0  0  0  0  0  0  0  0  0  0
   57.1890   29.0080   45.3120 C   0  0  0  0  0  0  0  0  0  0  0  0
   56.1020   29.4850   44.6740 N   0  0  0  0  0  0  0  0  0  0  0  0
   56.2430   30.8010   44.6300 N   0  0  0  0  0  0  0  0  0  0  0  0
   57.4100   31.0770   45.2410 C   0  0  0  0  0  0  0  0  0  0  0  0
   57.9510   32.4320   45.4120 C   0  0  0  0  0  0  0  0  0  0  0  0
   57.9150   33.4610   44.4720 C   0  0  0  0  0  0  0  0  0  0  0  0
   58.5070   34.5750   44.9640 N   0  0  0  0  0  0  0  0  0  0  0  0
   58.9110   34.2510   46.2020 C   0  0  0  0  0  0  0  0  0  0  0  0
   59.5580   35.0700   47.0690 N   0  0  0  0  0  0  0  0  0  0  0  0
   59.9060   34.5910   48.3010 C   0  0  0  0  0  0  0  0  0  0  0  0
   59.5970   33.2610   48.6680 C   0  0  0  0  0  0  0  0  0  0  0  0
   58.9280   32.4230   47.7600 C   0  0  0  0  0  0  0  0  0  0  0  0
   58.5950   32.9580   46.5170 C   0  0  0  0  0  0  0  0  0  0  0  0
   57.9950   29.9830   45.6620 O   0  0  0  0  0  0  0  0  0  0  0  0
   56.3990   26.7300   45.9840 C   0  0  0  0  0  0  0  0  0  0  0  0
   56.6470   25.3790   46.2370 C   0  0  0  0  0  0  0  0  0  0  0  0
   58.3911   21.5034   45.8407 H   0  0  0  0  0  0  0  0  0  0  0  0
   57.3590   22.4717   44.7345 H   0  0  0  0  0  0  0  0  0  0  0  0
   59.1402   22.7041   44.7345 H   0  0  0  0  0  0  0  0  0  0  0  0
   60.0004   25.3001   45.5776 H   0  0  0  0  0  0  0  0  0  0  0  0
   59.5609   27.7104   45.1249 H   0  0  0  0  0  0  0  0  0  0  0  0
   57.4680   33.3793   43.4703 H   0  0  0  0  0  0  0  0  0  0  0  0
   58.6240   35.4920   44.4800 H   0  0  0  0  0  0  0  0  0  0  0  0
   60.4306   35.2455   49.0126 H   0  0  0  0  0  0  0  0  0  0  0  0
   59.8796   32.8833   49.6617 H   0  0  0  0  0  0  0  0  0  0  0  0
   58.6767   31.3842   48.0204 H   0  0  0  0  0  0  0  0  0  0  0  0
   55.3811   27.1304   46.1003 H   0  0  0  0  0  0  0  0  0  0  0  0
   55.8214   24.7230   46.5502 H   0  0  0  0  0  0  0  0  0  0  0  0
  1  2  1  0
  2  3  1  0
  3  4  2  0
  4  5  1  0
  5  6  2  0
  6  7  1  0
  7  8  2  0
  8  9  1  0
  9 10  2  0
 10 11  1  0
 11 12  2  0
 12 13  1  0
 13 14  1  0
 14 15  2  0
 15 16  1  0
 16 17  2  0
 17 18  1  0
 18 19  2  0
 10 20  1  0
  6 21  1  0
 21 22  2  0
 22  3  1  0
 20  7  1  0
 19 11  1  0
 19 14  1  0
  1 23  1  0
  1 24  1  0
  1 25  1  0
  4 26  1  0
  5 27  1  0
 12 28  1  0
 13 29  1  0
 16 30  1  0
 17 31  1  0
 18 32  1  0
 21 33  1  0
 22 34  1  0
M  END
>  <UniqueID>  (22) 
22

>  <SMILES>  (22) 
COc1ccc(-c2nnc(-c3c[nH]c4ncccc34)o2)cc1

>  <Energy>  (22) 
107.49592000994576

>  <Genealogy>  (22) 
COc1ccc(-c2nnc(-c3c[nH]c4ncccc34)o2)cc1 (3D coordinates assigned)
COc1ccc(-c2nnc(-c3c[nH]c4ncccc34)o2)cc1 (optimized conformer: 107.49592000994576 kcal/mol)

>  <smiles>  (22) 
COc1ccc(-c2nnc(-c3c[nH]c4ncccc34)o2)cc1

>  <score_type>  (22) 
oracle

>  <origin>  (22) 
adg

>  <m_score__min__energy>  (22) 
-7.1799999999999997

>  <m_primary>  (22) 
energy

$$$$
22:0
     RDKit          3D

 57 61  0  0  0  0  0  0  0  0999 V2000
   57.3010   32.3540   40.7590 C   0  0  0  0  0  0  0  0  0  0  0  0
   57.4630   31.9680   42.2000 C   0  0  0  0  0  0  0  0  0  0  0  0
   57.0230   30.7120   42.6430 C   0  0  0  0  0  0  0  0  0  0  0  0
   57.2040   30.3270   43.9720 C   0  0  0  0  0  0  0  0  0  0  0  0
   57.8430   31.1870   44.8760 C   0  0  0  0  0  0  0  0  0  0  0  0
   58.0320   30.8080   46.2170 C   0  0  0  0  0  0  0  0  0  0  0  0
   58.6740   31.6690   47.1270 C   0  0  0  0  0  0  0  0  0  0  0  0
   58.8490   31.2400   48.5720 C   0  0  0  0  0  0  0  0  0  0  0  0
   60.0760   30.4260   48.7710 N   0  0  0  0  0  0  0  0  0  0  0  0
   60.7250   30.8400   50.0440 C   0  0  0  0  0  0  0  0  0  0  0  0
   62.1140   31.4040   49.8450 C   0  0  0  0  0  0  0  0  0  0  0  0
   63.1200   31.1740   50.8000 C   0  0  0  0  0  0  0  0  0  0  0  0
   64.3980   31.7140   50.6220 C   0  0  0  0  0  0  0  0  0  0  0  0
   64.6870   32.4700   49.4810 C   0  0  0  0  0  0  0  0  0  0  0  0
   65.9260   32.9950   49.3110 F   0  0  0  0  0  0  0  0  0  0  0  0
   63.7000   32.6810   48.5140 C   0  0  0  0  0  0  0  0  0  0  0  0
   62.4200   32.1460   48.6910 C   0  0  0  0  0  0  0  0  0  0  0  0
   59.7410   28.9710   48.7700 C   0  0  0  0  0  0  0  0  0  0  0  0
   59.4610   28.4380   47.3820 C   0  0  0  0  0  0  0  0  0  0  0  0
   60.3470   28.7040   46.3220 C   0  0  0  0  0  0  0  0  0  0  0  0
   60.0770   28.2220   45.0380 C   0  0  0  0  0  0  0  0  0  0  0  0
   58.9330   27.4540   44.8040 C   0  0  0  0  0  0  0  0  0  0  0  0
   58.6730   26.9880   43.5590 F   0  0  0  0  0  0  0  0  0  0  0  0
   58.0640   27.1560   45.8570 C   0  0  0  0  0  0  0  0  0  0  0  0
   58.3310   27.6370   47.1430 C   0  0  0  0  0  0  0  0  0  0  0  0
   59.1160   32.9110   46.6370 C   0  0  0  0  0  0  0  0  0  0  0  0
   59.7610   33.9300   47.3210 C   0  0  0  0  0  0  0  0  0  0  0  0
   59.9680   34.9370   46.3950 C   0  0  0  0  0  0  0  0  0  0  0  0
   59.4470   34.5000   45.1910 C   0  0  0  0  0  0  0  0  0  0  0  0
   58.9280   33.2620   45.3470 N   0  0  0  0  0  0  0  0  0  0  0  0
   58.3070   32.4530   44.4370 C   0  0  0  0  0  0  0  0  0  0  0  0
   58.1190   32.8300   43.0940 C   0  0  0  0  0  0  0  0  0  0  0  0
   56.8760   33.3666   40.6962 H   0  0  0  0  0  0  0  0  0  0  0  0
   58.2823   32.3367   40.2622 H   0  0  0  0  0  0  0  0  0  0  0  0
   56.6260   31.6416   40.2622 H   0  0  0  0  0  0  0  0  0  0  0  0
   56.5317   30.0256   41.9377 H   0  0  0  0  0  0  0  0  0  0  0  0
   56.8438   29.3447   44.3117 H   0  0  0  0  0  0  0  0  0  0  0  0
   57.6735   29.8260   46.5593 H   0  0  0  0  0  0  0  0  0  0  0  0
   58.9139   32.1387   49.2030 H   0  0  0  0  0  0  0  0  0  0  0  0
   57.9836   30.6193   48.8472 H   0  0  0  0  0  0  0  0  0  0  0  0
   60.7270   30.6490   47.9840 H   0  0  0  0  0  0  0  0  0  0  0  0
   60.1000   31.6088   50.5219 H   0  0  0  0  0  0  0  0  0  0  0  0
   60.8224   29.9410   50.6703 H   0  0  0  0  0  0  0  0  0  0  0  0
   62.9011   30.5669   51.6908 H   0  0  0  0  0  0  0  0  0  0  0  0
   65.1767   31.5440   51.3801 H   0  0  0  0  0  0  0  0  0  0  0  0
   63.9302   33.2684   47.6129 H   0  0  0  0  0  0  0  0  0  0  0  0
   61.6488   32.3067   47.9233 H   0  0  0  0  0  0  0  0  0  0  0  0
   60.5885   28.4143   49.1965 H   0  0  0  0  0  0  0  0  0  0  0  0
   58.8267   28.8398   49.3673 H   0  0  0  0  0  0  0  0  0  0  0  0
   61.2570   29.2944   46.5046 H   0  0  0  0  0  0  0  0  0  0  0  0
   60.7659   28.4475   44.2106 H   0  0  0  0  0  0  0  0  0  0  0  0
   57.1693   26.5427   45.6744 H   0  0  0  0  0  0  0  0  0  0  0  0
   57.6527   27.3870   47.9721 H   0  0  0  0  0  0  0  0  0  0  0  0
   60.0492   33.9365   48.3826 H   0  0  0  0  0  0  0  0  0  0  0  0
   60.4561   35.9049   46.5818 H   0  0  0  0  0  0  0  0  0  0  0  0
   59.4539   35.0718   44.2513 H   0  0  0  0  0  0  0  0  0  0  0  0
   58.4878   33.8050   42.7427 H   0  0  0  0  0  0  0  0  0  0  0  0
  1  2  1  0
  2  3  2  0
  3  4  1  0
  4  5  2  0
  5  6  1  0
  6  7  2  0
  7  8  1  0
  8  9  1  0
  9 10  1  0
 10 11  1  0
 11 12  2  0
 12 13  1  0
 13 14  2  0
 14 15  1  0
 14 16  1  0
 16 17  2  0
  9 18  1  0
 18 19  1  0
 19 20  2  0
 20 21  1  0
 21 22  2  0
 22 23  1  0
 22 24  1  0
 24 25  2  0
  7 26  1  0
 26 27  2  0
 27 28  1  0
 28 29  2  0
 29 30  1  0
 30 31  1  0
 31 32  2  0
 32  2  1  0
 31  5  1  0
 17 11  1  0
 25 19  1  0
 30 26  1  0
  1 33  1  0
  1 34  1  0
  1 35  1  0
  3 36  1  0
  4 37  1  0
  6 38  1  0
  8 39  1  0
  8 40  1  0
  9 41  1  0
 10 42  1  0
 10 43  1  0
 12 44  1  0
 13 45  1  0
 16 46  1  0
 17 47  1  0
 18 48  1  0
 18 49  1  0
 20 50  1  0
 21 51  1  0
 24 52  1  0
 25 53  1  0
 27 54  1  0
 28 55  1  0
 29 56  1  0
 32 57  1  0
M  CHG  1   9   1
M  END
>  <UniqueID>  (23) 
23

>  <SMILES>  (23) 
Cc1ccc2cc(C[NH+](Cc3ccc(F)cc3)Cc3ccc(F)cc3)c3cccn3c2c1

>  <Energy>  (23) 
100.90499541484633

>  <Genealogy>  (23) 
Cc1ccc2cc(C[NH+](Cc3ccc(F)cc3)Cc3ccc(F)cc3)c3cccn3c2c1 (protonated)
Cc1ccc2cc(C[NH+](Cc3ccc(F)cc3)Cc3ccc(F)cc3)c3cccn3c2c1 (3D coordinates assigned)
Cc1ccc2cc(C[NH+](Cc3ccc(F)cc3)Cc3ccc(F)cc3)c3cccn3c2c1 (optimized conformer: 100.90499541484633 kcal/mol)

>  <smiles>  (23) 
Cc1ccc2cc(CN(Cc3ccc(F)cc3)Cc3ccc(F)cc3)c3cccn3c2c1

>  <score_type>  (23) 
oracle

>  <origin>  (23) 
adg

>  <m_score__min__energy>  (23) 
-7.8200000000000003

>  <m_primary>  (23) 
energy

$$$$
23:0
     RDKit          3D

 39 39  0  0  0  0  0  0  0  0999 V2000
   63.3920   33.8480   46.6880 C   0  0  0  0  0  0  0  0  0  0  0  0
   63.7010   32.7840   47.7520 C   0  0  0  0  0  0  0  0  0  0  0  0
   62.7210   32.7180   48.8690 N   0  0  2  0  0  0  0  0  0  0  0  0
   62.9220   33.8200   49.8300 C   0  0  0  0  0  0  0  0  0  0  0  0
   62.6930   31.4180   49.5870 C   0  0  0  0  0  0  0  0  0  0  0  0
   61.4910   30.5330   49.2080 C   0  0  0  0  0  0  0  0  0  0  0  0
   60.4390   31.3020   48.6280 O   0  0  0  0  0  0  0  0  0  0  0  0
   60.3450   31.5760   47.2580 C   0  0  0  0  0  0  0  0  0  0  0  0
   60.7400   32.6860   46.8060 O   0  0  0  0  0  0  0  0  0  0  0  0
   59.7780   30.5590   46.3430 C   0  0  0  0  0  0  0  0  0  0  0  0
   60.6050   29.5720   45.7880 C   0  0  0  0  0  0  0  0  0  0  0  0
   60.0780   28.6190   44.9170 C   0  0  0  0  0  0  0  0  0  0  0  0
   58.7180   28.6290   44.5840 C   0  0  0  0  0  0  0  0  0  0  0  0
   58.1350   27.4110   43.3940 S   0  0  0  0  0  0  0  0  0  0  0  0
   57.8330   26.1390   44.6590 C   0  0  0  0  0  0  0  0  0  0  0  0
   57.8640   29.6050   45.1500 C   0  0  0  0  0  0  0  0  0  0  0  0
   56.4550   29.6480   44.8560 N   0  0  0  0  0  0  0  0  0  0  0  0
   55.7250   28.6610   45.0800 O   0  0  0  0  0  0  0  0  0  0  0  0
   55.8660   30.8330   44.4800 O   0  0  0  0  0  0  0  0  0  0  0  0
   58.4110   30.5700   46.0160 C   0  0  0  0  0  0  0  0  0  0  0  0
   63.1179   34.7918   47.1821 H   0  0  0  0  0  0  0  0  0  0  0  0
   64.2809   34.0075   46.0600 H   0  0  0  0  0  0  0  0  0  0  0  0
   62.5559   33.5066   46.0600 H   0  0  0  0  0  0  0  0  0  0  0  0
   63.7234   31.8016   47.2576 H   0  0  0  0  0  0  0  0  0  0  0  0
   64.6650   33.0650   48.2011 H   0  0  0  0  0  0  0  0  0  0  0  0
   61.7740   32.8720   48.4480 H   0  0  0  0  0  0  0  0  0  0  0  0
   62.8508   33.4295   50.8559 H   0  0  0  0  0  0  0  0  0  0  0  0
   63.9161   34.2648   49.6752 H   0  0  0  0  0  0  0  0  0  0  0  0
   62.1490   34.5871   49.6752 H   0  0  0  0  0  0  0  0  0  0  0  0
   63.6171   30.8699   49.3511 H   0  0  0  0  0  0  0  0  0  0  0  0
   62.6039   31.6428   50.6601 H   0  0  0  0  0  0  0  0  0  0  0  0
   61.8203   29.7737   48.4834 H   0  0  0  0  0  0  0  0  0  0  0  0
   61.1082   30.0594   50.1241 H   0  0  0  0  0  0  0  0  0  0  0  0
   61.6753   29.5493   46.0410 H   0  0  0  0  0  0  0  0  0  0  0  0
   60.7378   27.8511   44.4869 H   0  0  0  0  0  0  0  0  0  0  0  0
   57.9387   26.5843   45.6593 H   0  0  0  0  0  0  0  0  0  0  0  0
   56.8150   25.7393   44.5413 H   0  0  0  0  0  0  0  0  0  0  0  0
   58.5627   25.3243   44.5413 H   0  0  0  0  0  0  0  0  0  0  0  0
   57.7584   31.3453   46.4438 H   0  0  0  0  0  0  0  0  0  0  0  0
  1  2  1  0
  2  3  1  0
  3  4  1  0
  3  5  1  0
  5  6  1  0
  6  7  1  0
  7  8  1  0
  8  9  2  0
  8 10  1  0
 10 11  2  0
 11 12  1  0
 12 13  2  0
 13 14  1  0
 14 15  1  0
 13 16  1  0
 16 17  1  0
 17 18  2  0
 17 19  1  0
 16 20  2  0
 20 10  1  0
  1 21  1  0
  1 22  1  0
  1 23  1  0
  2 24  1  0
  2 25  1  0
  3 26  1  6
  4 27  1  0
  4 28  1  0
  4 29  1  0
  5 30  1  0
  5 31  1  0
  6 32  1  0
  6 33  1  0
 11 34  1  0
 12 35  1  0
 15 36  1  0
 15 37  1  0
 15 38  1  0
 20 39  1  0
M  CHG  3   3   1  17   1  19  -1
M  END
>  <UniqueID>  (24) 
24

>  <SMILES>  (24) 
CC[N@H+](C)CCOC(=O)c1ccc(SC)c([N+](=O)[O-])c1

>  <Energy>  (24) 
38.08782110578768

>  <Genealogy>  (24) 
CC[NH+](C)CCOC(=O)c1ccc(SC)c([N+](=O)[O-])c1 (protonated)
CC[N@H+](C)CCOC(=O)c1ccc(SC)c([N+](=O)[O-])c1 (chirality)
CC[N@H+](C)CCOC(=O)c1ccc(SC)c([N+](=O)[O-])c1 (3D coordinates assigned)
CC[N@H+](C)CCOC(=O)c1ccc(SC)c([N+](=O)[O-])c1 (optimized conformer: 38.08782110578768 kcal/mol)

>  <smiles>  (24) 
CCN(C)CCOC(=O)c1ccc(SC)c([N+](=O)[O-])c1

>  <score_type>  (24) 
oracle

>  <origin>  (24) 
adg

>  <m_score__min__energy>  (24) 
-4.8799999999999999

>  <m_primary>  (24) 
energy

$$$$
24:0
     RDKit          3D

 71 73  0  0  0  0  0  0  0  0999 V2000
   68.0680   34.8320   51.1700 C   0  0  0  0  0  0  0  0  0  0  0  0
   67.2750   33.6070   50.8270 C   0  0  0  0  0  0  0  0  0  0  0  0
   67.8080   32.7150   50.1170 O   0  0  0  0  0  0  0  0  0  0  0  0
   65.9430   33.4010   51.3140 N   0  0  0  0  0  0  0  0  0  0  0  0
   64.8600   32.7890   50.5980 C   0  0  0  0  0  0  0  0  0  0  0  0
   64.2270   33.4730   49.5390 C   0  0  0  0  0  0  0  0  0  0  0  0
   63.1900   32.8410   48.8650 C   0  0  0  0  0  0  0  0  0  0  0  0
   62.2480   33.4270   47.6060 S   0  0  0  0  0  0  0  0  0  0  0  0
   61.3370   32.0000   47.5130 C   0  0  0  0  0  0  0  0  0  0  0  0
   60.1810   31.7890   46.6140 C   0  0  0  0  0  0  0  0  0  0  0  0
   59.3560   32.8680   46.2070 C   0  0  0  0  0  0  0  0  0  0  0  0
   59.6340   34.2870   46.6340 C   0  0  0  0  0  0  0  0  0  0  0  0
   58.2390   32.6180   45.3960 C   0  0  0  0  0  0  0  0  0  0  0  0
   57.9550   31.3250   44.9460 C   0  0  0  0  0  0  0  0  0  0  0  0
   56.7400   31.0650   44.1030 C   0  0  0  0  0  0  0  0  0  0  0  0
   58.7750   30.2610   45.3400 C   0  0  0  0  0  0  0  0  0  0  0  0
   59.8890   30.4800   46.1710 C   0  0  0  0  0  0  0  0  0  0  0  0
   60.7230   29.4260   46.5890 O   0  0  0  0  0  0  0  0  0  0  0  0
   60.3450   28.0540   46.7060 C   0  0  0  0  0  0  0  0  0  0  0  0
   59.8890   27.7370   48.1370 C   0  0  0  0  0  0  0  0  0  0  0  0
   60.1690   28.8670   49.0490 N   0  0  0  0  0  0  0  0  0  0  0  0
   58.9380   29.6180   49.3610 C   0  0  0  0  0  0  0  0  0  0  0  0
   60.7630   28.3640   50.3000 C   0  0  0  0  0  0  0  0  0  0  0  0
   61.7410   31.0950   48.4410 N   0  0  0  0  0  0  0  0  0  0  0  0
   62.7730   31.5640   49.1890 C   0  0  0  0  0  0  0  0  0  0  0  0
   63.3970   30.8560   50.2150 C   0  0  0  0  0  0  0  0  0  0  0  0
   64.4580   31.4610   50.9230 C   0  0  0  0  0  0  0  0  0  0  0  0
   65.1010   30.7010   52.0640 C   0  0  0  0  0  0  0  0  0  0  0  0
   66.5680   30.6890   51.9650 N   0  0  0  0  0  0  0  0  0  0  0  0
   67.0390   29.8130   50.8840 C   0  0  0  0  0  0  0  0  0  0  0  0
   67.1230   28.3620   51.3620 C   0  0  0  0  0  0  0  0  0  0  0  0
   67.2650   27.4510   50.2000 N   0  0  0  0  0  0  0  0  0  0  0  0
   68.6660   27.3750   49.7560 C   0  0  0  0  0  0  0  0  0  0  0  0
   66.7710   26.1010   50.5160 C   0  0  0  0  0  0  0  0  0  0  0  0
   68.1330   34.9324   52.2635 H   0  0  0  0  0  0  0  0  0  0  0  0
   69.0804   34.7432   50.7491 H   0  0  0  0  0  0  0  0  0  0  0  0
   67.5725   35.7193   50.7491 H   0  0  0  0  0  0  0  0  0  0  0  0
   64.5479   34.4855   49.2531 H   0  0  0  0  0  0  0  0  0  0  0  0
   59.6451   34.3439   47.7325 H   0  0  0  0  0  0  0  0  0  0  0  0
   60.6112   34.6035   46.2405 H   0  0  0  0  0  0  0  0  0  0  0  0
   58.8485   34.9489   46.2405 H   0  0  0  0  0  0  0  0  0  0  0  0
   57.5782   33.4497   45.1105 H   0  0  0  0  0  0  0  0  0  0  0  0
   55.8739   30.8797   44.7554 H   0  0  0  0  0  0  0  0  0  0  0  0
   56.5400   31.9407   43.4680 H   0  0  0  0  0  0  0  0  0  0  0  0
   56.9159   30.1842   43.4680 H   0  0  0  0  0  0  0  0  0  0  0  0
   58.5457   29.2417   44.9958 H   0  0  0  0  0  0  0  0  0  0  0  0
   59.5193   27.8463   46.0095 H   0  0  0  0  0  0  0  0  0  0  0  0
   61.2150   27.4257   46.4647 H   0  0  0  0  0  0  0  0  0  0  0  0
   58.8071   27.5382   48.1333 H   0  0  0  0  0  0  0  0  0  0  0  0
   60.4434   26.8560   48.4927 H   0  0  0  0  0  0  0  0  0  0  0  0
   58.8193   29.6904   50.4522 H   0  0  0  0  0  0  0  0  0  0  0  0
   59.0062   30.6285   48.9317 H   0  0  0  0  0  0  0  0  0  0  0  0
   58.0707   29.0950   48.9317 H   0  0  0  0  0  0  0  0  0  0  0  0
   60.2388   28.8079   51.1592 H   0  0  0  0  0  0  0  0  0  0  0  0
   60.6664   27.2689   50.3374 H   0  0  0  0  0  0  0  0  0  0  0  0
   61.8272   28.6397   50.3374 H   0  0  0  0  0  0  0  0  0  0  0  0
   61.3130   30.1490   48.5630 H   0  0  0  0  0  0  0  0  0  0  0  0
   63.0667   29.8382   50.4699 H   0  0  0  0  0  0  0  0  0  0  0  0
   64.8137   31.1768   53.0132 H   0  0  0  0  0  0  0  0  0  0  0  0
   64.7503   29.6595   52.0167 H   0  0  0  0  0  0  0  0  0  0  0  0
   66.9090   31.6630   51.7850 H   0  0  0  0  0  0  0  0  0  0  0  0
   66.3385   29.8746   50.0381 H   0  0  0  0  0  0  0  0  0  0  0  0
   68.0418   30.1419   50.5736 H   0  0  0  0  0  0  0  0  0  0  0  0
   67.9942   28.2466   52.0236 H   0  0  0  0  0  0  0  0  0  0  0  0
   66.2025   28.1086   51.9083 H   0  0  0  0  0  0  0  0  0  0  0  0
   69.3275   27.3391   50.6341 H   0  0  0  0  0  0  0  0  0  0  0  0
   68.8102   26.4677   49.1510 H   0  0  0  0  0  0  0  0  0  0  0  0
   68.9075   28.2614   49.1510 H   0  0  0  0  0  0  0  0  0  0  0  0
   66.7245   25.9738   51.6076 H   0  0  0  0  0  0  0  0  0  0  0  0
   65.7662   25.9688   50.0883 H   0  0  0  0  0  0  0  0  0  0  0  0
   67.4531   25.3515   50.0883 H   0  0  0  0  0  0  0  0  0  0  0  0
  1  2  1  0
  2  3  2  0
  2  4  1  0
  4  5  1  0
  5  6  2  0
  6  7  1  0
  7  8  1  0
  8  9  1  0
  9 10  1  0
 10 11  2  0
 11 12  1  0
 11 13  1  0
 13 14  2  0
 14 15  1  0
 14 16  1  0
 16 17  2  0
 17 18  1  0
 18 19  1  0
 19 20  1  0
 20 21  1  0
 21 22  1  0
 21 23  1  0
  9 24  2  0
 24 25  1  0
 25 26  1  0
 26 27  2  0
 27 28  1  0
 28 29  1  0
 29 30  1  0
 30 31  1  0
 31 32  1  0
 32 33  1  0
 32 34  1  0
 27  5  1  0
 25  7  2  0
 17 10  1  0
  1 35  1  0
  1 36  1  0
  1 37  1  0
  6 38  1  0
 12 39  1  0
 12 40  1  0
 12 41  1  0
 13 42  1  0
 15 43  1  0
 15 44  1  0
 15 45  1  0
 16 46  1  0
 19 47  1  0
 19 48  1  0
 20 49  1  0
 20 50  1  0
 22 51  1  0
 22 52  1  0
 22 53  1  0
 23 54  1  0
 23 55  1  0
 23 56  1  0
 24 57  1  0
 26 58  1  0
 28 59  1  0
 28 60  1  0
 29 61  1  0
 30 62  1  0
 30 63  1  0
 31 64  1  0
 31 65  1  0
 33 66  1  0
 33 67  1  0
 33 68  1  0
 34 69  1  0
 34 70  1  0
 34 71  1  0
M  CHG  2   4  -1  24   1
M  END
>  <UniqueID>  (25) 
25

>  <SMILES>  (25) 
CC(=O)[N-]c1cc2sc(-c3c(C)cc(C)cc3OCCN(C)C)[nH+]c2cc1CNCCN(C)C

>  <Energy>  (25) 
113.87455200679736

>  <Genealogy>  (25) 
CC(=O)[N-]c1cc2sc(-c3c(C)cc(C)cc3OCCN(C)C)[nH+]c2cc1CNCCN(C)C (protonated)
CC(=O)[N-]c1cc2sc(-c3c(C)cc(C)cc3OCCN(C)C)[nH+]c2cc1CNCCN(C)C (3D coordinates assigned)
CC(=O)[N-]c1cc2sc(-c3c(C)cc(C)cc3OCCN(C)C)[nH+]c2cc1CNCCN(C)C (optimized conformer: 113.87455200679736 kcal/mol)

>  <smiles>  (25) 
CC(=O)Nc1cc2sc(-c3c(C)cc(C)cc3OCCN(C)C)nc2cc1CNCCN(C)C

>  <score_type>  (25) 
oracle

>  <origin>  (25) 
adg

>  <m_score__min__energy>  (25) 
-8.5099999999999998

>  <m_primary>  (25) 
energy

$$$$
25:0
     RDKit          3D

 54 56  0  0  0  0  0  0  0  0999 V2000
   55.4310   23.8970   44.7100 C   0  0  0  0  0  0  0  0  0  0  0  0
   55.2310   24.9620   45.7850 C   0  0  0  0  0  0  0  0  0  0  0  0
   56.1470   26.0840   45.5820 N   0  0  0  0  0  0  0  0  0  0  0  0
   57.3640   26.1970   46.3270 C   0  0  0  0  0  0  0  0  0  0  0  0
   57.7270   25.2650   47.0950 O   0  0  0  0  0  0  0  0  0  0  0  0
   58.2030   27.4430   46.2260 C   0  0  0  0  0  0  0  0  0  0  0  0
   58.7250   27.7100   44.7970 C   0  0  2  0  0  0  0  0  0  0  0  0
   60.1900   28.1810   44.8130 C   0  0  0  0  0  0  0  0  0  0  0  0
   57.8110   28.6960   44.0320 C   0  0  0  0  0  0  0  0  0  0  0  0
   56.7170   29.2450   44.8980 C   0  0  0  0  0  0  0  0  0  0  0  0
   55.5150   28.9650   44.6400 O   0  0  0  0  0  0  0  0  0  0  0  0
   57.0400   30.1470   45.9620 N   0  0  0  0  0  0  0  0  0  0  0  0
   58.2230   30.9530   46.0310 C   0  0  0  0  0  0  0  0  0  0  0  0
   59.4340   30.5320   46.5570 C   0  0  0  0  0  0  0  0  0  0  0  0
   60.3240   31.5540   46.5470 N   0  0  0  0  0  0  0  0  0  0  0  0
   61.6820   31.5020   47.0940 C   0  0  0  0  0  0  0  0  0  0  0  0
   61.8200   32.4730   48.2380 C   0  0  0  0  0  0  0  0  0  0  0  0
   60.8420   32.5170   49.2470 C   0  0  0  0  0  0  0  0  0  0  0  0
   60.9860   33.3870   50.3310 C   0  0  0  0  0  0  0  0  0  0  0  0
   62.1070   34.2150   50.4230 C   0  0  0  0  0  0  0  0  0  0  0  0
   63.0870   34.1760   49.4270 C   0  0  0  0  0  0  0  0  0  0  0  0
   62.9490   33.3080   48.3380 C   0  0  0  0  0  0  0  0  0  0  0  0
   63.9160   33.2850   47.3860 F   0  0  0  0  0  0  0  0  0  0  0  0
   59.6680   32.6270   46.0490 C   0  0  0  0  0  0  0  0  0  0  0  0
   60.1480   33.9320   45.8890 C   0  0  0  0  0  0  0  0  0  0  0  0
   59.2600   34.9100   45.4070 C   0  0  0  0  0  0  0  0  0  0  0  0
   57.9230   34.5760   45.1080 C   0  0  0  0  0  0  0  0  0  0  0  0
   57.4610   33.2590   45.2760 C   0  0  0  0  0  0  0  0  0  0  0  0
   58.3700   32.2970   45.7270 C   0  0  0  0  0  0  0  0  0  0  0  0
   55.6139   22.9233   45.1880 H   0  0  0  0  0  0  0  0  0  0  0  0
   54.5289   23.8343   44.0836 H   0  0  0  0  0  0  0  0  0  0  0  0
   56.2944   24.1659   44.0836 H   0  0  0  0  0  0  0  0  0  0  0  0
   54.1952   25.3295   45.7401 H   0  0  0  0  0  0  0  0  0  0  0  0
   55.4360   24.5132   46.7681 H   0  0  0  0  0  0  0  0  0  0  0  0
   55.9170   26.8270   44.8840 H   0  0  0  0  0  0  0  0  0  0  0  0
   57.5928   28.3021   46.5416 H   0  0  0  0  0  0  0  0  0  0  0  0
   59.0806   27.2999   46.8735 H   0  0  0  0  0  0  0  0  0  0  0  0
   58.6963   26.7556   44.2508 H   0  0  0  0  0  0  0  0  0  0  0  0
   60.5288   28.2899   45.8538 H   0  0  0  0  0  0  0  0  0  0  0  0
   60.8191   27.4398   44.2983 H   0  0  0  0  0  0  0  0  0  0  0  0
   60.2693   29.1499   44.2983 H   0  0  0  0  0  0  0  0  0  0  0  0
   58.4231   29.5320   43.6625 H   0  0  0  0  0  0  0  0  0  0  0  0
   57.3409   28.1460   43.2034 H   0  0  0  0  0  0  0  0  0  0  0  0
   59.6422   29.5176   46.9280 H   0  0  0  0  0  0  0  0  0  0  0  0
   61.8897   30.4838   47.4547 H   0  0  0  0  0  0  0  0  0  0  0  0
   62.3976   31.7740   46.3042 H   0  0  0  0  0  0  0  0  0  0  0  0
   59.9594   31.8636   49.1829 H   0  0  0  0  0  0  0  0  0  0  0  0
   60.2142   33.4198   51.1141 H   0  0  0  0  0  0  0  0  0  0  0  0
   62.2186   34.8973   51.2786 H   0  0  0  0  0  0  0  0  0  0  0  0
   63.9690   34.8293   49.4994 H   0  0  0  0  0  0  0  0  0  0  0  0
   61.1902   34.1853   46.1333 H   0  0  0  0  0  0  0  0  0  0  0  0
   59.6106   35.9425   45.2622 H   0  0  0  0  0  0  0  0  0  0  0  0
   57.2359   35.3524   44.7403 H   0  0  0  0  0  0  0  0  0  0  0  0
   56.4158   32.9932   45.0592 H   0  0  0  0  0  0  0  0  0  0  0  0
  1  2  1  0
  2  3  1  0
  3  4  1  0
  4  5  2  0
  4  6  1  0
  6  7  1  0
  7  8  1  0
  7  9  1  0
  9 10  1  0
 10 11  2  0
 10 12  1  0
 12 13  1  0
 13 14  2  0
 14 15  1  0
 15 16  1  0
 16 17  1  0
 17 18  2  0
 18 19  1  0
 19 20  2  0
 20 21  1  0
 21 22  2  0
 22 23  1  0
 15 24  1  0
 24 25  2  0
 25 26  1  0
 26 27  2  0
 27 28  1  0
 28 29  2  0
 29 13  1  0
 22 17  1  0
 29 24  1  0
  1 30  1  0
  1 31  1  0
  1 32  1  0
  2 33  1  0
  2 34  1  0
  3 35  1  0
  6 36  1  0
  6 37  1  0
  7 38  1  6
  8 39  1  0
  8 40  1  0
  8 41  1  0
  9 42  1  0
  9 43  1  0
 14 44  1  0
 16 45  1  0
 16 46  1  0
 18 47  1  0
 19 48  1  0
 20 49  1  0
 21 50  1  0
 25 51  1  0
 26 52  1  0
 27 53  1  0
 28 54  1  0
M  CHG  1  12  -1
M  END
>  <UniqueID>  (26) 
26

>  <SMILES>  (26) 
CCNC(=O)C[C@H](C)CC(=O)[N-]c1cn(Cc2ccccc2F)c2ccccc12

>  <Energy>  (26) 
82.79897580465123

>  <Genealogy>  (26) 
CCNC(=O)CC(C)CC(=O)[N-]c1cn(Cc2ccccc2F)c2ccccc12 (protonated)
CCNC(=O)C[C@H](C)CC(=O)[N-]c1cn(Cc2ccccc2F)c2ccccc12 (chirality)
CCNC(=O)C[C@H](C)CC(=O)[N-]c1cn(Cc2ccccc2F)c2ccccc12 (3D coordinates assigned)
CCNC(=O)C[C@H](C)CC(=O)[N-]c1cn(Cc2ccccc2F)c2ccccc12 (optimized conformer: 82.79897580465123 kcal/mol)

>  <smiles>  (26) 
CCNC(=O)CC(C)CC(=O)Nc1cn(Cc2ccccc2F)c2ccccc12

>  <score_type>  (26) 
oracle

>  <origin>  (26) 
adg

>  <m_score__min__energy>  (26) 
-11.24

>  <m_primary>  (26) 
energy

$$$$
26:0
     RDKit          3D

 38 40  0  0  0  0  0  0  0  0999 V2000
   56.6040   30.6760   43.6290 C   0  0  0  0  0  0  0  0  0  0  0  0
   57.0200   31.0280   44.9440 O   0  0  0  0  0  0  0  0  0  0  0  0
   57.6910   32.2170   45.2780 C   0  0  0  0  0  0  0  0  0  0  0  0
   57.4880   33.4120   44.5600 C   0  0  0  0  0  0  0  0  0  0  0  0
   58.1580   34.5800   44.9290 C   0  0  0  0  0  0  0  0  0  0  0  0
   59.0330   34.5740   46.0160 C   0  0  0  0  0  0  0  0  0  0  0  0
   59.2450   33.3970   46.7360 C   0  0  0  0  0  0  0  0  0  0  0  0
   58.5890   32.2100   46.3670 C   0  0  0  0  0  0  0  0  0  0  0  0
   58.8070   30.9550   47.1760 C   0  0  0  0  0  0  0  0  0  0  0  0
   59.7660   30.0020   46.4430 C   0  0  0  0  0  0  0  0  0  0  0  0
   59.1280   29.3500   45.2870 N   0  0  0  0  0  0  0  0  0  0  0  0
   58.5140   28.0980   45.6590 C   0  0  0  0  0  0  0  0  0  0  0  0
   59.3200   26.9840   46.0300 C   0  0  0  0  0  0  0  0  0  0  0  0
   58.7330   25.7500   46.3650 C   0  0  0  0  0  0  0  0  0  0  0  0
   57.3450   25.6650   46.3170 C   0  0  0  0  0  0  0  0  0  0  0  0
   56.4600   24.6440   46.5670 C   0  0  0  0  0  0  0  0  0  0  0  0
   56.7820   23.3040   46.9720 C   0  0  0  0  0  0  0  0  0  0  0  0
   57.0410   22.2240   47.2990 N   0  0  0  0  0  0  0  0  0  0  0  0
   55.2020   25.0980   46.3650 N   0  0  0  0  0  0  0  0  0  0  0  0
   55.2620   26.3760   45.9950 N   0  0  0  0  0  0  0  0  0  0  0  0
   56.5610   26.7230   45.9650 C   0  0  0  0  0  0  0  0  0  0  0  0
   57.1050   27.9600   45.6290 C   0  0  0  0  0  0  0  0  0  0  0  0
   55.7655   29.9665   43.6873 H   0  0  0  0  0  0  0  0  0  0  0  0
   56.2824   31.5804   43.0918 H   0  0  0  0  0  0  0  0  0  0  0  0
   57.4427   30.2091   43.0918 H   0  0  0  0  0  0  0  0  0  0  0  0
   56.7976   33.4249   43.7037 H   0  0  0  0  0  0  0  0  0  0  0  0
   57.9956   35.5079   44.3610 H   0  0  0  0  0  0  0  0  0  0  0  0
   59.5560   35.4973   46.3057 H   0  0  0  0  0  0  0  0  0  0  0  0
   59.9294   33.3985   47.5971 H   0  0  0  0  0  0  0  0  0  0  0  0
   59.2387   31.2235   48.1515 H   0  0  0  0  0  0  0  0  0  0  0  0
   57.8403   30.4491   47.3157 H   0  0  0  0  0  0  0  0  0  0  0  0
   60.6352   30.5766   46.0903 H   0  0  0  0  0  0  0  0  0  0  0  0
   60.0660   29.2152   47.1508 H   0  0  0  0  0  0  0  0  0  0  0  0
   59.8610   29.1620   44.5640 H   0  0  0  0  0  0  0  0  0  0  0  0
   58.4270   29.9950   44.8550 H   0  0  0  0  0  0  0  0  0  0  0  0
   60.4146   27.0896   46.0549 H   0  0  0  0  0  0  0  0  0  0  0  0
   59.3481   24.8851   46.6540 H   0  0  0  0  0  0  0  0  0  0  0  0
   56.4592   28.8051   45.3485 H   0  0  0  0  0  0  0  0  0  0  0  0
  1  2  1  0
  2  3  1  0
  3  4  2  0
  4  5  1  0
  5  6  2  0
  6  7  1  0
  7  8  2  0
  8  9  1  0
  9 10  1  0
 10 11  1  0
 11 12  1  0
 12 13  1  0
 13 14  2  0
 14 15  1  0
 15 16  2  0
 16 17  1  0
 17 18  3  0
 16 19  1  0
 19 20  1  0
 20 21  2  0
 21 22  1  0
  8  3  1  0
 22 12  2  0
 21 15  1  0
  1 23  1  0
  1 24  1  0
  1 25  1  0
  4 26  1  0
  5 27  1  0
  6 28  1  0
  7 29  1  0
  9 30  1  0
  9 31  1  0
 10 32  1  0
 10 33  1  0
 11 34  1  0
 11 35  1  0
 13 36  1  0
 14 37  1  0
 22 38  1  0
M  CHG  2  11   1  19  -1
M  END
>  <UniqueID>  (27) 
27

>  <SMILES>  (27) 
COc1ccccc1CC[NH2+]c1ccc2c(C#N)[n-]nc2c1

>  <Energy>  (27) 
76.39441979162422

>  <Genealogy>  (27) 
COc1ccccc1CC[NH2+]c1ccc2c(C#N)[n-]nc2c1 (protonated)
COc1ccccc1CC[NH2+]c1ccc2c(C#N)[n-]nc2c1 (3D coordinates assigned)
COc1ccccc1CC[NH2+]c1ccc2c(C#N)[n-]nc2c1 (optimized conformer: 76.39441979162422 kcal/mol)

>  <smiles>  (27) 
COc1ccccc1CCNc1ccc2c(C#N)[nH]nc2c1

>  <score_type>  (27) 
oracle

>  <origin>  (27) 
adg

>  <m_score__min__energy>  (27) 
-8.4700000000000006

>  <m_primary>  (27) 
energy

$$$$
27:0
     RDKit          3D

 47 48  0  0  0  0  0  0  0  0999 V2000
   65.1410   32.7010   49.8690 C   0  0  0  0  0  0  0  0  0  0  0  0
   64.0480   33.7310   50.1870 C   0  0  0  0  0  0  0  0  0  0  0  0
   62.9120   33.6580   49.2310 N   0  0  0  0  0  0  0  0  0  0  0  0
   63.3330   32.9830   47.9730 C   0  0  0  0  0  0  0  0  0  0  0  0
   62.9410   33.7810   46.7230 C   0  0  0  0  0  0  0  0  0  0  0  0
   61.7640   32.9310   49.8440 C   0  0  0  0  0  0  0  0  0  0  0  0
   60.7130   33.8830   50.4540 C   0  0  0  0  0  0  0  0  0  0  0  0
   59.9230   34.5490   49.4150 N   0  0  0  0  0  0  0  0  0  0  0  0
   59.3970   33.8930   48.2470 C   0  0  0  0  0  0  0  0  0  0  0  0
   59.0240   34.6690   47.1390 C   0  0  0  0  0  0  0  0  0  0  0  0
   58.4930   34.0700   45.9940 C   0  0  0  0  0  0  0  0  0  0  0  0
   58.3320   32.6750   45.9370 C   0  0  0  0  0  0  0  0  0  0  0  0
   57.7980   32.0270   44.8090 C   0  0  0  0  0  0  0  0  0  0  0  0
   57.4310   32.6940   43.8020 O   0  0  0  0  0  0  0  0  0  0  0  0
   57.6740   30.6270   44.8120 C   0  0  0  0  0  0  0  0  0  0  0  0
   57.0770   29.8830   43.6420 C   0  0  0  0  0  0  0  0  0  0  0  0
   55.5490   29.8310   43.7290 C   0  0  0  0  0  0  0  0  0  0  0  0
   55.1390   29.3520   44.9810 O   0  0  0  0  0  0  0  0  0  0  0  0
   58.0760   29.9250   45.9580 C   0  0  0  0  0  0  0  0  0  0  0  0
   58.5770   30.5660   47.0090 O   0  0  0  0  0  0  0  0  0  0  0  0
   58.7190   31.8870   47.0420 C   0  0  0  0  0  0  0  0  0  0  0  0
   59.2520   32.4950   48.1840 C   0  0  0  0  0  0  0  0  0  0  0  0
   65.5584   32.3077   50.8076 H   0  0  0  0  0  0  0  0  0  0  0  0
   64.7079   31.8750   49.2857 H   0  0  0  0  0  0  0  0  0  0  0  0
   65.9399   33.1823   49.2857 H   0  0  0  0  0  0  0  0  0  0  0  0
   63.6690   33.5432   51.2024 H   0  0  0  0  0  0  0  0  0  0  0  0
   64.4943   34.7330   50.1050 H   0  0  0  0  0  0  0  0  0  0  0  0
   62.6180   34.6360   48.9960 H   0  0  0  0  0  0  0  0  0  0  0  0
   64.4261   32.8610   47.9861 H   0  0  0  0  0  0  0  0  0  0  0  0
   62.8201   32.0111   47.9255 H   0  0  0  0  0  0  0  0  0  0  0  0
   62.4747   34.7303   47.0253 H   0  0  0  0  0  0  0  0  0  0  0  0
   63.8397   33.9885   46.1237 H   0  0  0  0  0  0  0  0  0  0  0  0
   62.2275   33.1965   46.1237 H   0  0  0  0  0  0  0  0  0  0  0  0
   61.2783   32.3217   49.0675 H   0  0  0  0  0  0  0  0  0  0  0  0
   62.1619   32.3092   50.6595 H   0  0  0  0  0  0  0  0  0  0  0  0
   60.0374   33.3027   51.0996 H   0  0  0  0  0  0  0  0  0  0  0  0
   61.2417   34.6547   51.0328 H   0  0  0  0  0  0  0  0  0  0  0  0
   59.6530   35.5430   49.5890 H   0  0  0  0  0  0  0  0  0  0  0  0
   59.1511   35.7611   47.1723 H   0  0  0  0  0  0  0  0  0  0  0  0
   58.2002   34.6917   45.1350 H   0  0  0  0  0  0  0  0  0  0  0  0
   57.3646   30.3924   42.7104 H   0  0  0  0  0  0  0  0  0  0  0  0
   57.4584   28.8514   43.6588 H   0  0  0  0  0  0  0  0  0  0  0  0
   55.1444   30.8429   43.5796 H   0  0  0  0  0  0  0  0  0  0  0  0
   55.1739   29.1505   42.9504 H   0  0  0  0  0  0  0  0  0  0  0  0
   55.2610   30.0960   45.6270 H   0  0  0  0  0  0  0  0  0  0  0  0
   57.9753   28.8300   45.9872 H   0  0  0  0  0  0  0  0  0  0  0  0
   59.5600   31.8752   49.0390 H   0  0  0  0  0  0  0  0  0  0  0  0
  1  2  1  0
  2  3  1  0
  3  4  1  0
  4  5  1  0
  3  6  1  0
  6  7  1  0
  7  8  1  0
  8  9  1  0
  9 10  2  0
 10 11  1  0
 11 12  2  0
 12 13  1  0
 13 14  2  0
 13 15  1  0
 15 16  1  0
 16 17  1  0
 17 18  1  0
 15 19  2  0
 19 20  1  0
 20 21  1  0
 21 22  2  0
 22  9  1  0
 21 12  1  0
  1 23  1  0
  1 24  1  0
  1 25  1  0
  2 26  1  0
  2 27  1  0
  3 28  1  0
  4 29  1  0
  4 30  1  0
  5 31  1  0
  5 32  1  0
  5 33  1  0
  6 34  1  0
  6 35  1  0
  7 36  1  0
  7 37  1  0
  8 38  1  0
 10 39  1  0
 11 40  1  0
 16 41  1  0
 16 42  1  0
 17 43  1  0
 17 44  1  0
 18 45  1  0
 19 46  1  0
 22 47  1  0
M  CHG  1   3   1
M  END
>  <UniqueID>  (28) 
28

>  <SMILES>  (28) 
CC[NH+](CC)CCNc1ccc2c(=O)c(CCO)coc2c1

>  <Energy>  (28) 
49.57294715279002

>  <Genealogy>  (28) 
CC[NH+](CC)CCNc1ccc2c(=O)c(CCO)coc2c1 (protonated)
CC[NH+](CC)CCNc1ccc2c(=O)c(CCO)coc2c1 (3D coordinates assigned)
CC[NH+](CC)CCNc1ccc2c(=O)c(CCO)coc2c1 (optimized conformer: 49.57294715279002 kcal/mol)

>  <smiles>  (28) 
CCN(CC)CCNc1ccc2c(=O)c(CCO)coc2c1

>  <score_type>  (28) 
oracle

>  <origin>  (28) 
adg

>  <m_score__min__energy>  (28) 
-6.0499999999999998

>  <m_primary>  (28) 
energy

$$$$
28:0
     RDKit          3D

 31 32  0  0  0  0  0  0  0  0999 V2000
   61.2080   30.9260   46.7840 C   0  0  0  0  0  0  0  0  0  0  0  0
   60.7610   29.4890   46.5430 C   0  0  0  0  0  0  0  0  0  0  0  0
   60.0170   29.3090   44.8830 S   0  0  0  0  0  0  0  0  0  0  0  0
   58.7830   28.1130   45.3980 C   0  0  0  0  0  0  0  0  0  0  0  0
   59.0820   27.0750   46.0960 N   0  0  0  0  0  0  0  0  0  0  0  0
   57.8740   26.3010   46.3650 C   0  0  0  0  0  0  0  0  0  0  0  0
   56.7290   27.1010   45.7220 C   0  0  0  0  0  0  0  0  0  0  0  0
   57.4040   28.2230   45.1040 N   0  0  0  0  0  0  0  0  0  0  0  0
   56.6200   29.5680   44.3430 S   0  0  0  0  0  0  0  0  0  0  0  0
   55.1950   29.6560   44.8100 O   0  0  0  0  0  0  0  0  0  0  0  0
   56.6380   29.3810   42.8510 O   0  0  0  0  0  0  0  0  0  0  0  0
   57.4590   31.0570   44.7680 C   0  0  0  0  0  0  0  0  0  0  0  0
   57.7740   31.9890   43.7710 C   0  0  0  0  0  0  0  0  0  0  0  0
   58.4120   33.1870   44.1040 C   0  0  0  0  0  0  0  0  0  0  0  0
   58.7330   33.4620   45.4370 C   0  0  0  0  0  0  0  0  0  0  0  0
   59.5280   34.9690   45.8530 Cl  0  0  0  0  0  0  0  0  0  0  0  0
   58.4140   32.5370   46.4360 C   0  0  0  0  0  0  0  0  0  0  0  0
   57.7750   31.3380   46.1040 C   0  0  0  0  0  0  0  0  0  0  0  0
   61.2668   31.1151   47.8660 H   0  0  0  0  0  0  0  0  0  0  0  0
   62.1975   31.0832   46.3300 H   0  0  0  0  0  0  0  0  0  0  0  0
   60.4823   31.6168   46.3300 H   0  0  0  0  0  0  0  0  0  0  0  0
   61.6325   28.8224   46.6216 H   0  0  0  0  0  0  0  0  0  0  0  0
   60.0061   29.2238   47.2979 H   0  0  0  0  0  0  0  0  0  0  0  0
   57.9478   25.3014   45.9118 H   0  0  0  0  0  0  0  0  0  0  0  0
   57.7146   26.1503   47.4429 H   0  0  0  0  0  0  0  0  0  0  0  0
   56.2017   26.4965   44.9692 H   0  0  0  0  0  0  0  0  0  0  0  0
   55.9626   27.4099   46.4481 H   0  0  0  0  0  0  0  0  0  0  0  0
   57.5183   31.7773   42.7223 H   0  0  0  0  0  0  0  0  0  0  0  0
   58.6618   33.9140   43.3172 H   0  0  0  0  0  0  0  0  0  0  0  0
   58.6661   32.7527   47.4848 H   0  0  0  0  0  0  0  0  0  0  0  0
   57.5202   30.6147   46.8926 H   0  0  0  0  0  0  0  0  0  0  0  0
  1  2  1  0
  2  3  1  0
  3  4  1  0
  4  5  2  0
  5  6  1  0
  6  7  1  0
  7  8  1  0
  8  9  1  0
  9 10  2  0
  9 11  2  0
  9 12  1  0
 12 13  2  0
 13 14  1  0
 14 15  2  0
 15 16  1  0
 15 17  1  0
 17 18  2  0
  8  4  1  0
 18 12  1  0
  1 19  1  0
  1 20  1  0
  1 21  1  0
  2 22  1  0
  2 23  1  0
  6 24  1  0
  6 25  1  0
  7 26  1  0
  7 27  1  0
 13 28  1  0
 14 29  1  0
 17 30  1  0
 18 31  1  0
M  END
>  <UniqueID>  (29) 
29

>  <SMILES>  (29) 
CCSC1=NCCN1S(=O)(=O)c1ccc(Cl)cc1

>  <Energy>  (29) 
37.78682185215532

>  <Genealogy>  (29) 
CCSC1=NCCN1S(=O)(=O)c1ccc(Cl)cc1 (3D coordinates assigned)
CCSC1=NCCN1S(=O)(=O)c1ccc(Cl)cc1 (nonaromatic ring conformer: 37.78682185215532 kcal/mol)

>  <smiles>  (29) 
CCSC1=NCCN1S(=O)(=O)c1ccc(Cl)cc1

>  <score_type>  (29) 
oracle

>  <origin>  (29) 
adg

>  <m_score__min__energy>  (29) 
-6.8300000000000001

>  <m_primary>  (29) 
energy

$$$$
29:0
     RDKit          3D

 48 49  0  0  0  0  0  0  0  0999 V2000
   56.6440   30.0950   46.0390 H   0  0  0  0  0  0  0  0  0  0  0  0
   56.4990   30.4280   45.1180 O   0  0  0  0  0  0  0  0  0  0  0  0
   58.0130   30.9410   44.5950 S   0  0  0  0  0  0  0  0  0  0  0  0
   58.4550   32.5160   45.2550 C   0  0  0  0  0  0  0  0  0  0  0  0
   58.4930   33.6270   44.4010 C   0  0  0  0  0  0  0  0  0  0  0  0
   58.2287   33.5093   43.3397 H   0  0  0  0  0  0  0  0  0  0  0  0
   58.8640   34.8820   44.8880 C   0  0  0  0  0  0  0  0  0  0  0  0
   58.8935   35.7482   44.2106 H   0  0  0  0  0  0  0  0  0  0  0  0
   59.1970   35.0370   46.2330 C   0  0  0  0  0  0  0  0  0  0  0  0
   59.4857   36.0269   46.6161 H   0  0  0  0  0  0  0  0  0  0  0  0
   59.1650   33.9390   47.0950 C   0  0  0  0  0  0  0  0  0  0  0  0
   59.4151   34.0715   48.1580 H   0  0  0  0  0  0  0  0  0  0  0  0
   58.8150   32.6640   46.6130 C   0  0  0  0  0  0  0  0  0  0  0  0
   58.7760   31.5060   47.5370 C   0  0  0  0  0  0  0  0  0  0  0  0
   57.7900   31.0930   47.7964 H   0  0  0  0  0  0  0  0  0  0  0  0
   59.8570   30.9250   48.0800 C   0  0  0  0  0  0  0  0  0  0  0  0
   59.7403   30.4561   49.0682 H   0  0  0  0  0  0  0  0  0  0  0  0
   61.1920   30.8680   47.4500 C   0  0  0  0  0  0  0  0  0  0  0  0
   61.4310   29.9400   46.6330 O   0  0  0  0  0  0  0  0  0  0  0  0
   62.2320   31.8830   47.7050 C   0  0  0  0  0  0  0  0  0  0  0  0
   62.4630   33.2780   46.7950 S   0  0  0  0  0  0  0  0  0  0  0  0
   63.7590   33.8720   47.6860 C   0  0  0  0  0  0  0  0  0  0  0  0
   64.3061   34.8049   47.4848 H   0  0  0  0  0  0  0  0  0  0  0  0
   64.0200   32.9820   48.7200 C   0  0  0  0  0  0  0  0  0  0  0  0
   64.8242   33.1331   49.4551 H   0  0  0  0  0  0  0  0  0  0  0  0
   63.1640   31.8750   48.7390 C   0  0  0  0  0  0  0  0  0  0  0  0
   63.2219   31.0783   49.4953 H   0  0  0  0  0  0  0  0  0  0  0  0
   59.2770   29.6920   44.7500 C   0  0  0  0  0  0  0  0  0  0  0  0
   59.8601   29.8854   45.6625 H   0  0  0  0  0  0  0  0  0  0  0  0
   59.9180   29.7383   43.8573 H   0  0  0  0  0  0  0  0  0  0  0  0
   58.6750   28.2910   44.8340 C   0  0  0  0  0  0  0  0  0  0  0  0
   59.4818   27.5495   44.9297 H   0  0  0  0  0  0  0  0  0  0  0  0
   58.0956   28.0836   43.9223 H   0  0  0  0  0  0  0  0  0  0  0  0
   57.7830   28.2100   46.0200 N   0  0  0  0  0  0  0  0  0  0  0  0
   58.5530   28.0980   47.2800 C   0  0  0  0  0  0  0  0  0  0  0  0
   57.9278   27.6081   48.0410 H   0  0  0  0  0  0  0  0  0  0  0  0
   58.8380   29.1089   47.6068 H   0  0  0  0  0  0  0  0  0  0  0  0
   59.8250   27.2770   47.0750 C   0  0  0  0  0  0  0  0  0  0  0  0
   60.2472   27.0045   48.0535 H   0  0  0  0  0  0  0  0  0  0  0  0
   59.5848   26.3631   46.5119 H   0  0  0  0  0  0  0  0  0  0  0  0
   60.5589   27.8723   46.5119 H   0  0  0  0  0  0  0  0  0  0  0  0
   56.8120   27.0980   45.9060 C   0  0  0  0  0  0  0  0  0  0  0  0
   56.5468   26.7477   46.9144 H   0  0  0  0  0  0  0  0  0  0  0  0
   55.9199   27.4655   45.3777 H   0  0  0  0  0  0  0  0  0  0  0  0
   57.4020   25.9320   45.1110 C   0  0  0  0  0  0  0  0  0  0  0  0
   57.7868   25.1715   45.8064 H   0  0  0  0  0  0  0  0  0  0  0  0
   56.6204   25.4875   44.4774 H   0  0  0  0  0  0  0  0  0  0  0  0
   58.2231   26.2985   44.4774 H   0  0  0  0  0  0  0  0  0  0  0  0
  1  2  1  0
  3  2  1  1
  3  4  1  0
  4  5  2  0
  5  6  1  0
  5  7  1  0
  7  8  1  0
  7  9  2  0
  9 10  1  0
  9 11  1  0
 11 12  1  0
 11 13  2  0
 13 14  1  0
 14 15  1  0
 14 16  2  0
 16 17  1  0
 16 18  1  0
 18 19  2  0
 18 20  1  0
 20 21  1  0
 21 22  1  0
 22 23  1  0
 22 24  2  0
 24 25  1  0
 24 26  1  0
 26 27  1  0
  3 28  1  0
 28 29  1  0
 28 30  1  0
 28 31  1  0
 31 32  1  0
 31 33  1  0
 31 34  1  0
 34 35  1  0
 35 36  1  0
 35 37  1  0
 35 38  1  0
 38 39  1  0
 38 40  1  0
 38 41  1  0
 34 42  1  0
 42 43  1  0
 42 44  1  0
 42 45  1  0
 45 46  1  0
 45 47  1  0
 45 48  1  0
 13  4  1  0
 26 20  2  0
M  CHG  1   3   1
M  END
>  <UniqueID>  (30) 
30

>  <SMILES>  (30) 
CCN(CC)CC[S@@+](O)c1ccccc1/C=C\C(=O)c1cccs1

>  <Energy>  (30) 
75.96830816061482

>  <Genealogy>  (30) 
CCN(CC)CC[S+](O)c1ccccc1C=CC(=O)c1cccs1 (protonated)
CCN(CC)CC[S@@+](O)c1ccccc1C=CC(=O)c1cccs1 (chirality)
CCN(CC)CC[S@@+](O)c1ccccc1/C=C\C(=O)c1cccs1 (cis-trans isomerization)
CCN(CC)CC[S@@+](O)c1ccccc1/C=C\C(=O)c1cccs1 (3D coordinates assigned)
CCN(CC)CC[S@@+](O)c1ccccc1/C=C\C(=O)c1cccs1 (optimized conformer: 75.96830816061482 kcal/mol)

>  <smiles>  (30) 
CCN(CC)CC[S+]([O-])c1ccccc1C=CC(=O)c1cccs1

>  <score_type>  (30) 
oracle

>  <origin>  (30) 
adg

>  <m_score__min__energy>  (30) 
-6.04

>  <m_primary>  (30) 
energy

$$$$
30:0
     RDKit          3D

 47 50  0  0  0  0  0  0  0  0999 V2000
   59.6830   33.4450   51.2200 C   0  0  0  0  0  0  0  0  0  0  0  0
   60.1330   34.2380   50.1270 O   0  0  0  0  0  0  0  0  0  0  0  0
   61.3310   34.0240   49.4270 C   0  0  0  0  0  0  0  0  0  0  0  0
   62.5870   34.0880   50.0630 C   0  0  0  0  0  0  0  0  0  0  0  0
   63.7610   33.8960   49.3300 C   0  0  0  0  0  0  0  0  0  0  0  0
   63.6970   33.6380   47.9600 C   0  0  0  0  0  0  0  0  0  0  0  0
   62.4590   33.5680   47.3200 C   0  0  0  0  0  0  0  0  0  0  0  0
   61.2730   33.7530   48.0460 C   0  0  0  0  0  0  0  0  0  0  0  0
   60.0080   33.6620   47.3710 N   0  0  0  0  0  0  0  0  0  0  0  0
   59.0120   32.6860   47.8340 C   0  0  0  0  0  0  0  0  0  0  0  0
   57.8300   32.5890   46.8640 C   0  0  0  0  0  0  0  0  0  0  0  0
   58.3180   32.5510   45.4780 N   0  0  0  0  0  0  0  0  0  0  0  0
   57.7180   31.6650   44.5130 C   0  0  0  0  0  0  0  0  0  0  0  0
   57.4580   32.0960   43.3570 O   0  0  0  0  0  0  0  0  0  0  0  0
   57.4390   30.2460   44.8410 C   0  0  0  0  0  0  0  0  0  0  0  0
   58.4910   29.3800   45.1650 C   0  0  0  0  0  0  0  0  0  0  0  0
   58.2240   28.0420   45.4630 C   0  0  0  0  0  0  0  0  0  0  0  0
   59.2500   27.1460   45.7990 C   0  0  0  0  0  0  0  0  0  0  0  0
   58.9430   25.8130   46.0890 C   0  0  0  0  0  0  0  0  0  0  0  0
   57.6170   25.3700   46.0420 C   0  0  0  0  0  0  0  0  0  0  0  0
   56.5910   26.2590   45.7060 C   0  0  0  0  0  0  0  0  0  0  0  0
   56.8880   27.5950   45.4150 C   0  0  0  0  0  0  0  0  0  0  0  0
   55.9120   28.4380   45.0940 O   0  0  0  0  0  0  0  0  0  0  0  0
   56.1300   29.7190   44.8080 C   0  0  0  0  0  0  0  0  0  0  0  0
   55.1490   30.4550   44.5220 O   0  0  0  0  0  0  0  0  0  0  0  0
   59.3090   33.5370   45.0180 C   0  0  0  0  0  0  0  0  0  0  0  0
   59.7650   34.4530   46.1590 C   0  0  0  0  0  0  0  0  0  0  0  0
   59.9601   33.9333   52.1659 H   0  0  0  0  0  0  0  0  0  0  0  0
   58.5894   33.3377   51.1694 H   0  0  0  0  0  0  0  0  0  0  0  0
   60.1517   32.4511   51.1694 H   0  0  0  0  0  0  0  0  0  0  0  0
   62.6435   34.2903   51.1428 H   0  0  0  0  0  0  0  0  0  0  0  0
   64.7375   33.9483   49.8338 H   0  0  0  0  0  0  0  0  0  0  0  0
   64.6227   33.4898   47.3845 H   0  0  0  0  0  0  0  0  0  0  0  0
   62.4128   33.3665   46.2396 H   0  0  0  0  0  0  0  0  0  0  0  0
   59.4898   31.6986   47.9155 H   0  0  0  0  0  0  0  0  0  0  0  0
   58.6311   33.0177   48.8112 H   0  0  0  0  0  0  0  0  0  0  0  0
   57.2603   31.6719   47.0747 H   0  0  0  0  0  0  0  0  0  0  0  0
   57.1829   33.4689   46.9947 H   0  0  0  0  0  0  0  0  0  0  0  0
   59.5256   29.7531   45.1847 H   0  0  0  0  0  0  0  0  0  0  0  0
   60.2938   27.4914   45.8342 H   0  0  0  0  0  0  0  0  0  0  0  0
   59.7467   25.1106   46.3549 H   0  0  0  0  0  0  0  0  0  0  0  0
   57.3807   24.3201   46.2698 H   0  0  0  0  0  0  0  0  0  0  0  0
   55.5493   25.9075   45.6705 H   0  0  0  0  0  0  0  0  0  0  0  0
   60.1836   33.0038   44.6171 H   0  0  0  0  0  0  0  0  0  0  0  0
   58.8397   34.1606   44.2428 H   0  0  0  0  0  0  0  0  0  0  0  0
   60.6933   34.9652   45.8661 H   0  0  0  0  0  0  0  0  0  0  0  0
   58.9784   35.1943   46.3633 H   0  0  0  0  0  0  0  0  0  0  0  0
  1  2  1  0
  2  3  1  0
  3  4  2  0
  4  5  1  0
  5  6  2  0
  6  7  1  0
  7  8  2  0
  8  9  1  0
  9 10  1  0
 10 11  1  0
 11 12  1  0
 12 13  1  0
 13 14  2  0
 13 15  1  0
 15 16  2  0
 16 17  1  0
 17 18  2  0
 18 19  1  0
 19 20  2  0
 20 21  1  0
 21 22  2  0
 22 23  1  0
 23 24  1  0
 24 25  2  0
 12 26  1  0
 26 27  1  0
  8  3  1  0
 27  9  1  0
 24 15  1  0
 22 17  1  0
  1 28  1  0
  1 29  1  0
  1 30  1  0
  4 31  1  0
  5 32  1  0
  6 33  1  0
  7 34  1  0
 10 35  1  0
 10 36  1  0
 11 37  1  0
 11 38  1  0
 16 39  1  0
 18 40  1  0
 19 41  1  0
 20 42  1  0
 21 43  1  0
 26 44  1  0
 26 45  1  0
 27 46  1  0
 27 47  1  0
M  END
>  <UniqueID>  (31) 
31

>  <SMILES>  (31) 
COc1ccccc1N1CCN(C(=O)c2cc3ccccc3oc2=O)CC1

>  <Energy>  (31) 
65.42817279117007

>  <Genealogy>  (31) 
COc1ccccc1N1CCN(C(=O)c2cc3ccccc3oc2=O)CC1 (3D coordinates assigned)
COc1ccccc1N1CCN(C(=O)c2cc3ccccc3oc2=O)CC1 (nonaromatic ring conformer: 65.42817279117007 kcal/mol)

>  <smiles>  (31) 
COc1ccccc1N1CCN(C(=O)c2cc3ccccc3oc2=O)CC1

>  <score_type>  (31) 
oracle

>  <origin>  (31) 
adg

>  <m_score__min__energy>  (31) 
-8.6500000000000004

>  <m_primary>  (31) 
energy

$$$$
31:0
     RDKit          3D

 68 71  0  0  0  0  0  0  0  0999 V2000
   65.2850   33.0190   49.7550 C   0  0  0  0  0  0  0  0  0  0  0  0
   63.9530   32.3140   49.9930 C   0  0  0  0  0  0  0  0  0  0  0  0
   62.9540   32.7580   48.9880 N   0  0  0  0  0  0  0  0  0  0  0  0
   63.5000   33.8520   48.1540 C   0  0  0  0  0  0  0  0  0  0  0  0
   63.3990   33.5090   46.6700 C   0  0  0  0  0  0  0  0  0  0  0  0
   61.6790   33.1430   49.6370 C   0  0  0  0  0  0  0  0  0  0  0  0
   60.5640   32.1680   49.2210 C   0  0  0  0  0  0  0  0  0  0  0  0
   61.0170   31.2520   48.1640 N   0  0  0  0  0  0  0  0  0  0  0  0
   59.9960   31.1170   47.1460 C   0  0  0  0  0  0  0  0  0  0  0  0
   59.4870   32.2070   46.3810 C   0  0  0  0  0  0  0  0  0  0  0  0
   59.9850   33.5190   46.5400 C   0  0  0  0  0  0  0  0  0  0  0  0
   59.4830   34.5710   45.7800 C   0  0  0  0  0  0  0  0  0  0  0  0
   58.4960   34.3420   44.8290 C   0  0  0  0  0  0  0  0  0  0  0  0
   57.9880   33.0590   44.6350 C   0  0  0  0  0  0  0  0  0  0  0  0
   58.4550   31.9640   45.4010 C   0  0  0  0  0  0  0  0  0  0  0  0
   57.9610   30.6830   45.2020 N   0  0  0  0  0  0  0  0  0  0  0  0
   56.7510   30.4250   44.4030 C   0  0  0  0  0  0  0  0  0  0  0  0
   58.6030   29.6460   45.8230 C   0  0  0  0  0  0  0  0  0  0  0  0
   59.5560   29.8440   46.7920 C   0  0  0  0  0  0  0  0  0  0  0  0
   60.0000   28.6990   47.2670 O   0  0  0  0  0  0  0  0  0  0  0  0
   59.3870   27.7460   46.6010 C   0  0  0  0  0  0  0  0  0  0  0  0
   59.5870   26.3770   46.7360 C   0  0  0  0  0  0  0  0  0  0  0  0
   58.9010   25.5210   45.8640 C   0  0  0  0  0  0  0  0  0  0  0  0
   58.0630   26.0410   44.8420 C   0  0  0  0  0  0  0  0  0  0  0  0
   57.4280   25.2200   43.8970 O   0  0  0  0  0  0  0  0  0  0  0  0
   56.4620   24.2030   44.1820 C   0  0  0  0  0  0  0  0  0  0  0  0
   56.2730   23.2640   42.9790 C   0  0  0  0  0  0  0  0  0  0  0  0
   56.2320   21.8500   43.4050 N   0  0  0  0  0  0  0  0  0  0  0  0
   57.4560   21.1360   42.9950 C   0  0  0  0  0  0  0  0  0  0  0  0
   56.0780   21.7520   44.8660 C   0  0  0  0  0  0  0  0  0  0  0  0
   57.8570   27.4340   44.7550 C   0  0  0  0  0  0  0  0  0  0  0  0
   58.5100   28.2670   45.6710 C   0  0  0  0  0  0  0  0  0  0  0  0
   65.7481   33.2641   50.7222 H   0  0  0  0  0  0  0  0  0  0  0  0
   65.9538   32.3568   49.1856 H   0  0  0  0  0  0  0  0  0  0  0  0
   65.1135   33.9444   49.1856 H   0  0  0  0  0  0  0  0  0  0  0  0
   64.0965   31.2267   49.9077 H   0  0  0  0  0  0  0  0  0  0  0  0
   63.5874   32.5654   50.9995 H   0  0  0  0  0  0  0  0  0  0  0  0
   62.9309   34.7727   48.3502 H   0  0  0  0  0  0  0  0  0  0  0  0
   64.5603   33.9933   48.4104 H   0  0  0  0  0  0  0  0  0  0  0  0
   63.0899   32.4594   46.5565 H   0  0  0  0  0  0  0  0  0  0  0  0
   62.6556   34.1639   46.1921 H   0  0  0  0  0  0  0  0  0  0  0  0
   64.3787   33.6565   46.1921 H   0  0  0  0  0  0  0  0  0  0  0  0
   61.8020   33.1116   50.7297 H   0  0  0  0  0  0  0  0  0  0  0  0
   61.4056   34.1610   49.3225 H   0  0  0  0  0  0  0  0  0  0  0  0
   60.2586   31.5787   50.0982 H   0  0  0  0  0  0  0  0  0  0  0  0
   59.7195   32.7551   48.8309 H   0  0  0  0  0  0  0  0  0  0  0  0
   61.2840   30.3310   48.5710 H   0  0  0  0  0  0  0  0  0  0  0  0
   61.8800   31.6290   47.7080 H   0  0  0  0  0  0  0  0  0  0  0  0
   60.7806   33.7119   47.2747 H   0  0  0  0  0  0  0  0  0  0  0  0
   59.8696   35.5894   45.9328 H   0  0  0  0  0  0  0  0  0  0  0  0
   58.1134   35.1785   44.2257 H   0  0  0  0  0  0  0  0  0  0  0  0
   57.2111   32.8943   43.8739 H   0  0  0  0  0  0  0  0  0  0  0  0
   55.8995   30.2434   45.0753 H   0  0  0  0  0  0  0  0  0  0  0  0
   56.5376   31.2978   43.7685 H   0  0  0  0  0  0  0  0  0  0  0  0
   56.9122   29.5410   43.7685 H   0  0  0  0  0  0  0  0  0  0  0  0
   60.2642   25.9772   47.5051 H   0  0  0  0  0  0  0  0  0  0  0  0
   59.0130   24.4321   45.9725 H   0  0  0  0  0  0  0  0  0  0  0  0
   56.8043   23.6148   45.0462 H   0  0  0  0  0  0  0  0  0  0  0  0
   55.4992   24.6880   44.4004 H   0  0  0  0  0  0  0  0  0  0  0  0
   55.3283   23.5139   42.4739 H   0  0  0  0  0  0  0  0  0  0  0  0
   57.1253   23.3971   42.2965 H   0  0  0  0  0  0  0  0  0  0  0  0
   58.0092   20.8133   43.8893 H   0  0  0  0  0  0  0  0  0  0  0  0
   57.1832   20.2553   42.3950 H   0  0  0  0  0  0  0  0  0  0  0  0
   58.0883   21.8069   42.3950 H   0  0  0  0  0  0  0  0  0  0  0  0
   56.9079   22.2801   45.3584 H   0  0  0  0  0  0  0  0  0  0  0  0
   55.1234   22.2091   45.1656 H   0  0  0  0  0  0  0  0  0  0  0  0
   56.0877   20.6936   45.1656 H   0  0  0  0  0  0  0  0  0  0  0  0
   57.1969   27.8567   43.9833 H   0  0  0  0  0  0  0  0  0  0  0  0
  1  2  1  0
  2  3  1  0
  3  4  1  0
  4  5  1  0
  3  6  1  0
  6  7  1  0
  7  8  1  0
  8  9  1  0
  9 10  2  0
 10 11  1  0
 11 12  2  0
 12 13  1  0
 13 14  2  0
 14 15  1  0
 15 16  2  0
 16 17  1  0
 16 18  1  0
 18 19  2  0
 19 20  1  0
 20 21  1  0
 21 22  2  0
 22 23  1  0
 23 24  2  0
 24 25  1  0
 25 26  1  0
 26 27  1  0
 27 28  1  0
 28 29  1  0
 28 30  1  0
 24 31  1  0
 31 32  2  0
 19  9  1  0
 32 21  1  0
 15 10  1  0
 32 18  1  0
  1 33  1  0
  1 34  1  0
  1 35  1  0
  2 36  1  0
  2 37  1  0
  4 38  1  0
  4 39  1  0
  5 40  1  0
  5 41  1  0
  5 42  1  0
  6 43  1  0
  6 44  1  0
  7 45  1  0
  7 46  1  0
  8 47  1  0
  8 48  1  0
 11 49  1  0
 12 50  1  0
 13 51  1  0
 14 52  1  0
 17 53  1  0
 17 54  1  0
 17 55  1  0
 22 56  1  0
 23 57  1  0
 26 58  1  0
 26 59  1  0
 27 60  1  0
 27 61  1  0
 29 62  1  0
 29 63  1  0
 29 64  1  0
 30 65  1  0
 30 66  1  0
 30 67  1  0
 31 68  1  0
M  CHG  2   8   1  16   1
M  END
>  <UniqueID>  (32) 
32

>  <SMILES>  (32) 
CCN(CC)CC[NH2+]c1c2ccccc2[n+](C)c2c1oc1ccc(OCCN(C)C)cc12

>  <Energy>  (32) 
129.3905552530765

>  <Genealogy>  (32) 
CCN(CC)CC[NH2+]c1c2ccccc2[n+](C)c2c1oc1ccc(OCCN(C)C)cc12 (protonated)
CCN(CC)CC[NH2+]c1c2ccccc2[n+](C)c2c1oc1ccc(OCCN(C)C)cc12 (3D coordinates assigned)
CCN(CC)CC[NH2+]c1c2ccccc2[n+](C)c2c1oc1ccc(OCCN(C)C)cc12 (optimized conformer: 129.3905552530765 kcal/mol)

>  <smiles>  (32) 
CCN(CC)CCNc1c2ccccc2[n+](C)c2c1oc1ccc(OCCN(C)C)cc12

>  <score_type>  (32) 
oracle

>  <origin>  (32) 
adg

>  <m_score__min__energy>  (32) 
-4.8600000000000003

>  <m_primary>  (32) 
energy

$$$$
32:0
     RDKit          3D

 61 63  0  0  0  0  0  0  0  0999 V2000
   63.3110   31.6800   47.1710 C   0  0  0  0  0  0  0  0  0  0  0  0
   63.0080   33.1740   47.0440 C   0  0  0  0  0  0  0  0  0  0  0  0
   61.7500   33.5830   47.7070 N   0  0  0  0  0  0  0  0  0  0  0  0
   61.9190   34.2210   49.0350 C   0  0  0  0  0  0  0  0  0  0  0  0
   63.1870   33.8110   49.7960 C   0  0  0  0  0  0  0  0  0  0  0  0
   60.7500   34.1800   46.7940 C   0  0  0  0  0  0  0  0  0  0  0  0
   59.4750   34.6050   47.5390 C   0  0  0  0  0  0  0  0  0  0  0  0
   58.5490   33.4810   47.7150 N   0  0  0  0  0  0  0  0  0  0  0  0
   58.8780   32.1660   47.2330 C   0  0  0  0  0  0  0  0  0  0  0  0
   58.5100   31.8140   45.9210 C   0  0  0  0  0  0  0  0  0  0  0  0
   57.8280   32.7290   45.0880 C   0  0  0  0  0  0  0  0  0  0  0  0
   57.3970   32.3560   43.8170 C   0  0  0  0  0  0  0  0  0  0  0  0
   57.6370   31.0710   43.3520 C   0  0  0  0  0  0  0  0  0  0  0  0
   58.3490   30.1640   44.1380 C   0  0  0  0  0  0  0  0  0  0  0  0
   58.8390   30.5320   45.4180 C   0  0  0  0  0  0  0  0  0  0  0  0
   59.6220   29.6800   46.1660 N   0  0  0  0  0  0  0  0  0  0  0  0
   60.2450   28.5020   45.5190 C   0  0  0  0  0  0  0  0  0  0  0  0
   59.8630   29.9450   47.5030 C   0  0  0  0  0  0  0  0  0  0  0  0
   60.4070   28.9530   48.3470 C   0  0  0  0  0  0  0  0  0  0  0  0
   60.7480   29.2240   49.6740 C   0  0  0  0  0  0  0  0  0  0  0  0
   61.2940   28.2380   50.5140 O   0  0  0  0  0  0  0  0  0  0  0  0
   60.7140   27.7910   51.7350 C   0  0  0  0  0  0  0  0  0  0  0  0
   60.5240   30.4980   50.1990 C   0  0  0  0  0  0  0  0  0  0  0  0
   60.9420   30.7800   51.5030 O   0  0  0  0  0  0  0  0  0  0  0  0
   62.3090   31.0010   51.8380 C   0  0  0  0  0  0  0  0  0  0  0  0
   59.8650   31.4860   49.4280 C   0  0  0  0  0  0  0  0  0  0  0  0
   59.5350   32.7370   49.9830 O   0  0  0  0  0  0  0  0  0  0  0  0
   58.9100   32.9660   51.2430 C   0  0  0  0  0  0  0  0  0  0  0  0
   59.5390   31.2160   48.0610 C   0  0  0  0  0  0  0  0  0  0  0  0
   63.3665   31.4063   48.2350 H   0  0  0  0  0  0  0  0  0  0  0  0
   62.5120   31.1012   46.6847 H   0  0  0  0  0  0  0  0  0  0  0  0
   64.2724   31.4582   46.6847 H   0  0  0  0  0  0  0  0  0  0  0  0
   63.8380   33.7366   47.4963 H   0  0  0  0  0  0  0  0  0  0  0  0
   62.8914   33.3889   45.9715 H   0  0  0  0  0  0  0  0  0  0  0  0
   61.9465   35.3109   48.8887 H   0  0  0  0  0  0  0  0  0  0  0  0
   61.0704   33.8833   49.6480 H   0  0  0  0  0  0  0  0  0  0  0  0
   63.0006   33.8713   50.8784 H   0  0  0  0  0  0  0  0  0  0  0  0
   63.4583   32.7793   49.5275 H   0  0  0  0  0  0  0  0  0  0  0  0
   64.0110   34.4885   49.5275 H   0  0  0  0  0  0  0  0  0  0  0  0
   61.1919   35.0647   46.3122 H   0  0  0  0  0  0  0  0  0  0  0  0
   60.4720   33.4198   46.0491 H   0  0  0  0  0  0  0  0  0  0  0  0
   59.7539   34.9954   48.5289 H   0  0  0  0  0  0  0  0  0  0  0  0
   58.9685   35.3758   46.9395 H   0  0  0  0  0  0  0  0  0  0  0  0
   57.5490   33.6780   47.9440 H   0  0  0  0  0  0  0  0  0  0  0  0
   57.6347   33.7502   45.4482 H   0  0  0  0  0  0  0  0  0  0  0  0
   56.8662   33.0804   43.1818 H   0  0  0  0  0  0  0  0  0  0  0  0
   57.2655   30.7667   42.3623 H   0  0  0  0  0  0  0  0  0  0  0  0
   58.5333   29.1478   43.7594 H   0  0  0  0  0  0  0  0  0  0  0  0
   60.6110   27.8100   46.2918 H   0  0  0  0  0  0  0  0  0  0  0  0
   59.4994   27.9907   44.8924 H   0  0  0  0  0  0  0  0  0  0  0  0
   61.0873   28.8305   44.8924 H   0  0  0  0  0  0  0  0  0  0  0  0
   60.5666   27.9399   47.9492 H   0  0  0  0  0  0  0  0  0  0  0  0
   61.2691   28.2188   52.5828 H   0  0  0  0  0  0  0  0  0  0  0  0
   59.6641   28.1158   51.7828 H   0  0  0  0  0  0  0  0  0  0  0  0
   60.7607   26.6930   51.7828 H   0  0  0  0  0  0  0  0  0  0  0  0
   62.4201   31.0190   52.9322 H   0  0  0  0  0  0  0  0  0  0  0  0
   62.9245   30.1907   51.4202 H   0  0  0  0  0  0  0  0  0  0  0  0
   62.6378   31.9640   51.4202 H   0  0  0  0  0  0  0  0  0  0  0  0
   59.6102   32.7094   52.0516 H   0  0  0  0  0  0  0  0  0  0  0  0
   58.6277   34.0260   51.3250 H   0  0  0  0  0  0  0  0  0  0  0  0
   58.0097   32.3393   51.3250 H   0  0  0  0  0  0  0  0  0  0  0  0
  1  2  1  0
  2  3  1  0
  3  4  1  0
  4  5  1  0
  3  6  1  0
  6  7  1  0
  7  8  1  0
  8  9  1  0
  9 10  2  0
 10 11  1  0
 11 12  2  0
 12 13  1  0
 13 14  2  0
 14 15  1  0
 15 16  2  0
 16 17  1  0
 16 18  1  0
 18 19  2  0
 19 20  1  0
 20 21  1  0
 21 22  1  0
 20 23  2  0
 23 24  1  0
 24 25  1  0
 23 26  1  0
 26 27  1  0
 27 28  1  0
 26 29  2  0
 29  9  1  0
 15 10  1  0
 29 18  1  0
  1 30  1  0
  1 31  1  0
  1 32  1  0
  2 33  1  0
  2 34  1  0
  4 35  1  0
  4 36  1  0
  5 37  1  0
  5 38  1  0
  5 39  1  0
  6 40  1  0
  6 41  1  0
  7 42  1  0
  7 43  1  0
  8 44  1  0
 11 45  1  0
 12 46  1  0
 13 47  1  0
 14 48  1  0
 17 49  1  0
 17 50  1  0
 17 51  1  0
 19 52  1  0
 22 53  1  0
 22 54  1  0
 22 55  1  0
 25 56  1  0
 25 57  1  0
 25 58  1  0
 28 59  1  0
 28 60  1  0
 28 61  1  0
M  CHG  1  16   1
M  END
>  <UniqueID>  (33) 
33

>  <SMILES>  (33) 
CCN(CC)CCNc1c2ccccc2[n+](C)c2cc(OC)c(OC)c(OC)c12

>  <Energy>  (33) 
105.70328763678536

>  <Genealogy>  (33) 
CCN(CC)CCNc1c2ccccc2[n+](C)c2cc(OC)c(OC)c(OC)c12 (3D coordinates assigned)
CCN(CC)CCNc1c2ccccc2[n+](C)c2cc(OC)c(OC)c(OC)c12 (optimized conformer: 105.70328763678536 kcal/mol)

>  <smiles>  (33) 
CCN(CC)CCNc1c2ccccc2[n+](C)c2cc(OC)c(OC)c(OC)c12

>  <score_type>  (33) 
oracle

>  <origin>  (33) 
adg

>  <m_score__min__energy>  (33) 
-4.4000000000000004

>  <m_primary>  (33) 
energy

$$$$
33:0
     RDKit          3D

 58 61  0  0  0  0  0  0  0  0999 V2000
   63.1300   34.0320   46.3740 C   0  0  0  0  0  0  0  0  0  0  0  0
   63.7430   33.6820   47.7240 C   0  0  0  0  0  0  0  0  0  0  0  0
   63.7640   32.2240   47.9000 N   0  0  0  0  0  0  0  0  0  0  0  0
   62.8570   31.7960   48.9770 C   0  0  0  0  0  0  0  0  0  0  0  0
   61.5540   31.2170   48.4010 C   0  0  0  0  0  0  0  0  0  0  0  0
   61.5790   31.0770   46.9290 N   0  0  0  0  0  0  0  0  0  0  0  0
   60.2760   30.7140   46.3860 C   0  0  0  0  0  0  0  0  0  0  0  0
   59.3630   31.7320   45.9830 C   0  0  0  0  0  0  0  0  0  0  0  0
   59.6390   33.1090   46.1770 C   0  0  0  0  0  0  0  0  0  0  0  0
   58.7550   34.0900   45.7350 C   0  0  0  0  0  0  0  0  0  0  0  0
   57.5780   33.7300   45.0940 C   0  0  0  0  0  0  0  0  0  0  0  0
   57.2770   32.3870   44.8900 C   0  0  0  0  0  0  0  0  0  0  0  0
   58.1580   31.3660   45.3260 C   0  0  0  0  0  0  0  0  0  0  0  0
   57.8600   30.0400   45.1130 N   0  0  0  0  0  0  0  0  0  0  0  0
   56.9710   29.6880   43.9850 C   0  0  0  0  0  0  0  0  0  0  0  0
   58.5550   29.0600   45.7910 C   0  0  0  0  0  0  0  0  0  0  0  0
   59.8590   29.3530   46.2830 C   0  0  0  0  0  0  0  0  0  0  0  0
   60.6970   28.2730   46.6450 C   0  0  0  0  0  0  0  0  0  0  0  0
   60.2360   26.9620   46.6230 C   0  0  0  0  0  0  0  0  0  0  0  0
   58.9000   26.6880   46.3430 C   0  0  0  0  0  0  0  0  0  0  0  0
   58.4190   25.3770   46.4680 C   0  0  0  0  0  0  0  0  0  0  0  0
   57.0500   25.1000   46.3180 C   0  0  0  0  0  0  0  0  0  0  0  0
   56.5360   23.7990   46.4240 O   0  0  0  0  0  0  0  0  0  0  0  0
   56.1720   23.1710   47.6500 C   0  0  0  0  0  0  0  0  0  0  0  0
   56.1580   26.1510   46.0760 C   0  0  0  0  0  0  0  0  0  0  0  0
   54.7890   25.8500   45.9830 O   0  0  0  0  0  0  0  0  0  0  0  0
   54.2520   24.7360   45.2780 C   0  0  0  0  0  0  0  0  0  0  0  0
   56.6450   27.4640   45.9410 C   0  0  0  0  0  0  0  0  0  0  0  0
   58.0280   27.7410   45.9850 C   0  0  0  0  0  0  0  0  0  0  0  0
   62.1844   34.5719   46.5296 H   0  0  0  0  0  0  0  0  0  0  0  0
   63.8268   34.6684   45.8088 H   0  0  0  0  0  0  0  0  0  0  0  0
   62.9362   33.1084   45.8088 H   0  0  0  0  0  0  0  0  0  0  0  0
   64.7714   34.0698   47.7693 H   0  0  0  0  0  0  0  0  0  0  0  0
   63.1395   34.1350   48.5244 H   0  0  0  0  0  0  0  0  0  0  0  0
   64.7370   31.9540   48.1730 H   0  0  0  0  0  0  0  0  0  0  0  0
   63.3562   31.0256   49.5831 H   0  0  0  0  0  0  0  0  0  0  0  0
   62.6089   32.6712   49.5954 H   0  0  0  0  0  0  0  0  0  0  0  0
   61.3870   30.2240   48.8438 H   0  0  0  0  0  0  0  0  0  0  0  0
   60.7460   31.9212   48.6486 H   0  0  0  0  0  0  0  0  0  0  0  0
   61.8830   31.9840   46.5080 H   0  0  0  0  0  0  0  0  0  0  0  0
   62.3420   30.4380   46.6260 H   0  0  0  0  0  0  0  0  0  0  0  0
   60.5676   33.4077   46.6855 H   0  0  0  0  0  0  0  0  0  0  0  0
   58.9902   35.1527   45.8943 H   0  0  0  0  0  0  0  0  0  0  0  0
   56.8819   34.5077   44.7466 H   0  0  0  0  0  0  0  0  0  0  0  0
   56.3404   32.1133   44.3822 H   0  0  0  0  0  0  0  0  0  0  0  0
   56.0150   29.3095   44.3759 H   0  0  0  0  0  0  0  0  0  0  0  0
   56.7877   30.5814   43.3700 H   0  0  0  0  0  0  0  0  0  0  0  0
   57.4490   28.9113   43.3700 H   0  0  0  0  0  0  0  0  0  0  0  0
   61.7345   28.4745   46.9501 H   0  0  0  0  0  0  0  0  0  0  0  0
   60.9317   26.1350   46.8283 H   0  0  0  0  0  0  0  0  0  0  0  0
   59.1201   24.5578   46.6855 H   0  0  0  0  0  0  0  0  0  0  0  0
   56.5258   23.7815   48.4939 H   0  0  0  0  0  0  0  0  0  0  0  0
   55.0775   23.0737   47.7013 H   0  0  0  0  0  0  0  0  0  0  0  0
   56.6316   22.1729   47.7013 H   0  0  0  0  0  0  0  0  0  0  0  0
   53.8906   23.9864   45.9974 H   0  0  0  0  0  0  0  0  0  0  0  0
   53.4161   25.0704   44.6459 H   0  0  0  0  0  0  0  0  0  0  0  0
   55.0342   24.2904   44.6459 H   0  0  0  0  0  0  0  0  0  0  0  0
   55.9337   28.2909   45.7984 H   0  0  0  0  0  0  0  0  0  0  0  0
  1  2  1  0
  2  3  1  0
  3  4  1  0
  4  5  1  0
  5  6  1  0
  6  7  1  0
  7  8  2  0
  8  9  1  0
  9 10  2  0
 10 11  1  0
 11 12  2  0
 12 13  1  0
 13 14  2  0
 14 15  1  0
 14 16  1  0
 16 17  2  0
 17 18  1  0
 18 19  2  0
 19 20  1  0
 20 21  2  0
 21 22  1  0
 22 23  1  0
 23 24  1  0
 22 25  2  0
 25 26  1  0
 26 27  1  0
 25 28  1  0
 28 29  2  0
 17  7  1  0
 29 20  1  0
 13  8  1  0
 29 16  1  0
  1 30  1  0
  1 31  1  0
  1 32  1  0
  2 33  1  0
  2 34  1  0
  3 35  1  0
  4 36  1  0
  4 37  1  0
  5 38  1  0
  5 39  1  0
  6 40  1  0
  6 41  1  0
  9 42  1  0
 10 43  1  0
 11 44  1  0
 12 45  1  0
 15 46  1  0
 15 47  1  0
 15 48  1  0
 18 49  1  0
 19 50  1  0
 21 51  1  0
 24 52  1  0
 24 53  1  0
 24 54  1  0
 27 55  1  0
 27 56  1  0
 27 57  1  0
 28 58  1  0
M  CHG  2   6   1  14   1
M  END
>  <UniqueID>  (34) 
34

>  <SMILES>  (34) 
CCNCC[NH2+]c1c2ccccc2[n+](C)c2c1ccc1cc(OC)c(OC)cc12

>  <Energy>  (34) 
101.26210015613596

>  <Genealogy>  (34) 
CCNCC[NH2+]c1c2ccccc2[n+](C)c2c1ccc1cc(OC)c(OC)cc12 (protonated)
CCNCC[NH2+]c1c2ccccc2[n+](C)c2c1ccc1cc(OC)c(OC)cc12 (3D coordinates assigned)
CCNCC[NH2+]c1c2ccccc2[n+](C)c2c1ccc1cc(OC)c(OC)cc12 (optimized conformer: 101.26210015613596 kcal/mol)

>  <smiles>  (34) 
CCNCCNc1c2ccccc2[n+](C)c2c1ccc1cc(OC)c(OC)cc12

>  <score_type>  (34) 
oracle

>  <origin>  (34) 
adg

>  <m_score__min__energy>  (34) 
-5.4900000000000002

>  <m_primary>  (34) 
energy

$$$$
34:0
     RDKit          3D

 65 68  0  0  0  0  0  0  0  0999 V2000
   53.4610   30.6100   51.5050 C   0  0  0  0  0  0  0  0  0  0  0  0
   54.9740   30.6890   51.6880 C   0  0  0  0  0  0  0  0  0  0  0  0
   55.4590   29.5410   52.4900 N   0  0  0  0  0  0  0  0  0  0  0  0
   54.3480   28.6060   52.7600 C   0  0  0  0  0  0  0  0  0  0  0  0
   56.0720   30.0160   53.7550 C   0  0  0  0  0  0  0  0  0  0  0  0
   57.6170   30.0770   53.6690 C   0  0  0  0  0  0  0  0  0  0  0  0
   58.1540   29.2940   52.5370 N   0  0  0  0  0  0  0  0  0  0  0  0
   58.3980   30.1340   51.3860 C   0  0  0  0  0  0  0  0  0  0  0  0
   58.3570   31.5270   51.4980 C   0  0  0  0  0  0  0  0  0  0  0  0
   58.5680   32.3300   50.3800 C   0  0  0  0  0  0  0  0  0  0  0  0
   58.8490   31.7700   49.1210 C   0  0  0  0  0  0  0  0  0  0  0  0
   58.9110   30.3470   48.9970 C   0  0  0  0  0  0  0  0  0  0  0  0
   58.6590   29.5580   50.1340 C   0  0  0  0  0  0  0  0  0  0  0  0
   59.1760   29.5800   47.7080 C   0  0  0  0  0  0  0  0  0  0  0  0
   59.8830   30.3510   46.5920 C   0  0  0  0  0  0  0  0  0  0  0  0
   58.9310   31.3280   45.9720 C   0  0  0  0  0  0  0  0  0  0  0  0
   58.4250   31.1300   44.6770 C   0  0  0  0  0  0  0  0  0  0  0  0
   57.5200   32.0440   44.1300 C   0  0  0  0  0  0  0  0  0  0  0  0
   57.1100   33.1530   44.8750 C   0  0  0  0  0  0  0  0  0  0  0  0
   57.6030   33.3480   46.1680 C   0  0  0  0  0  0  0  0  0  0  0  0
   58.5070   32.4290   46.7220 C   0  0  0  0  0  0  0  0  0  0  0  0
   59.0750   32.6680   48.0150 N   0  0  0  0  0  0  0  0  0  0  0  0
   60.1070   34.0560   48.2000 S   0  0  0  0  0  0  0  0  0  0  0  0
   59.5850   34.9490   49.2910 O   0  0  0  0  0  0  0  0  0  0  0  0
   60.1500   34.8330   46.9160 O   0  0  0  0  0  0  0  0  0  0  0  0
   61.7250   33.5150   48.6410 C   0  0  0  0  0  0  0  0  0  0  0  0
   62.7290   33.4530   47.6670 C   0  0  0  0  0  0  0  0  0  0  0  0
   64.0240   33.0650   48.0190 C   0  0  0  0  0  0  0  0  0  0  0  0
   64.3380   32.7470   49.3460 C   0  0  0  0  0  0  0  0  0  0  0  0
   65.6530   32.3620   49.6440 O   0  0  0  0  0  0  0  0  0  0  0  0
   66.5060   33.0460   50.5570 C   0  0  0  0  0  0  0  0  0  0  0  0
   63.3290   32.8240   50.3270 C   0  0  0  0  0  0  0  0  0  0  0  0
   62.0310   33.2060   49.9740 C   0  0  0  0  0  0  0  0  0  0  0  0
   52.9733   30.5845   52.4906 H   0  0  0  0  0  0  0  0  0  0  0  0
   53.1127   31.4912   50.9462 H   0  0  0  0  0  0  0  0  0  0  0  0
   53.2064   29.6973   50.9462 H   0  0  0  0  0  0  0  0  0  0  0  0
   55.4596   30.6724   50.7011 H   0  0  0  0  0  0  0  0  0  0  0  0
   55.2209   31.6220   52.2157 H   0  0  0  0  0  0  0  0  0  0  0  0
   54.2172   28.4960   53.8466 H   0  0  0  0  0  0  0  0  0  0  0  0
   53.4213   29.0000   52.3172 H   0  0  0  0  0  0  0  0  0  0  0  0
   54.5780   27.6257   52.3172 H   0  0  0  0  0  0  0  0  0  0  0  0
   55.6895   31.0230   53.9779 H   0  0  0  0  0  0  0  0  0  0  0  0
   55.8057   29.3022   54.5484 H   0  0  0  0  0  0  0  0  0  0  0  0
   57.9220   31.1269   53.5474 H   0  0  0  0  0  0  0  0  0  0  0  0
   58.0199   29.6424   54.5957 H   0  0  0  0  0  0  0  0  0  0  0  0
   57.4530   28.5610   52.2750 H   0  0  0  0  0  0  0  0  0  0  0  0
   59.0270   28.7880   52.8080 H   0  0  0  0  0  0  0  0  0  0  0  0
   58.1569   31.9914   52.4749 H   0  0  0  0  0  0  0  0  0  0  0  0
   58.5138   33.4238   50.4837 H   0  0  0  0  0  0  0  0  0  0  0  0
   58.6668   28.4621   50.0389 H   0  0  0  0  0  0  0  0  0  0  0  0
   59.7982   28.7083   47.9589 H   0  0  0  0  0  0  0  0  0  0  0  0
   58.1828   29.3297   47.3069 H   0  0  0  0  0  0  0  0  0  0  0  0
   60.7431   30.8940   47.0108 H   0  0  0  0  0  0  0  0  0  0  0  0
   60.2308   29.6440   45.8244 H   0  0  0  0  0  0  0  0  0  0  0  0
   58.7415   30.2539   44.0920 H   0  0  0  0  0  0  0  0  0  0  0  0
   57.1304   31.8904   43.1128 H   0  0  0  0  0  0  0  0  0  0  0  0
   56.3989   33.8728   44.4434 H   0  0  0  0  0  0  0  0  0  0  0  0
   57.2820   34.2230   46.7522 H   0  0  0  0  0  0  0  0  0  0  0  0
   62.4976   33.7103   46.6228 H   0  0  0  0  0  0  0  0  0  0  0  0
   64.8047   33.0087   47.2461 H   0  0  0  0  0  0  0  0  0  0  0  0
   66.2070   32.8062   51.5881 H   0  0  0  0  0  0  0  0  0  0  0  0
   67.5467   32.7293   50.3940 H   0  0  0  0  0  0  0  0  0  0  0  0
   66.4230   34.1307   50.3940 H   0  0  0  0  0  0  0  0  0  0  0  0
   63.5634   32.5827   51.3743 H   0  0  0  0  0  0  0  0  0  0  0  0
   61.2478   33.2643   50.7442 H   0  0  0  0  0  0  0  0  0  0  0  0
  1  2  1  0
  2  3  1  0
  3  4  1  0
  3  5  1  0
  5  6  1  0
  6  7  1  0
  7  8  1  0
  8  9  2  0
  9 10  1  0
 10 11  2  0
 11 12  1  0
 12 13  2  0
 12 14  1  0
 14 15  1  0
 15 16  1  0
 16 17  2  0
 17 18  1  0
 18 19  2  0
 19 20  1  0
 20 21  2  0
 21 22  1  0
 22 23  1  0
 23 24  2  0
 23 25  2  0
 23 26  1  0
 26 27  2  0
 27 28  1  0
 28 29  2  0
 29 30  1  0
 30 31  1  0
 29 32  1  0
 32 33  2  0
 13  8  1  0
 21 16  1  0
 33 26  1  0
 22 11  1  0
  1 34  1  0
  1 35  1  0
  1 36  1  0
  2 37  1  0
  2 38  1  0
  4 39  1  0
  4 40  1  0
  4 41  1  0
  5 42  1  0
  5 43  1  0
  6 44  1  0
  6 45  1  0
  7 46  1  0
  7 47  1  0
  9 48  1  0
 10 49  1  0
 13 50  1  0
 14 51  1  0
 14 52  1  0
 15 53  1  0
 15 54  1  0
 17 55  1  0
 18 56  1  0
 19 57  1  0
 20 58  1  0
 27 59  1  0
 28 60  1  0
 31 61  1  0
 31 62  1  0
 31 63  1  0
 32 64  1  0
 33 65  1  0
M  CHG  1   7   1
M  END
>  <UniqueID>  (35) 
35

>  <SMILES>  (35) 
CCN(C)CC[NH2+]c1ccc2c(c1)CCc1ccccc1N2S(=O)(=O)c1ccc(OC)cc1

>  <Energy>  (35) 
88.6911563081746

>  <Genealogy>  (35) 
CCN(C)CC[NH2+]c1ccc2c(c1)CCc1ccccc1N2S(=O)(=O)c1ccc(OC)cc1 (protonated)
CCN(C)CC[NH2+]c1ccc2c(c1)CCc1ccccc1N2S(=O)(=O)c1ccc(OC)cc1 (3D coordinates assigned)
CCN(C)CC[NH2+]c1ccc2c(c1)CCc1ccccc1N2S(=O)(=O)c1ccc(OC)cc1 (nonaromatic ring conformer: 88.6911563081746 kcal/mol)

>  <smiles>  (35) 
CCN(C)CCNc1ccc2c(c1)CCc1ccccc1N2S(=O)(=O)c1ccc(OC)cc1

>  <score_type>  (35) 
oracle

>  <origin>  (35) 
adg

>  <m_score__min__energy>  (35) 
-5.9100000000000001

>  <m_primary>  (35) 
energy

$$$$
35:0
     RDKit          3D

 51 54  0  0  0  0  0  0  0  0999 V2000
   60.2471   34.9257   46.2007 H   0  0  0  0  0  0  0  0  0  0  0  0
   60.6570   33.9430   46.4770 C   0  0  0  0  0  0  0  0  0  0  0  0
   61.9520   33.8360   46.8750 N   0  0  0  0  0  0  0  0  0  0  0  0
   62.4920   32.6390   47.2240 C   0  0  0  0  0  0  0  0  0  0  0  0
   63.5435   32.5838   47.5422 H   0  0  0  0  0  0  0  0  0  0  0  0
   61.7160   31.4780   47.1800 C   0  0  0  0  0  0  0  0  0  0  0  0
   62.1535   30.5095   47.4639 H   0  0  0  0  0  0  0  0  0  0  0  0
   60.3730   31.5540   46.7710 C   0  0  0  0  0  0  0  0  0  0  0  0
   59.5290   30.3330   46.7180 C   0  0  0  0  0  0  0  0  0  0  0  0
   58.3600   30.3010   45.9190 C   0  0  0  0  0  0  0  0  0  0  0  0
   58.0522   31.1738   45.3245 H   0  0  0  0  0  0  0  0  0  0  0  0
   57.6150   29.1260   45.9130 C   0  0  0  0  0  0  0  0  0  0  0  0
   57.9950   28.0540   46.6540 C   0  0  0  0  0  0  0  0  0  0  0  0
   57.0320   27.0980   46.4400 C   0  0  0  0  0  0  0  0  0  0  0  0
   57.0060   25.9140   46.9720 N   0  0  0  0  0  0  0  0  0  0  0  0
   57.9740   24.8600   46.6720 C   0  0  0  0  0  0  0  0  0  0  0  0
   58.6608   25.2125   45.8884 H   0  0  0  0  0  0  0  0  0  0  0  0
   58.5327   24.6208   47.5888 H   0  0  0  0  0  0  0  0  0  0  0  0
   57.2590   23.5910   46.1830 C   0  0  0  0  0  0  0  0  0  0  0  0
   57.4878   22.7639   46.8711 H   0  0  0  0  0  0  0  0  0  0  0  0
   56.1777   23.7914   46.1583 H   0  0  0  0  0  0  0  0  0  0  0  0
   57.6940   23.2160   44.8180 N   0  0  0  0  0  0  0  0  0  0  0  0
   57.0030   24.0320   43.7860 C   0  0  0  0  0  0  0  0  0  0  0  0
   56.6455   24.9626   44.2510 H   0  0  0  0  0  0  0  0  0  0  0  0
   57.7230   24.2382   42.9804 H   0  0  0  0  0  0  0  0  0  0  0  0
   55.8040   23.2940   43.1700 C   0  0  0  0  0  0  0  0  0  0  0  0
   55.0761   23.0758   43.9653 H   0  0  0  0  0  0  0  0  0  0  0  0
   55.3699   23.9439   42.3959 H   0  0  0  0  0  0  0  0  0  0  0  0
   56.1980   22.0270   42.5270 N   0  0  0  0  0  0  0  0  0  0  0  0
   56.3710   22.2080   41.5100 H   0  0  0  0  0  0  0  0  0  0  0  0
   57.4200   21.4270   43.0940 C   0  0  0  0  0  0  0  0  0  0  0  0
   57.3712   20.3349   42.9719 H   0  0  0  0  0  0  0  0  0  0  0  0
   58.2871   21.8436   42.5606 H   0  0  0  0  0  0  0  0  0  0  0  0
   57.5710   21.7550   44.5850 C   0  0  0  0  0  0  0  0  0  0  0  0
   56.6872   21.3817   45.1230 H   0  0  0  0  0  0  0  0  0  0  0  0
   58.4892   21.2718   44.9503 H   0  0  0  0  0  0  0  0  0  0  0  0
   56.1000   27.5900   45.5850 N   0  0  0  0  0  0  0  0  0  0  0  0
   56.4690   28.8270   45.2620 N   0  0  0  0  0  0  0  0  0  0  0  0
   55.6810   29.7100   44.4040 C   0  0  0  0  0  0  0  0  0  0  0  0
   55.6537   30.7167   44.8465 H   0  0  0  0  0  0  0  0  0  0  0  0
   54.6604   29.3089   44.3181 H   0  0  0  0  0  0  0  0  0  0  0  0
   56.3020   29.7880   43.0150 C   0  0  0  0  0  0  0  0  0  0  0  0
   57.3896   29.9246   43.1068 H   0  0  0  0  0  0  0  0  0  0  0  0
   56.0943   28.8567   42.4677 H   0  0  0  0  0  0  0  0  0  0  0  0
   55.8704   30.6390   42.4677 H   0  0  0  0  0  0  0  0  0  0  0  0
   59.1030   28.0500   47.4330 N   0  0  0  0  0  0  0  0  0  0  0  0
   59.3580   27.2090   47.9980 H   0  0  0  0  0  0  0  0  0  0  0  0
   59.8790   29.1760   47.4730 C   0  0  0  0  0  0  0  0  0  0  0  0
   60.7853   29.1885   48.0963 H   0  0  0  0  0  0  0  0  0  0  0  0
   59.8450   32.8070   46.4180 C   0  0  0  0  0  0  0  0  0  0  0  0
   58.7966   32.8937   46.0964 H   0  0  0  0  0  0  0  0  0  0  0  0
  1  2  1  0
  2  3  2  0
  3  4  1  0
  4  5  1  0
  4  6  2  0
  6  7  1  0
  6  8  1  0
  8  9  1  0
  9 10  2  0
 10 11  1  0
 10 12  1  0
 12 13  2  0
 13 14  1  0
 14 15  2  0
 15 16  1  0
 16 17  1  0
 16 18  1  0
 16 19  1  0
 19 20  1  0
 19 21  1  0
 19 22  1  0
 22 23  1  0
 23 24  1  0
 23 25  1  0
 23 26  1  0
 26 27  1  0
 26 28  1  0
 26 29  1  0
 29 30  1  0
 29 31  1  0
 31 32  1  0
 31 33  1  0
 31 34  1  0
 34 35  1  0
 34 36  1  0
 14 37  1  0
 37 38  1  0
 38 39  1  0
 39 40  1  0
 39 41  1  0
 39 42  1  0
 42 43  1  0
 42 44  1  0
 42 45  1  0
 13 46  1  0
 46 47  1  0
 46 48  2  0
 48 49  1  0
  8 50  2  0
 50 51  1  0
 50  2  1  0
 48  9  1  0
 38 12  1  0
 34 22  1  0
M  CHG  2  37  -1  46   1
M  END
>  <UniqueID>  (36) 
36

>  <SMILES>  (36) 
CCn1[n-]/c(=N\CCN2CCNCC2)c2[nH+]cc(-c3ccncc3)cc21

>  <Energy>  (36) 
107.77748887360649

>  <Genealogy>  (36) 
CCn1[n-]c(=NCCN2CCNCC2)c2[nH+]cc(-c3ccncc3)cc21 (protonated)
CCn1[n-]/c(=N\CCN2CCNCC2)c2[nH+]cc(-c3ccncc3)cc21 (cis-trans isomerization)
CCn1[n-]/c(=N\CCN2CCNCC2)c2[nH+]cc(-c3ccncc3)cc21 (3D coordinates assigned)
CCn1[n-]/c(=N\CCN2CCNCC2)c2[nH+]cc(-c3ccncc3)cc21 (nonaromatic ring conformer: 107.77748887360649 kcal/mol)

>  <smiles>  (36) 
CCn1[nH]c(=NCCN2CCNCC2)c2ncc(-c3ccncc3)cc21

>  <score_type>  (36) 
oracle

>  <origin>  (36) 
adg

>  <m_score__min__energy>  (36) 
-8.1099999999999994

>  <m_primary>  (36) 
energy

$$$$
