0:0
     RDKit          3D

 43 47  0  0  0  0  0  0  0  0999 V2000
   54.8270   29.6730   43.6260 O   0  0  0  0  0  0  0  0  0  0  0  0
   55.8230   29.7010   44.3990 C   0  0  0  0  0  0  0  0  0  0  0  0
   56.1130   28.5800   45.2460 N   0  0  0  0  0  0  0  0  0  0  0  0
   57.4040   28.1920   45.7380 C   0  0  0  0  0  0  0  0  0  0  0  0
   57.8170   26.8680   45.5610 C   0  0  0  0  0  0  0  0  0  0  0  0
   59.0720   26.4550   46.0100 C   0  0  0  0  0  0  0  0  0  0  0  0
   59.9350   27.3660   46.6230 C   0  0  0  0  0  0  0  0  0  0  0  0
   59.5550   28.7110   46.7820 C   0  0  0  0  0  0  0  0  0  0  0  0
   60.4720   29.6910   47.4160 C   0  0  0  0  0  0  0  0  0  0  0  0
   61.1380   30.6670   46.7420 N   0  0  0  0  0  0  0  0  0  0  0  0
   61.9090   31.4220   47.5680 C   0  0  0  0  0  0  0  0  0  0  0  0
   62.7000   32.4980   47.1590 C   0  0  0  0  0  0  0  0  0  0  0  0
   63.4460   33.1940   48.1270 C   0  0  0  0  0  0  0  0  0  0  0  0
   63.3910   32.8110   49.4820 C   0  0  0  0  0  0  0  0  0  0  0  0
   62.5900   31.7300   49.8820 C   0  0  0  0  0  0  0  0  0  0  0  0
   61.8620   31.0570   48.9040 C   0  0  0  0  0  0  0  0  0  0  0  0
   60.8270   29.7490   49.0770 S   0  0  0  0  0  0  0  0  0  0  0  0
   58.2840   29.1160   46.3310 C   0  0  0  0  0  0  0  0  0  0  0  0
   56.7180   30.8730   44.3830 C   0  0  0  0  0  0  0  0  0  0  0  0
   57.2670   31.3540   43.1830 C   0  0  0  0  0  0  0  0  0  0  0  0
   58.1120   32.4660   43.2060 C   0  0  0  0  0  0  0  0  0  0  0  0
   58.4080   33.0920   44.4210 C   0  0  0  0  0  0  0  0  0  0  0  0
   59.2540   34.2100   44.4800 C   0  0  0  0  0  0  0  0  0  0  0  0
   59.5310   34.8120   45.7120 C   0  0  0  0  0  0  0  0  0  0  0  0
   58.9670   34.3040   46.8860 C   0  0  0  0  0  0  0  0  0  0  0  0
   58.1230   33.1900   46.8360 C   0  0  0  0  0  0  0  0  0  0  0  0
   57.8410   32.5800   45.6090 C   0  0  0  0  0  0  0  0  0  0  0  0
   57.0210   31.4970   45.5560 N   0  0  0  0  0  0  0  0  0  0  0  0
   57.1491   26.1482   45.0652 H   0  0  0  0  0  0  0  0  0  0  0  0
   59.3828   25.4078   45.8806 H   0  0  0  0  0  0  0  0  0  0  0  0
   60.9182   27.0296   46.9838 H   0  0  0  0  0  0  0  0  0  0  0  0
   61.0590   30.8450   45.7160 H   0  0  0  0  0  0  0  0  0  0  0  0
   62.7387   32.7952   46.1006 H   0  0  0  0  0  0  0  0  0  0  0  0
   64.0766   34.0430   47.8244 H   0  0  0  0  0  0  0  0  0  0  0  0
   63.9791   33.3623   50.2305 H   0  0  0  0  0  0  0  0  0  0  0  0
   62.5388   31.4234   50.9372 H   0  0  0  0  0  0  0  0  0  0  0  0
   57.9758   30.1659   46.4435 H   0  0  0  0  0  0  0  0  0  0  0  0
   57.0327   30.8575   42.2298 H   0  0  0  0  0  0  0  0  0  0  0  0
   58.5441   32.8488   42.2696 H   0  0  0  0  0  0  0  0  0  0  0  0
   59.6990   34.6127   43.5582 H   0  0  0  0  0  0  0  0  0  0  0  0
   60.1948   35.6880   45.7572 H   0  0  0  0  0  0  0  0  0  0  0  0
   59.1877   34.7819   47.8519 H   0  0  0  0  0  0  0  0  0  0  0  0
   57.6807   32.7933   47.7618 H   0  0  0  0  0  0  0  0  0  0  0  0
  1  2  2  0
  2  3  1  0
  3  4  1  0
  4  5  2  0
  5  6  1  0
  6  7  2  0
  7  8  1  0
  8  9  1  0
  9 10  2  0
 10 11  1  0
 11 12  2  0
 12 13  1  0
 13 14  2  0
 14 15  1  0
 15 16  2  0
 16 17  1  0
  8 18  2  0
  2 19  1  0
 19 20  2  0
 20 21  1  0
 21 22  2  0
 22 23  1  0
 23 24  2  0
 24 25  1  0
 25 26  2  0
 26 27  1  0
 27 28  2  0
 18  4  1  0
 28 19  1  0
 17  9  1  0
 27 22  1  0
 16 11  1  0
  5 29  1  0
  6 30  1  0
  7 31  1  0
 10 32  1  0
 12 33  1  0
 13 34  1  0
 14 35  1  0
 15 36  1  0
 18 37  1  0
 20 38  1  0
 21 39  1  0
 23 40  1  0
 24 41  1  0
 25 42  1  0
 26 43  1  0
M  CHG  2   3  -1  10   1
M  END
>  <UniqueID>  (1) 
1

>  <SMILES>  (1) 
O=C([N-]c1cccc(-c2[nH+]c3ccccc3s2)c1)c1ccc2ccccc2n1

>  <Energy>  (1) 
93.23055710066933

>  <Genealogy>  (1) 
O=C([N-]c1cccc(-c2[nH+]c3ccccc3s2)c1)c1ccc2ccccc2n1 (protonated)
O=C([N-]c1cccc(-c2[nH+]c3ccccc3s2)c1)c1ccc2ccccc2n1 (3D coordinates assigned)
O=C([N-]c1cccc(-c2[nH+]c3ccccc3s2)c1)c1ccc2ccccc2n1 (optimized conformer: 93.23055710066933 kcal/mol)

>  <smiles>  (1) 
O=C(Nc1cccc(-c2nc3ccccc3s2)c1)c1ccc2ccccc2n1

>  <score_type>  (1) 
oracle

>  <origin>  (1) 
adg

>  <m_score__min__energy>  (1) 
-10.890000000000001

>  <m_primary>  (1) 
energy

$$$$
1:0
     RDKit          3D

 40 43  0  0  0  0  0  0  0  0999 V2000
   56.2510   30.0970   43.0020 C   0  0  0  0  0  0  0  0  0  0  0  0
   57.1650   29.7670   44.1510 C   0  0  0  0  0  0  0  0  0  0  0  0
   57.7950   28.5120   44.1770 C   0  0  0  0  0  0  0  0  0  0  0  0
   58.6130   28.1440   45.2550 C   0  0  0  0  0  0  0  0  0  0  0  0
   59.2320   26.8850   45.2860 C   0  0  0  0  0  0  0  0  0  0  0  0
   60.0370   26.5240   46.3710 C   0  0  0  0  0  0  0  0  0  0  0  0
   60.2270   27.4150   47.4300 C   0  0  0  0  0  0  0  0  0  0  0  0
   59.6150   28.6710   47.4120 C   0  0  0  0  0  0  0  0  0  0  0  0
   58.8050   29.0450   46.3270 C   0  0  0  0  0  0  0  0  0  0  0  0
   58.1940   30.3040   46.2930 C   0  0  0  0  0  0  0  0  0  0  0  0
   57.4040   30.6860   45.2020 C   0  0  0  0  0  0  0  0  0  0  0  0
   56.8170   31.9930   45.2140 N   0  0  0  0  0  0  0  0  0  0  0  0
   57.5700   33.2110   45.2970 C   0  0  0  0  0  0  0  0  0  0  0  0
   57.3170   34.1570   44.5020 O   0  0  0  0  0  0  0  0  0  0  0  0
   58.6600   33.3460   46.2920 C   0  0  0  0  0  0  0  0  0  0  0  0
   58.3720   33.3700   47.6680 C   0  0  0  0  0  0  0  0  0  0  0  0
   59.3960   33.5000   48.6090 C   0  0  0  0  0  0  0  0  0  0  0  0
   60.7290   33.6100   48.1920 C   0  0  0  0  0  0  0  0  0  0  0  0
   61.7650   33.7410   49.1300 C   0  0  0  0  0  0  0  0  0  0  0  0
   63.0900   33.8500   48.7000 C   0  0  0  0  0  0  0  0  0  0  0  0
   63.3910   33.8290   47.3360 C   0  0  0  0  0  0  0  0  0  0  0  0
   62.3690   33.6990   46.3920 C   0  0  0  0  0  0  0  0  0  0  0  0
   61.0330   33.5880   46.8100 C   0  0  0  0  0  0  0  0  0  0  0  0
   59.9980   33.4570   45.8710 C   0  0  0  0  0  0  0  0  0  0  0  0
   55.2835   30.4463   43.3917 H   0  0  0  0  0  0  0  0  0  0  0  0
   56.7057   30.8877   42.3872 H   0  0  0  0  0  0  0  0  0  0  0  0
   56.0957   29.1982   42.3872 H   0  0  0  0  0  0  0  0  0  0  0  0
   57.6452   27.8104   43.3431 H   0  0  0  0  0  0  0  0  0  0  0  0
   59.0836   26.1802   44.4546 H   0  0  0  0  0  0  0  0  0  0  0  0
   60.5215   25.5366   46.3906 H   0  0  0  0  0  0  0  0  0  0  0  0
   60.8609   27.1267   48.2815 H   0  0  0  0  0  0  0  0  0  0  0  0
   59.7678   29.3682   48.2490 H   0  0  0  0  0  0  0  0  0  0  0  0
   58.3361   31.0006   47.1324 H   0  0  0  0  0  0  0  0  0  0  0  0
   57.3290   33.2855   48.0071 H   0  0  0  0  0  0  0  0  0  0  0  0
   59.1548   33.5161   49.6821 H   0  0  0  0  0  0  0  0  0  0  0  0
   61.5334   33.7579   50.2052 H   0  0  0  0  0  0  0  0  0  0  0  0
   63.8990   33.9527   49.4382 H   0  0  0  0  0  0  0  0  0  0  0  0
   64.4361   33.9151   47.0040 H   0  0  0  0  0  0  0  0  0  0  0  0
   62.6115   33.6836   45.3192 H   0  0  0  0  0  0  0  0  0  0  0  0
   60.2349   33.4410   44.7969 H   0  0  0  0  0  0  0  0  0  0  0  0
  1  2  1  0
  2  3  2  0
  3  4  1  0
  4  5  2  0
  5  6  1  0
  6  7  2  0
  7  8  1  0
  8  9  2  0
  9 10  1  0
 10 11  2  0
 11 12  1  0
 12 13  1  0
 13 14  2  0
 13 15  1  0
 15 16  2  0
 16 17  1  0
 17 18  2  0
 18 19  1  0
 19 20  2  0
 20 21  1  0
 21 22  2  0
 22 23  1  0
 23 24  2  0
 11  2  1  0
 24 15  1  0
  9  4  1  0
 23 18  1  0
  1 25  1  0
  1 26  1  0
  1 27  1  0
  3 28  1  0
  5 29  1  0
  6 30  1  0
  7 31  1  0
  8 32  1  0
 10 33  1  0
 16 34  1  0
 17 35  1  0
 19 36  1  0
 20 37  1  0
 21 38  1  0
 22 39  1  0
 24 40  1  0
M  CHG  1  12  -1
M  END
>  <UniqueID>  (2) 
2

>  <SMILES>  (2) 
Cc1cc2ccccc2cc1[N-]C(=O)c1ccc2ccccc2c1

>  <Energy>  (2) 
58.435278612819765

>  <Genealogy>  (2) 
Cc1cc2ccccc2cc1[N-]C(=O)c1ccc2ccccc2c1 (protonated)
Cc1cc2ccccc2cc1[N-]C(=O)c1ccc2ccccc2c1 (3D coordinates assigned)
Cc1cc2ccccc2cc1[N-]C(=O)c1ccc2ccccc2c1 (optimized conformer: 58.435278612819765 kcal/mol)

>  <smiles>  (2) 
Cc1cc2ccccc2cc1NC(=O)c1ccc2ccccc2c1

>  <score_type>  (2) 
oracle

>  <origin>  (2) 
adg

>  <m_score__min__energy>  (2) 
-10.039999999999999

>  <m_primary>  (2) 
energy

$$$$
2:0
     RDKit          3D

 55 59  0  0  0  0  0  0  0  0999 V2000
   57.8860   26.9130   43.0160 C   0  0  0  0  0  0  0  0  0  0  0  0
   57.6050   28.3240   43.2410 N   0  0  0  0  0  0  0  0  0  0  0  0
   58.2150   29.1120   44.1440 C   0  0  0  0  0  0  0  0  0  0  0  0
   57.6190   30.3600   44.0990 C   0  0  0  0  0  0  0  0  0  0  0  0
   57.9750   31.5590   44.8970 C   0  0  0  0  0  0  0  0  0  0  0  0
   57.8260   32.8480   44.3590 C   0  0  0  0  0  0  0  0  0  0  0  0
   58.1810   33.9330   45.0950 N   0  0  0  0  0  0  0  0  0  0  0  0
   58.6760   33.8030   46.3500 C   0  0  0  0  0  0  0  0  0  0  0  0
   59.0400   34.9300   47.0920 C   0  0  0  0  0  0  0  0  0  0  0  0
   59.5480   34.7840   48.3850 C   0  0  0  0  0  0  0  0  0  0  0  0
   59.6950   33.5070   48.9530 C   0  0  0  0  0  0  0  0  0  0  0  0
   60.2040   33.3510   50.2930 N   0  0  0  0  0  0  0  0  0  0  0  0
   61.6440   33.1280   50.4950 C   0  0  0  0  0  0  0  0  0  0  0  0
   62.3730   32.9870   49.1810 C   0  0  0  0  0  0  0  0  0  0  0  0
   62.9020   34.1200   48.5370 C   0  0  0  0  0  0  0  0  0  0  0  0
   63.6040   33.9850   47.3340 C   0  0  0  0  0  0  0  0  0  0  0  0
   63.7790   32.7210   46.7630 C   0  0  0  0  0  0  0  0  0  0  0  0
   63.2510   31.5910   47.3920 C   0  0  0  0  0  0  0  0  0  0  0  0
   62.5490   31.7210   48.5940 C   0  0  0  0  0  0  0  0  0  0  0  0
   59.3290   33.6230   51.4420 C   0  0  0  0  0  0  0  0  0  0  0  0
   58.4020   32.4630   51.6800 C   0  0  0  0  0  0  0  0  0  0  0  0
   57.1640   32.6620   52.3200 C   0  0  0  0  0  0  0  0  0  0  0  0
   56.3160   31.5770   52.5640 C   0  0  0  0  0  0  0  0  0  0  0  0
   56.7040   30.2900   52.1810 C   0  0  0  0  0  0  0  0  0  0  0  0
   55.8850   29.2390   52.4240 F   0  0  0  0  0  0  0  0  0  0  0  0
   57.9400   30.0820   51.5570 C   0  0  0  0  0  0  0  0  0  0  0  0
   58.7880   31.1650   51.3120 C   0  0  0  0  0  0  0  0  0  0  0  0
   59.3300   32.3780   48.2040 C   0  0  0  0  0  0  0  0  0  0  0  0
   58.8240   32.5180   46.9040 C   0  0  0  0  0  0  0  0  0  0  0  0
   58.4730   31.4290   46.1640 N   0  0  0  0  0  0  0  0  0  0  0  0
   56.6280   30.2400   43.1340 C   0  0  0  0  0  0  0  0  0  0  0  0
   56.6350   28.9890   42.6350 N   0  0  0  0  0  0  0  0  0  0  0  0
   57.9881   26.4006   43.9840 H   0  0  0  0  0  0  0  0  0  0  0  0
   57.0603   26.4609   42.4470 H   0  0  0  0  0  0  0  0  0  0  0  0
   58.8220   26.8117   42.4470 H   0  0  0  0  0  0  0  0  0  0  0  0
   59.0438   28.8159   44.8038 H   0  0  0  0  0  0  0  0  0  0  0  0
   57.4227   32.9784   43.3439 H   0  0  0  0  0  0  0  0  0  0  0  0
   58.9262   35.9339   46.6570 H   0  0  0  0  0  0  0  0  0  0  0  0
   59.8350   35.6750   48.9628 H   0  0  0  0  0  0  0  0  0  0  0  0
   62.0638   33.9822   51.0465 H   0  0  0  0  0  0  0  0  0  0  0  0
   61.7718   32.1940   51.0618 H   0  0  0  0  0  0  0  0  0  0  0  0
   62.7633   35.1168   48.9810 H   0  0  0  0  0  0  0  0  0  0  0  0
   64.0186   34.8745   46.8371 H   0  0  0  0  0  0  0  0  0  0  0  0
   64.3326   32.6162   45.8182 H   0  0  0  0  0  0  0  0  0  0  0  0
   63.3878   30.5972   46.9408 H   0  0  0  0  0  0  0  0  0  0  0  0
   62.1321   30.8284   49.0833 H   0  0  0  0  0  0  0  0  0  0  0  0
   59.9465   33.7835   52.3381 H   0  0  0  0  0  0  0  0  0  0  0  0
   58.7302   34.5212   51.2303 H   0  0  0  0  0  0  0  0  0  0  0  0
   56.8628   33.6738   52.6291 H   0  0  0  0  0  0  0  0  0  0  0  0
   55.3454   31.7362   53.0565 H   0  0  0  0  0  0  0  0  0  0  0  0
   58.2430   29.0671   51.2600 H   0  0  0  0  0  0  0  0  0  0  0  0
   59.7622   30.9995   50.8287 H   0  0  0  0  0  0  0  0  0  0  0  0
   59.4418   31.3745   48.6405 H   0  0  0  0  0  0  0  0  0  0  0  0
   58.5810   30.4780   46.5880 H   0  0  0  0  0  0  0  0  0  0  0  0
   55.9427   31.0429   42.8247 H   0  0  0  0  0  0  0  0  0  0  0  0
  1  2  1  0
  2  3  1  0
  3  4  2  0
  4  5  1  0
  5  6  2  0
  6  7  1  0
  7  8  2  0
  8  9  1  0
  9 10  2  0
 10 11  1  0
 11 12  1  0
 12 13  1  0
 13 14  1  0
 14 15  2  0
 15 16  1  0
 16 17  2  0
 17 18  1  0
 18 19  2  0
 12 20  1  0
 20 21  1  0
 21 22  2  0
 22 23  1  0
 23 24  2  0
 24 25  1  0
 24 26  1  0
 26 27  2  0
 11 28  2  0
 28 29  1  0
 29 30  2  0
  4 31  1  0
 31 32  2  0
 32  2  1  0
 30  5  1  0
 29  8  1  0
 19 14  1  0
 27 21  1  0
  1 33  1  0
  1 34  1  0
  1 35  1  0
  3 36  1  0
  6 37  1  0
  9 38  1  0
 10 39  1  0
 13 40  1  0
 13 41  1  0
 15 42  1  0
 16 43  1  0
 17 44  1  0
 18 45  1  0
 19 46  1  0
 20 47  1  0
 20 48  1  0
 22 49  1  0
 23 50  1  0
 26 51  1  0
 27 52  1  0
 28 53  1  0
 30 54  1  0
 31 55  1  0
M  CHG  1  30   1
M  END
>  <UniqueID>  (3) 
3

>  <SMILES>  (3) 
Cn1cc(-c2cnc3ccc(N(Cc4ccccc4)Cc4ccc(F)cc4)cc3[nH+]2)cn1

>  <Energy>  (3) 
97.16382356109062

>  <Genealogy>  (3) 
Cn1cc(-c2cnc3ccc(N(Cc4ccccc4)Cc4ccc(F)cc4)cc3[nH+]2)cn1 (protonated)
Cn1cc(-c2cnc3ccc(N(Cc4ccccc4)Cc4ccc(F)cc4)cc3[nH+]2)cn1 (3D coordinates assigned)
Cn1cc(-c2cnc3ccc(N(Cc4ccccc4)Cc4ccc(F)cc4)cc3[nH+]2)cn1 (optimized conformer: 97.16382356109062 kcal/mol)

>  <smiles>  (3) 
Cn1cc(-c2cnc3ccc(N(Cc4ccccc4)Cc4ccc(F)cc4)cc3n2)cn1

>  <score_type>  (3) 
oracle

>  <origin>  (3) 
adg

>  <m_score__min__energy>  (3) 
-7.0899999999999999

>  <m_primary>  (3) 
energy

$$$$
3:0
     RDKit          3D

 24 25  0  0  0  0  0  0  0  0999 V2000
   60.7810   34.2240   48.4990 C   0  0  0  0  0  0  0  0  0  0  0  0
   60.5550   34.1710   47.0940 O   0  0  0  0  0  0  0  0  0  0  0  0
   59.5010   33.4750   46.4770 C   0  0  0  0  0  0  0  0  0  0  0  0
   58.3730   34.1530   45.9790 C   0  0  0  0  0  0  0  0  0  0  0  0
   57.3340   33.4550   45.3680 C   0  0  0  0  0  0  0  0  0  0  0  0
   57.3950   32.0690   45.2400 C   0  0  0  0  0  0  0  0  0  0  0  0
   56.3900   31.4250   44.6540 O   0  0  0  0  0  0  0  0  0  0  0  0
   56.3760   30.1060   44.4960 C   0  0  0  0  0  0  0  0  0  0  0  0
   55.3950   29.5550   43.9320 O   0  0  0  0  0  0  0  0  0  0  0  0
   57.4430   29.3310   44.9520 C   0  0  0  0  0  0  0  0  0  0  0  0
   58.5190   29.9610   45.5730 C   0  0  0  0  0  0  0  0  0  0  0  0
   58.5170   31.3610   45.7320 C   0  0  0  0  0  0  0  0  0  0  0  0
   59.5800   32.0670   46.3560 C   0  0  0  0  0  0  0  0  0  0  0  0
   60.7870   31.3270   46.8870 C   0  0  0  0  0  0  0  0  0  0  0  0
   59.8430   34.0040   49.0298 H   0  0  0  0  0  0  0  0  0  0  0  0
   61.5423   33.4800   48.7762 H   0  0  0  0  0  0  0  0  0  0  0  0
   61.1322   35.2289   48.7762 H   0  0  0  0  0  0  0  0  0  0  0  0
   58.3110   35.2472   46.0734 H   0  0  0  0  0  0  0  0  0  0  0  0
   56.4599   34.0014   44.9842 H   0  0  0  0  0  0  0  0  0  0  0  0
   57.4346   28.2386   44.8230 H   0  0  0  0  0  0  0  0  0  0  0  0
   59.3691   29.3664   45.9388 H   0  0  0  0  0  0  0  0  0  0  0  0
   60.7692   31.3379   47.9868 H   0  0  0  0  0  0  0  0  0  0  0  0
   60.7655   30.2867   46.5302 H   0  0  0  0  0  0  0  0  0  0  0  0
   61.7044   31.8181   46.5302 H   0  0  0  0  0  0  0  0  0  0  0  0
  1  2  1  0
  2  3  1  0
  3  4  2  0
  4  5  1  0
  5  6  2  0
  6  7  1  0
  7  8  1  0
  8  9  2  0
  8 10  1  0
 10 11  2  0
 11 12  1  0
 12 13  2  0
 13 14  1  0
 13  3  1  0
 12  6  1  0
  1 15  1  0
  1 16  1  0
  1 17  1  0
  4 18  1  0
  5 19  1  0
 10 20  1  0
 11 21  1  0
 14 22  1  0
 14 23  1  0
 14 24  1  0
M  END
>  <UniqueID>  (4) 
4

>  <SMILES>  (4) 
COc1ccc2oc(=O)ccc2c1C

>  <Energy>  (4) 
30.839203116168033

>  <Genealogy>  (4) 
COc1ccc2oc(=O)ccc2c1C (3D coordinates assigned)
COc1ccc2oc(=O)ccc2c1C (optimized conformer: 30.839203116168033 kcal/mol)

>  <smiles>  (4) 
COc1ccc2oc(=O)ccc2c1C

>  <score_type>  (4) 
oracle

>  <origin>  (4) 
adg

>  <m_score__min__energy>  (4) 
-5.3600000000000003

>  <m_primary>  (4) 
energy

$$$$
4:0
     RDKit          3D

 33 34  0  0  0  0  0  0  0  0999 V2000
   58.1450   31.9300   47.1760 C   0  0  0  0  0  0  0  0  0  0  0  0
   57.9410   31.6560   45.7230 C   0  0  0  0  0  0  0  0  0  0  0  0
   57.3690   30.5320   45.2460 N   0  0  0  0  0  0  0  0  0  0  0  0
   57.2950   30.6480   43.9290 N   0  0  0  0  0  0  0  0  0  0  0  0
   56.6910   29.6380   43.0670 C   0  0  0  0  0  0  0  0  0  0  0  0
   57.8180   31.8320   43.5420 C   0  0  0  0  0  0  0  0  0  0  0  0
   57.7750   32.3760   42.1440 C   0  0  0  0  0  0  0  0  0  0  0  0
   58.2440   32.5090   44.6720 C   0  0  0  0  0  0  0  0  0  0  0  0
   58.7520   33.9200   44.7610 C   0  0  0  0  0  0  0  0  0  0  0  0
   60.0940   33.9470   45.3380 N   0  0  0  0  0  0  0  0  0  0  0  0
   60.2930   34.1470   46.7410 C   0  0  0  0  0  0  0  0  0  0  0  0
   59.3190   34.5210   47.5970 N   0  0  0  0  0  0  0  0  0  0  0  0
   59.9450   34.5710   48.7940 C   0  0  0  0  0  0  0  0  0  0  0  0
   61.2540   34.2540   48.7110 N   0  0  0  0  0  0  0  0  0  0  0  0
   62.1970   34.1400   49.8180 C   0  0  0  0  0  0  0  0  0  0  0  0
   61.4790   33.9730   47.4170 C   0  0  0  0  0  0  0  0  0  0  0  0
   63.0150   33.4510   46.7410 Cl  0  0  0  0  0  0  0  0  0  0  0  0
   57.5922   31.1875   47.7703 H   0  0  0  0  0  0  0  0  0  0  0  0
   59.2170   31.8658   47.4143 H   0  0  0  0  0  0  0  0  0  0  0  0
   57.7762   32.9386   47.4143 H   0  0  0  0  0  0  0  0  0  0  0  0
   56.2247   28.8582   43.6870 H   0  0  0  0  0  0  0  0  0  0  0  0
   55.9256   30.1081   42.4320 H   0  0  0  0  0  0  0  0  0  0  0  0
   57.4673   29.1861   42.4320 H   0  0  0  0  0  0  0  0  0  0  0  0
   57.6884   33.4720   42.1795 H   0  0  0  0  0  0  0  0  0  0  0  0
   58.6979   32.0981   41.6139 H   0  0  0  0  0  0  0  0  0  0  0  0
   56.9072   31.9566   41.6139 H   0  0  0  0  0  0  0  0  0  0  0  0
   58.7832   34.3575   43.7522 H   0  0  0  0  0  0  0  0  0  0  0  0
   58.0763   34.5005   45.4063 H   0  0  0  0  0  0  0  0  0  0  0  0
   60.9310   33.8220   44.7230 H   0  0  0  0  0  0  0  0  0  0  0  0
   59.4417   34.8409   49.7341 H   0  0  0  0  0  0  0  0  0  0  0  0
   61.6527   34.2058   50.7716 H   0  0  0  0  0  0  0  0  0  0  0  0
   62.7169   33.1725   49.7586 H   0  0  0  0  0  0  0  0  0  0  0  0
   62.9325   34.9558   49.7586 H   0  0  0  0  0  0  0  0  0  0  0  0
  1  2  1  0
  2  3  2  0
  3  4  1  0
  4  5  1  0
  4  6  1  0
  6  7  1  0
  6  8  2  0
  8  9  1  0
  9 10  1  0
 10 11  1  0
 11 12  1  0
 12 13  2  0
 13 14  1  0
 14 15  1  0
 14 16  1  0
 16 17  1  0
  8  2  1  0
 16 11  2  0
  1 18  1  0
  1 19  1  0
  1 20  1  0
  5 21  1  0
  5 22  1  0
  5 23  1  0
  7 24  1  0
  7 25  1  0
  7 26  1  0
  9 27  1  0
  9 28  1  0
 10 29  1  0
 13 30  1  0
 15 31  1  0
 15 32  1  0
 15 33  1  0
M  END
>  <UniqueID>  (5) 
5

>  <SMILES>  (5) 
Cc1nn(C)c(C)c1CNc1ncn(C)c1Cl

>  <Energy>  (5) 
87.04502858118171

>  <Genealogy>  (5) 
Cc1nn(C)c(C)c1CNc1ncn(C)c1Cl (3D coordinates assigned)
Cc1nn(C)c(C)c1CNc1ncn(C)c1Cl (optimized conformer: 87.04502858118171 kcal/mol)

>  <smiles>  (5) 
Cc1nn(C)c(C)c1CNc1ncn(C)c1Cl

>  <score_type>  (5) 
oracle

>  <origin>  (5) 
adg

>  <m_score__min__energy>  (5) 
-5.9500000000000002

>  <m_primary>  (5) 
energy

$$$$
5:0
     RDKit          3D

 59 62  0  0  0  0  0  0  0  0999 V2000
   61.3970   30.4770   49.7820 O   0  0  0  0  0  0  0  0  0  0  0  0
   60.3180   30.9180   49.4100 C   0  0  0  0  0  0  0  0  0  0  0  0
   59.6150   31.9190   50.3110 C   0  0  0  0  0  0  0  0  0  0  0  0
   59.6430   33.2880   49.7870 N   0  0  0  0  0  0  0  0  0  0  0  0
   59.7060   33.6220   48.3830 C   0  0  0  0  0  0  0  0  0  0  0  0
   58.5300   33.7660   47.6160 C   0  0  0  0  0  0  0  0  0  0  0  0
   58.6000   34.0270   46.2450 C   0  0  0  0  0  0  0  0  0  0  0  0
   57.1330   34.1810   45.3010 Cl  0  0  0  0  0  0  0  0  0  0  0  0
   59.8430   34.1570   45.6220 C   0  0  0  0  0  0  0  0  0  0  0  0
   61.0160   34.0360   46.3690 C   0  0  0  0  0  0  0  0  0  0  0  0
   60.9580   33.7710   47.7430 C   0  0  0  0  0  0  0  0  0  0  0  0
   62.1840   33.6300   48.4760 N   0  0  0  0  0  0  0  0  0  0  0  0
   63.3130   32.9070   47.8780 C   0  0  0  0  0  0  0  0  0  0  0  0
   63.9870   32.0290   48.9360 C   0  0  0  0  0  0  0  0  0  0  0  0
   64.4130   32.8180   50.1900 C   0  0  0  0  0  0  0  0  0  0  0  0
   63.7160   34.1830   50.3360 C   0  0  0  0  0  0  0  0  0  0  0  0
   62.2660   34.1420   49.8500 C   0  0  0  0  0  0  0  0  0  0  0  0
   59.7730   30.4970   48.1300 N   0  0  0  0  0  0  0  0  0  0  0  0
   59.1370   29.1690   48.2430 C   0  0  0  0  0  0  0  0  0  0  0  0
   58.3180   28.8770   46.9730 C   0  0  0  0  0  0  0  0  0  0  0  0
   58.9510   29.4950   45.8000 N   0  0  0  0  0  0  0  0  0  0  0  0
   58.1410   29.9260   44.6820 C   0  0  0  0  0  0  0  0  0  0  0  0
   58.3190   31.2090   44.1260 C   0  0  0  0  0  0  0  0  0  0  0  0
   57.5760   31.6060   43.0070 C   0  0  0  0  0  0  0  0  0  0  0  0
   56.6480   30.7290   42.4310 C   0  0  0  0  0  0  0  0  0  0  0  0
   56.4670   29.4530   42.9710 C   0  0  0  0  0  0  0  0  0  0  0  0
   57.2070   29.0520   44.0910 C   0  0  0  0  0  0  0  0  0  0  0  0
   60.4060   29.7030   45.8260 C   0  0  0  0  0  0  0  0  0  0  0  0
   60.8240   30.5020   47.0830 C   0  0  0  0  0  0  0  0  0  0  0  0
   58.5655   31.6098   50.4249 H   0  0  0  0  0  0  0  0  0  0  0  0
   60.1507   31.9261   51.2717 H   0  0  0  0  0  0  0  0  0  0  0  0
   59.7010   34.0560   50.4930 H   0  0  0  0  0  0  0  0  0  0  0  0
   57.5480   33.6718   48.1026 H   0  0  0  0  0  0  0  0  0  0  0  0
   59.8978   34.3550   44.5414 H   0  0  0  0  0  0  0  0  0  0  0  0
   61.9924   34.1495   45.8752 H   0  0  0  0  0  0  0  0  0  0  0  0
   62.9467   32.2731   47.0570 H   0  0  0  0  0  0  0  0  0  0  0  0
   64.0433   33.6322   47.4896 H   0  0  0  0  0  0  0  0  0  0  0  0
   63.2812   31.2419   49.2399 H   0  0  0  0  0  0  0  0  0  0  0  0
   64.8987   31.6106   48.4846 H   0  0  0  0  0  0  0  0  0  0  0  0
   64.1767   32.2120   51.0771 H   0  0  0  0  0  0  0  0  0  0  0  0
   65.4898   33.0189   50.0898 H   0  0  0  0  0  0  0  0  0  0  0  0
   63.7268   34.4755   51.3963 H   0  0  0  0  0  0  0  0  0  0  0  0
   64.2611   34.9104   49.7165 H   0  0  0  0  0  0  0  0  0  0  0  0
   61.6830   33.4861   50.5133 H   0  0  0  0  0  0  0  0  0  0  0  0
   61.8625   35.1652   49.8666 H   0  0  0  0  0  0  0  0  0  0  0  0
   59.0430   31.1750   47.8230 H   0  0  0  0  0  0  0  0  0  0  0  0
   59.9145   28.4000   48.3617 H   0  0  0  0  0  0  0  0  0  0  0  0
   58.4700   29.1575   49.1176 H   0  0  0  0  0  0  0  0  0  0  0  0
   58.2597   27.7890   46.8219 H   0  0  0  0  0  0  0  0  0  0  0  0
   57.3088   29.2971   47.0957 H   0  0  0  0  0  0  0  0  0  0  0  0
   59.0459   31.9027   44.5737 H   0  0  0  0  0  0  0  0  0  0  0  0
   57.7216   32.6090   42.5795 H   0  0  0  0  0  0  0  0  0  0  0  0
   56.0625   31.0444   41.5548 H   0  0  0  0  0  0  0  0  0  0  0  0
   55.7421   28.7621   42.5159 H   0  0  0  0  0  0  0  0  0  0  0  0
   57.0577   28.0469   44.5123 H   0  0  0  0  0  0  0  0  0  0  0  0
   60.9100   28.7253   45.8360 H   0  0  0  0  0  0  0  0  0  0  0  0
   60.6967   30.2743   44.9321 H   0  0  0  0  0  0  0  0  0  0  0  0
   61.7389   30.0544   47.4984 H   0  0  0  0  0  0  0  0  0  0  0  0
   60.9895   31.5458   46.7780 H   0  0  0  0  0  0  0  0  0  0  0  0
  1  2  2  0
  2  3  1  0
  3  4  1  0
  4  5  1  0
  5  6  2  0
  6  7  1  0
  7  8  1  0
  7  9  2  0
  9 10  1  0
 10 11  2  0
 11 12  1  0
 12 13  1  0
 13 14  1  0
 14 15  1  0
 15 16  1  0
 16 17  1  0
  2 18  1  0
 18 19  1  0
 19 20  1  0
 20 21  1  0
 21 22  1  0
 22 23  2  0
 23 24  1  0
 24 25  2  0
 25 26  1  0
 26 27  2  0
 21 28  1  0
 28 29  1  0
 11  5  1  0
 17 12  1  0
 29 18  1  0
 27 22  1  0
  3 30  1  0
  3 31  1  0
  4 32  1  0
  6 33  1  0
  9 34  1  0
 10 35  1  0
 13 36  1  0
 13 37  1  0
 14 38  1  0
 14 39  1  0
 15 40  1  0
 15 41  1  0
 16 42  1  0
 16 43  1  0
 17 44  1  0
 17 45  1  0
 18 46  1  0
 19 47  1  0
 19 48  1  0
 20 49  1  0
 20 50  1  0
 23 51  1  0
 24 52  1  0
 25 53  1  0
 26 54  1  0
 27 55  1  0
 28 56  1  0
 28 57  1  0
 29 58  1  0
 29 59  1  0
M  CHG  1  18   1
M  END
>  <UniqueID>  (6) 
6

>  <SMILES>  (6) 
O=C(CNc1cc(Cl)ccc1N1CCCCC1)[NH+]1CCN(c2ccccc2)CC1

>  <Energy>  (6) 
75.02978358680966

>  <Genealogy>  (6) 
O=C(CNc1cc(Cl)ccc1N1CCCCC1)[NH+]1CCN(c2ccccc2)CC1 (protonated)
O=C(CNc1cc(Cl)ccc1N1CCCCC1)[NH+]1CCN(c2ccccc2)CC1 (3D coordinates assigned)
O=C(CNc1cc(Cl)ccc1N1CCCCC1)[NH+]1CCN(c2ccccc2)CC1 (nonaromatic ring conformer: 75.02978358680966 kcal/mol)

>  <smiles>  (6) 
O=C(CNc1cc(Cl)ccc1N1CCCCC1)N1CCN(c2ccccc2)CC1

>  <score_type>  (6) 
oracle

>  <origin>  (6) 
adg

>  <m_score__min__energy>  (6) 
-6.8799999999999999

>  <m_primary>  (6) 
energy

$$$$
6:0
     RDKit          3D

 61 63  0  0  0  0  0  0  0  0999 V2000
   60.1930   30.6770   52.5150 C   0  0  0  0  0  0  0  0  0  0  0  0
   60.3770   30.4740   51.0690 N   0  0  0  0  0  0  0  0  0  0  0  0
   60.4510   29.0300   50.7570 C   0  0  0  0  0  0  0  0  0  0  0  0
   60.6870   28.7880   49.2490 C   0  0  0  0  0  0  0  0  0  0  0  0
   60.5330   30.0360   48.4770 N   0  0  0  0  0  0  0  0  0  0  0  0
   60.7220   29.8500   47.0200 C   0  0  0  0  0  0  0  0  0  0  0  0
   59.4580   30.0300   46.2050 C   0  0  0  0  0  0  0  0  0  0  0  0
   58.6300   28.9290   45.9300 C   0  0  0  0  0  0  0  0  0  0  0  0
   57.4630   29.0960   45.1810 C   0  0  0  0  0  0  0  0  0  0  0  0
   57.1150   30.3580   44.6970 C   0  0  0  0  0  0  0  0  0  0  0  0
   57.9300   31.4660   44.9520 C   0  0  0  0  0  0  0  0  0  0  0  0
   57.5360   32.7110   44.4430 O   0  0  0  0  0  0  0  0  0  0  0  0
   57.0420   33.7900   45.2320 C   0  0  0  0  0  0  0  0  0  0  0  0
   58.0400   34.1440   46.3370 C   0  0  0  0  0  0  0  0  0  0  0  0
   59.1920   35.0280   45.8340 C   0  0  0  0  0  0  0  0  0  0  0  0
   60.4590   34.2930   45.7770 N   0  0  0  0  0  0  0  0  0  0  0  0
   61.1220   33.7720   46.9440 C   0  0  0  0  0  0  0  0  0  0  0  0
   60.7030   34.1060   48.2470 C   0  0  0  0  0  0  0  0  0  0  0  0
   61.3700   33.5840   49.3600 C   0  0  0  0  0  0  0  0  0  0  0  0
   62.4600   32.7200   49.1900 C   0  0  0  0  0  0  0  0  0  0  0  0
   63.3110   32.0740   50.5890 S   0  0  0  0  0  0  0  0  0  0  0  0
   64.9350   32.7930   50.6750 C   0  0  0  0  0  0  0  0  0  0  0  0
   62.5530   32.3980   51.8460 O   0  0  0  0  0  0  0  0  0  0  0  0
   63.4260   30.5810   50.4660 O   0  0  0  0  0  0  0  0  0  0  0  0
   62.8860   32.3920   47.8980 C   0  0  0  0  0  0  0  0  0  0  0  0
   62.2220   32.9140   46.7840 C   0  0  0  0  0  0  0  0  0  0  0  0
   59.1090   31.2950   45.7030 C   0  0  0  0  0  0  0  0  0  0  0  0
   59.2770   30.7210   48.8230 C   0  0  0  0  0  0  0  0  0  0  0  0
   59.2800   31.1240   50.3140 C   0  0  0  0  0  0  0  0  0  0  0  0
   60.8315   29.9726   53.0683 H   0  0  0  0  0  0  0  0  0  0  0  0
   60.4705   31.7082   52.7787 H   0  0  0  0  0  0  0  0  0  0  0  0
   59.1395   30.5019   52.7787 H   0  0  0  0  0  0  0  0  0  0  0  0
   61.2860   30.9240   50.8030 H   0  0  0  0  0  0  0  0  0  0  0  0
   61.2807   28.5836   51.3248 H   0  0  0  0  0  0  0  0  0  0  0  0
   59.4926   28.5672   51.0351 H   0  0  0  0  0  0  0  0  0  0  0  0
   61.7057   28.3995   49.1032 H   0  0  0  0  0  0  0  0  0  0  0  0
   59.9403   28.0635   48.8918 H   0  0  0  0  0  0  0  0  0  0  0  0
   61.4650   30.5825   46.6716 H   0  0  0  0  0  0  0  0  0  0  0  0
   61.0494   28.8103   46.8726 H   0  0  0  0  0  0  0  0  0  0  0  0
   58.9018   27.9316   46.3060 H   0  0  0  0  0  0  0  0  0  0  0  0
   56.8166   28.2308   44.9721 H   0  0  0  0  0  0  0  0  0  0  0  0
   56.1927   30.4823   44.1105 H   0  0  0  0  0  0  0  0  0  0  0  0
   56.8874   34.6685   44.5883 H   0  0  0  0  0  0  0  0  0  0  0  0
   56.0907   33.4876   45.6941 H   0  0  0  0  0  0  0  0  0  0  0  0
   57.5061   34.6816   47.1345 H   0  0  0  0  0  0  0  0  0  0  0  0
   58.4779   33.2037   46.7032 H   0  0  0  0  0  0  0  0  0  0  0  0
   58.9465   35.3927   44.8257 H   0  0  0  0  0  0  0  0  0  0  0  0
   59.3137   35.8638   46.5387 H   0  0  0  0  0  0  0  0  0  0  0  0
   60.9140   34.1370   44.8480 H   0  0  0  0  0  0  0  0  0  0  0  0
   59.8464   34.7812   48.3898 H   0  0  0  0  0  0  0  0  0  0  0  0
   61.0374   33.8529   50.3734 H   0  0  0  0  0  0  0  0  0  0  0  0
   65.2240   32.9210   51.7286 H   0  0  0  0  0  0  0  0  0  0  0  0
   65.6564   32.1302   50.1748 H   0  0  0  0  0  0  0  0  0  0  0  0
   64.9292   33.7727   50.1748 H   0  0  0  0  0  0  0  0  0  0  0  0
   63.7464   31.7210   47.7585 H   0  0  0  0  0  0  0  0  0  0  0  0
   62.5645   32.6501   45.7725 H   0  0  0  0  0  0  0  0  0  0  0  0
   59.7618   32.1586   45.8981 H   0  0  0  0  0  0  0  0  0  0  0  0
   59.1733   31.6238   48.2032 H   0  0  0  0  0  0  0  0  0  0  0  0
   58.4343   30.0385   48.6383 H   0  0  0  0  0  0  0  0  0  0  0  0
   59.3993   32.2152   50.3855 H   0  0  0  0  0  0  0  0  0  0  0  0
   58.3270   30.7949   50.7539 H   0  0  0  0  0  0  0  0  0  0  0  0
  1  2  1  0
  2  3  1  0
  3  4  1  0
  4  5  1  0
  5  6  1  0
  6  7  1  0
  7  8  2  0
  8  9  1  0
  9 10  2  0
 10 11  1  0
 11 12  1  0
 12 13  1  0
 13 14  1  0
 14 15  1  0
 15 16  1  0
 16 17  1  0
 17 18  2  0
 18 19  1  0
 19 20  2  0
 20 21  1  0
 21 22  1  0
 21 23  2  0
 21 24  2  0
 20 25  1  0
 25 26  2  0
 11 27  2  0
  5 28  1  0
 28 29  1  0
 29  2  1  0
 27  7  1  0
 26 17  1  0
  1 30  1  0
  1 31  1  0
  1 32  1  0
  2 33  1  0
  3 34  1  0
  3 35  1  0
  4 36  1  0
  4 37  1  0
  6 38  1  0
  6 39  1  0
  8 40  1  0
  9 41  1  0
 10 42  1  0
 13 43  1  0
 13 44  1  0
 14 45  1  0
 14 46  1  0
 15 47  1  0
 15 48  1  0
 16 49  1  0
 18 50  1  0
 19 51  1  0
 22 52  1  0
 22 53  1  0
 22 54  1  0
 25 55  1  0
 26 56  1  0
 27 57  1  0
 28 58  1  0
 28 59  1  0
 29 60  1  0
 29 61  1  0
M  CHG  1   2   1
M  END
>  <UniqueID>  (7) 
7

>  <SMILES>  (7) 
C[NH+]1CCN(Cc2cccc(OCCCNc3ccc(S(C)(=O)=O)cc3)c2)CC1

>  <Energy>  (7) 
64.77603083180138

>  <Genealogy>  (7) 
C[NH+]1CCN(Cc2cccc(OCCCNc3ccc(S(C)(=O)=O)cc3)c2)CC1 (protonated)
C[NH+]1CCN(Cc2cccc(OCCCNc3ccc(S(C)(=O)=O)cc3)c2)CC1 (3D coordinates assigned)
C[NH+]1CCN(Cc2cccc(OCCCNc3ccc(S(C)(=O)=O)cc3)c2)CC1 (nonaromatic ring conformer: 64.77603083180138 kcal/mol)

>  <smiles>  (7) 
CN1CCN(Cc2cccc(OCCCNc3ccc(S(C)(=O)=O)cc3)c2)CC1

>  <score_type>  (7) 
oracle

>  <origin>  (7) 
adg

>  <m_score__min__energy>  (7) 
-7.3799999999999999

>  <m_primary>  (7) 
energy

$$$$
7:0
     RDKit          3D

 38 41  0  0  0  0  0  0  0  0999 V2000
   56.6480   21.2250   42.9550 C   0  0  0  0  0  0  0  0  0  0  0  0
   56.3650   22.5000   43.5250 O   0  0  0  0  0  0  0  0  0  0  0  0
   57.2940   23.2720   44.2370 C   0  0  0  0  0  0  0  0  0  0  0  0
   58.2970   22.6960   45.0380 C   0  0  0  0  0  0  0  0  0  0  0  0
   59.1920   23.5100   45.7330 C   0  0  0  0  0  0  0  0  0  0  0  0
   59.1010   24.9000   45.6370 C   0  0  0  0  0  0  0  0  0  0  0  0
   58.1130   25.4960   44.8350 C   0  0  0  0  0  0  0  0  0  0  0  0
   58.0210   26.9740   44.7350 C   0  0  0  0  0  0  0  0  0  0  0  0
   57.3960   27.6450   43.7380 N   0  0  0  0  0  0  0  0  0  0  0  0
   57.4570   29.0000   43.8780 C   0  0  0  0  0  0  0  0  0  0  0  0
   56.8260   29.9090   42.8660 C   0  0  0  0  0  0  0  0  0  0  0  0
   58.1510   29.4340   45.0200 C   0  0  0  0  0  0  0  0  0  0  0  0
   58.4180   30.8090   45.4910 C   0  0  0  0  0  0  0  0  0  0  0  0
   59.1120   31.0580   46.6310 N   0  0  0  0  0  0  0  0  0  0  0  0
   59.2310   32.3910   46.8610 C   0  0  0  0  0  0  0  0  0  0  0  0
   59.8930   32.9480   47.9570 C   0  0  0  0  0  0  0  0  0  0  0  0
   59.9420   34.3470   48.0760 C   0  0  0  0  0  0  0  0  0  0  0  0
   59.3340   35.1690   47.1050 C   0  0  0  0  0  0  0  0  0  0  0  0
   58.6710   34.5970   46.0070 C   0  0  0  0  0  0  0  0  0  0  0  0
   58.6370   33.2080   45.9140 C   0  0  0  0  0  0  0  0  0  0  0  0
   57.9310   32.2490   44.7350 S   0  0  0  0  0  0  0  0  0  0  0  0
   58.6830   28.0610   45.8370 S   0  0  0  0  0  0  0  0  0  0  0  0
   57.2100   24.6670   44.1420 C   0  0  0  0  0  0  0  0  0  0  0  0
   56.8107   20.4920   43.7588 H   0  0  0  0  0  0  0  0  0  0  0  0
   55.7991   20.9048   42.3331 H   0  0  0  0  0  0  0  0  0  0  0  0
   57.5527   21.2940   42.3331 H   0  0  0  0  0  0  0  0  0  0  0  0
   58.3757   21.6016   45.1165 H   0  0  0  0  0  0  0  0  0  0  0  0
   59.9730   23.0545   46.3596 H   0  0  0  0  0  0  0  0  0  0  0  0
   59.8079   25.5331   46.1933 H   0  0  0  0  0  0  0  0  0  0  0  0
   56.9350   27.1820   42.9250 H   0  0  0  0  0  0  0  0  0  0  0  0
   56.2726   30.7062   43.3838 H   0  0  0  0  0  0  0  0  0  0  0  0
   57.6091   30.3560   42.2359 H   0  0  0  0  0  0  0  0  0  0  0  0
   56.1335   29.3316   42.2359 H   0  0  0  0  0  0  0  0  0  0  0  0
   60.3669   32.3040   48.7125 H   0  0  0  0  0  0  0  0  0  0  0  0
   60.4584   34.8044   48.9328 H   0  0  0  0  0  0  0  0  0  0  0  0
   59.3792   36.2632   47.2080 H   0  0  0  0  0  0  0  0  0  0  0  0
   58.1927   35.2276   45.2430 H   0  0  0  0  0  0  0  0  0  0  0  0
   56.4272   25.1215   43.5169 H   0  0  0  0  0  0  0  0  0  0  0  0
  1  2  1  0
  2  3  1  0
  3  4  2  0
  4  5  1  0
  5  6  2  0
  6  7  1  0
  7  8  1  0
  8  9  2  0
  9 10  1  0
 10 11  1  0
 10 12  2  0
 12 13  1  0
 13 14  2  0
 14 15  1  0
 15 16  2  0
 16 17  1  0
 17 18  2  0
 18 19  1  0
 19 20  2  0
 20 21  1  0
 12 22  1  0
  7 23  2  0
 23  3  1  0
 22  8  1  0
 21 13  1  0
 20 15  1  0
  1 24  1  0
  1 25  1  0
  1 26  1  0
  4 27  1  0
  5 28  1  0
  6 29  1  0
  9 30  1  0
 11 31  1  0
 11 32  1  0
 11 33  1  0
 16 34  1  0
 17 35  1  0
 18 36  1  0
 19 37  1  0
 23 38  1  0
M  CHG  1   9   1
M  END
>  <UniqueID>  (8) 
8

>  <SMILES>  (8) 
COc1cccc(-c2[nH+]c(C)c(-c3nc4ccccc4s3)s2)c1

>  <Energy>  (8) 
108.75010228117218

>  <Genealogy>  (8) 
COc1cccc(-c2[nH+]c(C)c(-c3nc4ccccc4s3)s2)c1 (protonated)
COc1cccc(-c2[nH+]c(C)c(-c3nc4ccccc4s3)s2)c1 (3D coordinates assigned)
COc1cccc(-c2[nH+]c(C)c(-c3nc4ccccc4s3)s2)c1 (optimized conformer: 108.75010228117218 kcal/mol)

>  <smiles>  (8) 
COc1cccc(-c2nc(C)c(-c3nc4ccccc4s3)s2)c1

>  <score_type>  (8) 
oracle

>  <origin>  (8) 
adg

>  <m_score__min__energy>  (8) 
-6.5499999999999998

>  <m_primary>  (8) 
energy

$$$$
8:0
     RDKit          3D

 29 31  0  0  0  0  0  0  0  0999 V2000
   57.3630   32.7190   40.1990 C   0  0  0  0  0  0  0  0  0  0  0  0
   57.3780   32.2610   41.3140 C   0  0  0  0  0  0  0  0  0  0  0  0
   57.3970   31.7140   42.6460 C   0  0  0  0  0  0  0  0  0  0  0  0
   56.7900   30.4800   42.9040 C   0  0  0  0  0  0  0  0  0  0  0  0
   56.8110   29.9480   44.1940 C   0  0  0  0  0  0  0  0  0  0  0  0
   57.4330   30.6460   45.2330 C   0  0  0  0  0  0  0  0  0  0  0  0
   58.0400   31.8930   44.9910 C   0  0  0  0  0  0  0  0  0  0  0  0
   58.6900   32.6260   46.0500 N   0  0  0  0  0  0  0  0  0  0  0  0
   59.9500   32.4450   46.4120 N   0  0  0  0  0  0  0  0  0  0  0  0
   60.1410   33.3320   47.4110 C   0  0  0  0  0  0  0  0  0  0  0  0
   61.4130   33.5030   48.1410 C   0  0  0  0  0  0  0  0  0  0  0  0
   62.6110   32.9810   47.6270 C   0  0  0  0  0  0  0  0  0  0  0  0
   63.8060   33.1510   48.3290 C   0  0  0  0  0  0  0  0  0  0  0  0
   63.7950   33.8400   49.5420 C   0  0  0  0  0  0  0  0  0  0  0  0
   62.6300   34.3410   50.0300 N   0  0  0  0  0  0  0  0  0  0  0  0
   61.4530   34.1900   49.3660 C   0  0  0  0  0  0  0  0  0  0  0  0
   59.0200   34.0470   47.6520 N   0  0  0  0  0  0  0  0  0  0  0  0
   58.1390   33.5790   46.7860 N   0  0  0  0  0  0  0  0  0  0  0  0
   58.0210   32.4170   43.6850 C   0  0  0  0  0  0  0  0  0  0  0  0
   57.3493   33.1369   39.1816 H   0  0  0  0  0  0  0  0  0  0  0  0
   56.2962   29.9291   42.0899 H   0  0  0  0  0  0  0  0  0  0  0  0
   56.3364   28.9760   44.3938 H   0  0  0  0  0  0  0  0  0  0  0  0
   57.4483   30.2182   46.2463 H   0  0  0  0  0  0  0  0  0  0  0  0
   62.6080   32.4377   46.6705 H   0  0  0  0  0  0  0  0  0  0  0  0
   64.7472   32.7455   47.9294 H   0  0  0  0  0  0  0  0  0  0  0  0
   64.7305   33.9779   50.1040 H   0  0  0  0  0  0  0  0  0  0  0  0
   60.5279   34.6076   49.7899 H   0  0  0  0  0  0  0  0  0  0  0  0
   57.1660   33.9430   46.6940 H   0  0  0  0  0  0  0  0  0  0  0  0
   58.4996   33.3856   43.4784 H   0  0  0  0  0  0  0  0  0  0  0  0
  1  2  3  0
  2  3  1  0
  3  4  2  0
  4  5  1  0
  5  6  2  0
  6  7  1  0
  7  8  1  0
  8  9  1  0
  9 10  2  0
 10 11  1  0
 11 12  2  0
 12 13  1  0
 13 14  2  0
 14 15  1  0
 15 16  2  0
 10 17  1  0
 17 18  2  0
  7 19  2  0
 19  3  1  0
 18  8  1  0
 16 11  1  0
  1 20  1  0
  4 21  1  0
  5 22  1  0
  6 23  1  0
 12 24  1  0
 13 25  1  0
 14 26  1  0
 16 27  1  0
 18 28  1  0
 19 29  1  0
M  CHG  1  18   1
M  END
>  <UniqueID>  (9) 
9

>  <SMILES>  (9) 
C#Cc1cccc(-n2nc(-c3cccnc3)n[nH+]2)c1

>  <Energy>  (9) 
72.48881840527912

>  <Genealogy>  (9) 
C#Cc1cccc(-n2nc(-c3cccnc3)n[nH+]2)c1 (protonated)
C#Cc1cccc(-n2nc(-c3cccnc3)n[nH+]2)c1 (3D coordinates assigned)
C#Cc1cccc(-n2nc(-c3cccnc3)n[nH+]2)c1 (optimized conformer: 72.48881840527912 kcal/mol)

>  <smiles>  (9) 
C#Cc1cccc(-n2nnc(-c3cccnc3)n2)c1

>  <score_type>  (9) 
oracle

>  <origin>  (9) 
adg

>  <m_score__min__energy>  (9) 
-5.9199999999999999

>  <m_primary>  (9) 
energy

$$$$
9:0
     RDKit          3D

 33 35  0  0  1  0  0  0  0  0999 V2000
   56.1360   24.8220   45.3820 C   0  0  0  0  0  0  0  0  0  0  0  0
   55.6580   25.9810   46.0850 O   0  0  0  0  0  0  0  0  0  0  0  0
   56.4990   27.0740   46.0520 C   0  0  0  0  0  0  0  0  0  0  0  0
   57.6900   27.0560   46.6760 N   0  0  0  0  0  0  0  0  0  0  0  0
   58.4930   28.1340   46.6290 C   0  0  0  0  0  0  0  0  0  0  0  0
   59.6190   28.0740   47.2370 N   0  0  0  0  0  0  0  0  0  0  0  0
   60.2890   29.2680   47.6290 C   0  0  0  0  0  0  0  0  0  0  0  0
   60.9130   30.0950   46.7170 C   0  0  0  0  0  0  0  0  0  0  0  0
   61.5530   31.2560   47.1650 C   0  0  0  0  0  0  0  0  0  0  0  0
   61.5620   31.5770   48.5270 C   0  0  0  0  0  0  0  0  0  0  0  0
   60.9300   30.7390   49.4510 C   0  0  0  0  0  0  0  0  0  0  0  0
   60.2970   29.5880   48.9900 C   0  0  0  0  0  0  0  0  0  0  0  0
   58.0830   29.2210   45.9510 N   0  0  0  0  0  0  0  0  0  0  0  0
   56.8930   29.2320   45.3300 C   0  0  0  0  0  0  0  0  0  0  0  0
   56.4610   30.2570   44.6670 N   0  0  0  0  0  0  0  0  0  0  0  0
   57.2700   31.5160   44.8850 C   0  0  0  0  0  0  0  0  0  0  0  0
   57.7210   32.1990   45.6500 N   0  0  0  0  0  0  0  0  0  0  0  0
   58.4280   33.3080   45.5440 C   0  0  0  0  0  0  0  0  0  0  0  0
   58.6250   33.6590   44.2010 C   0  0  0  0  0  0  0  0  0  0  0  0
   57.7800   32.3640   43.2280 S   0  0  0  0  0  0  0  0  0  0  0  0
   56.0700   28.1600   45.3630 N   0  0  0  0  0  0  0  0  0  0  0  0
   56.4513   24.0574   46.1073 H   0  0  0  0  0  0  0  0  0  0  0  0
   55.3309   24.4184   44.7504 H   0  0  0  0  0  0  0  0  0  0  0  0
   56.9915   25.1032   44.7504 H   0  0  0  0  0  0  0  0  0  0  0  0
   60.9073   29.8434   45.6462 H   0  0  0  0  0  0  0  0  0  0  0  0
   62.0514   31.9195   46.4430 H   0  0  0  0  0  0  0  0  0  0  0  0
   62.0676   32.4911   48.8718 H   0  0  0  0  0  0  0  0  0  0  0  0
   60.9330   30.9849   50.5232 H   0  0  0  0  0  0  0  0  0  0  0  0
   59.7960   28.9208   49.7068 H   0  0  0  0  0  0  0  0  0  0  0  0
   58.7070   30.0570   45.9150 H   0  0  0  0  0  0  0  0  0  0  0  0
   58.8132   33.8830   46.3990 H   0  0  0  0  0  0  0  0  0  0  0  0
   59.1731   34.5308   43.8144 H   0  0  0  0  0  0  0  0  0  0  0  0
   55.1390   28.1640   44.8800 H   0  0  0  0  0  0  0  0  0  0  0  0
  1  2  1  0
  2  3  1  0
  3  4  2  0
  4  5  1  0
  5  6  2  0
  6  7  1  0
  7  8  2  0
  8  9  1  0
  9 10  2  0
 10 11  1  0
 11 12  2  0
  5 13  1  0
 13 14  1  0
 14 15  2  0
 15 16  1  0
 16 17  2  0
 17 18  1  0
 18 19  2  0
 19 20  1  0
 14 21  1  0
 21  3  1  0
 12  7  1  0
 20 16  1  0
  1 22  1  0
  1 23  1  0
  1 24  1  0
  8 25  1  0
  9 26  1  0
 10 27  1  0
 11 28  1  0
 12 29  1  0
 13 30  1  0
 18 31  1  0
 19 32  1  0
 21 33  1  0
M  END
>  <smiles>  (10) 
COc1nc(=Nc2ccccc2)[nH]c(=Nc2nccs2)[nH]1

>  <score_type>  (10) 
oracle

>  <origin>  (10) 
adg

>  <m_score__min__energy>  (10) 
-6.7400000000000002

>  <m_primary>  (10) 
energy

$$$$
10:0
     RDKit          3D

 44 45  0  0  0  0  0  0  0  0999 V2000
   58.9337   35.7819   47.4748 H   0  0  0  0  0  0  0  0  0  0  0  0
   59.2930   34.9540   46.8460 C   0  0  0  0  0  0  0  0  0  0  0  0
   59.3850   35.1490   45.5260 C   0  0  0  0  0  0  0  0  0  0  0  0
   59.5733   36.1680   45.1569 H   0  0  0  0  0  0  0  0  0  0  0  0
   59.2420   34.0340   44.5220 C   0  0  0  0  0  0  0  0  0  0  0  0
   59.9763   33.2473   44.7501 H   0  0  0  0  0  0  0  0  0  0  0  0
   59.4171   34.4420   43.5156 H   0  0  0  0  0  0  0  0  0  0  0  0
   57.8530   33.4430   44.5690 C   0  0  0  0  0  0  0  0  0  0  0  0
   57.6550   32.2130   44.0470 C   0  0  0  0  0  0  0  0  0  0  0  0
   57.9314   32.0696   42.9920 H   0  0  0  0  0  0  0  0  0  0  0  0
   57.1020   31.0410   44.7590 C   0  0  0  0  0  0  0  0  0  0  0  0
   55.9150   30.6940   44.5130 O   0  0  0  0  0  0  0  0  0  0  0  0
   57.8560   30.3350   45.7040 O   0  0  0  0  0  0  0  0  0  0  0  0
   59.2770   30.2200   45.6520 C   0  0  0  0  0  0  0  0  0  0  0  0
   59.6704   30.1323   46.6755 H   0  0  0  0  0  0  0  0  0  0  0  0
   59.6878   31.1152   45.1622 H   0  0  0  0  0  0  0  0  0  0  0  0
   59.6860   28.9900   44.8510 C   0  0  0  0  0  0  0  0  0  0  0  0
   59.9564   28.1767   45.5405 H   0  0  0  0  0  0  0  0  0  0  0  0
   58.8461   28.6693   44.2171 H   0  0  0  0  0  0  0  0  0  0  0  0
   60.5507   29.2361   44.2171 H   0  0  0  0  0  0  0  0  0  0  0  0
   56.7580   34.2310   45.2400 C   0  0  0  0  0  0  0  0  0  0  0  0
   56.8664   34.1530   46.3319 H   0  0  0  0  0  0  0  0  0  0  0  0
   56.8287   35.2867   44.9390 H   0  0  0  0  0  0  0  0  0  0  0  0
   55.7795   33.8286   44.9390 H   0  0  0  0  0  0  0  0  0  0  0  0
   59.6520   33.6770   47.4990 C   0  0  0  0  0  0  0  0  0  0  0  0
   58.6470   32.9950   48.1900 C   0  0  0  0  0  0  0  0  0  0  0  0
   57.6365   33.4260   48.2465 H   0  0  0  0  0  0  0  0  0  0  0  0
   58.9110   31.7770   48.8070 C   0  0  0  0  0  0  0  0  0  0  0  0
   58.1049   31.2565   49.3449 H   0  0  0  0  0  0  0  0  0  0  0  0
   60.1890   31.2020   48.7540 C   0  0  0  0  0  0  0  0  0  0  0  0
   60.4000   29.8750   49.4450 C   0  0  0  0  0  0  0  0  0  0  0  0
   61.4787   29.6797   49.5358 H   0  0  0  0  0  0  0  0  0  0  0  0
   59.9406   29.9125   50.4438 H   0  0  0  0  0  0  0  0  0  0  0  0
   59.6410   28.5650   48.5030 Cl  0  0  0  0  0  0  0  0  0  0  0  0
   61.2380   31.8970   48.0920 C   0  0  0  0  0  0  0  0  0  0  0  0
   62.5550   31.3880   48.0480 C   0  0  0  0  0  0  0  0  0  0  0  0
   62.7815   30.4261   48.5312 H   0  0  0  0  0  0  0  0  0  0  0  0
   63.5720   32.0890   47.4000 C   0  0  0  0  0  0  0  0  0  0  0  0
   64.5907   31.6749   47.3705 H   0  0  0  0  0  0  0  0  0  0  0  0
   63.3020   33.3100   46.7910 C   0  0  0  0  0  0  0  0  0  0  0  0
   64.1088   33.8589   46.2834 H   0  0  0  0  0  0  0  0  0  0  0  0
   62.0140   33.8410   46.8210 C   0  0  0  0  0  0  0  0  0  0  0  0
   61.8130   34.8100   46.3408 H   0  0  0  0  0  0  0  0  0  0  0  0
   60.9640   33.1470   47.4620 C   0  0  0  0  0  0  0  0  0  0  0  0
  1  2  1  0
  2  3  2  3
  3  4  1  0
  3  5  1  0
  5  6  1  0
  5  7  1  0
  5  8  1  0
  8  9  2  0
  9 10  1  0
  9 11  1  0
 11 12  2  0
 11 13  1  0
 13 14  1  0
 14 15  1  0
 14 16  1  0
 14 17  1  0
 17 18  1  0
 17 19  1  0
 17 20  1  0
  8 21  1  0
 21 22  1  0
 21 23  1  0
 21 24  1  0
  2 25  1  0
 25 26  2  0
 26 27  1  0
 26 28  1  0
 28 29  1  0
 28 30  2  0
 30 31  1  0
 31 32  1  0
 31 33  1  0
 31 34  1  0
 30 35  1  0
 35 36  2  0
 36 37  1  0
 36 38  1  0
 38 39  1  0
 38 40  2  0
 40 41  1  0
 40 42  1  0
 42 43  1  0
 42 44  2  0
 44 25  1  0
 44 35  1  0
M  END
>  <UniqueID>  (11) 
10

>  <SMILES>  (11) 
CCOC(=O)/C=C(\C)CC=Cc1ccc(CCl)c2ccccc12

>  <Energy>  (11) 
51.43367192022838

>  <Genealogy>  (11) 
CCOC(=O)/C=C(\C)CC=Cc1ccc(CCl)c2ccccc12 (cis-trans isomerization)
CCOC(=O)/C=C(\C)CC=Cc1ccc(CCl)c2ccccc12 (3D coordinates assigned)
CCOC(=O)/C=C(\C)CC=Cc1ccc(CCl)c2ccccc12 (optimized conformer: 51.43367192022838 kcal/mol)

>  <smiles>  (11) 
CCOC(=O)C=C(C)CC=Cc1ccc(CCl)c2ccccc12

>  <score_type>  (11) 
oracle

>  <origin>  (11) 
adg

>  <m_score__min__energy>  (11) 
-7.8899999999999997

>  <m_primary>  (11) 
energy

$$$$
11:0
     RDKit          3D

 48 50  0  0  0  0  0  0  0  0999 V2000
   59.5370   33.3410   49.6050 C   0  0  0  0  0  0  0  0  0  0  0  0
   59.3320   33.7740   48.1830 C   0  0  0  0  0  0  0  0  0  0  0  0
   59.9500   34.9340   47.6950 C   0  0  0  0  0  0  0  0  0  0  0  0
   59.7430   35.3380   46.3730 C   0  0  0  0  0  0  0  0  0  0  0  0
   58.9140   34.5910   45.5310 C   0  0  0  0  0  0  0  0  0  0  0  0
   58.2810   33.4320   46.0090 C   0  0  0  0  0  0  0  0  0  0  0  0
   57.4250   32.5940   45.0860 C   0  0  0  0  0  0  0  0  0  0  0  0
   58.1070   31.3380   44.6710 N   0  0  2  0  0  0  0  0  0  0  0  0
   58.3200   31.3120   43.1990 C   0  0  0  0  0  0  0  0  0  0  0  0
   57.0050   31.2380   42.4090 C   0  0  0  0  0  0  0  0  0  0  0  0
   56.0960   30.2460   42.9690 N   0  0  0  0  0  0  0  0  0  0  0  0
   56.1360   29.8820   44.3470 C   0  0  0  0  0  0  0  0  0  0  0  0
   55.1460   29.3060   44.8710 O   0  0  0  0  0  0  0  0  0  0  0  0
   57.3880   30.1200   45.1500 C   0  0  1  0  0  0  0  0  0  0  0  0
   58.3020   28.8690   45.0960 C   0  0  0  0  0  0  0  0  0  0  0  0
   59.5620   29.0300   45.9010 C   0  0  0  0  0  0  0  0  0  0  0  0
   60.4020   29.9130   45.5850 O   0  0  0  0  0  0  0  0  0  0  0  0
   59.8700   28.1050   46.9480 N   0  0  0  0  0  0  0  0  0  0  0  0
   59.8980   26.6790   46.6320 C   0  0  0  0  0  0  0  0  0  0  0  0
   59.8380   28.5590   48.3400 C   0  0  0  0  0  0  0  0  0  0  0  0
   58.8960   29.7330   48.5710 C   0  0  0  0  0  0  0  0  0  0  0  0
   60.3950   29.9600   48.5650 C   0  0  0  0  0  0  0  0  0  0  0  0
   58.4850   33.0330   47.3410 C   0  0  0  0  0  0  0  0  0  0  0  0
   59.1665   34.1235   50.2836 H   0  0  0  0  0  0  0  0  0  0  0  0
   58.9856   32.4067   49.7869 H   0  0  0  0  0  0  0  0  0  0  0  0
   60.6091   33.1754   49.7869 H   0  0  0  0  0  0  0  0  0  0  0  0
   60.5998   35.5280   48.3545 H   0  0  0  0  0  0  0  0  0  0  0  0
   60.2339   36.2465   45.9940 H   0  0  0  0  0  0  0  0  0  0  0  0
   58.7570   34.9120   44.4907 H   0  0  0  0  0  0  0  0  0  0  0  0
   56.4917   32.3345   45.6071 H   0  0  0  0  0  0  0  0  0  0  0  0
   57.2272   33.1855   44.1799 H   0  0  0  0  0  0  0  0  0  0  0  0
   59.0600   31.3510   45.1050 H   0  0  0  0  0  0  0  0  0  0  0  0
   58.8557   32.2267   42.9051 H   0  0  0  0  0  0  0  0  0  0  0  0
   58.8992   30.4069   42.9639 H   0  0  0  0  0  0  0  0  0  0  0  0
   56.5173   32.2236   42.4351 H   0  0  0  0  0  0  0  0  0  0  0  0
   57.2412   30.9429   41.3760 H   0  0  0  0  0  0  0  0  0  0  0  0
   57.1050   30.2961   46.1983 H   0  0  0  0  0  0  0  0  0  0  0  0
   57.7419   28.0078   45.4892 H   0  0  0  0  0  0  0  0  0  0  0  0
   58.5972   28.7207   44.0468 H   0  0  0  0  0  0  0  0  0  0  0  0
   59.9094   26.0968   47.5652 H   0  0  0  0  0  0  0  0  0  0  0  0
   59.0049   26.4156   46.0464 H   0  0  0  0  0  0  0  0  0  0  0  0
   60.8008   26.4509   46.0464 H   0  0  0  0  0  0  0  0  0  0  0  0
   60.0029   27.5754   48.8041 H   0  0  0  0  0  0  0  0  0  0  0  0
   58.2794   30.1137   47.7435 H   0  0  0  0  0  0  0  0  0  0  0  0
   58.0810   29.9472   49.2780 H   0  0  0  0  0  0  0  0  0  0  0  0
   60.8651   30.5048   47.7330 H   0  0  0  0  0  0  0  0  0  0  0  0
   61.1162   30.4064   49.2654 H   0  0  0  0  0  0  0  0  0  0  0  0
   57.9789   32.1357   47.7268 H   0  0  0  0  0  0  0  0  0  0  0  0
  1  2  1  0
  2  3  2  0
  3  4  1  0
  4  5  2  0
  5  6  1  0
  6  7  1  0
  7  8  1  0
  8  9  1  0
  9 10  1  0
 10 11  1  0
 11 12  1  0
 12 13  2  0
 12 14  1  0
 14 15  1  0
 15 16  1  0
 16 17  2  0
 16 18  1  0
 18 19  1  0
 18 20  1  0
 20 21  1  0
 21 22  1  0
  6 23  2  0
 23  2  1  0
 14  8  1  0
 22 20  1  0
  1 24  1  0
  1 25  1  0
  1 26  1  0
  3 27  1  0
  4 28  1  0
  5 29  1  0
  7 30  1  0
  7 31  1  0
  8 32  1  1
  9 33  1  0
  9 34  1  0
 10 35  1  0
 10 36  1  0
 14 37  1  1
 15 38  1  0
 15 39  1  0
 19 40  1  0
 19 41  1  0
 19 42  1  0
 20 43  1  0
 21 44  1  0
 21 45  1  0
 22 46  1  0
 22 47  1  0
 23 48  1  0
M  CHG  2   8   1  11  -1
M  END
>  <UniqueID>  (12) 
11

>  <SMILES>  (12) 
Cc1cccc(C[N@@H+]2CC[N-]C(=O)[C@H]2CC(=O)N(C)C2CC2)c1

>  <Energy>  (12) 
320.98444212220846

>  <Genealogy>  (12) 
Cc1cccc(C[NH+]2CC[N-]C(=O)C2CC(=O)N(C)C2CC2)c1 (protonated)
Cc1cccc(C[N@@H+]2CC[N-]C(=O)[C@H]2CC(=O)N(C)C2CC2)c1 (chirality)
Cc1cccc(C[N@@H+]2CC[N-]C(=O)[C@H]2CC(=O)N(C)C2CC2)c1 (3D coordinates assigned)
Cc1cccc(C[N@@H+]2CC[N-]C(=O)[C@H]2CC(=O)N(C)C2CC2)c1 (nonaromatic ring conformer: 320.98444212220846 kcal/mol)

>  <smiles>  (12) 
Cc1cccc(CN2CCNC(=O)C2CC(=O)N(C)C2CC2)c1

>  <score_type>  (12) 
oracle

>  <origin>  (12) 
adg

>  <m_score__min__energy>  (12) 
-7.4100000000000001

>  <m_primary>  (12) 
energy

$$$$
12:0
     RDKit          3D

 46 49  0  0  0  0  0  0  0  0999 V2000
   58.6587   35.4207   48.0915 H   0  0  0  0  0  0  0  0  0  0  0  0
   59.2590   34.5030   48.0050 C   0  0  0  0  0  0  0  0  0  0  0  0
   59.8000   33.9210   49.2530 C   0  0  0  0  0  0  0  0  0  0  0  0
   60.8980   34.3600   49.6860 O   0  0  0  0  0  0  0  0  0  0  0  0
   59.1230   32.8210   49.9840 C   0  0  0  0  0  0  0  0  0  0  0  0
   59.0660   31.5240   49.4470 C   0  0  0  0  0  0  0  0  0  0  0  0
   59.5658   31.3057   48.4917 H   0  0  0  0  0  0  0  0  0  0  0  0
   58.3790   30.5100   50.1180 C   0  0  0  0  0  0  0  0  0  0  0  0
   58.3284   29.5027   49.6788 H   0  0  0  0  0  0  0  0  0  0  0  0
   57.7550   30.7640   51.3430 C   0  0  0  0  0  0  0  0  0  0  0  0
   57.0670   29.7150   51.9710 O   0  0  0  0  0  0  0  0  0  0  0  0
   56.1880   29.8800   53.0790 C   0  0  0  0  0  0  0  0  0  0  0  0
   56.7548   29.7736   54.0157 H   0  0  0  0  0  0  0  0  0  0  0  0
   55.7308   30.8797   53.0386 H   0  0  0  0  0  0  0  0  0  0  0  0
   55.3994   29.1142   53.0386 H   0  0  0  0  0  0  0  0  0  0  0  0
   57.8400   32.0530   51.9020 C   0  0  0  0  0  0  0  0  0  0  0  0
   57.3645   32.2621   52.8716 H   0  0  0  0  0  0  0  0  0  0  0  0
   58.5260   33.0680   51.2300 C   0  0  0  0  0  0  0  0  0  0  0  0
   58.5987   34.0686   51.6811 H   0  0  0  0  0  0  0  0  0  0  0  0
   59.4440   33.9980   46.7760 C   0  0  0  0  0  0  0  0  0  0  0  0
   59.4854   34.7045   45.9339 H   0  0  0  0  0  0  0  0  0  0  0  0
   59.5960   32.5600   46.4740 C   0  0  0  0  0  0  0  0  0  0  0  0
   60.6750   31.7070   46.7510 C   0  0  0  0  0  0  0  0  0  0  0  0
   61.8900   32.0340   47.5340 C   0  0  0  0  0  0  0  0  0  0  0  0
   62.7140   33.1020   47.1360 C   0  0  0  0  0  0  0  0  0  0  0  0
   62.4593   33.6852   46.2388 H   0  0  0  0  0  0  0  0  0  0  0  0
   63.8560   33.4260   47.8760 C   0  0  0  0  0  0  0  0  0  0  0  0
   64.4914   34.2681   47.5645 H   0  0  0  0  0  0  0  0  0  0  0  0
   64.1910   32.6820   49.0100 C   0  0  0  0  0  0  0  0  0  0  0  0
   65.0862   32.9417   49.5942 H   0  0  0  0  0  0  0  0  0  0  0  0
   63.3890   31.6090   49.4010 C   0  0  0  0  0  0  0  0  0  0  0  0
   63.6573   31.0193   50.2900 H   0  0  0  0  0  0  0  0  0  0  0  0
   62.2450   31.2810   48.6660 C   0  0  0  0  0  0  0  0  0  0  0  0
   61.6206   30.4299   48.9755 H   0  0  0  0  0  0  0  0  0  0  0  0
   60.4580   30.4860   46.2040 N   0  0  0  0  0  0  0  0  0  0  0  0
   61.0840   29.6510   46.2490 H   0  0  0  0  0  0  0  0  0  0  0  0
   59.2570   30.5520   45.6070 C   0  0  0  0  0  0  0  0  0  0  0  0
   58.6160   29.5450   44.8860 C   0  0  0  0  0  0  0  0  0  0  0  0
   59.0721   28.5504   44.7731 H   0  0  0  0  0  0  0  0  0  0  0  0
   57.3690   29.8400   44.3080 C   0  0  0  0  0  0  0  0  0  0  0  0
   56.8345   29.0662   43.7374 H   0  0  0  0  0  0  0  0  0  0  0  0
   56.7980   31.1230   44.4550 C   0  0  0  0  0  0  0  0  0  0  0  0
   55.8234   31.3435   43.9952 H   0  0  0  0  0  0  0  0  0  0  0  0
   57.4680   32.1210   45.1860 C   0  0  0  0  0  0  0  0  0  0  0  0
   57.0368   33.1263   45.3019 H   0  0  0  0  0  0  0  0  0  0  0  0
   58.6970   31.7940   45.7590 C   0  0  0  0  0  0  0  0  0  0  0  0
  1  2  1  0
  2  3  1  0
  3  4  2  0
  3  5  1  0
  5  6  2  0
  6  7  1  0
  6  8  1  0
  8  9  1  0
  8 10  2  0
 10 11  1  0
 11 12  1  0
 12 13  1  0
 12 14  1  0
 12 15  1  0
 10 16  1  0
 16 17  1  0
 16 18  2  0
 18 19  1  0
  2 20  2  0
 20 21  1  0
 20 22  1  0
 22 23  2  0
 23 24  1  0
 24 25  2  0
 25 26  1  0
 25 27  1  0
 27 28  1  0
 27 29  2  0
 29 30  1  0
 29 31  1  0
 31 32  1  0
 31 33  2  0
 33 34  1  0
 23 35  1  0
 35 36  1  0
 35 37  1  0
 37 38  2  0
 38 39  1  0
 38 40  1  0
 40 41  1  0
 40 42  2  0
 42 43  1  0
 42 44  1  0
 44 45  1  0
 44 46  2  0
 18  5  1  0
 46 22  1  0
 33 24  1  0
 46 37  1  0
M  END
>  <UniqueID>  (13) 
12

>  <SMILES>  (13) 
COc1ccc(C(=O)/C=C\c2c(-c3ccccc3)[nH]c3ccccc23)cc1

>  <Energy>  (13) 
94.3021589189493

>  <Genealogy>  (13) 
COc1ccc(C(=O)/C=C\c2c(-c3ccccc3)[nH]c3ccccc23)cc1 (cis-trans isomerization)
COc1ccc(C(=O)/C=C\c2c(-c3ccccc3)[nH]c3ccccc23)cc1 (3D coordinates assigned)
COc1ccc(C(=O)/C=C\c2c(-c3ccccc3)[nH]c3ccccc23)cc1 (optimized conformer: 94.3021589189493 kcal/mol)

>  <smiles>  (13) 
COc1ccc(C(=O)C=Cc2c(-c3ccccc3)[nH]c3ccccc23)cc1

>  <score_type>  (13) 
oracle

>  <origin>  (13) 
adg

>  <m_score__min__energy>  (13) 
-8.7400000000000002

>  <m_primary>  (13) 
energy

$$$$
13:0
     RDKit          3D

 41 43  0  0  0  0  0  0  0  0999 V2000
   63.1080   33.7350   48.9380 C   0  0  0  0  0  0  0  0  0  0  0  0
   62.9800   33.3070   47.5340 N   0  0  0  0  0  0  0  0  0  0  0  0
   61.7320   33.8450   46.9530 C   0  0  0  0  0  0  0  0  0  0  0  0
   60.4750   33.4290   47.7360 C   0  0  0  0  0  0  0  0  0  0  0  0
   59.8240   32.1020   47.2830 C   0  0  0  0  0  0  0  0  0  0  0  0
   60.7700   30.9720   47.2620 N   0  0  0  0  0  0  0  0  0  0  0  0
   60.6110   29.9100   46.2960 C   0  0  0  0  0  0  0  0  0  0  0  0
   61.5850   29.5930   45.5590 O   0  0  0  0  0  0  0  0  0  0  0  0
   59.3350   29.1720   46.1400 C   0  0  0  0  0  0  0  0  0  0  0  0
   58.1680   29.8580   45.7660 C   0  0  0  0  0  0  0  0  0  0  0  0
   56.9630   29.1700   45.6050 C   0  0  0  0  0  0  0  0  0  0  0  0
   56.9090   27.7900   45.8150 C   0  0  0  0  0  0  0  0  0  0  0  0
   58.0720   27.0870   46.1810 C   0  0  0  0  0  0  0  0  0  0  0  0
   59.2830   27.7800   46.3200 C   0  0  0  0  0  0  0  0  0  0  0  0
   58.0370   25.5810   46.2910 C   0  0  0  0  0  0  0  0  0  0  0  0
   56.6810   25.0680   46.7980 C   0  0  0  0  0  0  0  0  0  0  0  0
   55.5500   25.7260   46.0640 C   0  0  0  0  0  0  0  0  0  0  0  0
   54.4750   25.1040   45.8600 O   0  0  0  0  0  0  0  0  0  0  0  0
   55.6680   27.0930   45.6640 N   0  0  0  0  0  0  0  0  0  0  0  0
   62.0190   31.0020   48.0500 C   0  0  0  0  0  0  0  0  0  0  0  0
   63.1490   31.8380   47.4070 C   0  0  0  0  0  0  0  0  0  0  0  0
   62.8567   32.8947   49.6019 H   0  0  0  0  0  0  0  0  0  0  0  0
   64.1419   34.0576   49.1302 H   0  0  0  0  0  0  0  0  0  0  0  0
   62.4210   34.5723   49.1302 H   0  0  0  0  0  0  0  0  0  0  0  0
   61.7934   34.9433   46.9469 H   0  0  0  0  0  0  0  0  0  0  0  0
   61.6379   33.4327   45.9375 H   0  0  0  0  0  0  0  0  0  0  0  0
   60.7527   33.3271   48.7955 H   0  0  0  0  0  0  0  0  0  0  0  0
   59.7271   34.2139   47.5502 H   0  0  0  0  0  0  0  0  0  0  0  0
   59.0044   31.8597   47.9755 H   0  0  0  0  0  0  0  0  0  0  0  0
   59.4639   32.2477   46.2539 H   0  0  0  0  0  0  0  0  0  0  0  0
   58.2031   30.9446   45.5987 H   0  0  0  0  0  0  0  0  0  0  0  0
   56.0543   29.7163   45.3121 H   0  0  0  0  0  0  0  0  0  0  0  0
   60.2007   27.2285   46.5723 H   0  0  0  0  0  0  0  0  0  0  0  0
   58.2307   25.1486   45.2983 H   0  0  0  0  0  0  0  0  0  0  0  0
   58.8059   25.2773   47.0167 H   0  0  0  0  0  0  0  0  0  0  0  0
   56.6266   23.9804   46.6425 H   0  0  0  0  0  0  0  0  0  0  0  0
   56.5924   25.3087   47.8677 H   0  0  0  0  0  0  0  0  0  0  0  0
   61.7938   31.4278   49.0389 H   0  0  0  0  0  0  0  0  0  0  0  0
   62.3835   29.9658   48.1076 H   0  0  0  0  0  0  0  0  0  0  0  0
   64.0982   31.5591   47.8878 H   0  0  0  0  0  0  0  0  0  0  0  0
   63.1284   31.6139   46.3303 H   0  0  0  0  0  0  0  0  0  0  0  0
  1  2  1  0
  2  3  1  0
  3  4  1  0
  4  5  1  0
  5  6  1  0
  6  7  1  0
  7  8  2  0
  7  9  1  0
  9 10  2  0
 10 11  1  0
 11 12  2  0
 12 13  1  0
 13 14  2  0
 13 15  1  0
 15 16  1  0
 16 17  1  0
 17 18  2  0
 17 19  1  0
  6 20  1  0
 20 21  1  0
 21  2  1  0
 14  9  1  0
 19 12  1  0
  1 22  1  0
  1 23  1  0
  1 24  1  0
  3 25  1  0
  3 26  1  0
  4 27  1  0
  4 28  1  0
  5 29  1  0
  5 30  1  0
 10 31  1  0
 11 32  1  0
 14 33  1  0
 15 34  1  0
 15 35  1  0
 16 36  1  0
 16 37  1  0
 20 38  1  0
 20 39  1  0
 21 40  1  0
 21 41  1  0
M  CHG  1  19  -1
M  END
>  <UniqueID>  (14) 
13

>  <SMILES>  (14) 
CN1CCCN(C(=O)c2ccc3c(c2)CCC(=O)[N-]3)CC1

>  <Energy>  (14) 
57.568271989479136

>  <Genealogy>  (14) 
CN1CCCN(C(=O)c2ccc3c(c2)CCC(=O)[N-]3)CC1 (protonated)
CN1CCCN(C(=O)c2ccc3c(c2)CCC(=O)[N-]3)CC1 (3D coordinates assigned)
CN1CCCN(C(=O)c2ccc3c(c2)CCC(=O)[N-]3)CC1 (nonaromatic ring conformer: 57.568271989479136 kcal/mol)

>  <smiles>  (14) 
CN1CCCN(C(=O)c2ccc3c(c2)CCC(=O)N3)CC1

>  <score_type>  (14) 
oracle

>  <origin>  (14) 
adg

>  <m_score__min__energy>  (14) 
-7.9100000000000001

>  <m_primary>  (14) 
energy

$$$$
14:0
     RDKit          3D

 43 45  0  0  0  0  0  0  0  0999 V2000
   64.9020   33.1500   49.6900 C   0  0  0  0  0  0  0  0  0  0  0  0
   63.8000   32.9050   48.7160 C   0  0  0  0  0  0  0  0  0  0  0  0
   63.1870   33.8790   48.0130 N   0  0  0  0  0  0  0  0  0  0  0  0
   62.2320   33.2790   47.3200 N   0  0  0  0  0  0  0  0  0  0  0  0
   61.3490   33.9700   46.3820 C   0  0  0  0  0  0  0  0  0  0  0  0
   60.1040   34.5020   47.1100 C   0  0  1  0  0  0  0  0  0  0  0  0
   58.8560   34.5080   46.1810 C   0  0  0  0  0  0  0  0  0  0  0  0
   58.2340   33.1730   46.0110 N   0  0  0  0  0  0  0  0  0  0  0  0
   58.5590   32.5600   44.7080 C   0  0  0  0  0  0  0  0  0  0  0  0
   57.5420   31.5180   44.3410 C   0  0  0  0  0  0  0  0  0  0  0  0
   56.8880   30.7630   45.2450 N   0  0  0  0  0  0  0  0  0  0  0  0
   56.0370   30.0030   44.5680 N   0  0  0  0  0  0  0  0  0  0  0  0
   56.1810   30.3080   43.2630 C   0  0  0  0  0  0  0  0  0  0  0  0
   57.1270   31.2470   43.0880 N   0  0  0  0  0  0  0  0  0  0  0  0
   57.4960   31.9110   41.8430 C   0  0  0  0  0  0  0  0  0  0  0  0
   58.4930   32.2590   47.1430 C   0  0  0  0  0  0  0  0  0  0  0  0
   58.7590   33.0420   48.4320 C   0  0  0  0  0  0  0  0  0  0  0  0
   59.9470   33.8060   48.3450 O   0  0  0  0  0  0  0  0  0  0  0  0
   62.2750   31.9590   47.5990 C   0  0  0  0  0  0  0  0  0  0  0  0
   61.3390   30.9290   47.0480 C   0  0  0  0  0  0  0  0  0  0  0  0
   63.2450   31.6950   48.4920 N   0  0  0  0  0  0  0  0  0  0  0  0
   64.5117   33.0632   50.7147 H   0  0  0  0  0  0  0  0  0  0  0  0
   65.6986   32.4070   49.5369 H   0  0  0  0  0  0  0  0  0  0  0  0
   65.3087   34.1605   49.5369 H   0  0  0  0  0  0  0  0  0  0  0  0
   61.8909   34.8127   45.9279 H   0  0  0  0  0  0  0  0  0  0  0  0
   61.0311   33.2611   45.6033 H   0  0  0  0  0  0  0  0  0  0  0  0
   60.2347   35.5624   47.3716 H   0  0  0  0  0  0  0  0  0  0  0  0
   58.1062   35.1884   46.6109 H   0  0  0  0  0  0  0  0  0  0  0  0
   59.1964   34.8333   45.1869 H   0  0  0  0  0  0  0  0  0  0  0  0
   58.5698   33.3418   43.9342 H   0  0  0  0  0  0  0  0  0  0  0  0
   59.5459   32.0796   44.7805 H   0  0  0  0  0  0  0  0  0  0  0  0
   55.6010   29.8492   42.4487 H   0  0  0  0  0  0  0  0  0  0  0  0
   58.0188   32.8518   42.0702 H   0  0  0  0  0  0  0  0  0  0  0  0
   58.1588   31.2547   41.2599 H   0  0  0  0  0  0  0  0  0  0  0  0
   56.5887   32.1273   41.2599 H   0  0  0  0  0  0  0  0  0  0  0  0
   57.6161   31.6114   47.2902 H   0  0  0  0  0  0  0  0  0  0  0  0
   59.3830   31.6561   46.9096 H   0  0  0  0  0  0  0  0  0  0  0  0
   57.9126   33.7193   48.6187 H   0  0  0  0  0  0  0  0  0  0  0  0
   58.8752   32.3201   49.2538 H   0  0  0  0  0  0  0  0  0  0  0  0
   60.8530   30.3942   47.8773 H   0  0  0  0  0  0  0  0  0  0  0  0
   60.5734   31.4220   46.4309 H   0  0  0  0  0  0  0  0  0  0  0  0
   61.9028   30.2139   46.4309 H   0  0  0  0  0  0  0  0  0  0  0  0
   63.5030   30.7770   48.9180 H   0  0  0  0  0  0  0  0  0  0  0  0
  1  2  1  0
  2  3  2  0
  3  4  1  0
  4  5  1  0
  5  6  1  0
  6  7  1  0
  7  8  1  0
  8  9  1  0
  9 10  1  0
 10 11  2  0
 11 12  1  0
 12 13  2  0
 13 14  1  0
 14 15  1  0
  8 16  1  0
 16 17  1  0
 17 18  1  0
  4 19  1  0
 19 20  1  0
 19 21  2  0
 21  2  1  0
 18  6  1  0
 14 10  1  0
  1 22  1  0
  1 23  1  0
  1 24  1  0
  5 25  1  0
  5 26  1  0
  6 27  1  1
  7 28  1  0
  7 29  1  0
  9 30  1  0
  9 31  1  0
 13 32  1  0
 15 33  1  0
 15 34  1  0
 15 35  1  0
 16 36  1  0
 16 37  1  0
 17 38  1  0
 17 39  1  0
 20 40  1  0
 20 41  1  0
 20 42  1  0
 21 43  1  0
M  CHG  1  21   1
M  END
>  <UniqueID>  (15) 
14

>  <SMILES>  (15) 
Cc1nn(C[C@H]2CN(Cc3nncn3C)CCO2)c(C)[nH+]1

>  <Energy>  (15) 
121.5373505465755

>  <Genealogy>  (15) 
Cc1nn(CC2CN(Cc3nncn3C)CCO2)c(C)[nH+]1 (protonated)
Cc1nn(C[C@H]2CN(Cc3nncn3C)CCO2)c(C)[nH+]1 (chirality)
Cc1nn(C[C@H]2CN(Cc3nncn3C)CCO2)c(C)[nH+]1 (3D coordinates assigned)
Cc1nn(C[C@H]2CN(Cc3nncn3C)CCO2)c(C)[nH+]1 (nonaromatic ring conformer: 121.5373505465755 kcal/mol)

>  <smiles>  (15) 
Cc1nc(C)n(CC2CN(Cc3nncn3C)CCO2)n1

>  <score_type>  (15) 
oracle

>  <origin>  (15) 
adg

>  <m_score__min__energy>  (15) 
-6.4400000000000004

>  <m_primary>  (15) 
energy

$$$$
15:0
     RDKit          3D

 58 60  0  0  0  0  0  0  0  0999 V2000
   56.1761   33.4413   44.1624 H   0  0  0  0  0  0  0  0  0  0  0  0
   57.0220   33.2500   44.8390 C   0  0  0  0  0  0  0  0  0  0  0  0
   57.6140   31.9570   44.8720 C   0  0  0  0  0  0  0  0  0  0  0  0
   57.1050   30.8550   44.0150 C   0  0  0  0  0  0  0  0  0  0  0  0
   57.0820   31.0170   42.7620 O   0  0  0  0  0  0  0  0  0  0  0  0
   56.6910   29.5470   44.5900 C   0  0  0  0  0  0  0  0  0  0  0  0
   55.4730   29.3760   44.8720 O   0  0  0  0  0  0  0  0  0  0  0  0
   57.6340   28.4830   44.8610 N   0  0  0  0  0  0  0  0  0  0  0  0
   59.0590   28.6080   44.5230 C   0  0  0  0  0  0  0  0  0  0  0  0
   59.6520   28.6600   45.4480 H   0  0  0  0  0  0  0  0  0  0  0  0
   59.3742   27.7341   43.9340 H   0  0  0  0  0  0  0  0  0  0  0  0
   59.2172   29.5235   43.9340 H   0  0  0  0  0  0  0  0  0  0  0  0
   57.1380   27.2390   45.4650 C   0  0  0  0  0  0  0  0  0  0  0  0
   57.1721   27.3246   46.5611 H   0  0  0  0  0  0  0  0  0  0  0  0
   56.1010   27.0631   45.1431 H   0  0  0  0  0  0  0  0  0  0  0  0
   57.7695   26.3979   45.1431 H   0  0  0  0  0  0  0  0  0  0  0  0
   58.7210   31.7230   45.7190 C   0  0  0  0  0  0  0  0  0  0  0  0
   59.2060   30.7363   45.7527 H   0  0  0  0  0  0  0  0  0  0  0  0
   59.1840   32.7750   46.5120 C   0  0  0  0  0  0  0  0  0  0  0  0
   60.2230   32.8660   47.4260 C   0  0  0  0  0  0  0  0  0  0  0  0
   61.1650   31.9390   47.8940 C   0  0  0  0  0  0  0  0  0  0  0  0
   61.0730   30.7170   47.4330 N   0  0  0  0  0  0  0  0  0  0  0  0
   60.3410   29.5140   47.8280 C   0  0  0  0  0  0  0  0  0  0  0  0
   60.9143   28.9812   48.6009 H   0  0  0  0  0  0  0  0  0  0  0  0
   60.2072   28.8772   46.9411 H   0  0  0  0  0  0  0  0  0  0  0  0
   58.9570   29.8730   48.3870 C   0  0  0  0  0  0  0  0  0  0  0  0
   58.3411   28.9624   48.4265 H   0  0  0  0  0  0  0  0  0  0  0  0
   58.5043   30.6262   47.7253 H   0  0  0  0  0  0  0  0  0  0  0  0
   59.0530   30.4710   49.7990 C   0  0  0  0  0  0  0  0  0  0  0  0
   60.1125   30.5532   50.0829 H   0  0  0  0  0  0  0  0  0  0  0  0
   58.5159   29.8101   50.4952 H   0  0  0  0  0  0  0  0  0  0  0  0
   58.4100   31.8630   49.8550 C   0  0  0  0  0  0  0  0  0  0  0  0
   57.6725   31.9559   49.0442 H   0  0  0  0  0  0  0  0  0  0  0  0
   59.1934   32.6263   49.7379 H   0  0  0  0  0  0  0  0  0  0  0  0
   57.7340   32.0590   51.1560 N   0  0  0  0  0  0  0  0  0  0  0  0
   57.6700   30.7910   51.9030 C   0  0  0  0  0  0  0  0  0  0  0  0
   57.6806   31.0006   52.9828 H   0  0  0  0  0  0  0  0  0  0  0  0
   56.7438   30.2580   51.6420 H   0  0  0  0  0  0  0  0  0  0  0  0
   58.5378   30.1675   51.6420 H   0  0  0  0  0  0  0  0  0  0  0  0
   58.4330   33.0740   51.9670 C   0  0  0  0  0  0  0  0  0  0  0  0
   58.2834   32.8567   53.0349 H   0  0  0  0  0  0  0  0  0  0  0  0
   59.5081   33.0516   51.7354 H   0  0  0  0  0  0  0  0  0  0  0  0
   58.0287   34.0704   51.7354 H   0  0  0  0  0  0  0  0  0  0  0  0
   62.1050   32.3810   48.8240 N   0  0  0  0  0  0  0  0  0  0  0  0
   63.2790   31.5940   49.2340 C   0  0  0  0  0  0  0  0  0  0  0  0
   63.3315   31.5588   50.3322 H   0  0  0  0  0  0  0  0  0  0  0  0
   63.1914   30.5714   48.8381 H   0  0  0  0  0  0  0  0  0  0  0  0
   64.1916   32.0635   48.8381 H   0  0  0  0  0  0  0  0  0  0  0  0
   62.0360   33.6730   49.3160 C   0  0  0  0  0  0  0  0  0  0  0  0
   62.7583   33.9918   50.0820 H   0  0  0  0  0  0  0  0  0  0  0  0
   61.0730   34.5870   48.8670 C   0  0  0  0  0  0  0  0  0  0  0  0
   61.0276   35.6105   49.2675 H   0  0  0  0  0  0  0  0  0  0  0  0
   60.1830   34.1550   47.9030 C   0  0  0  0  0  0  0  0  0  0  0  0
   59.1890   34.8750   47.3360 N   0  0  0  0  0  0  0  0  0  0  0  0
   58.9390   35.8720   47.5210 H   0  0  0  0  0  0  0  0  0  0  0  0
   58.5870   34.0180   46.4860 C   0  0  0  0  0  0  0  0  0  0  0  0
   57.5010   34.2860   45.6570 C   0  0  0  0  0  0  0  0  0  0  0  0
   57.0317   35.2808   45.6432 H   0  0  0  0  0  0  0  0  0  0  0  0
  1  2  1  0
  2  3  2  0
  3  4  1  0
  4  5  2  0
  4  6  1  0
  6  7  2  0
  6  8  1  0
  8  9  1  0
  9 10  1  0
  9 11  1  0
  9 12  1  0
  8 13  1  0
 13 14  1  0
 13 15  1  0
 13 16  1  0
  3 17  1  0
 17 18  1  0
 17 19  2  0
 19 20  1  0
 20 21  1  0
 21 22  2  0
 22 23  1  0
 23 24  1  0
 23 25  1  0
 23 26  1  0
 26 27  1  0
 26 28  1  0
 26 29  1  0
 29 30  1  0
 29 31  1  0
 29 32  1  0
 32 33  1  0
 32 34  1  0
 32 35  1  0
 35 36  1  0
 36 37  1  0
 36 38  1  0
 36 39  1  0
 35 40  1  0
 40 41  1  0
 40 42  1  0
 40 43  1  0
 21 44  1  0
 44 45  1  0
 45 46  1  0
 45 47  1  0
 45 48  1  0
 44 49  1  0
 49 50  1  0
 49 51  2  0
 51 52  1  0
 51 53  1  0
 53 54  1  0
 54 55  1  0
 54 56  1  0
 56 57  2  0
 57 58  1  0
 57  2  1  0
 56 19  1  0
 53 20  2  0
M  END
>  <UniqueID>  (16) 
15

>  <SMILES>  (16) 
CN(C)CCCC/N=c1/c2c(ccn1C)[nH]c1ccc(C(=O)C(=O)N(C)C)cc12

>  <Energy>  (16) 
116.09034996137815

>  <Genealogy>  (16) 
CN(C)CCCC/N=c1/c2c(ccn1C)[nH]c1ccc(C(=O)C(=O)N(C)C)cc12 (cis-trans isomerization)
CN(C)CCCC/N=c1/c2c(ccn1C)[nH]c1ccc(C(=O)C(=O)N(C)C)cc12 (3D coordinates assigned)
CN(C)CCCC/N=c1/c2c(ccn1C)[nH]c1ccc(C(=O)C(=O)N(C)C)cc12 (optimized conformer: 116.09034996137815 kcal/mol)

>  <smiles>  (16) 
CN(C)CCCCN=c1c2c(ccn1C)[nH]c1ccc(C(=O)C(=O)N(C)C)cc12

>  <score_type>  (16) 
oracle

>  <origin>  (16) 
adg

>  <m_score__min__energy>  (16) 
-8.0999999999999996

>  <m_primary>  (16) 
energy

$$$$
16:0
     RDKit          3D

 53 55  0  0  0  0  0  0  0  0999 V2000
   57.6500   32.3320   41.5120 C   0  0  0  0  0  0  0  0  0  0  0  0
   58.4470   32.4310   42.8130 C   0  0  0  0  0  0  0  0  0  0  0  0
   57.5430   32.7510   44.0280 C   0  0  1  0  0  0  0  0  0  0  0  0
   56.6300   31.5700   44.4520 C   0  0  0  0  0  0  0  0  0  0  0  0
   57.2110   30.1510   44.2900 C   0  0  0  0  0  0  0  0  0  0  0  0
   56.3380   29.0950   44.8930 C   0  0  0  0  0  0  0  0  0  0  0  0
   55.1490   28.9650   44.4960 O   0  0  0  0  0  0  0  0  0  0  0  0
   56.8490   28.2950   45.9630 N   0  0  0  0  0  0  0  0  0  0  0  0
   57.4030   26.9720   45.8790 C   0  0  0  0  0  0  0  0  0  0  0  0
   56.6340   25.8700   45.4600 C   0  0  0  0  0  0  0  0  0  0  0  0
   57.2220   24.6090   45.3260 C   0  0  0  0  0  0  0  0  0  0  0  0
   58.5800   24.4390   45.5920 C   0  0  0  0  0  0  0  0  0  0  0  0
   59.3580   25.5300   45.9940 C   0  0  0  0  0  0  0  0  0  0  0  0
   58.7750   26.7980   46.1350 C   0  0  0  0  0  0  0  0  0  0  0  0
   59.5800   27.9190   46.5360 N   0  0  0  0  0  0  0  0  0  0  0  0
   60.0310   28.0340   47.9250 C   0  0  0  0  0  0  0  0  0  0  0  0
   60.1910   29.5130   48.2840 C   0  0  0  0  0  0  0  0  0  0  0  0
   61.0130   30.1720   47.3370 O   0  0  0  0  0  0  0  0  0  0  0  0
   60.3800   30.1810   46.0710 C   0  0  0  0  0  0  0  0  0  0  0  0
   60.2270   28.7580   45.5270 C   0  0  0  0  0  0  0  0  0  0  0  0
   58.2880   33.3620   45.2090 C   0  0  0  0  0  0  0  0  0  0  0  0
   58.1340   32.7940   46.4860 C   0  0  0  0  0  0  0  0  0  0  0  0
   58.8190   33.3190   47.5870 C   0  0  0  0  0  0  0  0  0  0  0  0
   59.6710   34.4110   47.4250 C   0  0  0  0  0  0  0  0  0  0  0  0
   59.8430   34.9770   46.1620 C   0  0  0  0  0  0  0  0  0  0  0  0
   59.1660   34.4560   45.0580 C   0  0  0  0  0  0  0  0  0  0  0  0
   56.5831   32.1995   41.7448 H   0  0  0  0  0  0  0  0  0  0  0  0
   57.7860   33.2539   40.9276 H   0  0  0  0  0  0  0  0  0  0  0  0
   58.0075   31.4714   40.9276 H   0  0  0  0  0  0  0  0  0  0  0  0
   58.9545   31.4716   42.9917 H   0  0  0  0  0  0  0  0  0  0  0  0
   59.1710   33.2520   42.7045 H   0  0  0  0  0  0  0  0  0  0  0  0
   56.8691   33.5396   43.6620 H   0  0  0  0  0  0  0  0  0  0  0  0
   56.3789   31.7078   45.5140 H   0  0  0  0  0  0  0  0  0  0  0  0
   55.7703   31.6096   43.7669 H   0  0  0  0  0  0  0  0  0  0  0  0
   57.3284   29.9396   43.2169 H   0  0  0  0  0  0  0  0  0  0  0  0
   58.1754   30.1254   44.8185 H   0  0  0  0  0  0  0  0  0  0  0  0
   55.5650   26.0018   45.2369 H   0  0  0  0  0  0  0  0  0  0  0  0
   56.6124   23.7495   45.0102 H   0  0  0  0  0  0  0  0  0  0  0  0
   59.0404   23.4456   45.4856 H   0  0  0  0  0  0  0  0  0  0  0  0
   60.4298   25.3931   46.2001 H   0  0  0  0  0  0  0  0  0  0  0  0
   59.2881   27.5723   48.5920 H   0  0  0  0  0  0  0  0  0  0  0  0
   60.9962   27.5197   48.0428 H   0  0  0  0  0  0  0  0  0  0  0  0
   59.2002   29.9907   48.2966 H   0  0  0  0  0  0  0  0  0  0  0  0
   60.6632   29.5874   49.2747 H   0  0  0  0  0  0  0  0  0  0  0  0
   59.3843   30.6380   46.1694 H   0  0  0  0  0  0  0  0  0  0  0  0
   61.0009   30.7600   45.3715 H   0  0  0  0  0  0  0  0  0  0  0  0
   59.6108   28.7776   44.6160 H   0  0  0  0  0  0  0  0  0  0  0  0
   61.2191   28.3471   45.2887 H   0  0  0  0  0  0  0  0  0  0  0  0
   57.4685   31.9285   46.6206 H   0  0  0  0  0  0  0  0  0  0  0  0
   58.6853   32.8697   48.5821 H   0  0  0  0  0  0  0  0  0  0  0  0
   60.2065   34.8253   48.2919 H   0  0  0  0  0  0  0  0  0  0  0  0
   60.5155   35.8382   46.0352 H   0  0  0  0  0  0  0  0  0  0  0  0
   59.3181   34.9013   44.0637 H   0  0  0  0  0  0  0  0  0  0  0  0
  1  2  1  0
  2  3  1  0
  3  4  1  0
  4  5  1  0
  5  6  1  0
  6  7  2  0
  6  8  1  0
  8  9  1  0
  9 10  2  0
 10 11  1  0
 11 12  2  0
 12 13  1  0
 13 14  2  0
 14 15  1  0
 15 16  1  0
 16 17  1  0
 17 18  1  0
 18 19  1  0
 19 20  1  0
  3 21  1  0
 21 22  2  0
 22 23  1  0
 23 24  2  0
 24 25  1  0
 25 26  2  0
 14  9  1  0
 20 15  1  0
 26 21  1  0
  1 27  1  0
  1 28  1  0
  1 29  1  0
  2 30  1  0
  2 31  1  0
  3 32  1  6
  4 33  1  0
  4 34  1  0
  5 35  1  0
  5 36  1  0
 10 37  1  0
 11 38  1  0
 12 39  1  0
 13 40  1  0
 16 41  1  0
 16 42  1  0
 17 43  1  0
 17 44  1  0
 19 45  1  0
 19 46  1  0
 20 47  1  0
 20 48  1  0
 22 49  1  0
 23 50  1  0
 24 51  1  0
 25 52  1  0
 26 53  1  0
M  CHG  1   8  -1
M  END
>  <UniqueID>  (17) 
16

>  <SMILES>  (17) 
CC[C@@H](CCC(=O)[N-]c1ccccc1N1CCOCC1)c1ccccc1

>  <Energy>  (17) 
58.01141922317675

>  <Genealogy>  (17) 
CCC(CCC(=O)[N-]c1ccccc1N1CCOCC1)c1ccccc1 (protonated)
CC[C@@H](CCC(=O)[N-]c1ccccc1N1CCOCC1)c1ccccc1 (chirality)
CC[C@@H](CCC(=O)[N-]c1ccccc1N1CCOCC1)c1ccccc1 (3D coordinates assigned)
CC[C@@H](CCC(=O)[N-]c1ccccc1N1CCOCC1)c1ccccc1 (nonaromatic ring conformer: 58.01141922317675 kcal/mol)

>  <smiles>  (17) 
CCC(CCC(=O)Nc1ccccc1N1CCOCC1)c1ccccc1

>  <score_type>  (17) 
oracle

>  <origin>  (17) 
adg

>  <m_score__min__energy>  (17) 
-10.619999999999999

>  <m_primary>  (17) 
energy

$$$$
17:0
     RDKit          3D

 43 46  0  0  0  0  0  0  0  0999 V2000
   54.6070   29.0420   42.7440 H   0  0  0  0  0  0  0  0  0  0  0  0
   54.7840   29.3860   43.7150 N   0  0  0  0  0  0  0  0  0  0  0  0
   55.9620   29.7680   44.0900 C   0  0  0  0  0  0  0  0  0  0  0  0
   57.0150   28.9380   44.1770 N   0  0  0  0  0  0  0  0  0  0  0  0
   58.0450   29.6620   44.5890 N   0  0  0  0  0  0  0  0  0  0  0  0
   59.3590   29.0810   44.8630 C   0  0  0  0  0  0  0  0  0  0  0  0
   59.9554   29.0801   43.9387 H   0  0  0  0  0  0  0  0  0  0  0  0
   59.8622   29.6815   45.6351 H   0  0  0  0  0  0  0  0  0  0  0  0
   59.2120   27.6770   45.3570 C   0  0  0  0  0  0  0  0  0  0  0  0
   60.1360   27.0170   46.0130 O   0  0  0  0  0  0  0  0  0  0  0  0
   59.7060   25.8210   46.2940 N   0  0  0  0  0  0  0  0  0  0  0  0
   58.4590   25.7580   45.7790 C   0  0  0  0  0  0  0  0  0  0  0  0
   57.5900   24.5600   45.8780 C   0  0  0  0  0  0  0  0  0  0  0  0
   57.0620   24.1810   47.1250 C   0  0  0  0  0  0  0  0  0  0  0  0
   57.2984   24.7737   48.0210 H   0  0  0  0  0  0  0  0  0  0  0  0
   56.2400   23.0580   47.2340 C   0  0  0  0  0  0  0  0  0  0  0  0
   55.8347   22.7683   48.2147 H   0  0  0  0  0  0  0  0  0  0  0  0
   55.9310   22.3020   46.1030 C   0  0  0  0  0  0  0  0  0  0  0  0
   55.2847   21.4170   46.1979 H   0  0  0  0  0  0  0  0  0  0  0  0
   56.4370   22.6610   44.8490 C   0  0  0  0  0  0  0  0  0  0  0  0
   56.0910   21.8710   43.7420 O   0  0  0  0  0  0  0  0  0  0  0  0
   56.9590   21.5910   42.6500 C   0  0  0  0  0  0  0  0  0  0  0  0
   57.9402   21.2745   43.0334 H   0  0  0  0  0  0  0  0  0  0  0  0
   56.5282   20.7863   42.0362 H   0  0  0  0  0  0  0  0  0  0  0  0
   57.0797   22.4958   42.0362 H   0  0  0  0  0  0  0  0  0  0  0  0
   57.2690   23.7940   44.7400 C   0  0  0  0  0  0  0  0  0  0  0  0
   57.6711   24.0825   43.7576 H   0  0  0  0  0  0  0  0  0  0  0  0
   58.1210   26.9150   45.1730 N   0  0  0  0  0  0  0  0  0  0  0  0
   57.2420   27.1740   44.6740 H   0  0  0  0  0  0  0  0  0  0  0  0
   57.6540   30.9500   44.7580 C   0  0  0  0  0  0  0  0  0  0  0  0
   58.5060   32.0660   45.2200 C   0  0  0  0  0  0  0  0  0  0  0  0
   59.3270   31.9020   46.3470 C   0  0  0  0  0  0  0  0  0  0  0  0
   59.3394   30.9403   46.8809 H   0  0  0  0  0  0  0  0  0  0  0  0
   60.1290   32.9570   46.7930 C   0  0  0  0  0  0  0  0  0  0  0  0
   60.7786   32.8198   47.6700 H   0  0  0  0  0  0  0  0  0  0  0  0
   60.1070   34.1850   46.1270 C   0  0  0  0  0  0  0  0  0  0  0  0
   60.7441   35.0113   46.4752 H   0  0  0  0  0  0  0  0  0  0  0  0
   59.2750   34.3630   45.0180 C   0  0  0  0  0  0  0  0  0  0  0  0
   59.2521   35.3319   44.4976 H   0  0  0  0  0  0  0  0  0  0  0  0
   58.4720   33.3100   44.5700 C   0  0  0  0  0  0  0  0  0  0  0  0
   57.8101   33.4568   43.7038 H   0  0  0  0  0  0  0  0  0  0  0  0
   56.3090   31.0530   44.4590 C   0  0  0  0  0  0  0  0  0  0  0  0
   55.6676   31.9455   44.5041 H   0  0  0  0  0  0  0  0  0  0  0  0
  1  2  1  0
  2  3  2  0
  3  4  1  0
  4  5  1  0
  5  6  1  0
  6  7  1  0
  6  8  1  0
  6  9  1  0
  9 10  1  0
 10 11  1  0
 11 12  2  0
 12 13  1  0
 13 14  2  0
 14 15  1  0
 14 16  1  0
 16 17  1  0
 16 18  2  0
 18 19  1  0
 18 20  1  0
 20 21  1  0
 21 22  1  0
 22 23  1  0
 22 24  1  0
 22 25  1  0
 20 26  2  0
 26 27  1  0
 12 28  1  0
 28 29  1  0
  5 30  1  0
 30 31  1  0
 31 32  2  0
 32 33  1  0
 32 34  1  0
 34 35  1  0
 34 36  2  0
 36 37  1  0
 36 38  1  0
 38 39  1  0
 38 40  2  0
 40 41  1  0
 30 42  2  0
 42 43  1  0
 42  3  1  0
 28  9  2  0
 40 31  1  0
 26 13  1  0
M  CHG  2   4  -1  28   1
M  END
>  <UniqueID>  (18) 
17

>  <SMILES>  (18) 
[H]/N=c1\cc(-c2ccccc2)n(Cc2[nH+]c(-c3cccc(OC)c3)no2)[n-]1

>  <Energy>  (18) 
117.2721396732469

>  <Genealogy>  (18) 
COc1cccc(-c2noc(Cn3[n-]c(=N)cc3-c3ccccc3)[nH+]2)c1 (protonated)
[H]/N=c1\cc(-c2ccccc2)n(Cc2[nH+]c(-c3cccc(OC)c3)no2)[n-]1 (cis-trans isomerization)
[H]/N=c1\cc(-c2ccccc2)n(Cc2[nH+]c(-c3cccc(OC)c3)no2)[n-]1 (3D coordinates assigned)
[H]/N=c1\cc(-c2ccccc2)n(Cc2[nH+]c(-c3cccc(OC)c3)no2)[n-]1 (optimized conformer: 117.2721396732469 kcal/mol)

>  <smiles>  (18) 
COc1cccc(-c2noc(Cn3[nH]c(=N)cc3-c3ccccc3)n2)c1

>  <score_type>  (18) 
oracle

>  <origin>  (18) 
adg

>  <m_score__min__energy>  (18) 
-7.8700000000000001

>  <m_primary>  (18) 
energy

$$$$
18:0
     RDKit          3D

 29 31  0  0  0  0  0  0  0  0999 V2000
   59.8350   34.2220   49.5520 C   0  0  0  0  0  0  0  0  0  0  0  0
   61.0280   33.8410   48.7960 N   0  0  0  0  0  0  0  0  0  0  0  0
   61.1460   33.6110   47.4590 C   0  0  0  0  0  0  0  0  0  0  0  0
   60.0420   33.6800   46.4760 C   0  0  0  0  0  0  0  0  0  0  0  0
   59.7430   34.8810   45.8120 C   0  0  0  0  0  0  0  0  0  0  0  0
   58.6880   34.9380   44.8970 C   0  0  0  0  0  0  0  0  0  0  0  0
   57.9160   33.8010   44.6430 C   0  0  0  0  0  0  0  0  0  0  0  0
   58.1950   32.6040   45.3120 C   0  0  0  0  0  0  0  0  0  0  0  0
   57.3940   31.4340   45.0560 C   0  0  0  0  0  0  0  0  0  0  0  0
   56.7530   30.4930   44.8500 N   0  0  0  0  0  0  0  0  0  0  0  0
   59.2510   32.5440   46.2290 C   0  0  0  0  0  0  0  0  0  0  0  0
   62.4690   33.3040   47.1290 C   0  0  0  0  0  0  0  0  0  0  0  0
   63.1550   33.3300   48.3230 C   0  0  0  0  0  0  0  0  0  0  0  0
   64.4930   33.0940   48.6200 C   0  0  0  0  0  0  0  0  0  0  0  0
   64.8860   33.2010   49.9650 C   0  0  0  0  0  0  0  0  0  0  0  0
   63.9300   33.5390   50.9510 C   0  0  0  0  0  0  0  0  0  0  0  0
   62.6250   33.7600   50.6060 N   0  0  0  0  0  0  0  0  0  0  0  0
   62.2600   33.6510   49.3020 C   0  0  0  0  0  0  0  0  0  0  0  0
   60.0465   34.1544   50.6294 H   0  0  0  0  0  0  0  0  0  0  0  0
   59.5539   35.2546   49.2976 H   0  0  0  0  0  0  0  0  0  0  0  0
   59.0075   33.5435   49.2976 H   0  0  0  0  0  0  0  0  0  0  0  0
   60.3422   35.7813   46.0131 H   0  0  0  0  0  0  0  0  0  0  0  0
   58.4647   35.8803   44.3754 H   0  0  0  0  0  0  0  0  0  0  0  0
   57.0900   33.8470   43.9180 H   0  0  0  0  0  0  0  0  0  0  0  0
   59.4630   31.6036   46.7589 H   0  0  0  0  0  0  0  0  0  0  0  0
   62.8753   33.0879   46.1299 H   0  0  0  0  0  0  0  0  0  0  0  0
   65.2157   32.8337   47.8326 H   0  0  0  0  0  0  0  0  0  0  0  0
   65.9334   33.0225   50.2499 H   0  0  0  0  0  0  0  0  0  0  0  0
   64.2383   33.6248   52.0034 H   0  0  0  0  0  0  0  0  0  0  0  0
  1  2  1  0
  2  3  1  0
  3  4  1  0
  4  5  2  0
  5  6  1  0
  6  7  2  0
  7  8  1  0
  8  9  1  0
  9 10  3  0
  8 11  2  0
  3 12  2  0
 12 13  1  0
 13 14  2  0
 14 15  1  0
 15 16  2  0
 16 17  1  0
 17 18  2  0
 18  2  1  0
 11  4  1  0
 18 13  1  0
  1 19  1  0
  1 20  1  0
  1 21  1  0
  5 22  1  0
  6 23  1  0
  7 24  1  0
 11 25  1  0
 12 26  1  0
 14 27  1  0
 15 28  1  0
 16 29  1  0
M  END
>  <UniqueID>  (19) 
18

>  <SMILES>  (19) 
Cn1c(-c2cccc(C#N)c2)cc2cccnc21

>  <Energy>  (19) 
71.12666575170043

>  <Genealogy>  (19) 
Cn1c(-c2cccc(C#N)c2)cc2cccnc21 (3D coordinates assigned)
Cn1c(-c2cccc(C#N)c2)cc2cccnc21 (optimized conformer: 71.12666575170043 kcal/mol)

>  <smiles>  (19) 
Cn1c(-c2cccc(C#N)c2)cc2cccnc21

>  <score_type>  (19) 
oracle

>  <origin>  (19) 
adg

>  <m_score__min__energy>  (19) 
-6.8700000000000001

>  <m_primary>  (19) 
energy

$$$$
19:0
     RDKit          3D

 52 54  0  0  0  0  0  0  0  0999 V2000
   60.6070   30.1110   48.8610 C   0  0  0  0  0  0  0  0  0  0  0  0
   61.7470   30.8310   48.1450 C   0  0  0  0  0  0  0  0  0  0  0  0
   62.7770   31.4630   49.1040 C   0  0  0  0  0  0  0  0  0  0  0  0
   63.5320   32.5970   48.4940 N   0  0  0  0  0  0  0  0  0  0  0  0
   63.2320   33.8760   49.1810 C   0  0  0  0  0  0  0  0  0  0  0  0
   61.7640   34.2960   48.9840 C   0  0  0  0  0  0  0  0  0  0  0  0
   61.3300   34.0420   47.6080 N   0  0  0  0  0  0  0  0  0  0  0  0
   59.9620   34.3060   47.2450 C   0  0  0  0  0  0  0  0  0  0  0  0
   59.3520   35.2650   47.7920 O   0  0  0  0  0  0  0  0  0  0  0  0
   59.2430   33.4590   46.2620 C   0  0  0  0  0  0  0  0  0  0  0  0
   59.0320   32.0920   46.5070 C   0  0  0  0  0  0  0  0  0  0  0  0
   58.3360   31.3050   45.5880 C   0  0  0  0  0  0  0  0  0  0  0  0
   57.8230   31.8750   44.4120 C   0  0  0  0  0  0  0  0  0  0  0  0
   57.0220   31.0430   43.4480 C   0  0  0  0  0  0  0  0  0  0  0  0
   55.8210   29.9860   44.3330 S   0  0  0  0  0  0  0  0  0  0  0  0
   56.9890   28.6700   44.6870 C   0  0  0  0  0  0  0  0  0  0  0  0
   56.6680   27.6750   45.6190 C   0  0  0  0  0  0  0  0  0  0  0  0
   57.5740   26.6420   45.8810 C   0  0  0  0  0  0  0  0  0  0  0  0
   58.8040   26.6040   45.2170 C   0  0  0  0  0  0  0  0  0  0  0  0
   59.1320   27.6020   44.2940 C   0  0  0  0  0  0  0  0  0  0  0  0
   58.2290   28.6360   44.0320 C   0  0  0  0  0  0  0  0  0  0  0  0
   58.0170   33.2420   44.1710 C   0  0  0  0  0  0  0  0  0  0  0  0
   58.7180   34.0290   45.0880 C   0  0  0  0  0  0  0  0  0  0  0  0
   62.3500   33.8110   46.5810 C   0  0  0  0  0  0  0  0  0  0  0  0
   63.3210   32.6940   47.0170 C   0  0  0  0  0  0  0  0  0  0  0  0
   60.7444   30.1978   49.9489 H   0  0  0  0  0  0  0  0  0  0  0  0
   59.6480   30.5676   48.5750 H   0  0  0  0  0  0  0  0  0  0  0  0
   60.6072   29.0488   48.5750 H   0  0  0  0  0  0  0  0  0  0  0  0
   62.2685   30.1051   47.5038 H   0  0  0  0  0  0  0  0  0  0  0  0
   61.2976   31.6522   47.5674 H   0  0  0  0  0  0  0  0  0  0  0  0
   62.2451   31.8350   49.9921 H   0  0  0  0  0  0  0  0  0  0  0  0
   63.5093   30.6821   49.3570 H   0  0  0  0  0  0  0  0  0  0  0  0
   64.5550   32.4320   48.6510 H   0  0  0  0  0  0  0  0  0  0  0  0
   63.4278   33.7575   50.2569 H   0  0  0  0  0  0  0  0  0  0  0  0
   63.8739   34.6573   48.7479 H   0  0  0  0  0  0  0  0  0  0  0  0
   61.1289   33.7214   49.6743 H   0  0  0  0  0  0  0  0  0  0  0  0
   61.6752   35.3732   49.1884 H   0  0  0  0  0  0  0  0  0  0  0  0
   59.4187   31.6377   47.4312 H   0  0  0  0  0  0  0  0  0  0  0  0
   58.1887   30.2331   45.7861 H   0  0  0  0  0  0  0  0  0  0  0  0
   56.4776   31.7102   42.7635 H   0  0  0  0  0  0  0  0  0  0  0  0
   57.7122   30.3950   42.8879 H   0  0  0  0  0  0  0  0  0  0  0  0
   55.7026   27.7059   46.1454 H   0  0  0  0  0  0  0  0  0  0  0  0
   57.3187   25.8589   46.6100 H   0  0  0  0  0  0  0  0  0  0  0  0
   59.5138   25.7888   45.4208 H   0  0  0  0  0  0  0  0  0  0  0  0
   60.1009   27.5732   43.7741 H   0  0  0  0  0  0  0  0  0  0  0  0
   58.4910   29.4244   43.3111 H   0  0  0  0  0  0  0  0  0  0  0  0
   57.6149   33.6980   43.2543 H   0  0  0  0  0  0  0  0  0  0  0  0
   58.8604   35.1017   44.8907 H   0  0  0  0  0  0  0  0  0  0  0  0
   61.8573   33.5152   45.6431 H   0  0  0  0  0  0  0  0  0  0  0  0
   62.9218   34.7394   46.4359 H   0  0  0  0  0  0  0  0  0  0  0  0
   62.9198   31.7327   46.6635 H   0  0  0  0  0  0  0  0  0  0  0  0
   64.2986   32.9402   46.5770 H   0  0  0  0  0  0  0  0  0  0  0  0
  1  2  1  0
  2  3  1  0
  3  4  1  0
  4  5  1  0
  5  6  1  0
  6  7  1  0
  7  8  1  0
  8  9  2  0
  8 10  1  0
 10 11  2  0
 11 12  1  0
 12 13  2  0
 13 14  1  0
 14 15  1  0
 15 16  1  0
 16 17  2  0
 17 18  1  0
 18 19  2  0
 19 20  1  0
 20 21  2  0
 13 22  1  0
 22 23  2  0
  7 24  1  0
 24 25  1  0
 25  4  1  0
 23 10  1  0
 21 16  1  0
  1 26  1  0
  1 27  1  0
  1 28  1  0
  2 29  1  0
  2 30  1  0
  3 31  1  0
  3 32  1  0
  4 33  1  0
  5 34  1  0
  5 35  1  0
  6 36  1  0
  6 37  1  0
 11 38  1  0
 12 39  1  0
 14 40  1  0
 14 41  1  0
 17 42  1  0
 18 43  1  0
 19 44  1  0
 20 45  1  0
 21 46  1  0
 22 47  1  0
 23 48  1  0
 24 49  1  0
 24 50  1  0
 25 51  1  0
 25 52  1  0
M  CHG  1   4   1
M  END
>  <UniqueID>  (20) 
19

>  <SMILES>  (20) 
CCC[NH+]1CCN(C(=O)c2ccc(CSc3ccccc3)cc2)CC1

>  <Energy>  (20) 
59.16589083690851

>  <Genealogy>  (20) 
CCC[NH+]1CCN(C(=O)c2ccc(CSc3ccccc3)cc2)CC1 (protonated)
CCC[NH+]1CCN(C(=O)c2ccc(CSc3ccccc3)cc2)CC1 (3D coordinates assigned)
CCC[NH+]1CCN(C(=O)c2ccc(CSc3ccccc3)cc2)CC1 (nonaromatic ring conformer: 59.16589083690851 kcal/mol)

>  <smiles>  (20) 
CCCN1CCN(C(=O)c2ccc(CSc3ccccc3)cc2)CC1

>  <score_type>  (20) 
oracle

>  <origin>  (20) 
adg

>  <m_score__min__energy>  (20) 
-7.0199999999999996

>  <m_primary>  (20) 
energy

$$$$
20:0
     RDKit          3D

 50 52  0  0  0  0  0  0  0  0999 V2000
   59.0400   34.5840   44.9380 C   0  0  0  0  0  0  0  0  0  0  0  0
   57.5720   34.1730   44.9570 C   0  0  0  0  0  0  0  0  0  0  0  0
   57.4010   32.7570   45.5270 C   0  0  0  0  0  0  0  0  0  0  0  0
   57.7750   31.6680   44.5100 C   0  0  0  0  0  0  0  0  0  0  0  0
   57.5070   30.3160   45.0440 N   0  0  0  0  0  0  0  0  0  0  0  0
   56.2840   29.7110   44.8030 C   0  0  0  0  0  0  0  0  0  0  0  0
   55.3820   30.3180   44.1640 O   0  0  0  0  0  0  0  0  0  0  0  0
   56.0320   28.4440   45.2470 N   0  0  0  0  0  0  0  0  0  0  0  0
   56.9980   27.7890   45.9270 C   0  0  0  0  0  0  0  0  0  0  0  0
   56.9290   26.5310   46.3960 N   0  0  0  0  0  0  0  0  0  0  0  0
   58.1590   26.3560   46.9480 C   0  0  0  0  0  0  0  0  0  0  0  0
   58.9630   27.4440   46.8290 N   0  0  0  0  0  0  0  0  0  0  0  0
   60.3560   27.5470   47.2610 C   0  0  0  0  0  0  0  0  0  0  0  0
   60.4950   28.2930   48.6050 C   0  0  0  0  0  0  0  0  0  0  0  0
   60.3470   29.7710   48.4700 N   0  0  0  0  0  0  0  0  0  0  0  0
   59.0850   30.2410   49.0760 C   0  0  0  0  0  0  0  0  0  0  0  0
   58.8480   31.7250   48.7360 C   0  0  0  0  0  0  0  0  0  0  0  0
   60.0850   32.5440   48.7720 N   0  0  0  0  0  0  0  0  0  0  0  0
   60.5270   32.9760   47.4350 C   0  0  0  0  0  0  0  0  0  0  0  0
   61.1790   31.9200   49.5420 C   0  0  0  0  0  0  0  0  0  0  0  0
   61.5040   30.4780   49.0780 C   0  0  0  0  0  0  0  0  0  0  0  0
   58.2030   28.3450   46.1790 C   0  0  0  0  0  0  0  0  0  0  0  0
   58.4830   29.6380   45.7440 C   0  0  0  0  0  0  0  0  0  0  0  0
   59.6020   30.1670   45.9850 O   0  0  0  0  0  0  0  0  0  0  0  0
   59.4055   34.6863   45.9704 H   0  0  0  0  0  0  0  0  0  0  0  0
   59.6290   33.8162   44.4149 H   0  0  0  0  0  0  0  0  0  0  0  0
   59.1447   35.5460   44.4149 H   0  0  0  0  0  0  0  0  0  0  0  0
   57.0086   34.8820   45.5814 H   0  0  0  0  0  0  0  0  0  0  0  0
   57.1936   34.1817   43.9242 H   0  0  0  0  0  0  0  0  0  0  0  0
   58.0468   32.6516   46.4112 H   0  0  0  0  0  0  0  0  0  0  0  0
   56.3399   32.6250   45.7853 H   0  0  0  0  0  0  0  0  0  0  0  0
   57.1832   31.8149   43.5945 H   0  0  0  0  0  0  0  0  0  0  0  0
   58.8511   31.7487   44.2965 H   0  0  0  0  0  0  0  0  0  0  0  0
   58.4722   25.4247   47.4425 H   0  0  0  0  0  0  0  0  0  0  0  0
   60.7679   26.5333   47.3741 H   0  0  0  0  0  0  0  0  0  0  0  0
   60.9050   28.1190   46.4985 H   0  0  0  0  0  0  0  0  0  0  0  0
   59.7191   27.9245   49.2922 H   0  0  0  0  0  0  0  0  0  0  0  0
   61.5082   28.0976   48.9862 H   0  0  0  0  0  0  0  0  0  0  0  0
   60.3280   30.0110   47.4510 H   0  0  0  0  0  0  0  0  0  0  0  0
   58.2496   29.6414   48.6853 H   0  0  0  0  0  0  0  0  0  0  0  0
   59.1500   30.1304   50.1685 H   0  0  0  0  0  0  0  0  0  0  0  0
   58.4186   31.7866   47.7251 H   0  0  0  0  0  0  0  0  0  0  0  0
   58.1695   32.1287   49.5020 H   0  0  0  0  0  0  0  0  0  0  0  0
   61.3103   33.7415   47.5373 H   0  0  0  0  0  0  0  0  0  0  0  0
   60.9282   32.1122   46.8846 H   0  0  0  0  0  0  0  0  0  0  0  0
   59.6726   33.3969   46.8846 H   0  0  0  0  0  0  0  0  0  0  0  0
   62.0829   32.5364   49.4281 H   0  0  0  0  0  0  0  0  0  0  0  0
   60.8498   31.8607   50.5899 H   0  0  0  0  0  0  0  0  0  0  0  0
   62.3118   30.5267   48.3329 H   0  0  0  0  0  0  0  0  0  0  0  0
   61.7933   29.9095   49.9742 H   0  0  0  0  0  0  0  0  0  0  0  0
  1  2  1  0
  2  3  1  0
  3  4  1  0
  4  5  1  0
  5  6  1  0
  6  7  2  0
  6  8  1  0
  8  9  1  0
  9 10  1  0
 10 11  2  0
 11 12  1  0
 12 13  1  0
 13 14  1  0
 14 15  1  0
 15 16  1  0
 16 17  1  0
 17 18  1  0
 18 19  1  0
 18 20  1  0
 20 21  1  0
 12 22  1  0
 22 23  1  0
 23 24  2  0
 23  5  1  0
 22  9  2  0
 21 15  1  0
  1 25  1  0
  1 26  1  0
  1 27  1  0
  2 28  1  0
  2 29  1  0
  3 30  1  0
  3 31  1  0
  4 32  1  0
  4 33  1  0
 11 34  1  0
 13 35  1  0
 13 36  1  0
 14 37  1  0
 14 38  1  0
 15 39  1  0
 16 40  1  0
 16 41  1  0
 17 42  1  0
 17 43  1  0
 19 44  1  0
 19 45  1  0
 19 46  1  0
 20 47  1  0
 20 48  1  0
 21 49  1  0
 21 50  1  0
M  CHG  2   8  -1  15   1
M  END
>  <UniqueID>  (21) 
20

>  <SMILES>  (21) 
CCCCn1c(=O)[n-]c2ncn(CC[NH+]3CCN(C)CC3)c2c1=O

>  <Energy>  (21) 
100.61797969511166

>  <Genealogy>  (21) 
CCCCn1c(=O)[n-]c2ncn(CC[NH+]3CCN(C)CC3)c2c1=O (protonated)
CCCCn1c(=O)[n-]c2ncn(CC[NH+]3CCN(C)CC3)c2c1=O (3D coordinates assigned)
CCCCn1c(=O)[n-]c2ncn(CC[NH+]3CCN(C)CC3)c2c1=O (nonaromatic ring conformer: 100.61797969511166 kcal/mol)

>  <smiles>  (21) 
CCCCn1c(=O)[nH]c2ncn(CCN3CCN(C)CC3)c2c1=O

>  <score_type>  (21) 
oracle

>  <origin>  (21) 
adg

>  <m_score__min__energy>  (21) 
-6.4199999999999999

>  <m_primary>  (21) 
energy

$$$$
21:0
     RDKit          3D

 42 43  0  0  0  0  0  0  0  0999 V2000
   57.5530   25.0310   46.2420 C   0  0  0  0  0  0  0  0  0  0  0  0
   56.7100   26.0630   46.0740 C   0  0  0  0  0  0  0  0  0  0  0  0
   55.3190   25.8690   45.9910 O   0  0  0  0  0  0  0  0  0  0  0  0
   54.6810   24.6570   45.5970 C   0  0  0  0  0  0  0  0  0  0  0  0
   57.2270   27.4520   45.9730 C   0  0  0  0  0  0  0  0  0  0  0  0
   58.0470   27.9500   46.9310 N   0  0  0  0  0  0  0  0  0  0  0  0
   58.5710   29.2050   46.9100 C   0  0  0  0  0  0  0  0  0  0  0  0
   59.5000   29.6050   48.0920 C   0  0  0  0  0  0  0  0  0  0  0  0
   59.8650   28.3790   48.9840 C   0  0  0  0  0  0  0  0  0  0  0  0
   60.8160   30.1960   47.5130 C   0  0  0  0  0  0  0  0  0  0  0  0
   58.8580   30.6190   49.0030 N   0  0  0  0  0  0  0  0  0  0  0  0
   59.4000   31.9930   48.9200 C   0  0  0  0  0  0  0  0  0  0  0  0
   58.6240   30.2100   50.4050 C   0  0  0  0  0  0  0  0  0  0  0  0
   58.1850   30.0600   45.8280 C   0  0  0  0  0  0  0  0  0  0  0  0
   58.5810   31.4120   45.6960 C   0  0  0  0  0  0  0  0  0  0  0  0
   58.1790   32.1790   44.5990 C   0  0  0  0  0  0  0  0  0  0  0  0
   58.6900   33.8530   44.4640 Cl  0  0  0  0  0  0  0  0  0  0  0  0
   57.3680   31.6230   43.6130 C   0  0  0  0  0  0  0  0  0  0  0  0
   56.9480   30.3020   43.7240 C   0  0  0  0  0  0  0  0  0  0  0  0
   57.3390   29.5160   44.8210 C   0  0  0  0  0  0  0  0  0  0  0  0
   56.8910   28.2360   44.9160 N   0  0  0  0  0  0  0  0  0  0  0  0
   58.6365   25.2103   46.3038 H   0  0  0  0  0  0  0  0  0  0  0  0
   57.1599   24.0064   46.3178 H   0  0  0  0  0  0  0  0  0  0  0  0
   54.3833   24.0915   46.4923 H   0  0  0  0  0  0  0  0  0  0  0  0
   53.7889   24.8904   44.9973 H   0  0  0  0  0  0  0  0  0  0  0  0
   55.3784   24.0537   44.9973 H   0  0  0  0  0  0  0  0  0  0  0  0
   59.7816   28.6593   50.0444 H   0  0  0  0  0  0  0  0  0  0  0  0
   59.1746   27.5502   48.7684 H   0  0  0  0  0  0  0  0  0  0  0  0
   60.8963   28.0627   48.7684 H   0  0  0  0  0  0  0  0  0  0  0  0
   61.4788   30.4937   48.3389 H   0  0  0  0  0  0  0  0  0  0  0  0
   61.3182   29.4370   46.8952 H   0  0  0  0  0  0  0  0  0  0  0  0
   60.5823   31.0756   46.8952 H   0  0  0  0  0  0  0  0  0  0  0  0
   59.5557   32.3877   49.9349 H   0  0  0  0  0  0  0  0  0  0  0  0
   60.3592   31.9769   48.3817 H   0  0  0  0  0  0  0  0  0  0  0  0
   58.6882   32.6361   48.3817 H   0  0  0  0  0  0  0  0  0  0  0  0
   59.0542   30.9619   51.0830 H   0  0  0  0  0  0  0  0  0  0  0  0
   57.5423   30.1280   50.5874 H   0  0  0  0  0  0  0  0  0  0  0  0
   59.1015   29.2360   50.5874 H   0  0  0  0  0  0  0  0  0  0  0  0
   59.2162   31.8672   46.4701 H   0  0  0  0  0  0  0  0  0  0  0  0
   57.0600   32.2279   42.7474 H   0  0  0  0  0  0  0  0  0  0  0  0
   56.3034   29.8682   42.9454 H   0  0  0  0  0  0  0  0  0  0  0  0
   56.2650   27.8560   44.1690 H   0  0  0  0  0  0  0  0  0  0  0  0
  1  2  2  0
  2  3  1  0
  3  4  1  0
  2  5  1  0
  5  6  2  0
  6  7  1  0
  7  8  1  0
  8  9  1  0
  8 10  1  0
  8 11  1  0
 11 12  1  0
 11 13  1  0
  7 14  2  0
 14 15  1  0
 15 16  2  0
 16 17  1  0
 16 18  1  0
 18 19  2  0
 19 20  1  0
 20 21  2  0
 21  5  1  0
 20 14  1  0
  1 22  1  0
  1 23  1  0
  4 24  1  0
  4 25  1  0
  4 26  1  0
  9 27  1  0
  9 28  1  0
  9 29  1  0
 10 30  1  0
 10 31  1  0
 10 32  1  0
 12 33  1  0
 12 34  1  0
 12 35  1  0
 13 36  1  0
 13 37  1  0
 13 38  1  0
 15 39  1  0
 18 40  1  0
 19 41  1  0
 21 42  1  0
M  CHG  1  21   1
M  END
>  <UniqueID>  (22) 
21

>  <SMILES>  (22) 
C=C(OC)c1nc(C(C)(C)N(C)C)c2cc(Cl)ccc2[nH+]1

>  <Energy>  (22) 
67.77528666182943

>  <Genealogy>  (22) 
C=C(OC)c1nc(C(C)(C)N(C)C)c2cc(Cl)ccc2[nH+]1 (protonated)
C=C(OC)c1nc(C(C)(C)N(C)C)c2cc(Cl)ccc2[nH+]1 (3D coordinates assigned)
C=C(OC)c1nc(C(C)(C)N(C)C)c2cc(Cl)ccc2[nH+]1 (optimized conformer: 67.77528666182943 kcal/mol)

>  <smiles>  (22) 
C=C(OC)c1nc(C(C)(C)N(C)C)c2cc(Cl)ccc2n1

>  <score_type>  (22) 
oracle

>  <origin>  (22) 
adg

>  <m_score__min__energy>  (22) 
-5.6100000000000003

>  <m_primary>  (22) 
energy

$$$$
22:0
     RDKit          3D

 53 56  0  0  0  0  0  0  0  0999 V2000
   59.4160   31.8320   49.6310 C   0  0  0  0  0  0  0  0  0  0  0  0
   60.6150   32.3870   48.9140 C   0  0  0  0  0  0  0  0  0  0  0  0
   61.2010   33.5880   49.3510 C   0  0  0  0  0  0  0  0  0  0  0  0
   62.3180   34.1100   48.6920 C   0  0  0  0  0  0  0  0  0  0  0  0
   62.8620   33.4390   47.5970 C   0  0  0  0  0  0  0  0  0  0  0  0
   62.2940   32.2420   47.1560 C   0  0  0  0  0  0  0  0  0  0  0  0
   61.1730   31.7090   47.8090 C   0  0  0  0  0  0  0  0  0  0  0  0
   60.6110   30.4740   47.3450 N   0  0  0  0  0  0  0  0  0  0  0  0
   60.7650   29.2590   48.1410 C   0  0  0  0  0  0  0  0  0  0  0  0
   59.4880   28.4250   48.0320 C   0  0  0  0  0  0  0  0  0  0  0  0
   59.1100   28.1390   46.6250 N   0  0  0  0  0  0  0  0  0  0  0  0
   57.6600   27.9260   46.4360 C   0  0  0  0  0  0  0  0  0  0  0  0
   57.2090   28.0400   44.9660 C   0  0  0  0  0  0  0  0  0  0  0  0
   55.9830   28.8480   44.8550 N   0  0  0  0  0  0  0  0  0  0  0  0
   55.9320   29.6510   43.6200 C   0  0  0  0  0  0  0  0  0  0  0  0
   56.7670   30.8960   43.7090 C   0  0  0  0  0  0  0  0  0  0  0  0
   57.3700   31.5520   42.6580 C   0  0  0  0  0  0  0  0  0  0  0  0
   58.0240   32.5700   43.1580 O   0  0  0  0  0  0  0  0  0  0  0  0
   57.8400   32.5480   44.4600 C   0  0  0  0  0  0  0  0  0  0  0  0
   58.4240   33.5310   45.3780 C   0  0  0  0  0  0  0  0  0  0  0  0
   59.3170   34.5380   45.0370 C   0  0  0  0  0  0  0  0  0  0  0  0
   59.6780   35.3440   46.1240 C   0  0  0  0  0  0  0  0  0  0  0  0
   59.0720   34.9740   47.3180 C   0  0  0  0  0  0  0  0  0  0  0  0
   58.0860   33.6440   47.0210 S   0  0  0  0  0  0  0  0  0  0  0  0
   57.0630   31.5210   44.8640 N   0  0  0  0  0  0  0  0  0  0  0  0
   59.7610   28.9610   45.5760 C   0  0  0  0  0  0  0  0  0  0  0  0
   60.0090   30.4140   46.0120 C   0  0  0  0  0  0  0  0  0  0  0  0
   59.5724   31.9044   50.7174 H   0  0  0  0  0  0  0  0  0  0  0  0
   58.5218   32.4078   49.3501 H   0  0  0  0  0  0  0  0  0  0  0  0
   59.2764   30.7777   49.3501 H   0  0  0  0  0  0  0  0  0  0  0  0
   60.7783   34.1198   50.2161 H   0  0  0  0  0  0  0  0  0  0  0  0
   62.7688   35.0519   49.0378 H   0  0  0  0  0  0  0  0  0  0  0  0
   63.7400   33.8534   47.0799 H   0  0  0  0  0  0  0  0  0  0  0  0
   62.7274   31.7151   46.2932 H   0  0  0  0  0  0  0  0  0  0  0  0
   61.6186   28.6769   47.7635 H   0  0  0  0  0  0  0  0  0  0  0  0
   60.9454   29.5252   49.1929 H   0  0  0  0  0  0  0  0  0  0  0  0
   59.6452   27.4703   48.5554 H   0  0  0  0  0  0  0  0  0  0  0  0
   58.6712   29.0066   48.4843 H   0  0  0  0  0  0  0  0  0  0  0  0
   57.4051   26.9203   46.8016 H   0  0  0  0  0  0  0  0  0  0  0  0
   57.1406   28.7172   46.9965 H   0  0  0  0  0  0  0  0  0  0  0  0
   58.0087   28.5160   44.3796 H   0  0  0  0  0  0  0  0  0  0  0  0
   57.0011   27.0303   44.5823 H   0  0  0  0  0  0  0  0  0  0  0  0
   55.1560   28.2070   44.8710 H   0  0  0  0  0  0  0  0  0  0  0  0
   56.3011   29.0376   42.7848 H   0  0  0  0  0  0  0  0  0  0  0  0
   54.8876   29.9593   43.4645 H   0  0  0  0  0  0  0  0  0  0  0  0
   57.3125   31.2722   41.5957 H   0  0  0  0  0  0  0  0  0  0  0  0
   59.7016   34.6875   44.0173 H   0  0  0  0  0  0  0  0  0  0  0  0
   60.3757   36.1903   46.0402 H   0  0  0  0  0  0  0  0  0  0  0  0
   59.2129   35.4666   48.2914 H   0  0  0  0  0  0  0  0  0  0  0  0
   60.7281   28.5022   45.3224 H   0  0  0  0  0  0  0  0  0  0  0  0
   59.0787   28.9905   44.7137 H   0  0  0  0  0  0  0  0  0  0  0  0
   60.6869   30.8938   45.2907 H   0  0  0  0  0  0  0  0  0  0  0  0
   59.0417   30.9367   46.0441 H   0  0  0  0  0  0  0  0  0  0  0  0
  1  2  1  0
  2  3  2  0
  3  4  1  0
  4  5  2  0
  5  6  1  0
  6  7  2  0
  7  8  1  0
  8  9  1  0
  9 10  1  0
 10 11  1  0
 11 12  1  0
 12 13  1  0
 13 14  1  0
 14 15  1  0
 15 16  1  0
 16 17  2  0
 17 18  1  0
 18 19  1  0
 19 20  1  0
 20 21  2  0
 21 22  1  0
 22 23  2  0
 23 24  1  0
 19 25  2  0
 11 26  1  0
 26 27  1  0
  7  2  1  0
 27  8  1  0
 25 16  1  0
 24 20  1  0
  1 28  1  0
  1 29  1  0
  1 30  1  0
  3 31  1  0
  4 32  1  0
  5 33  1  0
  6 34  1  0
  9 35  1  0
  9 36  1  0
 10 37  1  0
 10 38  1  0
 12 39  1  0
 12 40  1  0
 13 41  1  0
 13 42  1  0
 14 43  1  0
 15 44  1  0
 15 45  1  0
 17 46  1  0
 21 47  1  0
 22 48  1  0
 23 49  1  0
 26 50  1  0
 26 51  1  0
 27 52  1  0
 27 53  1  0
M  END
>  <UniqueID>  (23) 
22

>  <SMILES>  (23) 
Cc1ccccc1N1CCN(CCNCc2coc(-c3cccs3)n2)CC1

>  <Energy>  (23) 
120.79562405696322

>  <Genealogy>  (23) 
Cc1ccccc1N1CCN(CCNCc2coc(-c3cccs3)n2)CC1 (3D coordinates assigned)
Cc1ccccc1N1CCN(CCNCc2coc(-c3cccs3)n2)CC1 (nonaromatic ring conformer: 120.79562405696322 kcal/mol)

>  <smiles>  (23) 
Cc1ccccc1N1CCN(CCNCc2coc(-c3cccs3)n2)CC1

>  <score_type>  (23) 
oracle

>  <origin>  (23) 
adg

>  <m_score__min__energy>  (23) 
-8.8499999999999996

>  <m_primary>  (23) 
energy

$$$$
23:0
     RDKit          3D

 41 43  0  0  1  0  0  0  0  0999 V2000
   56.6950   21.3510   42.6240 C   0  0  0  0  0  0  0  0  0  0  0  0
   57.6020   21.3640   43.8280 C   0  0  0  0  0  0  0  0  0  0  0  0
   57.5030   22.5820   44.5820 N   0  0  0  0  0  0  0  0  0  0  0  0
   58.5350   23.2350   45.1850 C   0  0  0  0  0  0  0  0  0  0  0  0
   58.0710   24.3390   45.8000 N   0  0  0  0  0  0  0  0  0  0  0  0
   56.7560   24.4000   45.5980 C   0  0  0  0  0  0  0  0  0  0  0  0
   55.7800   25.2930   45.9860 C   0  0  0  0  0  0  0  0  0  0  0  0
   56.1270   26.2970   46.6860 N   0  0  0  0  0  0  0  0  0  0  0  0
   57.1960   27.1800   46.3700 C   0  0  0  0  0  0  0  0  0  0  0  0
   58.3110   27.1190   47.1900 C   0  0  0  0  0  0  0  0  0  0  0  0
   59.4120   27.9110   47.0030 C   0  0  0  0  0  0  0  0  0  0  0  0
   59.3860   28.7980   45.9460 C   0  0  0  0  0  0  0  0  0  0  0  0
   58.2630   28.8630   45.1150 C   0  0  0  0  0  0  0  0  0  0  0  0
   58.3210   29.8040   44.0530 N   0  0  0  0  0  0  0  0  0  0  0  0
   57.3120   30.7930   43.9160 C   0  0  0  0  0  0  0  0  0  0  0  0
   57.3840   31.7750   42.7970 C   0  0  0  0  0  0  0  0  0  0  0  0
   56.3450   30.8660   44.7180 O   0  0  0  0  0  0  0  0  0  0  0  0
   57.1760   28.0620   45.3220 C   0  0  0  0  0  0  0  0  0  0  0  0
   54.4800   25.1530   45.6600 N   0  0  0  0  0  0  0  0  0  0  0  0
   54.1610   24.0630   44.9100 C   0  0  0  0  0  0  0  0  0  0  0  0
   52.7640   23.7870   44.4800 C   0  0  0  0  0  0  0  0  0  0  0  0
   55.1040   23.1750   44.5190 N   0  0  0  0  0  0  0  0  0  0  0  0
   56.4040   23.3020   44.8380 C   0  0  0  0  0  0  0  0  0  0  0  0
   55.6462   21.3360   42.9552 H   0  0  0  0  0  0  0  0  0  0  0  0
   56.8756   22.2518   42.0191 H   0  0  0  0  0  0  0  0  0  0  0  0
   56.9014   20.4557   42.0191 H   0  0  0  0  0  0  0  0  0  0  0  0
   57.3311   20.5220   44.4820 H   0  0  0  0  0  0  0  0  0  0  0  0
   58.6372   21.2802   43.4656 H   0  0  0  0  0  0  0  0  0  0  0  0
   59.5859   22.9103   45.1716 H   0  0  0  0  0  0  0  0  0  0  0  0
   58.3117   26.4044   48.0263 H   0  0  0  0  0  0  0  0  0  0  0  0
   60.2842   27.8429   47.6699 H   0  0  0  0  0  0  0  0  0  0  0  0
   60.2486   29.4539   45.7571 H   0  0  0  0  0  0  0  0  0  0  0  0
   59.1060   29.7880   43.3550 H   0  0  0  0  0  0  0  0  0  0  0  0
   57.4586   32.7931   43.2068 H   0  0  0  0  0  0  0  0  0  0  0  0
   58.2690   31.5626   42.1792 H   0  0  0  0  0  0  0  0  0  0  0  0
   56.4775   31.6940   42.1792 H   0  0  0  0  0  0  0  0  0  0  0  0
   56.3004   28.1241   44.6591 H   0  0  0  0  0  0  0  0  0  0  0  0
   52.1255   23.6609   45.3668 H   0  0  0  0  0  0  0  0  0  0  0  0
   52.3926   24.6291   43.8776 H   0  0  0  0  0  0  0  0  0  0  0  0
   52.7408   22.8669   43.8776 H   0  0  0  0  0  0  0  0  0  0  0  0
   54.8530   22.3360   43.9410 H   0  0  0  0  0  0  0  0  0  0  0  0
  1  2  1  0
  2  3  1  0
  3  4  1  0
  4  5  2  0
  5  6  1  0
  6  7  1  0
  7  8  2  0
  8  9  1  0
  9 10  2  0
 10 11  1  0
 11 12  2  0
 12 13  1  0
 13 14  1  0
 14 15  1  0
 15 16  1  0
 15 17  2  0
 13 18  2  0
  7 19  1  0
 19 20  2  0
 20 21  1  0
 20 22  1  0
 22 23  1  0
 23  3  1  0
 23  6  2  0
 18  9  1  0
  1 24  1  0
  1 25  1  0
  1 26  1  0
  2 27  1  0
  2 28  1  0
  4 29  1  0
 10 30  1  0
 11 31  1  0
 12 32  1  0
 14 33  1  0
 16 34  1  0
 16 35  1  0
 16 36  1  0
 18 37  1  0
 21 38  1  0
 21 39  1  0
 21 40  1  0
 22 41  1  0
M  END
>  <smiles>  (24) 
CCn1cnc2c(=Nc3cccc(NC(C)=O)c3)nc(C)[nH]c21

>  <score_type>  (24) 
oracle

>  <origin>  (24) 
adg

>  <m_score__min__energy>  (24) 
-7.5499999999999998

>  <m_primary>  (24) 
energy

$$$$
24:0
     RDKit          3D

 38 39  0  0  0  0  0  0  0  0999 V2000
   57.0190   31.2740   42.2060 C   0  0  0  0  0  0  0  0  0  0  0  0
   56.7970   29.9820   42.9890 C   0  0  0  0  0  0  0  0  0  0  0  0
   56.2390   30.2510   44.3620 C   0  0  0  0  0  0  0  0  0  0  0  0
   55.3760   29.4690   44.8460 O   0  0  0  0  0  0  0  0  0  0  0  0
   56.6510   31.3810   45.1390 N   0  0  0  0  0  0  0  0  0  0  0  0
   57.9170   31.5430   45.7890 C   0  0  0  0  0  0  0  0  0  0  0  0
   58.5160   32.7250   46.1910 C   0  0  0  0  0  0  0  0  0  0  0  0
   59.7630   32.4410   46.6130 N   0  0  0  0  0  0  0  0  0  0  0  0
   59.9850   31.1400   46.4820 N   0  0  0  0  0  0  0  0  0  0  0  0
   61.2330   30.4860   46.8630 C   0  0  0  0  0  0  0  0  0  0  0  0
   58.8790   30.5650   45.9570 C   0  0  0  0  0  0  0  0  0  0  0  0
   58.7390   29.1710   45.6260 N   0  0  0  0  0  0  0  0  0  0  0  0
   59.4450   28.6120   44.4650 C   0  0  0  0  0  0  0  0  0  0  0  0
   58.6380   27.4660   43.8450 C   0  0  0  0  0  0  0  0  0  0  0  0
   58.3320   26.3480   44.8670 C   0  0  0  0  0  0  0  0  0  0  0  0
   57.1440   25.6910   44.5050 O   0  0  0  0  0  0  0  0  0  0  0  0
   58.2040   26.8670   46.3180 C   0  0  0  0  0  0  0  0  0  0  0  0
   57.7850   28.3400   46.3750 C   0  0  0  0  0  0  0  0  0  0  0  0
   57.1624   32.1084   42.9083 H   0  0  0  0  0  0  0  0  0  0  0  0
   57.9125   31.1701   41.5728 H   0  0  0  0  0  0  0  0  0  0  0  0
   56.1421   31.4743   41.5728 H   0  0  0  0  0  0  0  0  0  0  0  0
   56.0902   29.3466   42.4352 H   0  0  0  0  0  0  0  0  0  0  0  0
   57.7692   29.4810   43.1063 H   0  0  0  0  0  0  0  0  0  0  0  0
   58.0535   33.7228   46.1694 H   0  0  0  0  0  0  0  0  0  0  0  0
   60.4590   33.1330   46.9720 H   0  0  0  0  0  0  0  0  0  0  0  0
   61.3067   30.4474   47.9598 H   0  0  0  0  0  0  0  0  0  0  0  0
   61.2495   29.4633   46.4581 H   0  0  0  0  0  0  0  0  0  0  0  0
   62.0833   31.0544   46.4581 H   0  0  0  0  0  0  0  0  0  0  0  0
   59.5873   29.4023   43.7132 H   0  0  0  0  0  0  0  0  0  0  0  0
   60.4191   28.2222   44.7955 H   0  0  0  0  0  0  0  0  0  0  0  0
   57.6874   27.8677   43.4641 H   0  0  0  0  0  0  0  0  0  0  0  0
   59.2405   27.0280   43.0356 H   0  0  0  0  0  0  0  0  0  0  0  0
   59.1866   25.6558   44.8444 H   0  0  0  0  0  0  0  0  0  0  0  0
   56.6980   26.2590   43.8230 H   0  0  0  0  0  0  0  0  0  0  0  0
   57.4491   26.2641   46.8439 H   0  0  0  0  0  0  0  0  0  0  0  0
   59.1916   26.7798   46.7945 H   0  0  0  0  0  0  0  0  0  0  0  0
   56.7835   28.4498   45.9335 H   0  0  0  0  0  0  0  0  0  0  0  0
   57.7719   28.6680   47.4249 H   0  0  0  0  0  0  0  0  0  0  0  0
  1  2  1  0
  2  3  1  0
  3  4  2  0
  3  5  1  0
  5  6  1  0
  6  7  1  0
  7  8  2  0
  8  9  1  0
  9 10  1  0
  9 11  1  0
 11 12  1  0
 12 13  1  0
 13 14  1  0
 14 15  1  0
 15 16  1  0
 15 17  1  0
 17 18  1  0
 11  6  2  0
 18 12  1  0
  1 19  1  0
  1 20  1  0
  1 21  1  0
  2 22  1  0
  2 23  1  0
  7 24  1  0
  8 25  1  0
 10 26  1  0
 10 27  1  0
 10 28  1  0
 13 29  1  0
 13 30  1  0
 14 31  1  0
 14 32  1  0
 15 33  1  0
 16 34  1  0
 17 35  1  0
 17 36  1  0
 18 37  1  0
 18 38  1  0
M  CHG  2   5  -1   8   1
M  END
>  <UniqueID>  (25) 
23

>  <SMILES>  (25) 
CCC(=O)[N-]c1c[nH+]n(C)c1N1CCC(O)CC1

>  <Energy>  (25) 
74.00556387171105

>  <Genealogy>  (25) 
CCC(=O)[N-]c1c[nH+]n(C)c1N1CCC(O)CC1 (protonated)
CCC(=O)[N-]c1c[nH+]n(C)c1N1CCC(O)CC1 (3D coordinates assigned)
CCC(=O)[N-]c1c[nH+]n(C)c1N1CCC(O)CC1 (nonaromatic ring conformer: 74.00556387171105 kcal/mol)

>  <smiles>  (25) 
CCC(=O)Nc1cnn(C)c1N1CCC(O)CC1

>  <score_type>  (25) 
oracle

>  <origin>  (25) 
adg

>  <m_score__min__energy>  (25) 
-6.5599999999999996

>  <m_primary>  (25) 
energy

$$$$
25:0
     RDKit          3D

 29 30  0  0  0  0  0  0  0  0999 V2000
   58.1060   32.4140   41.2340 C   0  0  0  0  0  0  0  0  0  0  0  0
   57.8010   31.9860   42.6340 C   0  0  0  0  0  0  0  0  0  0  0  0
   56.9830   30.8790   42.8740 C   0  0  0  0  0  0  0  0  0  0  0  0
   56.7230   30.5150   44.1980 C   0  0  0  0  0  0  0  0  0  0  0  0
   55.8530   29.3380   44.5040 C   0  0  0  0  0  0  0  0  0  0  0  0
   57.2660   31.2400   45.2130 N   0  0  0  0  0  0  0  0  0  0  0  0
   58.0600   32.3170   44.9680 C   0  0  0  0  0  0  0  0  0  0  0  0
   58.6140   33.0580   46.0690 N   0  0  0  0  0  0  0  0  0  0  0  0
   58.6890   32.5580   47.2940 N   0  0  0  0  0  0  0  0  0  0  0  0
   59.2480   33.4930   48.0850 C   0  0  0  0  0  0  0  0  0  0  0  0
   59.5650   33.2840   49.5280 C   0  0  0  0  0  0  0  0  0  0  0  0
   59.5610   34.6170   47.3450 C   0  0  0  0  0  0  0  0  0  0  0  0
   59.1360   34.3080   46.0680 C   0  0  0  0  0  0  0  0  0  0  0  0
   59.2590   35.2180   44.8840 C   0  0  0  0  0  0  0  0  0  0  0  0
   58.3190   32.6780   43.6820 N   0  0  0  0  0  0  0  0  0  0  0  0
   58.7443   33.3096   41.2552 H   0  0  0  0  0  0  0  0  0  0  0  0
   58.6305   31.6024   40.7085 H   0  0  0  0  0  0  0  0  0  0  0  0
   57.1676   32.6448   40.7085 H   0  0  0  0  0  0  0  0  0  0  0  0
   56.5530   30.3064   42.0390 H   0  0  0  0  0  0  0  0  0  0  0  0
   55.7658   29.2201   45.5942 H   0  0  0  0  0  0  0  0  0  0  0  0
   54.8543   29.4979   44.0715 H   0  0  0  0  0  0  0  0  0  0  0  0
   56.2988   28.4302   44.0715 H   0  0  0  0  0  0  0  0  0  0  0  0
   58.8056   33.7847   50.1465 H   0  0  0  0  0  0  0  0  0  0  0  0
   59.5672   32.2068   49.7506 H   0  0  0  0  0  0  0  0  0  0  0  0
   60.5559   33.7064   49.7506 H   0  0  0  0  0  0  0  0  0  0  0  0
   60.0388   35.5447   47.6930 H   0  0  0  0  0  0  0  0  0  0  0  0
   59.3989   36.2528   45.2298 H   0  0  0  0  0  0  0  0  0  0  0  0
   60.1243   34.9143   44.2765 H   0  0  0  0  0  0  0  0  0  0  0  0
   58.3442   35.1549   44.2765 H   0  0  0  0  0  0  0  0  0  0  0  0
  1  2  1  0
  2  3  2  0
  3  4  1  0
  4  5  1  0
  4  6  2  0
  6  7  1  0
  7  8  1  0
  8  9  1  0
  9 10  2  0
 10 11  1  0
 10 12  1  0
 12 13  2  0
 13 14  1  0
  7 15  2  0
 15  2  1  0
 13  8  1  0
  1 16  1  0
  1 17  1  0
  1 18  1  0
  3 19  1  0
  5 20  1  0
  5 21  1  0
  5 22  1  0
 11 23  1  0
 11 24  1  0
 11 25  1  0
 12 26  1  0
 14 27  1  0
 14 28  1  0
 14 29  1  0
M  END
>  <UniqueID>  (26) 
24

>  <SMILES>  (26) 
Cc1cc(C)nc(-n2nc(C)cc2C)n1

>  <Energy>  (26) 
56.06534878615719

>  <Genealogy>  (26) 
Cc1cc(C)nc(-n2nc(C)cc2C)n1 (3D coordinates assigned)
Cc1cc(C)nc(-n2nc(C)cc2C)n1 (optimized conformer: 56.06534878615719 kcal/mol)

>  <smiles>  (26) 
Cc1cc(C)nc(-n2nc(C)cc2C)n1

>  <score_type>  (26) 
oracle

>  <origin>  (26) 
adg

>  <m_score__min__energy>  (26) 
-6.4699999999999998

>  <m_primary>  (26) 
energy

$$$$
26:0
     RDKit          3D

 47 49  0  0  0  0  0  0  0  0999 V2000
   55.9170   29.7190   43.8010 C   0  0  0  0  0  0  0  0  0  0  0  0
   56.9590   30.5520   43.0650 C   0  0  0  0  0  0  0  0  0  0  0  0
   57.4860   31.6390   43.9490 C   0  0  0  0  0  0  0  0  0  0  0  0
   57.2920   31.5750   45.2940 N   0  0  0  0  0  0  0  0  0  0  0  0
   57.7330   32.5650   46.1130 C   0  0  0  0  0  0  0  0  0  0  0  0
   58.3870   33.6800   45.5750 C   0  0  0  0  0  0  0  0  0  0  0  0
   58.9060   34.7740   46.4700 C   0  0  0  0  0  0  0  0  0  0  0  0
   60.1010   34.3210   47.2120 N   0  0  0  0  0  0  0  0  0  0  0  0
   59.7250   33.6520   48.4840 C   0  0  0  0  0  0  0  0  0  0  0  0
   60.8310   32.7290   49.0340 C   0  0  0  0  0  0  0  0  0  0  0  0
   62.1420   33.1090   48.4950 N   0  0  0  0  0  0  0  0  0  0  0  0
   63.2770   33.2910   49.3630 C   0  0  0  0  0  0  0  0  0  0  0  0
   63.1700   34.0810   50.5180 C   0  0  0  0  0  0  0  0  0  0  0  0
   64.2750   34.2680   51.3530 C   0  0  0  0  0  0  0  0  0  0  0  0
   65.5050   33.6780   51.0490 C   0  0  0  0  0  0  0  0  0  0  0  0
   66.5840   33.8960   51.9200 O   0  0  0  0  0  0  0  0  0  0  0  0
   67.8960   34.2570   51.5010 C   0  0  0  0  0  0  0  0  0  0  0  0
   65.6200   32.8920   49.8870 C   0  0  0  0  0  0  0  0  0  0  0  0
   64.5160   32.7040   49.0500 C   0  0  0  0  0  0  0  0  0  0  0  0
   62.2940   33.2420   47.0400 C   0  0  0  0  0  0  0  0  0  0  0  0
   60.9330   33.4430   46.3670 C   0  0  0  0  0  0  0  0  0  0  0  0
   58.5730   33.7270   44.1870 C   0  0  0  0  0  0  0  0  0  0  0  0
   58.1170   32.7140   43.4060 N   0  0  0  0  0  0  0  0  0  0  0  0
   56.0575   29.8314   44.8862 H   0  0  0  0  0  0  0  0  0  0  0  0
   54.9098   30.0636   43.5241 H   0  0  0  0  0  0  0  0  0  0  0  0
   56.0314   28.6606   43.5241 H   0  0  0  0  0  0  0  0  0  0  0  0
   57.7907   29.9010   42.7577 H   0  0  0  0  0  0  0  0  0  0  0  0
   56.4878   31.0100   42.1828 H   0  0  0  0  0  0  0  0  0  0  0  0
   57.5762   32.4906   47.1992 H   0  0  0  0  0  0  0  0  0  0  0  0
   59.1721   35.6469   45.8558 H   0  0  0  0  0  0  0  0  0  0  0  0
   58.1213   35.0403   47.1934 H   0  0  0  0  0  0  0  0  0  0  0  0
   59.5093   34.4257   49.2356 H   0  0  0  0  0  0  0  0  0  0  0  0
   58.8472   33.0227   48.2757 H   0  0  0  0  0  0  0  0  0  0  0  0
   60.8550   32.8088   50.1308 H   0  0  0  0  0  0  0  0  0  0  0  0
   60.6109   31.6949   48.7303 H   0  0  0  0  0  0  0  0  0  0  0  0
   62.2099   34.5562   50.7678 H   0  0  0  0  0  0  0  0  0  0  0  0
   64.1757   34.8854   52.2580 H   0  0  0  0  0  0  0  0  0  0  0  0
   68.5281   34.4309   52.3843 H   0  0  0  0  0  0  0  0  0  0  0  0
   68.3250   33.4435   50.8975 H   0  0  0  0  0  0  0  0  0  0  0  0
   67.8485   35.1754   50.8975 H   0  0  0  0  0  0  0  0  0  0  0  0
   66.5831   32.4234   49.6362 H   0  0  0  0  0  0  0  0  0  0  0  0
   64.6172   32.0931   48.1409 H   0  0  0  0  0  0  0  0  0  0  0  0
   62.9355   34.1086   46.8222 H   0  0  0  0  0  0  0  0  0  0  0  0
   62.7488   32.3206   46.6474 H   0  0  0  0  0  0  0  0  0  0  0  0
   61.0751   33.9083   45.3804 H   0  0  0  0  0  0  0  0  0  0  0  0
   60.4351   32.4703   46.2406 H   0  0  0  0  0  0  0  0  0  0  0  0
   59.0885   34.5846   43.7299 H   0  0  0  0  0  0  0  0  0  0  0  0
  1  2  1  0
  2  3  1  0
  3  4  2  0
  4  5  1  0
  5  6  2  0
  6  7  1  0
  7  8  1  0
  8  9  1  0
  9 10  1  0
 10 11  1  0
 11 12  1  0
 12 13  2  0
 13 14  1  0
 14 15  2  0
 15 16  1  0
 16 17  1  0
 15 18  1  0
 18 19  2  0
 11 20  1  0
 20 21  1  0
  6 22  1  0
 22 23  2  0
 23  3  1  0
 21  8  1  0
 19 12  1  0
  1 24  1  0
  1 25  1  0
  1 26  1  0
  2 27  1  0
  2 28  1  0
  5 29  1  0
  7 30  1  0
  7 31  1  0
  9 32  1  0
  9 33  1  0
 10 34  1  0
 10 35  1  0
 13 36  1  0
 14 37  1  0
 17 38  1  0
 17 39  1  0
 17 40  1  0
 18 41  1  0
 19 42  1  0
 20 43  1  0
 20 44  1  0
 21 45  1  0
 21 46  1  0
 22 47  1  0
M  END
>  <UniqueID>  (27) 
25

>  <SMILES>  (27) 
CCc1ncc(CN2CCN(c3ccc(OC)cc3)CC2)cn1

>  <Energy>  (27) 
54.167368084214885

>  <Genealogy>  (27) 
CCc1ncc(CN2CCN(c3ccc(OC)cc3)CC2)cn1 (3D coordinates assigned)
CCc1ncc(CN2CCN(c3ccc(OC)cc3)CC2)cn1 (nonaromatic ring conformer: 54.167368084214885 kcal/mol)

>  <smiles>  (27) 
CCc1ncc(CN2CCN(c3ccc(OC)cc3)CC2)cn1

>  <score_type>  (27) 
oracle

>  <origin>  (27) 
adg

>  <m_score__min__energy>  (27) 
-6.96

>  <m_primary>  (27) 
energy

$$$$
27:0
     RDKit          3D

 28 29  0  0  0  0  0  0  0  0999 V2000
   54.8200   30.3000   44.7020 H   0  0  0  0  0  0  0  0  0  0  0  0
   55.1210   29.3470   44.8580 O   0  0  0  0  0  0  0  0  0  0  0  0
   56.4390   29.0250   45.1840 C   0  0  0  0  0  0  0  0  0  0  0  0
   56.7670   27.6870   45.4300 C   0  0  0  0  0  0  0  0  0  0  0  0
   55.9923   26.9108   45.3436 H   0  0  0  0  0  0  0  0  0  0  0  0
   58.0760   27.3270   45.7860 C   0  0  0  0  0  0  0  0  0  0  0  0
   58.3810   25.9160   46.0930 C   0  0  0  0  0  0  0  0  0  0  0  0
   59.2454   25.7118   46.7419 H   0  0  0  0  0  0  0  0  0  0  0  0
   57.6830   24.8640   45.6400 C   0  0  0  0  0  0  0  0  0  0  0  0
   58.5090   23.4640   44.8790 S   0  0  0  0  0  0  0  0  0  0  0  0
   56.8860   22.7770   44.5340 C   0  0  0  0  0  0  0  0  0  0  0  0
   56.6780   21.5960   43.4260 S   0  0  0  0  0  0  0  0  0  0  0  0
   55.7780   23.4980   45.0530 N   0  0  0  0  0  0  0  0  0  0  0  0
   56.2320   24.6640   45.7130 C   0  0  0  0  0  0  0  0  0  0  0  0
   55.4390   25.4130   46.3440 O   0  0  0  0  0  0  0  0  0  0  0  0
   59.0450   28.3290   45.9490 C   0  0  0  0  0  0  0  0  0  0  0  0
   60.0600   28.0615   46.2779 H   0  0  0  0  0  0  0  0  0  0  0  0
   58.7250   29.6650   45.6950 C   0  0  0  0  0  0  0  0  0  0  0  0
   59.4928   30.4436   45.8138 H   0  0  0  0  0  0  0  0  0  0  0  0
   57.4320   30.0180   45.2900 C   0  0  0  0  0  0  0  0  0  0  0  0
   57.1510   31.3570   45.0100 O   0  0  0  0  0  0  0  0  0  0  0  0
   58.1490   32.2620   44.5450 C   0  0  0  0  0  0  0  0  0  0  0  0
   58.2334   32.1767   43.4516 H   0  0  0  0  0  0  0  0  0  0  0  0
   59.1077   32.0085   45.0211 H   0  0  0  0  0  0  0  0  0  0  0  0
   57.7830   33.6960   44.9090 C   0  0  0  0  0  0  0  0  0  0  0  0
   57.7562   33.8010   46.0037 H   0  0  0  0  0  0  0  0  0  0  0  0
   58.5346   34.3831   44.4930 H   0  0  0  0  0  0  0  0  0  0  0  0
   56.7941   33.9389   44.4930 H   0  0  0  0  0  0  0  0  0  0  0  0
  1  2  1  0
  2  3  1  0
  3  4  2  0
  4  5  1  0
  4  6  1  0
  6  7  1  0
  7  8  1  0
  7  9  2  0
  9 10  1  0
 10 11  1  0
 11 12  2  0
 11 13  1  0
 13 14  1  0
 14 15  2  0
  6 16  2  0
 16 17  1  0
 16 18  1  0
 18 19  1  0
 18 20  2  0
 20 21  1  0
 21 22  1  0
 22 23  1  0
 22 24  1  0
 22 25  1  0
 25 26  1  0
 25 27  1  0
 25 28  1  0
 20  3  1  0
 14  9  1  0
M  CHG  1  13  -1
M  END
>  <UniqueID>  (28) 
26

>  <SMILES>  (28) 
CCOc1ccc(/C=C2/SC(=S)[N-]C2=O)cc1O

>  <Energy>  (28) 
58.10011934680016

>  <Genealogy>  (28) 
CCOc1ccc(C=C2SC(=S)[N-]C2=O)cc1O (protonated)
CCOc1ccc(/C=C2/SC(=S)[N-]C2=O)cc1O (cis-trans isomerization)
CCOc1ccc(/C=C2/SC(=S)[N-]C2=O)cc1O (3D coordinates assigned)
CCOc1ccc(/C=C2/SC(=S)[N-]C2=O)cc1O (nonaromatic ring conformer: 58.10011934680016 kcal/mol)

>  <smiles>  (28) 
CCOc1ccc(C=C2SC(=S)NC2=O)cc1O

>  <score_type>  (28) 
oracle

>  <origin>  (28) 
adg

>  <m_score__min__energy>  (28) 
-8.5299999999999994

>  <m_primary>  (28) 
energy

$$$$
28:0
     RDKit          3D

 46 49  0  0  1  0  0  0  0  0999 V2000
   56.2880   29.7510   42.8710 C   0  0  0  0  0  0  0  0  0  0  0  0
   57.1220   30.8560   43.4830 C   0  0  0  0  0  0  0  0  0  0  0  0
   57.0110   30.8060   44.9120 N   0  0  0  0  0  0  0  0  0  0  0  0
   58.0600   30.4950   45.5990 C   0  0  0  0  0  0  0  0  0  0  0  0
   58.9620   31.4180   46.0040 N   0  0  0  0  0  0  0  0  0  0  0  0
   60.0560   31.1050   46.7200 C   0  0  0  0  0  0  0  0  0  0  0  0
   61.0140   32.0610   47.1510 N   0  0  0  0  0  0  0  0  0  0  0  0
   61.0250   33.4410   46.7640 C   0  0  0  0  0  0  0  0  0  0  0  0
   62.4470   33.8340   46.3990 C   0  0  0  0  0  0  0  0  0  0  0  0
   63.2930   33.5970   47.4700 O   0  0  0  0  0  0  0  0  0  0  0  0
   63.4010   32.2290   47.7210 C   0  0  0  0  0  0  0  0  0  0  0  0
   62.0660   31.6130   48.0580 C   0  0  0  0  0  0  0  0  0  0  0  0
   60.2160   29.7990   47.0240 N   0  0  0  0  0  0  0  0  0  0  0  0
   59.3540   28.8410   46.6500 C   0  0  0  0  0  0  0  0  0  0  0  0
   59.5940   27.5360   47.0020 C   0  0  0  0  0  0  0  0  0  0  0  0
   58.7150   26.5970   46.6150 N   0  0  0  0  0  0  0  0  0  0  0  0
   57.5990   26.8870   45.8900 C   0  0  0  0  0  0  0  0  0  0  0  0
   56.7450   25.8010   45.5410 N   0  0  0  0  0  0  0  0  0  0  0  0
   57.0280   24.7790   44.7050 C   0  0  0  0  0  0  0  0  0  0  0  0
   55.9110   23.9570   44.6610 C   0  0  0  0  0  0  0  0  0  0  0  0
   54.9570   24.5140   45.4900 C   0  0  0  0  0  0  0  0  0  0  0  0
   53.5770   23.9980   45.7790 C   0  0  0  0  0  0  0  0  0  0  0  0
   55.5060   25.6300   46.0020 N   0  0  0  0  0  0  0  0  0  0  0  0
   57.3510   28.1820   45.5330 C   0  0  0  0  0  0  0  0  0  0  0  0
   58.2340   29.1740   45.9140 C   0  0  0  0  0  0  0  0  0  0  0  0
   55.8334   29.1486   43.6713 H   0  0  0  0  0  0  0  0  0  0  0  0
   55.4954   30.1917   42.2485 H   0  0  0  0  0  0  0  0  0  0  0  0
   56.9291   29.1096   42.2485 H   0  0  0  0  0  0  0  0  0  0  0  0
   58.1747   30.7240   43.1926 H   0  0  0  0  0  0  0  0  0  0  0  0
   56.7602   31.8300   43.1219 H   0  0  0  0  0  0  0  0  0  0  0  0
   58.7680   32.3960   45.7320 H   0  0  0  0  0  0  0  0  0  0  0  0
   60.3662   33.5870   45.8953 H   0  0  0  0  0  0  0  0  0  0  0  0
   60.6653   34.0658   47.5948 H   0  0  0  0  0  0  0  0  0  0  0  0
   62.7786   33.2403   45.5344 H   0  0  0  0  0  0  0  0  0  0  0  0
   62.4729   34.9047   46.1480 H   0  0  0  0  0  0  0  0  0  0  0  0
   63.8056   31.7339   46.8259 H   0  0  0  0  0  0  0  0  0  0  0  0
   64.0680   32.0920   48.5849 H   0  0  0  0  0  0  0  0  0  0  0  0
   62.1521   30.5185   47.9893 H   0  0  0  0  0  0  0  0  0  0  0  0
   61.7937   31.9269   49.0765 H   0  0  0  0  0  0  0  0  0  0  0  0
   60.4853   27.2656   47.5873 H   0  0  0  0  0  0  0  0  0  0  0  0
   57.9707   24.6262   44.1592 H   0  0  0  0  0  0  0  0  0  0  0  0
   55.8049   23.0326   44.0743 H   0  0  0  0  0  0  0  0  0  0  0  0
   53.4270   23.9419   46.8673 H   0  0  0  0  0  0  0  0  0  0  0  0
   52.8319   24.6783   45.3407 H   0  0  0  0  0  0  0  0  0  0  0  0
   53.4610   22.9958   45.3407 H   0  0  0  0  0  0  0  0  0  0  0  0
   56.4549   28.4332   44.9465 H   0  0  0  0  0  0  0  0  0  0  0  0
  1  2  1  0
  2  3  1  0
  3  4  2  0
  4  5  1  0
  5  6  1  0
  6  7  1  0
  7  8  1  0
  8  9  1  0
  9 10  1  0
 10 11  1  0
 11 12  1  0
  6 13  2  0
 13 14  1  0
 14 15  2  0
 15 16  1  0
 16 17  2  0
 17 18  1  0
 18 19  1  0
 19 20  2  0
 20 21  1  0
 21 22  1  0
 21 23  2  0
 17 24  1  0
 24 25  2  0
 25  4  1  0
 12  7  1  0
 25 14  1  0
 23 18  1  0
  1 26  1  0
  1 27  1  0
  1 28  1  0
  2 29  1  0
  2 30  1  0
  5 31  1  0
  8 32  1  0
  8 33  1  0
  9 34  1  0
  9 35  1  0
 11 36  1  0
 11 37  1  0
 12 38  1  0
 12 39  1  0
 15 40  1  0
 19 41  1  0
 20 42  1  0
 22 43  1  0
 22 44  1  0
 22 45  1  0
 24 46  1  0
M  END
>  <smiles>  (29) 
CCN=c1[nH]c(N2CCOCC2)nc2cnc(-n3ccc(C)n3)cc12

>  <score_type>  (29) 
oracle

>  <origin>  (29) 
adg

>  <m_score__min__energy>  (29) 
-7.4699999999999998

>  <m_primary>  (29) 
energy

$$$$
29:0
     RDKit          3D

 33 34  0  0  0  0  0  0  0  0999 V2000
   55.5560   29.7220   43.4850 C   0  0  0  0  0  0  0  0  0  0  0  0
   55.9980   29.7400   44.8390 O   0  0  0  0  0  0  0  0  0  0  0  0
   57.3450   29.7280   45.2380 C   0  0  0  0  0  0  0  0  0  0  0  0
   58.0180   30.9110   45.6060 C   0  0  0  0  0  0  0  0  0  0  0  0
   59.3540   30.8670   46.0080 C   0  0  0  0  0  0  0  0  0  0  0  0
   60.0350   29.6530   46.0430 C   0  0  0  0  0  0  0  0  0  0  0  0
   59.3830   28.4740   45.6790 C   0  0  0  0  0  0  0  0  0  0  0  0
   58.0330   28.4960   45.2800 C   0  0  0  0  0  0  0  0  0  0  0  0
   57.3480   27.2830   44.9070 N   0  0  0  0  0  0  0  0  0  0  0  0
   57.0040   25.9960   46.0190 S   0  0  0  0  0  0  0  0  0  0  0  0
   57.7030   26.2660   47.3220 O   0  0  0  0  0  0  0  0  0  0  0  0
   55.5210   25.9390   46.2610 O   0  0  0  0  0  0  0  0  0  0  0  0
   57.5900   24.4670   45.3720 C   0  0  0  0  0  0  0  0  0  0  0  0
   58.8680   23.9990   45.7020 C   0  0  0  0  0  0  0  0  0  0  0  0
   59.3200   22.7790   45.1960 C   0  0  0  0  0  0  0  0  0  0  0  0
   58.5000   22.0180   44.3580 C   0  0  0  0  0  0  0  0  0  0  0  0
   57.2160   22.4740   44.0130 C   0  0  0  0  0  0  0  0  0  0  0  0
   56.3720   21.6890   43.1500 N   0  0  0  0  0  0  0  0  0  0  0  0
   55.7100   22.2310   42.2410 O   0  0  0  0  0  0  0  0  0  0  0  0
   56.2780   20.3260   43.3160 O   0  0  0  0  0  0  0  0  0  0  0  0
   56.7710   23.7080   44.5250 C   0  0  0  0  0  0  0  0  0  0  0  0
   54.4572   29.6773   43.4585 H   0  0  0  0  0  0  0  0  0  0  0  0
   55.8982   30.6348   42.9754 H   0  0  0  0  0  0  0  0  0  0  0  0
   55.9713   28.8400   42.9754 H   0  0  0  0  0  0  0  0  0  0  0  0
   57.4873   31.8740   45.5761 H   0  0  0  0  0  0  0  0  0  0  0  0
   59.8703   31.7940   46.2980 H   0  0  0  0  0  0  0  0  0  0  0  0
   61.0885   29.6232   46.3580 H   0  0  0  0  0  0  0  0  0  0  0  0
   59.9286   27.5192   45.7041 H   0  0  0  0  0  0  0  0  0  0  0  0
   56.9340   27.1970   43.9520 H   0  0  0  0  0  0  0  0  0  0  0  0
   59.5170   24.5940   46.3613 H   0  0  0  0  0  0  0  0  0  0  0  0
   60.3247   22.4154   45.4576 H   0  0  0  0  0  0  0  0  0  0  0  0
   58.8619   21.0560   43.9660 H   0  0  0  0  0  0  0  0  0  0  0  0
   55.7709   24.0798   44.2576 H   0  0  0  0  0  0  0  0  0  0  0  0
  1  2  1  0
  2  3  1  0
  3  4  2  0
  4  5  1  0
  5  6  2  0
  6  7  1  0
  7  8  2  0
  8  9  1  0
  9 10  1  0
 10 11  2  0
 10 12  2  0
 10 13  1  0
 13 14  2  0
 14 15  1  0
 15 16  2  0
 16 17  1  0
 17 18  1  0
 18 19  2  0
 18 20  1  0
 17 21  2  0
  8  3  1  0
 21 13  1  0
  1 22  1  0
  1 23  1  0
  1 24  1  0
  4 25  1  0
  5 26  1  0
  6 27  1  0
  7 28  1  0
  9 29  1  0
 14 30  1  0
 15 31  1  0
 16 32  1  0
 21 33  1  0
M  CHG  2  18   1  20  -1
M  END
>  <UniqueID>  (30) 
27

>  <SMILES>  (30) 
COc1ccccc1NS(=O)(=O)c1cccc([N+](=O)[O-])c1

>  <Energy>  (30) 
37.486659718677046

>  <Genealogy>  (30) 
COc1ccccc1NS(=O)(=O)c1cccc([N+](=O)[O-])c1 (3D coordinates assigned)
COc1ccccc1NS(=O)(=O)c1cccc([N+](=O)[O-])c1 (optimized conformer: 37.486659718677046 kcal/mol)

>  <smiles>  (30) 
COc1ccccc1NS(=O)(=O)c1cccc([N+](=O)[O-])c1

>  <score_type>  (30) 
oracle

>  <origin>  (30) 
adg

>  <m_score__min__energy>  (30) 
-8.3200000000000003

>  <m_primary>  (30) 
energy

$$$$
30:0
     RDKit          3D

 20 21  0  0  0  0  0  0  0  0999 V2000
   58.0520   30.2640   52.2970 C   0  0  0  0  0  0  0  0  0  0  0  0
   56.9510   29.3760   52.1320 O   0  0  0  0  0  0  0  0  0  0  0  0
   55.6090   29.7330   52.3420 C   0  0  0  0  0  0  0  0  0  0  0  0
   54.9920   30.7900   51.6280 C   0  0  0  0  0  0  0  0  0  0  0  0
   53.6550   31.0730   51.9020 C   0  0  0  0  0  0  0  0  0  0  0  0
   52.8920   32.0270   51.3400 N   0  0  0  0  0  0  0  0  0  0  0  0
   51.6840   31.9050   51.9310 C   0  0  0  0  0  0  0  0  0  0  0  0
   50.5980   32.7160   51.6260 O   0  0  0  0  0  0  0  0  0  0  0  0
   51.6660   30.8800   52.8670 C   0  0  0  0  0  0  0  0  0  0  0  0
   52.9420   30.3600   52.8310 C   0  0  0  0  0  0  0  0  0  0  0  0
   53.5140   29.3170   53.5510 C   0  0  0  0  0  0  0  0  0  0  0  0
   54.8630   29.0040   53.2990 C   0  0  0  0  0  0  0  0  0  0  0  0
   55.4490   27.9920   53.9840 F   0  0  0  0  0  0  0  0  0  0  0  0
   58.2419   30.4172   53.3696 H   0  0  0  0  0  0  0  0  0  0  0  0
   58.9461   29.8313   51.8244 H   0  0  0  0  0  0  0  0  0  0  0  0
   57.8184   31.2295   51.8244 H   0  0  0  0  0  0  0  0  0  0  0  0
   55.5517   31.3701   50.8795 H   0  0  0  0  0  0  0  0  0  0  0  0
   53.1710   32.7150   50.6050 H   0  0  0  0  0  0  0  0  0  0  0  0
   50.8235   30.5559   53.4956 H   0  0  0  0  0  0  0  0  0  0  0  0
   52.9305   28.7540   54.2943 H   0  0  0  0  0  0  0  0  0  0  0  0
  1  2  1  0
  2  3  1  0
  3  4  2  0
  4  5  1  0
  5  6  1  0
  6  7  1  0
  7  8  1  0
  7  9  2  0
  9 10  1  0
 10 11  1  0
 11 12  2  0
 12 13  1  0
 12  3  1  0
 10  5  2  0
  1 14  1  0
  1 15  1  0
  1 16  1  0
  4 17  1  0
  6 18  1  0
  9 19  1  0
 11 20  1  0
M  CHG  1   8  -1
M  END
>  <UniqueID>  (31) 
28

>  <SMILES>  (31) 
COc1cc2[nH]c([O-])cc2cc1F

>  <Energy>  (31) 
53.27648561065431

>  <Genealogy>  (31) 
COc1cc2[nH]c([O-])cc2cc1F (protonated)
COc1cc2[nH]c([O-])cc2cc1F (3D coordinates assigned)
COc1cc2[nH]c([O-])cc2cc1F (optimized conformer: 53.27648561065431 kcal/mol)

>  <smiles>  (31) 
COc1cc2[nH]c(O)cc2cc1F

>  <score_type>  (31) 
oracle

>  <origin>  (31) 
adg

>  <m_score__min__energy>  (31) 
-9.4600000000000009

>  <m_primary>  (31) 
energy

$$$$
31:0
     RDKit          3D

 42 44  0  0  0  0  0  0  0  0999 V2000
   56.6240   30.8460   43.4610 C   0  0  0  0  0  0  0  0  0  0  0  0
   56.4050   31.6120   44.6400 O   0  0  0  0  0  0  0  0  0  0  0  0
   57.4120   32.2740   45.3600 C   0  0  0  0  0  0  0  0  0  0  0  0
   57.3390   33.6540   45.6410 C   0  0  0  0  0  0  0  0  0  0  0  0
   58.3420   34.2770   46.3870 C   0  0  0  0  0  0  0  0  0  0  0  0
   59.4260   33.5360   46.8610 C   0  0  0  0  0  0  0  0  0  0  0  0
   59.5120   32.1710   46.5850 C   0  0  0  0  0  0  0  0  0  0  0  0
   58.5160   31.5330   45.8280 C   0  0  0  0  0  0  0  0  0  0  0  0
   58.6270   30.1280   45.5440 N   0  0  0  0  0  0  0  0  0  0  0  0
   59.5930   29.6760   44.5290 C   0  0  0  0  0  0  0  0  0  0  0  0
   59.7970   28.1600   44.5930 C   0  0  0  0  0  0  0  0  0  0  0  0
   58.4940   27.4860   44.6600 N   0  0  0  0  0  0  0  0  0  0  0  0
   58.1370   26.5100   43.6650 C   0  0  0  0  0  0  0  0  0  0  0  0
   58.4350   26.7210   42.4570 O   0  0  0  0  0  0  0  0  0  0  0  0
   57.4190   25.2690   44.0260 C   0  0  0  0  0  0  0  0  0  0  0  0
   57.1630   24.9560   45.3730 C   0  0  0  0  0  0  0  0  0  0  0  0
   56.4960   23.7740   45.7090 C   0  0  0  0  0  0  0  0  0  0  0  0
   56.0820   22.8930   44.7060 C   0  0  0  0  0  0  0  0  0  0  0  0
   55.4340   21.7490   45.0330 F   0  0  0  0  0  0  0  0  0  0  0  0
   56.3450   23.1880   43.3660 C   0  0  0  0  0  0  0  0  0  0  0  0
   57.0170   24.3670   43.0260 C   0  0  0  0  0  0  0  0  0  0  0  0
   57.4760   27.9520   45.6170 C   0  0  0  0  0  0  0  0  0  0  0  0
   57.9680   29.1570   46.4270 C   0  0  0  0  0  0  0  0  0  0  0  0
   56.9166   29.8224   43.7379 H   0  0  0  0  0  0  0  0  0  0  0  0
   55.6988   30.8148   42.8669 H   0  0  0  0  0  0  0  0  0  0  0  0
   57.4259   31.3086   42.8669 H   0  0  0  0  0  0  0  0  0  0  0  0
   56.4872   34.2432   45.2705 H   0  0  0  0  0  0  0  0  0  0  0  0
   58.2777   35.3540   46.6015 H   0  0  0  0  0  0  0  0  0  0  0  0
   60.2123   34.0282   47.4521 H   0  0  0  0  0  0  0  0  0  0  0  0
   60.3663   31.5903   46.9632 H   0  0  0  0  0  0  0  0  0  0  0  0
   59.2169   29.9453   43.5310 H   0  0  0  0  0  0  0  0  0  0  0  0
   60.5584   30.1653   44.7255 H   0  0  0  0  0  0  0  0  0  0  0  0
   60.3355   27.8256   43.6940 H   0  0  0  0  0  0  0  0  0  0  0  0
   60.3825   27.9095   45.4899 H   0  0  0  0  0  0  0  0  0  0  0  0
   57.4892   25.6447   46.1663 H   0  0  0  0  0  0  0  0  0  0  0  0
   56.2967   23.5370   46.7645 H   0  0  0  0  0  0  0  0  0  0  0  0
   56.0232   22.4922   42.5771 H   0  0  0  0  0  0  0  0  0  0  0  0
   57.2319   24.5892   41.9703 H   0  0  0  0  0  0  0  0  0  0  0  0
   56.5711   28.2409   45.0623 H   0  0  0  0  0  0  0  0  0  0  0  0
   57.2637   27.1314   46.3181 H   0  0  0  0  0  0  0  0  0  0  0  0
   57.1102   29.6380   46.9198 H   0  0  0  0  0  0  0  0  0  0  0  0
   58.6898   28.8111   47.1816 H   0  0  0  0  0  0  0  0  0  0  0  0
  1  2  1  0
  2  3  1  0
  3  4  2  0
  4  5  1  0
  5  6  2  0
  6  7  1  0
  7  8  2  0
  8  9  1  0
  9 10  1  0
 10 11  1  0
 11 12  1  0
 12 13  1  0
 13 14  2  0
 13 15  1  0
 15 16  2  0
 16 17  1  0
 17 18  2  0
 18 19  1  0
 18 20  1  0
 20 21  2  0
 12 22  1  0
 22 23  1  0
  8  3  1  0
 23  9  1  0
 21 15  1  0
  1 24  1  0
  1 25  1  0
  1 26  1  0
  4 27  1  0
  5 28  1  0
  6 29  1  0
  7 30  1  0
 10 31  1  0
 10 32  1  0
 11 33  1  0
 11 34  1  0
 16 35  1  0
 17 36  1  0
 20 37  1  0
 21 38  1  0
 22 39  1  0
 22 40  1  0
 23 41  1  0
 23 42  1  0
M  END
>  <UniqueID>  (32) 
29

>  <SMILES>  (32) 
COc1ccccc1N1CCN(C(=O)c2ccc(F)cc2)CC1

>  <Energy>  (32) 
53.72306362640473

>  <Genealogy>  (32) 
COc1ccccc1N1CCN(C(=O)c2ccc(F)cc2)CC1 (3D coordinates assigned)
COc1ccccc1N1CCN(C(=O)c2ccc(F)cc2)CC1 (nonaromatic ring conformer: 53.72306362640473 kcal/mol)

>  <smiles>  (32) 
COc1ccccc1N1CCN(C(=O)c2ccc(F)cc2)CC1

>  <score_type>  (32) 
oracle

>  <origin>  (32) 
adg

>  <m_score__min__energy>  (32) 
-6.6399999999999997

>  <m_primary>  (32) 
energy

$$$$
32:0
     RDKit          3D

 43 45  0  0  0  0  0  0  0  0999 V2000
   53.5650   24.1210   45.3000 C   0  0  0  0  0  0  0  0  0  0  0  0
   54.4350   24.8150   46.1880 O   0  0  0  0  0  0  0  0  0  0  0  0
   55.7560   25.1330   45.8560 C   0  0  0  0  0  0  0  0  0  0  0  0
   56.6980   24.1130   45.7320 C   0  0  0  0  0  0  0  0  0  0  0  0
   58.0120   24.4530   45.3990 C   0  0  0  0  0  0  0  0  0  0  0  0
   59.0560   23.3920   45.2610 C   0  0  0  0  0  0  0  0  0  0  0  0
   58.3410   25.7580   45.2070 N   0  0  0  0  0  0  0  0  0  0  0  0
   57.4140   26.7490   45.3280 C   0  0  0  0  0  0  0  0  0  0  0  0
   57.7830   28.1270   45.1210 N   0  0  0  0  0  0  0  0  0  0  0  0
   57.1870   28.9130   44.0310 C   0  0  0  0  0  0  0  0  0  0  0  0
   56.8940   30.3430   44.4970 C   0  0  0  0  0  0  0  0  0  0  0  0
   58.0330   30.9270   45.2210 N   0  0  0  0  0  0  0  0  0  0  0  0
   58.0810   32.3530   45.4030 C   0  0  0  0  0  0  0  0  0  0  0  0
   57.7490   33.1150   44.4550 O   0  0  0  0  0  0  0  0  0  0  0  0
   58.5350   32.9530   46.6690 C   0  0  0  0  0  0  0  0  0  0  0  0
   58.4740   32.3120   47.8550 N   0  0  0  0  0  0  0  0  0  0  0  0
   59.0010   33.1160   48.7660 N   0  0  0  0  0  0  0  0  0  0  0  0
   59.1880   32.7460   50.1620 C   0  0  0  0  0  0  0  0  0  0  0  0
   59.4380   34.2510   48.1880 C   0  0  0  0  0  0  0  0  0  0  0  0
   59.1490   34.1830   46.8440 C   0  0  0  0  0  0  0  0  0  0  0  0
   59.6540   35.3330   45.6200 Cl  0  0  0  0  0  0  0  0  0  0  0  0
   59.2330   30.1230   45.4840 C   0  0  0  0  0  0  0  0  0  0  0  0
   58.8530   28.7110   45.9450 C   0  0  0  0  0  0  0  0  0  0  0  0
   56.1320   26.4250   45.6520 N   0  0  0  0  0  0  0  0  0  0  0  0
   52.8353   23.5389   45.8820 H   0  0  0  0  0  0  0  0  0  0  0  0
   53.0337   24.8461   44.6660 H   0  0  0  0  0  0  0  0  0  0  0  0
   54.1539   23.4418   44.6660 H   0  0  0  0  0  0  0  0  0  0  0  0
   56.4131   23.0628   45.8928 H   0  0  0  0  0  0  0  0  0  0  0  0
   59.3792   23.0635   46.2598 H   0  0  0  0  0  0  0  0  0  0  0  0
   58.6383   22.5359   44.7108 H   0  0  0  0  0  0  0  0  0  0  0  0
   59.9187   23.7958   44.7108 H   0  0  0  0  0  0  0  0  0  0  0  0
   57.8873   28.9451   43.1833 H   0  0  0  0  0  0  0  0  0  0  0  0
   56.2428   28.4383   43.7259 H   0  0  0  0  0  0  0  0  0  0  0  0
   56.6744   30.9659   43.6174 H   0  0  0  0  0  0  0  0  0  0  0  0
   56.0347   30.3092   45.1829 H   0  0  0  0  0  0  0  0  0  0  0  0
   58.7866   33.5401   50.8087 H   0  0  0  0  0  0  0  0  0  0  0  0
   58.6577   31.8041   50.3659 H   0  0  0  0  0  0  0  0  0  0  0  0
   60.2609   32.6143   50.3659 H   0  0  0  0  0  0  0  0  0  0  0  0
   59.9383   35.0861   48.7002 H   0  0  0  0  0  0  0  0  0  0  0  0
   59.8292   30.0530   44.5622 H   0  0  0  0  0  0  0  0  0  0  0  0
   59.8150   30.6090   46.2809 H   0  0  0  0  0  0  0  0  0  0  0  0
   59.7418   28.0661   45.8807 H   0  0  0  0  0  0  0  0  0  0  0  0
   58.4834   28.7810   46.9787 H   0  0  0  0  0  0  0  0  0  0  0  0
  1  2  1  0
  2  3  1  0
  3  4  2  0
  4  5  1  0
  5  6  1  0
  5  7  2  0
  7  8  1  0
  8  9  1  0
  9 10  1  0
 10 11  1  0
 11 12  1  0
 12 13  1  0
 13 14  2  0
 13 15  1  0
 15 16  2  0
 16 17  1  0
 17 18  1  0
 17 19  1  0
 19 20  2  0
 20 21  1  0
 12 22  1  0
 22 23  1  0
  8 24  2  0
 24  3  1  0
 23  9  1  0
 20 15  1  0
  1 25  1  0
  1 26  1  0
  1 27  1  0
  4 28  1  0
  6 29  1  0
  6 30  1  0
  6 31  1  0
 10 32  1  0
 10 33  1  0
 11 34  1  0
 11 35  1  0
 18 36  1  0
 18 37  1  0
 18 38  1  0
 19 39  1  0
 22 40  1  0
 22 41  1  0
 23 42  1  0
 23 43  1  0
M  END
>  <UniqueID>  (33) 
30

>  <SMILES>  (33) 
COc1cc(C)nc(N2CCN(C(=O)c3nn(C)cc3Cl)CC2)n1

>  <Energy>  (33) 
75.36846797997954

>  <Genealogy>  (33) 
COc1cc(C)nc(N2CCN(C(=O)c3nn(C)cc3Cl)CC2)n1 (3D coordinates assigned)
COc1cc(C)nc(N2CCN(C(=O)c3nn(C)cc3Cl)CC2)n1 (nonaromatic ring conformer: 75.36846797997954 kcal/mol)

>  <smiles>  (33) 
COc1cc(C)nc(N2CCN(C(=O)c3nn(C)cc3Cl)CC2)n1

>  <score_type>  (33) 
oracle

>  <origin>  (33) 
adg

>  <m_score__min__energy>  (33) 
-7.4900000000000002

>  <m_primary>  (33) 
energy

$$$$
33:0
     RDKit          3D

 48 51  0  0  0  0  0  0  0  0999 V2000
   58.5870   32.3400   50.0340 C   0  0  0  0  0  0  0  0  0  0  0  0
   59.3130   31.9040   48.8900 O   0  0  0  0  0  0  0  0  0  0  0  0
   60.6930   32.0880   48.7010 C   0  0  0  0  0  0  0  0  0  0  0  0
   61.6420   31.5710   49.6070 C   0  0  0  0  0  0  0  0  0  0  0  0
   63.0080   31.7890   49.4020 C   0  0  0  0  0  0  0  0  0  0  0  0
   63.9710   31.2580   50.3320 C   0  0  0  0  0  0  0  0  0  0  0  0
   64.7450   30.8310   51.0790 N   0  0  0  0  0  0  0  0  0  0  0  0
   63.4400   32.5270   48.2960 C   0  0  0  0  0  0  0  0  0  0  0  0
   62.5120   33.0420   47.3900 C   0  0  0  0  0  0  0  0  0  0  0  0
   62.9530   33.7480   46.3180 F   0  0  0  0  0  0  0  0  0  0  0  0
   61.1370   32.8140   47.5760 C   0  0  0  0  0  0  0  0  0  0  0  0
   60.1680   33.3740   46.6080 C   0  0  0  0  0  0  0  0  0  0  0  0
   60.1440   34.7240   46.4390 N   0  0  0  0  0  0  0  0  0  0  0  0
   59.2720   35.3390   45.6000 C   0  0  0  0  0  0  0  0  0  0  0  0
   58.3510   34.5880   44.8740 C   0  0  0  0  0  0  0  0  0  0  0  0
   58.3450   33.1930   45.0020 C   0  0  0  0  0  0  0  0  0  0  0  0
   57.4320   32.4220   44.2700 C   0  0  0  0  0  0  0  0  0  0  0  0
   57.4340   31.0300   44.3850 C   0  0  0  0  0  0  0  0  0  0  0  0
   58.3560   30.3840   45.2230 C   0  0  0  0  0  0  0  0  0  0  0  0
   58.3540   28.9040   45.3470 C   0  0  0  0  0  0  0  0  0  0  0  0
   58.1440   28.0940   44.2150 C   0  0  0  0  0  0  0  0  0  0  0  0
   58.1420   26.7010   44.3310 C   0  0  0  0  0  0  0  0  0  0  0  0
   58.3460   26.0960   45.5780 C   0  0  0  0  0  0  0  0  0  0  0  0
   58.3600   24.3420   45.7190 S   0  0  0  0  0  0  0  0  0  0  0  0
   57.4050   23.6360   44.3950 C   0  0  0  0  0  0  0  0  0  0  0  0
   57.7690   23.9310   47.0380 O   0  0  0  0  0  0  0  0  0  0  0  0
   59.7730   23.8350   45.6440 O   0  0  0  0  0  0  0  0  0  0  0  0
   58.5650   26.8960   46.7060 C   0  0  0  0  0  0  0  0  0  0  0  0
   58.5670   28.2890   46.5940 C   0  0  0  0  0  0  0  0  0  0  0  0
   59.2800   31.1550   45.9500 C   0  0  0  0  0  0  0  0  0  0  0  0
   59.2700   32.5630   45.8690 C   0  0  0  0  0  0  0  0  0  0  0  0
   59.1146   32.0232   50.9457 H   0  0  0  0  0  0  0  0  0  0  0  0
   58.5051   33.4369   50.0202 H   0  0  0  0  0  0  0  0  0  0  0  0
   57.5803   31.8969   50.0202 H   0  0  0  0  0  0  0  0  0  0  0  0
   61.3057   30.9928   50.4802 H   0  0  0  0  0  0  0  0  0  0  0  0
   64.5146   32.7022   48.1395 H   0  0  0  0  0  0  0  0  0  0  0  0
   59.2929   36.4336   45.4933 H   0  0  0  0  0  0  0  0  0  0  0  0
   57.6338   35.0863   44.2052 H   0  0  0  0  0  0  0  0  0  0  0  0
   56.7106   32.9152   43.6019 H   0  0  0  0  0  0  0  0  0  0  0  0
   56.7065   30.4348   43.8137 H   0  0  0  0  0  0  0  0  0  0  0  0
   57.9803   28.5605   43.2323 H   0  0  0  0  0  0  0  0  0  0  0  0
   57.9796   26.0773   43.4396 H   0  0  0  0  0  0  0  0  0  0  0  0
   56.5873   23.0315   44.8146 H   0  0  0  0  0  0  0  0  0  0  0  0
   56.9846   24.4421   43.7758 H   0  0  0  0  0  0  0  0  0  0  0  0
   58.0524   22.9977   43.7758 H   0  0  0  0  0  0  0  0  0  0  0  0
   58.7364   26.4256   47.6855 H   0  0  0  0  0  0  0  0  0  0  0  0
   58.7363   28.9087   47.4870 H   0  0  0  0  0  0  0  0  0  0  0  0
   60.0205   30.6534   46.5904 H   0  0  0  0  0  0  0  0  0  0  0  0
  1  2  1  0
  2  3  1  0
  3  4  2  0
  4  5  1  0
  5  6  1  0
  6  7  3  0
  5  8  2  0
  8  9  1  0
  9 10  1  0
  9 11  2  0
 11 12  1  0
 12 13  2  0
 13 14  1  0
 14 15  2  0
 15 16  1  0
 16 17  2  0
 17 18  1  0
 18 19  2  0
 19 20  1  0
 20 21  2  0
 21 22  1  0
 22 23  2  0
 23 24  1  0
 24 25  1  0
 24 26  2  0
 24 27  2  0
 23 28  1  0
 28 29  2  0
 19 30  1  0
 30 31  2  0
 11  3  1  0
 31 12  1  0
 31 16  1  0
 29 20  1  0
  1 32  1  0
  1 33  1  0
  1 34  1  0
  4 35  1  0
  8 36  1  0
 14 37  1  0
 15 38  1  0
 17 39  1  0
 18 40  1  0
 21 41  1  0
 22 42  1  0
 25 43  1  0
 25 44  1  0
 25 45  1  0
 28 46  1  0
 29 47  1  0
 30 48  1  0
M  END
>  <UniqueID>  (34) 
31

>  <SMILES>  (34) 
COc1cc(C#N)cc(F)c1-c1nccc2ccc(-c3ccc(S(C)(=O)=O)cc3)cc12

>  <Energy>  (34) 
65.92802895880033

>  <Genealogy>  (34) 
COc1cc(C#N)cc(F)c1-c1nccc2ccc(-c3ccc(S(C)(=O)=O)cc3)cc12 (3D coordinates assigned)
COc1cc(C#N)cc(F)c1-c1nccc2ccc(-c3ccc(S(C)(=O)=O)cc3)cc12 (optimized conformer: 65.92802895880033 kcal/mol)

>  <smiles>  (34) 
COc1cc(C#N)cc(F)c1-c1nccc2ccc(-c3ccc(S(C)(=O)=O)cc3)cc12

>  <score_type>  (34) 
oracle

>  <origin>  (34) 
adg

>  <m_score__min__energy>  (34) 
-8.5899999999999999

>  <m_primary>  (34) 
energy

$$$$
34:0
     RDKit          3D

 44 46  0  0  1  0  0  0  0  0999 V2000
   61.8970   31.4190   47.7110 C   0  0  0  0  0  0  0  0  0  0  0  0
   60.5220   31.2360   48.1820 N   0  0  0  0  0  0  0  0  0  0  0  0
   59.6700   30.6000   47.4410 C   0  0  0  0  0  0  0  0  0  0  0  0
   58.8020   31.2820   46.6870 N   0  0  0  0  0  0  0  0  0  0  0  0
   57.8930   30.6770   45.8950 C   0  0  0  0  0  0  0  0  0  0  0  0
   56.9890   31.3710   45.1090 O   0  0  0  0  0  0  0  0  0  0  0  0
   56.9500   31.0130   43.7410 C   0  0  0  0  0  0  0  0  0  0  0  0
   55.9390   29.9230   43.4510 C   0  0  0  0  0  0  0  0  0  0  0  0
   55.1670   29.5450   44.6040 N   0  0  0  0  0  0  0  0  0  0  0  0
   57.8640   29.3280   45.8700 N   0  0  0  0  0  0  0  0  0  0  0  0
   58.7220   28.6080   46.6160 C   0  0  0  0  0  0  0  0  0  0  0  0
   59.6670   29.2080   47.4380 C   0  0  0  0  0  0  0  0  0  0  0  0
   60.3910   28.2600   48.0680 N   0  0  0  0  0  0  0  0  0  0  0  0
   59.9120   27.0650   47.6520 C   0  0  0  0  0  0  0  0  0  0  0  0
   58.9140   27.2880   46.7820 N   0  0  0  0  0  0  0  0  0  0  0  0
   58.1220   26.2900   46.0950 C   0  0  1  0  0  0  0  0  0  0  0  0
   58.3040   25.0240   46.6260 O   0  0  0  0  0  0  0  0  0  0  0  0
   57.2010   24.2620   46.3200 C   0  0  2  0  0  0  0  0  0  0  0  0
   57.5490   23.1200   45.3910 C   0  0  0  0  0  0  0  0  0  0  0  0
   58.9240   22.9830   45.3420 O   0  0  0  0  0  0  0  0  0  0  0  0
   56.1420   25.1710   45.7390 C   0  0  1  0  0  0  0  0  0  0  0  0
   54.8630   24.8920   46.2110 O   0  0  0  0  0  0  0  0  0  0  0  0
   56.6400   26.5180   46.2810 C   0  0  2  0  0  0  0  0  0  0  0  0
   56.1510   27.5750   45.5310 O   0  0  0  0  0  0  0  0  0  0  0  0
   62.5717   31.5088   48.5751 H   0  0  0  0  0  0  0  0  0  0  0  0
   62.1944   30.5525   47.1021 H   0  0  0  0  0  0  0  0  0  0  0  0
   61.9574   32.3331   47.1021 H   0  0  0  0  0  0  0  0  0  0  0  0
   56.6864   31.9035   43.1515 H   0  0  0  0  0  0  0  0  0  0  0  0
   57.9433   30.6256   43.4703 H   0  0  0  0  0  0  0  0  0  0  0  0
   55.2507   30.2828   42.6720 H   0  0  0  0  0  0  0  0  0  0  0  0
   56.5004   29.0340   43.1277 H   0  0  0  0  0  0  0  0  0  0  0  0
   55.7090   29.7070   45.4810 H   0  0  0  0  0  0  0  0  0  0  0  0
   54.7660   28.5870   44.5260 H   0  0  0  0  0  0  0  0  0  0  0  0
   57.1720   28.8490   45.2680 H   0  0  0  0  0  0  0  0  0  0  0  0
   60.2780   26.0783   47.9722 H   0  0  0  0  0  0  0  0  0  0  0  0
   58.4450   26.3689   45.0465 H   0  0  0  0  0  0  0  0  0  0  0  0
   56.8104   23.7903   47.2338 H   0  0  0  0  0  0  0  0  0  0  0  0
   57.0987   22.1891   45.7660 H   0  0  0  0  0  0  0  0  0  0  0  0
   57.1600   23.3286   44.3834 H   0  0  0  0  0  0  0  0  0  0  0  0
   59.4080   23.7360   45.7460 H   0  0  0  0  0  0  0  0  0  0  0  0
   56.0346   25.0942   44.6470 H   0  0  0  0  0  0  0  0  0  0  0  0
   54.4340   25.7710   46.3720 H   0  0  0  0  0  0  0  0  0  0  0  0
   56.3351   26.7847   47.3037 H   0  0  0  0  0  0  0  0  0  0  0  0
   55.1760   27.4700   45.3990 H   0  0  0  0  0  0  0  0  0  0  0  0
  1  2  1  0
  2  3  2  0
  3  4  1  0
  4  5  2  0
  5  6  1  0
  6  7  1  0
  7  8  1  0
  8  9  1  0
  5 10  1  0
 10 11  1  0
 11 12  2  0
 12 13  1  0
 13 14  2  0
 14 15  1  0
 15 16  1  0
 16 17  1  0
 17 18  1  0
 18 19  1  0
 19 20  1  0
 18 21  1  0
 21 22  1  0
 21 23  1  0
 23 24  1  0
 12  3  1  0
 23 16  1  0
 15 11  1  0
  1 25  1  0
  1 26  1  0
  1 27  1  0
  7 28  1  0
  7 29  1  0
  8 30  1  0
  8 31  1  0
  9 32  1  0
  9 33  1  0
 10 34  1  0
 14 35  1  0
 16 36  1  6
 18 37  1  1
 19 38  1  0
 19 39  1  0
 20 40  1  0
 21 41  1  6
 22 42  1  0
 23 43  1  1
 24 44  1  0
M  END
>  <smiles>  (35) 
CN=c1nc(OCCN)[nH]c2c1ncn2C1OC(CO)C(O)C1O

>  <score_type>  (35) 
oracle

>  <origin>  (35) 
adg

>  <m_score__min__energy>  (35) 
-6.4199999999999999

>  <m_primary>  (35) 
energy

$$$$
35:0
     RDKit          3D

 38 40  0  0  0  0  0  0  0  0999 V2000
   56.2050   30.1500   52.7740 C   0  0  0  0  0  0  0  0  0  0  0  0
   57.2740   29.7030   51.9460 O   0  0  0  0  0  0  0  0  0  0  0  0
   57.9580   30.5150   51.0290 C   0  0  0  0  0  0  0  0  0  0  0  0
   58.0650   31.9090   51.1870 C   0  0  0  0  0  0  0  0  0  0  0  0
   58.7570   32.6750   50.2450 C   0  0  0  0  0  0  0  0  0  0  0  0
   59.3570   32.0630   49.1320 C   0  0  0  0  0  0  0  0  0  0  0  0
   60.0660   32.8530   48.1540 N   0  0  0  0  0  0  0  0  0  0  0  0
   61.4800   33.0940   48.2980 C   0  0  0  0  0  0  0  0  0  0  0  0
   61.9860   33.7920   49.2560 N   0  0  0  0  0  0  0  0  0  0  0  0
   63.4360   33.8400   49.1350 C   0  0  0  0  0  0  0  0  0  0  0  0
   63.7520   33.0180   47.8730 C   0  0  0  0  0  0  0  0  0  0  0  0
   62.4500   32.5740   47.4080 N   0  0  0  0  0  0  0  0  0  0  0  0
   59.3520   33.4250   47.0370 C   0  0  0  0  0  0  0  0  0  0  0  0
   58.0390   33.0150   46.7470 C   0  0  0  0  0  0  0  0  0  0  0  0
   57.3470   33.5760   45.6680 C   0  0  0  0  0  0  0  0  0  0  0  0
   57.9570   34.5490   44.8730 C   0  0  0  0  0  0  0  0  0  0  0  0
   59.2610   34.9640   45.1550 C   0  0  0  0  0  0  0  0  0  0  0  0
   59.9570   34.4070   46.2330 C   0  0  0  0  0  0  0  0  0  0  0  0
   59.2450   30.6720   48.9750 C   0  0  0  0  0  0  0  0  0  0  0  0
   58.5530   29.9070   49.9170 C   0  0  0  0  0  0  0  0  0  0  0  0
   56.4861   30.0325   53.8310 H   0  0  0  0  0  0  0  0  0  0  0  0
   55.9981   31.2100   52.5653 H   0  0  0  0  0  0  0  0  0  0  0  0
   55.3051   29.5528   52.5653 H   0  0  0  0  0  0  0  0  0  0  0  0
   57.6016   32.3984   52.0564 H   0  0  0  0  0  0  0  0  0  0  0  0
   58.8324   33.7646   50.3760 H   0  0  0  0  0  0  0  0  0  0  0  0
   61.4410   34.2390   50.0260 H   0  0  0  0  0  0  0  0  0  0  0  0
   63.7810   34.8779   49.0180 H   0  0  0  0  0  0  0  0  0  0  0  0
   63.9408   33.4416   50.0275 H   0  0  0  0  0  0  0  0  0  0  0  0
   64.2466   33.6417   47.1138 H   0  0  0  0  0  0  0  0  0  0  0  0
   64.4379   32.1817   48.0732 H   0  0  0  0  0  0  0  0  0  0  0  0
   62.2670   32.0140   46.5460 H   0  0  0  0  0  0  0  0  0  0  0  0
   57.5536   32.2500   47.3709 H   0  0  0  0  0  0  0  0  0  0  0  0
   56.3203   33.2500   45.4453 H   0  0  0  0  0  0  0  0  0  0  0  0
   57.4110   34.9884   44.0252 H   0  0  0  0  0  0  0  0  0  0  0  0
   59.7411   35.7300   44.5283 H   0  0  0  0  0  0  0  0  0  0  0  0
   60.9825   34.7389   46.4527 H   0  0  0  0  0  0  0  0  0  0  0  0
   59.7052   30.1816   48.1045 H   0  0  0  0  0  0  0  0  0  0  0  0
   58.4749   28.8179   49.7840 H   0  0  0  0  0  0  0  0  0  0  0  0
  1  2  1  0
  2  3  1  0
  3  4  2  0
  4  5  1  0
  5  6  2  0
  6  7  1  0
  7  8  1  0
  8  9  2  0
  9 10  1  0
 10 11  1  0
 11 12  1  0
  7 13  1  0
 13 14  2  0
 14 15  1  0
 15 16  2  0
 16 17  1  0
 17 18  2  0
  6 19  1  0
 19 20  2  0
 20  3  1  0
 12  8  1  0
 18 13  1  0
  1 21  1  0
  1 22  1  0
  1 23  1  0
  4 24  1  0
  5 25  1  0
  9 26  1  0
 10 27  1  0
 10 28  1  0
 11 29  1  0
 11 30  1  0
 12 31  1  0
 14 32  1  0
 15 33  1  0
 16 34  1  0
 17 35  1  0
 18 36  1  0
 19 37  1  0
 20 38  1  0
M  CHG  1   9   1
M  END
>  <UniqueID>  (36) 
32

>  <SMILES>  (36) 
COc1ccc(N(C2=[NH+]CCN2)c2ccccc2)cc1

>  <Energy>  (36) 
60.201706478389134

>  <Genealogy>  (36) 
COc1ccc(N(C2=[NH+]CCN2)c2ccccc2)cc1 (protonated)
COc1ccc(N(C2=[NH+]CCN2)c2ccccc2)cc1 (3D coordinates assigned)
COc1ccc(N(C2=[NH+]CCN2)c2ccccc2)cc1 (nonaromatic ring conformer: 60.201706478389134 kcal/mol)

>  <smiles>  (36) 
COc1ccc(N(C2=NCCN2)c2ccccc2)cc1

>  <score_type>  (36) 
oracle

>  <origin>  (36) 
adg

>  <m_score__min__energy>  (36) 
-4.8799999999999999

>  <m_primary>  (36) 
energy

$$$$
36:0
     RDKit          3D

 41 44  0  0  0  0  0  0  0  0999 V2000
   57.9470   34.7658   43.9461 H   0  0  0  0  0  0  0  0  0  0  0  0
   58.2940   34.3980   44.9230 C   0  0  0  0  0  0  0  0  0  0  0  0
   57.3680   33.9900   45.8830 C   0  0  0  0  0  0  0  0  0  0  0  0
   56.2911   34.0390   45.6640 H   0  0  0  0  0  0  0  0  0  0  0  0
   57.8080   33.5190   47.1230 C   0  0  0  0  0  0  0  0  0  0  0  0
   57.0733   33.2075   47.8801 H   0  0  0  0  0  0  0  0  0  0  0  0
   59.1820   33.4400   47.4110 C   0  0  0  0  0  0  0  0  0  0  0  0
   59.6190   32.9640   48.7730 C   0  0  0  0  0  0  0  0  0  0  0  0
   58.9492   33.3838   49.5380 H   0  0  0  0  0  0  0  0  0  0  0  0
   60.6510   33.2966   48.9581 H   0  0  0  0  0  0  0  0  0  0  0  0
   59.5670   31.5070   48.8320 N   0  0  0  0  0  0  0  0  0  0  0  0
   60.4440   30.7130   48.2380 N   0  0  0  0  0  0  0  0  0  0  0  0
   60.1100   29.4520   48.5720 C   0  0  0  0  0  0  0  0  0  0  0  0
   60.7430   28.3860   48.1810 N   0  0  0  0  0  0  0  0  0  0  0  0
   60.3190   27.4820   47.1460 C   0  0  0  0  0  0  0  0  0  0  0  0
   60.7260   26.2870   47.1350 O   0  0  0  0  0  0  0  0  0  0  0  0
   59.3980   27.9570   46.0860 C   0  0  0  0  0  0  0  0  0  0  0  0
   58.6400   27.0350   45.3430 C   0  0  0  0  0  0  0  0  0  0  0  0
   58.7290   25.9577   45.5469 H   0  0  0  0  0  0  0  0  0  0  0  0
   57.7750   27.4880   44.3470 C   0  0  0  0  0  0  0  0  0  0  0  0
   57.1801   26.7685   43.7653 H   0  0  0  0  0  0  0  0  0  0  0  0
   57.6650   28.8570   44.0890 C   0  0  0  0  0  0  0  0  0  0  0  0
   56.8010   29.3390   43.0930 C   0  0  0  0  0  0  0  0  0  0  0  0
   56.1965   28.6355   42.5016 H   0  0  0  0  0  0  0  0  0  0  0  0
   56.7090   30.7120   42.8530 C   0  0  0  0  0  0  0  0  0  0  0  0
   56.0336   31.0873   42.0701 H   0  0  0  0  0  0  0  0  0  0  0  0
   57.4720   31.6110   43.6040 C   0  0  0  0  0  0  0  0  0  0  0  0
   57.3935   32.6913   43.4120 H   0  0  0  0  0  0  0  0  0  0  0  0
   58.3350   31.1400   44.5990 C   0  0  0  0  0  0  0  0  0  0  0  0
   58.9349   31.8510   45.1860 H   0  0  0  0  0  0  0  0  0  0  0  0
   58.4380   29.7620   44.8510 C   0  0  0  0  0  0  0  0  0  0  0  0
   59.2790   29.2940   45.8200 N   0  0  0  0  0  0  0  0  0  0  0  0
   59.8410   29.9820   46.3720 H   0  0  0  0  0  0  0  0  0  0  0  0
   59.0060   29.4400   49.4010 C   0  0  0  0  0  0  0  0  0  0  0  0
   58.4966   28.5695   49.8401 H   0  0  0  0  0  0  0  0  0  0  0  0
   58.6910   30.7750   49.5500 C   0  0  0  0  0  0  0  0  0  0  0  0
   57.8633   31.1755   50.1538 H   0  0  0  0  0  0  0  0  0  0  0  0
   60.1130   33.8700   46.4400 C   0  0  0  0  0  0  0  0  0  0  0  0
   61.8490   33.8400   46.7360 Cl  0  0  0  0  0  0  0  0  0  0  0  0
   59.6610   34.3400   45.2010 C   0  0  0  0  0  0  0  0  0  0  0  0
   60.3874   34.6656   44.4419 H   0  0  0  0  0  0  0  0  0  0  0  0
  1  2  1  0
  2  3  2  0
  3  4  1  0
  3  5  1  0
  5  6  1  0
  5  7  2  0
  7  8  1  0
  8  9  1  0
  8 10  1  0
  8 11  1  0
 11 12  1  0
 12 13  1  0
 13 14  2  0
 14 15  1  0
 15 16  2  0
 15 17  1  0
 17 18  2  0
 18 19  1  0
 18 20  1  0
 20 21  1  0
 20 22  2  0
 22 23  1  0
 23 24  1  0
 23 25  2  0
 25 26  1  0
 25 27  1  0
 27 28  1  0
 27 29  2  0
 29 30  1  0
 29 31  1  0
 31 32  2  0
 32 33  1  0
 13 34  1  0
 34 35  1  0
 34 36  2  0
 36 37  1  0
  7 38  1  0
 38 39  1  0
 38 40  2  0
 40 41  1  0
 40  2  1  0
 36 11  1  0
 32 17  1  0
 31 22  1  0
M  CHG  2  12  -1  32   1
M  END
>  <UniqueID>  (37) 
33

>  <SMILES>  (37) 
O=C(/N=c1/ccn(Cc2ccccc2Cl)[n-]1)c1ccc2ccccc2[nH+]1

>  <Energy>  (37) 
81.29604435073155

>  <Genealogy>  (37) 
O=C(N=c1ccn(Cc2ccccc2Cl)[n-]1)c1ccc2ccccc2[nH+]1 (protonated)
O=C(/N=c1/ccn(Cc2ccccc2Cl)[n-]1)c1ccc2ccccc2[nH+]1 (cis-trans isomerization)
O=C(/N=c1/ccn(Cc2ccccc2Cl)[n-]1)c1ccc2ccccc2[nH+]1 (3D coordinates assigned)
O=C(/N=c1/ccn(Cc2ccccc2Cl)[n-]1)c1ccc2ccccc2[nH+]1 (optimized conformer: 81.29604435073155 kcal/mol)

>  <smiles>  (37) 
O=C(N=c1ccn(Cc2ccccc2Cl)[nH]1)c1ccc2ccccc2n1

>  <score_type>  (37) 
oracle

>  <origin>  (37) 
adg

>  <m_score__min__energy>  (37) 
-9.5

>  <m_primary>  (37) 
energy

$$$$
37:0
     RDKit          3D

 41 42  0  0  0  0  0  0  0  0999 V2000
   53.6440   25.9600   46.3880 H   0  0  0  0  0  0  0  0  0  0  0  0
   54.5300   26.0650   45.9100 O   0  0  0  0  0  0  0  0  0  0  0  0
   55.6690   25.5030   46.4430 N   0  0  0  0  0  0  0  0  0  0  0  0
   56.8350   25.6260   45.8800 C   0  0  0  0  0  0  0  0  0  0  0  0
   57.4160   26.9670   45.6470 C   0  0  0  0  0  0  0  0  0  0  0  0
   57.6270   27.8540   46.7100 C   0  0  0  0  0  0  0  0  0  0  0  0
   57.3449   27.5641   47.7329 H   0  0  0  0  0  0  0  0  0  0  0  0
   58.1950   29.1050   46.4710 C   0  0  0  0  0  0  0  0  0  0  0  0
   58.3525   29.8093   47.3012 H   0  0  0  0  0  0  0  0  0  0  0  0
   58.5650   29.4600   45.1620 C   0  0  0  0  0  0  0  0  0  0  0  0
   59.1350   30.7080   44.8740 O   0  0  0  0  0  0  0  0  0  0  0  0
   59.1610   31.8090   45.7420 C   0  0  0  0  0  0  0  0  0  0  0  0
   60.1590   31.8670   46.7230 C   0  0  0  0  0  0  0  0  0  0  0  0
   60.9119   31.0674   46.7840 H   0  0  0  0  0  0  0  0  0  0  0  0
   60.2050   32.9350   47.6260 C   0  0  0  0  0  0  0  0  0  0  0  0
   60.9954   32.9759   48.3899 H   0  0  0  0  0  0  0  0  0  0  0  0
   59.2460   33.9500   47.5570 C   0  0  0  0  0  0  0  0  0  0  0  0
   59.2870   34.9830   48.4340 F   0  0  0  0  0  0  0  0  0  0  0  0
   58.2390   33.8940   46.5900 C   0  0  0  0  0  0  0  0  0  0  0  0
   57.4828   34.6912   46.5387 H   0  0  0  0  0  0  0  0  0  0  0  0
   58.1900   32.8280   45.6880 C   0  0  0  0  0  0  0  0  0  0  0  0
   57.3908   32.7844   44.9335 H   0  0  0  0  0  0  0  0  0  0  0  0
   58.3240   28.5920   44.1400 N   0  0  0  0  0  0  0  0  0  0  0  0
   58.5780   28.8680   43.1650 H   0  0  0  0  0  0  0  0  0  0  0  0
   57.7710   27.3670   44.3530 C   0  0  0  0  0  0  0  0  0  0  0  0
   57.6021   26.6877   43.5044 H   0  0  0  0  0  0  0  0  0  0  0  0
   57.5460   24.4440   45.4500 N   0  0  0  0  0  0  0  0  0  0  0  0
   59.0120   24.3760   45.5580 C   0  0  0  0  0  0  0  0  0  0  0  0
   59.3091   24.6484   46.5815 H   0  0  0  0  0  0  0  0  0  0  0  0
   59.4472   25.0745   44.8281 H   0  0  0  0  0  0  0  0  0  0  0  0
   59.5250   22.9730   45.2480 C   0  0  0  0  0  0  0  0  0  0  0  0
   59.7207   22.4379   46.1890 H   0  0  0  0  0  0  0  0  0  0  0  0
   58.7686   22.4263   44.6658 H   0  0  0  0  0  0  0  0  0  0  0  0
   60.4556   23.0432   44.6658 H   0  0  0  0  0  0  0  0  0  0  0  0
   56.8000   23.2450   45.0410 C   0  0  0  0  0  0  0  0  0  0  0  0
   57.4124   22.3528   45.2384 H   0  0  0  0  0  0  0  0  0  0  0  0
   55.8628   23.1964   45.6148 H   0  0  0  0  0  0  0  0  0  0  0  0
   56.4650   23.3050   43.5530 C   0  0  0  0  0  0  0  0  0  0  0  0
   55.3894   23.4976   43.4268 H   0  0  0  0  0  0  0  0  0  0  0  0
   57.0404   24.1144   43.0799 H   0  0  0  0  0  0  0  0  0  0  0  0
   56.7238   22.3462   43.0799 H   0  0  0  0  0  0  0  0  0  0  0  0
  1  2  1  0
  2  3  1  0
  3  4  2  0
  4  5  1  0
  5  6  2  0
  6  7  1  0
  6  8  1  0
  8  9  1  0
  8 10  2  0
 10 11  1  0
 11 12  1  0
 12 13  2  0
 13 14  1  0
 13 15  1  0
 15 16  1  0
 15 17  2  0
 17 18  1  0
 17 19  1  0
 19 20  1  0
 19 21  2  0
 21 22  1  0
 10 23  1  0
 23 24  1  0
 23 25  2  0
 25 26  1  0
  4 27  1  0
 27 28  1  0
 28 29  1  0
 28 30  1  0
 28 31  1  0
 31 32  1  0
 31 33  1  0
 31 34  1  0
 27 35  1  0
 35 36  1  0
 35 37  1  0
 35 38  1  0
 38 39  1  0
 38 40  1  0
 38 41  1  0
 25  5  1  0
 21 12  1  0
M  CHG  1  23   1
M  END
>  <UniqueID>  (38) 
34

>  <SMILES>  (38) 
CCN(CC)/C(=N/O)c1ccc(Oc2ccc(F)cc2)[nH+]c1

>  <Energy>  (38) 
47.710604029469955

>  <Genealogy>  (38) 
CCN(CC)C(=NO)c1ccc(Oc2ccc(F)cc2)[nH+]c1 (protonated)
CCN(CC)/C(=N/O)c1ccc(Oc2ccc(F)cc2)[nH+]c1 (cis-trans isomerization)
CCN(CC)/C(=N/O)c1ccc(Oc2ccc(F)cc2)[nH+]c1 (3D coordinates assigned)
CCN(CC)/C(=N/O)c1ccc(Oc2ccc(F)cc2)[nH+]c1 (optimized conformer: 47.710604029469955 kcal/mol)

>  <smiles>  (38) 
CCN(CC)C(=NO)c1ccc(Oc2ccc(F)cc2)nc1

>  <score_type>  (38) 
oracle

>  <origin>  (38) 
adg

>  <m_score__min__energy>  (38) 
-6.0099999999999998

>  <m_primary>  (38) 
energy

$$$$
38:0
     RDKit          3D

 50 53  0  0  0  0  0  0  0  0999 V2000
   58.0420   32.0440   42.4850 C   0  0  0  0  0  0  0  0  0  0  0  0
   57.3970   32.2480   43.7390 O   0  0  0  0  0  0  0  0  0  0  0  0
   58.0070   32.0750   44.9930 C   0  0  0  0  0  0  0  0  0  0  0  0
   58.7750   33.1020   45.5780 C   0  0  0  0  0  0  0  0  0  0  0  0
   59.3970   32.9120   46.8170 C   0  0  0  0  0  0  0  0  0  0  0  0
   60.3450   34.2040   47.5530 S   0  0  0  0  0  0  0  0  0  0  0  0
   59.9950   34.3310   49.0100 O   0  0  0  0  0  0  0  0  0  0  0  0
   60.0020   35.4970   46.8650 O   0  0  0  0  0  0  0  0  0  0  0  0
   62.0540   33.8710   47.3610 N   0  0  0  0  0  0  0  0  0  0  0  0
   62.7780   34.1870   48.5960 C   0  0  0  0  0  0  0  0  0  0  0  0
   62.8750   32.9170   49.4300 C   0  0  0  0  0  0  0  0  0  0  0  0
   62.5340   31.7820   48.4840 C   0  0  0  0  0  0  0  0  0  0  0  0
   62.2780   32.4380   47.1360 C   0  0  0  0  0  0  0  0  0  0  0  0
   59.2540   31.6940   47.4840 C   0  0  0  0  0  0  0  0  0  0  0  0
   58.4990   30.6670   46.9170 C   0  0  0  0  0  0  0  0  0  0  0  0
   57.8590   30.8430   45.6760 C   0  0  0  0  0  0  0  0  0  0  0  0
   57.0480   29.7290   45.1170 C   0  0  0  0  0  0  0  0  0  0  0  0
   55.8290   29.9160   44.8560 O   0  0  0  0  0  0  0  0  0  0  0  0
   57.6610   28.4710   44.8020 N   0  0  0  0  0  0  0  0  0  0  0  0
   57.6290   27.2800   45.6010 C   0  0  0  0  0  0  0  0  0  0  0  0
   58.7720   26.8030   46.2750 C   0  0  0  0  0  0  0  0  0  0  0  0
   58.7050   25.6250   47.0280 C   0  0  0  0  0  0  0  0  0  0  0  0
   57.5060   24.9130   47.1010 C   0  0  0  0  0  0  0  0  0  0  0  0
   56.3810   25.3560   46.3930 C   0  0  0  0  0  0  0  0  0  0  0  0
   56.4410   26.5390   45.6520 C   0  0  0  0  0  0  0  0  0  0  0  0
   55.2080   24.5970   46.4390 O   0  0  0  0  0  0  0  0  0  0  0  0
   55.2100   23.2630   46.9560 C   0  0  0  0  0  0  0  0  0  0  0  0
   56.1380   23.1670   48.1730 C   0  0  0  0  0  0  0  0  0  0  0  0
   57.4100   23.7500   47.8730 O   0  0  0  0  0  0  0  0  0  0  0  0
   59.0782   31.7163   42.6547 H   0  0  0  0  0  0  0  0  0  0  0  0
   57.5020   31.2728   41.9161 H   0  0  0  0  0  0  0  0  0  0  0  0
   58.0437   32.9855   41.9161 H   0  0  0  0  0  0  0  0  0  0  0  0
   58.8866   34.0632   45.0549 H   0  0  0  0  0  0  0  0  0  0  0  0
   63.7873   34.5507   48.3531 H   0  0  0  0  0  0  0  0  0  0  0  0
   62.2472   34.9701   49.1573 H   0  0  0  0  0  0  0  0  0  0  0  0
   63.8940   32.7942   49.8258 H   0  0  0  0  0  0  0  0  0  0  0  0
   62.1957   32.9446   50.2948 H   0  0  0  0  0  0  0  0  0  0  0  0
   63.3736   31.0748   48.4139 H   0  0  0  0  0  0  0  0  0  0  0  0
   61.6609   31.2102   48.8314 H   0  0  0  0  0  0  0  0  0  0  0  0
   63.1497   32.2954   46.4805 H   0  0  0  0  0  0  0  0  0  0  0  0
   61.3988   31.9862   46.6533 H   0  0  0  0  0  0  0  0  0  0  0  0
   59.7383   31.5435   48.4601 H   0  0  0  0  0  0  0  0  0  0  0  0
   58.4027   29.7077   47.4465 H   0  0  0  0  0  0  0  0  0  0  0  0
   59.7192   27.3583   46.2088 H   0  0  0  0  0  0  0  0  0  0  0  0
   59.5954   25.2607   47.5614 H   0  0  0  0  0  0  0  0  0  0  0  0
   55.5524   26.8898   45.1067 H   0  0  0  0  0  0  0  0  0  0  0  0
   54.1880   22.9883   47.2560 H   0  0  0  0  0  0  0  0  0  0  0  0
   55.5701   22.5766   46.1755 H   0  0  0  0  0  0  0  0  0  0  0  0
   55.6835   23.7027   49.0194 H   0  0  0  0  0  0  0  0  0  0  0  0
   56.2813   22.1075   48.4318 H   0  0  0  0  0  0  0  0  0  0  0  0
  1  2  1  0
  2  3  1  0
  3  4  2  0
  4  5  1  0
  5  6  1  0
  6  7  2  0
  6  8  2  0
  6  9  1  0
  9 10  1  0
 10 11  1  0
 11 12  1  0
 12 13  1  0
  5 14  2  0
 14 15  1  0
 15 16  2  0
 16 17  1  0
 17 18  2  0
 17 19  1  0
 19 20  1  0
 20 21  2  0
 21 22  1  0
 22 23  2  0
 23 24  1  0
 24 25  2  0
 24 26  1  0
 26 27  1  0
 27 28  1  0
 28 29  1  0
 16  3  1  0
 25 20  1  0
 13  9  1  0
 29 23  1  0
  1 30  1  0
  1 31  1  0
  1 32  1  0
  4 33  1  0
 10 34  1  0
 10 35  1  0
 11 36  1  0
 11 37  1  0
 12 38  1  0
 12 39  1  0
 13 40  1  0
 13 41  1  0
 14 42  1  0
 15 43  1  0
 21 44  1  0
 22 45  1  0
 25 46  1  0
 27 47  1  0
 27 48  1  0
 28 49  1  0
 28 50  1  0
M  CHG  1  19  -1
M  END
>  <UniqueID>  (39) 
35

>  <SMILES>  (39) 
COc1cc(S(=O)(=O)N2CCCC2)ccc1C(=O)[N-]c1ccc2c(c1)OCCO2

>  <Energy>  (39) 
60.4104277649624

>  <Genealogy>  (39) 
COc1cc(S(=O)(=O)N2CCCC2)ccc1C(=O)[N-]c1ccc2c(c1)OCCO2 (protonated)
COc1cc(S(=O)(=O)N2CCCC2)ccc1C(=O)[N-]c1ccc2c(c1)OCCO2 (3D coordinates assigned)
COc1cc(S(=O)(=O)N2CCCC2)ccc1C(=O)[N-]c1ccc2c(c1)OCCO2 (nonaromatic ring conformer: 60.4104277649624 kcal/mol)

>  <smiles>  (39) 
COc1cc(S(=O)(=O)N2CCCC2)ccc1C(=O)Nc1ccc2c(c1)OCCO2

>  <score_type>  (39) 
oracle

>  <origin>  (39) 
adg

>  <m_score__min__energy>  (39) 
-9.9700000000000006

>  <m_primary>  (39) 
energy

$$$$
39:0
     RDKit          3D

 30 31  0  0  0  0  0  0  0  0999 V2000
   56.3090   21.7430   49.2530 C   0  0  0  0  0  0  0  0  0  0  0  0
   57.0600   21.0640   48.2510 O   0  0  0  0  0  0  0  0  0  0  0  0
   57.0640   21.4120   46.8930 C   0  0  0  0  0  0  0  0  0  0  0  0
   57.4390   20.5120   45.8800 C   0  0  0  0  0  0  0  0  0  0  0  0
   57.4250   20.9030   44.5770 N   0  0  0  0  0  0  0  0  0  0  0  0
   57.0530   22.1590   44.2120 C   0  0  0  0  0  0  0  0  0  0  0  0
   56.6690   23.0940   45.1880 C   0  0  0  0  0  0  0  0  0  0  0  0
   56.2690   24.4310   44.8570 N   0  0  0  0  0  0  0  0  0  0  0  0
   56.1630   25.7490   45.9800 S   0  0  0  0  0  0  0  0  0  0  0  0
   54.7810   26.3360   45.9220 O   0  0  0  0  0  0  0  0  0  0  0  0
   56.4540   25.2420   47.3660 O   0  0  0  0  0  0  0  0  0  0  0  0
   57.3400   27.0000   45.5640 C   0  0  0  0  0  0  0  0  0  0  0  0
   56.8950   28.2860   45.2160 C   0  0  0  0  0  0  0  0  0  0  0  0
   57.8120   29.2870   44.8850 C   0  0  0  0  0  0  0  0  0  0  0  0
   59.1800   29.0140   44.8970 C   0  0  0  0  0  0  0  0  0  0  0  0
   59.6370   27.7400   45.2420 C   0  0  0  0  0  0  0  0  0  0  0  0
   58.7260   26.7300   45.5760 C   0  0  0  0  0  0  0  0  0  0  0  0
   59.3620   25.1440   46.0020 Cl  0  0  0  0  0  0  0  0  0  0  0  0
   56.6810   22.7050   46.5300 C   0  0  0  0  0  0  0  0  0  0  0  0
   56.6568   21.4285   50.2480 H   0  0  0  0  0  0  0  0  0  0  0  0
   56.4475   22.8286   49.1424 H   0  0  0  0  0  0  0  0  0  0  0  0
   55.2428   21.4962   49.1424 H   0  0  0  0  0  0  0  0  0  0  0  0
   57.7447   19.4883   46.1419 H   0  0  0  0  0  0  0  0  0  0  0  0
   57.7060   20.2210   43.8380 H   0  0  0  0  0  0  0  0  0  0  0  0
   57.0527   22.4439   43.1495 H   0  0  0  0  0  0  0  0  0  0  0  0
   55.8174   28.5066   45.2040 H   0  0  0  0  0  0  0  0  0  0  0  0
   57.4547   30.2916   44.6146 H   0  0  0  0  0  0  0  0  0  0  0  0
   59.8998   29.8032   44.6344 H   0  0  0  0  0  0  0  0  0  0  0  0
   60.7166   27.5291   45.2514 H   0  0  0  0  0  0  0  0  0  0  0  0
   56.3859   23.4243   47.3082 H   0  0  0  0  0  0  0  0  0  0  0  0
  1  2  1  0
  2  3  1  0
  3  4  2  0
  4  5  1  0
  5  6  2  0
  6  7  1  0
  7  8  1  0
  8  9  1  0
  9 10  2  0
  9 11  2  0
  9 12  1  0
 12 13  2  0
 13 14  1  0
 14 15  2  0
 15 16  1  0
 16 17  2  0
 17 18  1  0
  7 19  2  0
 19  3  1  0
 17 12  1  0
  1 20  1  0
  1 21  1  0
  1 22  1  0
  4 23  1  0
  5 24  1  0
  6 25  1  0
 13 26  1  0
 14 27  1  0
 15 28  1  0
 16 29  1  0
 19 30  1  0
M  CHG  2   5   1   8  -1
M  END
>  <UniqueID>  (40) 
36

>  <SMILES>  (40) 
COc1c[nH+]cc([N-]S(=O)(=O)c2ccccc2Cl)c1

>  <Energy>  (40) 
35.5956092148227

>  <Genealogy>  (40) 
COc1c[nH+]cc([N-]S(=O)(=O)c2ccccc2Cl)c1 (protonated)
COc1c[nH+]cc([N-]S(=O)(=O)c2ccccc2Cl)c1 (3D coordinates assigned)
COc1c[nH+]cc([N-]S(=O)(=O)c2ccccc2Cl)c1 (optimized conformer: 35.5956092148227 kcal/mol)

>  <smiles>  (40) 
COc1cncc(NS(=O)(=O)c2ccccc2Cl)c1

>  <score_type>  (40) 
oracle

>  <origin>  (40) 
adg

>  <m_score__min__energy>  (40) 
-6.8499999999999996

>  <m_primary>  (40) 
energy

$$$$
40:0
     RDKit          3D

 45 47  0  0  0  0  0  0  0  0999 V2000
   55.2440   24.6390   45.6020 C   0  0  0  0  0  0  0  0  0  0  0  0
   55.2950   26.0120   45.9760 O   0  0  0  0  0  0  0  0  0  0  0  0
   56.4780   26.7160   46.2450 C   0  0  0  0  0  0  0  0  0  0  0  0
   56.6860   27.9390   45.5990 C   0  0  0  0  0  0  0  0  0  0  0  0
   57.8480   28.6790   45.8330 C   0  0  0  0  0  0  0  0  0  0  0  0
   58.8270   28.2070   46.7260 C   0  0  0  0  0  0  0  0  0  0  0  0
   60.1000   28.9960   46.9870 C   0  0  1  0  0  0  0  0  0  0  0  0
   60.0690   30.3520   46.2550 C   0  0  0  0  0  0  0  0  0  0  0  0
   61.1770   31.2630   46.7990 C   0  0  0  0  0  0  0  0  0  0  0  0
   61.0120   31.5820   48.2500 N   0  0  1  0  0  0  0  0  0  0  0  0
   60.4800   32.9570   48.4200 C   0  0  0  0  0  0  0  0  0  0  0  0
   59.5620   33.3600   47.2880 C   0  0  0  0  0  0  0  0  0  0  0  0
   58.2300   32.9150   47.2560 C   0  0  0  0  0  0  0  0  0  0  0  0
   57.3800   33.3120   46.2200 C   0  0  0  0  0  0  0  0  0  0  0  0
   57.8500   34.1590   45.2120 C   0  0  0  0  0  0  0  0  0  0  0  0
   59.1720   34.6100   45.2390 C   0  0  0  0  0  0  0  0  0  0  0  0
   60.0270   34.2150   46.2740 C   0  0  0  0  0  0  0  0  0  0  0  0
   60.1760   30.5940   48.9890 C   0  0  0  0  0  0  0  0  0  0  0  0
   60.3990   29.1550   48.5000 C   0  0  0  0  0  0  0  0  0  0  0  0
   58.6190   26.9760   47.3720 C   0  0  0  0  0  0  0  0  0  0  0  0
   57.4560   26.2370   47.1360 C   0  0  0  0  0  0  0  0  0  0  0  0
   55.2208   24.0132   46.5064 H   0  0  0  0  0  0  0  0  0  0  0  0
   54.3384   24.4549   45.0054 H   0  0  0  0  0  0  0  0  0  0  0  0
   56.1334   24.3882   45.0054 H   0  0  0  0  0  0  0  0  0  0  0  0
   55.9277   28.3219   44.9002 H   0  0  0  0  0  0  0  0  0  0  0  0
   57.9983   29.6377   45.3151 H   0  0  0  0  0  0  0  0  0  0  0  0
   60.9360   28.4132   46.5729 H   0  0  0  0  0  0  0  0  0  0  0  0
   59.0916   30.8307   46.4148 H   0  0  0  0  0  0  0  0  0  0  0  0
   60.2303   30.1873   45.1794 H   0  0  0  0  0  0  0  0  0  0  0  0
   61.1675   32.2044   46.2300 H   0  0  0  0  0  0  0  0  0  0  0  0
   62.1297   30.7247   46.6871 H   0  0  0  0  0  0  0  0  0  0  0  0
   61.9700   31.5630   48.6750 H   0  0  0  0  0  0  0  0  0  0  0  0
   59.9189   33.0051   49.3649 H   0  0  0  0  0  0  0  0  0  0  0  0
   61.3338   33.6505   48.4246 H   0  0  0  0  0  0  0  0  0  0  0  0
   57.8546   32.2517   48.0492 H   0  0  0  0  0  0  0  0  0  0  0  0
   56.3390   32.9573   46.1977 H   0  0  0  0  0  0  0  0  0  0  0  0
   57.1791   34.4703   44.3978 H   0  0  0  0  0  0  0  0  0  0  0  0
   59.5413   35.2765   44.4456 H   0  0  0  0  0  0  0  0  0  0  0  0
   61.0663   34.5748   46.2940 H   0  0  0  0  0  0  0  0  0  0  0  0
   59.1163   30.8540   48.8499 H   0  0  0  0  0  0  0  0  0  0  0  0
   60.4660   30.6363   50.0492 H   0  0  0  0  0  0  0  0  0  0  0  0
   59.7361   28.4826   49.0644 H   0  0  0  0  0  0  0  0  0  0  0  0
   61.4576   28.9040   48.6626 H   0  0  0  0  0  0  0  0  0  0  0  0
   59.3778   26.5909   48.0691 H   0  0  0  0  0  0  0  0  0  0  0  0
   57.3047   25.2761   47.6495 H   0  0  0  0  0  0  0  0  0  0  0  0
  1  2  1  0
  2  3  1  0
  3  4  2  0
  4  5  1  0
  5  6  2  0
  6  7  1  0
  7  8  1  0
  8  9  1  0
  9 10  1  0
 10 11  1  0
 11 12  1  0
 12 13  2  0
 13 14  1  0
 14 15  2  0
 15 16  1  0
 16 17  2  0
 10 18  1  0
 18 19  1  0
  6 20  1  0
 20 21  2  0
 21  3  1  0
 19  7  1  0
 17 12  1  0
  1 22  1  0
  1 23  1  0
  1 24  1  0
  4 25  1  0
  5 26  1  0
  7 27  1  6
  8 28  1  0
  8 29  1  0
  9 30  1  0
  9 31  1  0
 10 32  1  1
 11 33  1  0
 11 34  1  0
 13 35  1  0
 14 36  1  0
 15 37  1  0
 16 38  1  0
 17 39  1  0
 18 40  1  0
 18 41  1  0
 19 42  1  0
 19 43  1  0
 20 44  1  0
 21 45  1  0
M  CHG  1  10   1
M  END
>  <UniqueID>  (41) 
37

>  <SMILES>  (41) 
COc1ccc(C2CC[NH+](Cc3ccccc3)CC2)cc1

>  <Energy>  (41) 
56.07514773064132

>  <Genealogy>  (41) 
COc1ccc(C2CC[NH+](Cc3ccccc3)CC2)cc1 (protonated)
COc1ccc(C2CC[NH+](Cc3ccccc3)CC2)cc1 (3D coordinates assigned)
COc1ccc(C2CC[NH+](Cc3ccccc3)CC2)cc1 (nonaromatic ring conformer: 56.07514773064132 kcal/mol)

>  <smiles>  (41) 
COc1ccc(C2CCN(Cc3ccccc3)CC2)cc1

>  <score_type>  (41) 
oracle

>  <origin>  (41) 
adg

>  <m_score__min__energy>  (41) 
-5.9800000000000004

>  <m_primary>  (41) 
energy

$$$$
41:0
     RDKit          3D

 59 62  0  0  0  0  0  0  0  0999 V2000
   57.6710   29.8250   51.4290 O   0  0  0  0  0  0  0  0  0  0  0  0
   57.2620   31.0140   51.3390 C   0  0  0  0  0  0  0  0  0  0  0  0
   56.3070   31.5430   52.3660 C   0  0  0  0  0  0  0  0  0  0  0  0
   55.0770   30.6790   52.4280 C   0  0  0  0  0  0  0  0  0  0  0  0
   53.9640   30.9750   51.6210 C   0  0  0  0  0  0  0  0  0  0  0  0
   52.8300   30.1590   51.6550 C   0  0  0  0  0  0  0  0  0  0  0  0
   52.8000   29.0370   52.4880 C   0  0  0  0  0  0  0  0  0  0  0  0
   53.9070   28.7270   53.2850 C   0  0  0  0  0  0  0  0  0  0  0  0
   55.0450   29.5390   53.2550 C   0  0  0  0  0  0  0  0  0  0  0  0
   56.1140   29.2140   54.0250 F   0  0  0  0  0  0  0  0  0  0  0  0
   57.6800   31.8450   50.2450 N   0  0  0  0  0  0  0  0  0  0  0  0
   58.7890   31.5290   49.3890 C   0  0  0  0  0  0  0  0  0  0  0  0
   59.5430   32.5660   48.8200 C   0  0  0  0  0  0  0  0  0  0  0  0
   60.6420   32.2740   48.0090 C   0  0  0  0  0  0  0  0  0  0  0  0
   61.0060   30.9480   47.7700 C   0  0  0  0  0  0  0  0  0  0  0  0
   60.2620   29.8960   48.3290 C   0  0  0  0  0  0  0  0  0  0  0  0
   60.6710   28.4620   48.0940 C   0  0  0  0  0  0  0  0  0  0  0  0
   59.9260   27.8060   46.9970 N   0  0  0  0  0  0  0  0  0  0  0  0
   58.6200   27.2110   47.3620 C   0  0  0  0  0  0  0  0  0  0  0  0
   57.4820   27.6040   46.4090 C   0  0  0  0  0  0  0  0  0  0  0  0
   57.5560   29.1020   46.0760 C   0  0  0  0  0  0  0  0  0  0  0  0
   56.3900   29.5430   45.2180 C   0  0  0  0  0  0  0  0  0  0  0  0
   55.5190   28.7030   44.8710 O   0  0  0  0  0  0  0  0  0  0  0  0
   56.3040   30.8700   44.6780 N   0  0  0  0  0  0  0  0  0  0  0  0
   57.3620   31.5740   43.9610 C   0  0  0  0  0  0  0  0  0  0  0  0
   57.8220   32.7640   44.7420 C   0  0  0  0  0  0  0  0  0  0  0  0
   58.7810   33.6140   44.3140 N   0  0  0  0  0  0  0  0  0  0  0  0
   58.9140   34.4720   45.3430 C   0  0  0  0  0  0  0  0  0  0  0  0
   58.0460   34.1100   46.3480 C   0  0  0  0  0  0  0  0  0  0  0  0
   57.3870   33.0530   45.9460 O   0  0  0  0  0  0  0  0  0  0  0  0
   58.8860   29.4380   45.3680 C   0  0  0  0  0  0  0  0  0  0  0  0
   60.0270   28.4440   45.6680 C   0  0  0  0  0  0  0  0  0  0  0  0
   59.1700   30.1960   49.1580 C   0  0  0  0  0  0  0  0  0  0  0  0
   56.7979   31.5469   53.3504 H   0  0  0  0  0  0  0  0  0  0  0  0
   56.0126   32.5658   52.0882 H   0  0  0  0  0  0  0  0  0  0  0  0
   53.9861   31.8536   50.9594 H   0  0  0  0  0  0  0  0  0  0  0  0
   51.9605   30.3999   51.0258 H   0  0  0  0  0  0  0  0  0  0  0  0
   51.9055   28.3975   52.5168 H   0  0  0  0  0  0  0  0  0  0  0  0
   53.8822   27.8417   53.9374 H   0  0  0  0  0  0  0  0  0  0  0  0
   57.1030   32.6830   50.0140 H   0  0  0  0  0  0  0  0  0  0  0  0
   59.2677   33.6133   49.0133 H   0  0  0  0  0  0  0  0  0  0  0  0
   61.2226   33.0918   47.5572 H   0  0  0  0  0  0  0  0  0  0  0  0
   61.8802   30.7256   47.1405 H   0  0  0  0  0  0  0  0  0  0  0  0
   61.7428   28.4420   47.8471 H   0  0  0  0  0  0  0  0  0  0  0  0
   60.4437   27.9064   49.0158 H   0  0  0  0  0  0  0  0  0  0  0  0
   58.7209   26.1157   47.3513 H   0  0  0  0  0  0  0  0  0  0  0  0
   58.3558   27.5951   48.3583 H   0  0  0  0  0  0  0  0  0  0  0  0
   57.5696   27.0214   45.4801 H   0  0  0  0  0  0  0  0  0  0  0  0
   56.5189   27.3940   46.8973 H   0  0  0  0  0  0  0  0  0  0  0  0
   57.5055   29.6505   47.0281 H   0  0  0  0  0  0  0  0  0  0  0  0
   58.2110   30.8917   43.8072 H   0  0  0  0  0  0  0  0  0  0  0  0
   56.9690   31.9148   42.9918 H   0  0  0  0  0  0  0  0  0  0  0  0
   59.6062   35.3263   45.3754 H   0  0  0  0  0  0  0  0  0  0  0  0
   57.9273   34.6183   47.3163 H   0  0  0  0  0  0  0  0  0  0  0  0
   58.7081   29.4425   44.2825 H   0  0  0  0  0  0  0  0  0  0  0  0
   59.2099   30.4177   45.7491 H   0  0  0  0  0  0  0  0  0  0  0  0
   60.0102   27.6548   44.9019 H   0  0  0  0  0  0  0  0  0  0  0  0
   60.9647   29.0191   45.6583 H   0  0  0  0  0  0  0  0  0  0  0  0
   58.6062   29.3791   49.6321 H   0  0  0  0  0  0  0  0  0  0  0  0
  1  2  2  0
  2  3  1  0
  3  4  1  0
  4  5  2  0
  5  6  1  0
  6  7  2  0
  7  8  1  0
  8  9  2  0
  9 10  1  0
  2 11  1  0
 11 12  1  0
 12 13  2  0
 13 14  1  0
 14 15  2  0
 15 16  1  0
 16 17  1  0
 17 18  1  0
 18 19  1  0
 19 20  1  0
 20 21  1  0
 21 22  1  0
 22 23  2  0
 22 24  1  0
 24 25  1  0
 25 26  1  0
 26 27  2  0
 27 28  1  0
 28 29  2  0
 29 30  1  0
 21 31  1  0
 31 32  1  0
 16 33  2  0
  9  4  1  0
 33 12  1  0
 32 18  1  0
 30 26  1  0
  3 34  1  0
  3 35  1  0
  5 36  1  0
  6 37  1  0
  7 38  1  0
  8 39  1  0
 11 40  1  0
 13 41  1  0
 14 42  1  0
 15 43  1  0
 17 44  1  0
 17 45  1  0
 19 46  1  0
 19 47  1  0
 20 48  1  0
 20 49  1  0
 21 50  1  0
 25 51  1  0
 25 52  1  0
 28 53  1  0
 29 54  1  0
 31 55  1  0
 31 56  1  0
 32 57  1  0
 32 58  1  0
 33 59  1  0
M  CHG  1  24  -1
M  END
>  <UniqueID>  (42) 
38

>  <SMILES>  (42) 
O=C(Cc1ccccc1F)Nc1cccc(CN2CCC(C(=O)[N-]Cc3ncco3)CC2)c1

>  <Energy>  (42) 
100.04214167586227

>  <Genealogy>  (42) 
O=C(Cc1ccccc1F)Nc1cccc(CN2CCC(C(=O)[N-]Cc3ncco3)CC2)c1 (protonated)
O=C(Cc1ccccc1F)Nc1cccc(CN2CCC(C(=O)[N-]Cc3ncco3)CC2)c1 (3D coordinates assigned)
O=C(Cc1ccccc1F)Nc1cccc(CN2CCC(C(=O)[N-]Cc3ncco3)CC2)c1 (nonaromatic ring conformer: 100.04214167586227 kcal/mol)

>  <smiles>  (42) 
O=C(Cc1ccccc1F)Nc1cccc(CN2CCC(C(=O)NCc3ncco3)CC2)c1

>  <score_type>  (42) 
oracle

>  <origin>  (42) 
adg

>  <m_score__min__energy>  (42) 
-10.960000000000001

>  <m_primary>  (42) 
energy

$$$$
42:0
     RDKit          3D

 44 46  0  0  0  0  0  0  0  0999 V2000
   58.9790   34.6700   47.4560 C   0  0  0  0  0  0  0  0  0  0  0  0
   59.6330   35.3360   46.4280 C   0  0  0  0  0  0  0  0  0  0  0  0
   59.4030   34.4720   45.0030 S   0  0  0  0  0  0  0  0  0  0  0  0
   58.4730   33.2460   45.6830 C   0  0  0  0  0  0  0  0  0  0  0  0
   57.8950   32.1070   44.9620 C   0  0  0  0  0  0  0  0  0  0  0  0
   57.5480   32.0810   43.6240 C   0  0  0  0  0  0  0  0  0  0  0  0
   57.0400   30.8180   43.3920 C   0  0  0  0  0  0  0  0  0  0  0  0
   57.1150   30.1580   44.6020 C   0  0  0  0  0  0  0  0  0  0  0  0
   56.6580   28.7550   44.8680 C   0  0  0  0  0  0  0  0  0  0  0  0
   57.5040   27.7640   44.1890 N   0  0  0  0  0  0  0  0  0  0  0  0
   58.7680   27.5410   44.9050 C   0  0  0  0  0  0  0  0  0  0  0  0
   59.8120   28.5860   44.4910 C   0  0  0  0  0  0  0  0  0  0  0  0
   60.7500   28.9970   45.6510 C   0  0  0  0  0  0  0  0  0  0  0  0
   60.0580   29.7750   46.7070 N   0  0  0  0  0  0  0  0  0  0  0  0
   60.9300   30.8370   47.2620 C   0  0  0  0  0  0  0  0  0  0  0  0
   60.3310   31.4560   48.5420 C   0  0  0  0  0  0  0  0  0  0  0  0
   58.9950   31.0470   48.7370 O   0  0  0  0  0  0  0  0  0  0  0  0
   58.9600   29.6500   48.9480 C   0  0  0  0  0  0  0  0  0  0  0  0
   59.6130   28.8670   47.7870 C   0  0  0  0  0  0  0  0  0  0  0  0
   57.6240   30.9490   45.5190 O   0  0  0  0  0  0  0  0  0  0  0  0
   58.3300   33.5000   47.0420 C   0  0  0  0  0  0  0  0  0  0  0  0
   58.9714   35.0273   48.4963 H   0  0  0  0  0  0  0  0  0  0  0  0
   60.2047   36.2704   46.5284 H   0  0  0  0  0  0  0  0  0  0  0  0
   57.6545   32.8977   42.8948 H   0  0  0  0  0  0  0  0  0  0  0  0
   56.6556   30.4207   42.4410 H   0  0  0  0  0  0  0  0  0  0  0  0
   56.6929   28.5693   45.9516 H   0  0  0  0  0  0  0  0  0  0  0  0
   55.6339   28.6512   44.4801 H   0  0  0  0  0  0  0  0  0  0  0  0
   56.9830   26.8590   44.1260 H   0  0  0  0  0  0  0  0  0  0  0  0
   58.5890   27.6174   45.9877 H   0  0  0  0  0  0  0  0  0  0  0  0
   59.1476   26.5398   44.6529 H   0  0  0  0  0  0  0  0  0  0  0  0
   60.4231   28.1677   43.6777 H   0  0  0  0  0  0  0  0  0  0  0  0
   59.2671   29.4873   44.1738 H   0  0  0  0  0  0  0  0  0  0  0  0
   61.1678   28.0857   46.1037 H   0  0  0  0  0  0  0  0  0  0  0  0
   61.5344   29.6416   45.2276 H   0  0  0  0  0  0  0  0  0  0  0  0
   59.2040   30.2190   46.2890 H   0  0  0  0  0  0  0  0  0  0  0  0
   61.9119   30.4030   47.5017 H   0  0  0  0  0  0  0  0  0  0  0  0
   61.0241   31.6324   46.5080 H   0  0  0  0  0  0  0  0  0  0  0  0
   60.9318   31.1393   49.4073 H   0  0  0  0  0  0  0  0  0  0  0  0
   60.3451   32.5507   48.4355 H   0  0  0  0  0  0  0  0  0  0  0  0
   59.4992   29.4188   49.8785 H   0  0  0  0  0  0  0  0  0  0  0  0
   57.9051   29.3445   49.0097 H   0  0  0  0  0  0  0  0  0  0  0  0
   60.4832   28.3153   48.1721 H   0  0  0  0  0  0  0  0  0  0  0  0
   58.8651   28.1754   47.3718 H   0  0  0  0  0  0  0  0  0  0  0  0
   57.7642   32.8479   47.7236 H   0  0  0  0  0  0  0  0  0  0  0  0
  1  2  2  0
  2  3  1  0
  3  4  1  0
  4  5  1  0
  5  6  2  0
  6  7  1  0
  7  8  2  0
  8  9  1  0
  9 10  1  0
 10 11  1  0
 11 12  1  0
 12 13  1  0
 13 14  1  0
 14 15  1  0
 15 16  1  0
 16 17  1  0
 17 18  1  0
 18 19  1  0
  8 20  1  0
  4 21  2  0
 21  1  1  0
 20  5  1  0
 19 14  1  0
  1 22  1  0
  2 23  1  0
  6 24  1  0
  7 25  1  0
  9 26  1  0
  9 27  1  0
 10 28  1  0
 11 29  1  0
 11 30  1  0
 12 31  1  0
 12 32  1  0
 13 33  1  0
 13 34  1  0
 14 35  1  0
 15 36  1  0
 15 37  1  0
 16 38  1  0
 16 39  1  0
 18 40  1  0
 18 41  1  0
 19 42  1  0
 19 43  1  0
 21 44  1  0
M  CHG  1  14   1
M  END
>  <UniqueID>  (43) 
39

>  <SMILES>  (43) 
c1csc(-c2ccc(CNCCC[NH+]3CCOCC3)o2)c1

>  <Energy>  (43) 
104.67117036433214

>  <Genealogy>  (43) 
c1csc(-c2ccc(CNCCC[NH+]3CCOCC3)o2)c1 (protonated)
c1csc(-c2ccc(CNCCC[NH+]3CCOCC3)o2)c1 (3D coordinates assigned)
c1csc(-c2ccc(CNCCC[NH+]3CCOCC3)o2)c1 (nonaromatic ring conformer: 104.67117036433214 kcal/mol)

>  <smiles>  (43) 
c1csc(-c2ccc(CNCCCN3CCOCC3)o2)c1

>  <score_type>  (43) 
oracle

>  <origin>  (43) 
adg

>  <m_score__min__energy>  (43) 
-5.54

>  <m_primary>  (43) 
energy

$$$$
43:0
     RDKit          3D

 40 43  0  0  0  0  0  0  0  0999 V2000
   53.9640   24.7920   45.5910 C   0  0  0  0  0  0  0  0  0  0  0  0
   54.5880   26.0240   45.9390 O   0  0  0  0  0  0  0  0  0  0  0  0
   55.9330   26.1570   46.3130 C   0  0  0  0  0  0  0  0  0  0  0  0
   56.6200   25.1420   47.0090 C   0  0  0  0  0  0  0  0  0  0  0  0
   57.9590   25.3170   47.3690 C   0  0  0  0  0  0  0  0  0  0  0  0
   58.6240   26.5000   47.0430 C   0  0  0  0  0  0  0  0  0  0  0  0
   57.9550   27.5100   46.3490 C   0  0  0  0  0  0  0  0  0  0  0  0
   56.6150   27.3410   45.9800 C   0  0  0  0  0  0  0  0  0  0  0  0
   55.9550   28.3700   45.2430 N   0  0  0  0  0  0  0  0  0  0  0  0
   56.8280   29.3520   44.1180 S   0  0  0  0  0  0  0  0  0  0  0  0
   57.6860   28.4720   43.2550 O   0  0  0  0  0  0  0  0  0  0  0  0
   55.8610   30.0930   43.2380 O   0  0  0  0  0  0  0  0  0  0  0  0
   57.8470   30.4930   44.9890 C   0  0  0  0  0  0  0  0  0  0  0  0
   57.3940   31.8130   45.2110 C   0  0  0  0  0  0  0  0  0  0  0  0
   58.1590   32.7140   45.9710 C   0  0  0  0  0  0  0  0  0  0  0  0
   59.3710   32.2790   46.5060 C   0  0  0  0  0  0  0  0  0  0  0  0
   60.1890   33.0430   47.2740 N   0  0  0  0  0  0  0  0  0  0  0  0
   61.2840   32.3440   47.6590 C   0  0  0  0  0  0  0  0  0  0  0  0
   62.3400   32.9130   48.4990 C   0  0  0  0  0  0  0  0  0  0  0  0
   63.5320   32.3250   48.7170 N   0  0  0  0  0  0  0  0  0  0  0  0
   64.1180   33.2220   49.5370 C   0  0  0  0  0  0  0  0  0  0  0  0
   65.5120   33.0850   50.0480 C   0  0  0  0  0  0  0  0  0  0  0  0
   63.3370   34.2920   49.7840 N   0  0  0  0  0  0  0  0  0  0  0  0
   62.2410   34.0590   49.1280 O   0  0  0  0  0  0  0  0  0  0  0  0
   61.2750   30.7560   47.0680 S   0  0  0  0  0  0  0  0  0  0  0  0
   59.8100   30.9840   46.2830 C   0  0  0  0  0  0  0  0  0  0  0  0
   59.0750   30.0710   45.5330 C   0  0  0  0  0  0  0  0  0  0  0  0
   53.6888   24.2487   46.5071 H   0  0  0  0  0  0  0  0  0  0  0  0
   53.0594   24.9937   44.9986 H   0  0  0  0  0  0  0  0  0  0  0  0
   54.6618   24.1820   44.9986 H   0  0  0  0  0  0  0  0  0  0  0  0
   56.1001   24.2084   47.2699 H   0  0  0  0  0  0  0  0  0  0  0  0
   58.4901   24.5204   47.9106 H   0  0  0  0  0  0  0  0  0  0  0  0
   59.6762   26.6367   47.3331 H   0  0  0  0  0  0  0  0  0  0  0  0
   58.4819   28.4406   46.0915 H   0  0  0  0  0  0  0  0  0  0  0  0
   56.4335   32.1383   44.7849 H   0  0  0  0  0  0  0  0  0  0  0  0
   57.8085   33.7428   46.1406 H   0  0  0  0  0  0  0  0  0  0  0  0
   65.5011   33.0861   51.1479 H   0  0  0  0  0  0  0  0  0  0  0  0
   65.9438   32.1401   49.6865 H   0  0  0  0  0  0  0  0  0  0  0  0
   66.1195   33.9278   49.6865 H   0  0  0  0  0  0  0  0  0  0  0  0
   59.4434   29.0475   45.3696 H   0  0  0  0  0  0  0  0  0  0  0  0
  1  2  1  0
  2  3  1  0
  3  4  2  0
  4  5  1  0
  5  6  2  0
  6  7  1  0
  7  8  2  0
  8  9  1  0
  9 10  1  0
 10 11  2  0
 10 12  2  0
 10 13  1  0
 13 14  2  0
 14 15  1  0
 15 16  2  0
 16 17  1  0
 17 18  2  0
 18 19  1  0
 19 20  2  0
 20 21  1  0
 21 22  1  0
 21 23  2  0
 23 24  1  0
 18 25  1  0
 25 26  1  0
 26 27  2  0
  8  3  1  0
 27 13  1  0
 26 16  1  0
 24 19  1  0
  1 28  1  0
  1 29  1  0
  1 30  1  0
  4 31  1  0
  5 32  1  0
  6 33  1  0
  7 34  1  0
 14 35  1  0
 15 36  1  0
 22 37  1  0
 22 38  1  0
 22 39  1  0
 27 40  1  0
M  CHG  1   9  -1
M  END
>  <UniqueID>  (44) 
40

>  <SMILES>  (44) 
COc1ccccc1[N-]S(=O)(=O)c1ccc2nc(-c3nc(C)no3)sc2c1

>  <Energy>  (44) 
115.93057882518194

>  <Genealogy>  (44) 
COc1ccccc1[N-]S(=O)(=O)c1ccc2nc(-c3nc(C)no3)sc2c1 (protonated)
COc1ccccc1[N-]S(=O)(=O)c1ccc2nc(-c3nc(C)no3)sc2c1 (3D coordinates assigned)
COc1ccccc1[N-]S(=O)(=O)c1ccc2nc(-c3nc(C)no3)sc2c1 (optimized conformer: 115.93057882518194 kcal/mol)

>  <smiles>  (44) 
COc1ccccc1NS(=O)(=O)c1ccc2nc(-c3nc(C)no3)sc2c1

>  <score_type>  (44) 
oracle

>  <origin>  (44) 
adg

>  <m_score__min__energy>  (44) 
-10.83

>  <m_primary>  (44) 
energy

$$$$
44:0
     RDKit          3D

 32 33  0  0  0  0  0  0  0  0999 V2000
   58.5220   25.0850   45.6490 C   0  0  0  0  0  0  0  0  0  0  0  0
   58.5080   26.5810   45.4770 C   0  0  0  0  0  0  0  0  0  0  0  0
   58.8340   27.4020   46.5690 C   0  0  0  0  0  0  0  0  0  0  0  0
   58.8250   28.7920   46.4430 C   0  0  0  0  0  0  0  0  0  0  0  0
   58.5000   29.3920   45.2170 C   0  0  0  0  0  0  0  0  0  0  0  0
   58.4640   30.8210   45.0670 N   0  0  0  0  0  0  0  0  0  0  0  0
   57.3130   31.5550   44.6220 C   0  0  0  0  0  0  0  0  0  0  0  0
   56.1870   30.9950   44.5330 O   0  0  0  0  0  0  0  0  0  0  0  0
   57.4230   33.0240   44.3510 C   0  0  0  0  0  0  0  0  0  0  0  0
   58.2070   33.6870   45.4370 C   0  0  0  0  0  0  0  0  0  0  0  0
   59.2510   34.5850   45.2560 C   0  0  0  0  0  0  0  0  0  0  0  0
   59.8460   34.9870   46.4580 C   0  0  0  0  0  0  0  0  0  0  0  0
   59.2830   34.3970   47.5820 C   0  0  0  0  0  0  0  0  0  0  0  0
   58.0450   33.3750   47.0810 S   0  0  0  0  0  0  0  0  0  0  0  0
   58.1420   28.5790   44.1320 C   0  0  0  0  0  0  0  0  0  0  0  0
   58.1420   27.1770   44.2470 C   0  0  0  0  0  0  0  0  0  0  0  0
   57.7700   26.3390   43.0520 C   0  0  0  0  0  0  0  0  0  0  0  0
   58.5243   24.8392   46.7212 H   0  0  0  0  0  0  0  0  0  0  0  0
   57.6279   24.6531   45.1757 H   0  0  0  0  0  0  0  0  0  0  0  0
   59.4241   24.6699   45.1757 H   0  0  0  0  0  0  0  0  0  0  0  0
   59.0992   26.9447   47.5336 H   0  0  0  0  0  0  0  0  0  0  0  0
   59.0743   29.4210   47.3103 H   0  0  0  0  0  0  0  0  0  0  0  0
   59.2940   31.3690   45.3880 H   0  0  0  0  0  0  0  0  0  0  0  0
   57.9311   33.1797   43.3879 H   0  0  0  0  0  0  0  0  0  0  0  0
   56.4142   33.4611   44.3156 H   0  0  0  0  0  0  0  0  0  0  0  0
   59.5772   34.9439   44.2687 H   0  0  0  0  0  0  0  0  0  0  0  0
   60.6802   35.7023   46.5073 H   0  0  0  0  0  0  0  0  0  0  0  0
   59.5939   34.5689   48.6230 H   0  0  0  0  0  0  0  0  0  0  0  0
   57.8570   29.0444   43.1769 H   0  0  0  0  0  0  0  0  0  0  0  0
   57.3456   25.3830   43.3924 H   0  0  0  0  0  0  0  0  0  0  0  0
   57.0255   26.8754   42.4454 H   0  0  0  0  0  0  0  0  0  0  0  0
   58.6673   26.1466   42.4454 H   0  0  0  0  0  0  0  0  0  0  0  0
  1  2  1  0
  2  3  2  0
  3  4  1  0
  4  5  2  0
  5  6  1  0
  6  7  1  0
  7  8  2  0
  7  9  1  0
  9 10  1  0
 10 11  2  0
 11 12  1  0
 12 13  2  0
 13 14  1  0
  5 15  1  0
 15 16  2  0
 16 17  1  0
 16  2  1  0
 14 10  1  0
  1 18  1  0
  1 19  1  0
  1 20  1  0
  3 21  1  0
  4 22  1  0
  6 23  1  0
  9 24  1  0
  9 25  1  0
 11 26  1  0
 12 27  1  0
 13 28  1  0
 15 29  1  0
 17 30  1  0
 17 31  1  0
 17 32  1  0
M  END
>  <UniqueID>  (45) 
41

>  <SMILES>  (45) 
Cc1ccc(NC(=O)Cc2cccs2)cc1C

>  <Energy>  (45) 
58.448334835036036

>  <Genealogy>  (45) 
Cc1ccc(NC(=O)Cc2cccs2)cc1C (3D coordinates assigned)
Cc1ccc(NC(=O)Cc2cccs2)cc1C (optimized conformer: 58.448334835036036 kcal/mol)

>  <smiles>  (45) 
Cc1ccc(NC(=O)Cc2cccs2)cc1C

>  <score_type>  (45) 
oracle

>  <origin>  (45) 
adg

>  <m_score__min__energy>  (45) 
-6.8799999999999999

>  <m_primary>  (45) 
energy

$$$$
45:0
     RDKit          3D

 36 37  0  0  0  0  0  0  0  0999 V2000
   55.5500   23.7500   46.4630 C   0  0  0  0  0  0  0  0  0  0  0  0
   54.6040   24.5260   45.5510 C   0  0  0  0  0  0  0  0  0  0  0  0
   54.7940   25.9730   45.7210 N   0  0  0  0  0  0  0  0  0  0  0  0
   56.0910   26.2750   46.3410 C   0  0  0  0  0  0  0  0  0  0  0  0
   57.1030   26.6700   45.2640 C   0  0  0  0  0  0  0  0  0  0  0  0
   57.4670   28.1260   45.3830 C   0  0  0  0  0  0  0  0  0  0  0  0
   58.4530   28.5360   46.2930 C   0  0  0  0  0  0  0  0  0  0  0  0
   58.8150   29.8830   46.3820 C   0  0  0  0  0  0  0  0  0  0  0  0
   58.2030   30.8440   45.5560 C   0  0  0  0  0  0  0  0  0  0  0  0
   58.5870   32.2750   45.6500 C   0  0  0  0  0  0  0  0  0  0  0  0
   59.5370   32.7020   46.5970 C   0  0  0  0  0  0  0  0  0  0  0  0
   59.8960   34.0510   46.6820 C   0  0  0  0  0  0  0  0  0  0  0  0
   59.3140   34.9870   45.8260 C   0  0  0  0  0  0  0  0  0  0  0  0
   58.3700   34.5780   44.8820 C   0  0  0  0  0  0  0  0  0  0  0  0
   58.0080   33.2300   44.7920 C   0  0  0  0  0  0  0  0  0  0  0  0
   57.2240   30.4250   44.6370 C   0  0  0  0  0  0  0  0  0  0  0  0
   56.8630   29.0770   44.5480 C   0  0  0  0  0  0  0  0  0  0  0  0
   55.2981   23.9566   47.5136 H   0  0  0  0  0  0  0  0  0  0  0  0
   55.4473   22.6726   46.2664 H   0  0  0  0  0  0  0  0  0  0  0  0
   56.5865   24.0614   46.2664 H   0  0  0  0  0  0  0  0  0  0  0  0
   54.8073   24.2550   44.5045 H   0  0  0  0  0  0  0  0  0  0  0  0
   53.5672   24.2707   45.8153 H   0  0  0  0  0  0  0  0  0  0  0  0
   54.0470   26.3160   46.3720 H   0  0  0  0  0  0  0  0  0  0  0  0
   55.9711   27.1063   47.0514 H   0  0  0  0  0  0  0  0  0  0  0  0
   56.4557   25.3828   46.8711 H   0  0  0  0  0  0  0  0  0  0  0  0
   58.0110   26.0602   45.3809 H   0  0  0  0  0  0  0  0  0  0  0  0
   56.6521   26.4982   44.2755 H   0  0  0  0  0  0  0  0  0  0  0  0
   58.9436   27.7936   46.9397 H   0  0  0  0  0  0  0  0  0  0  0  0
   59.5846   30.1945   47.1036 H   0  0  0  0  0  0  0  0  0  0  0  0
   60.0001   31.9697   47.2747 H   0  0  0  0  0  0  0  0  0  0  0  0
   60.6391   34.3751   47.4255 H   0  0  0  0  0  0  0  0  0  0  0  0
   59.5990   36.0472   45.8950 H   0  0  0  0  0  0  0  0  0  0  0  0
   57.9106   35.3165   44.2085 H   0  0  0  0  0  0  0  0  0  0  0  0
   57.2651   32.9132   44.0451 H   0  0  0  0  0  0  0  0  0  0  0  0
   56.7383   31.1640   43.9828 H   0  0  0  0  0  0  0  0  0  0  0  0
   56.1017   28.7611   43.8196 H   0  0  0  0  0  0  0  0  0  0  0  0
  1  2  1  0
  2  3  1  0
  3  4  1  0
  4  5  1  0
  5  6  1  0
  6  7  2  0
  7  8  1  0
  8  9  2  0
  9 10  1  0
 10 11  2  0
 11 12  1  0
 12 13  2  0
 13 14  1  0
 14 15  2  0
  9 16  1  0
 16 17  2  0
 17  6  1  0
 15 10  1  0
  1 18  1  0
  1 19  1  0
  1 20  1  0
  2 21  1  0
  2 22  1  0
  3 23  1  0
  4 24  1  0
  4 25  1  0
  5 26  1  0
  5 27  1  0
  7 28  1  0
  8 29  1  0
 11 30  1  0
 12 31  1  0
 13 32  1  0
 14 33  1  0
 15 34  1  0
 16 35  1  0
 17 36  1  0
M  END
>  <UniqueID>  (46) 
42

>  <SMILES>  (46) 
CCNCCc1ccc(-c2ccccc2)cc1

>  <Energy>  (46) 
35.473126248194184

>  <Genealogy>  (46) 
CCNCCc1ccc(-c2ccccc2)cc1 (3D coordinates assigned)
CCNCCc1ccc(-c2ccccc2)cc1 (optimized conformer: 35.473126248194184 kcal/mol)

>  <smiles>  (46) 
CCNCCc1ccc(-c2ccccc2)cc1

>  <score_type>  (46) 
oracle

>  <origin>  (46) 
adg

>  <m_score__min__energy>  (46) 
-6.9100000000000001

>  <m_primary>  (46) 
energy

$$$$
46:0
     RDKit          3D

 42 44  0  0  0  0  0  0  0  0999 V2000
   57.5320   34.3110   44.9000 C   0  0  0  0  0  0  0  0  0  0  0  0
   58.9510   34.5930   45.3900 C   0  0  0  0  0  0  0  0  0  0  0  0
   59.3430   33.6170   46.4340 N   0  0  0  0  0  0  0  0  0  0  0  0
   59.9170   34.3010   47.6210 C   0  0  0  0  0  0  0  0  0  0  0  0
   61.3330   33.8460   47.8640 C   0  0  0  0  0  0  0  0  0  0  0  0
   61.9940   34.2170   49.0450 C   0  0  0  0  0  0  0  0  0  0  0  0
   63.3220   33.8340   49.2390 C   0  0  0  0  0  0  0  0  0  0  0  0
   63.9720   33.0740   48.2680 C   0  0  0  0  0  0  0  0  0  0  0  0
   63.2780   32.6980   47.1160 C   0  0  0  0  0  0  0  0  0  0  0  0
   61.9840   33.0810   46.9380 N   0  0  0  0  0  0  0  0  0  0  0  0
   58.1850   32.7630   46.8000 C   0  0  0  0  0  0  0  0  0  0  0  0
   58.3990   31.3320   46.3820 C   0  0  0  0  0  0  0  0  0  0  0  0
   59.2520   30.4020   46.9630 C   0  0  0  0  0  0  0  0  0  0  0  0
   60.1040   30.6130   48.1720 C   0  0  0  0  0  0  0  0  0  0  0  0
   59.2090   29.2340   46.2760 N   0  0  0  0  0  0  0  0  0  0  0  0
   58.3220   29.4850   45.2900 C   0  0  0  0  0  0  0  0  0  0  0  0
   57.9440   28.5910   44.2930 C   0  0  0  0  0  0  0  0  0  0  0  0
   57.0120   29.0310   43.3400 C   0  0  0  0  0  0  0  0  0  0  0  0
   56.4850   30.3340   43.4090 C   0  0  0  0  0  0  0  0  0  0  0  0
   56.9010   31.1930   44.4370 C   0  0  0  0  0  0  0  0  0  0  0  0
   57.8120   30.7290   45.3330 N   0  0  0  0  0  0  0  0  0  0  0  0
   56.8651   34.1785   45.7647 H   0  0  0  0  0  0  0  0  0  0  0  0
   57.1795   35.1566   44.2912 H   0  0  0  0  0  0  0  0  0  0  0  0
   57.5296   33.3948   44.2912 H   0  0  0  0  0  0  0  0  0  0  0  0
   59.6484   34.5166   44.5428 H   0  0  0  0  0  0  0  0  0  0  0  0
   58.9848   35.6054   45.8187 H   0  0  0  0  0  0  0  0  0  0  0  0
   59.9111   35.3876   47.4498 H   0  0  0  0  0  0  0  0  0  0  0  0
   59.3085   34.0506   48.5025 H   0  0  0  0  0  0  0  0  0  0  0  0
   61.4693   34.8053   49.8122 H   0  0  0  0  0  0  0  0  0  0  0  0
   63.8539   34.1309   50.1550 H   0  0  0  0  0  0  0  0  0  0  0  0
   65.0209   32.7735   48.4077 H   0  0  0  0  0  0  0  0  0  0  0  0
   63.7793   32.0895   46.3489 H   0  0  0  0  0  0  0  0  0  0  0  0
   61.4940   32.7850   46.0660 H   0  0  0  0  0  0  0  0  0  0  0  0
   58.0448   32.7995   47.8904 H   0  0  0  0  0  0  0  0  0  0  0  0
   57.2959   33.1454   46.2772 H   0  0  0  0  0  0  0  0  0  0  0  0
   59.4985   30.4630   49.0780 H   0  0  0  0  0  0  0  0  0  0  0  0
   60.9363   29.8938   48.1641 H   0  0  0  0  0  0  0  0  0  0  0  0
   60.5045   31.6375   48.1641 H   0  0  0  0  0  0  0  0  0  0  0  0
   58.3613   27.5740   44.2530 H   0  0  0  0  0  0  0  0  0  0  0  0
   56.6918   28.3535   42.5347 H   0  0  0  0  0  0  0  0  0  0  0  0
   55.7528   30.6762   42.6628 H   0  0  0  0  0  0  0  0  0  0  0  0
   56.5008   32.2146   44.5160 H   0  0  0  0  0  0  0  0  0  0  0  0
  1  2  1  0
  2  3  1  0
  3  4  1  0
  4  5  1  0
  5  6  2  0
  6  7  1  0
  7  8  2  0
  8  9  1  0
  9 10  2  0
  3 11  1  0
 11 12  1  0
 12 13  2  0
 13 14  1  0
 13 15  1  0
 15 16  2  0
 16 17  1  0
 17 18  2  0
 18 19  1  0
 19 20  2  0
 20 21  1  0
 10  5  1  0
 21 12  1  0
 21 16  1  0
  1 22  1  0
  1 23  1  0
  1 24  1  0
  2 25  1  0
  2 26  1  0
  4 27  1  0
  4 28  1  0
  6 29  1  0
  7 30  1  0
  8 31  1  0
  9 32  1  0
 10 33  1  0
 11 34  1  0
 11 35  1  0
 14 36  1  0
 14 37  1  0
 14 38  1  0
 17 39  1  0
 18 40  1  0
 19 41  1  0
 20 42  1  0
M  CHG  1  10   1
M  END
>  <UniqueID>  (47) 
43

>  <SMILES>  (47) 
CCN(Cc1cccc[nH+]1)Cc1c(C)nc2ccccn12

>  <Energy>  (47) 
74.34966056763196

>  <Genealogy>  (47) 
CCN(Cc1cccc[nH+]1)Cc1c(C)nc2ccccn12 (protonated)
CCN(Cc1cccc[nH+]1)Cc1c(C)nc2ccccn12 (3D coordinates assigned)
CCN(Cc1cccc[nH+]1)Cc1c(C)nc2ccccn12 (optimized conformer: 74.34966056763196 kcal/mol)

>  <smiles>  (47) 
CCN(Cc1ccccn1)Cc1c(C)nc2ccccn12

>  <score_type>  (47) 
oracle

>  <origin>  (47) 
adg

>  <m_score__min__energy>  (47) 
-5.1500000000000004

>  <m_primary>  (47) 
energy

$$$$
47:0
     RDKit          3D

 59 61  0  0  0  0  0  0  0  0999 V2000
   60.0260   28.9690   44.9140 C   0  0  0  0  0  0  0  0  0  0  0  0
   59.0500   28.7980   46.0790 C   0  0  0  0  0  0  0  0  0  0  0  0
   57.5760   28.7420   45.6230 C   0  0  0  0  0  0  0  0  0  0  0  0
   57.3960   28.7870   44.0930 C   0  0  0  0  0  0  0  0  0  0  0  0
   56.4130   29.8570   43.5800 C   0  0  0  0  0  0  0  0  0  0  0  0
   57.0440   31.2280   43.2740 C   0  0  0  0  0  0  0  0  0  0  0  0
   57.0990   32.1450   44.4960 C   0  0  0  0  0  0  0  0  0  0  0  0
   58.2850   31.8790   45.2370 O   0  0  0  0  0  0  0  0  0  0  0  0
   58.8520   32.7920   46.1310 C   0  0  0  0  0  0  0  0  0  0  0  0
   59.9660   33.4320   45.8430 C   0  0  0  0  0  0  0  0  0  0  0  0
   60.3880   34.3490   46.9310 C   0  0  2  0  0  0  0  0  0  0  0  0
   61.6990   33.9570   47.4620 N   0  0  0  0  0  0  0  0  0  0  0  0
   62.8170   33.6620   46.7480 C   0  0  0  0  0  0  0  0  0  0  0  0
   63.8910   33.3540   47.5270 N   0  0  0  0  0  0  0  0  0  0  0  0
   63.3980   33.4710   48.7730 C   0  0  0  0  0  0  0  0  0  0  0  0
   64.0340   33.2860   49.9940 C   0  0  0  0  0  0  0  0  0  0  0  0
   65.7210   32.8210   50.0940 Cl  0  0  0  0  0  0  0  0  0  0  0  0
   63.2980   33.4840   51.1280 N   0  0  0  0  0  0  0  0  0  0  0  0
   61.9770   33.8520   51.0680 C   0  0  0  0  0  0  0  0  0  0  0  0
   61.3610   34.0290   49.8600 N   0  0  0  0  0  0  0  0  0  0  0  0
   62.0950   33.8310   48.7380 C   0  0  0  0  0  0  0  0  0  0  0  0
   59.2820   34.2230   47.9920 C   0  0  0  0  0  0  0  0  0  0  0  0
   58.3050   33.1410   47.4780 C   0  0  2  0  0  0  0  0  0  0  0  0
   58.3160   31.9870   48.2960 O   0  0  0  0  0  0  0  0  0  0  0  0
   58.8590   32.2590   49.5790 C   0  0  0  0  0  0  0  0  0  0  0  0
   59.8570   31.1660   49.9780 C   0  0  0  0  0  0  0  0  0  0  0  0
   60.1830   30.1890   48.8370 C   0  0  0  0  0  0  0  0  0  0  0  0
   61.2620   30.7170   47.8910 C   0  0  0  0  0  0  0  0  0  0  0  0
   61.0381   29.1463   45.3066 H   0  0  0  0  0  0  0  0  0  0  0  0
   60.0259   28.0572   44.2987 H   0  0  0  0  0  0  0  0  0  0  0  0
   59.7159   29.8265   44.2987 H   0  0  0  0  0  0  0  0  0  0  0  0
   59.2909   27.8621   46.6045 H   0  0  0  0  0  0  0  0  0  0  0  0
   59.1603   29.6747   46.7342 H   0  0  0  0  0  0  0  0  0  0  0  0
   57.1326   27.8074   45.9970 H   0  0  0  0  0  0  0  0  0  0  0  0
   57.0805   29.6357   46.0303 H   0  0  0  0  0  0  0  0  0  0  0  0
   58.3791   28.9828   43.6402 H   0  0  0  0  0  0  0  0  0  0  0  0
   56.9667   27.8154   43.8071 H   0  0  0  0  0  0  0  0  0  0  0  0
   55.9506   29.4803   42.6557 H   0  0  0  0  0  0  0  0  0  0  0  0
   55.6910   30.0256   44.3926 H   0  0  0  0  0  0  0  0  0  0  0  0
   58.0692   31.0686   42.9087 H   0  0  0  0  0  0  0  0  0  0  0  0
   56.4122   31.7208   42.5203 H   0  0  0  0  0  0  0  0  0  0  0  0
   57.1002   33.1946   44.1668 H   0  0  0  0  0  0  0  0  0  0  0  0
   56.2207   31.9607   45.1320 H   0  0  0  0  0  0  0  0  0  0  0  0
   60.5212   33.3018   44.9023 H   0  0  0  0  0  0  0  0  0  0  0  0
   60.5065   35.3876   46.5887 H   0  0  0  0  0  0  0  0  0  0  0  0
   62.8512   33.6711   45.6486 H   0  0  0  0  0  0  0  0  0  0  0  0
   61.4100   34.0056   51.9980 H   0  0  0  0  0  0  0  0  0  0  0  0
   59.7135   33.9185   48.9569 H   0  0  0  0  0  0  0  0  0  0  0  0
   58.7678   35.1829   48.1478 H   0  0  0  0  0  0  0  0  0  0  0  0
   57.2659   33.5019   47.4678 H   0  0  0  0  0  0  0  0  0  0  0  0
   59.3748   33.2303   49.5561 H   0  0  0  0  0  0  0  0  0  0  0  0
   58.0420   32.2830   50.3151 H   0  0  0  0  0  0  0  0  0  0  0  0
   60.7912   31.6484   50.3012 H   0  0  0  0  0  0  0  0  0  0  0  0
   59.3907   30.5797   50.7834 H   0  0  0  0  0  0  0  0  0  0  0  0
   60.5327   29.2424   49.2748 H   0  0  0  0  0  0  0  0  0  0  0  0
   59.2648   30.0528   48.2469 H   0  0  0  0  0  0  0  0  0  0  0  0
   62.0971   31.1256   48.4789 H   0  0  0  0  0  0  0  0  0  0  0  0
   61.6274   29.8959   47.2568 H   0  0  0  0  0  0  0  0  0  0  0  0
   60.8378   31.5093   47.2568 H   0  0  0  0  0  0  0  0  0  0  0  0
  1  2  1  0
  2  3  1  0
  3  4  1  0
  4  5  1  0
  5  6  1  0
  6  7  1  0
  7  8  1  0
  8  9  1  0
  9 10  2  0
 10 11  1  0
 11 12  1  0
 12 13  1  0
 13 14  2  0
 14 15  1  0
 15 16  2  0
 16 17  1  0
 16 18  1  0
 18 19  2  0
 19 20  1  0
 20 21  2  0
 11 22  1  0
 22 23  1  0
 23 24  1  0
 24 25  1  0
 25 26  1  0
 26 27  1  0
 27 28  1  0
 23  9  1  0
 21 12  1  0
 21 15  1  0
  1 29  1  0
  1 30  1  0
  1 31  1  0
  2 32  1  0
  2 33  1  0
  3 34  1  0
  3 35  1  0
  4 36  1  0
  4 37  1  0
  5 38  1  0
  5 39  1  0
  6 40  1  0
  6 41  1  0
  7 42  1  0
  7 43  1  0
 10 44  1  0
 11 45  1  6
 13 46  1  0
 19 47  1  0
 22 48  1  0
 22 49  1  0
 23 50  1  6
 25 51  1  0
 25 52  1  0
 26 53  1  0
 26 54  1  0
 27 55  1  0
 27 56  1  0
 28 57  1  0
 28 58  1  0
 28 59  1  0
M  END
>  <UniqueID>  (48) 
44

>  <SMILES>  (48) 
CCCCCCCOC1=C[C@H](n2cnc3c(Cl)ncnc32)C[C@@H]1OCCCC

>  <Energy>  (48) 
91.09694150938873

>  <Genealogy>  (48) 
CCCCCCCOC1=C[C@H](n2cnc3c(Cl)ncnc32)C[C@@H]1OCCCC (chirality)
CCCCCCCOC1=C[C@H](n2cnc3c(Cl)ncnc32)C[C@@H]1OCCCC (3D coordinates assigned)
CCCCCCCOC1=C[C@H](n2cnc3c(Cl)ncnc32)C[C@@H]1OCCCC (nonaromatic ring conformer: 91.09694150938873 kcal/mol)

>  <smiles>  (48) 
CCCCCCCOC1=CC(n2cnc3c(Cl)ncnc32)CC1OCCCC

>  <score_type>  (48) 
oracle

>  <origin>  (48) 
adg

>  <m_score__min__energy>  (48) 
-6.96

>  <m_primary>  (48) 
energy

$$$$
48:0
     RDKit          3D

 35 38  0  0  0  0  0  0  0  0999 V2000
   63.7650   33.0870   46.9760 C   0  0  0  0  0  0  0  0  0  0  0  0
   62.4170   33.4830   47.4830 C   0  0  0  0  0  0  0  0  0  0  0  0
   62.2770   34.1360   48.7120 C   0  0  0  0  0  0  0  0  0  0  0  0
   61.0390   34.4910   49.1400 N   0  0  0  0  0  0  0  0  0  0  0  0
   59.9300   34.2290   48.4000 C   0  0  0  0  0  0  0  0  0  0  0  0
   60.0610   33.5760   47.1620 C   0  0  0  0  0  0  0  0  0  0  0  0
   58.8830   33.2760   46.3130 C   0  0  0  0  0  0  0  0  0  0  0  0
   57.9890   34.2010   45.7630 C   0  0  0  0  0  0  0  0  0  0  0  0
   57.0470   33.5740   45.0240 N   0  0  0  0  0  0  0  0  0  0  0  0
   57.3360   32.2680   45.1000 C   0  0  0  0  0  0  0  0  0  0  0  0
   56.6430   31.2670   44.5050 N   0  0  0  0  0  0  0  0  0  0  0  0
   57.0510   29.9750   44.6790 C   0  0  0  0  0  0  0  0  0  0  0  0
   58.1890   29.6730   45.4760 C   0  0  0  0  0  0  0  0  0  0  0  0
   58.6280   28.2670   45.6670 C   0  0  0  0  0  0  0  0  0  0  0  0
   59.8980   27.9740   46.1920 C   0  0  0  0  0  0  0  0  0  0  0  0
   60.2970   26.6470   46.3680 C   0  0  0  0  0  0  0  0  0  0  0  0
   59.4220   25.6190   46.0180 C   0  0  0  0  0  0  0  0  0  0  0  0
   58.1960   25.9110   45.5130 N   0  0  0  0  0  0  0  0  0  0  0  0
   57.7830   27.1950   45.3310 C   0  0  0  0  0  0  0  0  0  0  0  0
   58.8950   30.7350   46.0860 C   0  0  0  0  0  0  0  0  0  0  0  0
   58.4410   32.0360   45.8690 C   0  0  0  0  0  0  0  0  0  0  0  0
   61.3070   33.2260   46.7430 N   0  0  0  0  0  0  0  0  0  0  0  0
   64.4337   32.8906   47.8271 H   0  0  0  0  0  0  0  0  0  0  0  0
   63.6739   32.1777   46.3638 H   0  0  0  0  0  0  0  0  0  0  0  0
   64.1802   33.9011   46.3638 H   0  0  0  0  0  0  0  0  0  0  0  0
   63.1620   34.3597   49.3258 H   0  0  0  0  0  0  0  0  0  0  0  0
   58.9365   34.5258   48.7671 H   0  0  0  0  0  0  0  0  0  0  0  0
   58.0451   35.2895   45.9117 H   0  0  0  0  0  0  0  0  0  0  0  0
   56.2610   34.0180   44.4990 H   0  0  0  0  0  0  0  0  0  0  0  0
   56.4927   29.1589   44.1970 H   0  0  0  0  0  0  0  0  0  0  0  0
   60.5803   28.7924   46.4653 H   0  0  0  0  0  0  0  0  0  0  0  0
   61.2909   26.4153   46.7784 H   0  0  0  0  0  0  0  0  0  0  0  0
   59.7255   24.5701   46.1513 H   0  0  0  0  0  0  0  0  0  0  0  0
   56.7829   27.3949   44.9189 H   0  0  0  0  0  0  0  0  0  0  0  0
   59.7772   30.5410   46.7138 H   0  0  0  0  0  0  0  0  0  0  0  0
  1  2  1  0
  2  3  2  0
  3  4  1  0
  4  5  2  0
  5  6  1  0
  6  7  1  0
  7  8  2  0
  8  9  1  0
  9 10  1  0
 10 11  2  0
 11 12  1  0
 12 13  2  0
 13 14  1  0
 14 15  2  0
 15 16  1  0
 16 17  2  0
 17 18  1  0
 18 19  2  0
 13 20  1  0
 20 21  2  0
  6 22  2  0
 22  2  1  0
 21  7  1  0
 21 10  1  0
 19 14  1  0
  1 23  1  0
  1 24  1  0
  1 25  1  0
  3 26  1  0
  5 27  1  0
  8 28  1  0
  9 29  1  0
 12 30  1  0
 15 31  1  0
 16 32  1  0
 17 33  1  0
 19 34  1  0
 20 35  1  0
M  END
>  <UniqueID>  (49) 
45

>  <SMILES>  (49) 
Cc1cncc(-c2c[nH]c3ncc(-c4cccnc4)cc23)n1

>  <Energy>  (49) 
83.20670163843101

>  <Genealogy>  (49) 
Cc1cncc(-c2c[nH]c3ncc(-c4cccnc4)cc23)n1 (3D coordinates assigned)
Cc1cncc(-c2c[nH]c3ncc(-c4cccnc4)cc23)n1 (optimized conformer: 83.20670163843101 kcal/mol)

>  <smiles>  (49) 
Cc1cncc(-c2c[nH]c3ncc(-c4cccnc4)cc23)n1

>  <score_type>  (49) 
oracle

>  <origin>  (49) 
adg

>  <m_score__min__energy>  (49) 
-7.54

>  <m_primary>  (49) 
energy

$$$$
49:0
     RDKit          3D

 71 75  0  0  0  0  0  0  0  0999 V2000
   54.9310   30.5100   52.1970 C   0  0  0  0  0  0  0  0  0  0  0  0
   56.2560   30.0440   51.9740 O   0  0  0  0  0  0  0  0  0  0  0  0
   57.3320   30.8640   51.6020 C   0  0  0  0  0  0  0  0  0  0  0  0
   57.4190   32.2170   51.9840 C   0  0  0  0  0  0  0  0  0  0  0  0
   58.5130   32.9930   51.5860 C   0  0  0  0  0  0  0  0  0  0  0  0
   59.5380   32.4280   50.8120 C   0  0  0  0  0  0  0  0  0  0  0  0
   60.6980   33.2350   50.3890 C   0  0  0  0  0  0  0  0  0  0  0  0
   61.9260   33.2790   51.0120 C   0  0  0  0  0  0  0  0  0  0  0  0
   62.6890   34.1730   50.3510 N   0  0  0  0  0  0  0  0  0  0  0  0
   61.9480   34.6690   49.3700 N   0  0  0  0  0  0  0  0  0  0  0  0
   60.7430   34.1220   49.3710 N   0  0  0  0  0  0  0  0  0  0  0  0
   59.6660   34.5470   48.4710 C   0  0  0  0  0  0  0  0  0  0  0  0
   60.1460   34.6690   47.0170 C   0  0  0  0  0  0  0  0  0  0  0  0
   60.3620   33.3210   46.3040 C   0  0  0  0  0  0  0  0  0  0  0  0
   61.1880   32.3080   47.1260 C   0  0  0  0  0  0  0  0  0  0  0  0
   60.8050   30.8510   46.8280 C   0  0  0  0  0  0  0  0  0  0  0  0
   59.3830   30.5090   47.3020 C   0  0  0  0  0  0  0  0  0  0  0  0
   58.7040   29.5940   46.3660 N   0  0  0  0  0  0  0  0  0  0  0  0
   58.7080   28.1520   46.6690 C   0  0  0  0  0  0  0  0  0  0  0  0
   57.4480   27.4690   46.1910 C   0  0  0  0  0  0  0  0  0  0  0  0
   57.0960   26.1170   46.7630 C   0  0  0  0  0  0  0  0  0  0  0  0
   56.1100   25.3540   45.9130 C   0  0  0  0  0  0  0  0  0  0  0  0
   54.9010   25.7150   45.9430 O   0  0  0  0  0  0  0  0  0  0  0  0
   56.5070   24.1900   45.0720 C   0  0  0  0  0  0  0  0  0  0  0  0
   55.8320   23.8800   43.8730 C   0  0  0  0  0  0  0  0  0  0  0  0
   56.2330   22.7900   43.0940 C   0  0  0  0  0  0  0  0  0  0  0  0
   57.3070   21.9950   43.4990 C   0  0  0  0  0  0  0  0  0  0  0  0
   57.9850   22.2890   44.6840 C   0  0  0  0  0  0  0  0  0  0  0  0
   57.5900   23.3780   45.4660 C   0  0  0  0  0  0  0  0  0  0  0  0
   56.7740   27.9520   45.1860 N   0  0  0  0  0  0  0  0  0  0  0  0
   57.0800   29.2090   44.5780 C   0  0  0  0  0  0  0  0  0  0  0  0
   56.3940   29.6090   43.4270 C   0  0  0  0  0  0  0  0  0  0  0  0
   56.6780   30.8400   42.8350 C   0  0  0  0  0  0  0  0  0  0  0  0
   57.6510   31.6750   43.3920 C   0  0  0  0  0  0  0  0  0  0  0  0
   58.3340   31.2850   44.5480 C   0  0  0  0  0  0  0  0  0  0  0  0
   58.0470   30.0480   45.1600 C   0  0  0  0  0  0  0  0  0  0  0  0
   59.4420   31.0850   50.4180 C   0  0  0  0  0  0  0  0  0  0  0  0
   58.3510   30.3100   50.8170 C   0  0  0  0  0  0  0  0  0  0  0  0
   54.7428   30.5762   53.2788 H   0  0  0  0  0  0  0  0  0  0  0  0
   54.8107   31.5044   51.7424 H   0  0  0  0  0  0  0  0  0  0  0  0
   54.2147   29.8099   51.7424 H   0  0  0  0  0  0  0  0  0  0  0  0
   56.6237   32.6652   52.5976 H   0  0  0  0  0  0  0  0  0  0  0  0
   58.5699   34.0511   51.8813 H   0  0  0  0  0  0  0  0  0  0  0  0
   62.2295   32.6907   51.8905 H   0  0  0  0  0  0  0  0  0  0  0  0
   58.8531   33.8073   48.5158 H   0  0  0  0  0  0  0  0  0  0  0  0
   59.3203   35.5384   48.7991 H   0  0  0  0  0  0  0  0  0  0  0  0
   59.3938   35.2401   46.4530 H   0  0  0  0  0  0  0  0  0  0  0  0
   61.1260   35.1675   47.0503 H   0  0  0  0  0  0  0  0  0  0  0  0
   59.3774   32.8774   46.0948 H   0  0  0  0  0  0  0  0  0  0  0  0
   60.9320   33.5307   45.3869 H   0  0  0  0  0  0  0  0  0  0  0  0
   62.2530   32.4475   46.8889 H   0  0  0  0  0  0  0  0  0  0  0  0
   60.9804   32.4953   48.1899 H   0  0  0  0  0  0  0  0  0  0  0  0
   60.8646   30.6853   45.7422 H   0  0  0  0  0  0  0  0  0  0  0  0
   61.5053   30.2021   47.3744 H   0  0  0  0  0  0  0  0  0  0  0  0
   59.4418   30.0296   48.2903 H   0  0  0  0  0  0  0  0  0  0  0  0
   58.8032   31.4425   47.3519 H   0  0  0  0  0  0  0  0  0  0  0  0
   59.5734   27.6876   46.1736 H   0  0  0  0  0  0  0  0  0  0  0  0
   58.7642   28.0348   47.7613 H   0  0  0  0  0  0  0  0  0  0  0  0
   58.0175   25.5226   46.8494 H   0  0  0  0  0  0  0  0  0  0  0  0
   56.6231   26.2875   47.7414 H   0  0  0  0  0  0  0  0  0  0  0  0
   54.9837   24.5003   43.5482 H   0  0  0  0  0  0  0  0  0  0  0  0
   55.7008   22.5583   42.1596 H   0  0  0  0  0  0  0  0  0  0  0  0
   57.6190   21.1374   42.8849 H   0  0  0  0  0  0  0  0  0  0  0  0
   58.8312   21.6625   45.0024 H   0  0  0  0  0  0  0  0  0  0  0  0
   58.1293   23.6037   46.3978 H   0  0  0  0  0  0  0  0  0  0  0  0
   55.6291   28.9519   42.9875 H   0  0  0  0  0  0  0  0  0  0  0  0
   56.1365   31.1534   41.9303 H   0  0  0  0  0  0  0  0  0  0  0  0
   57.8799   32.6416   42.9195 H   0  0  0  0  0  0  0  0  0  0  0  0
   59.0986   31.9463   44.9818 H   0  0  0  0  0  0  0  0  0  0  0  0
   60.2297   30.6404   49.7919 H   0  0  0  0  0  0  0  0  0  0  0  0
   58.2914   29.2548   50.5120 H   0  0  0  0  0  0  0  0  0  0  0  0
  1  2  1  0
  2  3  1  0
  3  4  2  0
  4  5  1  0
  5  6  2  0
  6  7  1  0
  7  8  2  0
  8  9  1  0
  9 10  2  0
 10 11  1  0
 11 12  1  0
 12 13  1  0
 13 14  1  0
 14 15  1  0
 15 16  1  0
 16 17  1  0
 17 18  1  0
 18 19  1  0
 19 20  1  0
 20 21  1  0
 21 22  1  0
 22 23  2  0
 22 24  1  0
 24 25  2  0
 25 26  1  0
 26 27  2  0
 27 28  1  0
 28 29  2  0
 20 30  2  0
 30 31  1  0
 31 32  2  0
 32 33  1  0
 33 34  2  0
 34 35  1  0
 35 36  2  0
  6 37  1  0
 37 38  2  0
 38  3  1  0
 11  7  1  0
 36 18  1  0
 29 24  1  0
 36 31  1  0
  1 39  1  0
  1 40  1  0
  1 41  1  0
  4 42  1  0
  5 43  1  0
  8 44  1  0
 12 45  1  0
 12 46  1  0
 13 47  1  0
 13 48  1  0
 14 49  1  0
 14 50  1  0
 15 51  1  0
 15 52  1  0
 16 53  1  0
 16 54  1  0
 17 55  1  0
 17 56  1  0
 19 57  1  0
 19 58  1  0
 21 59  1  0
 21 60  1  0
 25 61  1  0
 26 62  1  0
 27 63  1  0
 28 64  1  0
 29 65  1  0
 32 66  1  0
 33 67  1  0
 34 68  1  0
 35 69  1  0
 37 70  1  0
 38 71  1  0
M  END
>  <UniqueID>  (50) 
46

>  <SMILES>  (50) 
COc1ccc(-c2cnnn2CCCCCCN2CC(CC(=O)c3ccccc3)=Nc3ccccc32)cc1

>  <Energy>  (50) 
115.35934473711896

>  <Genealogy>  (50) 
COc1ccc(-c2cnnn2CCCCCCN2CC(CC(=O)c3ccccc3)=Nc3ccccc32)cc1 (3D coordinates assigned)
COc1ccc(-c2cnnn2CCCCCCN2CC(CC(=O)c3ccccc3)=Nc3ccccc32)cc1 (nonaromatic ring conformer: 115.35934473711896 kcal/mol)

>  <smiles>  (50) 
COc1ccc(-c2cnnn2CCCCCCN2CC(CC(=O)c3ccccc3)=Nc3ccccc32)cc1

>  <score_type>  (50) 
oracle

>  <origin>  (50) 
adg

>  <m_score__min__energy>  (50) 
-10.74

>  <m_primary>  (50) 
energy

$$$$
