0:0
     RDKit          3D

 47 49  0  0  0  0  0  0  0  0999 V2000
   54.6080   24.0480   45.5930 C   0  0  0  0  0  0  0  0  0  0  0  0
   55.6450   25.1000   45.7950 C   0  0  0  0  0  0  0  0  0  0  0  0
   57.0040   24.9340   45.6350 C   0  0  0  0  0  0  0  0  0  0  0  0
   57.5230   26.1560   46.0140 C   0  0  0  0  0  0  0  0  0  0  0  0
   58.9410   26.5440   46.0600 C   0  0  0  0  0  0  0  0  0  0  0  0
   59.8070   25.7370   45.6270 O   0  0  0  0  0  0  0  0  0  0  0  0
   59.3540   27.8190   46.5770 N   0  0  0  0  0  0  0  0  0  0  0  0
   60.4350   28.5440   45.9040 C   0  0  0  0  0  0  0  0  0  0  0  0
   60.2430   30.0700   46.0240 C   0  0  0  0  0  0  0  0  0  0  0  0
   59.5470   30.5080   47.2640 N   0  0  0  0  0  0  0  0  0  0  0  0
   58.1500   30.9220   47.0120 C   0  0  0  0  0  0  0  0  0  0  0  0
   57.9710   31.3060   45.5640 C   0  0  0  0  0  0  0  0  0  0  0  0
   57.2780   30.4570   44.7570 N   0  0  0  0  0  0  0  0  0  0  0  0
   57.0680   30.7160   43.4390 C   0  0  0  0  0  0  0  0  0  0  0  0
   56.2830   29.7340   42.6210 C   0  0  0  0  0  0  0  0  0  0  0  0
   57.5800   31.9050   42.8890 C   0  0  0  0  0  0  0  0  0  0  0  0
   57.3860   32.2640   41.4460 C   0  0  0  0  0  0  0  0  0  0  0  0
   58.2840   32.7490   43.6900 N   0  0  0  0  0  0  0  0  0  0  0  0
   58.5010   32.4900   45.0070 C   0  0  0  0  0  0  0  0  0  0  0  0
   59.2900   33.4810   45.8110 C   0  0  0  0  0  0  0  0  0  0  0  0
   59.6420   29.5170   48.3540 C   0  0  0  0  0  0  0  0  0  0  0  0
   59.0000   28.1800   47.9540 C   0  0  0  0  0  0  0  0  0  0  0  0
   56.5340   26.9400   46.3770 O   0  0  0  0  0  0  0  0  0  0  0  0
   55.3870   26.3370   46.2620 N   0  0  0  0  0  0  0  0  0  0  0  0
   54.2543   23.6892   46.5708 H   0  0  0  0  0  0  0  0  0  0  0  0
   53.7627   24.4698   45.0296 H   0  0  0  0  0  0  0  0  0  0  0  0
   55.0419   23.2088   45.0296 H   0  0  0  0  0  0  0  0  0  0  0  0
   57.5455   24.0415   45.2883 H   0  0  0  0  0  0  0  0  0  0  0  0
   61.3945   28.2659   46.3645 H   0  0  0  0  0  0  0  0  0  0  0  0
   60.4238   28.2745   44.8376 H   0  0  0  0  0  0  0  0  0  0  0  0
   61.2353   30.5441   46.0011 H   0  0  0  0  0  0  0  0  0  0  0  0
   59.6028   30.3722   45.1821 H   0  0  0  0  0  0  0  0  0  0  0  0
   57.4752   30.0872   47.2522 H   0  0  0  0  0  0  0  0  0  0  0  0
   57.9145   31.7907   47.6444 H   0  0  0  0  0  0  0  0  0  0  0  0
   55.7379   29.0521   43.2903 H   0  0  0  0  0  0  0  0  0  0  0  0
   55.5661   30.2756   41.9864 H   0  0  0  0  0  0  0  0  0  0  0  0
   56.9692   29.1540   41.9864 H   0  0  0  0  0  0  0  0  0  0  0  0
   56.8641   33.2297   41.3754 H   0  0  0  0  0  0  0  0  0  0  0  0
   58.3659   32.3398   40.9521 H   0  0  0  0  0  0  0  0  0  0  0  0
   56.7856   31.4858   40.9521 H   0  0  0  0  0  0  0  0  0  0  0  0
   59.1367   33.2884   46.8831 H   0  0  0  0  0  0  0  0  0  0  0  0
   60.3586   33.3812   45.5697 H   0  0  0  0  0  0  0  0  0  0  0  0
   58.9533   34.5000   45.5697 H   0  0  0  0  0  0  0  0  0  0  0  0
   60.7025   29.3476   48.5922 H   0  0  0  0  0  0  0  0  0  0  0  0
   59.1035   29.9116   49.2283 H   0  0  0  0  0  0  0  0  0  0  0  0
   59.3548   27.3924   48.6351 H   0  0  0  0  0  0  0  0  0  0  0  0
   57.9067   28.2821   48.0199 H   0  0  0  0  0  0  0  0  0  0  0  0
  1  2  1  0
  2  3  1  0
  3  4  2  0
  4  5  1  0
  5  6  2  0
  5  7  1  0
  7  8  1  0
  8  9  1  0
  9 10  1  0
 10 11  1  0
 11 12  1  0
 12 13  2  0
 13 14  1  0
 14 15  1  0
 14 16  2  0
 16 17  1  0
 16 18  1  0
 18 19  2  0
 19 20  1  0
 10 21  1  0
 21 22  1  0
  4 23  1  0
 23 24  1  0
 24  2  2  0
 22  7  1  0
 19 12  1  0
  1 25  1  0
  1 26  1  0
  1 27  1  0
  3 28  1  0
  8 29  1  0
  8 30  1  0
  9 31  1  0
  9 32  1  0
 11 33  1  0
 11 34  1  0
 15 35  1  0
 15 36  1  0
 15 37  1  0
 17 38  1  0
 17 39  1  0
 17 40  1  0
 20 41  1  0
 20 42  1  0
 20 43  1  0
 21 44  1  0
 21 45  1  0
 22 46  1  0
 22 47  1  0
M  END
>  <UniqueID>  (1) 
1

>  <SMILES>  (1) 
Cc1cc(C(=O)N2CCN(Cc3nc(C)c(C)nc3C)CC2)on1

>  <Energy>  (1) 
87.18237442631265

>  <Genealogy>  (1) 
Cc1cc(C(=O)N2CCN(Cc3nc(C)c(C)nc3C)CC2)on1 (3D coordinates assigned)
Cc1cc(C(=O)N2CCN(Cc3nc(C)c(C)nc3C)CC2)on1 (nonaromatic ring conformer: 87.18237442631265 kcal/mol)

>  <smiles>  (1) 
Cc1cc(C(=O)N2CCN(Cc3nc(C)c(C)nc3C)CC2)on1

>  <score_type>  (1) 
oracle

>  <origin>  (1) 
adg

>  <m_score__min__energy>  (1) 
-8.1699999999999999

>  <m_primary>  (1) 
energy

$$$$
1:0
     RDKit          3D

 49 52  0  0  0  0  0  0  0  0999 V2000
   55.9020   24.8780   46.2770 C   0  0  0  0  0  0  0  0  0  0  0  0
   56.9560   25.9370   46.2200 C   0  0  0  0  0  0  0  0  0  0  0  0
   57.9970   25.9500   47.1500 C   0  0  0  0  0  0  0  0  0  0  0  0
   58.9610   26.9540   47.0820 C   0  0  0  0  0  0  0  0  0  0  0  0
   58.8990   27.9430   46.0870 C   0  0  0  0  0  0  0  0  0  0  0  0
   57.8100   27.9100   45.1850 C   0  0  0  0  0  0  0  0  0  0  0  0
   56.8870   26.9120   45.2770 N   0  0  0  0  0  0  0  0  0  0  0  0
   57.6410   28.9330   44.1040 C   0  0  0  0  0  0  0  0  0  0  0  0
   57.2780   30.3150   44.6800 C   0  0  0  0  0  0  0  0  0  0  0  0
   58.1710   30.7910   45.7640 N   0  0  0  0  0  0  0  0  0  0  0  0
   57.8900   32.1720   46.2160 C   0  0  0  0  0  0  0  0  0  0  0  0
   59.1510   32.9050   46.5730 C   0  0  0  0  0  0  0  0  0  0  0  0
   60.0190   32.5100   47.5200 N   0  0  0  0  0  0  0  0  0  0  0  0
   60.9700   33.4720   47.5350 C   0  0  0  0  0  0  0  0  0  0  0  0
   62.1530   33.4870   48.4270 C   0  0  0  0  0  0  0  0  0  0  0  0
   63.3620   32.8640   48.0610 C   0  0  0  0  0  0  0  0  0  0  0  0
   64.4610   32.8940   48.9250 C   0  0  0  0  0  0  0  0  0  0  0  0
   64.3680   33.5400   50.1580 C   0  0  0  0  0  0  0  0  0  0  0  0
   63.1750   34.1610   50.5320 C   0  0  0  0  0  0  0  0  0  0  0  0
   62.0720   34.1350   49.6730 C   0  0  0  0  0  0  0  0  0  0  0  0
   60.7190   34.4170   46.6500 O   0  0  0  0  0  0  0  0  0  0  0  0
   59.6020   34.0940   46.0400 C   0  0  0  0  0  0  0  0  0  0  0  0
   58.9480   34.9150   44.9780 C   0  0  0  0  0  0  0  0  0  0  0  0
   59.5980   30.4300   45.6010 C   0  0  0  0  0  0  0  0  0  0  0  0
   59.9840   29.0060   46.0710 C   0  0  0  0  0  0  0  0  0  0  0  0
   55.6714   24.6463   47.3273 H   0  0  0  0  0  0  0  0  0  0  0  0
   54.9930   25.2379   45.7728 H   0  0  0  0  0  0  0  0  0  0  0  0
   56.2662   23.9707   45.7728 H   0  0  0  0  0  0  0  0  0  0  0  0
   58.0558   25.1754   47.9288 H   0  0  0  0  0  0  0  0  0  0  0  0
   59.7799   26.9720   47.8162 H   0  0  0  0  0  0  0  0  0  0  0  0
   58.5829   29.0171   43.5421 H   0  0  0  0  0  0  0  0  0  0  0  0
   56.8194   28.6076   43.4490 H   0  0  0  0  0  0  0  0  0  0  0  0
   57.3143   31.0476   43.8603 H   0  0  0  0  0  0  0  0  0  0  0  0
   56.2777   30.2116   45.1258 H   0  0  0  0  0  0  0  0  0  0  0  0
   57.3784   32.7149   45.4076 H   0  0  0  0  0  0  0  0  0  0  0  0
   57.2579   32.1176   47.1146 H   0  0  0  0  0  0  0  0  0  0  0  0
   59.9490   31.6500   48.1060 H   0  0  0  0  0  0  0  0  0  0  0  0
   63.4420   32.3515   47.0910 H   0  0  0  0  0  0  0  0  0  0  0  0
   65.4023   32.4065   48.6314 H   0  0  0  0  0  0  0  0  0  0  0  0
   65.2345   33.5600   50.8353 H   0  0  0  0  0  0  0  0  0  0  0  0
   63.1026   34.6714   51.5037 H   0  0  0  0  0  0  0  0  0  0  0  0
   61.1341   34.6248   49.9737 H   0  0  0  0  0  0  0  0  0  0  0  0
   58.3278   35.6935   45.4462 H   0  0  0  0  0  0  0  0  0  0  0  0
   59.7197   35.3877   44.3527 H   0  0  0  0  0  0  0  0  0  0  0  0
   58.3147   34.2685   44.3527 H   0  0  0  0  0  0  0  0  0  0  0  0
   59.8488   30.5139   44.5333 H   0  0  0  0  0  0  0  0  0  0  0  0
   60.1599   31.1228   46.2447 H   0  0  0  0  0  0  0  0  0  0  0  0
   60.7837   28.6475   45.4063 H   0  0  0  0  0  0  0  0  0  0  0  0
   60.2626   29.1310   47.1278 H   0  0  0  0  0  0  0  0  0  0  0  0
  1  2  1  0
  2  3  2  0
  3  4  1  0
  4  5  2  0
  5  6  1  0
  6  7  2  0
  6  8  1  0
  8  9  1  0
  9 10  1  0
 10 11  1  0
 11 12  1  0
 12 13  1  0
 13 14  2  0
 14 15  1  0
 15 16  2  0
 16 17  1  0
 17 18  2  0
 18 19  1  0
 19 20  2  0
 14 21  1  0
 21 22  1  0
 22 23  1  0
 10 24  1  0
 24 25  1  0
  7  2  1  0
 22 12  2  0
 25  5  1  0
 20 15  1  0
  1 26  1  0
  1 27  1  0
  1 28  1  0
  3 29  1  0
  4 30  1  0
  8 31  1  0
  8 32  1  0
  9 33  1  0
  9 34  1  0
 11 35  1  0
 11 36  1  0
 13 37  1  0
 16 38  1  0
 17 39  1  0
 18 40  1  0
 19 41  1  0
 20 42  1  0
 23 43  1  0
 23 44  1  0
 23 45  1  0
 24 46  1  0
 24 47  1  0
 25 48  1  0
 25 49  1  0
M  CHG  1  13   1
M  END
>  <UniqueID>  (2) 
2

>  <SMILES>  (2) 
Cc1ccc2c(n1)CCN(Cc1[nH+]c(-c3ccccc3)oc1C)CC2

>  <Energy>  (2) 
98.16308056545367

>  <Genealogy>  (2) 
Cc1ccc2c(n1)CCN(Cc1[nH+]c(-c3ccccc3)oc1C)CC2 (protonated)
Cc1ccc2c(n1)CCN(Cc1[nH+]c(-c3ccccc3)oc1C)CC2 (3D coordinates assigned)
Cc1ccc2c(n1)CCN(Cc1[nH+]c(-c3ccccc3)oc1C)CC2 (nonaromatic ring conformer: 98.16308056545367 kcal/mol)

>  <smiles>  (2) 
Cc1ccc2c(n1)CCN(Cc1nc(-c3ccccc3)oc1C)CC2

>  <score_type>  (2) 
oracle

>  <origin>  (2) 
adg

>  <m_score__min__energy>  (2) 
-5.1399999999999997

>  <m_primary>  (2) 
energy

$$$$
2:0
     RDKit          3D

 43 45  0  0  0  0  0  0  0  0999 V2000
   65.8670   32.9720   50.7870 C   0  0  0  0  0  0  0  0  0  0  0  0
   64.6210   32.9570   49.9590 C   0  0  0  0  0  0  0  0  0  0  0  0
   63.3700   32.8050   50.5660 C   0  0  0  0  0  0  0  0  0  0  0  0
   62.2050   32.8190   49.7840 C   0  0  0  0  0  0  0  0  0  0  0  0
   60.8900   32.7200   50.4620 C   0  0  0  0  0  0  0  0  0  0  0  0
   60.3330   33.8400   51.1010 C   0  0  0  0  0  0  0  0  0  0  0  0
   59.0990   33.7410   51.7430 C   0  0  0  0  0  0  0  0  0  0  0  0
   58.4070   32.5270   51.7550 C   0  0  0  0  0  0  0  0  0  0  0  0
   58.9400   31.4000   51.1070 C   0  0  0  0  0  0  0  0  0  0  0  0
   58.2200   30.0760   51.1610 C   0  0  0  0  0  0  0  0  0  0  0  0
   58.8960   29.2250   52.0160 F   0  0  0  0  0  0  0  0  0  0  0  0
   56.9240   30.2390   51.6190 F   0  0  0  0  0  0  0  0  0  0  0  0
   58.1630   29.5000   49.9040 F   0  0  0  0  0  0  0  0  0  0  0  0
   60.1970   31.4990   50.4850 C   0  0  0  0  0  0  0  0  0  0  0  0
   62.3210   32.9710   48.3790 C   0  0  0  0  0  0  0  0  0  0  0  0
   61.1450   32.9180   47.4770 C   0  0  0  0  0  0  0  0  0  0  0  0
   60.5650   34.1060   47.0000 C   0  0  0  0  0  0  0  0  0  0  0  0
   59.4510   34.0580   46.1570 C   0  0  0  0  0  0  0  0  0  0  0  0
   58.9050   32.8250   45.7780 C   0  0  0  0  0  0  0  0  0  0  0  0
   57.5100   32.7660   44.7060 S   0  0  0  0  0  0  0  0  0  0  0  0
   58.0650   32.6700   43.0200 C   0  0  0  0  0  0  0  0  0  0  0  0
   56.6710   31.5620   45.0290 O   0  0  0  0  0  0  0  0  0  0  0  0
   56.6720   34.0010   44.8910 O   0  0  0  0  0  0  0  0  0  0  0  0
   59.4930   31.6380   46.2340 C   0  0  0  0  0  0  0  0  0  0  0  0
   60.6070   31.6830   47.0760 C   0  0  0  0  0  0  0  0  0  0  0  0
   63.5980   33.1400   47.8230 C   0  0  0  0  0  0  0  0  0  0  0  0
   64.7020   33.1290   48.6140 N   0  0  0  0  0  0  0  0  0  0  0  0
   65.5984   32.9688   51.8537 H   0  0  0  0  0  0  0  0  0  0  0  0
   66.4701   32.0811   50.5580 H   0  0  0  0  0  0  0  0  0  0  0  0
   66.4485   33.8772   50.5580 H   0  0  0  0  0  0  0  0  0  0  0  0
   63.2995   32.6745   51.6560 H   0  0  0  0  0  0  0  0  0  0  0  0
   60.8722   34.7988   51.0950 H   0  0  0  0  0  0  0  0  0  0  0  0
   58.6687   34.6219   52.2419 H   0  0  0  0  0  0  0  0  0  0  0  0
   57.4401   32.4533   52.2744 H   0  0  0  0  0  0  0  0  0  0  0  0
   60.6419   30.6113   50.0118 H   0  0  0  0  0  0  0  0  0  0  0  0
   60.9896   35.0780   47.2914 H   0  0  0  0  0  0  0  0  0  0  0  0
   59.0013   34.9923   45.7898 H   0  0  0  0  0  0  0  0  0  0  0  0
   59.1487   32.4825   43.0008 H   0  0  0  0  0  0  0  0  0  0  0  0
   57.5418   31.8490   42.5079 H   0  0  0  0  0  0  0  0  0  0  0  0
   57.8479   33.6190   42.5079 H   0  0  0  0  0  0  0  0  0  0  0  0
   59.0761   30.6671   45.9280 H   0  0  0  0  0  0  0  0  0  0  0  0
   61.0655   30.7468   47.4270 H   0  0  0  0  0  0  0  0  0  0  0  0
   63.7059   33.2826   46.7376 H   0  0  0  0  0  0  0  0  0  0  0  0
  1  2  1  0
  2  3  2  0
  3  4  1  0
  4  5  1  0
  5  6  2  0
  6  7  1  0
  7  8  2  0
  8  9  1  0
  9 10  1  0
 10 11  1  0
 10 12  1  0
 10 13  1  0
  9 14  2  0
  4 15  2  0
 15 16  1  0
 16 17  2  0
 17 18  1  0
 18 19  2  0
 19 20  1  0
 20 21  1  0
 20 22  2  0
 20 23  2  0
 19 24  1  0
 24 25  2  0
 15 26  1  0
 26 27  2  0
 27  2  1  0
 14  5  1  0
 25 16  1  0
  1 28  1  0
  1 29  1  0
  1 30  1  0
  3 31  1  0
  6 32  1  0
  7 33  1  0
  8 34  1  0
 14 35  1  0
 17 36  1  0
 18 37  1  0
 21 38  1  0
 21 39  1  0
 21 40  1  0
 24 41  1  0
 25 42  1  0
 26 43  1  0
M  END
>  <UniqueID>  (3) 
3

>  <SMILES>  (3) 
Cc1cc(-c2cccc(C(F)(F)F)c2)c(-c2ccc(S(C)(=O)=O)cc2)cn1

>  <Energy>  (3) 
55.05146777810057

>  <Genealogy>  (3) 
Cc1cc(-c2cccc(C(F)(F)F)c2)c(-c2ccc(S(C)(=O)=O)cc2)cn1 (3D coordinates assigned)
Cc1cc(-c2cccc(C(F)(F)F)c2)c(-c2ccc(S(C)(=O)=O)cc2)cn1 (optimized conformer: 55.05146777810057 kcal/mol)

>  <smiles>  (3) 
Cc1cc(-c2cccc(C(F)(F)F)c2)c(-c2ccc(S(C)(=O)=O)cc2)cn1

>  <score_type>  (3) 
oracle

>  <origin>  (3) 
adg

>  <m_score__min__energy>  (3) 
-7.7999999999999998

>  <m_primary>  (3) 
energy

$$$$
3:0
     RDKit          3D

 37 40  0  0  0  0  0  0  0  0999 V2000
   56.1000   28.7770   44.0430 H   0  0  0  0  0  0  0  0  0  0  0  0
   55.7950   28.5720   44.9860 O   0  0  0  0  0  0  0  0  0  0  0  0
   56.2170   27.4270   45.6580 C   0  0  0  0  0  0  0  0  0  0  0  0
   55.4030   26.3930   45.9260 N   0  0  0  0  0  0  0  0  0  0  0  0
   56.1960   25.5650   46.6390 C   0  0  0  0  0  0  0  0  0  0  0  0
   55.7920   24.4630   47.0920 O   0  0  0  0  0  0  0  0  0  0  0  0
   57.4540   26.0150   46.8360 N   0  0  0  0  0  0  0  0  0  0  0  0
   57.4690   27.1930   46.1900 C   0  0  0  0  0  0  0  0  0  0  0  0
   58.6460   28.0760   46.1550 C   0  0  0  0  0  0  0  0  0  0  0  0
   59.6303   27.6252   45.9603 H   0  0  0  0  0  0  0  0  0  0  0  0
   58.5810   29.4010   46.3480 C   0  0  0  0  0  0  0  0  0  0  0  0
   58.8730   30.1410   47.4970 C   0  0  0  0  0  0  0  0  0  0  0  0
   59.2402   29.7190   48.4442 H   0  0  0  0  0  0  0  0  0  0  0  0
   58.6360   31.4580   47.2700 N   0  0  0  0  0  0  0  0  0  0  0  0
   58.2040   31.5550   46.0220 N   0  0  0  0  0  0  0  0  0  0  0  0
   57.8370   32.6730   45.3520 C   0  0  0  0  0  0  0  0  0  0  0  0
   57.8930   33.8370   45.9260 N   0  0  0  0  0  0  0  0  0  0  0  0
   59.0910   34.6700   45.9360 C   0  0  0  0  0  0  0  0  0  0  0  0
   58.7123   35.4820   45.2978 H   0  0  0  0  0  0  0  0  0  0  0  0
   60.3840   33.8790   46.0050 C   0  0  0  0  0  0  0  0  0  0  0  0
   60.3612   32.7807   45.9475 H   0  0  0  0  0  0  0  0  0  0  0  0
   61.3330   33.8877   45.4488 H   0  0  0  0  0  0  0  0  0  0  0  0
   59.8540   34.5880   47.2430 C   0  0  0  0  0  0  0  0  0  0  0  0
   59.4483   34.0023   48.0811 H   0  0  0  0  0  0  0  0  0  0  0  0
   60.2614   35.3222   47.9536 H   0  0  0  0  0  0  0  0  0  0  0  0
   57.4140   32.5350   44.0610 N   0  0  0  0  0  0  0  0  0  0  0  0
   57.3630   31.3020   43.4710 C   0  0  0  0  0  0  0  0  0  0  0  0
   56.9220   31.1990   42.1470 O   0  0  0  0  0  0  0  0  0  0  0  0
   57.0800   32.2350   41.1800 C   0  0  0  0  0  0  0  0  0  0  0  0
   56.4317   33.0819   41.4492 H   0  0  0  0  0  0  0  0  0  0  0  0
   56.8027   31.8405   40.1913 H   0  0  0  0  0  0  0  0  0  0  0  0
   58.5280   32.7100   41.1290 C   0  0  0  0  0  0  0  0  0  0  0  0
   58.9092   32.8350   42.1532 H   0  0  0  0  0  0  0  0  0  0  0  0
   59.1397   31.9654   40.5985 H   0  0  0  0  0  0  0  0  0  0  0  0
   58.5798   33.6722   40.5985 H   0  0  0  0  0  0  0  0  0  0  0  0
   57.7370   30.1900   44.1730 N   0  0  0  0  0  0  0  0  0  0  0  0
   58.1540   30.3510   45.4500 C   0  0  0  0  0  0  0  0  0  0  0  0
  1  2  1  0
  2  3  1  0
  3  4  1  0
  4  5  1  0
  5  6  2  0
  5  7  1  0
  7  8  1  0
  8  9  1  0
  9 10  1  0
  9 11  2  0
 11 12  1  0
 12 13  1  0
 12 14  2  0
 14 15  1  0
 15 16  1  0
 16 17  2  3
 17 18  1  0
 18 19  1  0
 18 20  1  0
 20 21  1  0
 20 22  1  0
 20 23  1  0
 23 24  1  0
 23 25  1  0
 16 26  1  0
 26 27  2  0
 27 28  1  0
 28 29  1  0
 29 30  1  0
 29 31  1  0
 29 32  1  0
 32 33  1  0
 32 34  1  0
 32 35  1  0
 27 36  1  0
 36 37  2  0
  8  3  2  0
 37 11  1  0
 37 15  1  0
 23 18  1  0
M  CHG  2   4  -1   7  -1
M  END
>  <UniqueID>  (4) 
4

>  <SMILES>  (4) 
CCOc1nc(=NC2CC2)n2nc/c(=C\c3[n-]c(=O)[n-]c3O)c2n1

>  <Energy>  (4) 
374.1030004932635

>  <Genealogy>  (4) 
CCOc1nc(=NC2CC2)n2ncc(=Cc3[n-]c(=O)[n-]c3O)c2n1 (protonated)
CCOc1nc(=NC2CC2)n2nc/c(=C\c3[n-]c(=O)[n-]c3O)c2n1 (cis-trans isomerization)
CCOc1nc(=NC2CC2)n2nc/c(=C\c3[n-]c(=O)[n-]c3O)c2n1 (3D coordinates assigned)
CCOc1nc(=NC2CC2)n2nc/c(=C\c3[n-]c(=O)[n-]c3O)c2n1 (nonaromatic ring conformer: 374.1030004932635 kcal/mol)

>  <smiles>  (4) 
CCOc1nc(=NC2CC2)n2ncc(=Cc3[nH]c(=O)[nH]c3O)c2n1

>  <score_type>  (4) 
oracle

>  <origin>  (4) 
adg

>  <m_score__min__energy>  (4) 
-11.470000000000001

>  <m_primary>  (4) 
energy

$$$$
4:0
     RDKit          3D

 50 52  0  0  0  0  0  0  0  0999 V2000
   58.1340   26.7160   42.5940 C   0  0  0  0  0  0  0  0  0  0  0  0
   57.7630   27.8970   43.2980 O   0  0  0  0  0  0  0  0  0  0  0  0
   58.3260   28.3060   44.5170 C   0  0  0  0  0  0  0  0  0  0  0  0
   59.5830   27.8460   44.9500 C   0  0  0  0  0  0  0  0  0  0  0  0
   60.1120   28.2760   46.1680 C   0  0  0  0  0  0  0  0  0  0  0  0
   59.4020   29.1740   46.9790 C   0  0  0  0  0  0  0  0  0  0  0  0
   59.9690   29.6270   48.2770 C   0  0  0  0  0  0  0  0  0  0  0  0
   60.4840   28.6930   49.1920 C   0  0  0  0  0  0  0  0  0  0  0  0
   61.0520   29.1350   50.3860 C   0  0  0  0  0  0  0  0  0  0  0  0
   61.1020   30.4980   50.6670 C   0  0  0  0  0  0  0  0  0  0  0  0
   60.5580   31.4070   49.7560 C   0  0  0  0  0  0  0  0  0  0  0  0
   60.6400   33.1690   50.0960 S   0  0  0  0  0  0  0  0  0  0  0  0
   60.3320   33.6420   48.3830 C   0  0  0  0  0  0  0  0  0  0  0  0
   59.0530   34.1240   48.0700 C   0  0  0  0  0  0  0  0  0  0  0  0
   58.7420   34.5270   46.7720 C   0  0  0  0  0  0  0  0  0  0  0  0
   59.7100   34.4650   45.7730 C   0  0  0  0  0  0  0  0  0  0  0  0
   60.9930   34.0010   46.0680 C   0  0  0  0  0  0  0  0  0  0  0  0
   61.3280   33.5790   47.3730 C   0  0  0  0  0  0  0  0  0  0  0  0
   62.7450   33.0960   47.6570 C   0  0  0  0  0  0  0  0  0  0  0  0
   63.7630   33.8440   46.7880 C   0  0  0  0  0  0  0  0  0  0  0  0
   62.8640   31.5790   47.4600 C   0  0  0  0  0  0  0  0  0  0  0  0
   60.0110   30.9590   48.5890 N   0  0  0  0  0  0  0  0  0  0  0  0
   58.1430   29.6290   46.5490 C   0  0  0  0  0  0  0  0  0  0  0  0
   57.6020   29.2000   45.3200 C   0  0  0  0  0  0  0  0  0  0  0  0
   56.3480   29.6360   44.8650 O   0  0  0  0  0  0  0  0  0  0  0  0
   56.1200   30.2770   43.6140 C   0  0  0  0  0  0  0  0  0  0  0  0
   58.3832   25.9228   43.3142 H   0  0  0  0  0  0  0  0  0  0  0  0
   57.2958   26.3873   41.9620 H   0  0  0  0  0  0  0  0  0  0  0  0
   59.0096   26.9257   41.9620 H   0  0  0  0  0  0  0  0  0  0  0  0
   60.1527   27.1429   44.3246 H   0  0  0  0  0  0  0  0  0  0  0  0
   61.0953   27.9071   46.4952 H   0  0  0  0  0  0  0  0  0  0  0  0
   60.4391   27.6172   48.9670 H   0  0  0  0  0  0  0  0  0  0  0  0
   61.4597   28.4087   51.1045 H   0  0  0  0  0  0  0  0  0  0  0  0
   61.5657   30.8559   51.5981 H   0  0  0  0  0  0  0  0  0  0  0  0
   58.2868   34.1848   48.8569 H   0  0  0  0  0  0  0  0  0  0  0  0
   57.7319   34.8939   46.5371 H   0  0  0  0  0  0  0  0  0  0  0  0
   59.4631   34.7824   44.7491 H   0  0  0  0  0  0  0  0  0  0  0  0
   61.7528   33.9637   45.2735 H   0  0  0  0  0  0  0  0  0  0  0  0
   62.9703   33.3158   48.7110 H   0  0  0  0  0  0  0  0  0  0  0  0
   64.4801   34.3709   47.4346 H   0  0  0  0  0  0  0  0  0  0  0  0
   64.3014   33.1251   46.1530 H   0  0  0  0  0  0  0  0  0  0  0  0
   63.2378   34.5726   46.1530 H   0  0  0  0  0  0  0  0  0  0  0  0
   62.9028   31.0837   48.4414 H   0  0  0  0  0  0  0  0  0  0  0  0
   61.9918   31.2126   46.8987 H   0  0  0  0  0  0  0  0  0  0  0  0
   63.7826   31.3531   46.8987 H   0  0  0  0  0  0  0  0  0  0  0  0
   59.6580   31.6630   47.9040 H   0  0  0  0  0  0  0  0  0  0  0  0
   57.5735   30.3280   47.1791 H   0  0  0  0  0  0  0  0  0  0  0  0
   55.7560   31.3004   43.7874 H   0  0  0  0  0  0  0  0  0  0  0  0
   57.0602   30.3138   43.0441 H   0  0  0  0  0  0  0  0  0  0  0  0
   55.3677   29.7119   43.0441 H   0  0  0  0  0  0  0  0  0  0  0  0
  1  2  1  0
  2  3  1  0
  3  4  2  0
  4  5  1  0
  5  6  2  0
  6  7  1  0
  7  8  2  0
  8  9  1  0
  9 10  2  0
 10 11  1  0
 11 12  1  0
 12 13  1  0
 13 14  2  0
 14 15  1  0
 15 16  2  0
 16 17  1  0
 17 18  2  0
 18 19  1  0
 19 20  1  0
 19 21  1  0
 11 22  2  0
  6 23  1  0
 23 24  2  0
 24 25  1  0
 25 26  1  0
 24  3  1  0
 22  7  1  0
 18 13  1  0
  1 27  1  0
  1 28  1  0
  1 29  1  0
  4 30  1  0
  5 31  1  0
  8 32  1  0
  9 33  1  0
 10 34  1  0
 14 35  1  0
 15 36  1  0
 16 37  1  0
 17 38  1  0
 19 39  1  0
 20 40  1  0
 20 41  1  0
 20 42  1  0
 21 43  1  0
 21 44  1  0
 21 45  1  0
 22 46  1  0
 23 47  1  0
 26 48  1  0
 26 49  1  0
 26 50  1  0
M  CHG  1  22   1
M  END
>  <UniqueID>  (5) 
5

>  <SMILES>  (5) 
COc1ccc(-c2cccc(Sc3ccccc3C(C)C)[nH+]2)cc1OC

>  <Energy>  (5) 
49.57595849007902

>  <Genealogy>  (5) 
COc1ccc(-c2cccc(Sc3ccccc3C(C)C)[nH+]2)cc1OC (protonated)
COc1ccc(-c2cccc(Sc3ccccc3C(C)C)[nH+]2)cc1OC (3D coordinates assigned)
COc1ccc(-c2cccc(Sc3ccccc3C(C)C)[nH+]2)cc1OC (optimized conformer: 49.57595849007902 kcal/mol)

>  <smiles>  (5) 
COc1ccc(-c2cccc(Sc3ccccc3C(C)C)n2)cc1OC

>  <score_type>  (5) 
oracle

>  <origin>  (5) 
adg

>  <m_score__min__energy>  (5) 
-6.7199999999999998

>  <m_primary>  (5) 
energy

$$$$
5:0
     RDKit          3D

 37 40  0  0  0  0  0  0  0  0999 V2000
   62.8470   33.0660   46.8460 C   0  0  0  0  0  0  0  0  0  0  0  0
   61.8490   32.1520   47.4700 C   0  0  0  0  0  0  0  0  0  0  0  0
   61.0330   31.3360   46.7510 N   0  0  0  0  0  0  0  0  0  0  0  0
   60.2970   30.7750   47.7280 C   0  0  0  0  0  0  0  0  0  0  0  0
   59.2870   29.8120   47.5960 C   0  0  0  0  0  0  0  0  0  0  0  0
   58.8560   29.2770   46.2830 C   0  0  0  0  0  0  0  0  0  0  0  0
   59.3890   28.0670   45.8030 C   0  0  0  0  0  0  0  0  0  0  0  0
   59.0030   27.5650   44.5590 C   0  0  0  0  0  0  0  0  0  0  0  0
   58.0910   28.2690   43.7730 C   0  0  0  0  0  0  0  0  0  0  0  0
   57.5580   29.4750   44.2310 C   0  0  0  0  0  0  0  0  0  0  0  0
   57.9210   29.9830   45.4930 C   0  0  0  0  0  0  0  0  0  0  0  0
   57.3940   31.1950   45.9630 O   0  0  0  0  0  0  0  0  0  0  0  0
   58.0480   32.4360   45.9290 C   0  0  0  0  0  0  0  0  0  0  0  0
   58.2000   33.1500   47.1240 C   0  0  0  0  0  0  0  0  0  0  0  0
   58.8320   34.3970   47.1290 C   0  0  0  0  0  0  0  0  0  0  0  0
   59.3060   34.9450   45.9340 C   0  0  0  0  0  0  0  0  0  0  0  0
   59.1430   34.2490   44.7330 C   0  0  0  0  0  0  0  0  0  0  0  0
   58.5110   33.0020   44.7260 C   0  0  0  0  0  0  0  0  0  0  0  0
   58.7010   29.3610   48.7480 N   0  0  0  0  0  0  0  0  0  0  0  0
   59.0650   29.8270   49.9820 C   0  0  0  0  0  0  0  0  0  0  0  0
   60.0730   30.7950   50.0860 C   0  0  0  0  0  0  0  0  0  0  0  0
   60.6480   31.2230   48.9360 N   0  0  0  0  0  0  0  0  0  0  0  0
   61.6200   32.1010   48.8040 N   0  0  0  0  0  0  0  0  0  0  0  0
   63.4128   33.5842   47.6343 H   0  0  0  0  0  0  0  0  0  0  0  0
   63.5390   32.4819   46.2216 H   0  0  0  0  0  0  0  0  0  0  0  0
   62.3258   33.8066   46.2216 H   0  0  0  0  0  0  0  0  0  0  0  0
   60.1163   27.5115   46.4133 H   0  0  0  0  0  0  0  0  0  0  0  0
   59.4188   26.6127   44.1981 H   0  0  0  0  0  0  0  0  0  0  0  0
   57.7915   27.8735   42.7912 H   0  0  0  0  0  0  0  0  0  0  0  0
   56.8491   30.0327   43.6013 H   0  0  0  0  0  0  0  0  0  0  0  0
   57.8195   32.7268   48.0653 H   0  0  0  0  0  0  0  0  0  0  0  0
   58.9562   34.9469   48.0736 H   0  0  0  0  0  0  0  0  0  0  0  0
   59.8074   35.9241   45.9386 H   0  0  0  0  0  0  0  0  0  0  0  0
   59.5124   34.6829   43.7921 H   0  0  0  0  0  0  0  0  0  0  0  0
   58.3751   32.4614   43.7777 H   0  0  0  0  0  0  0  0  0  0  0  0
   58.5696   29.4443   50.8865 H   0  0  0  0  0  0  0  0  0  0  0  0
   60.3853   31.1920   51.0632 H   0  0  0  0  0  0  0  0  0  0  0  0
  1  2  1  0
  2  3  1  0
  3  4  2  0
  4  5  1  0
  5  6  1  0
  6  7  2  0
  7  8  1  0
  8  9  2  0
  9 10  1  0
 10 11  2  0
 11 12  1  0
 12 13  1  0
 13 14  2  0
 14 15  1  0
 15 16  2  0
 16 17  1  0
 17 18  2  0
  5 19  2  0
 19 20  1  0
 20 21  2  0
 21 22  1  0
 22 23  1  0
 23  2  2  0
 22  4  1  0
 11  6  1  0
 18 13  1  0
  1 24  1  0
  1 25  1  0
  1 26  1  0
  7 27  1  0
  8 28  1  0
  9 29  1  0
 10 30  1  0
 14 31  1  0
 15 32  1  0
 16 33  1  0
 17 34  1  0
 18 35  1  0
 20 36  1  0
 21 37  1  0
M  END
>  <UniqueID>  (6) 
6

>  <SMILES>  (6) 
Cc1nc2c(-c3ccccc3Oc3ccccc3)nccn2n1

>  <Energy>  (6) 
92.30762170084431

>  <Genealogy>  (6) 
Cc1nc2c(-c3ccccc3Oc3ccccc3)nccn2n1 (3D coordinates assigned)
Cc1nc2c(-c3ccccc3Oc3ccccc3)nccn2n1 (optimized conformer: 92.30762170084431 kcal/mol)

>  <smiles>  (6) 
Cc1nc2c(-c3ccccc3Oc3ccccc3)nccn2n1

>  <score_type>  (6) 
oracle

>  <origin>  (6) 
adg

>  <m_score__min__energy>  (6) 
-6.8700000000000001

>  <m_primary>  (6) 
energy

$$$$
6:0
     RDKit          3D

 44 46  0  0  0  0  0  0  0  0999 V2000
   57.3160   27.8110   45.7980 C   0  0  0  0  0  0  0  0  0  0  0  0
   56.6180   29.0210   45.5230 O   0  0  0  0  0  0  0  0  0  0  0  0
   56.9650   29.9360   44.5150 C   0  0  0  0  0  0  0  0  0  0  0  0
   56.3100   29.9340   43.2660 C   0  0  0  0  0  0  0  0  0  0  0  0
   56.6440   30.8730   42.2880 C   0  0  0  0  0  0  0  0  0  0  0  0
   57.6310   31.8230   42.5410 C   0  0  0  0  0  0  0  0  0  0  0  0
   58.2930   31.8360   43.7700 C   0  0  0  0  0  0  0  0  0  0  0  0
   57.9770   30.8930   44.7650 C   0  0  0  0  0  0  0  0  0  0  0  0
   58.7100   30.9250   46.0540 C   0  0  0  0  0  0  0  0  0  0  0  0
   58.2490   31.4910   47.2420 C   0  0  0  0  0  0  0  0  0  0  0  0
   59.1590   31.3920   48.3000 C   0  0  0  0  0  0  0  0  0  0  0  0
   60.3440   30.7600   47.9470 C   0  0  0  0  0  0  0  0  0  0  0  0
   61.4850   30.4570   48.8710 C   0  0  0  0  0  0  0  0  0  0  0  0
   62.3830   31.6140   49.0410 N   0  0  0  0  0  0  0  0  0  0  0  0
   63.1830   31.9200   47.8320 C   0  0  0  0  0  0  0  0  0  0  0  0
   63.0660   33.3860   47.3790 C   0  0  0  0  0  0  0  0  0  0  0  0
   61.6330   33.8260   47.2540 C   0  0  0  0  0  0  0  0  0  0  0  0
   61.0060   33.8920   46.0000 C   0  0  0  0  0  0  0  0  0  0  0  0
   59.6790   34.3190   45.9200 C   0  0  0  0  0  0  0  0  0  0  0  0
   58.9920   34.6750   47.0810 C   0  0  0  0  0  0  0  0  0  0  0  0
   59.6460   34.5980   48.3120 C   0  0  0  0  0  0  0  0  0  0  0  0
   60.9390   34.1810   48.3720 N   0  0  0  0  0  0  0  0  0  0  0  0
   60.2620   30.3210   46.3270 S   0  0  0  0  0  0  0  0  0  0  0  0
   57.3957   27.6729   46.8864 H   0  0  0  0  0  0  0  0  0  0  0  0
   56.7678   26.9638   45.3600 H   0  0  0  0  0  0  0  0  0  0  0  0
   58.3238   27.8614   45.3600 H   0  0  0  0  0  0  0  0  0  0  0  0
   55.5296   29.1865   43.0606 H   0  0  0  0  0  0  0  0  0  0  0  0
   56.1273   30.8626   41.3169 H   0  0  0  0  0  0  0  0  0  0  0  0
   57.8893   32.5645   41.7707 H   0  0  0  0  0  0  0  0  0  0  0  0
   59.0694   32.5911   43.9623 H   0  0  0  0  0  0  0  0  0  0  0  0
   57.2634   31.9699   47.3382 H   0  0  0  0  0  0  0  0  0  0  0  0
   58.9561   31.7764   49.3105 H   0  0  0  0  0  0  0  0  0  0  0  0
   61.0801   30.1748   49.8540 H   0  0  0  0  0  0  0  0  0  0  0  0
   62.0696   29.6363   48.4297 H   0  0  0  0  0  0  0  0  0  0  0  0
   62.9860   31.4750   49.8840 H   0  0  0  0  0  0  0  0  0  0  0  0
   61.7770   32.4440   49.2410 H   0  0  0  0  0  0  0  0  0  0  0  0
   64.2397   31.7050   48.0491 H   0  0  0  0  0  0  0  0  0  0  0  0
   62.7917   31.2948   47.0159 H   0  0  0  0  0  0  0  0  0  0  0  0
   63.5709   34.0268   48.1169 H   0  0  0  0  0  0  0  0  0  0  0  0
   63.5352   33.4732   46.3879 H   0  0  0  0  0  0  0  0  0  0  0  0
   61.5546   33.6101   45.0892 H   0  0  0  0  0  0  0  0  0  0  0  0
   59.1761   34.3746   44.9433 H   0  0  0  0  0  0  0  0  0  0  0  0
   57.9465   35.0126   47.0270 H   0  0  0  0  0  0  0  0  0  0  0  0
   59.1148   34.8750   49.2345 H   0  0  0  0  0  0  0  0  0  0  0  0
  1  2  1  0
  2  3  1  0
  3  4  2  0
  4  5  1  0
  5  6  2  0
  6  7  1  0
  7  8  2  0
  8  9  1  0
  9 10  2  0
 10 11  1  0
 11 12  2  0
 12 13  1  0
 13 14  1  0
 14 15  1  0
 15 16  1  0
 16 17  1  0
 17 18  2  0
 18 19  1  0
 19 20  2  0
 20 21  1  0
 21 22  2  0
 12 23  1  0
  8  3  1  0
 23  9  1  0
 22 17  1  0
  1 24  1  0
  1 25  1  0
  1 26  1  0
  4 27  1  0
  5 28  1  0
  6 29  1  0
  7 30  1  0
 10 31  1  0
 11 32  1  0
 13 33  1  0
 13 34  1  0
 14 35  1  0
 14 36  1  0
 15 37  1  0
 15 38  1  0
 16 39  1  0
 16 40  1  0
 18 41  1  0
 19 42  1  0
 20 43  1  0
 21 44  1  0
M  CHG  1  14   1
M  END
>  <UniqueID>  (7) 
7

>  <SMILES>  (7) 
COc1ccccc1-c1ccc(C[NH2+]CCc2ccccn2)s1

>  <Energy>  (7) 
74.93105785362073

>  <Genealogy>  (7) 
COc1ccccc1-c1ccc(C[NH2+]CCc2ccccn2)s1 (protonated)
COc1ccccc1-c1ccc(C[NH2+]CCc2ccccn2)s1 (3D coordinates assigned)
COc1ccccc1-c1ccc(C[NH2+]CCc2ccccn2)s1 (optimized conformer: 74.93105785362073 kcal/mol)

>  <smiles>  (7) 
COc1ccccc1-c1ccc(CNCCc2ccccn2)s1

>  <score_type>  (7) 
oracle

>  <origin>  (7) 
adg

>  <m_score__min__energy>  (7) 
-5.9199999999999999

>  <m_primary>  (7) 
energy

$$$$
7:0
     RDKit          3D

 48 51  0  0  0  0  0  0  0  0999 V2000
   56.4390   20.5180   43.5760 C   0  0  0  0  0  0  0  0  0  0  0  0
   56.1240   21.8680   43.2560 O   0  0  0  0  0  0  0  0  0  0  0  0
   56.7360   22.9860   43.8430 C   0  0  0  0  0  0  0  0  0  0  0  0
   56.7030   24.2630   43.2520 C   0  0  0  0  0  0  0  0  0  0  0  0
   57.3290   25.3450   43.8770 C   0  0  0  0  0  0  0  0  0  0  0  0
   57.9940   25.1750   45.1020 C   0  0  0  0  0  0  0  0  0  0  0  0
   58.6420   26.2940   45.7340 N   0  0  0  0  0  0  0  0  0  0  0  0
   59.1130   27.3550   45.0940 N   0  0  0  0  0  0  0  0  0  0  0  0
   59.6600   28.1740   46.0160 C   0  0  0  0  0  0  0  0  0  0  0  0
   59.5150   27.6670   47.2660 N   0  0  0  0  0  0  0  0  0  0  0  0
   58.8940   26.4890   47.0450 C   0  0  0  0  0  0  0  0  0  0  0  0
   58.5680   25.6840   47.9590 O   0  0  0  0  0  0  0  0  0  0  0  0
   60.0180   28.1490   48.5600 C   0  0  0  0  0  0  0  0  0  0  0  0
   59.5650   29.5770   48.8800 C   0  0  0  0  0  0  0  0  0  0  0  0
   60.2270   30.6220   47.9690 C   0  0  0  0  0  0  0  0  0  0  0  0
   59.7880   30.5380   46.5680 N   0  0  0  0  0  0  0  0  0  0  0  0
   58.6740   31.3430   46.1490 C   0  0  0  0  0  0  0  0  0  0  0  0
   58.3630   32.3650   46.8210 O   0  0  0  0  0  0  0  0  0  0  0  0
   57.8860   30.9870   44.9480 C   0  0  0  0  0  0  0  0  0  0  0  0
   57.0300   29.8720   44.9620 C   0  0  0  0  0  0  0  0  0  0  0  0
   56.2900   29.5340   43.8250 C   0  0  0  0  0  0  0  0  0  0  0  0
   56.4040   30.2990   42.6620 C   0  0  0  0  0  0  0  0  0  0  0  0
   57.2620   31.4020   42.6310 C   0  0  0  0  0  0  0  0  0  0  0  0
   57.4160   32.3560   41.1670 Cl  0  0  0  0  0  0  0  0  0  0  0  0
   58.0030   31.7430   43.7680 C   0  0  0  0  0  0  0  0  0  0  0  0
   60.2890   29.4920   45.6740 C   0  0  0  0  0  0  0  0  0  0  0  0
   58.0310   23.8970   45.6850 C   0  0  0  0  0  0  0  0  0  0  0  0
   57.4060   22.8150   45.0590 C   0  0  0  0  0  0  0  0  0  0  0  0
   56.4672   20.3972   44.6690 H   0  0  0  0  0  0  0  0  0  0  0  0
   55.6720   19.8524   43.1532 H   0  0  0  0  0  0  0  0  0  0  0  0
   57.4213   20.2606   43.1532 H   0  0  0  0  0  0  0  0  0  0  0  0
   56.1823   24.4100   42.2942 H   0  0  0  0  0  0  0  0  0  0  0  0
   57.3005   26.3383   43.4053 H   0  0  0  0  0  0  0  0  0  0  0  0
   59.0870   27.5040   44.0600 H   0  0  0  0  0  0  0  0  0  0  0  0
   59.6511   27.4786   49.3512 H   0  0  0  0  0  0  0  0  0  0  0  0
   61.1167   28.1550   48.5061 H   0  0  0  0  0  0  0  0  0  0  0  0
   58.4741   29.6381   48.7523 H   0  0  0  0  0  0  0  0  0  0  0  0
   59.8639   29.7985   49.9152 H   0  0  0  0  0  0  0  0  0  0  0  0
   59.9816   31.6236   48.3518 H   0  0  0  0  0  0  0  0  0  0  0  0
   61.3092   30.4252   47.9823 H   0  0  0  0  0  0  0  0  0  0  0  0
   56.9419   29.2618   45.8730 H   0  0  0  0  0  0  0  0  0  0  0  0
   55.6169   28.6642   43.8464 H   0  0  0  0  0  0  0  0  0  0  0  0
   55.8181   30.0332   41.7698 H   0  0  0  0  0  0  0  0  0  0  0  0
   58.6816   32.6082   43.7386 H   0  0  0  0  0  0  0  0  0  0  0  0
   60.0423   29.7536   44.6344 H   0  0  0  0  0  0  0  0  0  0  0  0
   61.3796   29.4108   45.7919 H   0  0  0  0  0  0  0  0  0  0  0  0
   58.5553   23.7472   46.6403 H   0  0  0  0  0  0  0  0  0  0  0  0
   57.4413   21.8200   45.5267 H   0  0  0  0  0  0  0  0  0  0  0  0
  1  2  1  0
  2  3  1  0
  3  4  2  0
  4  5  1  0
  5  6  2  0
  6  7  1  0
  7  8  1  0
  8  9  2  0
  9 10  1  0
 10 11  1  0
 11 12  2  0
 10 13  1  0
 13 14  1  0
 14 15  1  0
 15 16  1  0
 16 17  1  0
 17 18  2  0
 17 19  1  0
 19 20  2  0
 20 21  1  0
 21 22  2  0
 22 23  1  0
 23 24  1  0
 23 25  2  0
 16 26  1  0
  6 27  1  0
 27 28  2  0
 28  3  1  0
 11  7  1  0
 25 19  1  0
 26  9  1  0
  1 29  1  0
  1 30  1  0
  1 31  1  0
  4 32  1  0
  5 33  1  0
  8 34  1  0
 13 35  1  0
 13 36  1  0
 14 37  1  0
 14 38  1  0
 15 39  1  0
 15 40  1  0
 20 41  1  0
 21 42  1  0
 22 43  1  0
 25 44  1  0
 26 45  1  0
 26 46  1  0
 27 47  1  0
 28 48  1  0
M  CHG  1   8   1
M  END
>  <UniqueID>  (8) 
8

>  <SMILES>  (8) 
COc1ccc(-n2[nH+]c3n(c2=O)CCCN(C(=O)c2cccc(Cl)c2)C3)cc1

>  <Energy>  (8) 
101.14950654941718

>  <Genealogy>  (8) 
COc1ccc(-n2[nH+]c3n(c2=O)CCCN(C(=O)c2cccc(Cl)c2)C3)cc1 (protonated)
COc1ccc(-n2[nH+]c3n(c2=O)CCCN(C(=O)c2cccc(Cl)c2)C3)cc1 (3D coordinates assigned)
COc1ccc(-n2[nH+]c3n(c2=O)CCCN(C(=O)c2cccc(Cl)c2)C3)cc1 (nonaromatic ring conformer: 101.14950654941718 kcal/mol)

>  <smiles>  (8) 
COc1ccc(-n2nc3n(c2=O)CCCN(C(=O)c2cccc(Cl)c2)C3)cc1

>  <score_type>  (8) 
oracle

>  <origin>  (8) 
adg

>  <m_score__min__energy>  (8) 
-6.25

>  <m_primary>  (8) 
energy

$$$$
8:0
     RDKit          3D

 40 41  0  0  0  0  0  0  0  0999 V2000
   56.2790   29.7580   42.9480 C   0  0  0  0  0  0  0  0  0  0  0  0
   55.8980   30.3930   44.2820 C   0  0  0  0  0  0  0  0  0  0  0  0
   57.0610   31.0980   44.8670 N   0  0  0  0  0  0  0  0  0  0  0  0
   58.3050   30.7920   44.1240 C   0  0  0  0  0  0  0  0  0  0  0  0
   59.0960   29.7050   44.8440 C   0  0  0  0  0  0  0  0  0  0  0  0
   56.8230   32.5580   44.9190 C   0  0  0  0  0  0  0  0  0  0  0  0
   58.0670   33.2670   45.3570 C   0  0  0  0  0  0  0  0  0  0  0  0
   58.9700   32.8330   46.3040 C   0  0  0  0  0  0  0  0  0  0  0  0
   59.9140   33.7900   46.3940 N   0  0  0  0  0  0  0  0  0  0  0  0
   61.0680   33.7940   47.2570 C   0  0  0  0  0  0  0  0  0  0  0  0
   62.3390   33.4650   46.7540 C   0  0  0  0  0  0  0  0  0  0  0  0
   63.4570   33.4690   47.5920 C   0  0  0  0  0  0  0  0  0  0  0  0
   63.3310   33.7970   48.9460 C   0  0  0  0  0  0  0  0  0  0  0  0
   64.4840   33.7850   49.7450 O   0  0  0  0  0  0  0  0  0  0  0  0
   65.3840   32.6860   49.8400 C   0  0  0  0  0  0  0  0  0  0  0  0
   62.0620   34.1240   49.4560 C   0  0  0  0  0  0  0  0  0  0  0  0
   60.9420   34.1220   48.6190 C   0  0  0  0  0  0  0  0  0  0  0  0
   59.5900   34.7510   45.5390 N   0  0  0  0  0  0  0  0  0  0  0  0
   58.4720   34.4650   44.8900 N   0  0  0  0  0  0  0  0  0  0  0  0
   56.8371   28.8279   43.1308 H   0  0  0  0  0  0  0  0  0  0  0  0
   55.3671   29.5321   42.3757 H   0  0  0  0  0  0  0  0  0  0  0  0
   56.9075   30.4563   42.3757 H   0  0  0  0  0  0  0  0  0  0  0  0
   55.0812   31.1120   44.1213 H   0  0  0  0  0  0  0  0  0  0  0  0
   55.5737   29.6024   44.9747 H   0  0  0  0  0  0  0  0  0  0  0  0
   58.0477   30.4443   43.1126 H   0  0  0  0  0  0  0  0  0  0  0  0
   58.9197   31.7023   44.0638 H   0  0  0  0  0  0  0  0  0  0  0  0
   58.9981   29.8396   45.9313 H   0  0  0  0  0  0  0  0  0  0  0  0
   58.7040   28.7172   44.5600 H   0  0  0  0  0  0  0  0  0  0  0  0
   60.1565   29.7742   44.5600 H   0  0  0  0  0  0  0  0  0  0  0  0
   56.5334   32.9152   43.9197 H   0  0  0  0  0  0  0  0  0  0  0  0
   56.0177   32.7660   45.6389 H   0  0  0  0  0  0  0  0  0  0  0  0
   58.9281   31.8925   46.8729 H   0  0  0  0  0  0  0  0  0  0  0  0
   62.4542   33.2023   45.6921 H   0  0  0  0  0  0  0  0  0  0  0  0
   64.4453   33.2119   47.1833 H   0  0  0  0  0  0  0  0  0  0  0  0
   65.5719   32.4565   50.8992 H   0  0  0  0  0  0  0  0  0  0  0  0
   64.9429   31.8071   49.3471 H   0  0  0  0  0  0  0  0  0  0  0  0
   66.3326   32.9452   49.3471 H   0  0  0  0  0  0  0  0  0  0  0  0
   61.9498   34.3828   50.5192 H   0  0  0  0  0  0  0  0  0  0  0  0
   59.9542   34.3791   49.0290 H   0  0  0  0  0  0  0  0  0  0  0  0
   60.1470   35.6170   45.3680 H   0  0  0  0  0  0  0  0  0  0  0  0
  1  2  1  0
  2  3  1  0
  3  4  1  0
  4  5  1  0
  3  6  1  0
  6  7  1  0
  7  8  2  0
  8  9  1  0
  9 10  1  0
 10 11  2  0
 11 12  1  0
 12 13  2  0
 13 14  1  0
 14 15  1  0
 13 16  1  0
 16 17  2  0
  9 18  1  0
 18 19  2  0
 19  7  1  0
 17 10  1  0
  1 20  1  0
  1 21  1  0
  1 22  1  0
  2 23  1  0
  2 24  1  0
  4 25  1  0
  4 26  1  0
  5 27  1  0
  5 28  1  0
  5 29  1  0
  6 30  1  0
  6 31  1  0
  8 32  1  0
 11 33  1  0
 12 34  1  0
 15 35  1  0
 15 36  1  0
 15 37  1  0
 16 38  1  0
 17 39  1  0
 18 40  1  0
M  CHG  1  18   1
M  END
>  <UniqueID>  (9) 
9

>  <SMILES>  (9) 
CCN(CC)Cc1cn(-c2ccc(OC)cc2)[nH+]n1

>  <Energy>  (9) 
74.79867181621749

>  <Genealogy>  (9) 
CCN(CC)Cc1cn(-c2ccc(OC)cc2)[nH+]n1 (protonated)
CCN(CC)Cc1cn(-c2ccc(OC)cc2)[nH+]n1 (3D coordinates assigned)
CCN(CC)Cc1cn(-c2ccc(OC)cc2)[nH+]n1 (optimized conformer: 74.79867181621749 kcal/mol)

>  <smiles>  (9) 
CCN(CC)Cc1cn(-c2ccc(OC)cc2)nn1

>  <score_type>  (9) 
oracle

>  <origin>  (9) 
adg

>  <m_score__min__energy>  (9) 
-5.25

>  <m_primary>  (9) 
energy

$$$$
9:0
     RDKit          3D

 32 34  0  0  0  0  0  0  0  0999 V2000
   60.3180   29.4930   45.7810 C   0  0  0  0  0  0  0  0  0  0  0  0
   60.2450   30.0800   47.1160 N   0  0  0  0  0  0  0  0  0  0  0  0
   60.6720   29.5200   48.2620 C   0  0  0  0  0  0  0  0  0  0  0  0
   60.3960   30.3210   49.3060 N   0  0  0  0  0  0  0  0  0  0  0  0
   59.7940   31.4080   48.8500 N   0  0  0  0  0  0  0  0  0  0  0  0
   59.7180   31.2620   47.5120 C   0  0  0  0  0  0  0  0  0  0  0  0
   59.0950   32.2640   46.6240 C   0  0  0  0  0  0  0  0  0  0  0  0
   59.6850   33.5320   46.5130 C   0  0  0  0  0  0  0  0  0  0  0  0
   59.1200   34.5040   45.6850 C   0  0  0  0  0  0  0  0  0  0  0  0
   57.9740   34.2120   44.9450 C   0  0  0  0  0  0  0  0  0  0  0  0
   57.3900   32.9460   45.0280 C   0  0  0  0  0  0  0  0  0  0  0  0
   57.9370   31.9630   45.8750 C   0  0  0  0  0  0  0  0  0  0  0  0
   57.4040   30.6300   45.9050 N   0  0  0  0  0  0  0  0  0  0  0  0
   56.6990   29.9640   44.8480 C   0  0  0  0  0  0  0  0  0  0  0  0
   55.5900   29.4100   45.0710 O   0  0  0  0  0  0  0  0  0  0  0  0
   57.2900   29.8620   43.4680 C   0  0  0  0  0  0  0  0  0  0  0  0
   56.2770   29.7080   42.3430 C   0  0  0  0  0  0  0  0  0  0  0  0
   57.0150   31.0260   42.5260 C   0  0  0  0  0  0  0  0  0  0  0  0
   60.4534   28.4047   45.8659 H   0  0  0  0  0  0  0  0  0  0  0  0
   59.3865   29.7052   45.2357 H   0  0  0  0  0  0  0  0  0  0  0  0
   61.1691   29.9269   45.2357 H   0  0  0  0  0  0  0  0  0  0  0  0
   61.1757   28.5448   48.3348 H   0  0  0  0  0  0  0  0  0  0  0  0
   60.6040   30.1320   50.3100 H   0  0  0  0  0  0  0  0  0  0  0  0
   60.5981   33.7618   47.0817 H   0  0  0  0  0  0  0  0  0  0  0  0
   59.5791   35.5012   45.6161 H   0  0  0  0  0  0  0  0  0  0  0  0
   57.5296   34.9801   44.2950 H   0  0  0  0  0  0  0  0  0  0  0  0
   56.4973   32.7154   44.4281 H   0  0  0  0  0  0  0  0  0  0  0  0
   58.1958   29.3275   43.7903 H   0  0  0  0  0  0  0  0  0  0  0  0
   56.5063   29.0645   41.4808 H   0  0  0  0  0  0  0  0  0  0  0  0
   55.2196   29.4105   42.2840 H   0  0  0  0  0  0  0  0  0  0  0  0
   57.7779   31.3352   41.7963 H   0  0  0  0  0  0  0  0  0  0  0  0
   56.7123   32.0757   42.6542 H   0  0  0  0  0  0  0  0  0  0  0  0
  1  2  1  0
  2  3  1  0
  3  4  2  0
  4  5  1  0
  5  6  2  0
  6  7  1  0
  7  8  2  0
  8  9  1  0
  9 10  2  0
 10 11  1  0
 11 12  2  0
 12 13  1  0
 13 14  1  0
 14 15  2  0
 14 16  1  0
 16 17  1  0
 17 18  1  0
  6  2  1  0
 12  7  1  0
 18 16  1  0
  1 19  1  0
  1 20  1  0
  1 21  1  0
  3 22  1  0
  4 23  1  0
  8 24  1  0
  9 25  1  0
 10 26  1  0
 11 27  1  0
 16 28  1  0
 17 29  1  0
 17 30  1  0
 18 31  1  0
 18 32  1  0
M  CHG  2   4   1  13  -1
M  END
>  <UniqueID>  (10) 
10

>  <SMILES>  (10) 
Cn1c[nH+]nc1-c1ccccc1[N-]C(=O)C1CC1

>  <Energy>  (10) 
340.9272661804137

>  <Genealogy>  (10) 
Cn1c[nH+]nc1-c1ccccc1[N-]C(=O)C1CC1 (protonated)
Cn1c[nH+]nc1-c1ccccc1[N-]C(=O)C1CC1 (3D coordinates assigned)
Cn1c[nH+]nc1-c1ccccc1[N-]C(=O)C1CC1 (nonaromatic ring conformer: 340.9272661804137 kcal/mol)

>  <smiles>  (10) 
Cn1cnnc1-c1ccccc1NC(=O)C1CC1

>  <score_type>  (10) 
oracle

>  <origin>  (10) 
adg

>  <m_score__min__energy>  (10) 
-6.9000000000000004

>  <m_primary>  (10) 
energy

$$$$
10:0
     RDKit          3D

 50 51  0  0  1  0  0  0  0  0999 V2000
   59.2520   29.9780   45.4070 C   0  0  0  0  0  0  0  0  0  0  0  0
   57.8110   30.0230   45.7920 C   0  0  0  0  0  0  0  0  0  0  0  0
   57.0640   31.0580   45.0870 N   0  0  0  0  0  0  0  0  0  0  0  0
   56.6770   30.6890   43.7700 C   0  0  0  0  0  0  0  0  0  0  0  0
   55.5460   29.7240   43.6360 C   0  0  0  0  0  0  0  0  0  0  0  0
   57.9000   32.2280   45.0610 C   0  0  0  0  0  0  0  0  0  0  0  0
   57.3210   33.4370   45.7320 C   0  0  0  0  0  0  0  0  0  0  0  0
   58.0920   33.5900   46.9510 O   0  0  0  0  0  0  0  0  0  0  0  0
   59.3230   34.2210   46.9690 C   0  0  0  0  0  0  0  0  0  0  0  0
   59.3980   35.4570   46.7630 O   0  0  0  0  0  0  0  0  0  0  0  0
   60.5090   33.4120   47.2270 C   0  0  0  0  0  0  0  0  0  0  0  0
   61.7670   33.8450   46.8360 C   0  0  0  0  0  0  0  0  0  0  0  0
   62.9180   33.1260   47.0800 C   0  0  0  0  0  0  0  0  0  0  0  0
   62.8510   31.9110   47.7420 C   0  0  0  0  0  0  0  0  0  0  0  0
   61.5930   31.4450   48.1490 C   0  0  0  0  0  0  0  0  0  0  0  0
   60.4400   32.1920   47.8910 C   0  0  0  0  0  0  0  0  0  0  0  0
   59.1740   31.6720   48.3230 N   0  0  0  0  0  0  0  0  0  0  0  0
   58.7770   31.7480   49.5580 C   0  0  0  0  0  0  0  0  0  0  0  0
   58.9640   32.8740   50.3310 C   0  0  0  0  0  0  0  0  0  0  0  0
   58.5300   32.9250   51.6630 C   0  0  0  0  0  0  0  0  0  0  0  0
   58.7380   34.1460   52.4960 C   0  0  0  0  0  0  0  0  0  0  0  0
   57.9150   31.8200   52.1740 N   0  0  0  0  0  0  0  0  0  0  0  0
   57.7420   30.7380   51.4150 C   0  0  0  0  0  0  0  0  0  0  0  0
   57.1500   29.7150   51.9470 N   0  0  0  0  0  0  0  0  0  0  0  0
   58.1630   30.7020   50.1330 N   0  0  0  0  0  0  0  0  0  0  0  0
   59.8735   29.9586   46.3144 H   0  0  0  0  0  0  0  0  0  0  0  0
   59.4443   29.0734   44.8114 H   0  0  0  0  0  0  0  0  0  0  0  0
   59.5004   30.8688   44.8114 H   0  0  0  0  0  0  0  0  0  0  0  0
   57.3571   29.0471   45.5649 H   0  0  0  0  0  0  0  0  0  0  0  0
   57.7649   30.2581   46.8656 H   0  0  0  0  0  0  0  0  0  0  0  0
   56.3915   31.6091   43.2390 H   0  0  0  0  0  0  0  0  0  0  0  0
   57.5493   30.1625   43.3554 H   0  0  0  0  0  0  0  0  0  0  0  0
   55.1974   29.4265   44.6360 H   0  0  0  0  0  0  0  0  0  0  0  0
   54.7206   30.2004   43.0866 H   0  0  0  0  0  0  0  0  0  0  0  0
   55.8866   28.8339   43.0866 H   0  0  0  0  0  0  0  0  0  0  0  0
   58.8477   31.9811   45.5619 H   0  0  0  0  0  0  0  0  0  0  0  0
   58.0220   32.4944   44.0007 H   0  0  0  0  0  0  0  0  0  0  0  0
   57.4291   34.3246   45.0913 H   0  0  0  0  0  0  0  0  0  0  0  0
   56.2453   33.3249   45.9327 H   0  0  0  0  0  0  0  0  0  0  0  0
   61.8505   34.8059   46.3071 H   0  0  0  0  0  0  0  0  0  0  0  0
   63.8909   33.5178   46.7485 H   0  0  0  0  0  0  0  0  0  0  0  0
   63.7612   31.3270   47.9431 H   0  0  0  0  0  0  0  0  0  0  0  0
   61.5125   30.4829   48.6761 H   0  0  0  0  0  0  0  0  0  0  0  0
   59.4641   33.7506   49.8936 H   0  0  0  0  0  0  0  0  0  0  0  0
   58.6919   33.8754   53.5612 H   0  0  0  0  0  0  0  0  0  0  0  0
   59.7231   34.5804   52.2703 H   0  0  0  0  0  0  0  0  0  0  0  0
   57.9523   34.8820   52.2703 H   0  0  0  0  0  0  0  0  0  0  0  0
   57.6050   31.8990   53.1770 H   0  0  0  0  0  0  0  0  0  0  0  0
   57.6850   29.1070   52.6080 H   0  0  0  0  0  0  0  0  0  0  0  0
   57.9830   29.8200   49.6170 H   0  0  0  0  0  0  0  0  0  0  0  0
  1  2  1  0
  2  3  1  0
  3  4  1  0
  4  5  1  0
  3  6  1  0
  6  7  1  0
  7  8  1  0
  8  9  1  0
  9 10  2  0
  9 11  1  0
 11 12  2  0
 12 13  1  0
 13 14  2  0
 14 15  1  0
 15 16  2  0
 16 17  1  0
 17 18  2  0
 18 19  1  0
 19 20  2  0
 20 21  1  0
 20 22  1  0
 22 23  1  0
 23 24  2  3
 23 25  1  0
 16 11  1  0
 25 18  1  0
  1 26  1  0
  1 27  1  0
  1 28  1  0
  2 29  1  0
  2 30  1  0
  4 31  1  0
  4 32  1  0
  5 33  1  0
  5 34  1  0
  5 35  1  0
  6 36  1  0
  6 37  1  0
  7 38  1  0
  7 39  1  0
 12 40  1  0
 13 41  1  0
 14 42  1  0
 15 43  1  0
 19 44  1  0
 21 45  1  0
 21 46  1  0
 21 47  1  0
 22 48  1  0
 24 49  1  0
 25 50  1  0
M  END
>  <smiles>  (11) 
CCN(CC)CCOC(=O)c1ccccc1N=c1cc(C)[nH]c(=N)[nH]1

>  <score_type>  (11) 
oracle

>  <origin>  (11) 
adg

>  <m_score__min__energy>  (11) 
-7.2599999999999998

>  <m_primary>  (11) 
energy

$$$$
11:0
     RDKit          3D

 54 56  0  0  0  0  0  0  0  0999 V2000
   63.3910   33.8540   46.5060 C   0  0  0  0  0  0  0  0  0  0  0  0
   62.7400   33.3310   47.7910 C   0  0  0  0  0  0  0  0  0  0  0  0
   61.4100   32.5500   47.5970 C   0  0  0  0  0  0  0  0  0  0  0  0
   61.3880   31.1570   48.2790 C   0  0  0  0  0  0  0  0  0  0  0  0
   60.0170   30.4880   48.3820 C   0  0  0  0  0  0  0  0  0  0  0  0
   60.1660   33.3650   47.9090 C   0  0  0  0  0  0  0  0  0  0  0  0
   59.8680   33.6100   49.1090 O   0  0  0  0  0  0  0  0  0  0  0  0
   59.2950   33.8320   46.8630 N   0  0  0  0  0  0  0  0  0  0  0  0
   57.8450   33.8400   47.1030 C   0  0  0  0  0  0  0  0  0  0  0  0
   57.0570   34.1390   45.8170 C   0  0  0  0  0  0  0  0  0  0  0  0
   57.6610   33.4170   44.5970 C   0  0  0  0  0  0  0  0  0  0  0  0
   57.4150   31.9300   44.6810 C   0  0  0  0  0  0  0  0  0  0  0  0
   58.3410   31.0040   44.9900 N   0  0  0  0  0  0  0  0  0  0  0  0
   57.6360   29.8540   44.9650 C   0  0  0  0  0  0  0  0  0  0  0  0
   58.1920   28.5080   45.2410 C   0  0  0  0  0  0  0  0  0  0  0  0
   57.4190   27.3630   44.9820 C   0  0  0  0  0  0  0  0  0  0  0  0
   57.9310   26.0880   45.2380 C   0  0  0  0  0  0  0  0  0  0  0  0
   59.2220   25.9290   45.7540 C   0  0  0  0  0  0  0  0  0  0  0  0
   59.6880   24.6280   45.9940 O   0  0  0  0  0  0  0  0  0  0  0  0
   59.0330   23.4440   45.5470 C   0  0  0  0  0  0  0  0  0  0  0  0
   60.0030   27.0720   46.0100 C   0  0  0  0  0  0  0  0  0  0  0  0
   59.4930   28.3480   45.7530 C   0  0  0  0  0  0  0  0  0  0  0  0
   56.3400   30.0820   44.6620 N   0  0  0  0  0  0  0  0  0  0  0  0
   56.2450   31.3690   44.4970 O   0  0  0  0  0  0  0  0  0  0  0  0
   59.1660   33.7490   44.3940 C   0  0  0  0  0  0  0  0  0  0  0  0
   59.8220   34.4070   45.6180 C   0  0  0  0  0  0  0  0  0  0  0  0
   64.2247   34.5238   46.7637 H   0  0  0  0  0  0  0  0  0  0  0  0
   63.7703   33.0066   45.9160 H   0  0  0  0  0  0  0  0  0  0  0  0
   62.6453   34.4070   45.9160 H   0  0  0  0  0  0  0  0  0  0  0  0
   63.4578   32.6603   48.2859 H   0  0  0  0  0  0  0  0  0  0  0  0
   62.4838   34.2214   48.3840 H   0  0  0  0  0  0  0  0  0  0  0  0
   61.3780   32.3523   46.5154 H   0  0  0  0  0  0  0  0  0  0  0  0
   62.0469   30.4895   47.7044 H   0  0  0  0  0  0  0  0  0  0  0  0
   61.7163   31.3265   49.3151 H   0  0  0  0  0  0  0  0  0  0  0  0
   59.7510   30.3582   49.4414 H   0  0  0  0  0  0  0  0  0  0  0  0
   59.2630   31.1194   47.8893 H   0  0  0  0  0  0  0  0  0  0  0  0
   60.0507   29.5051   47.8893 H   0  0  0  0  0  0  0  0  0  0  0  0
   57.5417   32.8544   47.4859 H   0  0  0  0  0  0  0  0  0  0  0  0
   57.6228   34.6322   47.8331 H   0  0  0  0  0  0  0  0  0  0  0  0
   56.0175   33.8049   45.9502 H   0  0  0  0  0  0  0  0  0  0  0  0
   57.1025   35.2223   45.6313 H   0  0  0  0  0  0  0  0  0  0  0  0
   57.1451   33.7952   43.7021 H   0  0  0  0  0  0  0  0  0  0  0  0
   59.3490   31.1520   45.2110 H   0  0  0  0  0  0  0  0  0  0  0  0
   56.4030   27.4713   44.5746 H   0  0  0  0  0  0  0  0  0  0  0  0
   57.3135   25.2013   45.0320 H   0  0  0  0  0  0  0  0  0  0  0  0
   58.7070   22.8547   46.4167 H   0  0  0  0  0  0  0  0  0  0  0  0
   58.1573   23.7164   44.9396 H   0  0  0  0  0  0  0  0  0  0  0  0
   59.7291   22.8469   44.9396 H   0  0  0  0  0  0  0  0  0  0  0  0
   61.0199   26.9605   46.4144 H   0  0  0  0  0  0  0  0  0  0  0  0
   60.1136   29.2340   45.9526 H   0  0  0  0  0  0  0  0  0  0  0  0
   59.7016   32.8139   44.1732 H   0  0  0  0  0  0  0  0  0  0  0  0
   59.2279   34.4721   43.5674 H   0  0  0  0  0  0  0  0  0  0  0  0
   60.9089   34.2432   45.5766 H   0  0  0  0  0  0  0  0  0  0  0  0
   59.5969   35.4836   45.6032 H   0  0  0  0  0  0  0  0  0  0  0  0
  1  2  1  0
  2  3  1  0
  3  4  1  0
  4  5  1  0
  3  6  1  0
  6  7  2  0
  6  8  1  0
  8  9  1  0
  9 10  1  0
 10 11  1  0
 11 12  1  0
 12 13  2  0
 13 14  1  0
 14 15  1  0
 15 16  2  0
 16 17  1  0
 17 18  2  0
 18 19  1  0
 19 20  1  0
 18 21  1  0
 21 22  2  0
 14 23  2  0
 23 24  1  0
 11 25  1  0
 25 26  1  0
 26  8  1  0
 24 12  1  0
 22 15  1  0
  1 27  1  0
  1 28  1  0
  1 29  1  0
  2 30  1  0
  2 31  1  0
  3 32  1  0
  4 33  1  0
  4 34  1  0
  5 35  1  0
  5 36  1  0
  5 37  1  0
  9 38  1  0
  9 39  1  0
 10 40  1  0
 10 41  1  0
 11 42  1  0
 13 43  1  0
 16 44  1  0
 17 45  1  0
 20 46  1  0
 20 47  1  0
 20 48  1  0
 21 49  1  0
 22 50  1  0
 25 51  1  0
 25 52  1  0
 26 53  1  0
 26 54  1  0
M  CHG  1  13   1
M  END
>  <UniqueID>  (12) 
11

>  <SMILES>  (12) 
CCC(CC)C(=O)N1CCC(c2[nH+]c(-c3ccc(OC)cc3)no2)CC1

>  <Energy>  (12) 
92.17167596788711

>  <Genealogy>  (12) 
CCC(CC)C(=O)N1CCC(c2[nH+]c(-c3ccc(OC)cc3)no2)CC1 (protonated)
CCC(CC)C(=O)N1CCC(c2[nH+]c(-c3ccc(OC)cc3)no2)CC1 (3D coordinates assigned)
CCC(CC)C(=O)N1CCC(c2[nH+]c(-c3ccc(OC)cc3)no2)CC1 (nonaromatic ring conformer: 92.17167596788711 kcal/mol)

>  <smiles>  (12) 
CCC(CC)C(=O)N1CCC(c2nc(-c3ccc(OC)cc3)no2)CC1

>  <score_type>  (12) 
oracle

>  <origin>  (12) 
adg

>  <m_score__min__energy>  (12) 
-6.7599999999999998

>  <m_primary>  (12) 
energy

$$$$
12:0
     RDKit          3D

 50 52  0  0  0  0  0  0  0  0999 V2000
   55.7130   25.5800   45.6640 C   0  0  0  0  0  0  0  0  0  0  0  0
   55.6020   26.9990   45.6270 O   0  0  0  0  0  0  0  0  0  0  0  0
   56.6870   27.8810   45.7390 C   0  0  0  0  0  0  0  0  0  0  0  0
   57.7510   27.6610   46.6350 C   0  0  0  0  0  0  0  0  0  0  0  0
   58.8100   28.5700   46.7110 C   0  0  0  0  0  0  0  0  0  0  0  0
   58.8230   29.7120   45.8940 C   0  0  0  0  0  0  0  0  0  0  0  0
   59.9550   30.7100   45.9900 C   0  0  0  0  0  0  0  0  0  0  0  0
   61.1000   30.1800   46.7560 N   0  0  0  0  0  0  0  0  0  0  0  0
   61.8340   31.2120   47.5290 C   0  0  0  0  0  0  0  0  0  0  0  0
   61.3430   31.2400   49.0010 C   0  0  0  0  0  0  0  0  0  0  0  0
   60.2540   32.3000   49.2030 C   0  0  0  0  0  0  0  0  0  0  0  0
   60.7560   33.6740   48.9390 N   0  0  0  0  0  0  0  0  0  0  0  0
   59.6480   34.5990   48.6170 C   0  0  0  0  0  0  0  0  0  0  0  0
   59.0660   34.2920   47.2600 C   0  0  0  0  0  0  0  0  0  0  0  0
   58.0250   33.3580   47.1360 C   0  0  0  0  0  0  0  0  0  0  0  0
   57.4990   33.0510   45.8780 C   0  0  0  0  0  0  0  0  0  0  0  0
   58.0120   33.6700   44.7350 C   0  0  0  0  0  0  0  0  0  0  0  0
   59.0530   34.5960   44.8490 C   0  0  0  0  0  0  0  0  0  0  0  0
   59.5820   34.9050   46.1060 C   0  0  0  0  0  0  0  0  0  0  0  0
   61.8300   33.7340   47.9120 C   0  0  0  0  0  0  0  0  0  0  0  0
   61.7110   32.6140   46.8700 C   0  0  0  0  0  0  0  0  0  0  0  0
   57.7630   29.9310   45.0030 C   0  0  0  0  0  0  0  0  0  0  0  0
   56.7050   29.0210   44.9280 C   0  0  0  0  0  0  0  0  0  0  0  0
   55.7395   25.2414   46.7103 H   0  0  0  0  0  0  0  0  0  0  0  0
   54.8472   25.1311   45.1552 H   0  0  0  0  0  0  0  0  0  0  0  0
   56.6380   25.2712   45.1552 H   0  0  0  0  0  0  0  0  0  0  0  0
   57.7486   26.7689   47.2785 H   0  0  0  0  0  0  0  0  0  0  0  0
   59.6368   28.3900   47.4138 H   0  0  0  0  0  0  0  0  0  0  0  0
   60.2937   30.9607   44.9739 H   0  0  0  0  0  0  0  0  0  0  0  0
   59.5783   31.5994   46.5164 H   0  0  0  0  0  0  0  0  0  0  0  0
   60.7480   29.4420   47.4110 H   0  0  0  0  0  0  0  0  0  0  0  0
   61.7530   29.7120   46.0850 H   0  0  0  0  0  0  0  0  0  0  0  0
   62.9006   30.9429   47.5249 H   0  0  0  0  0  0  0  0  0  0  0  0
   60.9349   30.2523   49.2618 H   0  0  0  0  0  0  0  0  0  0  0  0
   62.1967   31.4905   49.6479 H   0  0  0  0  0  0  0  0  0  0  0  0
   59.4212   32.0885   48.5162 H   0  0  0  0  0  0  0  0  0  0  0  0
   59.9270   32.2544   50.2523 H   0  0  0  0  0  0  0  0  0  0  0  0
   58.8605   34.4960   49.3780 H   0  0  0  0  0  0  0  0  0  0  0  0
   60.0406   35.6265   48.6061 H   0  0  0  0  0  0  0  0  0  0  0  0
   57.6215   32.8656   48.0331 H   0  0  0  0  0  0  0  0  0  0  0  0
   56.6806   32.3216   45.7876 H   0  0  0  0  0  0  0  0  0  0  0  0
   57.5966   33.4286   43.7455 H   0  0  0  0  0  0  0  0  0  0  0  0
   59.4566   35.0823   43.9486 H   0  0  0  0  0  0  0  0  0  0  0  0
   60.4046   35.6302   46.1915 H   0  0  0  0  0  0  0  0  0  0  0  0
   61.7705   34.7036   47.3959 H   0  0  0  0  0  0  0  0  0  0  0  0
   62.7931   33.6086   48.4284 H   0  0  0  0  0  0  0  0  0  0  0  0
   60.7333   32.6909   46.3718 H   0  0  0  0  0  0  0  0  0  0  0  0
   62.5290   32.7283   46.1435 H   0  0  0  0  0  0  0  0  0  0  0  0
   57.7641   30.8234   44.3598 H   0  0  0  0  0  0  0  0  0  0  0  0
   55.8788   29.2027   44.2249 H   0  0  0  0  0  0  0  0  0  0  0  0
  1  2  1  0
  2  3  1  0
  3  4  2  0
  4  5  1  0
  5  6  2  0
  6  7  1  0
  7  8  1  0
  8  9  1  0
  9 10  1  0
 10 11  1  0
 11 12  1  0
 12 13  1  0
 13 14  1  0
 14 15  2  0
 15 16  1  0
 16 17  2  0
 17 18  1  0
 18 19  2  0
 12 20  1  0
 20 21  1  0
  6 22  1  0
 22 23  2  0
 23  3  1  0
 21  9  1  0
 19 14  1  0
  1 24  1  0
  1 25  1  0
  1 26  1  0
  4 27  1  0
  5 28  1  0
  7 29  1  0
  7 30  1  0
  8 31  1  0
  8 32  1  0
  9 33  1  0
 10 34  1  0
 10 35  1  0
 11 36  1  0
 11 37  1  0
 13 38  1  0
 13 39  1  0
 15 40  1  0
 16 41  1  0
 17 42  1  0
 18 43  1  0
 19 44  1  0
 20 45  1  0
 20 46  1  0
 21 47  1  0
 21 48  1  0
 22 49  1  0
 23 50  1  0
M  CHG  1   8   1
M  END
>  <UniqueID>  (13) 
12

>  <SMILES>  (13) 
COc1ccc(C[NH2+]C2CCN(Cc3ccccc3)CC2)cc1

>  <Energy>  (13) 
60.25022427284791

>  <Genealogy>  (13) 
COc1ccc(C[NH2+]C2CCN(Cc3ccccc3)CC2)cc1 (protonated)
COc1ccc(C[NH2+]C2CCN(Cc3ccccc3)CC2)cc1 (3D coordinates assigned)
COc1ccc(C[NH2+]C2CCN(Cc3ccccc3)CC2)cc1 (nonaromatic ring conformer: 60.25022427284791 kcal/mol)

>  <smiles>  (13) 
COc1ccc(CNC2CCN(Cc3ccccc3)CC2)cc1

>  <score_type>  (13) 
oracle

>  <origin>  (13) 
adg

>  <m_score__min__energy>  (13) 
-6.2699999999999996

>  <m_primary>  (13) 
energy

$$$$
13:0
     RDKit          3D

 46 47  0  0  0  0  0  0  0  0999 V2000
   59.4450   29.6510   45.5560 C   0  0  0  0  0  0  0  0  0  0  0  0
   57.9200   29.6760   45.7420 C   0  0  0  0  0  0  0  0  0  0  0  0
   57.2540   30.7960   45.0400 N   0  0  0  0  0  0  0  0  0  0  0  0
   56.8470   30.4520   43.6570 C   0  0  0  0  0  0  0  0  0  0  0  0
   55.5130   29.7170   43.6870 C   0  0  0  0  0  0  0  0  0  0  0  0
   58.0130   32.0630   45.1370 C   0  0  0  0  0  0  0  0  0  0  0  0
   57.1260   33.2010   45.6440 C   0  0  0  0  0  0  0  0  0  0  0  0
   57.5730   34.4240   45.0980 O   0  0  0  0  0  0  0  0  0  0  0  0
   58.9710   34.3920   44.8780 C   0  0  0  0  0  0  0  0  0  0  0  0
   59.6680   35.4110   45.7820 C   0  0  0  0  0  0  0  0  0  0  0  0
   59.5720   35.0200   47.1510 O   0  0  0  0  0  0  0  0  0  0  0  0
   59.7990   33.7270   47.6600 C   0  0  0  0  0  0  0  0  0  0  0  0
   58.7790   32.9840   48.2880 C   0  0  0  0  0  0  0  0  0  0  0  0
   59.0330   31.7020   48.7800 C   0  0  0  0  0  0  0  0  0  0  0  0
   60.3010   31.1370   48.6540 C   0  0  0  0  0  0  0  0  0  0  0  0
   61.3320   31.8520   48.0300 C   0  0  0  0  0  0  0  0  0  0  0  0
   62.6100   31.2840   47.9010 C   0  0  0  0  0  0  0  0  0  0  0  0
   63.6360   31.9980   47.2800 C   0  0  0  0  0  0  0  0  0  0  0  0
   63.3980   33.2810   46.7840 C   0  0  0  0  0  0  0  0  0  0  0  0
   62.1320   33.8590   46.9040 C   0  0  0  0  0  0  0  0  0  0  0  0
   61.0830   33.1560   47.5270 C   0  0  0  0  0  0  0  0  0  0  0  0
   59.9344   29.6430   46.5411 H   0  0  0  0  0  0  0  0  0  0  0  0
   59.7314   28.7480   44.9969 H   0  0  0  0  0  0  0  0  0  0  0  0
   59.7609   30.5441   44.9969 H   0  0  0  0  0  0  0  0  0  0  0  0
   57.5077   28.7312   45.3583 H   0  0  0  0  0  0  0  0  0  0  0  0
   57.7291   29.8109   46.8169 H   0  0  0  0  0  0  0  0  0  0  0  0
   56.7444   31.3736   43.0652 H   0  0  0  0  0  0  0  0  0  0  0  0
   57.6111   29.8056   43.2005 H   0  0  0  0  0  0  0  0  0  0  0  0
   55.2098   29.5499   44.7311 H   0  0  0  0  0  0  0  0  0  0  0  0
   54.7495   30.3218   43.1758 H   0  0  0  0  0  0  0  0  0  0  0  0
   55.6164   28.7485   43.1758 H   0  0  0  0  0  0  0  0  0  0  0  0
   58.8534   31.9255   45.8333 H   0  0  0  0  0  0  0  0  0  0  0  0
   58.3798   32.3272   44.1342 H   0  0  0  0  0  0  0  0  0  0  0  0
   56.0856   33.0203   45.3360 H   0  0  0  0  0  0  0  0  0  0  0  0
   57.1802   33.2475   46.7417 H   0  0  0  0  0  0  0  0  0  0  0  0
   59.3520   33.3850   45.1033 H   0  0  0  0  0  0  0  0  0  0  0  0
   59.1763   34.6428   43.8268 H   0  0  0  0  0  0  0  0  0  0  0  0
   60.7289   35.4783   45.4993 H   0  0  0  0  0  0  0  0  0  0  0  0
   59.1772   36.3876   45.6580 H   0  0  0  0  0  0  0  0  0  0  0  0
   57.7736   33.4180   48.3915 H   0  0  0  0  0  0  0  0  0  0  0  0
   58.2278   31.1348   49.2698 H   0  0  0  0  0  0  0  0  0  0  0  0
   60.4928   30.1271   49.0455 H   0  0  0  0  0  0  0  0  0  0  0  0
   62.8029   30.2735   48.2905 H   0  0  0  0  0  0  0  0  0  0  0  0
   64.6351   31.5484   47.1811 H   0  0  0  0  0  0  0  0  0  0  0  0
   64.2109   33.8392   46.2966 H   0  0  0  0  0  0  0  0  0  0  0  0
   61.9533   34.8700   46.5092 H   0  0  0  0  0  0  0  0  0  0  0  0
  1  2  1  0
  2  3  1  0
  3  4  1  0
  4  5  1  0
  3  6  1  0
  6  7  1  0
  7  8  1  0
  8  9  1  0
  9 10  1  0
 10 11  1  0
 11 12  1  0
 12 13  2  0
 13 14  1  0
 14 15  2  0
 15 16  1  0
 16 17  2  0
 17 18  1  0
 18 19  2  0
 19 20  1  0
 20 21  2  0
 21 12  1  0
 21 16  1  0
  1 22  1  0
  1 23  1  0
  1 24  1  0
  2 25  1  0
  2 26  1  0
  4 27  1  0
  4 28  1  0
  5 29  1  0
  5 30  1  0
  5 31  1  0
  6 32  1  0
  6 33  1  0
  7 34  1  0
  7 35  1  0
  9 36  1  0
  9 37  1  0
 10 38  1  0
 10 39  1  0
 13 40  1  0
 14 41  1  0
 15 42  1  0
 17 43  1  0
 18 44  1  0
 19 45  1  0
 20 46  1  0
M  END
>  <UniqueID>  (14) 
13

>  <SMILES>  (14) 
CCN(CC)CCOCCOc1cccc2ccccc12

>  <Energy>  (14) 
49.974045215208314

>  <Genealogy>  (14) 
CCN(CC)CCOCCOc1cccc2ccccc12 (3D coordinates assigned)
CCN(CC)CCOCCOc1cccc2ccccc12 (optimized conformer: 49.974045215208314 kcal/mol)

>  <smiles>  (14) 
CCN(CC)CCOCCOc1cccc2ccccc12

>  <score_type>  (14) 
oracle

>  <origin>  (14) 
adg

>  <m_score__min__energy>  (14) 
-6.5999999999999996

>  <m_primary>  (14) 
energy

$$$$
14:0
     RDKit          3D

 41 42  0  0  0  0  0  0  0  0999 V2000
   63.6370   33.2350   47.1150 C   0  0  0  0  0  0  0  0  0  0  0  0
   62.9700   33.4690   48.4650 C   0  0  0  0  0  0  0  0  0  0  0  0
   61.7150   34.1250   48.2990 O   0  0  0  0  0  0  0  0  0  0  0  0
   60.5150   33.6390   48.8320 C   0  0  0  0  0  0  0  0  0  0  0  0
   60.1970   33.8860   50.0280 O   0  0  0  0  0  0  0  0  0  0  0  0
   59.5920   32.8360   47.9560 C   0  0  0  0  0  0  0  0  0  0  0  0
   59.0360   31.6200   48.7290 C   0  0  0  0  0  0  0  0  0  0  0  0
   58.6650   30.4940   47.7600 C   0  0  0  0  0  0  0  0  0  0  0  0
   59.8630   29.9780   47.0640 N   0  0  0  0  0  0  0  0  0  0  0  0
   59.4010   28.9990   45.6900 S   0  0  0  0  0  0  0  0  0  0  0  0
   60.3000   29.3040   44.5260 O   0  0  0  0  0  0  0  0  0  0  0  0
   59.5950   27.5510   46.0430 O   0  0  0  0  0  0  0  0  0  0  0  0
   57.7110   29.2550   45.2210 C   0  0  0  0  0  0  0  0  0  0  0  0
   57.1550   30.3990   44.6740 C   0  0  0  0  0  0  0  0  0  0  0  0
   57.8390   31.7040   44.4170 C   0  0  0  0  0  0  0  0  0  0  0  0
   55.8360   30.2110   44.4840 N   0  0  0  0  0  0  0  0  0  0  0  0
   55.5220   28.9870   44.8820 N   0  0  0  0  0  0  0  0  0  0  0  0
   56.6350   28.3880   45.3470 C   0  0  0  0  0  0  0  0  0  0  0  0
   56.6410   26.9840   45.8640 C   0  0  0  0  0  0  0  0  0  0  0  0
   60.8690   31.0090   46.7080 C   0  0  0  0  0  0  0  0  0  0  0  0
   60.2780   32.4280   46.6290 C   0  0  0  0  0  0  0  0  0  0  0  0
   64.6645   32.8745   47.2712 H   0  0  0  0  0  0  0  0  0  0  0  0
   63.0667   32.4833   46.5496 H   0  0  0  0  0  0  0  0  0  0  0  0
   63.6613   34.1783   46.5496 H   0  0  0  0  0  0  0  0  0  0  0  0
   62.8086   32.5005   48.9609 H   0  0  0  0  0  0  0  0  0  0  0  0
   63.6245   34.1065   49.0776 H   0  0  0  0  0  0  0  0  0  0  0  0
   58.7373   33.4707   47.6790 H   0  0  0  0  0  0  0  0  0  0  0  0
   59.8009   31.2564   49.4309 H   0  0  0  0  0  0  0  0  0  0  0  0
   58.1343   31.9289   49.2782 H   0  0  0  0  0  0  0  0  0  0  0  0
   58.1955   29.6744   48.3237 H   0  0  0  0  0  0  0  0  0  0  0  0
   57.9680   30.8936   47.0086 H   0  0  0  0  0  0  0  0  0  0  0  0
   58.0894   32.1818   45.3757 H   0  0  0  0  0  0  0  0  0  0  0  0
   58.7608   31.5281   43.8432 H   0  0  0  0  0  0  0  0  0  0  0  0
   57.1698   32.3620   43.8432 H   0  0  0  0  0  0  0  0  0  0  0  0
   56.6409   26.9983   46.9639 H   0  0  0  0  0  0  0  0  0  0  0  0
   55.7451   26.4569   45.5041 H   0  0  0  0  0  0  0  0  0  0  0  0
   57.5414   26.4646   45.5041 H   0  0  0  0  0  0  0  0  0  0  0  0
   61.6621   31.0021   47.4702 H   0  0  0  0  0  0  0  0  0  0  0  0
   61.2554   30.7588   45.7090 H   0  0  0  0  0  0  0  0  0  0  0  0
   61.0879   33.1402   46.4124 H   0  0  0  0  0  0  0  0  0  0  0  0
   59.5196   32.4403   45.8323 H   0  0  0  0  0  0  0  0  0  0  0  0
  1  2  1  0
  2  3  1  0
  3  4  1  0
  4  5  2  0
  4  6  1  0
  6  7  1  0
  7  8  1  0
  8  9  1  0
  9 10  1  0
 10 11  2  0
 10 12  2  0
 10 13  1  0
 13 14  1  0
 14 15  1  0
 14 16  2  0
 16 17  1  0
 17 18  1  0
 18 19  1  0
  9 20  1  0
 20 21  1  0
 21  6  1  0
 18 13  2  0
  1 22  1  0
  1 23  1  0
  1 24  1  0
  2 25  1  0
  2 26  1  0
  6 27  1  0
  7 28  1  0
  7 29  1  0
  8 30  1  0
  8 31  1  0
 15 32  1  0
 15 33  1  0
 15 34  1  0
 19 35  1  0
 19 36  1  0
 19 37  1  0
 20 38  1  0
 20 39  1  0
 21 40  1  0
 21 41  1  0
M  CHG  1  17  -1
M  END
>  <UniqueID>  (15) 
14

>  <SMILES>  (15) 
CCOC(=O)C1CCN(S(=O)(=O)c2c(C)n[n-]c2C)CC1

>  <Energy>  (15) 
69.97778607544879

>  <Genealogy>  (15) 
CCOC(=O)C1CCN(S(=O)(=O)c2c(C)n[n-]c2C)CC1 (protonated)
CCOC(=O)C1CCN(S(=O)(=O)c2c(C)n[n-]c2C)CC1 (3D coordinates assigned)
CCOC(=O)C1CCN(S(=O)(=O)c2c(C)n[n-]c2C)CC1 (nonaromatic ring conformer: 69.97778607544879 kcal/mol)

>  <smiles>  (15) 
CCOC(=O)C1CCN(S(=O)(=O)c2c(C)n[nH]c2C)CC1

>  <score_type>  (15) 
oracle

>  <origin>  (15) 
adg

>  <m_score__min__energy>  (15) 
-9.0399999999999991

>  <m_primary>  (15) 
energy

$$$$
15:0
     RDKit          3D

 37 39  0  0  0  0  0  0  0  0999 V2000
   55.7144   29.0699   44.9930 H   0  0  0  0  0  0  0  0  0  0  0  0
   56.1710   29.8360   44.3490 C   0  0  0  0  0  0  0  0  0  0  0  0
   56.7130   30.9790   44.8470 N   0  0  0  0  0  0  0  0  0  0  0  0
   57.2000   31.7650   43.8620 C   0  0  0  0  0  0  0  0  0  0  0  0
   57.7950   32.9030   44.0600 N   0  0  0  0  0  0  0  0  0  0  0  0
   58.0440   33.5040   45.3390 C   0  0  0  0  0  0  0  0  0  0  0  0
   57.1150   34.1520   45.8890 O   0  0  0  0  0  0  0  0  0  0  0  0
   59.3320   33.3380   46.0560 C   0  0  0  0  0  0  0  0  0  0  0  0
   60.2920   34.3630   46.0530 C   0  0  0  0  0  0  0  0  0  0  0  0
   60.0853   35.3044   45.5228 H   0  0  0  0  0  0  0  0  0  0  0  0
   61.5070   34.1940   46.7190 C   0  0  0  0  0  0  0  0  0  0  0  0
   62.2472   35.0077   46.7198 H   0  0  0  0  0  0  0  0  0  0  0  0
   61.7900   32.9960   47.3860 C   0  0  0  0  0  0  0  0  0  0  0  0
   63.0470   32.8570   48.0760 C   0  0  0  0  0  0  0  0  0  0  0  0
   64.0570   32.7450   48.6300 N   0  0  0  0  0  0  0  0  0  0  0  0
   60.8440   31.9510   47.3720 C   0  0  0  0  0  0  0  0  0  0  0  0
   61.1630   30.3820   48.1950 S   0  0  0  0  0  0  0  0  0  0  0  0
   60.2040   29.4470   47.0020 C   0  0  0  0  0  0  0  0  0  0  0  0
   60.6730   29.2840   45.6940 C   0  0  0  0  0  0  0  0  0  0  0  0
   61.6353   29.7263   45.3968 H   0  0  0  0  0  0  0  0  0  0  0  0
   59.9210   28.5600   44.7640 C   0  0  0  0  0  0  0  0  0  0  0  0
   60.2942   28.4389   43.7364 H   0  0  0  0  0  0  0  0  0  0  0  0
   58.6970   27.9880   45.1300 C   0  0  0  0  0  0  0  0  0  0  0  0
   57.9790   27.2720   44.1600 O   0  0  0  0  0  0  0  0  0  0  0  0
   57.7770   25.8630   44.1900 C   0  0  0  0  0  0  0  0  0  0  0  0
   57.7281   25.5218   45.2346 H   0  0  0  0  0  0  0  0  0  0  0  0
   56.8344   25.6168   43.6793 H   0  0  0  0  0  0  0  0  0  0  0  0
   58.6125   25.3618   43.6793 H   0  0  0  0  0  0  0  0  0  0  0  0
   58.2320   28.1470   46.4500 C   0  0  0  0  0  0  0  0  0  0  0  0
   57.2729   27.7004   46.7511 H   0  0  0  0  0  0  0  0  0  0  0  0
   58.9860   28.8710   47.3790 C   0  0  0  0  0  0  0  0  0  0  0  0
   58.6202   28.9880   48.4098 H   0  0  0  0  0  0  0  0  0  0  0  0
   59.6220   32.1310   46.7110 C   0  0  0  0  0  0  0  0  0  0  0  0
   58.8817   31.3175   46.7053 H   0  0  0  0  0  0  0  0  0  0  0  0
   57.0000   31.0730   42.3460 S   0  0  0  0  0  0  0  0  0  0  0  0
   56.2360   29.7060   42.9650 C   0  0  0  0  0  0  0  0  0  0  0  0
   55.8546   28.8578   42.3775 H   0  0  0  0  0  0  0  0  0  0  0  0
  1  2  1  0
  2  3  1  0
  3  4  1  0
  4  5  2  0
  5  6  1  0
  6  7  2  0
  6  8  1  0
  8  9  2  0
  9 10  1  0
  9 11  1  0
 11 12  1  0
 11 13  2  0
 13 14  1  0
 14 15  3  0
 13 16  1  0
 16 17  1  0
 17 18  1  0
 18 19  2  0
 19 20  1  0
 19 21  1  0
 21 22  1  0
 21 23  2  0
 23 24  1  0
 24 25  1  0
 25 26  1  0
 25 27  1  0
 25 28  1  0
 23 29  1  0
 29 30  1  0
 29 31  2  0
 31 32  1  0
 16 33  2  0
 33 34  1  0
  4 35  1  0
 35 36  1  0
 36 37  1  0
 36  2  2  0
 33  8  1  0
 31 18  1  0
M  CHG  1   3  -1
M  END
>  <UniqueID>  (16) 
15

>  <SMILES>  (16) 
COc1ccc(Sc2cc(C(=O)/N=c3\[n-]ccs3)ccc2C#N)cc1

>  <Energy>  (16) 
71.9074257321996

>  <Genealogy>  (16) 
COc1ccc(Sc2cc(C(=O)N=c3[n-]ccs3)ccc2C#N)cc1 (protonated)
COc1ccc(Sc2cc(C(=O)/N=c3\[n-]ccs3)ccc2C#N)cc1 (cis-trans isomerization)
COc1ccc(Sc2cc(C(=O)/N=c3\[n-]ccs3)ccc2C#N)cc1 (3D coordinates assigned)
COc1ccc(Sc2cc(C(=O)/N=c3\[n-]ccs3)ccc2C#N)cc1 (optimized conformer: 71.9074257321996 kcal/mol)

>  <smiles>  (16) 
COc1ccc(Sc2cc(C(=O)N=c3[nH]ccs3)ccc2C#N)cc1

>  <score_type>  (16) 
oracle

>  <origin>  (16) 
adg

>  <m_score__min__energy>  (16) 
-9.5999999999999996

>  <m_primary>  (16) 
energy

$$$$
16:0
     RDKit          3D

 53 57  0  0  0  0  0  0  0  0999 V2000
   58.8640   30.6400   49.9920 C   0  0  0  0  0  0  0  0  0  0  0  0
   59.6640   29.7880   49.0130 C   0  0  0  0  0  0  0  0  0  0  0  0
   58.9320   29.6430   47.7490 N   0  0  0  0  0  0  0  0  0  0  0  0
   58.7610   30.5880   46.7830 C   0  0  0  0  0  0  0  0  0  0  0  0
   59.2300   31.9820   46.8790 C   0  0  0  0  0  0  0  0  0  0  0  0
   60.5990   32.2800   46.9160 C   0  0  0  0  0  0  0  0  0  0  0  0
   61.0080   33.6100   47.0470 C   0  0  0  0  0  0  0  0  0  0  0  0
   60.0530   34.6220   47.1520 C   0  0  0  0  0  0  0  0  0  0  0  0
   58.6970   34.2880   47.1290 C   0  0  0  0  0  0  0  0  0  0  0  0
   58.3200   32.9880   46.9990 N   0  0  0  0  0  0  0  0  0  0  0  0
   58.1840   30.0240   45.6420 C   0  0  0  0  0  0  0  0  0  0  0  0
   57.8600   30.7110   44.3730 C   0  0  0  0  0  0  0  0  0  0  0  0
   58.4480   31.9490   44.0660 C   0  0  0  0  0  0  0  0  0  0  0  0
   58.1520   32.5910   42.8610 C   0  0  0  0  0  0  0  0  0  0  0  0
   57.2690   32.0030   41.9500 C   0  0  0  0  0  0  0  0  0  0  0  0
   56.6830   30.7690   42.2460 C   0  0  0  0  0  0  0  0  0  0  0  0
   56.9760   30.1240   43.4510 C   0  0  0  0  0  0  0  0  0  0  0  0
   58.0000   28.6870   45.9440 C   0  0  0  0  0  0  0  0  0  0  0  0
   57.4490   27.6460   45.1920 C   0  0  0  0  0  0  0  0  0  0  0  0
   57.4110   26.3610   45.7670 C   0  0  0  0  0  0  0  0  0  0  0  0
   57.9220   26.1480   47.0650 C   0  0  0  0  0  0  0  0  0  0  0  0
   58.4590   27.2170   47.8050 C   0  0  0  0  0  0  0  0  0  0  0  0
   58.4700   28.4870   47.2190 C   0  0  0  0  0  0  0  0  0  0  0  0
   57.9050   24.8700   47.6170 O   0  0  0  0  0  0  0  0  0  0  0  0
   57.3370   23.7770   46.9590 C   0  0  0  0  0  0  0  0  0  0  0  0
   57.3940   22.6440   47.5080 O   0  0  0  0  0  0  0  0  0  0  0  0
   56.6010   23.9410   45.6380 C   0  0  0  0  0  0  0  0  0  0  0  0
   55.0910   23.8180   45.8920 C   0  0  0  0  0  0  0  0  0  0  0  0
   57.0560   22.8490   44.6550 C   0  0  0  0  0  0  0  0  0  0  0  0
   56.8680   25.2550   45.0330 N   0  0  0  0  0  0  0  0  0  0  0  0
   59.1275   30.3594   51.0225 H   0  0  0  0  0  0  0  0  0  0  0  0
   59.0984   31.7024   49.8299 H   0  0  0  0  0  0  0  0  0  0  0  0
   57.7889   30.4729   49.8299 H   0  0  0  0  0  0  0  0  0  0  0  0
   60.6326   30.2717   48.8182 H   0  0  0  0  0  0  0  0  0  0  0  0
   59.8223   28.7917   49.4516 H   0  0  0  0  0  0  0  0  0  0  0  0
   61.3446   31.4746   46.8426 H   0  0  0  0  0  0  0  0  0  0  0  0
   62.0794   33.8583   47.0673 H   0  0  0  0  0  0  0  0  0  0  0  0
   60.3649   35.6721   47.2519 H   0  0  0  0  0  0  0  0  0  0  0  0
   57.9345   35.0761   47.2160 H   0  0  0  0  0  0  0  0  0  0  0  0
   59.1450   32.4154   44.7778 H   0  0  0  0  0  0  0  0  0  0  0  0
   58.6147   33.5614   42.6283 H   0  0  0  0  0  0  0  0  0  0  0  0
   57.0360   32.5106   41.0023 H   0  0  0  0  0  0  0  0  0  0  0  0
   55.9898   30.3045   41.5292 H   0  0  0  0  0  0  0  0  0  0  0  0
   56.5127   29.1527   43.6788 H   0  0  0  0  0  0  0  0  0  0  0  0
   57.0563   27.8251   44.1802 H   0  0  0  0  0  0  0  0  0  0  0  0
   58.8595   27.0585   48.8172 H   0  0  0  0  0  0  0  0  0  0  0  0
   54.9015   23.8026   46.9754 H   0  0  0  0  0  0  0  0  0  0  0  0
   54.5722   24.6769   45.4412 H   0  0  0  0  0  0  0  0  0  0  0  0
   54.7180   22.8865   45.4412 H   0  0  0  0  0  0  0  0  0  0  0  0
   57.4194   21.9769   45.2183 H   0  0  0  0  0  0  0  0  0  0  0  0
   56.2079   22.5491   44.0218 H   0  0  0  0  0  0  0  0  0  0  0  0
   57.8661   23.2400   44.0218 H   0  0  0  0  0  0  0  0  0  0  0  0
   56.5180   25.4300   44.0620 H   0  0  0  0  0  0  0  0  0  0  0  0
  1  2  1  0
  2  3  1  0
  3  4  1  0
  4  5  1  0
  5  6  2  0
  6  7  1  0
  7  8  2  0
  8  9  1  0
  9 10  2  0
  4 11  2  0
 11 12  1  0
 12 13  2  0
 13 14  1  0
 14 15  2  0
 15 16  1  0
 16 17  2  0
 11 18  1  0
 18 19  2  0
 19 20  1  0
 20 21  2  0
 21 22  1  0
 22 23  2  0
 21 24  1  0
 24 25  1  0
 25 26  2  0
 25 27  1  0
 27 28  1  0
 27 29  1  0
 27 30  1  0
 23  3  1  0
 10  5  1  0
 17 12  1  0
 23 18  1  0
 30 20  1  0
  1 31  1  0
  1 32  1  0
  1 33  1  0
  2 34  1  0
  2 35  1  0
  6 36  1  0
  7 37  1  0
  8 38  1  0
  9 39  1  0
 13 40  1  0
 14 41  1  0
 15 42  1  0
 16 43  1  0
 17 44  1  0
 19 45  1  0
 22 46  1  0
 28 47  1  0
 28 48  1  0
 28 49  1  0
 29 50  1  0
 29 51  1  0
 29 52  1  0
 30 53  1  0
M  END
>  <UniqueID>  (17) 
16

>  <SMILES>  (17) 
CCn1c(-c2ccccn2)c(-c2ccccc2)c2cc3c(cc21)OC(=O)C(C)(C)N3

>  <Energy>  (17) 
98.58709284093834

>  <Genealogy>  (17) 
CCn1c(-c2ccccn2)c(-c2ccccc2)c2cc3c(cc21)OC(=O)C(C)(C)N3 (3D coordinates assigned)
CCn1c(-c2ccccn2)c(-c2ccccc2)c2cc3c(cc21)OC(=O)C(C)(C)N3 (nonaromatic ring conformer: 98.58709284093834 kcal/mol)

>  <smiles>  (17) 
CCn1c(-c2ccccn2)c(-c2ccccc2)c2cc3c(cc21)OC(=O)C(C)(C)N3

>  <score_type>  (17) 
oracle

>  <origin>  (17) 
adg

>  <m_score__min__energy>  (17) 
-8.9399999999999995

>  <m_primary>  (17) 
energy

$$$$
17:0
     RDKit          3D

 51 53  0  0  0  0  0  0  0  0999 V2000
   55.7840   28.0040   44.6000 H   0  0  0  0  0  0  0  0  0  0  0  0
   55.8990   27.7290   45.5980 N   0  0  0  0  0  0  0  0  0  0  0  0
   55.9410   26.5000   46.0060 C   0  0  0  0  0  0  0  0  0  0  0  0
   54.9340   25.6280   45.7480 N   0  0  0  0  0  0  0  0  0  0  0  0
   55.3720   24.4920   46.3180 C   0  0  0  0  0  0  0  0  0  0  0  0
   54.7300   23.2570   46.3400 C   0  0  0  0  0  0  0  0  0  0  0  0
   53.7446   23.1204   45.8707 H   0  0  0  0  0  0  0  0  0  0  0  0
   55.3830   22.1900   46.9820 C   0  0  0  0  0  0  0  0  0  0  0  0
   54.9006   21.2021   47.0193 H   0  0  0  0  0  0  0  0  0  0  0  0
   56.6530   22.3700   47.5810 C   0  0  0  0  0  0  0  0  0  0  0  0
   57.2560   21.2660   48.2000 O   0  0  0  0  0  0  0  0  0  0  0  0
   57.2090   19.9360   47.6930 C   0  0  0  0  0  0  0  0  0  0  0  0
   57.1839   19.2246   48.5316 H   0  0  0  0  0  0  0  0  0  0  0  0
   56.3058   19.8098   47.0779 H   0  0  0  0  0  0  0  0  0  0  0  0
   58.1010   19.7463   47.0779 H   0  0  0  0  0  0  0  0  0  0  0  0
   57.2730   23.6430   47.5380 C   0  0  0  0  0  0  0  0  0  0  0  0
   58.2590   23.8093   47.9964 H   0  0  0  0  0  0  0  0  0  0  0  0
   56.5930   24.6810   46.8950 C   0  0  0  0  0  0  0  0  0  0  0  0
   56.9770   25.9570   46.7110 N   0  0  0  0  0  0  0  0  0  0  0  0
   58.2410   26.5700   47.1340 C   0  0  0  0  0  0  0  0  0  0  0  0
   58.0441   27.6013   47.4621 H   0  0  0  0  0  0  0  0  0  0  0  0
   58.6558   25.9660   47.9544 H   0  0  0  0  0  0  0  0  0  0  0  0
   59.2730   26.5990   45.9930 C   0  0  0  0  0  0  0  0  0  0  0  0
   60.1138   25.9453   46.2680 H   0  0  0  0  0  0  0  0  0  0  0  0
   58.7575   26.2575   45.0832 H   0  0  0  0  0  0  0  0  0  0  0  0
   59.8270   28.0070   45.6970 C   0  0  0  0  0  0  0  0  0  0  0  0
   59.4827   28.6899   46.4876 H   0  0  0  0  0  0  0  0  0  0  0  0
   60.9234   27.9234   45.6662 H   0  0  0  0  0  0  0  0  0  0  0  0
   59.3730   28.5760   44.3230 C   0  0  0  0  0  0  0  0  0  0  0  0
   59.3342   29.6720   44.4081 H   0  0  0  0  0  0  0  0  0  0  0  0
   60.1075   28.2090   43.5910 H   0  0  0  0  0  0  0  0  0  0  0  0
   58.0470   28.1090   43.8330 N   0  0  2  0  0  0  0  0  0  0  0  0
   57.5570   27.7470   44.6860 H   0  0  0  0  0  0  0  0  0  0  0  0
   58.1140   26.9470   42.9260 C   0  0  0  0  0  0  0  0  0  0  0  0
   58.1673   26.0219   43.5187 H   0  0  0  0  0  0  0  0  0  0  0  0
   57.2156   26.9248   42.2916 H   0  0  0  0  0  0  0  0  0  0  0  0
   59.0090   27.0282   42.2916 H   0  0  0  0  0  0  0  0  0  0  0  0
   57.1580   29.1920   43.3370 C   0  0  0  0  0  0  0  0  0  0  0  0
   57.2294   29.2188   42.2396 H   0  0  0  0  0  0  0  0  0  0  0  0
   56.1464   28.9546   43.6981 H   0  0  0  0  0  0  0  0  0  0  0  0
   57.4890   30.5700   43.8650 C   0  0  0  0  0  0  0  0  0  0  0  0
   57.8350   31.6070   42.9840 C   0  0  0  0  0  0  0  0  0  0  0  0
   57.8606   31.4190   41.9005 H   0  0  0  0  0  0  0  0  0  0  0  0
   58.1470   32.8770   43.4770 C   0  0  0  0  0  0  0  0  0  0  0  0
   58.4260   33.6826   42.7819 H   0  0  0  0  0  0  0  0  0  0  0  0
   58.1050   33.1250   44.8520 C   0  0  0  0  0  0  0  0  0  0  0  0
   58.3537   34.1243   45.2387 H   0  0  0  0  0  0  0  0  0  0  0  0
   57.7470   32.1030   45.7350 C   0  0  0  0  0  0  0  0  0  0  0  0
   57.7115   32.2993   46.8168 H   0  0  0  0  0  0  0  0  0  0  0  0
   57.4340   30.8320   45.2460 C   0  0  0  0  0  0  0  0  0  0  0  0
   57.1434   30.0330   45.9439 H   0  0  0  0  0  0  0  0  0  0  0  0
  1  2  1  0
  2  3  2  0
  3  4  1  0
  4  5  1  0
  5  6  2  0
  6  7  1  0
  6  8  1  0
  8  9  1  0
  8 10  2  0
 10 11  1  0
 11 12  1  0
 12 13  1  0
 12 14  1  0
 12 15  1  0
 10 16  1  0
 16 17  1  0
 16 18  2  0
 18 19  1  0
 19 20  1  0
 20 21  1  0
 20 22  1  0
 20 23  1  0
 23 24  1  0
 23 25  1  0
 23 26  1  0
 26 27  1  0
 26 28  1  0
 26 29  1  0
 29 30  1  0
 29 31  1  0
 29 32  1  0
 32 33  1  1
 32 34  1  0
 34 35  1  0
 34 36  1  0
 34 37  1  0
 32 38  1  0
 38 39  1  0
 38 40  1  0
 38 41  1  0
 41 42  2  0
 42 43  1  0
 42 44  1  0
 44 45  1  0
 44 46  2  0
 46 47  1  0
 46 48  1  0
 48 49  1  0
 48 50  2  0
 50 51  1  0
 19  3  1  0
 50 41  1  0
 18  5  1  0
M  CHG  2   4  -1  32   1
M  END
>  <UniqueID>  (18) 
17

>  <SMILES>  (18) 
[H]/N=c1/[n-]c2ccc(OC)cc2n1CCCC[N@H+](C)Cc1ccccc1

>  <Energy>  (18) 
96.9728887271905

>  <Genealogy>  (18) 
COc1ccc2[n-]c(=N)n(CCCC[NH+](C)Cc3ccccc3)c2c1 (protonated)
COc1ccc2[n-]c(=N)n(CCCC[N@H+](C)Cc3ccccc3)c2c1 (chirality)
[H]/N=c1/[n-]c2ccc(OC)cc2n1CCCC[N@H+](C)Cc1ccccc1 (cis-trans isomerization)
[H]/N=c1/[n-]c2ccc(OC)cc2n1CCCC[N@H+](C)Cc1ccccc1 (3D coordinates assigned)
[H]/N=c1/[n-]c2ccc(OC)cc2n1CCCC[N@H+](C)Cc1ccccc1 (optimized conformer: 96.9728887271905 kcal/mol)

>  <smiles>  (18) 
COc1ccc2[nH]c(=N)n(CCCCN(C)Cc3ccccc3)c2c1

>  <score_type>  (18) 
oracle

>  <origin>  (18) 
adg

>  <m_score__min__energy>  (18) 
-7.4299999999999997

>  <m_primary>  (18) 
energy

$$$$
18:0
     RDKit          3D

 53 55  0  0  0  0  0  0  0  0999 V2000
   57.6090   32.8360   45.6110 C   0  0  0  0  0  0  0  0  0  0  0  0
   58.6590   31.8770   46.1240 C   0  0  0  0  0  0  0  0  0  0  0  0
   58.3280   30.5160   46.3050 C   0  0  0  0  0  0  0  0  0  0  0  0
   57.0290   30.0770   46.0090 O   0  0  0  0  0  0  0  0  0  0  0  0
   56.6100   29.5580   44.7760 C   0  0  0  0  0  0  0  0  0  0  0  0
   55.3870   29.3790   44.5300 O   0  0  0  0  0  0  0  0  0  0  0  0
   57.6290   29.2250   43.7260 C   0  0  0  0  0  0  0  0  0  0  0  0
   57.8430   27.7110   43.5670 C   0  0  0  0  0  0  0  0  0  0  0  0
   58.8210   27.1020   44.5850 C   0  0  0  0  0  0  0  0  0  0  0  0
   58.2940   25.8210   45.1120 N   0  0  0  0  0  0  0  0  0  0  0  0
   57.2950   25.2200   44.1950 C   0  0  0  0  0  0  0  0  0  0  0  0
   56.4470   24.1700   44.9180 C   0  0  0  0  0  0  0  0  0  0  0  0
   55.6420   24.7860   45.9990 N   0  0  0  0  0  0  0  0  0  0  0  0
   55.2750   23.7770   47.0050 C   0  0  0  0  0  0  0  0  0  0  0  0
   56.2910   25.9660   46.6250 C   0  0  0  0  0  0  0  0  0  0  0  0
   57.8240   25.9160   46.5190 C   0  0  0  0  0  0  0  0  0  0  0  0
   59.3130   29.6130   46.7320 C   0  0  0  0  0  0  0  0  0  0  0  0
   60.6030   30.0510   47.0110 C   0  0  0  0  0  0  0  0  0  0  0  0
   60.9370   31.4050   46.8980 C   0  0  0  0  0  0  0  0  0  0  0  0
   59.9590   32.3360   46.4730 C   0  0  0  0  0  0  0  0  0  0  0  0
   60.3510   33.7940   46.3340 C   0  0  0  0  0  0  0  0  0  0  0  0
   61.3410   34.2110   47.4220 C   0  0  0  0  0  0  0  0  0  0  0  0
   62.5230   33.2880   47.4460 C   0  0  0  0  0  0  0  0  0  0  0  0
   63.6250   33.7270   47.7390 O   0  0  0  0  0  0  0  0  0  0  0  0
   62.3690   31.8190   47.1590 C   0  0  0  0  0  0  0  0  0  0  0  0
   57.0945   33.3059   46.4621 H   0  0  0  0  0  0  0  0  0  0  0  0
   58.0900   33.6131   44.9988 H   0  0  0  0  0  0  0  0  0  0  0  0
   56.8786   32.2868   44.9988 H   0  0  0  0  0  0  0  0  0  0  0  0
   57.2898   29.6356   42.7635 H   0  0  0  0  0  0  0  0  0  0  0  0
   58.5868   29.6650   44.0407 H   0  0  0  0  0  0  0  0  0  0  0  0
   56.8699   27.2112   43.6820 H   0  0  0  0  0  0  0  0  0  0  0  0
   58.2863   27.5574   42.5721 H   0  0  0  0  0  0  0  0  0  0  0  0
   59.7881   26.9202   44.0933 H   0  0  0  0  0  0  0  0  0  0  0  0
   58.9460   27.8053   45.4215 H   0  0  0  0  0  0  0  0  0  0  0  0
   56.6358   26.0129   43.8119 H   0  0  0  0  0  0  0  0  0  0  0  0
   57.8294   24.7295   43.3681 H   0  0  0  0  0  0  0  0  0  0  0  0
   55.7704   23.6936   44.1932 H   0  0  0  0  0  0  0  0  0  0  0  0
   57.1209   23.4248   45.3658 H   0  0  0  0  0  0  0  0  0  0  0  0
   55.4259   24.1919   48.0125 H   0  0  0  0  0  0  0  0  0  0  0  0
   54.2183   23.4994   46.8773 H   0  0  0  0  0  0  0  0  0  0  0  0
   55.9064   22.8854   46.8773 H   0  0  0  0  0  0  0  0  0  0  0  0
   55.9315   26.8755   46.1216 H   0  0  0  0  0  0  0  0  0  0  0  0
   56.0283   25.9663   47.6932 H   0  0  0  0  0  0  0  0  0  0  0  0
   58.2388   26.8302   46.9686 H   0  0  0  0  0  0  0  0  0  0  0  0
   58.1666   25.0143   47.0477 H   0  0  0  0  0  0  0  0  0  0  0  0
   59.0625   28.5481   46.8472 H   0  0  0  0  0  0  0  0  0  0  0  0
   61.3686   29.3256   47.3237 H   0  0  0  0  0  0  0  0  0  0  0  0
   60.8160   33.9474   45.3490 H   0  0  0  0  0  0  0  0  0  0  0  0
   59.4441   34.4079   46.4370 H   0  0  0  0  0  0  0  0  0  0  0  0
   61.6872   35.2357   47.2216 H   0  0  0  0  0  0  0  0  0  0  0  0
   60.8350   34.1627   48.3975 H   0  0  0  0  0  0  0  0  0  0  0  0
   62.9707   31.5720   46.2719 H   0  0  0  0  0  0  0  0  0  0  0  0
   62.7062   31.2759   48.0542 H   0  0  0  0  0  0  0  0  0  0  0  0
  1  2  1  0
  2  3  2  0
  3  4  1  0
  4  5  1  0
  5  6  2  0
  5  7  1  0
  7  8  1  0
  8  9  1  0
  9 10  1  0
 10 11  1  0
 11 12  1  0
 12 13  1  0
 13 14  1  0
 13 15  1  0
 15 16  1  0
  3 17  1  0
 17 18  2  0
 18 19  1  0
 19 20  2  0
 20 21  1  0
 21 22  1  0
 22 23  1  0
 23 24  2  0
 23 25  1  0
 20  2  1  0
 16 10  1  0
 25 19  1  0
  1 26  1  0
  1 27  1  0
  1 28  1  0
  7 29  1  0
  7 30  1  0
  8 31  1  0
  8 32  1  0
  9 33  1  0
  9 34  1  0
 11 35  1  0
 11 36  1  0
 12 37  1  0
 12 38  1  0
 14 39  1  0
 14 40  1  0
 14 41  1  0
 15 42  1  0
 15 43  1  0
 16 44  1  0
 16 45  1  0
 17 46  1  0
 18 47  1  0
 21 48  1  0
 21 49  1  0
 22 50  1  0
 22 51  1  0
 25 52  1  0
 25 53  1  0
M  END
>  <UniqueID>  (19) 
18

>  <SMILES>  (19) 
Cc1c(OC(=O)CCCN2CCN(C)CC2)ccc2c1CCC(=O)C2

>  <Energy>  (19) 
70.89601302046506

>  <Genealogy>  (19) 
Cc1c(OC(=O)CCCN2CCN(C)CC2)ccc2c1CCC(=O)C2 (3D coordinates assigned)
Cc1c(OC(=O)CCCN2CCN(C)CC2)ccc2c1CCC(=O)C2 (nonaromatic ring conformer: 70.89601302046506 kcal/mol)

>  <smiles>  (19) 
Cc1c(OC(=O)CCCN2CCN(C)CC2)ccc2c1CCC(=O)C2

>  <score_type>  (19) 
oracle

>  <origin>  (19) 
adg

>  <m_score__min__energy>  (19) 
-8.8800000000000008

>  <m_primary>  (19) 
energy

$$$$
20:0
     RDKit          3D

 59 62  0  0  0  0  0  0  0  0999 V2000
   63.1580   33.0760   46.8010 C   0  0  0  0  0  0  0  0  0  0  0  0
   62.4460   32.0880   47.7230 C   0  0  0  0  0  0  0  0  0  0  0  0
   62.7350   32.3980   49.1420 N   0  0  0  0  0  0  0  0  0  0  0  0
   63.0650   33.8320   49.3170 C   0  0  0  0  0  0  0  0  0  0  0  0
   63.0500   34.2110   50.7960 C   0  0  0  0  0  0  0  0  0  0  0  0
   63.8250   31.5390   49.6640 C   0  0  0  0  0  0  0  0  0  0  0  0
   63.5090   31.0520   51.0870 C   0  0  0  0  0  0  0  0  0  0  0  0
   62.6020   29.8110   51.1000 C   0  0  0  0  0  0  0  0  0  0  0  0
   61.6570   29.8210   49.9830 N   0  0  0  0  0  0  0  0  0  0  0  0
   61.0030   28.6200   49.5450 C   0  0  0  0  0  0  0  0  0  0  0  0
   61.1670   27.5520   50.1960 O   0  0  0  0  0  0  0  0  0  0  0  0
   60.1240   28.6130   48.3480 C   0  0  0  0  0  0  0  0  0  0  0  0
   59.7730   27.4070   47.7140 C   0  0  0  0  0  0  0  0  0  0  0  0
   58.9610   27.4100   46.5790 C   0  0  0  0  0  0  0  0  0  0  0  0
   58.4650   28.6120   46.0740 C   0  0  0  0  0  0  0  0  0  0  0  0
   57.7010   28.6130   44.9410 N   0  0  0  0  0  0  0  0  0  0  0  0
   57.2130   29.7660   44.4020 C   0  0  0  0  0  0  0  0  0  0  0  0
   56.3710   29.7250   43.1670 C   0  0  0  0  0  0  0  0  0  0  0  0
   57.4840   30.9620   45.0680 C   0  0  0  0  0  0  0  0  0  0  0  0
   57.0630   32.1890   44.7120 N   0  0  0  0  0  0  0  0  0  0  0  0
   57.5120   33.0190   45.6440 N   0  0  0  0  0  0  0  0  0  0  0  0
   58.1990   32.2870   46.5470 C   0  0  0  0  0  0  0  0  0  0  0  0
   58.7130   32.8700   47.7960 C   0  0  0  0  0  0  0  0  0  0  0  0
   58.4250   32.2350   49.0140 C   0  0  0  0  0  0  0  0  0  0  0  0
   58.9030   32.7670   50.2150 C   0  0  0  0  0  0  0  0  0  0  0  0
   59.6810   33.9270   50.2070 C   0  0  0  0  0  0  0  0  0  0  0  0
   59.9910   34.5540   48.9970 C   0  0  0  0  0  0  0  0  0  0  0  0
   59.5180   34.0280   47.7880 C   0  0  0  0  0  0  0  0  0  0  0  0
   59.9550   34.8350   46.2870 Cl  0  0  0  0  0  0  0  0  0  0  0  0
   58.2100   30.9750   46.1990 N   0  0  0  0  0  0  0  0  0  0  0  0
   58.7590   29.8360   46.7280 C   0  0  0  0  0  0  0  0  0  0  0  0
   59.6160   29.8250   47.8450 C   0  0  0  0  0  0  0  0  0  0  0  0
   63.6949   33.8210   47.4065 H   0  0  0  0  0  0  0  0  0  0  0  0
   63.8746   32.5341   46.1662 H   0  0  0  0  0  0  0  0  0  0  0  0
   62.4173   33.5843   46.1662 H   0  0  0  0  0  0  0  0  0  0  0  0
   61.3611   32.1520   47.5527 H   0  0  0  0  0  0  0  0  0  0  0  0
   62.8068   31.0728   47.5012 H   0  0  0  0  0  0  0  0  0  0  0  0
   64.0662   34.0254   48.9045 H   0  0  0  0  0  0  0  0  0  0  0  0
   62.3124   34.4358   48.7888 H   0  0  0  0  0  0  0  0  0  0  0  0
   63.0861   33.2982   51.4088 H   0  0  0  0  0  0  0  0  0  0  0  0
   63.9240   34.8394   51.0224 H   0  0  0  0  0  0  0  0  0  0  0  0
   62.1291   34.7684   51.0224 H   0  0  0  0  0  0  0  0  0  0  0  0
   63.9437   30.6674   49.0036 H   0  0  0  0  0  0  0  0  0  0  0  0
   64.7527   32.1293   49.6936 H   0  0  0  0  0  0  0  0  0  0  0  0
   64.4540   30.8029   51.5920 H   0  0  0  0  0  0  0  0  0  0  0  0
   62.9732   31.8614   51.6045 H   0  0  0  0  0  0  0  0  0  0  0  0
   63.2291   28.9101   51.0286 H   0  0  0  0  0  0  0  0  0  0  0  0
   62.0260   29.8164   52.0371 H   0  0  0  0  0  0  0  0  0  0  0  0
   61.3490   30.7390   49.5950 H   0  0  0  0  0  0  0  0  0  0  0  0
   60.1422   26.4524   48.1169 H   0  0  0  0  0  0  0  0  0  0  0  0
   58.7113   26.4615   46.0810 H   0  0  0  0  0  0  0  0  0  0  0  0
   55.3090   29.6733   43.4488 H   0  0  0  0  0  0  0  0  0  0  0  0
   56.5486   30.6329   42.5718 H   0  0  0  0  0  0  0  0  0  0  0  0
   56.6360   28.8387   42.5718 H   0  0  0  0  0  0  0  0  0  0  0  0
   57.8211   31.3156   49.0236 H   0  0  0  0  0  0  0  0  0  0  0  0
   58.6661   32.2713   51.1680 H   0  0  0  0  0  0  0  0  0  0  0  0
   60.0501   34.3475   51.1541 H   0  0  0  0  0  0  0  0  0  0  0  0
   60.6088   35.4641   48.9941 H   0  0  0  0  0  0  0  0  0  0  0  0
   59.8912   30.7735   48.3294 H   0  0  0  0  0  0  0  0  0  0  0  0
  1  2  1  0
  2  3  1  0
  3  4  1  0
  4  5  1  0
  3  6  1  0
  6  7  1  0
  7  8  1  0
  8  9  1  0
  9 10  1  0
 10 11  2  0
 10 12  1  0
 12 13  2  0
 13 14  1  0
 14 15  2  0
 15 16  1  0
 16 17  2  0
 17 18  1  0
 17 19  1  0
 19 20  2  0
 20 21  1  0
 21 22  2  0
 22 23  1  0
 23 24  2  0
 24 25  1  0
 25 26  2  0
 26 27  1  0
 27 28  2  0
 28 29  1  0
 22 30  1  0
 30 31  1  0
 31 32  2  0
 32 12  1  0
 31 15  1  0
 30 19  1  0
 28 23  1  0
  1 33  1  0
  1 34  1  0
  1 35  1  0
  2 36  1  0
  2 37  1  0
  4 38  1  0
  4 39  1  0
  5 40  1  0
  5 41  1  0
  5 42  1  0
  6 43  1  0
  6 44  1  0
  7 45  1  0
  7 46  1  0
  8 47  1  0
  8 48  1  0
  9 49  1  0
 13 50  1  0
 14 51  1  0
 18 52  1  0
 18 53  1  0
 18 54  1  0
 24 55  1  0
 25 56  1  0
 26 57  1  0
 27 58  1  0
 32 59  1  0
M  END
>  <UniqueID>  (20) 
19

>  <SMILES>  (20) 
CCN(CC)CCCNC(=O)c1ccc2nc(C)c3nnc(-c4ccccc4Cl)n3c2c1

>  <Energy>  (20) 
111.69723708579731

>  <Genealogy>  (20) 
CCN(CC)CCCNC(=O)c1ccc2nc(C)c3nnc(-c4ccccc4Cl)n3c2c1 (3D coordinates assigned)
CCN(CC)CCCNC(=O)c1ccc2nc(C)c3nnc(-c4ccccc4Cl)n3c2c1 (optimized conformer: 111.69723708579731 kcal/mol)

>  <smiles>  (20) 
CCN(CC)CCCNC(=O)c1ccc2nc(C)c3nnc(-c4ccccc4Cl)n3c2c1

>  <score_type>  (20) 
oracle

>  <origin>  (20) 
adg

>  <m_score__min__energy>  (20) 
-8.4600000000000009

>  <m_primary>  (20) 
energy

$$$$
21:0
     RDKit          3D

 44 45  0  0  0  0  0  0  0  0999 V2000
   57.1790   30.3290   43.9560 C   0  0  0  0  0  0  0  0  0  0  0  0
   57.3370   30.9270   45.2380 O   0  0  0  0  0  0  0  0  0  0  0  0
   57.9890   32.1480   45.4740 C   0  0  0  0  0  0  0  0  0  0  0  0
   57.4300   33.3760   45.0690 C   0  0  0  0  0  0  0  0  0  0  0  0
   58.0900   34.5780   45.3410 C   0  0  0  0  0  0  0  0  0  0  0  0
   59.3090   34.5680   46.0180 C   0  0  0  0  0  0  0  0  0  0  0  0
   59.8770   33.3580   46.4210 C   0  0  0  0  0  0  0  0  0  0  0  0
   59.2330   32.1410   46.1410 C   0  0  0  0  0  0  0  0  0  0  0  0
   59.8460   30.8470   46.6120 C   0  0  0  0  0  0  0  0  0  0  0  0
   58.7890   29.9060   46.9770 N   0  0  0  0  0  0  0  0  0  0  0  0
   58.9730   28.4830   46.9600 C   0  0  0  0  0  0  0  0  0  0  0  0
   60.1320   27.9870   46.9170 O   0  0  0  0  0  0  0  0  0  0  0  0
   57.7830   27.5710   46.9340 C   0  0  0  0  0  0  0  0  0  0  0  0
   58.1410   26.1830   47.4750 C   0  0  0  0  0  0  0  0  0  0  0  0
   57.2150   25.1670   46.9820 N   0  0  0  0  0  0  0  0  0  0  0  0
   56.3630   25.3500   45.8470 C   0  0  0  0  0  0  0  0  0  0  0  0
   55.1380   25.6000   46.0010 O   0  0  0  0  0  0  0  0  0  0  0  0
   56.9240   25.1950   44.4700 C   0  0  0  0  0  0  0  0  0  0  0  0
   57.0760   23.7700   44.1430 N   0  0  0  0  0  0  0  0  0  0  0  0
   58.2220   23.1190   44.5090 C   0  0  0  0  0  0  0  0  0  0  0  0
   58.4040   21.7750   44.1950 C   0  0  0  0  0  0  0  0  0  0  0  0
   57.4020   21.1150   43.4930 C   0  0  0  0  0  0  0  0  0  0  0  0
   56.2820   21.7840   43.1270 N   0  0  0  0  0  0  0  0  0  0  0  0
   56.1110   23.0970   43.4370 C   0  0  0  0  0  0  0  0  0  0  0  0
   55.0570   23.6810   43.0650 O   0  0  0  0  0  0  0  0  0  0  0  0
   56.8997   29.2719   44.0764 H   0  0  0  0  0  0  0  0  0  0  0  0
   56.3893   30.8559   43.4004 H   0  0  0  0  0  0  0  0  0  0  0  0
   58.1259   30.3971   43.4004 H   0  0  0  0  0  0  0  0  0  0  0  0
   56.4682   33.3892   44.5354 H   0  0  0  0  0  0  0  0  0  0  0  0
   57.6472   35.5326   45.0206 H   0  0  0  0  0  0  0  0  0  0  0  0
   59.8241   35.5154   46.2350 H   0  0  0  0  0  0  0  0  0  0  0  0
   60.8351   33.3574   46.9614 H   0  0  0  0  0  0  0  0  0  0  0  0
   60.4564   30.4162   45.8046 H   0  0  0  0  0  0  0  0  0  0  0  0
   60.4795   31.0420   47.4898 H   0  0  0  0  0  0  0  0  0  0  0  0
   57.8260   30.2870   47.1170 H   0  0  0  0  0  0  0  0  0  0  0  0
   56.9848   28.0039   47.5549 H   0  0  0  0  0  0  0  0  0  0  0  0
   57.4469   27.4643   45.8921 H   0  0  0  0  0  0  0  0  0  0  0  0
   59.1607   25.9249   47.1532 H   0  0  0  0  0  0  0  0  0  0  0  0
   58.0748   26.2102   48.5727 H   0  0  0  0  0  0  0  0  0  0  0  0
   56.2426   25.6639   43.7448 H   0  0  0  0  0  0  0  0  0  0  0  0
   57.9098   25.6811   44.4264 H   0  0  0  0  0  0  0  0  0  0  0  0
   59.0066   23.6622   45.0562 H   0  0  0  0  0  0  0  0  0  0  0  0
   59.3208   21.2468   44.4959 H   0  0  0  0  0  0  0  0  0  0  0  0
   57.5181   20.0520   43.2352 H   0  0  0  0  0  0  0  0  0  0  0  0
  1  2  1  0
  2  3  1  0
  3  4  2  0
  4  5  1  0
  5  6  2  0
  6  7  1  0
  7  8  2  0
  8  9  1  0
  9 10  1  0
 10 11  1  0
 11 12  2  0
 11 13  1  0
 13 14  1  0
 14 15  1  0
 15 16  1  0
 16 17  2  0
 16 18  1  0
 18 19  1  0
 19 20  1  0
 20 21  2  0
 21 22  1  0
 22 23  2  0
 23 24  1  0
 24 25  2  0
  8  3  1  0
 24 19  1  0
  1 26  1  0
  1 27  1  0
  1 28  1  0
  4 29  1  0
  5 30  1  0
  6 31  1  0
  7 32  1  0
  9 33  1  0
  9 34  1  0
 10 35  1  0
 13 36  1  0
 13 37  1  0
 14 38  1  0
 14 39  1  0
 18 40  1  0
 18 41  1  0
 20 42  1  0
 21 43  1  0
 22 44  1  0
M  CHG  1  15  -1
M  END
>  <UniqueID>  (21) 
20

>  <SMILES>  (21) 
COc1ccccc1CNC(=O)CC[N-]C(=O)Cn1cccnc1=O

>  <Energy>  (21) 
33.701566811232105

>  <Genealogy>  (21) 
COc1ccccc1CNC(=O)CC[N-]C(=O)Cn1cccnc1=O (protonated)
COc1ccccc1CNC(=O)CC[N-]C(=O)Cn1cccnc1=O (3D coordinates assigned)
COc1ccccc1CNC(=O)CC[N-]C(=O)Cn1cccnc1=O (optimized conformer: 33.701566811232105 kcal/mol)

>  <smiles>  (21) 
COc1ccccc1CNC(=O)CCNC(=O)Cn1cccnc1=O

>  <score_type>  (21) 
oracle

>  <origin>  (21) 
adg

>  <m_score__min__energy>  (21) 
-9.6699999999999999

>  <m_primary>  (21) 
energy

$$$$
22:0
     RDKit          3D

 38 40  0  0  0  0  0  0  0  0999 V2000
   56.9280   30.4540   43.5530 C   0  0  0  0  0  0  0  0  0  0  0  0
   56.9010   30.9710   44.8800 O   0  0  0  0  0  0  0  0  0  0  0  0
   58.0170   31.4940   45.5490 C   0  0  0  0  0  0  0  0  0  0  0  0
   58.1430   32.8640   45.8490 C   0  0  0  0  0  0  0  0  0  0  0  0
   59.2740   33.3360   46.5240 C   0  0  0  0  0  0  0  0  0  0  0  0
   60.2990   32.4530   46.9020 C   0  0  0  0  0  0  0  0  0  0  0  0
   61.4580   32.9390   47.6060 N   0  0  0  0  0  0  0  0  0  0  0  0
   62.5220   33.6380   46.8730 C   0  0  0  0  0  0  0  0  0  0  0  0
   63.7610   33.8340   47.7590 C   0  0  0  0  0  0  0  0  0  0  0  0
   64.1080   32.5750   48.4590 N   0  0  1  0  0  0  0  0  0  0  0  0
   65.2550   32.7630   49.3700 C   0  0  0  0  0  0  0  0  0  0  0  0
   64.9350   32.0440   50.6700 C   0  0  0  0  0  0  0  0  0  0  0  0
   63.4280   32.0510   50.7340 C   0  0  0  0  0  0  0  0  0  0  0  0
   62.9980   32.0040   49.2710 C   0  0  1  0  0  0  0  0  0  0  0  0
   61.6360   32.6910   49.0400 C   0  0  0  0  0  0  0  0  0  0  0  0
   60.1670   31.0870   46.6040 C   0  0  0  0  0  0  0  0  0  0  0  0
   59.0360   30.6150   45.9310 C   0  0  0  0  0  0  0  0  0  0  0  0
   56.9853   29.3561   43.5883 H   0  0  0  0  0  0  0  0  0  0  0  0
   56.0128   30.7565   43.0229 H   0  0  0  0  0  0  0  0  0  0  0  0
   57.8067   30.8502   43.0229 H   0  0  0  0  0  0  0  0  0  0  0  0
   57.3496   33.5655   45.5517 H   0  0  0  0  0  0  0  0  0  0  0  0
   59.3612   34.4067   46.7605 H   0  0  0  0  0  0  0  0  0  0  0  0
   62.8010   33.0441   45.9901 H   0  0  0  0  0  0  0  0  0  0  0  0
   62.1478   34.6267   46.5688 H   0  0  0  0  0  0  0  0  0  0  0  0
   64.6091   34.1435   47.1306 H   0  0  0  0  0  0  0  0  0  0  0  0
   63.5405   34.6072   48.5097 H   0  0  0  0  0  0  0  0  0  0  0  0
   64.3830   31.8710   47.7320 H   0  0  0  0  0  0  0  0  0  0  0  0
   66.1642   32.3374   48.9204 H   0  0  0  0  0  0  0  0  0  0  0  0
   65.4292   33.8333   49.5544 H   0  0  0  0  0  0  0  0  0  0  0  0
   65.3201   31.0138   50.6513 H   0  0  0  0  0  0  0  0  0  0  0  0
   65.3966   32.5270   51.5439 H   0  0  0  0  0  0  0  0  0  0  0  0
   63.0554   31.1716   51.2798 H   0  0  0  0  0  0  0  0  0  0  0  0
   63.0302   32.9284   51.2649 H   0  0  0  0  0  0  0  0  0  0  0  0
   62.8235   30.9658   48.9522 H   0  0  0  0  0  0  0  0  0  0  0  0
   60.8285   32.0385   49.4035 H   0  0  0  0  0  0  0  0  0  0  0  0
   61.6061   33.6452   49.5865 H   0  0  0  0  0  0  0  0  0  0  0  0
   60.9586   30.3838   46.9020 H   0  0  0  0  0  0  0  0  0  0  0  0
   58.9467   29.5433   45.6999 H   0  0  0  0  0  0  0  0  0  0  0  0
  1  2  1  0
  2  3  1  0
  3  4  2  0
  4  5  1  0
  5  6  2  0
  6  7  1  0
  7  8  1  0
  8  9  1  0
  9 10  1  0
 10 11  1  0
 11 12  1  0
 12 13  1  0
 13 14  1  0
 14 15  1  0
  6 16  1  0
 16 17  2  0
 17  3  1  0
 15  7  1  0
 14 10  1  0
  1 18  1  0
  1 19  1  0
  1 20  1  0
  4 21  1  0
  5 22  1  0
  8 23  1  0
  8 24  1  0
  9 25  1  0
  9 26  1  0
 10 27  1  6
 11 28  1  0
 11 29  1  0
 12 30  1  0
 12 31  1  0
 13 32  1  0
 13 33  1  0
 14 34  1  6
 15 35  1  0
 15 36  1  0
 16 37  1  0
 17 38  1  0
M  CHG  1  10   1
M  END
>  <UniqueID>  (22) 
21

>  <SMILES>  (22) 
COc1ccc(N2CC[N@H+]3CCC[C@H]3C2)cc1

>  <Energy>  (22) 
48.96522933096419

>  <Genealogy>  (22) 
COc1ccc(N2CC[NH+]3CCCC3C2)cc1 (protonated)
COc1ccc(N2CC[N@H+]3CCC[C@H]3C2)cc1 (chirality)
COc1ccc(N2CC[N@H+]3CCC[C@H]3C2)cc1 (3D coordinates assigned)
COc1ccc(N2CC[N@H+]3CCC[C@H]3C2)cc1 (nonaromatic ring conformer: 48.96522933096419 kcal/mol)

>  <smiles>  (22) 
COc1ccc(N2CCN3CCCC3C2)cc1

>  <score_type>  (22) 
oracle

>  <origin>  (22) 
adg

>  <m_score__min__energy>  (22) 
-4.7199999999999998

>  <m_primary>  (22) 
energy

$$$$
23:0
     RDKit          3D

 38 40  0  0  0  0  0  0  0  0999 V2000
   60.0500   34.2230   48.9720 C   0  0  0  0  0  0  0  0  0  0  0  0
   59.5800   34.1370   47.5360 C   0  0  0  0  0  0  0  0  0  0  0  0
   59.3940   32.7150   47.0920 C   0  0  0  0  0  0  0  0  0  0  0  0
   58.6320   32.6710   45.8550 N   0  0  0  0  0  0  0  0  0  0  0  0
   58.5990   33.8340   45.0290 C   0  0  0  0  0  0  0  0  0  0  0  0
   57.2250   34.4370   44.8950 C   0  0  0  0  0  0  0  0  0  0  0  0
   57.9670   31.4450   45.5690 C   0  0  0  0  0  0  0  0  0  0  0  0
   56.9980   31.3210   44.6420 N   0  0  0  0  0  0  0  0  0  0  0  0
   56.4040   30.1250   44.4660 C   0  0  0  0  0  0  0  0  0  0  0  0
   55.4670   30.0230   43.5560 N   0  0  0  0  0  0  0  0  0  0  0  0
   56.7460   29.0350   45.1930 N   0  0  0  0  0  0  0  0  0  0  0  0
   56.3410   27.7760   45.2460 N   0  0  0  0  0  0  0  0  0  0  0  0
   57.0030   27.0840   46.1620 C   0  0  0  0  0  0  0  0  0  0  0  0
   56.9250   25.7110   46.6060 C   0  0  0  0  0  0  0  0  0  0  0  0
   57.9120   24.8240   46.9720 C   0  0  0  0  0  0  0  0  0  0  0  0
   57.2610   23.6530   47.3030 C   0  0  0  0  0  0  0  0  0  0  0  0
   55.9080   23.8600   47.1300 C   0  0  0  0  0  0  0  0  0  0  0  0
   55.7650   25.0750   46.7220 O   0  0  0  0  0  0  0  0  0  0  0  0
   57.8780   27.9730   46.7160 N   0  0  0  0  0  0  0  0  0  0  0  0
   57.7140   29.1650   46.1160 C   0  0  0  0  0  0  0  0  0  0  0  0
   58.3100   30.3650   46.2900 N   0  0  0  0  0  0  0  0  0  0  0  0
   59.1959   34.0667   49.6473 H   0  0  0  0  0  0  0  0  0  0  0  0
   60.8095   33.4489   49.1562 H   0  0  0  0  0  0  0  0  0  0  0  0
   60.4862   35.2159   49.1562 H   0  0  0  0  0  0  0  0  0  0  0  0
   58.6204   34.6668   47.4435 H   0  0  0  0  0  0  0  0  0  0  0  0
   60.3494   34.5956   46.8975 H   0  0  0  0  0  0  0  0  0  0  0  0
   60.3791   32.2536   46.9286 H   0  0  0  0  0  0  0  0  0  0  0  0
   58.8460   32.1645   47.8709 H   0  0  0  0  0  0  0  0  0  0  0  0
   59.2698   34.5894   45.4643 H   0  0  0  0  0  0  0  0  0  0  0  0
   58.9163   33.5249   44.0221 H   0  0  0  0  0  0  0  0  0  0  0  0
   56.8061   34.6208   45.8954 H   0  0  0  0  0  0  0  0  0  0  0  0
   57.2937   35.3877   44.3459 H   0  0  0  0  0  0  0  0  0  0  0  0
   56.5719   33.7428   44.3459 H   0  0  0  0  0  0  0  0  0  0  0  0
   55.2830   29.0610   43.2060 H   0  0  0  0  0  0  0  0  0  0  0  0
   58.9959   25.0101   46.9957 H   0  0  0  0  0  0  0  0  0  0  0  0
   57.7360   22.7212   47.6438 H   0  0  0  0  0  0  0  0  0  0  0  0
   55.1052   23.1289   47.3063 H   0  0  0  0  0  0  0  0  0  0  0  0
   59.0550   30.3970   47.0210 H   0  0  0  0  0  0  0  0  0  0  0  0
  1  2  1  0
  2  3  1  0
  3  4  1  0
  4  5  1  0
  5  6  1  0
  4  7  1  0
  7  8  2  0
  8  9  1  0
  9 10  2  3
  9 11  1  0
 11 12  1  0
 12 13  2  0
 13 14  1  0
 14 15  2  0
 15 16  1  0
 16 17  2  0
 17 18  1  0
 13 19  1  0
 19 20  2  0
 20 21  1  0
 21  7  1  0
 20 11  1  0
 18 14  1  0
  1 22  1  0
  1 23  1  0
  1 24  1  0
  2 25  1  0
  2 26  1  0
  3 27  1  0
  3 28  1  0
  5 29  1  0
  5 30  1  0
  6 31  1  0
  6 32  1  0
  6 33  1  0
 10 34  1  0
 15 35  1  0
 16 36  1  0
 17 37  1  0
 21 38  1  0
M  END
>  <smiles>  (23) 
CCCN(CC)c1nc(=N)n2nc(-c3ccco3)nc2[nH]1

>  <score_type>  (23) 
oracle

>  <origin>  (23) 
adg

>  <m_score__min__energy>  (23) 
-6

>  <m_primary>  (23) 
energy

$$$$
24:0
     RDKit          3D

 45 48  0  0  0  0  0  0  0  0999 V2000
   60.0210   33.7990   49.5570 C   0  0  0  0  0  0  0  0  0  0  0  0
   59.1570   34.2530   48.5190 O   0  0  0  0  0  0  0  0  0  0  0  0
   58.8640   33.5190   47.3560 C   0  0  0  0  0  0  0  0  0  0  0  0
   58.6340   34.1380   46.1110 C   0  0  0  0  0  0  0  0  0  0  0  0
   58.3300   33.3640   44.9860 C   0  0  0  0  0  0  0  0  0  0  0  0
   58.2320   31.9640   45.0800 C   0  0  0  0  0  0  0  0  0  0  0  0
   58.4870   31.3350   46.3240 C   0  0  0  0  0  0  0  0  0  0  0  0
   58.8030   32.1240   47.4470 C   0  0  0  0  0  0  0  0  0  0  0  0
   58.4590   29.9000   46.4470 N   0  0  0  0  0  0  0  0  0  0  0  0
   59.2320   29.1410   47.2530 C   0  0  0  0  0  0  0  0  0  0  0  0
   58.9070   27.8320   47.2100 N   0  0  0  0  0  0  0  0  0  0  0  0
   57.8890   27.7700   46.3270 C   0  0  0  0  0  0  0  0  0  0  0  0
   57.1650   26.5180   46.0440 C   0  0  0  0  0  0  0  0  0  0  0  0
   55.8880   26.3120   46.4120 N   0  0  0  0  0  0  0  0  0  0  0  0
   55.6130   25.1080   46.0130 O   0  0  0  0  0  0  0  0  0  0  0  0
   56.6670   24.5850   45.4410 C   0  0  0  0  0  0  0  0  0  0  0  0
   56.7160   23.2030   44.8520 C   0  0  0  0  0  0  0  0  0  0  0  0
   56.2680   23.2300   43.3850 C   0  0  0  0  0  0  0  0  0  0  0  0
   58.1280   22.6270   44.9830 C   0  0  0  0  0  0  0  0  0  0  0  0
   57.7050   25.4440   45.4340 N   0  0  0  0  0  0  0  0  0  0  0  0
   57.6050   29.0470   45.8550 C   0  0  0  0  0  0  0  0  0  0  0  0
   56.4240   29.5020   45.0360 C   0  0  0  0  0  0  0  0  0  0  0  0
   56.8550   30.2120   43.8240 N   0  0  0  0  0  0  0  0  0  0  0  0
   56.0390   30.1220   42.6100 C   0  0  0  0  0  0  0  0  0  0  0  0
   57.9100   31.1980   43.8500 C   0  0  0  0  0  0  0  0  0  0  0  0
   58.5250   31.4770   42.7780 O   0  0  0  0  0  0  0  0  0  0  0  0
   59.5745   34.0336   50.5346 H   0  0  0  0  0  0  0  0  0  0  0  0
   60.1600   32.7114   49.4689 H   0  0  0  0  0  0  0  0  0  0  0  0
   60.9955   34.3015   49.4689 H   0  0  0  0  0  0  0  0  0  0  0  0
   58.6937   35.2329   46.0236 H   0  0  0  0  0  0  0  0  0  0  0  0
   58.1656   33.8562   44.0161 H   0  0  0  0  0  0  0  0  0  0  0  0
   59.0052   31.6355   48.4116 H   0  0  0  0  0  0  0  0  0  0  0  0
   60.0409   29.5467   47.8784 H   0  0  0  0  0  0  0  0  0  0  0  0
   56.0232   22.5533   45.4068 H   0  0  0  0  0  0  0  0  0  0  0  0
   55.1710   23.2961   43.3378 H   0  0  0  0  0  0  0  0  0  0  0  0
   56.7099   24.1031   42.8827 H   0  0  0  0  0  0  0  0  0  0  0  0
   56.6019   22.3101   42.8827 H   0  0  0  0  0  0  0  0  0  0  0  0
   58.3841   22.5225   46.0477 H   0  0  0  0  0  0  0  0  0  0  0  0
   58.1681   21.6406   44.4977 H   0  0  0  0  0  0  0  0  0  0  0  0
   58.8466   23.3039   44.4977 H   0  0  0  0  0  0  0  0  0  0  0  0
   55.8307   28.6229   44.7441 H   0  0  0  0  0  0  0  0  0  0  0  0
   55.8237   30.1921   45.6470 H   0  0  0  0  0  0  0  0  0  0  0  0
   54.9809   30.0053   42.8872 H   0  0  0  0  0  0  0  0  0  0  0  0
   56.1633   31.0393   42.0158 H   0  0  0  0  0  0  0  0  0  0  0  0
   56.3603   29.2538   42.0158 H   0  0  0  0  0  0  0  0  0  0  0  0
  1  2  1  0
  2  3  1  0
  3  4  2  0
  4  5  1  0
  5  6  2  0
  6  7  1  0
  7  8  2  0
  7  9  1  0
  9 10  1  0
 10 11  2  0
 11 12  1  0
 12 13  1  0
 13 14  2  0
 14 15  1  0
 15 16  1  0
 16 17  1  0
 17 18  1  0
 17 19  1  0
 16 20  2  0
 12 21  2  0
 21 22  1  0
 22 23  1  0
 23 24  1  0
 23 25  1  0
 25 26  2  0
  8  3  1  0
 21  9  1  0
 25  6  1  0
 20 13  1  0
  1 27  1  0
  1 28  1  0
  1 29  1  0
  4 30  1  0
  5 31  1  0
  8 32  1  0
 10 33  1  0
 17 34  1  0
 18 35  1  0
 18 36  1  0
 18 37  1  0
 19 38  1  0
 19 39  1  0
 19 40  1  0
 22 41  1  0
 22 42  1  0
 24 43  1  0
 24 44  1  0
 24 45  1  0
M  END
>  <UniqueID>  (24) 
22

>  <SMILES>  (24) 
COc1ccc2c(c1)-n1cnc(-c3noc(C(C)C)n3)c1CN(C)C2=O

>  <Energy>  (24) 
121.23166718076587

>  <Genealogy>  (24) 
COc1ccc2c(c1)-n1cnc(-c3noc(C(C)C)n3)c1CN(C)C2=O (3D coordinates assigned)
COc1ccc2c(c1)-n1cnc(-c3noc(C(C)C)n3)c1CN(C)C2=O (nonaromatic ring conformer: 121.23166718076587 kcal/mol)

>  <smiles>  (24) 
COc1ccc2c(c1)-n1cnc(-c3noc(C(C)C)n3)c1CN(C)C2=O

>  <score_type>  (24) 
oracle

>  <origin>  (24) 
adg

>  <m_score__min__energy>  (24) 
-7.5899999999999999

>  <m_primary>  (24) 
energy

$$$$
25:0
     RDKit          3D

 29 31  0  0  0  0  0  0  0  0999 V2000
   56.8590   25.9780   46.3580 C   0  0  0  0  0  0  0  0  0  0  0  0
   56.8580   27.0940   45.6310 C   0  0  0  0  0  0  0  0  0  0  0  0
   57.7610   28.2360   45.9010 C   0  0  0  0  0  0  0  0  0  0  0  0
   59.0080   27.9620   46.5190 C   0  0  0  0  0  0  0  0  0  0  0  0
   59.8980   28.9980   46.8510 C   0  0  0  0  0  0  0  0  0  0  0  0
   59.5260   30.3020   46.5480 C   0  0  0  0  0  0  0  0  0  0  0  0
   60.2180   31.4000   46.7760 O   0  0  0  0  0  0  0  0  0  0  0  0
   59.4960   32.4010   46.3130 C   0  0  0  0  0  0  0  0  0  0  0  0
   59.8210   33.7550   46.3300 C   0  0  0  0  0  0  0  0  0  0  0  0
   58.9000   34.6610   45.7740 C   0  0  0  0  0  0  0  0  0  0  0  0
   57.6850   34.1990   45.2190 C   0  0  0  0  0  0  0  0  0  0  0  0
   57.3770   32.8270   45.2120 C   0  0  0  0  0  0  0  0  0  0  0  0
   58.3090   31.9520   45.7710 C   0  0  0  0  0  0  0  0  0  0  0  0
   58.3260   30.5820   45.9280 C   0  0  0  0  0  0  0  0  0  0  0  0
   57.4270   29.5780   45.5620 C   0  0  0  0  0  0  0  0  0  0  0  0
   56.2590   29.9050   44.8700 O   0  0  0  0  0  0  0  0  0  0  0  0
   56.2340   29.9870   43.4500 C   0  0  0  0  0  0  0  0  0  0  0  0
   56.1654   25.1605   46.1117 H   0  0  0  0  0  0  0  0  0  0  0  0
   57.5535   25.8738   47.2047 H   0  0  0  0  0  0  0  0  0  0  0  0
   56.1530   27.1709   44.7902 H   0  0  0  0  0  0  0  0  0  0  0  0
   59.2833   26.9207   46.7423 H   0  0  0  0  0  0  0  0  0  0  0  0
   60.8612   28.7827   47.3367 H   0  0  0  0  0  0  0  0  0  0  0  0
   60.7688   34.1052   46.7649 H   0  0  0  0  0  0  0  0  0  0  0  0
   59.1270   35.7373   45.7711 H   0  0  0  0  0  0  0  0  0  0  0  0
   56.9738   34.9194   44.7886 H   0  0  0  0  0  0  0  0  0  0  0  0
   56.4350   32.4568   44.7812 H   0  0  0  0  0  0  0  0  0  0  0  0
   55.9257   30.9983   43.1465 H   0  0  0  0  0  0  0  0  0  0  0  0
   57.2376   29.7749   43.0528 H   0  0  0  0  0  0  0  0  0  0  0  0
   55.5194   29.2511   43.0528 H   0  0  0  0  0  0  0  0  0  0  0  0
  1  2  2  0
  2  3  1  0
  3  4  2  0
  4  5  1  0
  5  6  2  0
  6  7  1  0
  7  8  1  0
  8  9  2  0
  9 10  1  0
 10 11  2  0
 11 12  1  0
 12 13  2  0
 13 14  1  0
 14 15  2  0
 15 16  1  0
 16 17  1  0
 15  3  1  0
 14  6  1  0
 13  8  1  0
  1 18  1  0
  1 19  1  0
  2 20  1  0
  4 21  1  0
  5 22  1  0
  9 23  1  0
 10 24  1  0
 11 25  1  0
 12 26  1  0
 17 27  1  0
 17 28  1  0
 17 29  1  0
M  END
>  <UniqueID>  (25) 
23

>  <SMILES>  (25) 
C=Cc1ccc2oc3ccccc3c2c1OC

>  <Energy>  (25) 
82.33010290757869

>  <Genealogy>  (25) 
C=Cc1ccc2oc3ccccc3c2c1OC (3D coordinates assigned)
C=Cc1ccc2oc3ccccc3c2c1OC (optimized conformer: 82.33010290757869 kcal/mol)

>  <smiles>  (25) 
C=Cc1ccc2oc3ccccc3c2c1OC

>  <score_type>  (25) 
oracle

>  <origin>  (25) 
adg

>  <m_score__min__energy>  (25) 
-6.3399999999999999

>  <m_primary>  (25) 
energy

$$$$
26:0
     RDKit          3D

 57 60  0  0  0  0  0  0  0  0999 V2000
   57.7870   26.3990   43.3270 C   0  0  0  0  0  0  0  0  0  0  0  0
   57.3780   26.6830   44.6610 O   0  0  0  0  0  0  0  0  0  0  0  0
   57.8710   27.7450   45.4360 C   0  0  0  0  0  0  0  0  0  0  0  0
   58.9350   27.5770   46.3400 C   0  0  0  0  0  0  0  0  0  0  0  0
   59.4100   28.6560   47.0980 C   0  0  0  0  0  0  0  0  0  0  0  0
   58.8650   29.9440   46.9060 C   0  0  0  0  0  0  0  0  0  0  0  0
   57.7510   30.0870   46.0570 C   0  0  0  0  0  0  0  0  0  0  0  0
   57.2690   29.0010   45.3030 C   0  0  0  0  0  0  0  0  0  0  0  0
   56.1900   29.1310   44.4150 O   0  0  0  0  0  0  0  0  0  0  0  0
   56.2780   29.7150   43.1180 C   0  0  0  0  0  0  0  0  0  0  0  0
   59.3420   31.1230   47.7580 C   0  0  2  0  0  0  0  0  0  0  0  0
   59.2700   32.4820   47.0490 C   0  0  0  0  0  0  0  0  0  0  0  0
   59.0000   32.5600   45.6660 C   0  0  0  0  0  0  0  0  0  0  0  0
   58.9640   33.7930   45.0150 C   0  0  0  0  0  0  0  0  0  0  0  0
   59.2150   34.9650   45.7250 C   0  0  0  0  0  0  0  0  0  0  0  0
   59.5110   34.9080   47.0880 C   0  0  0  0  0  0  0  0  0  0  0  0
   59.5530   33.6700   47.7600 C   0  0  0  0  0  0  0  0  0  0  0  0
   59.8760   33.5880   49.1260 O   0  0  0  0  0  0  0  0  0  0  0  0
   61.0040   34.2090   49.7310 C   0  0  0  0  0  0  0  0  0  0  0  0
   60.6840   30.8910   48.3730 N   0  0  2  0  0  0  0  0  0  0  0  0
   61.8110   31.0470   47.4090 C   0  0  0  0  0  0  0  0  0  0  0  0
   62.8370   32.0420   47.8770 C   0  0  0  0  0  0  0  0  0  0  0  0
   63.2070   33.2210   47.2600 C   0  0  0  0  0  0  0  0  0  0  0  0
   64.1590   33.8250   47.9990 N   0  0  0  0  0  0  0  0  0  0  0  0
   64.4020   33.0540   49.0470 N   0  0  0  0  0  0  0  0  0  0  0  0
   65.3300   33.4010   50.1140 C   0  0  0  0  0  0  0  0  0  0  0  0
   63.6100   31.9660   49.0170 C   0  0  0  0  0  0  0  0  0  0  0  0
   60.6940   29.5800   49.0630 C   0  0  0  0  0  0  0  0  0  0  0  0
   60.5210   28.4110   48.0850 C   0  0  0  0  0  0  0  0  0  0  0  0
   58.6904   25.7717   43.3462 H   0  0  0  0  0  0  0  0  0  0  0  0
   56.9810   25.8652   42.8021 H   0  0  0  0  0  0  0  0  0  0  0  0
   58.0055   27.3407   42.8021 H   0  0  0  0  0  0  0  0  0  0  0  0
   59.4002   26.5867   46.4536 H   0  0  0  0  0  0  0  0  0  0  0  0
   57.2495   31.0631   45.9819 H   0  0  0  0  0  0  0  0  0  0  0  0
   56.4413   30.7986   43.2141 H   0  0  0  0  0  0  0  0  0  0  0  0
   57.1184   29.2648   42.5694 H   0  0  0  0  0  0  0  0  0  0  0  0
   55.3422   29.5324   42.5694 H   0  0  0  0  0  0  0  0  0  0  0  0
   58.6121   31.1768   48.5792 H   0  0  0  0  0  0  0  0  0  0  0  0
   58.8159   31.6380   45.0950 H   0  0  0  0  0  0  0  0  0  0  0  0
   58.7371   33.8400   43.9397 H   0  0  0  0  0  0  0  0  0  0  0  0
   59.1799   35.9368   45.2108 H   0  0  0  0  0  0  0  0  0  0  0  0
   59.7130   35.8367   47.6418 H   0  0  0  0  0  0  0  0  0  0  0  0
   60.9084   34.1564   50.8256 H   0  0  0  0  0  0  0  0  0  0  0  0
   61.9210   33.6886   49.4176 H   0  0  0  0  0  0  0  0  0  0  0  0
   61.0547   35.2622   49.4176 H   0  0  0  0  0  0  0  0  0  0  0  0
   60.8090   31.6200   49.1160 H   0  0  0  0  0  0  0  0  0  0  0  0
   62.3007   30.0707   47.2781 H   0  0  0  0  0  0  0  0  0  0  0  0
   61.3917   31.4199   46.4629 H   0  0  0  0  0  0  0  0  0  0  0  0
   62.7915   33.6055   46.3168 H   0  0  0  0  0  0  0  0  0  0  0  0
   64.8518   33.2222   51.0884 H   0  0  0  0  0  0  0  0  0  0  0  0
   66.2342   32.7802   50.0299 H   0  0  0  0  0  0  0  0  0  0  0  0
   65.6051   34.4627   50.0299 H   0  0  0  0  0  0  0  0  0  0  0  0
   63.5839   31.1613   49.7665 H   0  0  0  0  0  0  0  0  0  0  0  0
   61.6531   29.4634   49.5888 H   0  0  0  0  0  0  0  0  0  0  0  0
   59.8481   29.5611   49.7660 H   0  0  0  0  0  0  0  0  0  0  0  0
   61.4614   28.2692   47.5322 H   0  0  0  0  0  0  0  0  0  0  0  0
   60.2624   27.5161   48.6700 H   0  0  0  0  0  0  0  0  0  0  0  0
  1  2  1  0
  2  3  1  0
  3  4  2  0
  4  5  1  0
  5  6  2  0
  6  7  1  0
  7  8  2  0
  8  9  1  0
  9 10  1  0
  6 11  1  0
 11 12  1  0
 12 13  2  0
 13 14  1  0
 14 15  2  0
 15 16  1  0
 16 17  2  0
 17 18  1  0
 18 19  1  0
 11 20  1  0
 20 21  1  0
 21 22  1  0
 22 23  1  0
 23 24  2  0
 24 25  1  0
 25 26  1  0
 25 27  1  0
 20 28  1  0
 28 29  1  0
  8  3  1  0
 17 12  1  0
 27 22  2  0
 29  5  1  0
  1 30  1  0
  1 31  1  0
  1 32  1  0
  4 33  1  0
  7 34  1  0
 10 35  1  0
 10 36  1  0
 10 37  1  0
 11 38  1  1
 13 39  1  0
 14 40  1  0
 15 41  1  0
 16 42  1  0
 19 43  1  0
 19 44  1  0
 19 45  1  0
 20 46  1  1
 21 47  1  0
 21 48  1  0
 23 49  1  0
 26 50  1  0
 26 51  1  0
 26 52  1  0
 27 53  1  0
 28 54  1  0
 28 55  1  0
 29 56  1  0
 29 57  1  0
M  CHG  1  20   1
M  END
>  <UniqueID>  (26) 
24

>  <SMILES>  (26) 
COc1cc2c(cc1OC)[C@H](c1ccccc1OC)[N@H+](Cc1cnn(C)c1)CC2

>  <Energy>  (26) 
100.56743299697654

>  <Genealogy>  (26) 
COc1cc2c(cc1OC)C(c1ccccc1OC)[NH+](Cc1cnn(C)c1)CC2 (protonated)
COc1cc2c(cc1OC)[C@H](c1ccccc1OC)[N@H+](Cc1cnn(C)c1)CC2 (chirality)
COc1cc2c(cc1OC)[C@H](c1ccccc1OC)[N@H+](Cc1cnn(C)c1)CC2 (3D coordinates assigned)
COc1cc2c(cc1OC)[C@H](c1ccccc1OC)[N@H+](Cc1cnn(C)c1)CC2 (nonaromatic ring conformer: 100.56743299697654 kcal/mol)

>  <smiles>  (26) 
COc1cc2c(cc1OC)C(c1ccccc1OC)N(Cc1cnn(C)c1)CC2

>  <score_type>  (26) 
oracle

>  <origin>  (26) 
adg

>  <m_score__min__energy>  (26) 
-6.2199999999999998

>  <m_primary>  (26) 
energy

$$$$
27:0
     RDKit          3D

 49 51  0  0  0  0  0  0  0  0999 V2000
   62.5380   28.0450   51.8190 O   0  0  0  0  0  0  0  0  0  0  0  0
   62.2980   29.1530   51.2650 C   0  0  0  0  0  0  0  0  0  0  0  0
   61.6550   29.2060   50.0230 O   0  0  0  0  0  0  0  0  0  0  0  0
   60.2470   29.3780   49.8750 C   0  0  0  0  0  0  0  0  0  0  0  0
   59.9280   30.7850   49.3570 C   0  0  0  0  0  0  0  0  0  0  0  0
   60.4400   30.9860   47.9930 N   0  0  0  0  0  0  0  0  0  0  0  0
   61.5150   31.9200   47.7630 C   0  0  0  0  0  0  0  0  0  0  0  0
   62.7180   31.7270   48.4680 C   0  0  0  0  0  0  0  0  0  0  0  0
   63.7950   32.5960   48.3030 C   0  0  0  0  0  0  0  0  0  0  0  0
   63.6920   33.6730   47.4300 C   0  0  0  0  0  0  0  0  0  0  0  0
   62.5110   33.8870   46.7200 C   0  0  0  0  0  0  0  0  0  0  0  0
   61.4010   33.0350   46.8750 C   0  0  0  0  0  0  0  0  0  0  0  0
   60.1820   33.3730   46.0230 C   0  0  0  0  0  0  0  0  0  0  0  0
   58.8540   32.7260   46.4300 C   0  0  0  0  0  0  0  0  0  0  0  0
   58.8890   31.2580   46.1230 C   0  0  0  0  0  0  0  0  0  0  0  0
   58.1810   30.7270   45.0340 C   0  0  0  0  0  0  0  0  0  0  0  0
   58.2850   29.3620   44.7150 C   0  0  0  0  0  0  0  0  0  0  0  0
   57.5400   28.8120   43.6060 N   0  0  0  0  0  0  0  0  0  0  0  0
   56.5170   29.7500   43.1070 C   0  0  0  0  0  0  0  0  0  0  0  0
   55.2730   29.8210   44.0050 C   0  0  0  0  0  0  0  0  0  0  0  0
   54.1530   29.3710   43.3280 F   0  0  0  0  0  0  0  0  0  0  0  0
   55.4500   29.0730   45.1550 F   0  0  0  0  0  0  0  0  0  0  0  0
   59.1270   28.5410   45.4860 C   0  0  0  0  0  0  0  0  0  0  0  0
   59.8440   29.0750   46.5590 C   0  0  0  0  0  0  0  0  0  0  0  0
   59.7180   30.4310   46.8850 C   0  0  0  0  0  0  0  0  0  0  0  0
   62.6790   30.4200   51.9600 C   0  0  0  0  0  0  0  0  0  0  0  0
   62.1250   31.4960   51.2930 F   0  0  0  0  0  0  0  0  0  0  0  0
   64.0550   30.5590   51.9820 F   0  0  0  0  0  0  0  0  0  0  0  0
   62.2080   30.3950   53.2590 F   0  0  0  0  0  0  0  0  0  0  0  0
   59.8649   28.6342   49.1604 H   0  0  0  0  0  0  0  0  0  0  0  0
   59.7678   29.2436   50.8560 H   0  0  0  0  0  0  0  0  0  0  0  0
   58.8371   30.9259   49.3537 H   0  0  0  0  0  0  0  0  0  0  0  0
   60.4151   31.5155   50.0197 H   0  0  0  0  0  0  0  0  0  0  0  0
   62.8095   30.8769   49.1601 H   0  0  0  0  0  0  0  0  0  0  0  0
   64.7267   32.4297   48.8636 H   0  0  0  0  0  0  0  0  0  0  0  0
   64.5432   34.3573   47.2991 H   0  0  0  0  0  0  0  0  0  0  0  0
   62.4455   34.7376   46.0257 H   0  0  0  0  0  0  0  0  0  0  0  0
   60.0448   34.4639   46.0564 H   0  0  0  0  0  0  0  0  0  0  0  0
   60.4063   32.9670   45.0256 H   0  0  0  0  0  0  0  0  0  0  0  0
   58.6931   32.8698   47.5086 H   0  0  0  0  0  0  0  0  0  0  0  0
   58.0337   33.1954   45.8672 H   0  0  0  0  0  0  0  0  0  0  0  0
   57.5406   31.3831   44.4262 H   0  0  0  0  0  0  0  0  0  0  0  0
   58.2100   28.6070   42.8270 H   0  0  0  0  0  0  0  0  0  0  0  0
   57.0960   27.9010   43.8670 H   0  0  0  0  0  0  0  0  0  0  0  0
   56.9626   30.7539   43.0467 H   0  0  0  0  0  0  0  0  0  0  0  0
   56.1896   29.3839   42.1227 H   0  0  0  0  0  0  0  0  0  0  0  0
   55.1245   30.8743   44.2850 H   0  0  0  0  0  0  0  0  0  0  0  0
   59.2214   27.4724   45.2427 H   0  0  0  0  0  0  0  0  0  0  0  0
   60.5096   28.4285   47.1497 H   0  0  0  0  0  0  0  0  0  0  0  0
  1  2  2  0
  2  3  1  0
  3  4  1  0
  4  5  1  0
  5  6  1  0
  6  7  1  0
  7  8  2  0
  8  9  1  0
  9 10  2  0
 10 11  1  0
 11 12  2  0
 12 13  1  0
 13 14  1  0
 14 15  1  0
 15 16  2  0
 16 17  1  0
 17 18  1  0
 18 19  1  0
 19 20  1  0
 20 21  1  0
 20 22  1  0
 17 23  2  0
 23 24  1  0
 24 25  2  0
  2 26  1  0
 26 27  1  0
 26 28  1  0
 26 29  1  0
 25  6  1  0
 12  7  1  0
 25 15  1  0
  4 30  1  0
  4 31  1  0
  5 32  1  0
  5 33  1  0
  8 34  1  0
  9 35  1  0
 10 36  1  0
 11 37  1  0
 13 38  1  0
 13 39  1  0
 14 40  1  0
 14 41  1  0
 16 42  1  0
 18 43  1  0
 18 44  1  0
 19 45  1  0
 19 46  1  0
 20 47  1  0
 23 48  1  0
 24 49  1  0
M  CHG  1  18   1
M  END
>  <UniqueID>  (27) 
25

>  <SMILES>  (27) 
O=C(OCCN1c2ccccc2CCc2cc([NH2+]CC(F)F)ccc21)C(F)(F)F

>  <Energy>  (27) 
64.50173714578006

>  <Genealogy>  (27) 
O=C(OCCN1c2ccccc2CCc2cc([NH2+]CC(F)F)ccc21)C(F)(F)F (protonated)
O=C(OCCN1c2ccccc2CCc2cc([NH2+]CC(F)F)ccc21)C(F)(F)F (3D coordinates assigned)
O=C(OCCN1c2ccccc2CCc2cc([NH2+]CC(F)F)ccc21)C(F)(F)F (nonaromatic ring conformer: 64.50173714578006 kcal/mol)

>  <smiles>  (27) 
O=C(OCCN1c2ccccc2CCc2cc(NCC(F)F)ccc21)C(F)(F)F

>  <score_type>  (27) 
oracle

>  <origin>  (27) 
adg

>  <m_score__min__energy>  (27) 
-3.98

>  <m_primary>  (27) 
energy

$$$$
28:0
     RDKit          3D

 44 46  0  0  0  0  0  0  0  0999 V2000
   60.0310   21.8410   45.2410 C   0  0  0  0  0  0  0  0  0  0  0  0
   58.7740   22.5120   44.7490 C   0  0  0  0  0  0  0  0  0  0  0  0
   57.9130   21.8100   43.8940 C   0  0  0  0  0  0  0  0  0  0  0  0
   56.7480   22.4280   43.4330 C   0  0  0  0  0  0  0  0  0  0  0  0
   55.9690   21.8070   42.6640 O   0  0  0  0  0  0  0  0  0  0  0  0
   56.4550   23.6700   43.8000 O   0  0  0  0  0  0  0  0  0  0  0  0
   57.2340   24.3830   44.6090 C   0  0  0  0  0  0  0  0  0  0  0  0
   56.8580   25.6840   44.9500 C   0  0  0  0  0  0  0  0  0  0  0  0
   57.6660   26.4660   45.7830 C   0  0  0  0  0  0  0  0  0  0  0  0
   57.2320   27.7920   46.1050 N   0  0  0  0  0  0  0  0  0  0  0  0
   56.7530   28.7400   45.1440 C   0  0  0  0  0  0  0  0  0  0  0  0
   55.5200   28.8320   44.8940 O   0  0  0  0  0  0  0  0  0  0  0  0
   57.7260   29.6310   44.4340 C   0  0  0  0  0  0  0  0  0  0  0  0
   58.5520   30.4600   45.4300 C   0  0  0  0  0  0  0  0  0  0  0  0
   57.8590   31.7090   45.8240 N   0  0  0  0  0  0  0  0  0  0  0  0
   58.4930   32.3330   47.0170 C   0  0  0  0  0  0  0  0  0  0  0  0
   58.1960   33.8340   47.1140 C   0  0  0  0  0  0  0  0  0  0  0  0
   58.7570   34.5850   45.8940 C   0  0  0  0  0  0  0  0  0  0  0  0
   58.7940   33.7120   44.6270 C   0  0  0  0  0  0  0  0  0  0  0  0
   57.7040   32.6330   44.6690 C   0  0  0  0  0  0  0  0  0  0  0  0
   58.8440   25.9130   46.3270 C   0  0  0  0  0  0  0  0  0  0  0  0
   59.8180   26.7840   47.5050 Cl  0  0  0  0  0  0  0  0  0  0  0  0
   59.2250   24.6090   45.9890 C   0  0  0  0  0  0  0  0  0  0  0  0
   58.4330   23.8320   45.1210 C   0  0  0  0  0  0  0  0  0  0  0  0
   60.0381   21.8372   46.3410 H   0  0  0  0  0  0  0  0  0  0  0  0
   60.0631   20.8058   44.8705 H   0  0  0  0  0  0  0  0  0  0  0  0
   60.9090   22.3904   44.8705 H   0  0  0  0  0  0  0  0  0  0  0  0
   58.1528   20.7808   43.5885 H   0  0  0  0  0  0  0  0  0  0  0  0
   55.9168   26.0984   44.5597 H   0  0  0  0  0  0  0  0  0  0  0  0
   58.4068   29.0109   43.8324 H   0  0  0  0  0  0  0  0  0  0  0  0
   57.1600   30.3220   43.7920 H   0  0  0  0  0  0  0  0  0  0  0  0
   58.7328   29.8552   46.3309 H   0  0  0  0  0  0  0  0  0  0  0  0
   59.4968   30.7368   44.9393 H   0  0  0  0  0  0  0  0  0  0  0  0
   58.1102   31.8373   47.9213 H   0  0  0  0  0  0  0  0  0  0  0  0
   59.5821   32.2103   46.9228 H   0  0  0  0  0  0  0  0  0  0  0  0
   57.1071   33.9834   47.1594 H   0  0  0  0  0  0  0  0  0  0  0  0
   58.6764   34.2292   48.0212 H   0  0  0  0  0  0  0  0  0  0  0  0
   58.1234   35.4627   45.6987 H   0  0  0  0  0  0  0  0  0  0  0  0
   59.7917   34.8756   46.1286 H   0  0  0  0  0  0  0  0  0  0  0  0
   58.6339   34.3505   43.7457 H   0  0  0  0  0  0  0  0  0  0  0  0
   59.7746   33.2167   44.5719 H   0  0  0  0  0  0  0  0  0  0  0  0
   56.7231   33.1256   44.7409 H   0  0  0  0  0  0  0  0  0  0  0  0
   57.7910   32.0352   43.7497 H   0  0  0  0  0  0  0  0  0  0  0  0
   60.1517   24.1871   46.4052 H   0  0  0  0  0  0  0  0  0  0  0  0
  1  2  1  0
  2  3  2  0
  3  4  1  0
  4  5  2  0
  4  6  1  0
  6  7  1  0
  7  8  2  0
  8  9  1  0
  9 10  1  0
 10 11  1  0
 11 12  2  0
 11 13  1  0
 13 14  1  0
 14 15  1  0
 15 16  1  0
 16 17  1  0
 17 18  1  0
 18 19  1  0
 19 20  1  0
  9 21  2  0
 21 22  1  0
 21 23  1  0
 23 24  2  0
 24  2  1  0
 24  7  1  0
 20 15  1  0
  1 25  1  0
  1 26  1  0
  1 27  1  0
  3 28  1  0
  8 29  1  0
 13 30  1  0
 13 31  1  0
 14 32  1  0
 14 33  1  0
 16 34  1  0
 16 35  1  0
 17 36  1  0
 17 37  1  0
 18 38  1  0
 18 39  1  0
 19 40  1  0
 19 41  1  0
 20 42  1  0
 20 43  1  0
 23 44  1  0
M  CHG  1  10  -1
M  END
>  <UniqueID>  (28) 
26

>  <SMILES>  (28) 
Cc1cc(=O)oc2cc([N-]C(=O)CCN3CCCCC3)c(Cl)cc12

>  <Energy>  (28) 
61.288023950031146

>  <Genealogy>  (28) 
Cc1cc(=O)oc2cc([N-]C(=O)CCN3CCCCC3)c(Cl)cc12 (protonated)
Cc1cc(=O)oc2cc([N-]C(=O)CCN3CCCCC3)c(Cl)cc12 (3D coordinates assigned)
Cc1cc(=O)oc2cc([N-]C(=O)CCN3CCCCC3)c(Cl)cc12 (nonaromatic ring conformer: 61.288023950031146 kcal/mol)

>  <smiles>  (28) 
Cc1cc(=O)oc2cc(NC(=O)CCN3CCCCC3)c(Cl)cc12

>  <score_type>  (28) 
oracle

>  <origin>  (28) 
adg

>  <m_score__min__energy>  (28) 
-10.630000000000001

>  <m_primary>  (28) 
energy

$$$$
29:0
     RDKit          3D

 31 33  0  0  0  0  0  0  0  0999 V2000
   56.6210   23.3170   43.3790 C   0  0  0  0  0  0  0  0  0  0  0  0
   56.8450   23.6750   44.8460 C   0  0  0  0  0  0  0  0  0  0  0  0
   57.4160   25.0150   44.9800 N   0  0  0  0  0  0  0  0  0  0  0  0
   56.6830   26.0740   45.6140 C   0  0  0  0  0  0  0  0  0  0  0  0
   55.5150   25.8570   46.0400 O   0  0  0  0  0  0  0  0  0  0  0  0
   57.2610   27.4230   45.7780 C   0  0  0  0  0  0  0  0  0  0  0  0
   58.3790   27.7740   46.5360 C   0  0  0  0  0  0  0  0  0  0  0  0
   58.6650   29.1450   46.5040 C   0  0  0  0  0  0  0  0  0  0  0  0
   57.7830   29.8660   45.7070 C   0  0  0  0  0  0  0  0  0  0  0  0
   57.7650   31.2890   45.5360 N   0  0  0  0  0  0  0  0  0  0  0  0
   56.8150   31.9400   44.8720 N   0  0  0  0  0  0  0  0  0  0  0  0
   57.0380   33.2530   44.8720 N   0  0  0  0  0  0  0  0  0  0  0  0
   58.1780   33.4270   45.5620 C   0  0  0  0  0  0  0  0  0  0  0  0
   58.8670   34.6100   45.8140 C   0  0  0  0  0  0  0  0  0  0  0  0
   60.0870   34.5130   46.5130 C   0  0  0  0  0  0  0  0  0  0  0  0
   60.5840   33.2520   46.9170 C   0  0  0  0  0  0  0  0  0  0  0  0
   59.8620   32.0750   46.6370 C   0  0  0  0  0  0  0  0  0  0  0  0
   58.6410   32.2130   45.9740 C   0  0  0  0  0  0  0  0  0  0  0  0
   56.6290   28.8200   45.0800 S   0  0  0  0  0  0  0  0  0  0  0  0
   56.0386   22.3862   43.3135 H   0  0  0  0  0  0  0  0  0  0  0  0
   56.0701   24.1298   42.8832 H   0  0  0  0  0  0  0  0  0  0  0  0
   57.5929   23.1770   42.8832 H   0  0  0  0  0  0  0  0  0  0  0  0
   55.8814   23.6406   45.3754 H   0  0  0  0  0  0  0  0  0  0  0  0
   57.5501   22.9500   45.2787 H   0  0  0  0  0  0  0  0  0  0  0  0
   58.3700   25.2020   44.5980 H   0  0  0  0  0  0  0  0  0  0  0  0
   58.9771   27.0455   47.1030 H   0  0  0  0  0  0  0  0  0  0  0  0
   59.5009   29.6036   47.0526 H   0  0  0  0  0  0  0  0  0  0  0  0
   58.4748   35.5822   45.4807 H   0  0  0  0  0  0  0  0  0  0  0  0
   60.6568   35.4246   46.7460 H   0  0  0  0  0  0  0  0  0  0  0  0
   61.5419   33.1897   47.4541 H   0  0  0  0  0  0  0  0  0  0  0  0
   60.2452   31.0862   46.9292 H   0  0  0  0  0  0  0  0  0  0  0  0
  1  2  1  0
  2  3  1  0
  3  4  1  0
  4  5  2  0
  4  6  1  0
  6  7  2  0
  7  8  1  0
  8  9  2  0
  9 10  1  0
 10 11  1  0
 11 12  2  0
 12 13  1  0
 13 14  2  0
 14 15  1  0
 15 16  2  0
 16 17  1  0
 17 18  2  0
  9 19  1  0
 19  6  1  0
 18 10  1  0
 18 13  1  0
  1 20  1  0
  1 21  1  0
  1 22  1  0
  2 23  1  0
  2 24  1  0
  3 25  1  0
  7 26  1  0
  8 27  1  0
 14 28  1  0
 15 29  1  0
 16 30  1  0
 17 31  1  0
M  END
>  <UniqueID>  (29) 
27

>  <SMILES>  (29) 
CCNC(=O)c1ccc(-n2nnc3ccccc32)s1

>  <Energy>  (29) 
103.51462974580708

>  <Genealogy>  (29) 
CCNC(=O)c1ccc(-n2nnc3ccccc32)s1 (3D coordinates assigned)
CCNC(=O)c1ccc(-n2nnc3ccccc32)s1 (optimized conformer: 103.51462974580708 kcal/mol)

>  <smiles>  (29) 
CCNC(=O)c1ccc(-n2nnc3ccccc32)s1

>  <score_type>  (29) 
oracle

>  <origin>  (29) 
adg

>  <m_score__min__energy>  (29) 
-7.2599999999999998

>  <m_primary>  (29) 
energy

$$$$
30:0
     RDKit          3D

 43 44  0  0  0  0  0  0  0  0999 V2000
   56.0030   30.0780   44.4070 C   0  0  0  0  0  0  0  0  0  0  0  0
   57.2060   30.7990   44.8650 N   0  0  0  0  0  0  0  0  0  0  0  0
   57.4230   32.0500   44.1050 C   0  0  0  0  0  0  0  0  0  0  0  0
   57.7600   33.2310   44.9810 C   0  0  0  0  0  0  0  0  0  0  0  0
   57.7230   34.3940   44.4950 O   0  0  0  0  0  0  0  0  0  0  0  0
   58.1380   33.0320   46.3510 N   0  0  0  0  0  0  0  0  0  0  0  0
   58.5080   34.1380   47.2310 C   0  0  0  0  0  0  0  0  0  0  0  0
   59.7850   33.8160   47.9600 C   0  0  0  0  0  0  0  0  0  0  0  0
   60.9620   33.5800   47.2360 C   0  0  0  0  0  0  0  0  0  0  0  0
   62.1580   33.2620   47.8980 C   0  0  0  0  0  0  0  0  0  0  0  0
   63.4360   33.0760   47.1180 C   0  0  0  0  0  0  0  0  0  0  0  0
   63.3860   33.8480   45.9730 F   0  0  0  0  0  0  0  0  0  0  0  0
   64.5310   33.4570   47.8740 F   0  0  0  0  0  0  0  0  0  0  0  0
   63.6000   31.7490   46.7600 F   0  0  0  0  0  0  0  0  0  0  0  0
   62.1710   33.2150   49.3030 C   0  0  0  0  0  0  0  0  0  0  0  0
   60.9910   33.4140   50.0400 C   0  0  0  0  0  0  0  0  0  0  0  0
   61.0200   33.3880   51.5490 C   0  0  0  0  0  0  0  0  0  0  0  0
   62.2240   33.8800   52.0240 F   0  0  0  0  0  0  0  0  0  0  0  0
   60.0000   34.1640   52.0710 F   0  0  0  0  0  0  0  0  0  0  0  0
   60.8630   32.0860   51.9840 F   0  0  0  0  0  0  0  0  0  0  0  0
   59.8040   33.7320   49.3600 C   0  0  0  0  0  0  0  0  0  0  0  0
   58.3990   29.9290   44.8610 C   0  0  0  0  0  0  0  0  0  0  0  0
   59.0890   29.9790   46.1890 C   0  0  0  0  0  0  0  0  0  0  0  0
   60.4560   29.9550   46.3880 C   0  0  0  0  0  0  0  0  0  0  0  0
   60.6330   30.0430   47.7520 C   0  0  0  0  0  0  0  0  0  0  0  0
   59.3650   30.1170   48.2920 C   0  0  0  0  0  0  0  0  0  0  0  0
   58.9560   30.2580   50.1490 Br  0  0  0  0  0  0  0  0  0  0  0  0
   58.4650   30.0780   47.3390 O   0  0  0  0  0  0  0  0  0  0  0  0
   55.4279   29.7333   45.2790 H   0  0  0  0  0  0  0  0  0  0  0  0
   55.3804   30.7519   43.8003 H   0  0  0  0  0  0  0  0  0  0  0  0
   56.3038   29.2112   43.8003 H   0  0  0  0  0  0  0  0  0  0  0  0
   58.2522   31.8906   43.4001 H   0  0  0  0  0  0  0  0  0  0  0  0
   56.4799   32.2855   43.5902 H   0  0  0  0  0  0  0  0  0  0  0  0
   58.1610   32.0620   46.7370 H   0  0  0  0  0  0  0  0  0  0  0  0
   58.6519   35.0481   46.6302 H   0  0  0  0  0  0  0  0  0  0  0  0
   57.7049   34.2968   47.9658 H   0  0  0  0  0  0  0  0  0  0  0  0
   60.9480   33.6447   46.1380 H   0  0  0  0  0  0  0  0  0  0  0  0
   63.1158   33.0202   49.8317 H   0  0  0  0  0  0  0  0  0  0  0  0
   58.8816   33.9167   49.9301 H   0  0  0  0  0  0  0  0  0  0  0  0
   58.0914   28.8938   44.6516 H   0  0  0  0  0  0  0  0  0  0  0  0
   59.0943   30.2823   44.0853 H   0  0  0  0  0  0  0  0  0  0  0  0
   61.2390   29.8811   45.6190 H   0  0  0  0  0  0  0  0  0  0  0  0
   61.5880   30.0523   48.2978 H   0  0  0  0  0  0  0  0  0  0  0  0
  1  2  1  0
  2  3  1  0
  3  4  1  0
  4  5  2  0
  4  6  1  0
  6  7  1  0
  7  8  1  0
  8  9  2  0
  9 10  1  0
 10 11  1  0
 11 12  1  0
 11 13  1  0
 11 14  1  0
 10 15  2  0
 15 16  1  0
 16 17  1  0
 17 18  1  0
 17 19  1  0
 17 20  1  0
 16 21  2  0
  2 22  1  0
 22 23  1  0
 23 24  2  0
 24 25  1  0
 25 26  2  0
 26 27  1  0
 26 28  1  0
 21  8  1  0
 28 23  1  0
  1 29  1  0
  1 30  1  0
  1 31  1  0
  3 32  1  0
  3 33  1  0
  6 34  1  0
  7 35  1  0
  7 36  1  0
  9 37  1  0
 15 38  1  0
 21 39  1  0
 22 40  1  0
 22 41  1  0
 24 42  1  0
 25 43  1  0
M  END
>  <UniqueID>  (30) 
28

>  <SMILES>  (30) 
CN(CC(=O)NCc1cc(C(F)(F)F)cc(C(F)(F)F)c1)Cc1ccc(Br)o1

>  <Energy>  (30) 
67.96853750184928

>  <Genealogy>  (30) 
CN(CC(=O)NCc1cc(C(F)(F)F)cc(C(F)(F)F)c1)Cc1ccc(Br)o1 (3D coordinates assigned)
CN(CC(=O)NCc1cc(C(F)(F)F)cc(C(F)(F)F)c1)Cc1ccc(Br)o1 (optimized conformer: 67.96853750184928 kcal/mol)

>  <smiles>  (30) 
CN(CC(=O)NCc1cc(C(F)(F)F)cc(C(F)(F)F)c1)Cc1ccc(Br)o1

>  <score_type>  (30) 
oracle

>  <origin>  (30) 
adg

>  <m_score__min__energy>  (30) 
-6.6500000000000004

>  <m_primary>  (30) 
energy

$$$$
31:0
     RDKit          3D

 31 30  0  0  0  0  0  0  0  0999 V2000
   57.1760   33.7720   45.5810 C   0  0  0  0  0  0  0  0  0  0  0  0
   57.9830   32.8760   45.0070 C   0  0  0  0  0  0  0  0  0  0  0  0
   57.4790   31.9180   43.9660 C   0  0  0  0  0  0  0  0  0  0  0  0
   56.4460   31.0530   44.5250 N   0  0  0  0  0  0  0  0  0  0  0  0
   56.4690   29.6250   44.4170 C   0  0  0  0  0  0  0  0  0  0  0  0
   55.5180   28.9360   44.8760 O   0  0  0  0  0  0  0  0  0  0  0  0
   57.6430   28.9480   43.7630 C   0  0  0  0  0  0  0  0  0  0  0  0
   57.7290   27.4920   44.0610 N   0  0  1  0  0  0  0  0  0  0  0  0
   57.9160   26.6740   42.8340 C   0  0  0  0  0  0  0  0  0  0  0  0
   57.4000   25.2640   42.9930 C   0  0  0  0  0  0  0  0  0  0  0  0
   57.0160   24.7860   44.1800 C   0  0  0  0  0  0  0  0  0  0  0  0
   58.7990   27.2130   45.0560 C   0  0  0  0  0  0  0  0  0  0  0  0
   58.3990   27.5970   46.4910 C   0  0  0  0  0  0  0  0  0  0  0  0
   59.2440   29.2560   47.0420 Br  0  0  0  0  0  0  0  0  0  0  0  0
   57.5721   34.4617   46.3409 H   0  0  0  0  0  0  0  0  0  0  0  0
   56.1152   33.8203   45.2939 H   0  0  0  0  0  0  0  0  0  0  0  0
   59.0416   32.8388   45.3036 H   0  0  0  0  0  0  0  0  0  0  0  0
   57.0580   32.4870   43.1240 H   0  0  0  0  0  0  0  0  0  0  0  0
   58.3169   31.2943   43.6211 H   0  0  0  0  0  0  0  0  0  0  0  0
   57.5568   29.0762   42.6739 H   0  0  0  0  0  0  0  0  0  0  0  0
   58.5530   29.4157   44.1668 H   0  0  0  0  0  0  0  0  0  0  0  0
   56.8090   27.2290   44.4860 H   0  0  0  0  0  0  0  0  0  0  0  0
   57.3773   27.1550   42.0042 H   0  0  0  0  0  0  0  0  0  0  0  0
   58.9961   26.6134   42.6349 H   0  0  0  0  0  0  0  0  0  0  0  0
   57.3386   24.6132   42.1083 H   0  0  0  0  0  0  0  0  0  0  0  0
   56.6444   23.7540   44.2633 H   0  0  0  0  0  0  0  0  0  0  0  0
   57.0714   25.4244   45.0741 H   0  0  0  0  0  0  0  0  0  0  0  0
   59.0286   26.1375   45.0318 H   0  0  0  0  0  0  0  0  0  0  0  0
   59.6712   27.8248   44.7822 H   0  0  0  0  0  0  0  0  0  0  0  0
   57.3068   27.7190   46.5376 H   0  0  0  0  0  0  0  0  0  0  0  0
   58.7317   26.7972   47.1689 H   0  0  0  0  0  0  0  0  0  0  0  0
  1  2  2  0
  2  3  1  0
  3  4  1  0
  4  5  1  0
  5  6  2  0
  5  7  1  0
  7  8  1  0
  8  9  1  0
  9 10  1  0
 10 11  2  0
  8 12  1  0
 12 13  1  0
 13 14  1  0
  1 15  1  0
  1 16  1  0
  2 17  1  0
  3 18  1  0
  3 19  1  0
  7 20  1  0
  7 21  1  0
  8 22  1  1
  9 23  1  0
  9 24  1  0
 10 25  1  0
 11 26  1  0
 11 27  1  0
 12 28  1  0
 12 29  1  0
 13 30  1  0
 13 31  1  0
M  CHG  2   4  -1   8   1
M  END
>  <UniqueID>  (31) 
29

>  <SMILES>  (31) 
C=CC[N-]C(=O)C[N@@H+](CC=C)CCBr

>  <Energy>  (31) 
21.558581353093658

>  <Genealogy>  (31) 
C=CC[N-]C(=O)C[NH+](CC=C)CCBr (protonated)
C=CC[N-]C(=O)C[N@@H+](CC=C)CCBr (chirality)
C=CC[N-]C(=O)C[N@@H+](CC=C)CCBr (3D coordinates assigned)
C=CC[N-]C(=O)C[N@@H+](CC=C)CCBr (optimized conformer: 21.558581353093658 kcal/mol)

>  <smiles>  (31) 
C=CCNC(=O)CN(CC=C)CCBr

>  <score_type>  (31) 
oracle

>  <origin>  (31) 
adg

>  <m_score__min__energy>  (31) 
-4.8499999999999996

>  <m_primary>  (31) 
energy

$$$$
32:0
     RDKit          3D

 50 53  0  0  0  0  0  0  0  0999 V2000
   55.6673   28.2580   44.4028 H   0  0  0  0  0  0  0  0  0  0  0  0
   56.4810   28.9780   44.2310 C   0  0  0  0  0  0  0  0  0  0  0  0
   57.8720   28.4650   44.2740 C   0  0  0  0  0  0  0  0  0  0  0  0
   58.3030   27.7820   43.3040 O   0  0  0  0  0  0  0  0  0  0  0  0
   58.7250   28.6970   45.4200 N   0  0  0  0  0  0  0  0  0  0  0  0
   60.1450   28.3110   45.3750 C   0  0  0  0  0  0  0  0  0  0  0  0
   60.4396   28.1340   44.3301 H   0  0  0  0  0  0  0  0  0  0  0  0
   60.2848   27.3947   45.9673 H   0  0  0  0  0  0  0  0  0  0  0  0
   61.0210   29.4250   45.9660 C   0  0  0  0  0  0  0  0  0  0  0  0
   61.1116   30.2364   45.2289 H   0  0  0  0  0  0  0  0  0  0  0  0
   62.0062   28.9973   46.2038 H   0  0  0  0  0  0  0  0  0  0  0  0
   60.4450   29.9690   47.2060 N   0  0  0  0  0  0  0  0  0  0  0  0
   61.0450   31.1240   47.8230 C   0  0  0  0  0  0  0  0  0  0  0  0
   62.0060   31.8820   47.1360 C   0  0  0  0  0  0  0  0  0  0  0  0
   62.3085   31.5890   46.1198 H   0  0  0  0  0  0  0  0  0  0  0  0
   62.5810   33.0060   47.7340 C   0  0  0  0  0  0  0  0  0  0  0  0
   63.3366   33.5880   47.1859 H   0  0  0  0  0  0  0  0  0  0  0  0
   62.2050   33.3990   49.0240 C   0  0  0  0  0  0  0  0  0  0  0  0
   62.8120   34.5340   49.5800 O   0  0  0  0  0  0  0  0  0  0  0  0
   63.3630   34.5890   50.8910 C   0  0  0  0  0  0  0  0  0  0  0  0
   62.5543   34.5083   51.6323 H   0  0  0  0  0  0  0  0  0  0  0  0
   64.0695   33.7569   51.0270 H   0  0  0  0  0  0  0  0  0  0  0  0
   63.8911   35.5443   51.0270 H   0  0  0  0  0  0  0  0  0  0  0  0
   61.2350   32.6450   49.7130 C   0  0  0  0  0  0  0  0  0  0  0  0
   60.9271   32.9440   50.7258 H   0  0  0  0  0  0  0  0  0  0  0  0
   60.6620   31.5190   49.1160 C   0  0  0  0  0  0  0  0  0  0  0  0
   59.9051   30.9372   49.6625 H   0  0  0  0  0  0  0  0  0  0  0  0
   59.2250   29.3720   47.7610 C   0  0  0  0  0  0  0  0  0  0  0  0
   58.8434   30.0073   48.5739 H   0  0  0  0  0  0  0  0  0  0  0  0
   59.4540   28.3703   48.1537 H   0  0  0  0  0  0  0  0  0  0  0  0
   58.1650   29.2580   46.6630 C   0  0  0  0  0  0  0  0  0  0  0  0
   57.7614   30.2593   46.4519 H   0  0  0  0  0  0  0  0  0  0  0  0
   57.3744   28.5810   47.0188 H   0  0  0  0  0  0  0  0  0  0  0  0
   56.1410   30.2560   43.9980 C   0  0  0  0  0  0  0  0  0  0  0  0
   55.1469   30.4428   43.5657 H   0  0  0  0  0  0  0  0  0  0  0  0
   56.9910   31.4310   44.2740 C   0  0  0  0  0  0  0  0  0  0  0  0
   57.1740   31.8160   45.5680 N   0  0  0  0  0  0  0  0  0  0  0  0
   57.9770   32.8630   45.8990 C   0  0  0  0  0  0  0  0  0  0  0  0
   58.1350   33.2490   47.2330 C   0  0  0  0  0  0  0  0  0  0  0  0
   57.6089   32.7063   48.0322 H   0  0  0  0  0  0  0  0  0  0  0  0
   58.9650   34.3280   47.5450 C   0  0  0  0  0  0  0  0  0  0  0  0
   59.0971   34.6407   48.5913 H   0  0  0  0  0  0  0  0  0  0  0  0
   59.6270   35.0080   46.5180 C   0  0  0  0  0  0  0  0  0  0  0  0
   60.2807   35.8598   46.7569 H   0  0  0  0  0  0  0  0  0  0  0  0
   59.4650   34.6190   45.2230 N   0  0  0  0  0  0  0  0  0  0  0  0
   58.6610   33.5720   44.8930 C   0  0  0  0  0  0  0  0  0  0  0  0
   58.5120   33.1790   43.5610 C   0  0  0  0  0  0  0  0  0  0  0  0
   59.0441   33.7174   42.7628 H   0  0  0  0  0  0  0  0  0  0  0  0
   57.6840   32.0990   43.2480 C   0  0  0  0  0  0  0  0  0  0  0  0
   57.5741   31.7719   42.2035 H   0  0  0  0  0  0  0  0  0  0  0  0
  1  2  1  0
  2  3  1  0
  3  4  2  0
  3  5  1  0
  5  6  1  0
  6  7  1  0
  6  8  1  0
  6  9  1  0
  9 10  1  0
  9 11  1  0
  9 12  1  0
 12 13  1  0
 13 14  2  0
 14 15  1  0
 14 16  1  0
 16 17  1  0
 16 18  2  0
 18 19  1  0
 19 20  1  0
 20 21  1  0
 20 22  1  0
 20 23  1  0
 18 24  1  0
 24 25  1  0
 24 26  2  0
 26 27  1  0
 12 28  1  0
 28 29  1  0
 28 30  1  0
 28 31  1  0
 31 32  1  0
 31 33  1  0
  2 34  2  0
 34 35  1  0
 34 36  1  0
 36 37  2  0
 37 38  1  0
 38 39  2  0
 39 40  1  0
 39 41  1  0
 41 42  1  0
 41 43  2  0
 43 44  1  0
 43 45  1  0
 45 46  2  0
 46 47  1  0
 47 48  1  0
 47 49  2  0
 49 50  1  0
 31  5  1  0
 49 36  1  0
 26 13  1  0
 46 38  1  0
M  END
>  <UniqueID>  (32) 
30

>  <SMILES>  (32) 
COc1ccc(N2CCN(C(=O)/C=C\c3ccc4ncccc4n3)CC2)cc1

>  <Energy>  (32) 
69.72025043782632

>  <Genealogy>  (32) 
COc1ccc(N2CCN(C(=O)/C=C\c3ccc4ncccc4n3)CC2)cc1 (cis-trans isomerization)
COc1ccc(N2CCN(C(=O)/C=C\c3ccc4ncccc4n3)CC2)cc1 (3D coordinates assigned)
COc1ccc(N2CCN(C(=O)/C=C\c3ccc4ncccc4n3)CC2)cc1 (nonaromatic ring conformer: 69.72025043782632 kcal/mol)

>  <smiles>  (32) 
COc1ccc(N2CCN(C(=O)C=Cc3ccc4ncccc4n3)CC2)cc1

>  <score_type>  (32) 
oracle

>  <origin>  (32) 
adg

>  <m_score__min__energy>  (32) 
-7.8300000000000001

>  <m_primary>  (32) 
energy

$$$$
33:0
     RDKit          3D

 51 52  0  0  0  0  0  0  0  0999 V2000
   63.3860   33.8100   46.5070 C   0  0  0  0  0  0  0  0  0  0  0  0
   62.6160   32.8940   47.4700 C   0  0  0  0  0  0  0  0  0  0  0  0
   62.0980   33.5700   48.6900 N   0  0  2  0  0  0  0  0  0  0  0  0
   62.9810   33.3370   49.8490 C   0  0  0  0  0  0  0  0  0  0  0  0
   60.6990   33.2230   49.0400 C   0  0  0  0  0  0  0  0  0  0  0  0
   59.6870   34.2890   48.5800 C   0  0  0  0  0  0  0  0  0  0  0  0
   59.1840   33.9750   47.1960 C   0  0  0  0  0  0  0  0  0  0  0  0
   59.3770   34.8840   46.1520 C   0  0  0  0  0  0  0  0  0  0  0  0
   58.8870   34.6050   44.8760 C   0  0  0  0  0  0  0  0  0  0  0  0
   58.1790   33.4130   44.6190 C   0  0  0  0  0  0  0  0  0  0  0  0
   57.7170   33.1170   43.3280 O   0  0  0  0  0  0  0  0  0  0  0  0
   58.0920   31.9740   42.5670 C   0  0  0  0  0  0  0  0  0  0  0  0
   57.9500   32.5050   45.6870 C   0  0  0  0  0  0  0  0  0  0  0  0
   57.2350   31.2960   45.5670 O   0  0  0  0  0  0  0  0  0  0  0  0
   57.7610   29.9690   45.4790 C   0  0  0  0  0  0  0  0  0  0  0  0
   57.0370   29.2250   44.3350 C   0  0  0  0  0  0  0  0  0  0  0  0
   57.8630   28.0710   43.7240 C   0  0  0  0  0  0  0  0  0  0  0  0
   58.8790   27.5020   44.7210 C   0  0  0  0  0  0  0  0  0  0  0  0
   59.8750   28.5800   45.1950 C   0  0  0  0  0  0  0  0  0  0  0  0
   59.2770   30.0000   45.2140 C   0  0  0  0  0  0  0  0  0  0  0  0
   58.4640   32.7980   46.9570 C   0  0  0  0  0  0  0  0  0  0  0  0
   63.9882   34.5264   47.0851 H   0  0  0  0  0  0  0  0  0  0  0  0
   64.0481   33.2019   45.8731 H   0  0  0  0  0  0  0  0  0  0  0  0
   62.6731   34.3577   45.8731 H   0  0  0  0  0  0  0  0  0  0  0  0
   61.7609   32.4662   46.9260 H   0  0  0  0  0  0  0  0  0  0  0  0
   63.3324   32.1344   47.8160 H   0  0  0  0  0  0  0  0  0  0  0  0
   62.1300   34.6000   48.5010 H   0  0  0  0  0  0  0  0  0  0  0  0
   62.4128   33.4869   50.7789 H   0  0  0  0  0  0  0  0  0  0  0  0
   63.3651   32.3068   49.8161 H   0  0  0  0  0  0  0  0  0  0  0  0
   63.8234   34.0436   49.8161 H   0  0  0  0  0  0  0  0  0  0  0  0
   60.4438   32.2662   48.5610 H   0  0  0  0  0  0  0  0  0  0  0  0
   60.6378   33.1594   50.1365 H   0  0  0  0  0  0  0  0  0  0  0  0
   58.8375   34.3072   49.2786 H   0  0  0  0  0  0  0  0  0  0  0  0
   60.1853   35.2695   48.5639 H   0  0  0  0  0  0  0  0  0  0  0  0
   59.9178   35.8238   46.3374 H   0  0  0  0  0  0  0  0  0  0  0  0
   59.0550   35.3237   44.0604 H   0  0  0  0  0  0  0  0  0  0  0  0
   58.3614   31.1528   43.2474 H   0  0  0  0  0  0  0  0  0  0  0  0
   57.2488   31.6630   41.9328 H   0  0  0  0  0  0  0  0  0  0  0  0
   58.9556   32.2230   41.9328 H   0  0  0  0  0  0  0  0  0  0  0  0
   57.5947   29.4465   46.4326 H   0  0  0  0  0  0  0  0  0  0  0  0
   56.0987   28.8089   44.7305 H   0  0  0  0  0  0  0  0  0  0  0  0
   56.8659   29.9578   43.5326 H   0  0  0  0  0  0  0  0  0  0  0  0
   57.1776   27.2671   43.4175 H   0  0  0  0  0  0  0  0  0  0  0  0
   58.4188   28.4698   42.8625 H   0  0  0  0  0  0  0  0  0  0  0  0
   58.3392   27.1063   45.5940 H   0  0  0  0  0  0  0  0  0  0  0  0
   59.4474   26.7067   44.2166 H   0  0  0  0  0  0  0  0  0  0  0  0
   60.2043   28.3267   46.2135 H   0  0  0  0  0  0  0  0  0  0  0  0
   60.7094   28.5887   44.4783 H   0  0  0  0  0  0  0  0  0  0  0  0
   59.7669   30.5838   46.0073 H   0  0  0  0  0  0  0  0  0  0  0  0
   59.4463   30.4595   44.2290 H   0  0  0  0  0  0  0  0  0  0  0  0
   58.2988   32.0898   47.7823 H   0  0  0  0  0  0  0  0  0  0  0  0
  1  2  1  0
  2  3  1  0
  3  4  1  0
  3  5  1  0
  5  6  1  0
  6  7  1  0
  7  8  2  0
  8  9  1  0
  9 10  2  0
 10 11  1  0
 11 12  1  0
 10 13  1  0
 13 14  1  0
 14 15  1  0
 15 16  1  0
 16 17  1  0
 17 18  1  0
 18 19  1  0
 19 20  1  0
 13 21  2  0
 21  7  1  0
 20 15  1  0
  1 22  1  0
  1 23  1  0
  1 24  1  0
  2 25  1  0
  2 26  1  0
  3 27  1  6
  4 28  1  0
  4 29  1  0
  4 30  1  0
  5 31  1  0
  5 32  1  0
  6 33  1  0
  6 34  1  0
  8 35  1  0
  9 36  1  0
 12 37  1  0
 12 38  1  0
 12 39  1  0
 15 40  1  0
 16 41  1  0
 16 42  1  0
 17 43  1  0
 17 44  1  0
 18 45  1  0
 18 46  1  0
 19 47  1  0
 19 48  1  0
 20 49  1  0
 20 50  1  0
 21 51  1  0
M  CHG  1   3   1
M  END
>  <UniqueID>  (33) 
31

>  <SMILES>  (33) 
CC[N@H+](C)CCc1ccc(OC)c(OC2CCCCC2)c1

>  <Energy>  (33) 
54.659679309216024

>  <Genealogy>  (33) 
CC[NH+](C)CCc1ccc(OC)c(OC2CCCCC2)c1 (protonated)
CC[N@H+](C)CCc1ccc(OC)c(OC2CCCCC2)c1 (chirality)
CC[N@H+](C)CCc1ccc(OC)c(OC2CCCCC2)c1 (3D coordinates assigned)
CC[N@H+](C)CCc1ccc(OC)c(OC2CCCCC2)c1 (nonaromatic ring conformer: 54.659679309216024 kcal/mol)

>  <smiles>  (33) 
CCN(C)CCc1ccc(OC)c(OC2CCCCC2)c1

>  <score_type>  (33) 
oracle

>  <origin>  (33) 
adg

>  <m_score__min__energy>  (33) 
-5.3899999999999997

>  <m_primary>  (33) 
energy

$$$$
34:0
     RDKit          3D

 38 39  0  0  0  0  0  0  0  0999 V2000
   55.1810   25.0720   45.6060 C   0  0  0  0  0  0  0  0  0  0  0  0
   55.3450   26.4560   45.9030 O   0  0  0  0  0  0  0  0  0  0  0  0
   56.5830   27.1150   45.9610 C   0  0  0  0  0  0  0  0  0  0  0  0
   57.7240   26.5110   46.5230 C   0  0  0  0  0  0  0  0  0  0  0  0
   58.9390   27.1970   46.5610 C   0  0  0  0  0  0  0  0  0  0  0  0
   59.0350   28.4970   46.0470 C   0  0  0  0  0  0  0  0  0  0  0  0
   60.3580   29.2180   46.0390 C   0  0  0  0  0  0  0  0  0  0  0  0
   60.2030   30.6870   46.4480 C   0  0  0  0  0  0  0  0  0  0  0  0
   59.4690   30.7950   47.7200 N   0  0  0  0  0  0  0  0  0  0  0  0
   59.1440   32.1850   48.0790 C   0  0  0  0  0  0  0  0  0  0  0  0
   58.7930   33.0090   46.8730 C   0  0  0  0  0  0  0  0  0  0  0  0
   59.5310   34.0720   46.3700 C   0  0  0  0  0  0  0  0  0  0  0  0
   58.9690   34.6350   45.2170 C   0  0  0  0  0  0  0  0  0  0  0  0
   57.7920   34.0170   44.8120 C   0  0  0  0  0  0  0  0  0  0  0  0
   57.4520   32.7690   45.8870 S   0  0  0  0  0  0  0  0  0  0  0  0
   57.9020   29.1000   45.4830 C   0  0  0  0  0  0  0  0  0  0  0  0
   56.6730   28.4140   45.4370 C   0  0  0  0  0  0  0  0  0  0  0  0
   55.5220   28.9850   44.8720 O   0  0  0  0  0  0  0  0  0  0  0  0
   55.5160   29.8100   43.7110 C   0  0  0  0  0  0  0  0  0  0  0  0
   55.1134   24.5012   46.5439 H   0  0  0  0  0  0  0  0  0  0  0  0
   54.2596   24.9289   45.0224 H   0  0  0  0  0  0  0  0  0  0  0  0
   56.0434   24.7175   45.0224 H   0  0  0  0  0  0  0  0  0  0  0  0
   57.6575   25.4930   46.9343 H   0  0  0  0  0  0  0  0  0  0  0  0
   59.8262   26.7144   46.9969 H   0  0  0  0  0  0  0  0  0  0  0  0
   61.0396   28.7210   46.7450 H   0  0  0  0  0  0  0  0  0  0  0  0
   60.7606   29.1866   45.0158 H   0  0  0  0  0  0  0  0  0  0  0  0
   61.1999   31.1367   46.5663 H   0  0  0  0  0  0  0  0  0  0  0  0
   59.6381   31.2156   45.6660 H   0  0  0  0  0  0  0  0  0  0  0  0
   58.5830   30.2400   47.6620 H   0  0  0  0  0  0  0  0  0  0  0  0
   58.2876   32.1828   48.7694 H   0  0  0  0  0  0  0  0  0  0  0  0
   60.0324   32.6316   48.5495 H   0  0  0  0  0  0  0  0  0  0  0  0
   60.4620   34.4350   46.8299 H   0  0  0  0  0  0  0  0  0  0  0  0
   59.4169   35.4858   44.6827 H   0  0  0  0  0  0  0  0  0  0  0  0
   57.1861   34.2964   43.9375 H   0  0  0  0  0  0  0  0  0  0  0  0
   57.9736   30.1181   45.0727 H   0  0  0  0  0  0  0  0  0  0  0  0
   55.5083   30.8677   44.0129 H   0  0  0  0  0  0  0  0  0  0  0  0
   56.4156   29.6062   43.1117 H   0  0  0  0  0  0  0  0  0  0  0  0
   54.6194   29.5932   43.1117 H   0  0  0  0  0  0  0  0  0  0  0  0
  1  2  1  0
  2  3  1  0
  3  4  2  0
  4  5  1  0
  5  6  2  0
  6  7  1  0
  7  8  1  0
  8  9  1  0
  9 10  1  0
 10 11  1  0
 11 12  2  0
 12 13  1  0
 13 14  2  0
 14 15  1  0
  6 16  1  0
 16 17  2  0
 17 18  1  0
 18 19  1  0
 17  3  1  0
 15 11  1  0
  1 20  1  0
  1 21  1  0
  1 22  1  0
  4 23  1  0
  5 24  1  0
  7 25  1  0
  7 26  1  0
  8 27  1  0
  8 28  1  0
  9 29  1  0
 10 30  1  0
 10 31  1  0
 12 32  1  0
 13 33  1  0
 14 34  1  0
 16 35  1  0
 19 36  1  0
 19 37  1  0
 19 38  1  0
M  END
>  <UniqueID>  (34) 
32

>  <SMILES>  (34) 
COc1ccc(CCNCc2cccs2)cc1OC

>  <Energy>  (34) 
59.934591562675124

>  <Genealogy>  (34) 
COc1ccc(CCNCc2cccs2)cc1OC (3D coordinates assigned)
COc1ccc(CCNCc2cccs2)cc1OC (optimized conformer: 59.934591562675124 kcal/mol)

>  <smiles>  (34) 
COc1ccc(CCNCc2cccs2)cc1OC

>  <score_type>  (34) 
oracle

>  <origin>  (34) 
adg

>  <m_score__min__energy>  (34) 
-6.8099999999999996

>  <m_primary>  (34) 
energy

$$$$
35:0
     RDKit          3D

 39 41  0  0  0  0  0  0  0  0999 V2000
   56.7620   19.7910   43.3850 H   0  0  0  0  0  0  0  0  0  0  0  0
   56.3130   20.6980   43.3490 O   0  0  0  0  0  0  0  0  0  0  0  0
   56.8990   21.8590   43.8590 C   0  0  0  0  0  0  0  0  0  0  0  0
   58.0390   21.7290   44.6580 C   0  0  0  0  0  0  0  0  0  0  0  0
   58.4483   20.7294   44.8659 H   0  0  0  0  0  0  0  0  0  0  0  0
   58.6620   22.8570   45.1940 C   0  0  0  0  0  0  0  0  0  0  0  0
   59.5590   22.7394   45.8197 H   0  0  0  0  0  0  0  0  0  0  0  0
   58.1550   24.1350   44.9420 C   0  0  0  0  0  0  0  0  0  0  0  0
   58.8180   25.2340   45.5140 O   0  0  0  0  0  0  0  0  0  0  0  0
   58.2830   26.0830   46.5310 C   0  0  0  0  0  0  0  0  0  0  0  0
   58.7182   27.0879   46.4275 H   0  0  0  0  0  0  0  0  0  0  0  0
   58.5331   25.6564   47.5136 H   0  0  0  0  0  0  0  0  0  0  0  0
   56.7940   26.1790   46.4150 C   0  0  0  0  0  0  0  0  0  0  0  0
   56.0730   25.3210   46.9930 O   0  0  0  0  0  0  0  0  0  0  0  0
   56.2190   27.2170   45.6060 N   0  0  0  0  0  0  0  0  0  0  0  0
   56.7170   28.3940   45.3550 C   0  0  0  0  0  0  0  0  0  0  0  0
   56.4280   29.0570   44.2090 N   0  0  0  0  0  0  0  0  0  0  0  0
   57.0700   30.2520   44.1640 C   0  0  0  0  0  0  0  0  0  0  0  0
   56.9700   31.1600   43.1100 C   0  0  0  0  0  0  0  0  0  0  0  0
   56.3389   30.9370   42.2371 H   0  0  0  0  0  0  0  0  0  0  0  0
   57.6900   32.3650   43.1830 C   0  0  0  0  0  0  0  0  0  0  0  0
   57.6219   33.0906   42.3591 H   0  0  0  0  0  0  0  0  0  0  0  0
   58.5040   32.6550   44.3090 C   0  0  0  0  0  0  0  0  0  0  0  0
   59.2360   33.8470   44.4180 O   0  0  0  0  0  0  0  0  0  0  0  0
   59.3300   34.6250   45.6070 C   0  0  0  0  0  0  0  0  0  0  0  0
   59.2503   33.9656   46.4839 H   0  0  0  0  0  0  0  0  0  0  0  0
   60.2978   35.1474   45.6278 H   0  0  0  0  0  0  0  0  0  0  0  0
   58.5145   35.3629   45.6278 H   0  0  0  0  0  0  0  0  0  0  0  0
   58.5890   31.7250   45.3600 C   0  0  0  0  0  0  0  0  0  0  0  0
   59.2130   31.9294   46.2425 H   0  0  0  0  0  0  0  0  0  0  0  0
   57.8660   30.5400   45.2590 C   0  0  0  0  0  0  0  0  0  0  0  0
   57.7860   29.2660   46.3500 S   0  0  0  0  0  0  0  0  0  0  0  0
   57.0110   24.2740   44.1330 C   0  0  0  0  0  0  0  0  0  0  0  0
   56.6100   25.2768   43.9244 H   0  0  0  0  0  0  0  0  0  0  0  0
   56.3760   23.1430   43.5890 C   0  0  0  0  0  0  0  0  0  0  0  0
   55.1500   23.3180   42.7340 C   0  0  0  0  0  0  0  0  0  0  0  0
   54.2680   23.4439   43.3791 H   0  0  0  0  0  0  0  0  0  0  0  0
   55.2699   24.2081   42.0990 H   0  0  0  0  0  0  0  0  0  0  0  0
   55.0160   22.4299   42.0990 H   0  0  0  0  0  0  0  0  0  0  0  0
  1  2  1  0
  2  3  1  0
  3  4  2  0
  4  5  1  0
  4  6  1  0
  6  7  1  0
  6  8  2  0
  8  9  1  0
  9 10  1  0
 10 11  1  0
 10 12  1  0
 10 13  1  0
 13 14  2  0
 13 15  1  0
 15 16  2  0
 16 17  1  0
 17 18  1  0
 18 19  2  0
 19 20  1  0
 19 21  1  0
 21 22  1  0
 21 23  2  0
 23 24  1  0
 24 25  1  0
 25 26  1  0
 25 27  1  0
 25 28  1  0
 23 29  1  0
 29 30  1  0
 29 31  2  0
 31 32  1  0
  8 33  1  0
 33 34  1  0
 33 35  2  0
 35 36  1  0
 36 37  1  0
 36 38  1  0
 36 39  1  0
 35  3  1  0
 32 16  1  0
 31 18  1  0
M  CHG  1  17  -1
M  END
>  <UniqueID>  (35) 
33

>  <SMILES>  (35) 
COc1ccc2[n-]/c(=N/C(=O)COc3ccc(O)c(C)c3)sc2c1

>  <Energy>  (35) 
78.20753636051573

>  <Genealogy>  (35) 
COc1ccc2[n-]c(=NC(=O)COc3ccc(O)c(C)c3)sc2c1 (protonated)
COc1ccc2[n-]/c(=N/C(=O)COc3ccc(O)c(C)c3)sc2c1 (cis-trans isomerization)
COc1ccc2[n-]/c(=N/C(=O)COc3ccc(O)c(C)c3)sc2c1 (3D coordinates assigned)
COc1ccc2[n-]/c(=N/C(=O)COc3ccc(O)c(C)c3)sc2c1 (optimized conformer: 78.20753636051573 kcal/mol)

>  <smiles>  (35) 
COc1ccc2[nH]c(=NC(=O)COc3ccc(O)c(C)c3)sc2c1

>  <score_type>  (35) 
oracle

>  <origin>  (35) 
adg

>  <m_score__min__energy>  (35) 
-9.2400000000000002

>  <m_primary>  (35) 
energy

$$$$
36:0
     RDKit          3D

 43 45  0  0  0  0  0  0  0  0999 V2000
   59.8830   26.3920   46.0780 C   0  0  0  0  0  0  0  0  0  0  0  0
   58.4100   26.0810   46.0320 C   0  0  0  0  0  0  0  0  0  0  0  0
   57.9880   24.7910   45.6880 C   0  0  0  0  0  0  0  0  0  0  0  0
   56.6200   24.4960   45.6330 C   0  0  0  0  0  0  0  0  0  0  0  0
   56.1470   23.1760   45.2930 N   0  0  0  0  0  0  0  0  0  0  0  0
   55.9440   22.2050   46.3840 C   0  0  0  0  0  0  0  0  0  0  0  0
   56.4890   20.8050   46.0620 C   0  0  0  0  0  0  0  0  0  0  0  0
   55.7290   20.0900   44.9240 C   0  0  0  0  0  0  0  0  0  0  0  0
   56.2710   20.3330   43.5760 N   0  0  0  0  0  0  0  0  0  0  0  0
   56.8000   21.6910   43.3750 C   0  0  0  0  0  0  0  0  0  0  0  0
   55.8690   22.8130   43.8920 C   0  0  0  0  0  0  0  0  0  0  0  0
   55.7280   25.4720   45.9420 N   0  0  0  0  0  0  0  0  0  0  0  0
   56.1200   26.6990   46.2870 N   0  0  0  0  0  0  0  0  0  0  0  0
   57.4350   27.0450   46.3630 C   0  0  0  0  0  0  0  0  0  0  0  0
   57.8100   28.4650   46.7270 C   0  0  0  0  0  0  0  0  0  0  0  0
   57.5830   29.4250   45.5870 C   0  0  0  0  0  0  0  0  0  0  0  0
   56.7140   29.0820   44.5380 C   0  0  0  0  0  0  0  0  0  0  0  0
   56.5280   29.9570   43.4640 C   0  0  0  0  0  0  0  0  0  0  0  0
   57.2140   31.1740   43.4240 C   0  0  0  0  0  0  0  0  0  0  0  0
   58.0890   31.5170   44.4590 C   0  0  0  0  0  0  0  0  0  0  0  0
   58.2780   30.6450   45.5360 C   0  0  0  0  0  0  0  0  0  0  0  0
   60.2106   26.4612   47.1258 H   0  0  0  0  0  0  0  0  0  0  0  0
   60.4426   25.5922   45.5709 H   0  0  0  0  0  0  0  0  0  0  0  0
   60.0715   27.3498   45.5709 H   0  0  0  0  0  0  0  0  0  0  0  0
   58.7295   24.0107   45.4614 H   0  0  0  0  0  0  0  0  0  0  0  0
   56.4539   22.5795   47.2839 H   0  0  0  0  0  0  0  0  0  0  0  0
   54.8587   22.1053   46.5332 H   0  0  0  0  0  0  0  0  0  0  0  0
   57.5443   20.9024   45.7673 H   0  0  0  0  0  0  0  0  0  0  0  0
   56.3610   20.1940   46.9677 H   0  0  0  0  0  0  0  0  0  0  0  0
   55.7620   19.0075   45.1168 H   0  0  0  0  0  0  0  0  0  0  0  0
   54.7077   20.4985   44.9271 H   0  0  0  0  0  0  0  0  0  0  0  0
   56.9790   19.6060   43.3190 H   0  0  0  0  0  0  0  0  0  0  0  0
   57.7617   21.7690   43.9032 H   0  0  0  0  0  0  0  0  0  0  0  0
   56.8995   21.8358   42.2891 H   0  0  0  0  0  0  0  0  0  0  0  0
   56.0075   23.7044   43.2625 H   0  0  0  0  0  0  0  0  0  0  0  0
   54.8356   22.4394   43.8422 H   0  0  0  0  0  0  0  0  0  0  0  0
   57.1997   28.7835   47.5850 H   0  0  0  0  0  0  0  0  0  0  0  0
   58.8825   28.4786   46.9709 H   0  0  0  0  0  0  0  0  0  0  0  0
   56.1781   28.1217   44.5618 H   0  0  0  0  0  0  0  0  0  0  0  0
   55.8405   29.6873   42.6488 H   0  0  0  0  0  0  0  0  0  0  0  0
   57.0655   31.8617   42.5784 H   0  0  0  0  0  0  0  0  0  0  0  0
   58.6297   32.4744   44.4262 H   0  0  0  0  0  0  0  0  0  0  0  0
   58.9725   30.9150   46.3452 H   0  0  0  0  0  0  0  0  0  0  0  0
  1  2  1  0
  2  3  2  0
  3  4  1  0
  4  5  1  0
  5  6  1  0
  6  7  1  0
  7  8  1  0
  8  9  1  0
  9 10  1  0
 10 11  1  0
  4 12  2  0
 12 13  1  0
 13 14  2  0
 14 15  1  0
 15 16  1  0
 16 17  2  0
 17 18  1  0
 18 19  2  0
 19 20  1  0
 20 21  2  0
 14  2  1  0
 21 16  1  0
 11  5  1  0
  1 22  1  0
  1 23  1  0
  1 24  1  0
  3 25  1  0
  6 26  1  0
  6 27  1  0
  7 28  1  0
  7 29  1  0
  8 30  1  0
  8 31  1  0
  9 32  1  0
 10 33  1  0
 10 34  1  0
 11 35  1  0
 11 36  1  0
 15 37  1  0
 15 38  1  0
 17 39  1  0
 18 40  1  0
 19 41  1  0
 20 42  1  0
 21 43  1  0
M  END
>  <UniqueID>  (36) 
34

>  <SMILES>  (36) 
Cc1cc(N2CCCNCC2)nnc1Cc1ccccc1

>  <Energy>  (36) 
57.1596748708713

>  <Genealogy>  (36) 
Cc1cc(N2CCCNCC2)nnc1Cc1ccccc1 (3D coordinates assigned)
Cc1cc(N2CCCNCC2)nnc1Cc1ccccc1 (nonaromatic ring conformer: 57.1596748708713 kcal/mol)

>  <smiles>  (36) 
Cc1cc(N2CCCNCC2)nnc1Cc1ccccc1

>  <score_type>  (36) 
oracle

>  <origin>  (36) 
adg

>  <m_score__min__energy>  (36) 
-6.0499999999999998

>  <m_primary>  (36) 
energy

$$$$
37:0
     RDKit          3D

 36 36  0  0  0  0  0  0  0  0999 V2000
   60.0730   34.5910   47.3230 C   0  0  0  0  0  0  0  0  0  0  0  0
   60.1190   33.8590   45.9760 C   0  0  0  0  0  0  0  0  0  0  0  0
   58.7950   33.3210   45.5650 N   0  0  0  0  0  0  0  0  0  0  0  0
   57.7070   34.1290   46.1770 C   0  0  0  0  0  0  0  0  0  0  0  0
   56.6530   34.5810   45.1570 C   0  0  0  0  0  0  0  0  0  0  0  0
   58.6590   33.2040   44.0860 C   0  0  0  0  0  0  0  0  0  0  0  0
   57.7890   32.0900   43.6790 N   0  0  0  0  0  0  0  0  0  0  0  0
   57.3880   31.7710   42.3560 C   0  0  0  0  0  0  0  0  0  0  0  0
   57.6530   32.4970   41.3620 O   0  0  0  0  0  0  0  0  0  0  0  0
   56.6600   30.4730   42.2510 C   0  0  0  0  0  0  0  0  0  0  0  0
   56.6760   29.9150   43.7060 C   0  0  0  0  0  0  0  0  0  0  0  0
   57.4170   28.5690   43.7780 C   0  0  0  0  0  0  0  0  0  0  0  0
   55.2500   29.7770   44.2660 C   0  0  0  0  0  0  0  0  0  0  0  0
   57.4280   30.9680   44.4700 C   0  0  0  0  0  0  0  0  0  0  0  0
   57.7350   30.8610   45.6880 O   0  0  0  0  0  0  0  0  0  0  0  0
   60.1191   33.8570   48.1410 H   0  0  0  0  0  0  0  0  0  0  0  0
   60.9298   35.2768   47.3971 H   0  0  0  0  0  0  0  0  0  0  0  0
   59.1371   35.1642   47.3971 H   0  0  0  0  0  0  0  0  0  0  0  0
   60.4665   34.5630   45.2055 H   0  0  0  0  0  0  0  0  0  0  0  0
   60.8027   33.0045   46.0875 H   0  0  0  0  0  0  0  0  0  0  0  0
   58.7190   32.3530   45.9600 H   0  0  0  0  0  0  0  0  0  0  0  0
   57.2110   33.5224   46.9490 H   0  0  0  0  0  0  0  0  0  0  0  0
   58.1663   35.0344   46.6005 H   0  0  0  0  0  0  0  0  0  0  0  0
   55.7678   34.9606   45.6883 H   0  0  0  0  0  0  0  0  0  0  0  0
   57.0719   35.3786   44.5259 H   0  0  0  0  0  0  0  0  0  0  0  0
   56.3639   33.7277   44.5259 H   0  0  0  0  0  0  0  0  0  0  0  0
   58.2346   34.1413   43.6970 H   0  0  0  0  0  0  0  0  0  0  0  0
   59.6608   33.0080   43.6762 H   0  0  0  0  0  0  0  0  0  0  0  0
   55.6282   30.6301   41.9035 H   0  0  0  0  0  0  0  0  0  0  0  0
   57.1222   29.7849   41.5279 H   0  0  0  0  0  0  0  0  0  0  0  0
   57.5702   28.2907   44.8311 H   0  0  0  0  0  0  0  0  0  0  0  0
   56.8185   27.7937   43.2772 H   0  0  0  0  0  0  0  0  0  0  0  0
   58.3921   28.6600   43.2772 H   0  0  0  0  0  0  0  0  0  0  0  0
   55.2859   29.7805   45.3654 H   0  0  0  0  0  0  0  0  0  0  0  0
   54.6357   30.6199   43.9165 H   0  0  0  0  0  0  0  0  0  0  0  0
   54.8087   28.8320   43.9165 H   0  0  0  0  0  0  0  0  0  0  0  0
  1  2  1  0
  2  3  1  0
  3  4  1  0
  4  5  1  0
  3  6  1  0
  6  7  1  0
  7  8  1  0
  8  9  2  0
  8 10  1  0
 10 11  1  0
 11 12  1  0
 11 13  1  0
 11 14  1  0
 14 15  2  0
 14  7  1  0
  1 16  1  0
  1 17  1  0
  1 18  1  0
  2 19  1  0
  2 20  1  0
  3 21  1  0
  4 22  1  0
  4 23  1  0
  5 24  1  0
  5 25  1  0
  5 26  1  0
  6 27  1  0
  6 28  1  0
 10 29  1  0
 10 30  1  0
 12 31  1  0
 12 32  1  0
 12 33  1  0
 13 34  1  0
 13 35  1  0
 13 36  1  0
M  CHG  1   3   1
M  END
>  <UniqueID>  (37) 
35

>  <SMILES>  (37) 
CC[NH+](CC)CN1C(=O)CC(C)(C)C1=O

>  <Energy>  (37) 
44.28851746336769

>  <Genealogy>  (37) 
CC[NH+](CC)CN1C(=O)CC(C)(C)C1=O (protonated)
CC[NH+](CC)CN1C(=O)CC(C)(C)C1=O (3D coordinates assigned)
CC[NH+](CC)CN1C(=O)CC(C)(C)C1=O (nonaromatic ring conformer: 44.28851746336769 kcal/mol)

>  <smiles>  (37) 
CCN(CC)CN1C(=O)CC(C)(C)C1=O

>  <score_type>  (37) 
oracle

>  <origin>  (37) 
adg

>  <m_score__min__energy>  (37) 
-3.6400000000000001

>  <m_primary>  (37) 
energy

$$$$
38:0
     RDKit          3D

 49 51  0  0  0  0  0  0  0  0999 V2000
   60.0580   32.6630   51.9600 C   0  0  0  0  0  0  0  0  0  0  0  0
   59.3160   33.2790   50.7790 C   0  0  0  0  0  0  0  0  0  0  0  0
   59.5340   32.4890   49.5150 C   0  0  0  0  0  0  0  0  0  0  0  0
   59.7850   31.2570   49.6130 O   0  0  0  0  0  0  0  0  0  0  0  0
   59.4260   33.1040   48.1650 C   0  0  0  0  0  0  0  0  0  0  0  0
   58.4870   32.6030   47.2430 C   0  0  0  0  0  0  0  0  0  0  0  0
   58.4300   33.0980   45.9330 C   0  0  0  0  0  0  0  0  0  0  0  0
   57.3910   32.5730   44.9750 C   0  0  0  0  0  0  0  0  0  0  0  0
   57.9690   31.5370   44.0880 N   0  0  0  0  0  0  0  0  0  0  0  0
   57.0120   31.0900   43.0470 C   0  0  0  0  0  0  0  0  0  0  0  0
   56.2140   29.8400   43.4700 C   0  0  0  0  0  0  0  0  0  0  0  0
   56.1150   29.7620   44.8740 O   0  0  0  0  0  0  0  0  0  0  0  0
   57.3900   29.5000   45.4350 C   0  0  0  0  0  0  0  0  0  0  0  0
   58.5110   30.3820   44.8370 C   0  0  0  0  0  0  0  0  0  0  0  0
   59.3340   34.0880   45.5290 C   0  0  0  0  0  0  0  0  0  0  0  0
   60.2650   34.5980   46.4320 C   0  0  0  0  0  0  0  0  0  0  0  0
   60.2950   34.1480   47.7560 C   0  0  0  0  0  0  0  0  0  0  0  0
   61.1910   34.7700   48.6370 O   0  0  0  0  0  0  0  0  0  0  0  0
   62.3620   34.1840   49.1400 C   0  0  0  0  0  0  0  0  0  0  0  0
   62.5020   34.0980   50.4900 N   0  0  0  0  0  0  0  0  0  0  0  0
   63.6080   33.5720   51.0770 C   0  0  0  0  0  0  0  0  0  0  0  0
   64.6670   33.0960   50.2920 C   0  0  0  0  0  0  0  0  0  0  0  0
   65.8810   32.4700   50.9300 C   0  0  0  0  0  0  0  0  0  0  0  0
   66.0160   32.9510   52.2190 F   0  0  0  0  0  0  0  0  0  0  0  0
   65.7540   31.0920   50.9720 F   0  0  0  0  0  0  0  0  0  0  0  0
   67.0240   32.7780   50.2120 F   0  0  0  0  0  0  0  0  0  0  0  0
   64.5240   33.1180   48.8970 C   0  0  0  0  0  0  0  0  0  0  0  0
   63.3770   33.6610   48.3090 C   0  0  0  0  0  0  0  0  0  0  0  0
   63.2280   33.5710   46.5580 Cl  0  0  0  0  0  0  0  0  0  0  0  0
   59.6184   33.0280   52.9000 H   0  0  0  0  0  0  0  0  0  0  0  0
   59.9718   31.5673   51.9160 H   0  0  0  0  0  0  0  0  0  0  0  0
   61.1192   32.9493   51.9160 H   0  0  0  0  0  0  0  0  0  0  0  0
   58.2398   33.3007   51.0054 H   0  0  0  0  0  0  0  0  0  0  0  0
   59.7044   34.2959   50.6208 H   0  0  0  0  0  0  0  0  0  0  0  0
   57.7887   31.8124   47.5551 H   0  0  0  0  0  0  0  0  0  0  0  0
   56.5607   32.1347   45.5482 H   0  0  0  0  0  0  0  0  0  0  0  0
   57.0300   33.4067   44.3548 H   0  0  0  0  0  0  0  0  0  0  0  0
   56.3044   31.9076   42.8450 H   0  0  0  0  0  0  0  0  0  0  0  0
   57.5941   30.8256   42.1519 H   0  0  0  0  0  0  0  0  0  0  0  0
   55.2032   29.8944   43.0395 H   0  0  0  0  0  0  0  0  0  0  0  0
   56.7383   28.9454   43.1028 H   0  0  0  0  0  0  0  0  0  0  0  0
   57.3401   29.6846   46.5182 H   0  0  0  0  0  0  0  0  0  0  0  0
   57.6396   28.4535   45.2056 H   0  0  0  0  0  0  0  0  0  0  0  0
   59.1437   30.7553   45.6557 H   0  0  0  0  0  0  0  0  0  0  0  0
   59.0906   29.7644   44.1352 H   0  0  0  0  0  0  0  0  0  0  0  0
   59.3093   34.4644   44.4957 H   0  0  0  0  0  0  0  0  0  0  0  0
   60.9834   35.3621   46.1002 H   0  0  0  0  0  0  0  0  0  0  0  0
   63.6730   33.5193   52.1738 H   0  0  0  0  0  0  0  0  0  0  0  0
   65.3202   32.7049   48.2603 H   0  0  0  0  0  0  0  0  0  0  0  0
  1  2  1  0
  2  3  1  0
  3  4  2  0
  3  5  1  0
  5  6  2  0
  6  7  1  0
  7  8  1  0
  8  9  1  0
  9 10  1  0
 10 11  1  0
 11 12  1  0
 12 13  1  0
 13 14  1  0
  7 15  2  0
 15 16  1  0
 16 17  2  0
 17 18  1  0
 18 19  1  0
 19 20  2  0
 20 21  1  0
 21 22  2  0
 22 23  1  0
 23 24  1  0
 23 25  1  0
 23 26  1  0
 22 27  1  0
 27 28  2  0
 28 29  1  0
 17  5  1  0
 28 19  1  0
 14  9  1  0
  1 30  1  0
  1 31  1  0
  1 32  1  0
  2 33  1  0
  2 34  1  0
  6 35  1  0
  8 36  1  0
  8 37  1  0
 10 38  1  0
 10 39  1  0
 11 40  1  0
 11 41  1  0
 13 42  1  0
 13 43  1  0
 14 44  1  0
 14 45  1  0
 15 46  1  0
 16 47  1  0
 21 48  1  0
 27 49  1  0
M  END
>  <UniqueID>  (38) 
36

>  <SMILES>  (38) 
CCC(=O)c1cc(CN2CCOCC2)ccc1Oc1ncc(C(F)(F)F)cc1Cl

>  <Energy>  (38) 
73.97897225408092

>  <Genealogy>  (38) 
CCC(=O)c1cc(CN2CCOCC2)ccc1Oc1ncc(C(F)(F)F)cc1Cl (3D coordinates assigned)
CCC(=O)c1cc(CN2CCOCC2)ccc1Oc1ncc(C(F)(F)F)cc1Cl (nonaromatic ring conformer: 73.97897225408092 kcal/mol)

>  <smiles>  (38) 
CCC(=O)c1cc(CN2CCOCC2)ccc1Oc1ncc(C(F)(F)F)cc1Cl

>  <score_type>  (38) 
oracle

>  <origin>  (38) 
adg

>  <m_score__min__energy>  (38) 
-8.3200000000000003

>  <m_primary>  (38) 
energy

$$$$
39:0
     RDKit          3D

 59 61  0  0  0  0  0  0  0  0999 V2000
   62.5330   33.8180   46.3760 C   0  0  0  0  0  0  0  0  0  0  0  0
   63.6260   33.5690   47.4120 C   0  0  0  0  0  0  0  0  0  0  0  0
   63.0300   33.1210   48.6910 N   0  0  0  0  0  0  0  0  0  0  0  0
   63.7690   31.9650   49.2490 C   0  0  0  0  0  0  0  0  0  0  0  0
   65.1340   32.4100   49.7690 C   0  0  0  0  0  0  0  0  0  0  0  0
   62.9570   34.2320   49.6670 C   0  0  0  0  0  0  0  0  0  0  0  0
   62.1240   33.8120   50.8820 C   0  0  0  0  0  0  0  0  0  0  0  0
   60.7290   33.8810   50.5870 O   0  0  0  0  0  0  0  0  0  0  0  0
   60.0980   33.2940   49.4770 C   0  0  0  0  0  0  0  0  0  0  0  0
   59.7200   34.1260   48.4190 C   0  0  0  0  0  0  0  0  0  0  0  0
   59.0900   33.6000   47.2880 C   0  0  0  0  0  0  0  0  0  0  0  0
   58.8180   32.2230   47.1960 C   0  0  0  0  0  0  0  0  0  0  0  0
   58.1540   31.6820   45.9810 C   0  0  0  0  0  0  0  0  0  0  0  0
   57.5990   32.5170   44.9970 C   0  0  0  0  0  0  0  0  0  0  0  0
   57.0180   31.9650   43.9010 N   0  0  0  0  0  0  0  0  0  0  0  0
   56.9530   30.6190   43.7330 C   0  0  0  0  0  0  0  0  0  0  0  0
   57.5030   29.7710   44.7070 C   0  0  0  0  0  0  0  0  0  0  0  0
   57.4770   28.2910   44.5750 C   0  0  0  0  0  0  0  0  0  0  0  0
   57.0750   27.5000   45.6640 C   0  0  0  0  0  0  0  0  0  0  0  0
   57.0310   26.1080   45.5590 C   0  0  0  0  0  0  0  0  0  0  0  0
   57.3820   25.4640   44.3560 C   0  0  0  0  0  0  0  0  0  0  0  0
   57.3340   24.0170   44.2440 N   0  0  0  0  0  0  0  0  0  0  0  0
   58.2560   23.1770   45.0180 C   0  0  0  0  0  0  0  0  0  0  0  0
   56.3610   23.3700   43.3550 C   0  0  0  0  0  0  0  0  0  0  0  0
   57.7740   26.2610   43.2630 C   0  0  0  0  0  0  0  0  0  0  0  0
   57.8180   27.6540   43.3700 C   0  0  0  0  0  0  0  0  0  0  0  0
   58.0940   30.3350   45.7970 N   0  0  0  0  0  0  0  0  0  0  0  0
   59.2100   31.3840   48.2560 C   0  0  0  0  0  0  0  0  0  0  0  0
   59.8430   31.9130   49.3850 C   0  0  0  0  0  0  0  0  0  0  0  0
   61.5841   34.0342   46.8888 H   0  0  0  0  0  0  0  0  0  0  0  0
   62.8131   34.6753   45.7463 H   0  0  0  0  0  0  0  0  0  0  0  0
   62.4141   32.9239   45.7463 H   0  0  0  0  0  0  0  0  0  0  0  0
   64.3096   32.7923   47.0386 H   0  0  0  0  0  0  0  0  0  0  0  0
   64.1768   34.5057   47.5829 H   0  0  0  0  0  0  0  0  0  0  0  0
   63.1899   31.5292   50.0764 H   0  0  0  0  0  0  0  0  0  0  0  0
   63.9146   31.2167   48.4560 H   0  0  0  0  0  0  0  0  0  0  0  0
   65.1260   32.4074   50.8690 H   0  0  0  0  0  0  0  0  0  0  0  0
   65.9080   31.7177   49.4063 H   0  0  0  0  0  0  0  0  0  0  0  0
   65.3513   33.4255   49.4063 H   0  0  0  0  0  0  0  0  0  0  0  0
   63.9733   34.4946   49.9959 H   0  0  0  0  0  0  0  0  0  0  0  0
   62.4821   35.1010   49.1882 H   0  0  0  0  0  0  0  0  0  0  0  0
   62.3838   32.7794   51.1582 H   0  0  0  0  0  0  0  0  0  0  0  0
   62.3432   34.4970   51.7143 H   0  0  0  0  0  0  0  0  0  0  0  0
   59.9206   35.2060   48.4774 H   0  0  0  0  0  0  0  0  0  0  0  0
   58.8043   34.2686   46.4625 H   0  0  0  0  0  0  0  0  0  0  0  0
   57.6349   33.6102   45.1136 H   0  0  0  0  0  0  0  0  0  0  0  0
   56.4721   30.1957   42.8388 H   0  0  0  0  0  0  0  0  0  0  0  0
   56.7914   27.9827   46.6109 H   0  0  0  0  0  0  0  0  0  0  0  0
   56.7186   25.5073   46.4259 H   0  0  0  0  0  0  0  0  0  0  0  0
   58.0821   23.3355   46.0925 H   0  0  0  0  0  0  0  0  0  0  0  0
   58.0835   22.1191   44.7707 H   0  0  0  0  0  0  0  0  0  0  0  0
   59.2933   23.4470   44.7707 H   0  0  0  0  0  0  0  0  0  0  0  0
   55.5951   22.8607   43.9584 H   0  0  0  0  0  0  0  0  0  0  0  0
   55.8821   24.1302   42.7203 H   0  0  0  0  0  0  0  0  0  0  0  0
   56.8768   22.6344   42.7203 H   0  0  0  0  0  0  0  0  0  0  0  0
   58.0492   25.7808   42.3124 H   0  0  0  0  0  0  0  0  0  0  0  0
   58.1226   28.2575   42.5022 H   0  0  0  0  0  0  0  0  0  0  0  0
   59.0167   30.3028   48.1957 H   0  0  0  0  0  0  0  0  0  0  0  0
   60.1435   31.2457   50.2062 H   0  0  0  0  0  0  0  0  0  0  0  0
  1  2  1  0
  2  3  1  0
  3  4  1  0
  4  5  1  0
  3  6  1  0
  6  7  1  0
  7  8  1  0
  8  9  1  0
  9 10  2  0
 10 11  1  0
 11 12  2  0
 12 13  1  0
 13 14  2  0
 14 15  1  0
 15 16  2  0
 16 17  1  0
 17 18  1  0
 18 19  2  0
 19 20  1  0
 20 21  2  0
 21 22  1  0
 22 23  1  0
 22 24  1  0
 21 25  1  0
 25 26  2  0
 17 27  2  0
 12 28  1  0
 28 29  2  0
 29  9  1  0
 27 13  1  0
 26 18  1  0
  1 30  1  0
  1 31  1  0
  1 32  1  0
  2 33  1  0
  2 34  1  0
  4 35  1  0
  4 36  1  0
  5 37  1  0
  5 38  1  0
  5 39  1  0
  6 40  1  0
  6 41  1  0
  7 42  1  0
  7 43  1  0
 10 44  1  0
 11 45  1  0
 14 46  1  0
 16 47  1  0
 19 48  1  0
 20 49  1  0
 23 50  1  0
 23 51  1  0
 23 52  1  0
 24 53  1  0
 24 54  1  0
 24 55  1  0
 25 56  1  0
 26 57  1  0
 28 58  1  0
 29 59  1  0
M  END
>  <UniqueID>  (39) 
37

>  <SMILES>  (39) 
CCN(CC)CCOc1ccc(-c2cncc(-c3ccc(N(C)C)cc3)n2)cc1

>  <Energy>  (39) 
69.1249398597786

>  <Genealogy>  (39) 
CCN(CC)CCOc1ccc(-c2cncc(-c3ccc(N(C)C)cc3)n2)cc1 (3D coordinates assigned)
CCN(CC)CCOc1ccc(-c2cncc(-c3ccc(N(C)C)cc3)n2)cc1 (optimized conformer: 69.1249398597786 kcal/mol)

>  <smiles>  (39) 
CCN(CC)CCOc1ccc(-c2cncc(-c3ccc(N(C)C)cc3)n2)cc1

>  <score_type>  (39) 
oracle

>  <origin>  (39) 
adg

>  <m_score__min__energy>  (39) 
-7.3300000000000001

>  <m_primary>  (39) 
energy

$$$$
40:0
     RDKit          3D

 11 10  0  0  0  0  0  0  0  0999 V2000
   57.4020   31.9820   41.6080 C   0  0  0  0  0  0  0  0  0  0  0  0
   57.7980   31.6920   42.8460 C   0  0  0  0  0  0  0  0  0  0  0  0
   56.9660   30.9640   43.8280 C   0  0  0  0  0  0  0  0  0  0  0  0
   56.6500   31.5560   44.8950 O   0  0  0  0  0  0  0  0  0  0  0  0
   56.4850   29.5550   43.6070 C   0  0  0  0  0  0  0  0  0  0  0  0
   56.2440   29.3480   42.2610 F   0  0  0  0  0  0  0  0  0  0  0  0
   57.4430   28.6480   44.0280 F   0  0  0  0  0  0  0  0  0  0  0  0
   55.3240   29.3360   44.3240 F   0  0  0  0  0  0  0  0  0  0  0  0
   58.0741   32.5274   40.9291 H   0  0  0  0  0  0  0  0  0  0  0  0
   56.4028   31.6762   41.2643 H   0  0  0  0  0  0  0  0  0  0  0  0
   58.8033   32.0130   43.1564 H   0  0  0  0  0  0  0  0  0  0  0  0
  1  2  2  0
  2  3  1  0
  3  4  2  0
  3  5  1  0
  5  6  1  0
  5  7  1  0
  5  8  1  0
  1  9  1  0
  1 10  1  0
  2 11  1  0
M  END
>  <UniqueID>  (40) 
38

>  <SMILES>  (40) 
C=CC(=O)C(F)(F)F

>  <Energy>  (40) 
5.539630359080757

>  <Genealogy>  (40) 
C=CC(=O)C(F)(F)F (3D coordinates assigned)
C=CC(=O)C(F)(F)F (optimized conformer: 5.539630359080757 kcal/mol)

>  <smiles>  (40) 
C=CC(=O)C(F)(F)F

>  <score_type>  (40) 
oracle

>  <origin>  (40) 
adg

>  <m_score__min__energy>  (40) 
-3.0600000000000001

>  <m_primary>  (40) 
energy

$$$$
41:0
     RDKit          3D

 50 52  0  0  0  0  0  0  0  0999 V2000
   60.6620   33.1600   49.9690 C   0  0  0  0  0  0  0  0  0  0  0  0
   61.5120   33.8160   48.9630 N   0  0  0  0  0  0  0  0  0  0  0  0
   62.5530   32.8810   48.5000 C   0  0  0  0  0  0  0  0  0  0  0  0
   60.7890   34.4490   47.8200 C   0  0  0  0  0  0  0  0  0  0  0  0
   61.0930   33.8460   46.4160 C   0  0  0  0  0  0  0  0  0  0  0  0
   60.1490   32.7100   46.0000 C   0  0  0  0  0  0  0  0  0  0  0  0
   58.7610   33.1040   46.2490 N   0  0  0  0  0  0  0  0  0  0  0  0
   57.8540   33.3960   45.1670 C   0  0  0  0  0  0  0  0  0  0  0  0
   57.0670   34.3780   45.2610 O   0  0  0  0  0  0  0  0  0  0  0  0
   57.8570   32.5710   43.9090 C   0  0  0  0  0  0  0  0  0  0  0  0
   57.7390   31.1020   44.2200 C   0  0  0  0  0  0  0  0  0  0  0  0
   58.8910   30.3320   44.4360 C   0  0  0  0  0  0  0  0  0  0  0  0
   58.7850   28.9750   44.7570 C   0  0  0  0  0  0  0  0  0  0  0  0
   57.5230   28.3660   44.8740 C   0  0  0  0  0  0  0  0  0  0  0  0
   57.4080   26.9250   45.2170 C   0  0  0  0  0  0  0  0  0  0  0  0
   57.8620   25.9380   44.3230 C   0  0  0  0  0  0  0  0  0  0  0  0
   57.7530   24.5820   44.6480 C   0  0  0  0  0  0  0  0  0  0  0  0
   57.1920   24.1980   45.8680 C   0  0  0  0  0  0  0  0  0  0  0  0
   56.7380   25.1670   46.7650 C   0  0  0  0  0  0  0  0  0  0  0  0
   56.8450   26.5240   46.4440 C   0  0  0  0  0  0  0  0  0  0  0  0
   56.3700   29.1460   44.6680 C   0  0  0  0  0  0  0  0  0  0  0  0
   56.4780   30.5020   44.3470 C   0  0  0  0  0  0  0  0  0  0  0  0
   58.4080   33.4460   47.6270 C   0  0  0  0  0  0  0  0  0  0  0  0
   59.2750   34.6090   48.1170 C   0  0  0  0  0  0  0  0  0  0  0  0
   61.0115   33.4298   50.9765 H   0  0  0  0  0  0  0  0  0  0  0  0
   59.6208   33.4909   49.8413 H   0  0  0  0  0  0  0  0  0  0  0  0
   60.7182   32.0689   49.8413 H   0  0  0  0  0  0  0  0  0  0  0  0
   63.0544   32.4307   49.3694 H   0  0  0  0  0  0  0  0  0  0  0  0
   62.0906   32.0890   47.8925 H   0  0  0  0  0  0  0  0  0  0  0  0
   63.2909   33.4254   47.8925 H   0  0  0  0  0  0  0  0  0  0  0  0
   61.2132   35.4608   47.7403 H   0  0  0  0  0  0  0  0  0  0  0  0
   61.0132   34.6509   45.6705 H   0  0  0  0  0  0  0  0  0  0  0  0
   62.1028   33.4131   46.4705 H   0  0  0  0  0  0  0  0  0  0  0  0
   60.2821   32.4980   44.9289 H   0  0  0  0  0  0  0  0  0  0  0  0
   60.3825   31.8096   46.5872 H   0  0  0  0  0  0  0  0  0  0  0  0
   57.0073   32.8738   43.2795 H   0  0  0  0  0  0  0  0  0  0  0  0
   58.8087   32.7403   43.3840 H   0  0  0  0  0  0  0  0  0  0  0  0
   59.8838   30.7982   44.3524 H   0  0  0  0  0  0  0  0  0  0  0  0
   59.6956   28.3796   44.9192 H   0  0  0  0  0  0  0  0  0  0  0  0
   58.3059   26.2350   43.3614 H   0  0  0  0  0  0  0  0  0  0  0  0
   58.1094   23.8173   43.9421 H   0  0  0  0  0  0  0  0  0  0  0  0
   57.1077   23.1312   46.1225 H   0  0  0  0  0  0  0  0  0  0  0  0
   56.2957   24.8627   47.7251 H   0  0  0  0  0  0  0  0  0  0  0  0
   56.4870   27.2833   47.1548 H   0  0  0  0  0  0  0  0  0  0  0  0
   55.3757   28.6848   44.7604 H   0  0  0  0  0  0  0  0  0  0  0  0
   55.5688   31.1018   44.1932 H   0  0  0  0  0  0  0  0  0  0  0  0
   57.3485   33.7385   47.6696 H   0  0  0  0  0  0  0  0  0  0  0  0
   58.5800   32.5712   48.2713 H   0  0  0  0  0  0  0  0  0  0  0  0
   58.9239   35.5297   47.6281 H   0  0  0  0  0  0  0  0  0  0  0  0
   59.1712   34.6385   49.2117 H   0  0  0  0  0  0  0  0  0  0  0  0
  1  2  1  0
  2  3  1  0
  2  4  1  0
  4  5  1  0
  5  6  1  0
  6  7  1  0
  7  8  1  0
  8  9  2  0
  8 10  1  0
 10 11  1  0
 11 12  2  0
 12 13  1  0
 13 14  2  0
 14 15  1  0
 15 16  2  0
 16 17  1  0
 17 18  2  0
 18 19  1  0
 19 20  2  0
 14 21  1  0
 21 22  2  0
  7 23  1  0
 23 24  1  0
 24  4  1  0
 22 11  1  0
 20 15  1  0
  1 25  1  0
  1 26  1  0
  1 27  1  0
  3 28  1  0
  3 29  1  0
  3 30  1  0
  4 31  1  0
  5 32  1  0
  5 33  1  0
  6 34  1  0
  6 35  1  0
 10 36  1  0
 10 37  1  0
 12 38  1  0
 13 39  1  0
 16 40  1  0
 17 41  1  0
 18 42  1  0
 19 43  1  0
 20 44  1  0
 21 45  1  0
 22 46  1  0
 23 47  1  0
 23 48  1  0
 24 49  1  0
 24 50  1  0
M  END
>  <UniqueID>  (41) 
39

>  <SMILES>  (41) 
CN(C)C1CCN(C(=O)Cc2ccc(-c3ccccc3)cc2)CC1

>  <Energy>  (41) 
66.62291580237006

>  <Genealogy>  (41) 
CN(C)C1CCN(C(=O)Cc2ccc(-c3ccccc3)cc2)CC1 (3D coordinates assigned)
CN(C)C1CCN(C(=O)Cc2ccc(-c3ccccc3)cc2)CC1 (nonaromatic ring conformer: 66.62291580237006 kcal/mol)

>  <smiles>  (41) 
CN(C)C1CCN(C(=O)Cc2ccc(-c3ccccc3)cc2)CC1

>  <score_type>  (41) 
oracle

>  <origin>  (41) 
adg

>  <m_score__min__energy>  (41) 
-7.96

>  <m_primary>  (41) 
energy

$$$$
42:0
     RDKit          3D

 46 48  0  0  0  0  0  0  0  0999 V2000
   55.1440   27.5880   45.5470 H   0  0  0  0  0  0  0  0  0  0  0  0
   55.1350   26.7090   46.0430 O   0  0  0  0  0  0  0  0  0  0  0  0
   55.7630   25.5520   45.5750 C   0  0  0  0  0  0  0  0  0  0  0  0
   54.9770   24.4040   45.4180 C   0  0  0  0  0  0  0  0  0  0  0  0
   53.9205   24.4214   45.7238 H   0  0  0  0  0  0  0  0  0  0  0  0
   55.5210   23.2370   44.8770 C   0  0  0  0  0  0  0  0  0  0  0  0
   54.8941   22.3408   44.7599 H   0  0  0  0  0  0  0  0  0  0  0  0
   56.8600   23.2080   44.4850 C   0  0  0  0  0  0  0  0  0  0  0  0
   57.6000   21.6160   43.7320 Br  0  0  0  0  0  0  0  0  0  0  0  0
   57.6630   24.3390   44.6560 C   0  0  0  0  0  0  0  0  0  0  0  0
   58.7172   24.3106   44.3431 H   0  0  0  0  0  0  0  0  0  0  0  0
   57.1370   25.5130   45.2240 C   0  0  0  0  0  0  0  0  0  0  0  0
   58.0660   26.6390   45.4480 C   0  0  0  0  0  0  0  0  0  0  0  0
   59.0777   26.5982   45.0182 H   0  0  0  0  0  0  0  0  0  0  0  0
   57.7100   27.6760   46.1430 N   0  0  0  0  0  0  0  0  0  0  0  0
   57.3230   28.9230   45.5530 C   0  0  0  0  0  0  0  0  0  0  0  0
   56.3970   28.9030   44.5580 N   0  0  0  0  0  0  0  0  0  0  0  0
   55.9990   30.0390   43.9330 C   0  0  0  0  0  0  0  0  0  0  0  0
   55.2514   29.9888   43.1277 H   0  0  0  0  0  0  0  0  0  0  0  0
   56.5200   31.2360   44.2980 N   0  0  0  0  0  0  0  0  0  0  0  0
   57.4330   31.3280   45.3000 C   0  0  0  0  0  0  0  0  0  0  0  0
   57.9350   32.5810   45.6680 C   0  0  0  0  0  0  0  0  0  0  0  0
   57.6087   33.4811   45.1264 H   0  0  0  0  0  0  0  0  0  0  0  0
   58.8550   32.6970   46.7270 C   0  0  0  0  0  0  0  0  0  0  0  0
   59.3930   33.9710   47.1310 N   0  0  0  0  0  0  0  0  0  0  0  0
   58.8860   34.8380   46.8420 H   0  0  0  0  0  0  0  0  0  0  0  0
   60.5720   34.1460   47.9810 C   0  0  0  0  0  0  0  0  0  0  0  0
   60.4718   33.5053   48.8695 H   0  0  0  0  0  0  0  0  0  0  0  0
   60.6374   35.2050   48.2711 H   0  0  0  0  0  0  0  0  0  0  0  0
   61.8590   33.7670   47.2330 C   0  0  0  0  0  0  0  0  0  0  0  0
   62.4433   34.6788   47.0402 H   0  0  0  0  0  0  0  0  0  0  0  0
   61.5806   33.2768   46.2885 H   0  0  0  0  0  0  0  0  0  0  0  0
   62.6820   32.8250   48.0240 N   0  0  0  0  0  0  0  0  0  0  0  0
   63.3180   31.8390   47.1380 C   0  0  0  0  0  0  0  0  0  0  0  0
   63.8154   31.0679   47.7447 H   0  0  0  0  0  0  0  0  0  0  0  0
   62.5525   31.3689   46.5032 H   0  0  0  0  0  0  0  0  0  0  0  0
   64.0620   32.3425   46.5032 H   0  0  0  0  0  0  0  0  0  0  0  0
   63.7180   33.5400   48.7900 C   0  0  0  0  0  0  0  0  0  0  0  0
   63.5321   33.4117   49.8666 H   0  0  0  0  0  0  0  0  0  0  0  0
   64.7078   33.1318   48.5376 H   0  0  0  0  0  0  0  0  0  0  0  0
   63.6875   34.6102   48.5376 H   0  0  0  0  0  0  0  0  0  0  0  0
   59.2350   31.5430   47.4260 C   0  0  0  0  0  0  0  0  0  0  0  0
   59.9328   31.6265   48.2722 H   0  0  0  0  0  0  0  0  0  0  0  0
   58.7400   30.2890   47.0630 C   0  0  0  0  0  0  0  0  0  0  0  0
   59.0448   29.3956   47.6277 H   0  0  0  0  0  0  0  0  0  0  0  0
   57.8530   30.1630   45.9780 C   0  0  0  0  0  0  0  0  0  0  0  0
  1  2  1  0
  2  3  1  0
  3  4  2  0
  4  5  1  0
  4  6  1  0
  6  7  1  0
  6  8  2  0
  8  9  1  0
  8 10  1  0
 10 11  1  0
 10 12  2  0
 12 13  1  0
 13 14  1  0
 13 15  2  0
 15 16  1  0
 16 17  2  0
 17 18  1  0
 18 19  1  0
 18 20  2  0
 20 21  1  0
 21 22  2  0
 22 23  1  0
 22 24  1  0
 24 25  1  0
 25 26  1  0
 25 27  1  0
 27 28  1  0
 27 29  1  0
 27 30  1  0
 30 31  1  0
 30 32  1  0
 30 33  1  0
 33 34  1  0
 34 35  1  0
 34 36  1  0
 34 37  1  0
 33 38  1  0
 38 39  1  0
 38 40  1  0
 38 41  1  0
 24 42  2  0
 42 43  1  0
 42 44  1  0
 44 45  1  0
 44 46  2  0
 12  3  1  0
 46 16  1  0
 46 21  1  0
M  END
>  <UniqueID>  (42) 
40

>  <SMILES>  (42) 
CN(C)CCNc1ccc2c(/N=C/c3cc(Br)ccc3O)ncnc2c1

>  <Energy>  (42) 
63.09911476824936

>  <Genealogy>  (42) 
CN(C)CCNc1ccc2c(/N=C/c3cc(Br)ccc3O)ncnc2c1 (cis-trans isomerization)
CN(C)CCNc1ccc2c(/N=C/c3cc(Br)ccc3O)ncnc2c1 (3D coordinates assigned)
CN(C)CCNc1ccc2c(/N=C/c3cc(Br)ccc3O)ncnc2c1 (optimized conformer: 63.09911476824936 kcal/mol)

>  <smiles>  (42) 
CN(C)CCNc1ccc2c(N=Cc3cc(Br)ccc3O)ncnc2c1

>  <score_type>  (42) 
oracle

>  <origin>  (42) 
adg

>  <m_score__min__energy>  (42) 
-8.9199999999999999

>  <m_primary>  (42) 
energy

$$$$
43:0
     RDKit          3D

 33 34  0  0  0  0  0  0  0  0999 V2000
   55.1430   25.0990   45.6300 C   0  0  0  0  0  0  0  0  0  0  0  0
   55.3890   26.4510   46.0030 O   0  0  0  0  0  0  0  0  0  0  0  0
   56.6500   27.0680   45.9980 C   0  0  0  0  0  0  0  0  0  0  0  0
   57.7760   26.4280   46.5500 C   0  0  0  0  0  0  0  0  0  0  0  0
   59.0330   27.0280   46.5050 C   0  0  0  0  0  0  0  0  0  0  0  0
   59.2060   28.2860   45.9060 C   0  0  0  0  0  0  0  0  0  0  0  0
   60.5570   28.9080   45.8600 C   0  0  0  0  0  0  0  0  0  0  0  0
   60.9760   29.9710   46.8320 C   0  0  0  0  0  0  0  0  0  0  0  0
   61.3860   28.5400   44.9820 O   0  0  0  0  0  0  0  0  0  0  0  0
   58.0820   28.9310   45.3610 C   0  0  0  0  0  0  0  0  0  0  0  0
   56.8050   28.3480   45.4120 C   0  0  0  0  0  0  0  0  0  0  0  0
   55.7000   29.0770   44.8390 N   0  0  0  0  0  0  0  0  0  0  0  0
   55.7700   29.8140   43.5750 C   0  0  0  0  0  0  0  0  0  0  0  0
   56.6580   31.0100   43.7130 C   0  0  0  0  0  0  0  0  0  0  0  0
   57.4220   31.5690   42.7080 C   0  0  0  0  0  0  0  0  0  0  0  0
   58.0940   32.6190   43.2950 C   0  0  0  0  0  0  0  0  0  0  0  0
   57.7030   32.6320   44.6200 C   0  0  0  0  0  0  0  0  0  0  0  0
   56.8490   31.6580   44.8380 O   0  0  0  0  0  0  0  0  0  0  0  0
   55.0310   24.4836   46.5348 H   0  0  0  0  0  0  0  0  0  0  0  0
   54.2203   25.0453   45.0335 H   0  0  0  0  0  0  0  0  0  0  0  0
   55.9876   24.7237   45.0335 H   0  0  0  0  0  0  0  0  0  0  0  0
   57.6621   25.4414   47.0230 H   0  0  0  0  0  0  0  0  0  0  0  0
   59.8990   26.5104   46.9435 H   0  0  0  0  0  0  0  0  0  0  0  0
   60.8320   29.6056   47.8595 H   0  0  0  0  0  0  0  0  0  0  0  0
   62.0372   30.2141   46.6746 H   0  0  0  0  0  0  0  0  0  0  0  0
   60.3661   30.8728   46.6746 H   0  0  0  0  0  0  0  0  0  0  0  0
   58.2053   29.9144   44.8839 H   0  0  0  0  0  0  0  0  0  0  0  0
   54.7610   28.9630   45.2890 H   0  0  0  0  0  0  0  0  0  0  0  0
   56.1720   29.1533   42.7928 H   0  0  0  0  0  0  0  0  0  0  0  0
   54.7588   30.1517   43.3042 H   0  0  0  0  0  0  0  0  0  0  0  0
   57.4817   31.2442   41.6587 H   0  0  0  0  0  0  0  0  0  0  0  0
   58.7994   33.3078   42.8071 H   0  0  0  0  0  0  0  0  0  0  0  0
   58.0535   33.3489   45.3772 H   0  0  0  0  0  0  0  0  0  0  0  0
  1  2  1  0
  2  3  1  0
  3  4  2  0
  4  5  1  0
  5  6  2  0
  6  7  1  0
  7  8  1  0
  7  9  2  0
  6 10  1  0
 10 11  2  0
 11 12  1  0
 12 13  1  0
 13 14  1  0
 14 15  2  0
 15 16  1  0
 16 17  2  0
 17 18  1  0
 11  3  1  0
 18 14  1  0
  1 19  1  0
  1 20  1  0
  1 21  1  0
  4 22  1  0
  5 23  1  0
  8 24  1  0
  8 25  1  0
  8 26  1  0
 10 27  1  0
 12 28  1  0
 13 29  1  0
 13 30  1  0
 15 31  1  0
 16 32  1  0
 17 33  1  0
M  END
>  <UniqueID>  (43) 
41

>  <SMILES>  (43) 
COc1ccc(C(C)=O)cc1NCc1ccco1

>  <Energy>  (43) 
60.83529584410868

>  <Genealogy>  (43) 
COc1ccc(C(C)=O)cc1NCc1ccco1 (3D coordinates assigned)
COc1ccc(C(C)=O)cc1NCc1ccco1 (optimized conformer: 60.83529584410868 kcal/mol)

>  <smiles>  (43) 
COc1ccc(C(C)=O)cc1NCc1ccco1

>  <score_type>  (43) 
oracle

>  <origin>  (43) 
adg

>  <m_score__min__energy>  (43) 
-7.4000000000000004

>  <m_primary>  (43) 
energy

$$$$
44:0
     RDKit          3D

 44 46  0  0  0  0  0  0  0  0999 V2000
   56.2150   30.3740   44.5330 O   0  0  0  0  0  0  0  0  0  0  0  0
   57.3790   30.5400   44.9890 C   0  0  0  0  0  0  0  0  0  0  0  0
   58.2270   29.4380   45.1220 C   0  0  0  0  0  0  0  0  0  0  0  0
   59.5250   29.6120   45.6310 C   0  0  0  0  0  0  0  0  0  0  0  0
   60.4080   28.4850   45.8000 N   0  0  0  0  0  0  0  0  0  0  0  0
   59.7890   27.4400   46.6310 C   0  0  0  0  0  0  0  0  0  0  0  0
   59.1620   28.0150   47.9130 C   0  0  0  0  0  0  0  0  0  0  0  0
   60.2400   28.4660   48.9020 C   0  0  0  0  0  0  0  0  0  0  0  0
   61.0400   29.5460   48.3090 N   0  0  0  0  0  0  0  0  0  0  0  0
   61.3180   30.5840   49.3080 C   0  0  0  0  0  0  0  0  0  0  0  0
   61.9620   31.7720   48.6400 C   0  0  0  0  0  0  0  0  0  0  0  0
   63.0130   31.5680   47.7280 C   0  0  0  0  0  0  0  0  0  0  0  0
   63.6400   32.6570   47.1160 C   0  0  0  0  0  0  0  0  0  0  0  0
   63.2310   33.9580   47.4130 C   0  0  0  0  0  0  0  0  0  0  0  0
   62.1970   34.1750   48.3270 C   0  0  0  0  0  0  0  0  0  0  0  0
   61.5630   33.0910   48.9470 C   0  0  0  0  0  0  0  0  0  0  0  0
   60.2810   33.4230   50.1080 Cl  0  0  0  0  0  0  0  0  0  0  0  0
   59.9420   30.8560   45.9940 N   0  0  0  0  0  0  0  0  0  0  0  0
   59.1450   31.9500   45.8760 C   0  0  0  0  0  0  0  0  0  0  0  0
   59.6240   33.2070   46.2620 C   0  0  0  0  0  0  0  0  0  0  0  0
   58.8080   34.3350   46.1450 C   0  0  0  0  0  0  0  0  0  0  0  0
   57.5090   34.2130   45.6420 C   0  0  0  0  0  0  0  0  0  0  0  0
   57.0200   32.9620   45.2530 C   0  0  0  0  0  0  0  0  0  0  0  0
   57.8320   31.8180   45.3660 C   0  0  0  0  0  0  0  0  0  0  0  0
   57.8794   28.4363   44.8289 H   0  0  0  0  0  0  0  0  0  0  0  0
   61.2760   28.8200   46.2770 H   0  0  0  0  0  0  0  0  0  0  0  0
   60.6920   28.0890   44.8730 H   0  0  0  0  0  0  0  0  0  0  0  0
   59.0033   26.9403   46.0453 H   0  0  0  0  0  0  0  0  0  0  0  0
   60.5772   26.7323   46.9276 H   0  0  0  0  0  0  0  0  0  0  0  0
   58.5334   28.8782   47.6491 H   0  0  0  0  0  0  0  0  0  0  0  0
   58.5593   27.2278   48.3895 H   0  0  0  0  0  0  0  0  0  0  0  0
   59.7612   28.8299   49.8230 H   0  0  0  0  0  0  0  0  0  0  0  0
   60.8963   27.6149   49.1363 H   0  0  0  0  0  0  0  0  0  0  0  0
   60.4730   29.9830   47.5440 H   0  0  0  0  0  0  0  0  0  0  0  0
   60.3760   30.8971   49.7820 H   0  0  0  0  0  0  0  0  0  0  0  0
   61.9996   30.1815   50.0718 H   0  0  0  0  0  0  0  0  0  0  0  0
   63.3436   30.5451   47.4949 H   0  0  0  0  0  0  0  0  0  0  0  0
   64.4571   32.4884   46.3991 H   0  0  0  0  0  0  0  0  0  0  0  0
   63.7233   34.8132   46.9270 H   0  0  0  0  0  0  0  0  0  0  0  0
   61.8794   35.2019   48.5608 H   0  0  0  0  0  0  0  0  0  0  0  0
   60.6452   33.3071   46.6584 H   0  0  0  0  0  0  0  0  0  0  0  0
   59.1883   35.3213   46.4493 H   0  0  0  0  0  0  0  0  0  0  0  0
   56.8699   35.1038   45.5520 H   0  0  0  0  0  0  0  0  0  0  0  0
   55.9975   32.8718   44.8575 H   0  0  0  0  0  0  0  0  0  0  0  0
  1  2  2  0
  2  3  1  0
  3  4  2  0
  4  5  1  0
  5  6  1  0
  6  7  1  0
  7  8  1  0
  8  9  1  0
  9 10  1  0
 10 11  1  0
 11 12  2  0
 12 13  1  0
 13 14  2  0
 14 15  1  0
 15 16  2  0
 16 17  1  0
  4 18  1  0
 18 19  1  0
 19 20  2  0
 20 21  1  0
 21 22  2  0
 22 23  1  0
 23 24  2  0
 24  2  1  0
 16 11  1  0
 24 19  1  0
  3 25  1  0
  5 26  1  0
  5 27  1  0
  6 28  1  0
  6 29  1  0
  7 30  1  0
  7 31  1  0
  8 32  1  0
  8 33  1  0
  9 34  1  0
 10 35  1  0
 10 36  1  0
 12 37  1  0
 13 38  1  0
 14 39  1  0
 15 40  1  0
 20 41  1  0
 21 42  1  0
 22 43  1  0
 23 44  1  0
M  CHG  2   5   1  18  -1
M  END
>  <UniqueID>  (44) 
42

>  <SMILES>  (44) 
O=c1cc([NH2+]CCCNCc2ccccc2Cl)[n-]c2ccccc12

>  <Energy>  (44) 
46.776016874300744

>  <Genealogy>  (44) 
O=c1cc([NH2+]CCCNCc2ccccc2Cl)[n-]c2ccccc12 (protonated)
O=c1cc([NH2+]CCCNCc2ccccc2Cl)[n-]c2ccccc12 (3D coordinates assigned)
O=c1cc([NH2+]CCCNCc2ccccc2Cl)[n-]c2ccccc12 (optimized conformer: 46.776016874300744 kcal/mol)

>  <smiles>  (44) 
O=c1cc(NCCCNCc2ccccc2Cl)[nH]c2ccccc12

>  <score_type>  (44) 
oracle

>  <origin>  (44) 
adg

>  <m_score__min__energy>  (44) 
-7.1799999999999997

>  <m_primary>  (44) 
energy

$$$$
45:0
     RDKit          3D

 50 53  0  0  0  0  0  0  0  0999 V2000
   59.3350   34.7440   45.7050 C   0  0  0  0  0  0  0  0  0  0  0  0
   58.3380   33.7410   45.8640 O   0  0  0  0  0  0  0  0  0  0  0  0
   57.9820   32.8150   44.8730 C   0  0  0  0  0  0  0  0  0  0  0  0
   58.1950   33.0560   43.5030 C   0  0  0  0  0  0  0  0  0  0  0  0
   57.8330   32.0950   42.5550 C   0  0  0  0  0  0  0  0  0  0  0  0
   57.2490   30.8940   42.9610 C   0  0  0  0  0  0  0  0  0  0  0  0
   57.0080   30.6490   44.3210 C   0  0  0  0  0  0  0  0  0  0  0  0
   56.4000   29.3730   44.7410 C   0  0  0  0  0  0  0  0  0  0  0  0
   55.1610   29.3290   44.9600 O   0  0  0  0  0  0  0  0  0  0  0  0
   57.1760   28.1820   44.9320 N   0  0  0  0  0  0  0  0  0  0  0  0
   58.3050   28.0300   45.8510 C   0  0  0  0  0  0  0  0  0  0  0  0
   59.6470   28.2510   45.1130 C   0  0  0  0  0  0  0  0  0  0  0  0
   60.1280   29.6980   45.2530 C   0  0  0  0  0  0  0  0  0  0  0  0
   60.3820   30.0670   46.6710 N   0  0  0  0  0  0  0  0  0  0  0  0
   60.3620   31.5340   46.8560 C   0  0  0  0  0  0  0  0  0  0  0  0
   61.6540   32.0200   47.4630 C   0  0  0  0  0  0  0  0  0  0  0  0
   62.3530   33.1110   46.8860 C   0  0  0  0  0  0  0  0  0  0  0  0
   63.5720   33.5490   47.4360 C   0  0  0  0  0  0  0  0  0  0  0  0
   64.0600   32.8750   48.5520 C   0  0  0  0  0  0  0  0  0  0  0  0
   63.3990   31.8270   49.1040 C   0  0  0  0  0  0  0  0  0  0  0  0
   62.1910   31.3630   48.5920 C   0  0  0  0  0  0  0  0  0  0  0  0
   64.1120   31.3530   50.1890 O   0  0  0  0  0  0  0  0  0  0  0  0
   65.2940   32.1540   50.3260 C   0  0  0  0  0  0  0  0  0  0  0  0
   65.2210   33.1130   49.2610 O   0  0  0  0  0  0  0  0  0  0  0  0
   59.4840   29.3860   47.6420 C   0  0  0  0  0  0  0  0  0  0  0  0
   58.1280   29.0120   47.0270 C   0  0  0  0  0  0  0  0  0  0  0  0
   57.3950   31.6070   45.2720 C   0  0  0  0  0  0  0  0  0  0  0  0
   59.6736   35.0846   46.6946 H   0  0  0  0  0  0  0  0  0  0  0  0
   60.1880   34.3282   45.1487 H   0  0  0  0  0  0  0  0  0  0  0  0
   58.9140   35.5945   45.1487 H   0  0  0  0  0  0  0  0  0  0  0  0
   58.6480   34.0040   43.1771 H   0  0  0  0  0  0  0  0  0  0  0  0
   58.0088   32.2856   41.4860 H   0  0  0  0  0  0  0  0  0  0  0  0
   56.9766   30.1365   42.2113 H   0  0  0  0  0  0  0  0  0  0  0  0
   58.3269   27.0045   46.2484 H   0  0  0  0  0  0  0  0  0  0  0  0
   60.4056   27.5785   45.5400 H   0  0  0  0  0  0  0  0  0  0  0  0
   59.4946   28.0379   44.0447 H   0  0  0  0  0  0  0  0  0  0  0  0
   61.0606   29.8188   44.6823 H   0  0  0  0  0  0  0  0  0  0  0  0
   59.3366   30.3575   44.8673 H   0  0  0  0  0  0  0  0  0  0  0  0
   60.2194   32.0179   45.8785 H   0  0  0  0  0  0  0  0  0  0  0  0
   59.5369   31.7901   47.5369 H   0  0  0  0  0  0  0  0  0  0  0  0
   61.9392   33.6185   46.0021 H   0  0  0  0  0  0  0  0  0  0  0  0
   64.1210   34.3959   46.9986 H   0  0  0  0  0  0  0  0  0  0  0  0
   61.6703   30.5105   49.0526 H   0  0  0  0  0  0  0  0  0  0  0  0
   65.3060   32.6610   51.3021 H   0  0  0  0  0  0  0  0  0  0  0  0
   66.2108   31.5484   50.2733 H   0  0  0  0  0  0  0  0  0  0  0  0
   59.9768   28.4678   47.9941 H   0  0  0  0  0  0  0  0  0  0  0  0
   59.2940   30.0860   48.4690 H   0  0  0  0  0  0  0  0  0  0  0  0
   57.5014   28.5401   47.7982 H   0  0  0  0  0  0  0  0  0  0  0  0
   57.6506   29.9281   46.6491 H   0  0  0  0  0  0  0  0  0  0  0  0
   57.2356   31.4069   46.3418 H   0  0  0  0  0  0  0  0  0  0  0  0
  1  2  1  0
  2  3  1  0
  3  4  2  0
  4  5  1  0
  5  6  2  0
  6  7  1  0
  7  8  1  0
  8  9  2  0
  8 10  1  0
 10 11  1  0
 11 12  1  0
 12 13  1  0
 13 14  1  0
 14 15  1  0
 15 16  1  0
 16 17  2  0
 17 18  1  0
 18 19  2  0
 19 20  1  0
 20 21  2  0
 20 22  1  0
 22 23  1  0
 23 24  1  0
 14 25  1  0
 25 26  1  0
  7 27  2  0
 27  3  1  0
 26 11  1  0
 21 16  1  0
 24 19  1  0
  1 28  1  0
  1 29  1  0
  1 30  1  0
  4 31  1  0
  5 32  1  0
  6 33  1  0
 11 34  1  0
 12 35  1  0
 12 36  1  0
 13 37  1  0
 13 38  1  0
 15 39  1  0
 15 40  1  0
 17 41  1  0
 18 42  1  0
 21 43  1  0
 23 44  1  0
 23 45  1  0
 25 46  1  0
 25 47  1  0
 26 48  1  0
 26 49  1  0
 27 50  1  0
M  CHG  1  10  -1
M  END
>  <UniqueID>  (45) 
43

>  <SMILES>  (45) 
COc1cccc(C(=O)[N-]C2CCN(Cc3ccc4c(c3)OCO4)CC2)c1

>  <Energy>  (45) 
92.28967711883246

>  <Genealogy>  (45) 
COc1cccc(C(=O)[N-]C2CCN(Cc3ccc4c(c3)OCO4)CC2)c1 (protonated)
COc1cccc(C(=O)[N-]C2CCN(Cc3ccc4c(c3)OCO4)CC2)c1 (3D coordinates assigned)
COc1cccc(C(=O)[N-]C2CCN(Cc3ccc4c(c3)OCO4)CC2)c1 (nonaromatic ring conformer: 92.28967711883246 kcal/mol)

>  <smiles>  (45) 
COc1cccc(C(=O)NC2CCN(Cc3ccc4c(c3)OCO4)CC2)c1

>  <score_type>  (45) 
oracle

>  <origin>  (45) 
adg

>  <m_score__min__energy>  (45) 
-10.48

>  <m_primary>  (45) 
energy

$$$$
46:0
     RDKit          3D

 45 45  0  0  0  0  0  0  0  0999 V2000
   60.0970   26.2310   46.4270 C   0  0  0  0  0  0  0  0  0  0  0  0
   59.0410   27.1830   46.9760 C   0  0  0  0  0  0  0  0  0  0  0  0
   59.0660   28.4660   46.2400 N   0  0  0  0  0  0  0  0  0  0  0  0
   59.3430   29.7070   47.0010 C   0  0  0  0  0  0  0  0  0  0  0  0
   60.6660   30.3930   46.6370 C   0  0  0  0  0  0  0  0  0  0  0  0
   59.5420   28.4240   44.8380 C   0  0  0  0  0  0  0  0  0  0  0  0
   58.4360   28.2050   43.7850 C   0  0  0  0  0  0  0  0  0  0  0  0
   57.0930   28.4420   44.3360 N   0  0  0  0  0  0  0  0  0  0  0  0
   56.3200   29.3410   43.4680 C   0  0  0  0  0  0  0  0  0  0  0  0
   56.0950   30.7150   44.1230 C   0  0  0  0  0  0  0  0  0  0  0  0
   57.0540   30.9610   45.1570 O   0  0  0  0  0  0  0  0  0  0  0  0
   57.7040   32.1830   45.4150 C   0  0  0  0  0  0  0  0  0  0  0  0
   57.8030   32.7260   46.7130 C   0  0  0  0  0  0  0  0  0  0  0  0
   58.4250   33.9600   46.9180 C   0  0  0  0  0  0  0  0  0  0  0  0
   58.9560   34.6650   45.8390 C   0  0  0  0  0  0  0  0  0  0  0  0
   58.8760   34.1350   44.5500 C   0  0  0  0  0  0  0  0  0  0  0  0
   58.2660   32.8890   44.3310 C   0  0  0  0  0  0  0  0  0  0  0  0
   58.1400   32.3540   42.9330 C   0  0  0  0  0  0  0  0  0  0  0  0
   60.6285   25.7518   47.2624 H   0  0  0  0  0  0  0  0  0  0  0  0
   59.6109   25.4600   45.8112 H   0  0  0  0  0  0  0  0  0  0  0  0
   60.8137   26.7941   45.8112 H   0  0  0  0  0  0  0  0  0  0  0  0
   58.0477   26.7230   46.8676 H   0  0  0  0  0  0  0  0  0  0  0  0
   59.2554   27.3778   48.0372 H   0  0  0  0  0  0  0  0  0  0  0  0
   58.5242   30.4166   46.8113 H   0  0  0  0  0  0  0  0  0  0  0  0
   59.4219   29.4151   48.0586 H   0  0  0  0  0  0  0  0  0  0  0  0
   61.2007   30.6702   47.5575 H   0  0  0  0  0  0  0  0  0  0  0  0
   61.2864   29.7030   46.0463 H   0  0  0  0  0  0  0  0  0  0  0  0
   60.4596   31.2977   46.0463 H   0  0  0  0  0  0  0  0  0  0  0  0
   60.0403   29.3795   44.6171 H   0  0  0  0  0  0  0  0  0  0  0  0
   60.2145   27.5565   44.7654 H   0  0  0  0  0  0  0  0  0  0  0  0
   58.6026   28.8971   42.9464 H   0  0  0  0  0  0  0  0  0  0  0  0
   58.4863   27.1573   43.4537 H   0  0  0  0  0  0  0  0  0  0  0  0
   56.5980   27.5300   44.3830 H   0  0  0  0  0  0  0  0  0  0  0  0
   57.1730   28.8600   45.2930 H   0  0  0  0  0  0  0  0  0  0  0  0
   56.8671   29.4819   42.5242 H   0  0  0  0  0  0  0  0  0  0  0  0
   55.3362   28.8820   43.2904 H   0  0  0  0  0  0  0  0  0  0  0  0
   56.1870   31.4974   43.3553 H   0  0  0  0  0  0  0  0  0  0  0  0
   55.0904   30.7260   44.5711 H   0  0  0  0  0  0  0  0  0  0  0  0
   57.3878   32.1743   47.5693 H   0  0  0  0  0  0  0  0  0  0  0  0
   58.4959   34.3765   47.9336 H   0  0  0  0  0  0  0  0  0  0  0  0
   59.4385   35.6398   46.0034 H   0  0  0  0  0  0  0  0  0  0  0  0
   59.2931   34.6964   43.7010 H   0  0  0  0  0  0  0  0  0  0  0  0
   57.8880   31.2839   42.9712 H   0  0  0  0  0  0  0  0  0  0  0  0
   57.3456   32.8990   42.4020 H   0  0  0  0  0  0  0  0  0  0  0  0
   59.0941   32.4873   42.4020 H   0  0  0  0  0  0  0  0  0  0  0  0
  1  2  1  0
  2  3  1  0
  3  4  1  0
  4  5  1  0
  3  6  1  0
  6  7  1  0
  7  8  1  0
  8  9  1  0
  9 10  1  0
 10 11  1  0
 11 12  1  0
 12 13  2  0
 13 14  1  0
 14 15  2  0
 15 16  1  0
 16 17  2  0
 17 18  1  0
 17 12  1  0
  1 19  1  0
  1 20  1  0
  1 21  1  0
  2 22  1  0
  2 23  1  0
  4 24  1  0
  4 25  1  0
  5 26  1  0
  5 27  1  0
  5 28  1  0
  6 29  1  0
  6 30  1  0
  7 31  1  0
  7 32  1  0
  8 33  1  0
  8 34  1  0
  9 35  1  0
  9 36  1  0
 10 37  1  0
 10 38  1  0
 13 39  1  0
 14 40  1  0
 15 41  1  0
 16 42  1  0
 18 43  1  0
 18 44  1  0
 18 45  1  0
M  CHG  1   8   1
M  END
>  <UniqueID>  (46) 
44

>  <SMILES>  (46) 
CCN(CC)CC[NH2+]CCOc1ccccc1C

>  <Energy>  (46) 
45.75610184959953

>  <Genealogy>  (46) 
CCN(CC)CC[NH2+]CCOc1ccccc1C (protonated)
CCN(CC)CC[NH2+]CCOc1ccccc1C (3D coordinates assigned)
CCN(CC)CC[NH2+]CCOc1ccccc1C (optimized conformer: 45.75610184959953 kcal/mol)

>  <smiles>  (46) 
CCN(CC)CCNCCOc1ccccc1C

>  <score_type>  (46) 
oracle

>  <origin>  (46) 
adg

>  <m_score__min__energy>  (46) 
-3.52

>  <m_primary>  (46) 
energy

$$$$
