0:0
     RDKit          3D

 37 38  0  0  0  0  0  0  0  0999 V2000
   59.6990   34.5880   48.5990 C   0  0  0  0  0  0  0  0  0  0  0  0
   58.8140   33.5310   48.2410 O   0  0  0  0  0  0  0  0  0  0  0  0
   58.4810   33.1690   46.9250 C   0  0  0  0  0  0  0  0  0  0  0  0
   58.2300   34.1550   45.9500 C   0  0  0  0  0  0  0  0  0  0  0  0
   57.8960   33.7960   44.6460 C   0  0  0  0  0  0  0  0  0  0  0  0
   57.7960   32.4540   44.2940 C   0  0  0  0  0  0  0  0  0  0  0  0
   58.0280   31.4500   45.2440 C   0  0  0  0  0  0  0  0  0  0  0  0
   57.9340   30.0030   44.8260 C   0  0  0  0  0  0  0  0  0  0  0  0
   56.6150   29.7340   44.1660 C   0  0  0  0  0  0  0  0  0  0  0  0
   56.5380   29.5150   42.7570 N   0  0  0  0  0  0  0  0  0  0  0  0
   55.5630   29.7130   44.8590 O   0  0  0  0  0  0  0  0  0  0  0  0
   58.3910   31.7970   46.5650 C   0  0  0  0  0  0  0  0  0  0  0  0
   58.6500   30.7410   47.4600 O   0  0  0  0  0  0  0  0  0  0  0  0
   59.9010   30.1040   47.6920 C   0  0  0  0  0  0  0  0  0  0  0  0
   60.9050   31.1420   48.0980 C   0  0  0  0  0  0  0  0  0  0  0  0
   61.0930   31.4610   49.4530 C   0  0  0  0  0  0  0  0  0  0  0  0
   62.0630   32.3950   49.8290 C   0  0  0  0  0  0  0  0  0  0  0  0
   62.8630   33.0040   48.8570 C   0  0  0  0  0  0  0  0  0  0  0  0
   62.6950   32.6770   47.5080 C   0  0  0  0  0  0  0  0  0  0  0  0
   61.7240   31.7460   47.1280 C   0  0  0  0  0  0  0  0  0  0  0  0
   59.7595   34.6602   49.6950 H   0  0  0  0  0  0  0  0  0  0  0  0
   60.6991   34.3835   48.1893 H   0  0  0  0  0  0  0  0  0  0  0  0
   59.3219   35.5366   48.1893 H   0  0  0  0  0  0  0  0  0  0  0  0
   58.2985   35.2188   46.2213 H   0  0  0  0  0  0  0  0  0  0  0  0
   57.7109   34.5759   43.8927 H   0  0  0  0  0  0  0  0  0  0  0  0
   57.5328   32.1786   43.2621 H   0  0  0  0  0  0  0  0  0  0  0  0
   58.7458   29.7765   44.1191 H   0  0  0  0  0  0  0  0  0  0  0  0
   58.0221   29.3672   45.7193 H   0  0  0  0  0  0  0  0  0  0  0  0
   57.4000   29.5120   42.1670 H   0  0  0  0  0  0  0  0  0  0  0  0
   55.6150   29.3480   42.3000 H   0  0  0  0  0  0  0  0  0  0  0  0
   59.7935   29.3598   48.4949 H   0  0  0  0  0  0  0  0  0  0  0  0
   60.2376   29.5972   46.7756 H   0  0  0  0  0  0  0  0  0  0  0  0
   60.4746   30.9740   50.2213 H   0  0  0  0  0  0  0  0  0  0  0  0
   62.1970   32.6511   50.8903 H   0  0  0  0  0  0  0  0  0  0  0  0
   63.6244   33.7403   49.1537 H   0  0  0  0  0  0  0  0  0  0  0  0
   63.3279   33.1531   46.7446 H   0  0  0  0  0  0  0  0  0  0  0  0
   61.6003   31.4851   46.0666 H   0  0  0  0  0  0  0  0  0  0  0  0
  1  2  1  0
  2  3  1  0
  3  4  2  0
  4  5  1  0
  5  6  2  0
  6  7  1  0
  7  8  1  0
  8  9  1  0
  9 10  1  0
  9 11  2  0
  7 12  2  0
 12 13  1  0
 13 14  1  0
 14 15  1  0
 15 16  2  0
 16 17  1  0
 17 18  2  0
 18 19  1  0
 19 20  2  0
 12  3  1  0
 20 15  1  0
  1 21  1  0
  1 22  1  0
  1 23  1  0
  4 24  1  0
  5 25  1  0
  6 26  1  0
  8 27  1  0
  8 28  1  0
 10 29  1  0
 10 30  1  0
 14 31  1  0
 14 32  1  0
 16 33  1  0
 17 34  1  0
 18 35  1  0
 19 36  1  0
 20 37  1  0
M  END
>  <UniqueID>  (1) 
1

>  <SMILES>  (1) 
COc1cccc(CC(N)=O)c1OCc1ccccc1

>  <Energy>  (1) 
35.239648281998655

>  <Genealogy>  (1) 
COc1cccc(CC(N)=O)c1OCc1ccccc1 (3D coordinates assigned)
COc1cccc(CC(N)=O)c1OCc1ccccc1 (optimized conformer: 35.239648281998655 kcal/mol)

>  <smiles>  (1) 
COc1cccc(CC(N)=O)c1OCc1ccccc1

>  <score_type>  (1) 
oracle

>  <origin>  (1) 
adg

>  <m_score__min__energy>  (1) 
-7

>  <m_primary>  (1) 
energy

$$$$
1:0
     RDKit          3D

 40 42  0  0  0  0  0  0  0  0999 V2000
   64.1520   33.8020   50.6120 C   0  0  0  0  0  0  0  0  0  0  0  0
   64.5190   33.0070   49.3630 C   0  0  0  0  0  0  0  0  0  0  0  0
   63.3240   32.2750   48.8290 C   0  0  0  0  0  0  0  0  0  0  0  0
   62.8160   32.5650   47.5560 C   0  0  0  0  0  0  0  0  0  0  0  0
   61.6820   31.8910   47.1000 C   0  0  0  0  0  0  0  0  0  0  0  0
   61.0510   30.9430   47.9120 C   0  0  0  0  0  0  0  0  0  0  0  0
   59.9090   30.2920   47.4200 O   0  0  0  0  0  0  0  0  0  0  0  0
   59.7130   29.8910   46.0650 C   0  0  0  0  0  0  0  0  0  0  0  0
   58.3540   30.3110   45.5740 C   0  0  0  0  0  0  0  0  0  0  0  0
   57.8280   31.5890   45.4480 C   0  0  0  0  0  0  0  0  0  0  0  0
   58.4530   32.8690   45.8400 C   0  0  0  0  0  0  0  0  0  0  0  0
   58.8290   33.7920   44.8500 C   0  0  0  0  0  0  0  0  0  0  0  0
   59.4090   35.0130   45.2080 C   0  0  0  0  0  0  0  0  0  0  0  0
   59.6040   35.3280   46.5560 C   0  0  0  0  0  0  0  0  0  0  0  0
   59.2130   34.4240   47.5480 C   0  0  0  0  0  0  0  0  0  0  0  0
   58.6330   33.2020   47.1940 C   0  0  0  0  0  0  0  0  0  0  0  0
   56.6110   31.5110   44.8740 N   0  0  0  0  0  0  0  0  0  0  0  0
   56.3630   30.2510   44.6620 O   0  0  0  0  0  0  0  0  0  0  0  0
   57.3580   29.4960   45.0660 C   0  0  0  0  0  0  0  0  0  0  0  0
   57.3890   28.0090   44.9340 C   0  0  0  0  0  0  0  0  0  0  0  0
   61.5890   30.6860   49.1870 C   0  0  0  0  0  0  0  0  0  0  0  0
   62.6950   31.3540   49.6100 N   0  0  0  0  0  0  0  0  0  0  0  0
   64.4197   33.2221   51.5076 H   0  0  0  0  0  0  0  0  0  0  0  0
   64.7013   34.7550   50.6146 H   0  0  0  0  0  0  0  0  0  0  0  0
   63.0704   34.0022   50.6146 H   0  0  0  0  0  0  0  0  0  0  0  0
   64.8931   33.6974   48.5927 H   0  0  0  0  0  0  0  0  0  0  0  0
   65.2941   32.2725   49.6270 H   0  0  0  0  0  0  0  0  0  0  0  0
   63.3067   33.3175   46.9212 H   0  0  0  0  0  0  0  0  0  0  0  0
   61.2829   32.1063   46.0978 H   0  0  0  0  0  0  0  0  0  0  0  0
   60.4842   30.3588   45.4354 H   0  0  0  0  0  0  0  0  0  0  0  0
   59.7849   28.7948   46.0081 H   0  0  0  0  0  0  0  0  0  0  0  0
   58.6665   33.5532   43.7886 H   0  0  0  0  0  0  0  0  0  0  0  0
   59.7123   35.7267   44.4278 H   0  0  0  0  0  0  0  0  0  0  0  0
   60.0649   36.2868   46.8359 H   0  0  0  0  0  0  0  0  0  0  0  0
   59.3619   34.6744   48.6087 H   0  0  0  0  0  0  0  0  0  0  0  0
   58.3163   32.4984   47.9780 H   0  0  0  0  0  0  0  0  0  0  0  0
   57.3985   27.5522   45.9346 H   0  0  0  0  0  0  0  0  0  0  0  0
   56.4977   27.6710   44.3851 H   0  0  0  0  0  0  0  0  0  0  0  0
   58.2936   27.7084   44.3851 H   0  0  0  0  0  0  0  0  0  0  0  0
   61.1131   29.9424   49.8432 H   0  0  0  0  0  0  0  0  0  0  0  0
  1  2  1  0
  2  3  1  0
  3  4  2  0
  4  5  1  0
  5  6  2  0
  6  7  1  0
  7  8  1  0
  8  9  1  0
  9 10  1  0
 10 11  1  0
 11 12  2  0
 12 13  1  0
 13 14  2  0
 14 15  1  0
 15 16  2  0
 10 17  2  0
 17 18  1  0
 18 19  1  0
 19 20  1  0
  6 21  1  0
 21 22  2  0
 22  3  1  0
 19  9  2  0
 16 11  1  0
  1 23  1  0
  1 24  1  0
  1 25  1  0
  2 26  1  0
  2 27  1  0
  4 28  1  0
  5 29  1  0
  8 30  1  0
  8 31  1  0
 12 32  1  0
 13 33  1  0
 14 34  1  0
 15 35  1  0
 16 36  1  0
 20 37  1  0
 20 38  1  0
 20 39  1  0
 21 40  1  0
M  END
>  <UniqueID>  (2) 
2

>  <SMILES>  (2) 
CCc1ccc(OCc2c(-c3ccccc3)noc2C)cn1

>  <Energy>  (2) 
72.11154047959296

>  <Genealogy>  (2) 
CCc1ccc(OCc2c(-c3ccccc3)noc2C)cn1 (3D coordinates assigned)
CCc1ccc(OCc2c(-c3ccccc3)noc2C)cn1 (optimized conformer: 72.11154047959296 kcal/mol)

>  <smiles>  (2) 
CCc1ccc(OCc2c(-c3ccccc3)noc2C)cn1

>  <score_type>  (2) 
oracle

>  <origin>  (2) 
adg

>  <m_score__min__energy>  (2) 
-7.7599999999999998

>  <m_primary>  (2) 
energy

$$$$
2:0
     RDKit          3D

 34 36  0  0  0  0  0  0  0  0999 V2000
   59.1420   31.9290   48.8380 C   0  0  0  0  0  0  0  0  0  0  0  0
   59.1230   32.6880   47.5530 C   0  0  0  0  0  0  0  0  0  0  0  0
   59.6150   33.9440   47.4000 N   0  0  0  0  0  0  0  0  0  0  0  0
   59.3490   34.3390   46.1580 N   0  0  0  0  0  0  0  0  0  0  0  0
   59.6430   35.6680   45.6380 C   0  0  0  0  0  0  0  0  0  0  0  0
   58.6640   33.3630   45.5400 C   0  0  0  0  0  0  0  0  0  0  0  0
   58.1290   33.3940   44.2940 N   0  0  0  0  0  0  0  0  0  0  0  0
   57.4030   32.3170   43.8640 C   0  0  0  0  0  0  0  0  0  0  0  0
   57.2000   31.1970   44.7120 C   0  0  0  0  0  0  0  0  0  0  0  0
   56.3520   30.0750   44.2810 C   0  0  0  0  0  0  0  0  0  0  0  0
   55.9100   30.0570   43.1020 O   0  0  0  0  0  0  0  0  0  0  0  0
   56.0600   28.9740   45.1520 N   0  0  0  0  0  0  0  0  0  0  0  0
   57.0540   28.0820   45.7450 C   0  0  0  0  0  0  0  0  0  0  0  0
   56.6040   26.6510   45.6560 C   0  0  0  0  0  0  0  0  0  0  0  0
   57.4280   25.6640   45.1020 C   0  0  0  0  0  0  0  0  0  0  0  0
   56.9470   24.3610   44.9880 C   0  0  0  0  0  0  0  0  0  0  0  0
   55.6620   24.0700   45.4400 C   0  0  0  0  0  0  0  0  0  0  0  0
   54.9030   25.0570   45.9820 N   0  0  0  0  0  0  0  0  0  0  0  0
   55.3580   26.3080   46.0840 N   0  0  0  0  0  0  0  0  0  0  0  0
   57.7730   31.1860   46.0010 C   0  0  0  0  0  0  0  0  0  0  0  0
   58.5010   32.3070   46.3810 C   0  0  0  0  0  0  0  0  0  0  0  0
   59.1243   32.6351   49.6812 H   0  0  0  0  0  0  0  0  0  0  0  0
   58.2600   31.2738   48.8899 H   0  0  0  0  0  0  0  0  0  0  0  0
   60.0557   31.3187   48.8899 H   0  0  0  0  0  0  0  0  0  0  0  0
   59.7969   36.3638   46.4759 H   0  0  0  0  0  0  0  0  0  0  0  0
   60.5540   35.6277   45.0227 H   0  0  0  0  0  0  0  0  0  0  0  0
   58.8001   36.0157   45.0227 H   0  0  0  0  0  0  0  0  0  0  0  0
   56.9726   32.3191   42.8517 H   0  0  0  0  0  0  0  0  0  0  0  0
   58.0069   28.1949   45.2073 H   0  0  0  0  0  0  0  0  0  0  0  0
   57.1800   28.3478   46.8049 H   0  0  0  0  0  0  0  0  0  0  0  0
   58.4433   25.9141   44.7607 H   0  0  0  0  0  0  0  0  0  0  0  0
   57.5741   23.5724   44.5467 H   0  0  0  0  0  0  0  0  0  0  0  0
   55.2647   23.0475   45.3584 H   0  0  0  0  0  0  0  0  0  0  0  0
   57.6488   30.3268   46.6765 H   0  0  0  0  0  0  0  0  0  0  0  0
  1  2  1  0
  2  3  2  0
  3  4  1  0
  4  5  1  0
  4  6  1  0
  6  7  2  0
  7  8  1  0
  8  9  2  0
  9 10  1  0
 10 11  2  0
 10 12  1  0
 12 13  1  0
 13 14  1  0
 14 15  2  0
 15 16  1  0
 16 17  2  0
 17 18  1  0
 18 19  2  0
  9 20  1  0
 20 21  2  0
 21  2  1  0
 21  6  1  0
 19 14  1  0
  1 22  1  0
  1 23  1  0
  1 24  1  0
  5 25  1  0
  5 26  1  0
  5 27  1  0
  8 28  1  0
 13 29  1  0
 13 30  1  0
 15 31  1  0
 16 32  1  0
 17 33  1  0
 20 34  1  0
M  CHG  1  12  -1
M  END
>  <UniqueID>  (3) 
3

>  <SMILES>  (3) 
Cc1nn(C)c2ncc(C(=O)[N-]Cc3cccnn3)cc12

>  <Energy>  (3) 
78.46358539296715

>  <Genealogy>  (3) 
Cc1nn(C)c2ncc(C(=O)[N-]Cc3cccnn3)cc12 (protonated)
Cc1nn(C)c2ncc(C(=O)[N-]Cc3cccnn3)cc12 (3D coordinates assigned)
Cc1nn(C)c2ncc(C(=O)[N-]Cc3cccnn3)cc12 (optimized conformer: 78.46358539296715 kcal/mol)

>  <smiles>  (3) 
Cc1nn(C)c2ncc(C(=O)NCc3cccnn3)cc12

>  <score_type>  (3) 
oracle

>  <origin>  (3) 
adg

>  <m_score__min__energy>  (3) 
-9.3399999999999999

>  <m_primary>  (3) 
energy

$$$$
3:0
     RDKit          3D

 38 41  0  0  0  0  0  0  0  0999 V2000
   62.9860   34.9390   50.0230 F   0  0  0  0  0  0  0  0  0  0  0  0
   62.9770   33.8540   49.2080 C   0  0  0  0  0  0  0  0  0  0  0  0
   63.4260   33.9900   47.8910 C   0  0  0  0  0  0  0  0  0  0  0  0
   63.4200   32.8900   47.0290 C   0  0  0  0  0  0  0  0  0  0  0  0
   62.9520   31.6540   47.4780 C   0  0  0  0  0  0  0  0  0  0  0  0
   62.4980   31.5110   48.7930 C   0  0  0  0  0  0  0  0  0  0  0  0
   62.5300   32.6030   49.6800 C   0  0  0  0  0  0  0  0  0  0  0  0
   62.0810   32.4250   51.1170 C   0  0  0  0  0  0  0  0  0  0  0  0
   60.6400   32.7070   51.3620 N   0  0  2  0  0  0  0  0  0  0  0  0
   59.7830   31.5000   51.3460 C   0  0  0  0  0  0  0  0  0  0  0  0
   59.5170   31.0590   50.0140 O   0  0  0  0  0  0  0  0  0  0  0  0
   59.3480   31.9610   48.9650 C   0  0  0  0  0  0  0  0  0  0  0  0
   58.9610   31.5120   47.7420 N   0  0  0  0  0  0  0  0  0  0  0  0
   58.8240   32.3530   46.6830 C   0  0  0  0  0  0  0  0  0  0  0  0
   58.4320   31.8550   45.4360 C   0  0  0  0  0  0  0  0  0  0  0  0
   58.2960   32.7220   44.3460 C   0  0  0  0  0  0  0  0  0  0  0  0
   57.7640   32.0380   42.6440 Br  0  0  0  0  0  0  0  0  0  0  0  0
   58.5520   34.0900   44.5020 C   0  0  0  0  0  0  0  0  0  0  0  0
   58.9440   34.5970   45.7440 C   0  0  0  0  0  0  0  0  0  0  0  0
   59.0830   33.7340   46.8400 C   0  0  0  0  0  0  0  0  0  0  0  0
   59.4810   34.2110   48.0960 C   0  0  0  0  0  0  0  0  0  0  0  0
   59.6320   33.3180   49.1630 C   0  0  0  0  0  0  0  0  0  0  0  0
   60.0820   33.7960   50.5210 C   0  0  0  0  0  0  0  0  0  0  0  0
   63.7851   34.9658   47.5322 H   0  0  0  0  0  0  0  0  0  0  0  0
   63.7841   32.9982   45.9967 H   0  0  0  0  0  0  0  0  0  0  0  0
   62.9403   30.7908   46.7962 H   0  0  0  0  0  0  0  0  0  0  0  0
   62.1136   30.5391   49.1360 H   0  0  0  0  0  0  0  0  0  0  0  0
   62.2804   31.3840   51.4110 H   0  0  0  0  0  0  0  0  0  0  0  0
   62.6448   33.1601   51.7101 H   0  0  0  0  0  0  0  0  0  0  0  0
   60.6020   33.0630   52.3470 H   0  0  0  0  0  0  0  0  0  0  0  0
   60.2928   30.6935   51.8935 H   0  0  0  0  0  0  0  0  0  0  0  0
   58.8240   31.7539   51.8212 H   0  0  0  0  0  0  0  0  0  0  0  0
   58.2304   30.7808   45.3121 H   0  0  0  0  0  0  0  0  0  0  0  0
   58.4440   34.7686   43.6430 H   0  0  0  0  0  0  0  0  0  0  0  0
   59.1433   35.6724   45.8615 H   0  0  0  0  0  0  0  0  0  0  0  0
   59.6741   35.2839   48.2429 H   0  0  0  0  0  0  0  0  0  0  0  0
   60.8565   34.5649   50.3834 H   0  0  0  0  0  0  0  0  0  0  0  0
   59.1976   34.1936   51.0404 H   0  0  0  0  0  0  0  0  0  0  0  0
  1  2  1  0
  2  3  2  0
  3  4  1  0
  4  5  2  0
  5  6  1  0
  6  7  2  0
  7  8  1  0
  8  9  1  0
  9 10  1  0
 10 11  1  0
 11 12  1  0
 12 13  2  0
 13 14  1  0
 14 15  2  0
 15 16  1  0
 16 17  1  0
 16 18  2  0
 18 19  1  0
 19 20  2  0
 20 21  1  0
 21 22  2  0
 22 23  1  0
  7  2  1  0
 23  9  1  0
 22 12  1  0
 20 14  1  0
  3 24  1  0
  4 25  1  0
  5 26  1  0
  6 27  1  0
  8 28  1  0
  8 29  1  0
  9 30  1  1
 10 31  1  0
 10 32  1  0
 15 33  1  0
 18 34  1  0
 19 35  1  0
 21 36  1  0
 23 37  1  0
 23 38  1  0
M  CHG  1   9   1
M  END
>  <UniqueID>  (4) 
4

>  <SMILES>  (4) 
Fc1ccccc1C[N@@H+]1COc2nc3cc(Br)ccc3cc2C1

>  <Energy>  (4) 
52.47444296800111

>  <Genealogy>  (4) 
Fc1ccccc1C[NH+]1COc2nc3cc(Br)ccc3cc2C1 (protonated)
Fc1ccccc1C[N@@H+]1COc2nc3cc(Br)ccc3cc2C1 (chirality)
Fc1ccccc1C[N@@H+]1COc2nc3cc(Br)ccc3cc2C1 (3D coordinates assigned)
Fc1ccccc1C[N@@H+]1COc2nc3cc(Br)ccc3cc2C1 (nonaromatic ring conformer: 52.47444296800111 kcal/mol)

>  <smiles>  (4) 
Fc1ccccc1CN1COc2nc3cc(Br)ccc3cc2C1

>  <score_type>  (4) 
oracle

>  <origin>  (4) 
adg

>  <m_score__min__energy>  (4) 
-6.1699999999999999

>  <m_primary>  (4) 
energy

$$$$
4:0
     RDKit          3D

 61 63  0  0  0  0  0  0  0  0999 V2000
   53.0390   30.5090   50.8760 C   0  0  0  0  0  0  0  0  0  0  0  0
   53.9370   30.0900   52.0300 C   0  0  0  0  0  0  0  0  0  0  0  0
   54.9030   31.1070   52.2750 O   0  0  0  0  0  0  0  0  0  0  0  0
   56.2650   30.9380   51.9940 C   0  0  0  0  0  0  0  0  0  0  0  0
   56.7390   29.7790   51.8370 O   0  0  0  0  0  0  0  0  0  0  0  0
   57.1820   32.1380   51.9700 C   0  0  1  0  0  0  0  0  0  0  0  0
   57.9490   32.2900   53.3000 C   0  0  0  0  0  0  0  0  0  0  0  0
   59.0000   33.4230   53.2790 C   0  0  0  0  0  0  0  0  0  0  0  0
   59.1090   34.1350   51.9260 C   0  0  0  0  0  0  0  0  0  0  0  0
   59.1720   33.1480   50.8350 N   0  0  0  0  0  0  0  0  0  0  0  0
   60.1140   33.2620   49.7420 C   0  0  0  0  0  0  0  0  0  0  0  0
   60.7200   32.2310   49.3370 O   0  0  0  0  0  0  0  0  0  0  0  0
   60.3800   34.5760   49.0500 C   0  0  0  0  0  0  0  0  0  0  0  0
   59.4050   34.8480   48.0420 O   0  0  0  0  0  0  0  0  0  0  0  0
   58.8970   33.9080   47.1250 C   0  0  0  0  0  0  0  0  0  0  0  0
   58.2870   32.7080   47.5430 C   0  0  0  0  0  0  0  0  0  0  0  0
   57.8000   31.7980   46.6040 C   0  0  0  0  0  0  0  0  0  0  0  0
   57.9100   32.0670   45.2360 C   0  0  0  0  0  0  0  0  0  0  0  0
   57.2830   30.9320   44.0420 S   0  0  0  0  0  0  0  0  0  0  0  0
   57.1800   31.6020   42.7000 O   0  0  0  0  0  0  0  0  0  0  0  0
   55.9060   30.5040   44.4700 O   0  0  0  0  0  0  0  0  0  0  0  0
   58.3320   29.5360   43.9410 N   0  0  0  0  0  0  0  0  0  0  0  0
   57.5830   28.2900   44.1470 C   0  0  0  0  0  0  0  0  0  0  0  0
   57.6680   27.9390   45.6260 C   0  0  0  0  0  0  0  0  0  0  0  0
   58.8230   28.7590   46.1750 C   0  0  0  0  0  0  0  0  0  0  0  0
   59.3530   29.5660   44.9970 C   0  0  0  0  0  0  0  0  0  0  0  0
   58.5060   33.2600   44.8120 C   0  0  0  0  0  0  0  0  0  0  0  0
   59.0040   34.1820   45.7480 C   0  0  0  0  0  0  0  0  0  0  0  0
   59.6370   35.4620   45.2800 C   0  0  0  0  0  0  0  0  0  0  0  0
   58.1820   32.0570   50.7960 C   0  0  0  0  0  0  0  0  0  0  0  0
   52.1095   30.9427   51.2735 H   0  0  0  0  0  0  0  0  0  0  0  0
   53.5588   31.2576   50.2600 H   0  0  0  0  0  0  0  0  0  0  0  0
   52.7993   29.6298   50.2600 H   0  0  0  0  0  0  0  0  0  0  0  0
   53.3270   29.9390   52.9328 H   0  0  0  0  0  0  0  0  0  0  0  0
   54.4504   29.1519   51.7723 H   0  0  0  0  0  0  0  0  0  0  0  0
   56.5454   33.0242   51.8306 H   0  0  0  0  0  0  0  0  0  0  0  0
   57.2229   32.5032   54.0983 H   0  0  0  0  0  0  0  0  0  0  0  0
   58.4914   31.3483   53.4704 H   0  0  0  0  0  0  0  0  0  0  0  0
   58.7251   34.1663   54.0418 H   0  0  0  0  0  0  0  0  0  0  0  0
   59.9774   32.9596   53.4789 H   0  0  0  0  0  0  0  0  0  0  0  0
   58.2290   34.7793   51.7826 H   0  0  0  0  0  0  0  0  0  0  0  0
   60.0258   34.7427   51.9133 H   0  0  0  0  0  0  0  0  0  0  0  0
   60.3561   35.3835   49.7965 H   0  0  0  0  0  0  0  0  0  0  0  0
   61.3662   34.5160   48.5665 H   0  0  0  0  0  0  0  0  0  0  0  0
   58.1943   32.4874   48.6167 H   0  0  0  0  0  0  0  0  0  0  0  0
   57.3270   30.8640   46.9416 H   0  0  0  0  0  0  0  0  0  0  0  0
   58.7890   29.5320   42.9980 H   0  0  0  0  0  0  0  0  0  0  0  0
   56.5319   28.4319   43.8553 H   0  0  0  0  0  0  0  0  0  0  0  0
   58.0052   27.4804   43.5336 H   0  0  0  0  0  0  0  0  0  0  0  0
   56.7313   28.2043   46.1380 H   0  0  0  0  0  0  0  0  0  0  0  0
   57.8247   26.8612   45.7801 H   0  0  0  0  0  0  0  0  0  0  0  0
   58.4717   29.4302   46.9725 H   0  0  0  0  0  0  0  0  0  0  0  0
   59.6034   28.1188   46.6121 H   0  0  0  0  0  0  0  0  0  0  0  0
   59.5403   30.6044   45.3080 H   0  0  0  0  0  0  0  0  0  0  0  0
   60.2987   29.1393   44.6314 H   0  0  0  0  0  0  0  0  0  0  0  0
   58.5853   33.4778   43.7367 H   0  0  0  0  0  0  0  0  0  0  0  0
   59.9346   36.0638   46.1513 H   0  0  0  0  0  0  0  0  0  0  0  0
   60.5249   35.2314   44.6730 H   0  0  0  0  0  0  0  0  0  0  0  0
   58.9148   36.0277   44.6730 H   0  0  0  0  0  0  0  0  0  0  0  0
   57.6241   32.1179   49.8500 H   0  0  0  0  0  0  0  0  0  0  0  0
   58.7248   31.1038   50.8785 H   0  0  0  0  0  0  0  0  0  0  0  0
  1  2  1  0
  2  3  1  0
  3  4  1  0
  4  5  2  0
  4  6  1  0
  6  7  1  0
  7  8  1  0
  8  9  1  0
  9 10  1  0
 10 11  1  0
 11 12  2  0
 11 13  1  0
 13 14  1  0
 14 15  1  0
 15 16  2  0
 16 17  1  0
 17 18  2  0
 18 19  1  0
 19 20  2  0
 19 21  2  0
 19 22  1  0
 22 23  1  0
 23 24  1  0
 24 25  1  0
 25 26  1  0
 18 27  1  0
 27 28  2  0
 28 29  1  0
 10 30  1  0
 30  6  1  0
 28 15  1  0
 26 22  1  0
  1 31  1  0
  1 32  1  0
  1 33  1  0
  2 34  1  0
  2 35  1  0
  6 36  1  6
  7 37  1  0
  7 38  1  0
  8 39  1  0
  8 40  1  0
  9 41  1  0
  9 42  1  0
 13 43  1  0
 13 44  1  0
 16 45  1  0
 17 46  1  0
 22 47  1  0
 23 48  1  0
 23 49  1  0
 24 50  1  0
 24 51  1  0
 25 52  1  0
 25 53  1  0
 26 54  1  0
 26 55  1  0
 27 56  1  0
 29 57  1  0
 29 58  1  0
 29 59  1  0
 30 60  1  0
 30 61  1  0
M  CHG  1  22   1
M  END
>  <UniqueID>  (5) 
5

>  <SMILES>  (5) 
CCOC(=O)[C@H]1CCCN(C(=O)COc2ccc(S(=O)(=O)[NH+]3CCCC3)cc2C)C1

>  <Energy>  (5) 
59.929140089246474

>  <Genealogy>  (5) 
CCOC(=O)C1CCCN(C(=O)COc2ccc(S(=O)(=O)[NH+]3CCCC3)cc2C)C1 (protonated)
CCOC(=O)[C@H]1CCCN(C(=O)COc2ccc(S(=O)(=O)[NH+]3CCCC3)cc2C)C1 (chirality)
CCOC(=O)[C@H]1CCCN(C(=O)COc2ccc(S(=O)(=O)[NH+]3CCCC3)cc2C)C1 (3D coordinates assigned)
CCOC(=O)[C@H]1CCCN(C(=O)COc2ccc(S(=O)(=O)[NH+]3CCCC3)cc2C)C1 (nonaromatic ring conformer: 59.929140089246474 kcal/mol)

>  <smiles>  (5) 
CCOC(=O)C1CCCN(C(=O)COc2ccc(S(=O)(=O)N3CCCC3)cc2C)C1

>  <score_type>  (5) 
oracle

>  <origin>  (5) 
adg

>  <m_score__min__energy>  (5) 
-7.9500000000000002

>  <m_primary>  (5) 
energy

$$$$
5:0
     RDKit          3D

 40 41  0  0  0  0  0  0  0  0999 V2000
   58.0940   32.3490   43.4430 C   0  0  0  0  0  0  0  0  0  0  0  0
   57.0610   31.2350   43.4840 C   0  0  0  0  0  0  0  0  0  0  0  0
   56.8300   30.8290   44.8630 N   0  0  0  0  0  0  0  0  0  0  0  0
   56.6760   29.4610   45.2540 C   0  0  0  0  0  0  0  0  0  0  0  0
   55.5310   28.9310   45.2450 O   0  0  0  0  0  0  0  0  0  0  0  0
   57.9030   28.6410   45.6020 C   0  0  1  0  0  0  0  0  0  0  0  0
   57.5600   27.4740   46.5530 C   0  0  0  0  0  0  0  0  0  0  0  0
   58.5330   28.0870   44.3070 C   0  0  0  0  0  0  0  0  0  0  0  0
   60.0380   28.2200   44.4950 C   0  0  0  0  0  0  0  0  0  0  0  0
   60.2210   29.3580   45.4850 C   0  0  0  0  0  0  0  0  0  0  0  0
   58.9530   29.4840   46.1880 N   0  0  0  0  0  0  0  0  0  0  0  0
   58.7970   30.4290   47.2690 C   0  0  0  0  0  0  0  0  0  0  0  0
   58.5100   30.0130   48.4230 O   0  0  0  0  0  0  0  0  0  0  0  0
   58.9170   31.8820   47.0630 C   0  0  0  0  0  0  0  0  0  0  0  0
   57.7720   32.6550   46.8410 C   0  0  0  0  0  0  0  0  0  0  0  0
   57.8810   33.9930   46.6320 N   0  0  0  0  0  0  0  0  0  0  0  0
   59.0980   34.5960   46.6090 C   0  0  0  0  0  0  0  0  0  0  0  0
   60.2260   33.8620   46.7840 N   0  0  0  0  0  0  0  0  0  0  0  0
   60.1710   32.5210   47.0060 C   0  0  0  0  0  0  0  0  0  0  0  0
   61.4520   31.7530   47.1420 C   0  0  0  0  0  0  0  0  0  0  0  0
   58.3622   32.6383   44.4698 H   0  0  0  0  0  0  0  0  0  0  0  0
   58.9923   31.9968   42.9148 H   0  0  0  0  0  0  0  0  0  0  0  0
   57.6751   33.2182   42.9148 H   0  0  0  0  0  0  0  0  0  0  0  0
   56.1182   31.5946   43.0461 H   0  0  0  0  0  0  0  0  0  0  0  0
   57.4315   30.3739   42.9084 H   0  0  0  0  0  0  0  0  0  0  0  0
   57.6587   27.8097   47.5959 H   0  0  0  0  0  0  0  0  0  0  0  0
   56.5268   27.1437   46.3703 H   0  0  0  0  0  0  0  0  0  0  0  0
   58.2502   26.6372   46.3703 H   0  0  0  0  0  0  0  0  0  0  0  0
   58.2554   27.0320   44.1656 H   0  0  0  0  0  0  0  0  0  0  0  0
   58.1838   28.6331   43.4183 H   0  0  0  0  0  0  0  0  0  0  0  0
   60.4595   27.2874   44.8982 H   0  0  0  0  0  0  0  0  0  0  0  0
   60.5536   28.4180   43.5437 H   0  0  0  0  0  0  0  0  0  0  0  0
   61.0292   29.1226   46.1931 H   0  0  0  0  0  0  0  0  0  0  0  0
   60.4956   30.2943   44.9772 H   0  0  0  0  0  0  0  0  0  0  0  0
   56.7808   32.1780   46.8357 H   0  0  0  0  0  0  0  0  0  0  0  0
   57.0190   34.5630   46.4800 H   0  0  0  0  0  0  0  0  0  0  0  0
   59.1694   35.6818   46.4481 H   0  0  0  0  0  0  0  0  0  0  0  0
   61.6845   31.6136   48.2081 H   0  0  0  0  0  0  0  0  0  0  0  0
   61.3437   30.7707   46.6588 H   0  0  0  0  0  0  0  0  0  0  0  0
   62.2673   32.3114   46.6588 H   0  0  0  0  0  0  0  0  0  0  0  0
  1  2  1  0
  2  3  1  0
  3  4  1  0
  4  5  2  0
  4  6  1  0
  6  7  1  1
  6  8  1  0
  8  9  1  0
  9 10  1  0
 10 11  1  0
 11 12  1  0
 12 13  2  0
 12 14  1  0
 14 15  2  0
 15 16  1  0
 16 17  2  0
 17 18  1  0
 18 19  2  0
 19 20  1  0
 11  6  1  0
 19 14  1  0
  1 21  1  0
  1 22  1  0
  1 23  1  0
  2 24  1  0
  2 25  1  0
  7 26  1  0
  7 27  1  0
  7 28  1  0
  8 29  1  0
  8 30  1  0
  9 31  1  0
  9 32  1  0
 10 33  1  0
 10 34  1  0
 15 35  1  0
 16 36  1  0
 17 37  1  0
 20 38  1  0
 20 39  1  0
 20 40  1  0
M  CHG  2   3  -1  16   1
M  END
>  <UniqueID>  (6) 
6

>  <SMILES>  (6) 
CC[N-]C(=O)[C@@]1(C)CCCN1C(=O)c1c[nH+]cnc1C

>  <Energy>  (6) 
41.57055511184563

>  <Genealogy>  (6) 
CC[N-]C(=O)C1(C)CCCN1C(=O)c1c[nH+]cnc1C (protonated)
CC[N-]C(=O)[C@@]1(C)CCCN1C(=O)c1c[nH+]cnc1C (chirality)
CC[N-]C(=O)[C@@]1(C)CCCN1C(=O)c1c[nH+]cnc1C (3D coordinates assigned)
CC[N-]C(=O)[C@@]1(C)CCCN1C(=O)c1c[nH+]cnc1C (nonaromatic ring conformer: 41.57055511184563 kcal/mol)

>  <smiles>  (6) 
CCNC(=O)C1(C)CCCN1C(=O)c1cncnc1C

>  <score_type>  (6) 
oracle

>  <origin>  (6) 
adg

>  <m_score__min__energy>  (6) 
-8.0600000000000005

>  <m_primary>  (6) 
energy

$$$$
6:0
     RDKit          3D

 48 50  0  0  0  0  0  0  0  0999 V2000
   58.0910   32.2310   43.2360 C   0  0  0  0  0  0  0  0  0  0  0  0
   57.5150   30.9880   43.8480 C   0  0  0  0  0  0  0  0  0  0  0  0
   58.3550   29.9460   44.2720 C   0  0  0  0  0  0  0  0  0  0  0  0
   57.8130   28.7960   44.8530 C   0  0  0  0  0  0  0  0  0  0  0  0
   56.4320   28.6880   45.0560 C   0  0  0  0  0  0  0  0  0  0  0  0
   55.9030   27.4760   45.6090 N   0  0  0  0  0  0  0  0  0  0  0  0
   56.5790   26.6060   46.5240 C   0  0  0  0  0  0  0  0  0  0  0  0
   55.9420   25.6450   47.0300 O   0  0  0  0  0  0  0  0  0  0  0  0
   58.0360   26.6950   46.7310 C   0  0  0  0  0  0  0  0  0  0  0  0
   58.4800   27.6710   47.6410 C   0  0  0  0  0  0  0  0  0  0  0  0
   59.8360   27.8040   47.9420 C   0  0  0  0  0  0  0  0  0  0  0  0
   60.4130   29.1340   49.1850 Br  0  0  0  0  0  0  0  0  0  0  0  0
   60.7670   26.9570   47.3440 C   0  0  0  0  0  0  0  0  0  0  0  0
   60.3440   25.9750   46.4500 C   0  0  0  0  0  0  0  0  0  0  0  0
   58.9880   25.8270   46.1210 C   0  0  0  0  0  0  0  0  0  0  0  0
   58.6820   24.7670   45.2440 O   0  0  0  0  0  0  0  0  0  0  0  0
   57.7150   24.7450   44.1960 C   0  0  0  0  0  0  0  0  0  0  0  0
   56.8520   23.4740   44.2420 C   0  0  0  0  0  0  0  0  0  0  0  0
   57.1030   22.6920   45.4750 N   0  0  0  0  0  0  0  0  0  0  0  0
   57.3980   21.2740   45.1680 C   0  0  0  0  0  0  0  0  0  0  0  0
   57.4260   20.4190   46.4510 C   0  0  0  0  0  0  0  0  0  0  0  0
   57.3920   21.2330   47.6080 O   0  0  0  0  0  0  0  0  0  0  0  0
   56.1640   21.9360   47.6510 C   0  0  0  0  0  0  0  0  0  0  0  0
   55.9400   22.7840   46.3810 C   0  0  0  0  0  0  0  0  0  0  0  0
   55.5910   29.7310   44.6360 C   0  0  0  0  0  0  0  0  0  0  0  0
   56.1300   30.8780   44.0440 C   0  0  0  0  0  0  0  0  0  0  0  0
   58.4096   32.9185   44.0334 H   0  0  0  0  0  0  0  0  0  0  0  0
   58.9577   31.9652   42.6130 H   0  0  0  0  0  0  0  0  0  0  0  0
   57.3279   32.7205   42.6130 H   0  0  0  0  0  0  0  0  0  0  0  0
   59.4442   30.0350   44.1465 H   0  0  0  0  0  0  0  0  0  0  0  0
   58.4757   27.9707   45.1526 H   0  0  0  0  0  0  0  0  0  0  0  0
   57.7491   28.3380   48.1215 H   0  0  0  0  0  0  0  0  0  0  0  0
   61.8366   27.0635   47.5777 H   0  0  0  0  0  0  0  0  0  0  0  0
   61.0867   25.3038   45.9940 H   0  0  0  0  0  0  0  0  0  0  0  0
   57.0607   25.6235   44.2968 H   0  0  0  0  0  0  0  0  0  0  0  0
   58.2513   24.7595   43.2357 H   0  0  0  0  0  0  0  0  0  0  0  0
   55.7906   23.7612   44.2107 H   0  0  0  0  0  0  0  0  0  0  0  0
   57.1137   22.8475   43.3765 H   0  0  0  0  0  0  0  0  0  0  0  0
   56.6212   20.8839   44.4939 H   0  0  0  0  0  0  0  0  0  0  0  0
   58.3882   21.2197   44.6920 H   0  0  0  0  0  0  0  0  0  0  0  0
   56.5522   19.7509   46.4563 H   0  0  0  0  0  0  0  0  0  0  0  0
   58.3590   19.8365   46.4617 H   0  0  0  0  0  0  0  0  0  0  0  0
   55.3423   21.2106   47.7435 H   0  0  0  0  0  0  0  0  0  0  0  0
   56.1917   22.6170   48.5144 H   0  0  0  0  0  0  0  0  0  0  0  0
   55.0449   22.4181   45.8566 H   0  0  0  0  0  0  0  0  0  0  0  0
   55.8078   23.8348   46.6783 H   0  0  0  0  0  0  0  0  0  0  0  0
   54.5029   29.6457   44.7732 H   0  0  0  0  0  0  0  0  0  0  0  0
   55.4656   31.6968   43.7309 H   0  0  0  0  0  0  0  0  0  0  0  0
  1  2  1  0
  2  3  2  0
  3  4  1  0
  4  5  2  0
  5  6  1  0
  6  7  1  0
  7  8  2  0
  7  9  1  0
  9 10  2  0
 10 11  1  0
 11 12  1  0
 11 13  2  0
 13 14  1  0
 14 15  2  0
 15 16  1  0
 16 17  1  0
 17 18  1  0
 18 19  1  0
 19 20  1  0
 20 21  1  0
 21 22  1  0
 22 23  1  0
 23 24  1  0
  5 25  1  0
 25 26  2  0
 26  2  1  0
 15  9  1  0
 24 19  1  0
  1 27  1  0
  1 28  1  0
  1 29  1  0
  3 30  1  0
  4 31  1  0
 10 32  1  0
 13 33  1  0
 14 34  1  0
 17 35  1  0
 17 36  1  0
 18 37  1  0
 18 38  1  0
 20 39  1  0
 20 40  1  0
 21 41  1  0
 21 42  1  0
 23 43  1  0
 23 44  1  0
 24 45  1  0
 24 46  1  0
 25 47  1  0
 26 48  1  0
M  CHG  1   6  -1
M  END
>  <UniqueID>  (7) 
7

>  <SMILES>  (7) 
Cc1ccc([N-]C(=O)c2cc(Br)ccc2OCCN2CCOCC2)cc1

>  <Energy>  (7) 
75.08304771634548

>  <Genealogy>  (7) 
Cc1ccc([N-]C(=O)c2cc(Br)ccc2OCCN2CCOCC2)cc1 (protonated)
Cc1ccc([N-]C(=O)c2cc(Br)ccc2OCCN2CCOCC2)cc1 (3D coordinates assigned)
Cc1ccc([N-]C(=O)c2cc(Br)ccc2OCCN2CCOCC2)cc1 (nonaromatic ring conformer: 75.08304771634548 kcal/mol)

>  <smiles>  (7) 
Cc1ccc(NC(=O)c2cc(Br)ccc2OCCN2CCOCC2)cc1

>  <score_type>  (7) 
oracle

>  <origin>  (7) 
adg

>  <m_score__min__energy>  (7) 
-9.9900000000000002

>  <m_primary>  (7) 
energy

$$$$
7:0
     RDKit          3D

 36 38  0  0  0  0  0  0  0  0999 V2000
   57.7570   32.0300   42.9210 C   0  0  0  0  0  0  0  0  0  0  0  0
   57.9330   32.4910   44.3070 N   0  0  0  0  0  0  0  0  0  0  0  0
   58.0470   33.8410   44.4830 C   0  0  0  0  0  0  0  0  0  0  0  0
   58.5900   34.3710   45.6450 C   0  0  0  0  0  0  0  0  0  0  0  0
   59.0610   33.5210   46.6430 C   0  0  0  0  0  0  0  0  0  0  0  0
   59.7560   34.0760   47.7730 N   0  0  0  0  0  0  0  0  0  0  0  0
   61.1380   33.8100   48.0700 C   0  0  0  0  0  0  0  0  0  0  0  0
   61.5990   33.9380   49.3900 C   0  0  0  0  0  0  0  0  0  0  0  0
   62.9410   33.7000   49.6990 C   0  0  0  0  0  0  0  0  0  0  0  0
   63.8390   33.3420   48.6900 C   0  0  0  0  0  0  0  0  0  0  0  0
   65.1420   33.1140   48.9890 F   0  0  0  0  0  0  0  0  0  0  0  0
   63.3960   33.2280   47.3690 C   0  0  0  0  0  0  0  0  0  0  0  0
   62.0540   33.4650   47.0570 C   0  0  0  0  0  0  0  0  0  0  0  0
   58.8780   32.1290   46.5030 C   0  0  0  0  0  0  0  0  0  0  0  0
   59.3550   31.2380   47.4800 C   0  0  0  0  0  0  0  0  0  0  0  0
   59.1410   29.8720   47.3530 C   0  0  0  0  0  0  0  0  0  0  0  0
   58.3480   29.3830   46.3230 C   0  0  0  0  0  0  0  0  0  0  0  0
   57.7730   30.2500   45.3750 C   0  0  0  0  0  0  0  0  0  0  0  0
   56.6080   29.7040   44.5610 C   0  0  0  0  0  0  0  0  0  0  0  0
   55.6430   30.6760   44.3790 F   0  0  0  0  0  0  0  0  0  0  0  0
   57.0450   29.2260   43.3400 F   0  0  0  0  0  0  0  0  0  0  0  0
   55.9930   28.6570   45.2270 F   0  0  0  0  0  0  0  0  0  0  0  0
   58.1810   31.6270   45.3620 C   0  0  0  0  0  0  0  0  0  0  0  0
   57.3647   31.0023   42.9234 H   0  0  0  0  0  0  0  0  0  0  0  0
   57.0483   32.6918   42.4016 H   0  0  0  0  0  0  0  0  0  0  0  0
   58.7264   32.0511   42.4016 H   0  0  0  0  0  0  0  0  0  0  0  0
   57.7022   34.5201   43.6894 H   0  0  0  0  0  0  0  0  0  0  0  0
   58.6484   35.4614   45.7778 H   0  0  0  0  0  0  0  0  0  0  0  0
   59.2040   34.6500   48.4520 H   0  0  0  0  0  0  0  0  0  0  0  0
   60.8985   34.2278   50.1871 H   0  0  0  0  0  0  0  0  0  0  0  0
   63.2908   33.7946   50.7376 H   0  0  0  0  0  0  0  0  0  0  0  0
   64.1042   32.9515   46.5740 H   0  0  0  0  0  0  0  0  0  0  0  0
   61.7116   33.3816   46.0150 H   0  0  0  0  0  0  0  0  0  0  0  0
   59.9020   31.6260   48.3519 H   0  0  0  0  0  0  0  0  0  0  0  0
   59.6006   29.1756   48.0698 H   0  0  0  0  0  0  0  0  0  0  0  0
   58.1664   28.3008   46.2469 H   0  0  0  0  0  0  0  0  0  0  0  0
  1  2  1  0
  2  3  2  0
  3  4  1  0
  4  5  2  0
  5  6  1  0
  6  7  1  0
  7  8  2  0
  8  9  1  0
  9 10  2  0
 10 11  1  0
 10 12  1  0
 12 13  2  0
  5 14  1  0
 14 15  2  0
 15 16  1  0
 16 17  2  0
 17 18  1  0
 18 19  1  0
 19 20  1  0
 19 21  1  0
 19 22  1  0
 18 23  2  0
 23  2  1  0
 13  7  1  0
 23 14  1  0
  1 24  1  0
  1 25  1  0
  1 26  1  0
  3 27  1  0
  4 28  1  0
  6 29  1  0
  8 30  1  0
  9 31  1  0
 12 32  1  0
 13 33  1  0
 15 34  1  0
 16 35  1  0
 17 36  1  0
M  CHG  1   2   1
M  END
>  <UniqueID>  (8) 
8

>  <SMILES>  (8) 
C[n+]1ccc(Nc2ccc(F)cc2)c2cccc(C(F)(F)F)c21

>  <Energy>  (8) 
71.26008493689874

>  <Genealogy>  (8) 
C[n+]1ccc(Nc2ccc(F)cc2)c2cccc(C(F)(F)F)c21 (3D coordinates assigned)
C[n+]1ccc(Nc2ccc(F)cc2)c2cccc(C(F)(F)F)c21 (optimized conformer: 71.26008493689874 kcal/mol)

>  <smiles>  (8) 
C[n+]1ccc(Nc2ccc(F)cc2)c2cccc(C(F)(F)F)c21

>  <score_type>  (8) 
oracle

>  <origin>  (8) 
adg

>  <m_score__min__energy>  (8) 
-5.46

>  <m_primary>  (8) 
energy

$$$$
8:0
     RDKit          3D

 44 46  0  0  0  0  0  0  0  0999 V2000
   55.9510   29.7180   43.4580 C   0  0  0  0  0  0  0  0  0  0  0  0
   56.2200   29.1990   44.7560 O   0  0  0  0  0  0  0  0  0  0  0  0
   57.3630   29.5040   45.5090 C   0  0  0  0  0  0  0  0  0  0  0  0
   57.7830   28.7180   46.5990 C   0  0  0  0  0  0  0  0  0  0  0  0
   58.9280   29.0670   47.3200 C   0  0  0  0  0  0  0  0  0  0  0  0
   59.6770   30.2040   46.9700 C   0  0  0  0  0  0  0  0  0  0  0  0
   60.8320   30.5980   47.7430 N   0  0  0  0  0  0  0  0  0  0  0  0
   60.9180   30.3610   49.1820 C   0  0  0  0  0  0  0  0  0  0  0  0
   60.9640   31.7090   49.9050 C   0  0  0  0  0  0  0  0  0  0  0  0
   61.8900   32.7000   49.2740 N   0  0  0  0  0  0  0  0  0  0  0  0
   61.2490   34.0150   48.9980 C   0  0  0  0  0  0  0  0  0  0  0  0
   60.1590   33.9880   47.9440 C   0  0  0  0  0  0  0  0  0  0  0  0
   58.8770   33.4890   48.2390 C   0  0  0  0  0  0  0  0  0  0  0  0
   57.8870   33.4560   47.2510 C   0  0  0  0  0  0  0  0  0  0  0  0
   58.1580   33.9420   45.9710 C   0  0  0  0  0  0  0  0  0  0  0  0
   59.4130   34.4800   45.6790 C   0  0  0  0  0  0  0  0  0  0  0  0
   60.4080   34.5140   46.6630 C   0  0  0  0  0  0  0  0  0  0  0  0
   62.7140   32.1780   48.1480 C   0  0  0  0  0  0  0  0  0  0  0  0
   61.9190   31.3490   47.1130 C   0  0  0  0  0  0  0  0  0  0  0  0
   59.2510   30.9860   45.8820 C   0  0  0  0  0  0  0  0  0  0  0  0
   58.1080   30.6350   45.1590 C   0  0  0  0  0  0  0  0  0  0  0  0
   55.4466   30.6912   43.5495 H   0  0  0  0  0  0  0  0  0  0  0  0
   56.8967   29.8452   42.9107 H   0  0  0  0  0  0  0  0  0  0  0  0
   55.3019   29.0186   42.9107 H   0  0  0  0  0  0  0  0  0  0  0  0
   57.2072   27.8252   46.8843 H   0  0  0  0  0  0  0  0  0  0  0  0
   59.2465   28.4457   48.1701 H   0  0  0  0  0  0  0  0  0  0  0  0
   60.0372   29.7929   49.5159 H   0  0  0  0  0  0  0  0  0  0  0  0
   61.8263   29.7844   49.4109 H   0  0  0  0  0  0  0  0  0  0  0  0
   59.9500   32.1353   49.9092 H   0  0  0  0  0  0  0  0  0  0  0  0
   61.3432   31.5162   50.9194 H   0  0  0  0  0  0  0  0  0  0  0  0
   62.5930   32.9230   50.0200 H   0  0  0  0  0  0  0  0  0  0  0  0
   60.8077   34.3830   49.9360 H   0  0  0  0  0  0  0  0  0  0  0  0
   62.0423   34.6669   48.6033 H   0  0  0  0  0  0  0  0  0  0  0  0
   58.6519   33.1230   49.2516 H   0  0  0  0  0  0  0  0  0  0  0  0
   56.8930   33.0462   47.4835 H   0  0  0  0  0  0  0  0  0  0  0  0
   57.3826   33.9012   45.1919 H   0  0  0  0  0  0  0  0  0  0  0  0
   59.6200   34.8776   44.6745 H   0  0  0  0  0  0  0  0  0  0  0  0
   61.3896   34.9542   46.4336 H   0  0  0  0  0  0  0  0  0  0  0  0
   63.1697   33.0337   47.6282 H   0  0  0  0  0  0  0  0  0  0  0  0
   63.4605   31.5012   48.5894 H   0  0  0  0  0  0  0  0  0  0  0  0
   61.4933   32.0302   46.3615 H   0  0  0  0  0  0  0  0  0  0  0  0
   62.6082   30.6297   46.6465 H   0  0  0  0  0  0  0  0  0  0  0  0
   59.8224   31.8818   45.5975 H   0  0  0  0  0  0  0  0  0  0  0  0
   57.7911   31.2539   44.3066 H   0  0  0  0  0  0  0  0  0  0  0  0
  1  2  1  0
  2  3  1  0
  3  4  2  0
  4  5  1  0
  5  6  2  0
  6  7  1  0
  7  8  1  0
  8  9  1  0
  9 10  1  0
 10 11  1  0
 11 12  1  0
 12 13  2  0
 13 14  1  0
 14 15  2  0
 15 16  1  0
 16 17  2  0
 10 18  1  0
 18 19  1  0
  6 20  1  0
 20 21  2  0
 21  3  1  0
 19  7  1  0
 17 12  1  0
  1 22  1  0
  1 23  1  0
  1 24  1  0
  4 25  1  0
  5 26  1  0
  8 27  1  0
  8 28  1  0
  9 29  1  0
  9 30  1  0
 10 31  1  0
 11 32  1  0
 11 33  1  0
 13 34  1  0
 14 35  1  0
 15 36  1  0
 16 37  1  0
 17 38  1  0
 18 39  1  0
 18 40  1  0
 19 41  1  0
 19 42  1  0
 20 43  1  0
 21 44  1  0
M  CHG  1  10   1
M  END
>  <UniqueID>  (9) 
9

>  <SMILES>  (9) 
COc1ccc(N2CC[NH+](Cc3ccccc3)CC2)cc1

>  <Energy>  (9) 
60.51871418725026

>  <Genealogy>  (9) 
COc1ccc(N2CC[NH+](Cc3ccccc3)CC2)cc1 (protonated)
COc1ccc(N2CC[NH+](Cc3ccccc3)CC2)cc1 (3D coordinates assigned)
COc1ccc(N2CC[NH+](Cc3ccccc3)CC2)cc1 (nonaromatic ring conformer: 60.51871418725026 kcal/mol)

>  <smiles>  (9) 
COc1ccc(N2CCN(Cc3ccccc3)CC2)cc1

>  <score_type>  (9) 
oracle

>  <origin>  (9) 
adg

>  <m_score__min__energy>  (9) 
-5.4699999999999998

>  <m_primary>  (9) 
energy

$$$$
9:0
     RDKit          3D

 31 32  0  0  0  0  0  0  0  0999 V2000
   58.5190   31.7390   47.4450 H   0  0  0  0  0  0  0  0  0  0  0  0
   59.1110   32.3160   48.0800 N   0  0  0  0  0  0  0  0  0  0  0  0
   60.3340   32.6470   47.8020 C   0  0  0  0  0  0  0  0  0  0  0  0
   61.6590   31.7000   48.2020 S   0  0  0  0  0  0  0  0  0  0  0  0
   62.7640   32.7690   47.5170 C   0  0  0  0  0  0  0  0  0  0  0  0
   63.8560   32.6392   47.4913 H   0  0  0  0  0  0  0  0  0  0  0  0
   62.0580   33.8450   46.9890 C   0  0  0  0  0  0  0  0  0  0  0  0
   62.5533   34.6836   46.4777 H   0  0  0  0  0  0  0  0  0  0  0  0
   60.7050   33.7820   47.1530 N   0  0  0  0  0  0  0  0  0  0  0  0
   59.7960   34.8070   46.6270 C   0  0  0  0  0  0  0  0  0  0  0  0
   59.1875   35.2100   47.4500 H   0  0  0  0  0  0  0  0  0  0  0  0
   60.3894   35.6123   46.1695 H   0  0  0  0  0  0  0  0  0  0  0  0
   58.8930   34.2140   45.5880 C   0  0  0  0  0  0  0  0  0  0  0  0
   58.0740   34.9570   44.9830 O   0  0  0  0  0  0  0  0  0  0  0  0
   58.9180   32.7990   45.3420 N   0  0  0  0  0  0  0  0  0  0  0  0
   59.4560   32.2000   46.0080 H   0  0  0  0  0  0  0  0  0  0  0  0
   58.1510   32.1530   44.3120 C   0  0  0  0  0  0  0  0  0  0  0  0
   58.1300   32.6670   43.0030 C   0  0  0  0  0  0  0  0  0  0  0  0
   58.6908   33.5835   42.7672 H   0  0  0  0  0  0  0  0  0  0  0  0
   57.4020   32.0220   42.0000 C   0  0  0  0  0  0  0  0  0  0  0  0
   57.3830   32.6750   40.3710 Cl  0  0  0  0  0  0  0  0  0  0  0  0
   56.7000   30.8510   42.2910 C   0  0  0  0  0  0  0  0  0  0  0  0
   56.1243   30.3458   41.5015 H   0  0  0  0  0  0  0  0  0  0  0  0
   56.7270   30.3200   43.5810 C   0  0  0  0  0  0  0  0  0  0  0  0
   56.1757   29.3943   43.8025 H   0  0  0  0  0  0  0  0  0  0  0  0
   57.4560   30.9620   44.6020 C   0  0  0  0  0  0  0  0  0  0  0  0
   57.5020   30.4560   45.9120 O   0  0  0  0  0  0  0  0  0  0  0  0
   58.4400   29.4880   46.3710 C   0  0  0  0  0  0  0  0  0  0  0  0
   58.4489   29.4788   47.4709 H   0  0  0  0  0  0  0  0  0  0  0  0
   58.1529   28.4937   45.9983 H   0  0  0  0  0  0  0  0  0  0  0  0
   59.4429   29.7437   45.9983 H   0  0  0  0  0  0  0  0  0  0  0  0
  1  2  1  0
  2  3  2  0
  3  4  1  0
  4  5  1  0
  5  6  1  0
  5  7  2  0
  7  8  1  0
  7  9  1  0
  9 10  1  0
 10 11  1  0
 10 12  1  0
 10 13  1  0
 13 14  2  0
 13 15  1  0
 15 16  1  0
 15 17  1  0
 17 18  2  0
 18 19  1  0
 18 20  1  0
 20 21  1  0
 20 22  2  0
 22 23  1  0
 22 24  1  0
 24 25  1  0
 24 26  2  0
 26 27  1  0
 27 28  1  0
 28 29  1  0
 28 30  1  0
 28 31  1  0
  9  3  1  0
 26 17  1  0
M  END
>  <UniqueID>  (10) 
10

>  <SMILES>  (10) 
[H]/N=c1/sccn1CC(=O)Nc1cc(Cl)ccc1OC

>  <Energy>  (10) 
63.89125417617936

>  <Genealogy>  (10) 
[H]/N=c1/sccn1CC(=O)Nc1cc(Cl)ccc1OC (cis-trans isomerization)
[H]/N=c1/sccn1CC(=O)Nc1cc(Cl)ccc1OC (3D coordinates assigned)
[H]/N=c1/sccn1CC(=O)Nc1cc(Cl)ccc1OC (optimized conformer: 63.89125417617936 kcal/mol)

>  <smiles>  (10) 
COc1ccc(Cl)cc1NC(=O)Cn1ccsc1=N

>  <score_type>  (10) 
oracle

>  <origin>  (10) 
adg

>  <m_score__min__energy>  (10) 
-6.2699999999999996

>  <m_primary>  (10) 
energy

$$$$
10:0
     RDKit          3D

 60 65  0  0  0  0  0  0  0  0999 V2000
   59.3270   34.2680   51.0200 C   0  0  0  0  0  0  0  0  0  0  0  0
   60.4670   33.5720   50.4290 N   0  0  0  0  0  0  0  0  0  0  0  0
   61.5270   33.0860   51.1000 C   0  0  0  0  0  0  0  0  0  0  0  0
   62.3510   32.4430   50.1990 C   0  0  0  0  0  0  0  0  0  0  0  0
   63.5940   31.7320   50.5590 C   0  0  0  0  0  0  0  0  0  0  0  0
   64.8480   32.2640   50.2170 C   0  0  0  0  0  0  0  0  0  0  0  0
   66.0190   31.5850   50.5680 C   0  0  0  0  0  0  0  0  0  0  0  0
   65.9470   30.3800   51.2720 C   0  0  0  0  0  0  0  0  0  0  0  0
   64.7030   29.8560   51.6350 C   0  0  0  0  0  0  0  0  0  0  0  0
   63.5290   30.5320   51.2860 C   0  0  0  0  0  0  0  0  0  0  0  0
   61.7970   32.5160   48.9620 N   0  0  0  0  0  0  0  0  0  0  0  0
   62.1960   31.7580   47.7660 C   0  0  0  0  0  0  0  0  0  0  0  0
   61.2050   30.6590   47.4880 C   0  0  0  0  0  0  0  0  0  0  0  0
   60.3800   30.1670   48.5130 C   0  0  0  0  0  0  0  0  0  0  0  0
   59.4900   29.1190   48.2620 C   0  0  0  0  0  0  0  0  0  0  0  0
   59.4060   28.5560   46.9800 C   0  0  0  0  0  0  0  0  0  0  0  0
   58.4720   27.4400   46.7170 C   0  0  0  0  0  0  0  0  0  0  0  0
   58.7970   26.1710   47.2290 C   0  0  0  0  0  0  0  0  0  0  0  0
   57.9980   25.0640   46.9420 C   0  0  0  0  0  0  0  0  0  0  0  0
   56.8670   25.2080   46.1390 C   0  0  0  0  0  0  0  0  0  0  0  0
   56.5220   26.4630   45.6320 C   0  0  0  0  0  0  0  0  0  0  0  0
   57.3050   27.5960   45.9210 C   0  0  0  0  0  0  0  0  0  0  0  0
   56.8500   28.9160   45.4150 C   0  0  0  0  0  0  0  0  0  0  0  0
   57.5510   30.0620   45.5110 N   0  0  0  0  0  0  0  0  0  0  0  0
   56.7670   30.9860   44.9800 N   0  0  0  0  0  0  0  0  0  0  0  0
   55.6310   30.4340   44.5860 N   0  0  0  0  0  0  0  0  0  0  0  0
   55.6490   29.1380   44.8500 N   0  0  0  0  0  0  0  0  0  0  0  0
   60.2380   29.0390   45.9570 C   0  0  0  0  0  0  0  0  0  0  0  0
   61.1280   30.0850   46.2090 C   0  0  0  0  0  0  0  0  0  0  0  0
   60.6380   33.2000   49.1400 C   0  0  0  0  0  0  0  0  0  0  0  0
   59.6480   33.4600   48.0740 C   0  0  0  0  0  0  0  0  0  0  0  0
   58.3920   32.8340   48.1090 C   0  0  0  0  0  0  0  0  0  0  0  0
   57.4550   33.0810   47.1010 C   0  0  0  0  0  0  0  0  0  0  0  0
   57.7640   33.9550   46.0550 C   0  0  0  0  0  0  0  0  0  0  0  0
   59.0110   34.5850   46.0180 C   0  0  0  0  0  0  0  0  0  0  0  0
   59.9500   34.3430   47.0250 C   0  0  0  0  0  0  0  0  0  0  0  0
   59.3990   34.2241   52.1168 H   0  0  0  0  0  0  0  0  0  0  0  0
   59.3297   35.3186   50.6942 H   0  0  0  0  0  0  0  0  0  0  0  0
   58.3937   33.7855   50.6942 H   0  0  0  0  0  0  0  0  0  0  0  0
   61.7060   33.1843   52.1809 H   0  0  0  0  0  0  0  0  0  0  0  0
   64.9092   33.2173   49.6716 H   0  0  0  0  0  0  0  0  0  0  0  0
   66.9988   32.0002   50.2894 H   0  0  0  0  0  0  0  0  0  0  0  0
   66.8692   29.8439   51.5405 H   0  0  0  0  0  0  0  0  0  0  0  0
   64.6471   28.9112   52.1956 H   0  0  0  0  0  0  0  0  0  0  0  0
   62.5519   30.1224   51.5819 H   0  0  0  0  0  0  0  0  0  0  0  0
   62.2355   32.4379   46.9022 H   0  0  0  0  0  0  0  0  0  0  0  0
   63.1859   31.3110   47.9399 H   0  0  0  0  0  0  0  0  0  0  0  0
   60.4347   30.6090   49.5188 H   0  0  0  0  0  0  0  0  0  0  0  0
   58.8534   28.7344   49.0724 H   0  0  0  0  0  0  0  0  0  0  0  0
   59.6890   26.0503   47.8613 H   0  0  0  0  0  0  0  0  0  0  0  0
   58.2604   24.0765   47.3495 H   0  0  0  0  0  0  0  0  0  0  0  0
   56.2453   24.3314   45.9044 H   0  0  0  0  0  0  0  0  0  0  0  0
   55.6280   26.5669   44.9996 H   0  0  0  0  0  0  0  0  0  0  0  0
   60.1884   28.5916   44.9533 H   0  0  0  0  0  0  0  0  0  0  0  0
   61.7724   30.4614   45.4009 H   0  0  0  0  0  0  0  0  0  0  0  0
   58.1443   32.1472   48.9318 H   0  0  0  0  0  0  0  0  0  0  0  0
   56.4729   32.5866   47.1313 H   0  0  0  0  0  0  0  0  0  0  0  0
   57.0265   34.1468   45.2617 H   0  0  0  0  0  0  0  0  0  0  0  0
   59.2542   35.2728   45.1947 H   0  0  0  0  0  0  0  0  0  0  0  0
   60.9280   34.8457   46.9954 H   0  0  0  0  0  0  0  0  0  0  0  0
  1  2  1  0
  2  3  1  0
  3  4  2  0
  4  5  1  0
  5  6  2  0
  6  7  1  0
  7  8  2  0
  8  9  1  0
  9 10  2  0
  4 11  1  0
 11 12  1  0
 12 13  1  0
 13 14  2  0
 14 15  1  0
 15 16  2  0
 16 17  1  0
 17 18  2  0
 18 19  1  0
 19 20  2  0
 20 21  1  0
 21 22  2  0
 22 23  1  0
 23 24  1  0
 24 25  2  0
 25 26  1  0
 26 27  1  0
 16 28  1  0
 28 29  2  0
 11 30  1  0
 30 31  1  0
 31 32  2  0
 32 33  1  0
 33 34  2  0
 34 35  1  0
 35 36  2  0
 30  2  2  0
 36 31  1  0
 10  5  1  0
 29 13  1  0
 22 17  1  0
 27 23  2  0
  1 37  1  0
  1 38  1  0
  1 39  1  0
  3 40  1  0
  6 41  1  0
  7 42  1  0
  8 43  1  0
  9 44  1  0
 10 45  1  0
 12 46  1  0
 12 47  1  0
 14 48  1  0
 15 49  1  0
 18 50  1  0
 19 51  1  0
 20 52  1  0
 21 53  1  0
 28 54  1  0
 29 55  1  0
 32 56  1  0
 33 57  1  0
 34 58  1  0
 35 59  1  0
 36 60  1  0
M  CHG  2   2   1  26  -1
M  END
>  <UniqueID>  (11) 
11

>  <SMILES>  (11) 
C[n+]1cc(-c2ccccc2)n(Cc2ccc(-c3ccccc3-c3nn[n-]n3)cc2)c1-c1ccccc1

>  <Energy>  (11) 
156.55507625273577

>  <Genealogy>  (11) 
C[n+]1cc(-c2ccccc2)n(Cc2ccc(-c3ccccc3-c3nn[n-]n3)cc2)c1-c1ccccc1 (protonated)
C[n+]1cc(-c2ccccc2)n(Cc2ccc(-c3ccccc3-c3nn[n-]n3)cc2)c1-c1ccccc1 (3D coordinates assigned)
C[n+]1cc(-c2ccccc2)n(Cc2ccc(-c3ccccc3-c3nn[n-]n3)cc2)c1-c1ccccc1 (optimized conformer: 156.55507625273577 kcal/mol)

>  <smiles>  (11) 
C[n+]1cc(-c2ccccc2)n(Cc2ccc(-c3ccccc3-c3nn[nH]n3)cc2)c1-c1ccccc1

>  <score_type>  (11) 
oracle

>  <origin>  (11) 
adg

>  <m_score__min__energy>  (11) 
-11.27

>  <m_primary>  (11) 
energy

$$$$
11:0
     RDKit          3D

 44 46  0  0  0  0  0  0  0  0999 V2000
   57.7690   31.5450   43.2270 C   0  0  0  0  0  0  0  0  0  0  0  0
   57.3860   31.6230   44.7040 C   0  0  0  0  0  0  0  0  0  0  0  0
   58.4600   32.2700   45.4970 N   0  0  0  0  0  0  0  0  0  0  0  0
   58.5470   33.6500   45.5450 C   0  0  0  0  0  0  0  0  0  0  0  0
   57.5330   34.5480   44.8720 C   0  0  0  0  0  0  0  0  0  0  0  0
   59.5670   34.2670   46.2820 C   0  0  0  0  0  0  0  0  0  0  0  0
   60.5200   33.4990   46.9370 C   0  0  0  0  0  0  0  0  0  0  0  0
   60.4500   32.1050   46.8810 C   0  0  0  0  0  0  0  0  0  0  0  0
   59.4000   31.4930   46.1550 C   0  0  0  0  0  0  0  0  0  0  0  0
   59.3190   30.0140   46.1340 C   0  0  0  0  0  0  0  0  0  0  0  0
   60.0410   29.2810   45.1830 C   0  0  0  0  0  0  0  0  0  0  0  0
   59.9800   27.8840   45.1760 C   0  0  0  0  0  0  0  0  0  0  0  0
   59.2150   27.2000   46.1370 C   0  0  0  0  0  0  0  0  0  0  0  0
   59.1090   25.6960   46.0990 C   0  0  0  0  0  0  0  0  0  0  0  0
   58.4890   25.2550   47.2530 F   0  0  0  0  0  0  0  0  0  0  0  0
   60.3640   25.1190   46.0120 F   0  0  0  0  0  0  0  0  0  0  0  0
   58.3680   25.2860   45.0040 F   0  0  0  0  0  0  0  0  0  0  0  0
   58.4830   27.9420   47.0810 C   0  0  0  0  0  0  0  0  0  0  0  0
   58.5450   29.3390   47.0870 C   0  0  0  0  0  0  0  0  0  0  0  0
   61.4760   31.3290   47.6850 C   0  0  0  0  0  0  0  0  0  0  0  0
   62.8850   31.9100   47.4820 C   0  0  0  0  0  0  0  0  0  0  0  0
   62.9540   33.4580   47.5280 C   0  0  0  0  0  0  0  0  0  0  0  0
   61.5990   34.1450   47.7660 C   0  0  0  0  0  0  0  0  0  0  0  0
   58.8433   31.3262   43.1379 H   0  0  0  0  0  0  0  0  0  0  0  0
   57.1905   30.7462   42.7399 H   0  0  0  0  0  0  0  0  0  0  0  0
   57.5489   32.5064   42.7399 H   0  0  0  0  0  0  0  0  0  0  0  0
   56.4607   32.2092   44.8055 H   0  0  0  0  0  0  0  0  0  0  0  0
   57.2374   30.6009   45.0825 H   0  0  0  0  0  0  0  0  0  0  0  0
   56.9417   35.0717   45.6376 H   0  0  0  0  0  0  0  0  0  0  0  0
   58.0554   35.2851   44.2445 H   0  0  0  0  0  0  0  0  0  0  0  0
   56.8645   33.9404   44.2445 H   0  0  0  0  0  0  0  0  0  0  0  0
   59.6126   35.3644   46.3417 H   0  0  0  0  0  0  0  0  0  0  0  0
   60.6581   29.8063   44.4392 H   0  0  0  0  0  0  0  0  0  0  0  0
   60.5341   27.3166   44.4137 H   0  0  0  0  0  0  0  0  0  0  0  0
   57.8573   27.4199   47.8198 H   0  0  0  0  0  0  0  0  0  0  0  0
   57.9845   29.9096   47.8421 H   0  0  0  0  0  0  0  0  0  0  0  0
   61.2140   31.3838   48.7519 H   0  0  0  0  0  0  0  0  0  0  0  0
   61.4739   30.2837   47.3423 H   0  0  0  0  0  0  0  0  0  0  0  0
   63.5377   31.5132   48.2735 H   0  0  0  0  0  0  0  0  0  0  0  0
   63.2041   31.6122   46.4723 H   0  0  0  0  0  0  0  0  0  0  0  0
   63.6351   33.7485   48.3415 H   0  0  0  0  0  0  0  0  0  0  0  0
   63.3047   33.7872   46.5387 H   0  0  0  0  0  0  0  0  0  0  0  0
   61.3345   34.0621   48.8305 H   0  0  0  0  0  0  0  0  0  0  0  0
   61.6831   35.2022   47.4741 H   0  0  0  0  0  0  0  0  0  0  0  0
  1  2  1  0
  2  3  1  0
  3  4  2  0
  4  5  1  0
  4  6  1  0
  6  7  2  0
  7  8  1  0
  8  9  2  0
  9 10  1  0
 10 11  2  0
 11 12  1  0
 12 13  2  0
 13 14  1  0
 14 15  1  0
 14 16  1  0
 14 17  1  0
 13 18  1  0
 18 19  2  0
  8 20  1  0
 20 21  1  0
 21 22  1  0
 22 23  1  0
  9  3  1  0
 19 10  1  0
 23  7  1  0
  1 24  1  0
  1 25  1  0
  1 26  1  0
  2 27  1  0
  2 28  1  0
  5 29  1  0
  5 30  1  0
  5 31  1  0
  6 32  1  0
 11 33  1  0
 12 34  1  0
 18 35  1  0
 19 36  1  0
 20 37  1  0
 20 38  1  0
 21 39  1  0
 21 40  1  0
 22 41  1  0
 22 42  1  0
 23 43  1  0
 23 44  1  0
M  CHG  1   3   1
M  END
>  <UniqueID>  (12) 
12

>  <SMILES>  (12) 
CC[n+]1c(C)cc2c(c1-c1ccc(C(F)(F)F)cc1)CCCC2

>  <Energy>  (12) 
62.37792370750868

>  <Genealogy>  (12) 
CC[n+]1c(C)cc2c(c1-c1ccc(C(F)(F)F)cc1)CCCC2 (3D coordinates assigned)
CC[n+]1c(C)cc2c(c1-c1ccc(C(F)(F)F)cc1)CCCC2 (nonaromatic ring conformer: 62.37792370750868 kcal/mol)

>  <smiles>  (12) 
CC[n+]1c(C)cc2c(c1-c1ccc(C(F)(F)F)cc1)CCCC2

>  <score_type>  (12) 
oracle

>  <origin>  (12) 
adg

>  <m_score__min__energy>  (12) 
-5.6600000000000001

>  <m_primary>  (12) 
energy

$$$$
12:0
     RDKit          3D

 26 27  0  0  0  0  0  0  0  0999 V2000
   62.8400   33.8430   46.7610 C   0  0  0  0  0  0  0  0  0  0  0  0
   61.5810   33.1270   47.2240 C   0  0  0  0  0  0  0  0  0  0  0  0
   60.5700   34.0850   47.5140 O   0  0  0  0  0  0  0  0  0  0  0  0
   59.4490   34.2700   46.7000 C   0  0  0  0  0  0  0  0  0  0  0  0
   59.2780   35.3510   46.0720 O   0  0  0  0  0  0  0  0  0  0  0  0
   58.4730   33.1510   46.5340 C   0  0  0  0  0  0  0  0  0  0  0  0
   58.2400   32.9090   45.1140 N   0  0  0  0  0  0  0  0  0  0  0  0
   58.8140   33.5670   44.1110 N   0  0  0  0  0  0  0  0  0  0  0  0
   58.4840   33.0540   42.9250 N   0  0  0  0  0  0  0  0  0  0  0  0
   57.6690   32.0180   43.2050 C   0  0  0  0  0  0  0  0  0  0  0  0
   57.0600   31.1080   42.3510 C   0  0  0  0  0  0  0  0  0  0  0  0
   56.2910   30.0910   42.9500 C   0  0  0  0  0  0  0  0  0  0  0  0
   56.1740   30.0280   44.3640 C   0  0  0  0  0  0  0  0  0  0  0  0
   55.4910   29.1150   44.8960 O   0  0  0  0  0  0  0  0  0  0  0  0
   56.8020   30.9540   45.1540 N   0  0  0  0  0  0  0  0  0  0  0  0
   57.5250   31.9270   44.5490 C   0  0  0  0  0  0  0  0  0  0  0  0
   63.4181   34.1718   47.6372 H   0  0  0  0  0  0  0  0  0  0  0  0
   63.4503   33.1569   46.1554 H   0  0  0  0  0  0  0  0  0  0  0  0
   62.5623   34.7183   46.1554 H   0  0  0  0  0  0  0  0  0  0  0  0
   61.2297   32.4523   46.4294 H   0  0  0  0  0  0  0  0  0  0  0  0
   61.8032   32.5430   48.1293 H   0  0  0  0  0  0  0  0  0  0  0  0
   58.8785   32.2401   46.9986 H   0  0  0  0  0  0  0  0  0  0  0  0
   57.5230   33.4210   47.0185 H   0  0  0  0  0  0  0  0  0  0  0  0
   59.4610   34.3790   44.2320 H   0  0  0  0  0  0  0  0  0  0  0  0
   57.1727   31.1779   41.2590 H   0  0  0  0  0  0  0  0  0  0  0  0
   55.7810   29.3454   42.3223 H   0  0  0  0  0  0  0  0  0  0  0  0
  1  2  1  0
  2  3  1  0
  3  4  1  0
  4  5  2  0
  4  6  1  0
  6  7  1  0
  7  8  1  0
  8  9  2  0
  9 10  1  0
 10 11  1  0
 11 12  2  0
 12 13  1  0
 13 14  2  0
 13 15  1  0
 15 16  1  0
 16  7  1  0
 16 10  2  0
  1 17  1  0
  1 18  1  0
  1 19  1  0
  2 20  1  0
  2 21  1  0
  6 22  1  0
  6 23  1  0
  8 24  1  0
 11 25  1  0
 12 26  1  0
M  CHG  2   8   1  15  -1
M  END
>  <UniqueID>  (13) 
13

>  <SMILES>  (13) 
CCOC(=O)Cn1[nH+]nc2ccc(=O)[n-]c21

>  <Energy>  (13) 
66.14744264527609

>  <Genealogy>  (13) 
CCOC(=O)Cn1[nH+]nc2ccc(=O)[n-]c21 (protonated)
CCOC(=O)Cn1[nH+]nc2ccc(=O)[n-]c21 (3D coordinates assigned)
CCOC(=O)Cn1[nH+]nc2ccc(=O)[n-]c21 (optimized conformer: 66.14744264527609 kcal/mol)

>  <smiles>  (13) 
CCOC(=O)Cn1nnc2ccc(=O)[nH]c21

>  <score_type>  (13) 
oracle

>  <origin>  (13) 
adg

>  <m_score__min__energy>  (13) 
-6.3300000000000001

>  <m_primary>  (13) 
energy

$$$$
13:0
     RDKit          3D

 52 55  0  0  0  0  0  0  0  0999 V2000
   64.8930   32.7330   49.3740 C   0  0  0  0  0  0  0  0  0  0  0  0
   63.3700   32.8470   49.2140 C   0  0  0  0  0  0  0  0  0  0  0  0
   62.9700   32.9280   47.7190 C   0  0  0  0  0  0  0  0  0  0  0  0
   62.4890   31.5830   47.1640 C   0  0  0  0  0  0  0  0  0  0  0  0
   61.3680   31.0640   47.9660 N   0  0  0  0  0  0  0  0  0  0  0  0
   60.3650   30.2220   47.3580 C   0  0  0  0  0  0  0  0  0  0  0  0
   59.4870   30.7470   46.3990 C   0  0  0  0  0  0  0  0  0  0  0  0
   58.4840   29.9460   45.8430 C   0  0  0  0  0  0  0  0  0  0  0  0
   57.5980   30.5420   44.8260 C   0  0  0  0  0  0  0  0  0  0  0  0
   57.5730   30.0270   43.6780 O   0  0  0  0  0  0  0  0  0  0  0  0
   56.7910   31.7040   45.0760 N   0  0  0  0  0  0  0  0  0  0  0  0
   57.1910   33.1060   45.2530 C   0  0  2  0  0  0  0  0  0  0  0  0
   58.3980   33.5050   44.3650 C   0  0  0  0  0  0  0  0  0  0  0  0
   59.6120   33.8990   45.2110 C   0  0  0  0  0  0  0  0  0  0  0  0
   59.0180   34.1920   46.8410 S   0  0  0  0  0  0  0  0  0  0  0  0
   58.9220   35.6650   47.1260 O   0  0  0  0  0  0  0  0  0  0  0  0
   59.8720   33.5090   47.8730 O   0  0  0  0  0  0  0  0  0  0  0  0
   57.4190   33.4600   46.7310 C   0  0  0  0  0  0  0  0  0  0  0  0
   58.4310   28.5760   46.1790 C   0  0  0  0  0  0  0  0  0  0  0  0
   57.5180   27.6870   45.5760 C   0  0  0  0  0  0  0  0  0  0  0  0
   57.4800   26.3450   45.9600 C   0  0  0  0  0  0  0  0  0  0  0  0
   58.3540   25.8680   46.9370 C   0  0  0  0  0  0  0  0  0  0  0  0
   59.2800   26.7280   47.5300 C   0  0  0  0  0  0  0  0  0  0  0  0
   59.3350   28.0800   47.1520 C   0  0  0  0  0  0  0  0  0  0  0  0
   60.2580   28.9100   47.7180 N   0  0  0  0  0  0  0  0  0  0  0  0
   61.2760   31.4000   49.3950 C   0  0  0  0  0  0  0  0  0  0  0  0
   62.6650   31.6930   49.9690 C   0  0  0  0  0  0  0  0  0  0  0  0
   65.1489   32.7138   50.4437 H   0  0  0  0  0  0  0  0  0  0  0  0
   65.2435   31.8061   48.8965 H   0  0  0  0  0  0  0  0  0  0  0  0
   65.3776   33.5974   48.8965 H   0  0  0  0  0  0  0  0  0  0  0  0
   63.0286   33.7874   49.6713 H   0  0  0  0  0  0  0  0  0  0  0  0
   62.1597   33.6640   47.6105 H   0  0  0  0  0  0  0  0  0  0  0  0
   63.8644   33.2225   47.1503 H   0  0  0  0  0  0  0  0  0  0  0  0
   62.1575   31.7185   46.1239 H   0  0  0  0  0  0  0  0  0  0  0  0
   63.3198   30.8633   47.2071 H   0  0  0  0  0  0  0  0  0  0  0  0
   59.5876   31.7955   46.0819 H   0  0  0  0  0  0  0  0  0  0  0  0
   56.3417   33.7120   44.9045 H   0  0  0  0  0  0  0  0  0  0  0  0
   58.6694   32.6515   43.7264 H   0  0  0  0  0  0  0  0  0  0  0  0
   58.1059   34.3731   43.7558 H   0  0  0  0  0  0  0  0  0  0  0  0
   60.3504   33.0837   45.2174 H   0  0  0  0  0  0  0  0  0  0  0  0
   60.1055   34.7933   44.8028 H   0  0  0  0  0  0  0  0  0  0  0  0
   57.3758   32.5509   47.3488 H   0  0  0  0  0  0  0  0  0  0  0  0
   56.6439   34.1506   47.0946 H   0  0  0  0  0  0  0  0  0  0  0  0
   56.8314   28.0527   44.7983 H   0  0  0  0  0  0  0  0  0  0  0  0
   56.7578   25.6611   45.4901 H   0  0  0  0  0  0  0  0  0  0  0  0
   58.3134   24.8116   47.2409 H   0  0  0  0  0  0  0  0  0  0  0  0
   59.9697   26.3454   48.2967 H   0  0  0  0  0  0  0  0  0  0  0  0
   60.8990   28.5300   48.4500 H   0  0  0  0  0  0  0  0  0  0  0  0
   60.6392   32.2886   49.5174 H   0  0  0  0  0  0  0  0  0  0  0  0
   60.8423   30.5446   49.9337 H   0  0  0  0  0  0  0  0  0  0  0  0
   62.5606   31.9722   51.0279 H   0  0  0  0  0  0  0  0  0  0  0  0
   63.2785   30.7869   49.8565 H   0  0  0  0  0  0  0  0  0  0  0  0
  1  2  1  0
  2  3  1  0
  3  4  1  0
  4  5  1  0
  5  6  1  0
  6  7  2  0
  7  8  1  0
  8  9  1  0
  9 10  2  0
  9 11  1  0
 11 12  1  0
 12 13  1  0
 13 14  1  0
 14 15  1  0
 15 16  2  0
 15 17  2  0
 15 18  1  0
  8 19  2  0
 19 20  1  0
 20 21  2  0
 21 22  1  0
 22 23  2  0
 23 24  1  0
 24 25  2  0
  5 26  1  0
 26 27  1  0
 27  2  1  0
 25  6  1  0
 18 12  1  0
 24 19  1  0
  1 28  1  0
  1 29  1  0
  1 30  1  0
  2 31  1  0
  3 32  1  0
  3 33  1  0
  4 34  1  0
  4 35  1  0
  7 36  1  0
 12 37  1  6
 13 38  1  0
 13 39  1  0
 14 40  1  0
 14 41  1  0
 18 42  1  0
 18 43  1  0
 20 44  1  0
 21 45  1  0
 22 46  1  0
 23 47  1  0
 25 48  1  0
 26 49  1  0
 26 50  1  0
 27 51  1  0
 27 52  1  0
M  CHG  2  11  -1  25   1
M  END
>  <UniqueID>  (14) 
14

>  <SMILES>  (14) 
CC1CCN(c2cc(C(=O)[N-][C@@H]3CCS(=O)(=O)C3)c3ccccc3[nH+]2)CC1

>  <Energy>  (14) 
68.48727053566957

>  <Genealogy>  (14) 
CC1CCN(c2cc(C(=O)[N-]C3CCS(=O)(=O)C3)c3ccccc3[nH+]2)CC1 (protonated)
CC1CCN(c2cc(C(=O)[N-][C@@H]3CCS(=O)(=O)C3)c3ccccc3[nH+]2)CC1 (chirality)
CC1CCN(c2cc(C(=O)[N-][C@@H]3CCS(=O)(=O)C3)c3ccccc3[nH+]2)CC1 (3D coordinates assigned)
CC1CCN(c2cc(C(=O)[N-][C@@H]3CCS(=O)(=O)C3)c3ccccc3[nH+]2)CC1 (nonaromatic ring conformer: 68.48727053566957 kcal/mol)

>  <smiles>  (14) 
CC1CCN(c2cc(C(=O)NC3CCS(=O)(=O)C3)c3ccccc3n2)CC1

>  <score_type>  (14) 
oracle

>  <origin>  (14) 
adg

>  <m_score__min__energy>  (14) 
-9.0899999999999999

>  <m_primary>  (14) 
energy

$$$$
14:0
     RDKit          3D

 43 45  0  0  0  0  0  0  0  0999 V2000
   64.3520   32.7880   48.9850 C   0  0  0  0  0  0  0  0  0  0  0  0
   63.0240   33.2990   48.5520 C   0  0  0  0  0  0  0  0  0  0  0  0
   62.8140   33.3560   47.1740 C   0  0  0  0  0  0  0  0  0  0  0  0
   61.5880   33.8260   46.7510 C   0  0  0  0  0  0  0  0  0  0  0  0
   60.6040   34.2260   47.6570 C   0  0  0  0  0  0  0  0  0  0  0  0
   59.3340   34.7110   47.0650 C   0  0  0  0  0  0  0  0  0  0  0  0
   59.2680   34.4580   45.6330 N   0  0  0  0  0  0  0  0  0  0  0  0
   58.6450   33.2750   45.1470 C   0  0  0  0  0  0  0  0  0  0  0  0
   58.3790   32.2610   46.0420 C   0  0  0  0  0  0  0  0  0  0  0  0
   57.7750   31.1010   45.6060 C   0  0  0  0  0  0  0  0  0  0  0  0
   57.4530   30.9890   44.2820 C   0  0  0  0  0  0  0  0  0  0  0  0
   56.6840   29.5070   43.7380 S   0  0  0  0  0  0  0  0  0  0  0  0
   56.2240   29.7520   42.3100 O   0  0  0  0  0  0  0  0  0  0  0  0
   55.4890   29.2660   44.5920 O   0  0  0  0  0  0  0  0  0  0  0  0
   57.8110   28.2240   43.7770 N   0  0  0  0  0  0  0  0  0  0  0  0
   57.9060   27.5020   44.8430 C   0  0  0  0  0  0  0  0  0  0  0  0
   59.1750   27.2600   45.2740 N   0  0  0  0  0  0  0  0  0  0  0  0
   59.4270   26.5220   46.3710 C   0  0  0  0  0  0  0  0  0  0  0  0
   58.3480   25.9990   47.0760 C   0  0  0  0  0  0  0  0  0  0  0  0
   57.0780   26.2630   46.6120 C   0  0  0  0  0  0  0  0  0  0  0  0
   56.8490   27.0060   45.5050 N   0  0  0  0  0  0  0  0  0  0  0  0
   57.7190   32.0130   43.3670 C   0  0  0  0  0  0  0  0  0  0  0  0
   58.3310   33.1930   43.8030 C   0  0  0  0  0  0  0  0  0  0  0  0
   60.8240   34.1650   49.0150 C   0  0  0  0  0  0  0  0  0  0  0  0
   62.0630   33.6900   49.4580 C   0  0  0  0  0  0  0  0  0  0  0  0
   64.3976   32.7705   50.0839 H   0  0  0  0  0  0  0  0  0  0  0  0
   64.4977   31.7696   48.5957 H   0  0  0  0  0  0  0  0  0  0  0  0
   65.1428   33.4460   48.5957 H   0  0  0  0  0  0  0  0  0  0  0  0
   63.5887   33.0413   46.4593 H   0  0  0  0  0  0  0  0  0  0  0  0
   61.3804   33.8872   45.6725 H   0  0  0  0  0  0  0  0  0  0  0  0
   58.4944   34.1968   47.5555 H   0  0  0  0  0  0  0  0  0  0  0  0
   59.2802   35.7986   47.2206 H   0  0  0  0  0  0  0  0  0  0  0  0
   59.6910   35.1700   45.0000 H   0  0  0  0  0  0  0  0  0  0  0  0
   58.6482   32.3772   47.1022 H   0  0  0  0  0  0  0  0  0  0  0  0
   57.5568   30.2830   46.3083 H   0  0  0  0  0  0  0  0  0  0  0  0
   60.4598   26.3372   46.7015 H   0  0  0  0  0  0  0  0  0  0  0  0
   58.5045   25.3912   47.9794 H   0  0  0  0  0  0  0  0  0  0  0  0
   56.2178   25.8542   47.1624 H   0  0  0  0  0  0  0  0  0  0  0  0
   55.8860   27.2030   45.1600 H   0  0  0  0  0  0  0  0  0  0  0  0
   57.4478   31.8908   42.3080 H   0  0  0  0  0  0  0  0  0  0  0  0
   58.5521   34.0172   43.1089 H   0  0  0  0  0  0  0  0  0  0  0  0
   60.0493   34.4801   49.7295 H   0  0  0  0  0  0  0  0  0  0  0  0
   62.2710   33.6284   50.5364 H   0  0  0  0  0  0  0  0  0  0  0  0
  1  2  1  0
  2  3  2  0
  3  4  1  0
  4  5  2  0
  5  6  1  0
  6  7  1  0
  7  8  1  0
  8  9  2  0
  9 10  1  0
 10 11  2  0
 11 12  1  0
 12 13  2  0
 12 14  2  0
 12 15  1  0
 15 16  2  3
 16 17  1  0
 17 18  2  0
 18 19  1  0
 19 20  2  0
 20 21  1  0
 11 22  1  0
 22 23  2  0
  5 24  1  0
 24 25  2  0
 25  2  1  0
 23  8  1  0
 21 16  1  0
  1 26  1  0
  1 27  1  0
  1 28  1  0
  3 29  1  0
  4 30  1  0
  6 31  1  0
  6 32  1  0
  7 33  1  0
  9 34  1  0
 10 35  1  0
 18 36  1  0
 19 37  1  0
 20 38  1  0
 21 39  1  0
 22 40  1  0
 23 41  1  0
 24 42  1  0
 25 43  1  0
M  END
>  <smiles>  (15) 
Cc1ccc(CNc2ccc(S(=O)(=O)N=c3nccc[nH]3)cc2)cc1

>  <score_type>  (15) 
oracle

>  <origin>  (15) 
adg

>  <m_score__min__energy>  (15) 
-8.7100000000000009

>  <m_primary>  (15) 
energy

$$$$
15:0
     RDKit          3D

 43 45  0  0  0  0  0  0  0  0999 V2000
   56.5990   30.7160   43.5760 C   0  0  0  0  0  0  0  0  0  0  0  0
   56.5850   31.3990   44.8250 O   0  0  0  0  0  0  0  0  0  0  0  0
   57.6780   32.0980   45.3640 C   0  0  0  0  0  0  0  0  0  0  0  0
   57.8410   33.4840   45.1700 C   0  0  0  0  0  0  0  0  0  0  0  0
   58.9380   34.1500   45.7200 C   0  0  0  0  0  0  0  0  0  0  0  0
   59.8840   33.4450   46.4620 C   0  0  0  0  0  0  0  0  0  0  0  0
   59.7360   32.0710   46.6610 C   0  0  0  0  0  0  0  0  0  0  0  0
   58.6270   31.3890   46.1290 C   0  0  0  0  0  0  0  0  0  0  0  0
   58.4840   29.9680   46.3080 N   0  0  0  0  0  0  0  0  0  0  0  0
   58.6540   29.0140   45.2470 C   0  0  0  0  0  0  0  0  0  0  0  0
   59.2250   29.3520   44.1750 O   0  0  0  0  0  0  0  0  0  0  0  0
   58.2030   27.6200   45.4040 C   0  0  0  0  0  0  0  0  0  0  0  0
   58.2090   26.6340   44.4320 C   0  0  0  0  0  0  0  0  0  0  0  0
   57.6990   25.5240   45.0730 C   0  0  0  0  0  0  0  0  0  0  0  0
   57.5250   24.1910   44.4600 C   0  0  0  0  0  0  0  0  0  0  0  0
   56.4080   23.9770   43.6380 C   0  0  0  0  0  0  0  0  0  0  0  0
   56.2090   22.7420   43.0180 C   0  0  0  0  0  0  0  0  0  0  0  0
   55.1320   22.5500   42.2180 F   0  0  0  0  0  0  0  0  0  0  0  0
   57.1230   21.7060   43.2170 C   0  0  0  0  0  0  0  0  0  0  0  0
   58.2290   21.8980   44.0470 C   0  0  0  0  0  0  0  0  0  0  0  0
   58.4340   23.1290   44.6930 C   0  0  0  0  0  0  0  0  0  0  0  0
   59.6300   23.2760   45.5960 C   0  0  0  0  0  0  0  0  0  0  0  0
   57.4400   25.8440   46.3590 N   0  0  0  0  0  0  0  0  0  0  0  0
   56.9210   24.9700   47.4070 C   0  0  0  0  0  0  0  0  0  0  0  0
   57.7350   27.1180   46.5640 N   0  0  0  0  0  0  0  0  0  0  0  0
   56.6213   29.6304   43.7520 H   0  0  0  0  0  0  0  0  0  0  0  0
   55.6953   30.9765   43.0055 H   0  0  0  0  0  0  0  0  0  0  0  0
   57.4912   31.0133   43.0055 H   0  0  0  0  0  0  0  0  0  0  0  0
   57.0996   34.0447   44.5818 H   0  0  0  0  0  0  0  0  0  0  0  0
   59.0558   35.2330   45.5674 H   0  0  0  0  0  0  0  0  0  0  0  0
   60.7487   33.9720   46.8916 H   0  0  0  0  0  0  0  0  0  0  0  0
   60.4920   31.5181   47.2378 H   0  0  0  0  0  0  0  0  0  0  0  0
   58.3370   29.6080   47.2780 H   0  0  0  0  0  0  0  0  0  0  0  0
   58.5439   26.7168   43.3875 H   0  0  0  0  0  0  0  0  0  0  0  0
   55.6830   24.7892   43.4808 H   0  0  0  0  0  0  0  0  0  0  0  0
   56.9716   20.7369   42.7191 H   0  0  0  0  0  0  0  0  0  0  0  0
   58.9467   21.0780   44.1967 H   0  0  0  0  0  0  0  0  0  0  0  0
   59.3039   23.2359   46.6458 H   0  0  0  0  0  0  0  0  0  0  0  0
   60.3394   22.4583   45.4009 H   0  0  0  0  0  0  0  0  0  0  0  0
   60.1203   24.2412   45.4009 H   0  0  0  0  0  0  0  0  0  0  0  0
   57.1708   25.3906   48.3923 H   0  0  0  0  0  0  0  0  0  0  0  0
   55.8284   24.8890   47.3092 H   0  0  0  0  0  0  0  0  0  0  0  0
   57.3729   23.9719   47.3092 H   0  0  0  0  0  0  0  0  0  0  0  0
  1  2  1  0
  2  3  1  0
  3  4  2  0
  4  5  1  0
  5  6  2  0
  6  7  1  0
  7  8  2  0
  8  9  1  0
  9 10  1  0
 10 11  2  0
 10 12  1  0
 12 13  1  0
 13 14  2  0
 14 15  1  0
 15 16  2  0
 16 17  1  0
 17 18  1  0
 17 19  2  0
 19 20  1  0
 20 21  2  0
 21 22  1  0
 14 23  1  0
 23 24  1  0
 23 25  1  0
  8  3  1  0
 25 12  2  0
 21 15  1  0
  1 26  1  0
  1 27  1  0
  1 28  1  0
  4 29  1  0
  5 30  1  0
  6 31  1  0
  7 32  1  0
  9 33  1  0
 13 34  1  0
 16 35  1  0
 19 36  1  0
 20 37  1  0
 22 38  1  0
 22 39  1  0
 22 40  1  0
 24 41  1  0
 24 42  1  0
 24 43  1  0
M  END
>  <UniqueID>  (16) 
15

>  <SMILES>  (16) 
COc1ccccc1NC(=O)c1cc(-c2cc(F)ccc2C)n(C)n1

>  <Energy>  (16) 
84.9320538157286

>  <Genealogy>  (16) 
COc1ccccc1NC(=O)c1cc(-c2cc(F)ccc2C)n(C)n1 (3D coordinates assigned)
COc1ccccc1NC(=O)c1cc(-c2cc(F)ccc2C)n(C)n1 (optimized conformer: 84.9320538157286 kcal/mol)

>  <smiles>  (16) 
COc1ccccc1NC(=O)c1cc(-c2cc(F)ccc2C)n(C)n1

>  <score_type>  (16) 
oracle

>  <origin>  (16) 
adg

>  <m_score__min__energy>  (16) 
-7.2800000000000002

>  <m_primary>  (16) 
energy

$$$$
16:0
     RDKit          3D

 49 50  0  0  0  0  0  0  0  0999 V2000
   62.9120   34.0790   48.8270 C   0  0  0  0  0  0  0  0  0  0  0  0
   63.7530   33.3450   47.7730 C   0  0  0  0  0  0  0  0  0  0  0  0
   63.3800   33.8660   46.3770 C   0  0  0  0  0  0  0  0  0  0  0  0
   63.5490   31.8130   47.8870 C   0  0  0  0  0  0  0  0  0  0  0  0
   62.1510   31.4020   48.3760 C   0  0  0  0  0  0  0  0  0  0  0  0
   61.2810   31.0980   47.2840 O   0  0  0  0  0  0  0  0  0  0  0  0
   60.2430   31.9020   46.7790 C   0  0  0  0  0  0  0  0  0  0  0  0
   60.2240   33.3020   46.9090 C   0  0  0  0  0  0  0  0  0  0  0  0
   59.1610   34.0380   46.3780 C   0  0  0  0  0  0  0  0  0  0  0  0
   59.1620   35.2930   46.5020 O   0  0  0  0  0  0  0  0  0  0  0  0
   58.1310   33.4040   45.7330 N   0  0  0  0  0  0  0  0  0  0  0  0
   57.0240   34.1870   45.1710 C   0  0  0  0  0  0  0  0  0  0  0  0
   58.1340   32.0440   45.5970 C   0  0  0  0  0  0  0  0  0  0  0  0
   59.1770   31.2710   46.1210 C   0  0  0  0  0  0  0  0  0  0  0  0
   59.1570   29.8420   45.9680 N   0  0  0  0  0  0  0  0  0  0  0  0
   59.3630   29.2590   44.6310 C   0  0  0  0  0  0  0  0  0  0  0  0
   58.2530   28.2630   44.2350 C   0  0  0  0  0  0  0  0  0  0  0  0
   58.0150   27.1160   45.2300 C   0  0  0  0  0  0  0  0  0  0  0  0
   59.2580   26.7220   46.0440 C   0  0  0  0  0  0  0  0  0  0  0  0
   59.6400   27.6860   47.1840 C   0  0  0  0  0  0  0  0  0  0  0  0
   58.8750   29.0200   47.1600 C   0  0  0  0  0  0  0  0  0  0  0  0
   63.2476   33.7861   49.8328 H   0  0  0  0  0  0  0  0  0  0  0  0
   63.0335   35.1651   48.7017 H   0  0  0  0  0  0  0  0  0  0  0  0
   61.8523   33.8117   48.7017 H   0  0  0  0  0  0  0  0  0  0  0  0
   64.8212   33.5434   47.9453 H   0  0  0  0  0  0  0  0  0  0  0  0
   62.7423   34.7568   46.4764 H   0  0  0  0  0  0  0  0  0  0  0  0
   64.2956   34.1300   45.8274 H   0  0  0  0  0  0  0  0  0  0  0  0
   62.8350   33.0843   45.8274 H   0  0  0  0  0  0  0  0  0  0  0  0
   63.7129   31.3677   46.8946 H   0  0  0  0  0  0  0  0  0  0  0  0
   64.2672   31.4518   48.6379 H   0  0  0  0  0  0  0  0  0  0  0  0
   62.2439   30.5128   49.0168 H   0  0  0  0  0  0  0  0  0  0  0  0
   61.7200   32.2455   48.9353 H   0  0  0  0  0  0  0  0  0  0  0  0
   61.0452   33.8177   47.4283 H   0  0  0  0  0  0  0  0  0  0  0  0
   56.4233   34.6119   45.9887 H   0  0  0  0  0  0  0  0  0  0  0  0
   57.4282   35.0012   44.5516 H   0  0  0  0  0  0  0  0  0  0  0  0
   56.3909   33.5347   44.5516 H   0  0  0  0  0  0  0  0  0  0  0  0
   57.3054   31.5500   45.0685 H   0  0  0  0  0  0  0  0  0  0  0  0
   59.3842   30.0735   43.8920 H   0  0  0  0  0  0  0  0  0  0  0  0
   60.3125   28.7042   44.6546 H   0  0  0  0  0  0  0  0  0  0  0  0
   57.3128   28.8248   44.1326 H   0  0  0  0  0  0  0  0  0  0  0  0
   58.5876   27.7903   43.2998 H   0  0  0  0  0  0  0  0  0  0  0  0
   57.2266   27.4257   45.9318 H   0  0  0  0  0  0  0  0  0  0  0  0
   57.7330   26.2344   44.6356 H   0  0  0  0  0  0  0  0  0  0  0  0
   59.0734   25.7316   46.4857 H   0  0  0  0  0  0  0  0  0  0  0  0
   60.1002   26.7433   45.3368 H   0  0  0  0  0  0  0  0  0  0  0  0
   59.4342   27.1868   48.1423 H   0  0  0  0  0  0  0  0  0  0  0  0
   60.7048   27.9281   47.0517 H   0  0  0  0  0  0  0  0  0  0  0  0
   57.7969   28.8030   47.1855 H   0  0  0  0  0  0  0  0  0  0  0  0
   59.2067   29.5975   48.0355 H   0  0  0  0  0  0  0  0  0  0  0  0
  1  2  1  0
  2  3  1  0
  2  4  1  0
  4  5  1  0
  5  6  1  0
  6  7  1  0
  7  8  2  0
  8  9  1  0
  9 10  2  0
  9 11  1  0
 11 12  1  0
 11 13  1  0
 13 14  2  0
 14 15  1  0
 15 16  1  0
 16 17  1  0
 17 18  1  0
 18 19  1  0
 19 20  1  0
 20 21  1  0
 14  7  1  0
 21 15  1  0
  1 22  1  0
  1 23  1  0
  1 24  1  0
  2 25  1  0
  3 26  1  0
  3 27  1  0
  3 28  1  0
  4 29  1  0
  4 30  1  0
  5 31  1  0
  5 32  1  0
  8 33  1  0
 12 34  1  0
 12 35  1  0
 12 36  1  0
 13 37  1  0
 16 38  1  0
 16 39  1  0
 17 40  1  0
 17 41  1  0
 18 42  1  0
 18 43  1  0
 19 44  1  0
 19 45  1  0
 20 46  1  0
 20 47  1  0
 21 48  1  0
 21 49  1  0
M  END
>  <UniqueID>  (17) 
16

>  <SMILES>  (17) 
CC(C)CCOc1cc(=O)n(C)cc1N1CCCCCC1

>  <Energy>  (17) 
55.967777154511865

>  <Genealogy>  (17) 
CC(C)CCOc1cc(=O)n(C)cc1N1CCCCCC1 (3D coordinates assigned)
CC(C)CCOc1cc(=O)n(C)cc1N1CCCCCC1 (nonaromatic ring conformer: 55.967777154511865 kcal/mol)

>  <smiles>  (17) 
CC(C)CCOc1cc(=O)n(C)cc1N1CCCCCC1

>  <score_type>  (17) 
oracle

>  <origin>  (17) 
adg

>  <m_score__min__energy>  (17) 
-4.1799999999999997

>  <m_primary>  (17) 
energy

$$$$
17:0
     RDKit          3D

 45 47  0  0  0  0  0  0  0  0999 V2000
   59.6430   36.0540   45.3870 C   0  0  0  0  0  0  0  0  0  0  0  0
   59.3400   34.7100   46.0680 C   0  0  1  0  0  0  0  0  0  0  0  0
   58.5930   33.7720   45.0920 C   0  0  0  0  0  0  0  0  0  0  0  0
   57.9150   32.6190   45.7920 C   0  0  0  0  0  0  0  0  0  0  0  0
   57.3960   32.8200   46.9230 O   0  0  0  0  0  0  0  0  0  0  0  0
   57.7730   31.2830   45.1470 C   0  0  0  0  0  0  0  0  0  0  0  0
   56.9300   31.1400   44.0260 C   0  0  0  0  0  0  0  0  0  0  0  0
   56.7560   29.8970   43.4140 C   0  0  0  0  0  0  0  0  0  0  0  0
   57.4080   28.7730   43.9150 C   0  0  0  0  0  0  0  0  0  0  0  0
   58.2370   28.8850   45.0300 C   0  0  0  0  0  0  0  0  0  0  0  0
   58.4330   30.1290   45.6520 C   0  0  0  0  0  0  0  0  0  0  0  0
   59.3430   30.1850   46.8110 C   0  0  0  0  0  0  0  0  0  0  0  0
   60.6670   30.6150   46.6510 C   0  0  0  0  0  0  0  0  0  0  0  0
   61.5200   30.6640   47.7540 C   0  0  0  0  0  0  0  0  0  0  0  0
   61.0380   30.2900   49.0090 C   0  0  0  0  0  0  0  0  0  0  0  0
   59.7470   29.8870   49.1510 N   0  0  0  0  0  0  0  0  0  0  0  0
   58.8970   29.8300   48.0910 C   0  0  0  0  0  0  0  0  0  0  0  0
   60.6210   34.0730   46.6650 C   0  0  0  0  0  0  0  0  0  0  0  0
   60.5350   33.8080   48.1510 C   0  0  0  0  0  0  0  0  0  0  0  0
   61.6440   34.0470   48.9790 C   0  0  0  0  0  0  0  0  0  0  0  0
   61.5390   33.8170   50.3510 C   0  0  0  0  0  0  0  0  0  0  0  0
   60.3390   33.3550   50.8880 C   0  0  0  0  0  0  0  0  0  0  0  0
   59.2570   33.1170   50.0370 C   0  0  0  0  0  0  0  0  0  0  0  0
   59.3740   33.3420   48.6990 N   0  0  0  0  0  0  0  0  0  0  0  0
   59.8164   36.8230   46.1542 H   0  0  0  0  0  0  0  0  0  0  0  0
   60.5409   35.9530   44.7597 H   0  0  0  0  0  0  0  0  0  0  0  0
   58.7886   36.3480   44.7597 H   0  0  0  0  0  0  0  0  0  0  0  0
   58.6702   34.8874   46.9224 H   0  0  0  0  0  0  0  0  0  0  0  0
   57.8296   34.3566   44.5577 H   0  0  0  0  0  0  0  0  0  0  0  0
   59.3390   33.3487   44.4033 H   0  0  0  0  0  0  0  0  0  0  0  0
   56.4023   32.0194   43.6282 H   0  0  0  0  0  0  0  0  0  0  0  0
   56.1023   29.8054   42.5340 H   0  0  0  0  0  0  0  0  0  0  0  0
   57.2686   27.7955   43.4302 H   0  0  0  0  0  0  0  0  0  0  0  0
   58.7420   27.9916   45.4261 H   0  0  0  0  0  0  0  0  0  0  0  0
   61.0332   30.9134   45.6576 H   0  0  0  0  0  0  0  0  0  0  0  0
   62.5625   30.9943   47.6354 H   0  0  0  0  0  0  0  0  0  0  0  0
   61.7032   30.3212   49.8845 H   0  0  0  0  0  0  0  0  0  0  0  0
   57.8567   29.5044   48.2388 H   0  0  0  0  0  0  0  0  0  0  0  0
   60.8044   33.1172   46.1523 H   0  0  0  0  0  0  0  0  0  0  0  0
   61.4375   34.7946   46.5150 H   0  0  0  0  0  0  0  0  0  0  0  0
   62.5881   34.4127   48.5490 H   0  0  0  0  0  0  0  0  0  0  0  0
   62.4021   34.0001   51.0079 H   0  0  0  0  0  0  0  0  0  0  0  0
   60.2448   33.1797   51.9698 H   0  0  0  0  0  0  0  0  0  0  0  0
   58.3069   32.7464   50.4492 H   0  0  0  0  0  0  0  0  0  0  0  0
   58.5480   33.1500   48.0880 H   0  0  0  0  0  0  0  0  0  0  0  0
  1  2  1  0
  2  3  1  0
  3  4  1  0
  4  5  2  0
  4  6  1  0
  6  7  2  0
  7  8  1  0
  8  9  2  0
  9 10  1  0
 10 11  2  0
 11 12  1  0
 12 13  2  0
 13 14  1  0
 14 15  2  0
 15 16  1  0
 16 17  2  0
  2 18  1  0
 18 19  1  0
 19 20  2  0
 20 21  1  0
 21 22  2  0
 22 23  1  0
 23 24  2  0
 11  6  1  0
 17 12  1  0
 24 19  1  0
  1 25  1  0
  1 26  1  0
  1 27  1  0
  2 28  1  1
  3 29  1  0
  3 30  1  0
  7 31  1  0
  8 32  1  0
  9 33  1  0
 10 34  1  0
 13 35  1  0
 14 36  1  0
 15 37  1  0
 17 38  1  0
 18 39  1  0
 18 40  1  0
 20 41  1  0
 21 42  1  0
 22 43  1  0
 23 44  1  0
 24 45  1  0
M  CHG  1  24   1
M  END
>  <UniqueID>  (18) 
17

>  <SMILES>  (18) 
C[C@@H](CC(=O)c1ccccc1-c1cccnc1)Cc1cccc[nH+]1

>  <Energy>  (18) 
54.27665235143646

>  <Genealogy>  (18) 
CC(CC(=O)c1ccccc1-c1cccnc1)Cc1cccc[nH+]1 (protonated)
C[C@@H](CC(=O)c1ccccc1-c1cccnc1)Cc1cccc[nH+]1 (chirality)
C[C@@H](CC(=O)c1ccccc1-c1cccnc1)Cc1cccc[nH+]1 (3D coordinates assigned)
C[C@@H](CC(=O)c1ccccc1-c1cccnc1)Cc1cccc[nH+]1 (optimized conformer: 54.27665235143646 kcal/mol)

>  <smiles>  (18) 
CC(CC(=O)c1ccccc1-c1cccnc1)Cc1ccccn1

>  <score_type>  (18) 
oracle

>  <origin>  (18) 
adg

>  <m_score__min__energy>  (18) 
-6.0499999999999998

>  <m_primary>  (18) 
energy

$$$$
18:0
     RDKit          3D

 40 41  0  0  0  0  0  0  0  0999 V2000
   61.5268   29.4004   45.7908 H   0  0  0  0  0  0  0  0  0  0  0  0
   60.6680   29.8000   46.3500 C   0  0  0  0  0  0  0  0  0  0  0  0
   60.8470   30.7790   47.1830 N   0  0  0  0  0  0  0  0  0  0  0  0
   62.0580   31.5960   47.2070 C   0  0  0  0  0  0  0  0  0  0  0  0
   62.2033   32.0505   46.2159 H   0  0  0  0  0  0  0  0  0  0  0  0
   62.9085   30.9486   47.4667 H   0  0  0  0  0  0  0  0  0  0  0  0
   61.9580   32.7140   48.2620 C   0  0  0  0  0  0  0  0  0  0  0  0
   62.1705   33.6774   47.7755 H   0  0  0  0  0  0  0  0  0  0  0  0
   62.6871   32.4901   49.0547 H   0  0  0  0  0  0  0  0  0  0  0  0
   60.6090   32.7860   48.8960 N   0  0  1  0  0  0  0  0  0  0  0  0
   60.0090   31.9860   48.5820 H   0  0  0  0  0  0  0  0  0  0  0  0
   60.7290   32.6590   50.3610 C   0  0  0  0  0  0  0  0  0  0  0  0
   60.0516   33.3759   50.8479 H   0  0  0  0  0  0  0  0  0  0  0  0
   60.4596   31.6363   50.6637 H   0  0  0  0  0  0  0  0  0  0  0  0
   61.7653   32.8700   50.6637 H   0  0  0  0  0  0  0  0  0  0  0  0
   59.9040   34.0530   48.5750 C   0  0  0  0  0  0  0  0  0  0  0  0
   59.2024   34.2847   49.3899 H   0  0  0  0  0  0  0  0  0  0  0  0
   60.6613   34.8430   48.4634 H   0  0  0  0  0  0  0  0  0  0  0  0
   59.1330   33.9620   47.2800 C   0  0  0  0  0  0  0  0  0  0  0  0
   57.9840   33.1570   47.1980 C   0  0  0  0  0  0  0  0  0  0  0  0
   57.6341   32.6097   48.0857 H   0  0  0  0  0  0  0  0  0  0  0  0
   57.2840   33.0490   45.9930 C   0  0  0  0  0  0  0  0  0  0  0  0
   56.3857   32.4169   45.9343 H   0  0  0  0  0  0  0  0  0  0  0  0
   57.7240   33.7430   44.8630 C   0  0  0  0  0  0  0  0  0  0  0  0
   57.1718   33.6565   43.9156 H   0  0  0  0  0  0  0  0  0  0  0  0
   58.8650   34.5470   44.9350 C   0  0  0  0  0  0  0  0  0  0  0  0
   59.2094   35.0936   44.0447 H   0  0  0  0  0  0  0  0  0  0  0  0
   59.5690   34.6570   46.1380 C   0  0  0  0  0  0  0  0  0  0  0  0
   60.4673   35.2896   46.1913 H   0  0  0  0  0  0  0  0  0  0  0  0
   59.3290   29.2150   46.1420 C   0  0  0  0  0  0  0  0  0  0  0  0
   58.9740   28.0440   46.8300 C   0  0  0  0  0  0  0  0  0  0  0  0
   59.6946   27.5718   47.5140 H   0  0  0  0  0  0  0  0  0  0  0  0
   57.7110   27.4750   46.6510 C   0  0  0  0  0  0  0  0  0  0  0  0
   57.4416   26.5574   47.1945 H   0  0  0  0  0  0  0  0  0  0  0  0
   56.7880   28.0670   45.7840 C   0  0  0  0  0  0  0  0  0  0  0  0
   55.5350   27.4910   45.6160 O   0  0  0  0  0  0  0  0  0  0  0  0
   57.1310   29.2370   45.0930 C   0  0  0  0  0  0  0  0  0  0  0  0
   55.8830   30.0660   43.9020 Br  0  0  0  0  0  0  0  0  0  0  0  0
   58.3960   29.8090   45.2710 C   0  0  0  0  0  0  0  0  0  0  0  0
   58.6626   30.7275   44.7275 H   0  0  0  0  0  0  0  0  0  0  0  0
  1  2  1  0
  2  3  2  0
  3  4  1  0
  4  5  1  0
  4  6  1  0
  4  7  1  0
  7  8  1  0
  7  9  1  0
  7 10  1  0
 10 11  1  6
 10 12  1  0
 12 13  1  0
 12 14  1  0
 12 15  1  0
 10 16  1  0
 16 17  1  0
 16 18  1  0
 16 19  1  0
 19 20  2  0
 20 21  1  0
 20 22  1  0
 22 23  1  0
 22 24  2  0
 24 25  1  0
 24 26  1  0
 26 27  1  0
 26 28  2  0
 28 29  1  0
  2 30  1  0
 30 31  2  0
 31 32  1  0
 31 33  1  0
 33 34  1  0
 33 35  2  0
 35 36  1  0
 35 37  1  0
 37 38  1  0
 37 39  2  0
 39 40  1  0
 28 19  1  0
 39 30  1  0
M  CHG  2  10   1  36  -1
M  END
>  <UniqueID>  (19) 
18

>  <SMILES>  (19) 
C[N@H+](CC/N=C/c1ccc([O-])c(Br)c1)Cc1ccccc1

>  <Energy>  (19) 
40.92819216047901

>  <Genealogy>  (19) 
C[NH+](CCN=Cc1ccc([O-])c(Br)c1)Cc1ccccc1 (protonated)
C[N@H+](CCN=Cc1ccc([O-])c(Br)c1)Cc1ccccc1 (chirality)
C[N@H+](CC/N=C/c1ccc([O-])c(Br)c1)Cc1ccccc1 (cis-trans isomerization)
C[N@H+](CC/N=C/c1ccc([O-])c(Br)c1)Cc1ccccc1 (3D coordinates assigned)
C[N@H+](CC/N=C/c1ccc([O-])c(Br)c1)Cc1ccccc1 (optimized conformer: 40.92819216047901 kcal/mol)

>  <smiles>  (19) 
CN(CCN=Cc1ccc(O)c(Br)c1)Cc1ccccc1

>  <score_type>  (19) 
oracle

>  <origin>  (19) 
adg

>  <m_score__min__energy>  (19) 
-9.1799999999999997

>  <m_primary>  (19) 
energy

$$$$
19:0
     RDKit          3D

 33 34  0  0  0  0  0  0  0  0999 V2000
   60.5270   30.9050   46.7450 C   0  0  0  0  0  0  0  0  0  0  0  0
   59.6410   30.4490   45.7280 O   0  0  0  0  0  0  0  0  0  0  0  0
   59.2260   29.1160   45.5710 C   0  0  0  0  0  0  0  0  0  0  0  0
   59.8870   28.0500   46.2130 C   0  0  0  0  0  0  0  0  0  0  0  0
   59.4500   26.7360   46.0320 C   0  0  0  0  0  0  0  0  0  0  0  0
   58.3520   26.4680   45.2120 C   0  0  0  0  0  0  0  0  0  0  0  0
   57.7590   24.6690   44.9670 Br  0  0  0  0  0  0  0  0  0  0  0  0
   57.6870   27.5180   44.5710 C   0  0  0  0  0  0  0  0  0  0  0  0
   58.1160   28.8420   44.7470 C   0  0  0  0  0  0  0  0  0  0  0  0
   57.2680   30.1600   43.9360 S   0  0  0  0  0  0  0  0  0  0  0  0
   56.6170   29.6270   42.6900 O   0  0  0  0  0  0  0  0  0  0  0  0
   56.2110   30.7320   44.8400 O   0  0  0  0  0  0  0  0  0  0  0  0
   58.4150   31.4000   43.5290 N   0  0  0  0  0  0  0  0  0  0  0  0
   57.7830   32.7140   43.6420 C   0  0  0  0  0  0  0  0  0  0  0  0
   58.2400   33.3850   44.9070 C   0  0  0  0  0  0  0  0  0  0  0  0
   57.7680   32.9500   46.1550 C   0  0  0  0  0  0  0  0  0  0  0  0
   58.2370   33.5640   47.3190 C   0  0  0  0  0  0  0  0  0  0  0  0
   59.1510   34.5680   47.2410 N   0  0  0  0  0  0  0  0  0  0  0  0
   59.6350   35.0000   46.0460 C   0  0  0  0  0  0  0  0  0  0  0  0
   59.1930   34.4130   44.8570 C   0  0  0  0  0  0  0  0  0  0  0  0
   60.0965   30.6834   47.7327 H   0  0  0  0  0  0  0  0  0  0  0  0
   61.4955   30.3933   46.6440 H   0  0  0  0  0  0  0  0  0  0  0  0
   60.6735   31.9905   46.6440 H   0  0  0  0  0  0  0  0  0  0  0  0
   60.7524   28.2540   46.8606 H   0  0  0  0  0  0  0  0  0  0  0  0
   59.9722   25.9099   46.5368 H   0  0  0  0  0  0  0  0  0  0  0  0
   56.8226   27.3045   43.9251 H   0  0  0  0  0  0  0  0  0  0  0  0
   59.1830   31.3440   44.2380 H   0  0  0  0  0  0  0  0  0  0  0  0
   58.0655   33.3319   42.7769 H   0  0  0  0  0  0  0  0  0  0  0  0
   56.6899   32.5933   43.6663 H   0  0  0  0  0  0  0  0  0  0  0  0
   57.0348   32.1323   46.2162 H   0  0  0  0  0  0  0  0  0  0  0  0
   57.8661   33.2346   48.3008 H   0  0  0  0  0  0  0  0  0  0  0  0
   60.3756   35.8128   46.0150 H   0  0  0  0  0  0  0  0  0  0  0  0
   59.5895   34.7546   43.8895 H   0  0  0  0  0  0  0  0  0  0  0  0
  1  2  1  0
  2  3  1  0
  3  4  2  0
  4  5  1  0
  5  6  2  0
  6  7  1  0
  6  8  1  0
  8  9  2  0
  9 10  1  0
 10 11  2  0
 10 12  2  0
 10 13  1  0
 13 14  1  0
 14 15  1  0
 15 16  2  0
 16 17  1  0
 17 18  2  0
 18 19  1  0
 19 20  2  0
  9  3  1  0
 20 15  1  0
  1 21  1  0
  1 22  1  0
  1 23  1  0
  4 24  1  0
  5 25  1  0
  8 26  1  0
 13 27  1  0
 14 28  1  0
 14 29  1  0
 16 30  1  0
 17 31  1  0
 19 32  1  0
 20 33  1  0
M  END
>  <UniqueID>  (20) 
19

>  <SMILES>  (20) 
COc1ccc(Br)cc1S(=O)(=O)NCc1ccncc1

>  <Energy>  (20) 
31.353262921335965

>  <Genealogy>  (20) 
COc1ccc(Br)cc1S(=O)(=O)NCc1ccncc1 (3D coordinates assigned)
COc1ccc(Br)cc1S(=O)(=O)NCc1ccncc1 (optimized conformer: 31.353262921335965 kcal/mol)

>  <smiles>  (20) 
COc1ccc(Br)cc1S(=O)(=O)NCc1ccncc1

>  <score_type>  (20) 
oracle

>  <origin>  (20) 
adg

>  <m_score__min__energy>  (20) 
-7.46

>  <m_primary>  (20) 
energy

$$$$
20:0
     RDKit          3D

 36 38  0  0  0  0  0  0  0  0999 V2000
   65.5660   32.7010   50.3320 C   0  0  0  0  0  0  0  0  0  0  0  0
   64.2800   33.3120   50.3120 O   0  0  0  0  0  0  0  0  0  0  0  0
   63.5060   33.4880   49.1550 C   0  0  0  0  0  0  0  0  0  0  0  0
   64.0870   33.1970   47.9160 C   0  0  0  0  0  0  0  0  0  0  0  0
   63.3550   33.3500   46.7350 C   0  0  0  0  0  0  0  0  0  0  0  0
   62.0340   33.7990   46.7830 C   0  0  0  0  0  0  0  0  0  0  0  0
   61.4350   34.1040   48.0150 C   0  0  0  0  0  0  0  0  0  0  0  0
   60.0040   34.5630   48.0780 C   0  0  0  0  0  0  0  0  0  0  0  0
   59.1690   33.7240   47.2220 N   0  0  0  0  0  0  0  0  0  0  0  0
   58.9670   34.0130   45.8290 C   0  0  0  0  0  0  0  0  0  0  0  0
   59.3110   35.1360   45.3700 O   0  0  0  0  0  0  0  0  0  0  0  0
   58.3470   33.0180   44.9240 C   0  0  0  0  0  0  0  0  0  0  0  0
   58.4960   33.1210   43.5130 C   0  0  0  0  0  0  0  0  0  0  0  0
   57.8980   32.1790   42.6550 C   0  0  0  0  0  0  0  0  0  0  0  0
   57.1560   31.1540   43.2310 C   0  0  0  0  0  0  0  0  0  0  0  0
   56.4650   30.1100   42.6630 C   0  0  0  0  0  0  0  0  0  0  0  0
   55.9200   29.4240   43.7430 C   0  0  0  0  0  0  0  0  0  0  0  0
   56.2540   30.0100   44.8790 O   0  0  0  0  0  0  0  0  0  0  0  0
   56.9950   31.0500   44.5850 C   0  0  0  0  0  0  0  0  0  0  0  0
   57.5710   31.9620   45.4640 C   0  0  0  0  0  0  0  0  0  0  0  0
   62.1730   33.9430   49.2000 C   0  0  0  0  0  0  0  0  0  0  0  0
   65.8840   32.5499   51.3741 H   0  0  0  0  0  0  0  0  0  0  0  0
   65.5183   31.7293   49.8187 H   0  0  0  0  0  0  0  0  0  0  0  0
   66.2892   33.3518   49.8187 H   0  0  0  0  0  0  0  0  0  0  0  0
   65.1282   32.8450   47.8708 H   0  0  0  0  0  0  0  0  0  0  0  0
   63.8206   33.1162   45.7662 H   0  0  0  0  0  0  0  0  0  0  0  0
   61.4604   33.9142   45.8515 H   0  0  0  0  0  0  0  0  0  0  0  0
   59.6454   34.4945   49.1156 H   0  0  0  0  0  0  0  0  0  0  0  0
   59.9445   35.6045   47.7291 H   0  0  0  0  0  0  0  0  0  0  0  0
   58.6790   32.9120   47.6600 H   0  0  0  0  0  0  0  0  0  0  0  0
   59.0855   33.9465   43.0875 H   0  0  0  0  0  0  0  0  0  0  0  0
   58.0140   32.2515   41.5635 H   0  0  0  0  0  0  0  0  0  0  0  0
   56.3655   29.8709   41.5939 H   0  0  0  0  0  0  0  0  0  0  0  0
   55.2981   28.5203   43.6627 H   0  0  0  0  0  0  0  0  0  0  0  0
   57.4277   31.8659   46.5504 H   0  0  0  0  0  0  0  0  0  0  0  0
   61.7070   34.1737   50.1693 H   0  0  0  0  0  0  0  0  0  0  0  0
  1  2  1  0
  2  3  1  0
  3  4  2  0
  4  5  1  0
  5  6  2  0
  6  7  1  0
  7  8  1  0
  8  9  1  0
  9 10  1  0
 10 11  2  0
 10 12  1  0
 12 13  2  0
 13 14  1  0
 14 15  2  0
 15 16  1  0
 16 17  2  0
 17 18  1  0
 18 19  1  0
 19 20  2  0
  7 21  2  0
 21  3  1  0
 20 12  1  0
 19 15  1  0
  1 22  1  0
  1 23  1  0
  1 24  1  0
  4 25  1  0
  5 26  1  0
  6 27  1  0
  8 28  1  0
  8 29  1  0
  9 30  1  0
 13 31  1  0
 14 32  1  0
 16 33  1  0
 17 34  1  0
 20 35  1  0
 21 36  1  0
M  END
>  <UniqueID>  (21) 
20

>  <SMILES>  (21) 
COc1cccc(CNC(=O)c2ccc3ccoc3c2)c1

>  <Energy>  (21) 
71.05530200294672

>  <Genealogy>  (21) 
COc1cccc(CNC(=O)c2ccc3ccoc3c2)c1 (3D coordinates assigned)
COc1cccc(CNC(=O)c2ccc3ccoc3c2)c1 (optimized conformer: 71.05530200294672 kcal/mol)

>  <smiles>  (21) 
COc1cccc(CNC(=O)c2ccc3ccoc3c2)c1

>  <score_type>  (21) 
oracle

>  <origin>  (21) 
adg

>  <m_score__min__energy>  (21) 
-7.4500000000000002

>  <m_primary>  (21) 
energy

$$$$
21:0
     RDKit          3D

 38 41  0  0  0  0  0  0  0  0999 V2000
   56.8340   25.7410   45.6450 C   0  0  0  0  0  0  0  0  0  0  0  0
   56.0760   26.9430   45.6150 O   0  0  0  0  0  0  0  0  0  0  0  0
   56.6650   28.2100   45.6170 C   0  0  0  0  0  0  0  0  0  0  0  0
   57.7900   28.4440   46.4080 C   0  0  0  0  0  0  0  0  0  0  0  0
   58.3800   29.7090   46.4110 C   0  0  0  0  0  0  0  0  0  0  0  0
   57.8400   30.7450   45.6270 C   0  0  0  0  0  0  0  0  0  0  0  0
   58.4450   32.1010   45.5980 C   0  0  0  0  0  0  0  0  0  0  0  0
   57.8320   33.1740   44.9300 C   0  0  0  0  0  0  0  0  0  0  0  0
   58.4460   34.4250   44.9310 C   0  0  0  0  0  0  0  0  0  0  0  0
   59.6630   34.6070   45.5870 C   0  0  0  0  0  0  0  0  0  0  0  0
   60.2660   33.5190   46.2420 C   0  0  0  0  0  0  0  0  0  0  0  0
   61.5270   33.6470   46.9270 N   0  0  0  0  0  0  0  0  0  0  0  0
   61.7530   33.5910   48.2590 C   0  0  0  0  0  0  0  0  0  0  0  0
   63.1080   33.7580   48.4750 C   0  0  0  0  0  0  0  0  0  0  0  0
   63.8010   33.7650   49.7690 C   0  0  0  0  0  0  0  0  0  0  0  0
   63.3750   34.4700   50.8400 N   0  0  0  0  0  0  0  0  0  0  0  0
   64.1930   34.3070   51.9150 C   0  0  0  0  0  0  0  0  0  0  0  0
   65.2820   33.4690   51.7050 C   0  0  0  0  0  0  0  0  0  0  0  0
   65.2120   32.9160   50.1190 S   0  0  0  0  0  0  0  0  0  0  0  0
   63.6680   33.9140   47.2220 C   0  0  0  0  0  0  0  0  0  0  0  0
   62.6840   33.8400   46.3080 N   0  0  0  0  0  0  0  0  0  0  0  0
   59.6390   32.3100   46.2230 N   0  0  0  0  0  0  0  0  0  0  0  0
   56.7130   30.4580   44.8380 C   0  0  0  0  0  0  0  0  0  0  0  0
   56.1580   29.2180   44.8530 N   0  0  0  0  0  0  0  0  0  0  0  0
   57.0179   25.4494   46.6896 H   0  0  0  0  0  0  0  0  0  0  0  0
   56.2757   24.9426   45.1343 H   0  0  0  0  0  0  0  0  0  0  0  0
   57.7951   25.9007   45.1343 H   0  0  0  0  0  0  0  0  0  0  0  0
   58.2097   27.6364   47.0257 H   0  0  0  0  0  0  0  0  0  0  0  0
   59.2706   29.8967   47.0287 H   0  0  0  0  0  0  0  0  0  0  0  0
   56.8739   33.0278   44.4097 H   0  0  0  0  0  0  0  0  0  0  0  0
   57.9697   35.2706   44.4133 H   0  0  0  0  0  0  0  0  0  0  0  0
   60.1476   35.5945   45.5919 H   0  0  0  0  0  0  0  0  0  0  0  0
   60.9900   33.4388   49.0366 H   0  0  0  0  0  0  0  0  0  0  0  0
   64.0063   34.8020   52.8794 H   0  0  0  0  0  0  0  0  0  0  0  0
   66.0536   33.2129   52.4460 H   0  0  0  0  0  0  0  0  0  0  0  0
   64.7355   34.0717   47.0083 H   0  0  0  0  0  0  0  0  0  0  0  0
   62.8100   33.9230   45.2740 H   0  0  0  0  0  0  0  0  0  0  0  0
   56.2768   31.2435   44.2033 H   0  0  0  0  0  0  0  0  0  0  0  0
  1  2  1  0
  2  3  1  0
  3  4  2  0
  4  5  1  0
  5  6  2  0
  6  7  1  0
  7  8  2  0
  8  9  1  0
  9 10  2  0
 10 11  1  0
 11 12  1  0
 12 13  1  0
 13 14  2  0
 14 15  1  0
 15 16  2  0
 16 17  1  0
 17 18  2  0
 18 19  1  0
 14 20  1  0
 20 21  2  0
 11 22  2  0
  6 23  1  0
 23 24  2  0
 24  3  1  0
 22  7  1  0
 21 12  1  0
 19 15  1  0
  1 25  1  0
  1 26  1  0
  1 27  1  0
  4 28  1  0
  5 29  1  0
  8 30  1  0
  9 31  1  0
 10 32  1  0
 13 33  1  0
 17 34  1  0
 18 35  1  0
 20 36  1  0
 21 37  1  0
 23 38  1  0
M  CHG  1  21   1
M  END
>  <UniqueID>  (22) 
21

>  <SMILES>  (22) 
COc1ccc(-c2cccc(-n3cc(-c4nccs4)c[nH+]3)n2)cn1

>  <Energy>  (22) 
107.02437682749103

>  <Genealogy>  (22) 
COc1ccc(-c2cccc(-n3cc(-c4nccs4)c[nH+]3)n2)cn1 (protonated)
COc1ccc(-c2cccc(-n3cc(-c4nccs4)c[nH+]3)n2)cn1 (3D coordinates assigned)
COc1ccc(-c2cccc(-n3cc(-c4nccs4)c[nH+]3)n2)cn1 (optimized conformer: 107.02437682749103 kcal/mol)

>  <smiles>  (22) 
COc1ccc(-c2cccc(-n3cc(-c4nccs4)cn3)n2)cn1

>  <score_type>  (22) 
oracle

>  <origin>  (22) 
adg

>  <m_score__min__energy>  (22) 
-6.2000000000000002

>  <m_primary>  (22) 
energy

$$$$
22:0
     RDKit          3D

 29 30  0  0  0  0  0  0  0  0999 V2000
   56.3964   31.2899   43.1151 H   0  0  0  0  0  0  0  0  0  0  0  0
   56.7750   31.2470   44.1470 C   0  0  0  0  0  0  0  0  0  0  0  0
   56.6880   32.3250   44.8760 N   0  0  0  0  0  0  0  0  0  0  0  0
   57.7240   32.9290   45.6700 C   0  0  0  0  0  0  0  0  0  0  0  0
   58.4690   34.0260   45.2030 C   0  0  0  0  0  0  0  0  0  0  0  0
   58.2492   34.4565   44.2149 H   0  0  0  0  0  0  0  0  0  0  0  0
   59.4880   34.5720   45.9890 C   0  0  0  0  0  0  0  0  0  0  0  0
   60.0531   35.4428   45.6252 H   0  0  0  0  0  0  0  0  0  0  0  0
   59.7940   34.0130   47.2430 C   0  0  0  0  0  0  0  0  0  0  0  0
   60.8050   34.5250   48.0700 O   0  0  0  0  0  0  0  0  0  0  0  0
   61.9880   33.8180   48.4250 C   0  0  0  0  0  0  0  0  0  0  0  0
   62.0707   33.7686   49.5208 H   0  0  0  0  0  0  0  0  0  0  0  0
   61.9431   32.7985   48.0143 H   0  0  0  0  0  0  0  0  0  0  0  0
   62.8646   34.3404   48.0143 H   0  0  0  0  0  0  0  0  0  0  0  0
   59.0720   32.8990   47.6870 C   0  0  0  0  0  0  0  0  0  0  0  0
   59.3089   32.4494   48.6626 H   0  0  0  0  0  0  0  0  0  0  0  0
   58.0530   32.3530   46.9020 C   0  0  0  0  0  0  0  0  0  0  0  0
   57.5066   31.4657   47.2544 H   0  0  0  0  0  0  0  0  0  0  0  0
   57.3510   29.9710   44.6220 C   0  0  0  0  0  0  0  0  0  0  0  0
   58.7430   29.8680   44.7640 C   0  0  0  0  0  0  0  0  0  0  0  0
   59.3826   30.7289   44.5197 H   0  0  0  0  0  0  0  0  0  0  0  0
   59.3220   28.6780   45.2140 C   0  0  0  0  0  0  0  0  0  0  0  0
   60.4151   28.6004   45.3100 H   0  0  0  0  0  0  0  0  0  0  0  0
   58.5130   27.5870   45.5420 C   0  0  0  0  0  0  0  0  0  0  0  0
   58.9703   26.6471   45.8847 H   0  0  0  0  0  0  0  0  0  0  0  0
   57.1240   27.6890   45.4350 C   0  0  0  0  0  0  0  0  0  0  0  0
   56.4890   26.8312   45.7014 H   0  0  0  0  0  0  0  0  0  0  0  0
   56.5380   28.8790   44.9900 C   0  0  0  0  0  0  0  0  0  0  0  0
   55.1510   28.9750   44.9380 O   0  0  0  0  0  0  0  0  0  0  0  0
  1  2  1  0
  2  3  2  0
  3  4  1  0
  4  5  2  0
  5  6  1  0
  5  7  1  0
  7  8  1  0
  7  9  2  0
  9 10  1  0
 10 11  1  0
 11 12  1  0
 11 13  1  0
 11 14  1  0
  9 15  1  0
 15 16  1  0
 15 17  2  0
 17 18  1  0
  2 19  1  0
 19 20  2  0
 20 21  1  0
 20 22  1  0
 22 23  1  0
 22 24  2  0
 24 25  1  0
 24 26  1  0
 26 27  1  0
 26 28  2  0
 28 29  1  0
 17  4  1  0
 28 19  1  0
M  CHG  1  29  -1
M  END
>  <UniqueID>  (23) 
22

>  <SMILES>  (23) 
COc1ccc(/N=C\c2ccccc2[O-])cc1

>  <Energy>  (23) 
41.52060885868315

>  <Genealogy>  (23) 
COc1ccc(N=Cc2ccccc2[O-])cc1 (protonated)
COc1ccc(/N=C\c2ccccc2[O-])cc1 (cis-trans isomerization)
COc1ccc(/N=C\c2ccccc2[O-])cc1 (3D coordinates assigned)
COc1ccc(/N=C\c2ccccc2[O-])cc1 (optimized conformer: 41.52060885868315 kcal/mol)

>  <smiles>  (23) 
COc1ccc(N=Cc2ccccc2O)cc1

>  <score_type>  (23) 
oracle

>  <origin>  (23) 
adg

>  <m_score__min__energy>  (23) 
-9.9800000000000004

>  <m_primary>  (23) 
energy

$$$$
23:0
     RDKit          3D

 28 29  0  0  0  0  0  0  0  0999 V2000
   58.1470   26.8860   42.6310 C   0  0  0  0  0  0  0  0  0  0  0  0
   58.6360   27.1500   43.9410 O   0  0  0  0  0  0  0  0  0  0  0  0
   59.0950   28.4100   44.3320 C   0  0  0  0  0  0  0  0  0  0  0  0
   60.3170   28.6010   44.5800 O   0  0  0  0  0  0  0  0  0  0  0  0
   58.1420   29.5200   44.4580 C   0  0  0  0  0  0  0  0  0  0  0  0
   58.4250   30.8290   44.7910 C   0  0  0  0  0  0  0  0  0  0  0  0
   57.2440   31.4800   44.7890 N   0  0  0  0  0  0  0  0  0  0  0  0
   57.0170   32.8730   45.1510 C   0  0  0  0  0  0  0  0  0  0  0  0
   58.0690   33.3260   46.1290 C   0  0  0  0  0  0  0  0  0  0  0  0
   58.1280   32.7480   47.4080 C   0  0  0  0  0  0  0  0  0  0  0  0
   59.1240   33.1340   48.3100 C   0  0  0  0  0  0  0  0  0  0  0  0
   60.0750   34.0890   47.9390 C   0  0  0  0  0  0  0  0  0  0  0  0
   61.0410   34.4590   48.8150 F   0  0  0  0  0  0  0  0  0  0  0  0
   60.0330   34.6560   46.6630 C   0  0  0  0  0  0  0  0  0  0  0  0
   59.0390   34.2750   45.7550 C   0  0  0  0  0  0  0  0  0  0  0  0
   59.0240   34.8280   44.5160 F   0  0  0  0  0  0  0  0  0  0  0  0
   56.2850   30.6190   44.4880 N   0  0  0  0  0  0  0  0  0  0  0  0
   56.8120   29.4230   44.2760 N   0  0  0  0  0  0  0  0  0  0  0  0
   57.1809   26.3644   42.6985 H   0  0  0  0  0  0  0  0  0  0  0  0
   58.0144   27.8351   42.0909 H   0  0  0  0  0  0  0  0  0  0  0  0
   58.8677   26.2544   42.0909 H   0  0  0  0  0  0  0  0  0  0  0  0
   59.4144   31.2554   45.0132 H   0  0  0  0  0  0  0  0  0  0  0  0
   57.0663   33.4976   44.2469 H   0  0  0  0  0  0  0  0  0  0  0  0
   56.0247   32.9695   45.6157 H   0  0  0  0  0  0  0  0  0  0  0  0
   57.3878   31.9889   47.7009 H   0  0  0  0  0  0  0  0  0  0  0  0
   59.1594   32.6853   49.3137 H   0  0  0  0  0  0  0  0  0  0  0  0
   60.7841   35.4047   46.3710 H   0  0  0  0  0  0  0  0  0  0  0  0
   56.2670   28.5690   44.0230 H   0  0  0  0  0  0  0  0  0  0  0  0
  1  2  1  0
  2  3  1  0
  3  4  2  0
  3  5  1  0
  5  6  2  0
  6  7  1  0
  7  8  1  0
  8  9  1  0
  9 10  2  0
 10 11  1  0
 11 12  2  0
 12 13  1  0
 12 14  1  0
 14 15  2  0
 15 16  1  0
  7 17  1  0
 17 18  2  0
 18  5  1  0
 15  9  1  0
  1 19  1  0
  1 20  1  0
  1 21  1  0
  6 22  1  0
  8 23  1  0
  8 24  1  0
 10 25  1  0
 11 26  1  0
 14 27  1  0
 18 28  1  0
M  CHG  1  18   1
M  END
>  <UniqueID>  (24) 
23

>  <SMILES>  (24) 
COC(=O)c1cn(Cc2ccc(F)cc2F)n[nH+]1

>  <Energy>  (24) 
59.53152936150666

>  <Genealogy>  (24) 
COC(=O)c1cn(Cc2ccc(F)cc2F)n[nH+]1 (protonated)
COC(=O)c1cn(Cc2ccc(F)cc2F)n[nH+]1 (3D coordinates assigned)
COC(=O)c1cn(Cc2ccc(F)cc2F)n[nH+]1 (optimized conformer: 59.53152936150666 kcal/mol)

>  <smiles>  (24) 
COC(=O)c1cn(Cc2ccc(F)cc2F)nn1

>  <score_type>  (24) 
oracle

>  <origin>  (24) 
adg

>  <m_score__min__energy>  (24) 
-4.6900000000000004

>  <m_primary>  (24) 
energy

$$$$
24:0
     RDKit          3D

 28 29  0  0  0  0  0  0  0  0999 V2000
   59.4170   34.2670   45.8530 C   0  0  0  0  0  0  0  0  0  0  0  0
   58.5850   33.2910   45.0910 C   0  0  0  0  0  0  0  0  0  0  0  0
   58.5270   33.2410   43.7420 N   0  0  0  0  0  0  0  0  0  0  0  0
   57.7530   32.2170   43.2840 C   0  0  0  0  0  0  0  0  0  0  0  0
   57.5490   31.9860   41.8170 C   0  0  0  0  0  0  0  0  0  0  0  0
   57.1960   31.4200   44.2950 C   0  0  0  0  0  0  0  0  0  0  0  0
   56.3270   30.2380   44.1470 C   0  0  0  0  0  0  0  0  0  0  0  0
   55.7460   30.0080   43.0530 O   0  0  0  0  0  0  0  0  0  0  0  0
   56.1900   29.3270   45.2450 N   0  0  0  0  0  0  0  0  0  0  0  0
   57.1280   28.3120   45.6360 C   0  0  0  0  0  0  0  0  0  0  0  0
   58.5180   28.5330   45.6230 C   0  0  0  0  0  0  0  0  0  0  0  0
   59.3960   27.5080   45.9910 C   0  0  0  0  0  0  0  0  0  0  0  0
   58.8980   26.2560   46.3610 C   0  0  0  0  0  0  0  0  0  0  0  0
   57.5200   26.0230   46.3520 C   0  0  0  0  0  0  0  0  0  0  0  0
   56.6400   27.0450   45.9850 C   0  0  0  0  0  0  0  0  0  0  0  0
   57.7030   32.0400   45.7800 S   0  0  0  0  0  0  0  0  0  0  0  0
   59.2778   34.1037   46.9319 H   0  0  0  0  0  0  0  0  0  0  0  0
   60.4768   34.1258   45.5945 H   0  0  0  0  0  0  0  0  0  0  0  0
   59.1098   35.2911   45.5945 H   0  0  0  0  0  0  0  0  0  0  0  0
   59.0270   33.9170   43.1210 H   0  0  0  0  0  0  0  0  0  0  0  0
   56.8273   31.1687   41.6714 H   0  0  0  0  0  0  0  0  0  0  0  0
   57.1618   32.9044   41.3516 H   0  0  0  0  0  0  0  0  0  0  0  0
   58.5082   31.7154   41.3516 H   0  0  0  0  0  0  0  0  0  0  0  0
   58.9148   29.5140   45.3228 H   0  0  0  0  0  0  0  0  0  0  0  0
   60.4812   27.6881   45.9891 H   0  0  0  0  0  0  0  0  0  0  0  0
   59.5899   25.4545   46.6591 H   0  0  0  0  0  0  0  0  0  0  0  0
   57.1278   25.0347   46.6339 H   0  0  0  0  0  0  0  0  0  0  0  0
   55.5569   26.8538   45.9699 H   0  0  0  0  0  0  0  0  0  0  0  0
  1  2  1  0
  2  3  2  0
  3  4  1  0
  4  5  1  0
  4  6  2  0
  6  7  1  0
  7  8  2  0
  7  9  1  0
  9 10  1  0
 10 11  2  0
 11 12  1  0
 12 13  2  0
 13 14  1  0
 14 15  2  0
  6 16  1  0
 16  2  1  0
 15 10  1  0
  1 17  1  0
  1 18  1  0
  1 19  1  0
  3 20  1  0
  5 21  1  0
  5 22  1  0
  5 23  1  0
 11 24  1  0
 12 25  1  0
 13 26  1  0
 14 27  1  0
 15 28  1  0
M  CHG  2   3   1   9  -1
M  END
>  <UniqueID>  (25) 
24

>  <SMILES>  (25) 
Cc1[nH+]c(C)c(C(=O)[N-]c2ccccc2)s1

>  <Energy>  (25) 
58.88164646020678

>  <Genealogy>  (25) 
Cc1[nH+]c(C)c(C(=O)[N-]c2ccccc2)s1 (protonated)
Cc1[nH+]c(C)c(C(=O)[N-]c2ccccc2)s1 (3D coordinates assigned)
Cc1[nH+]c(C)c(C(=O)[N-]c2ccccc2)s1 (optimized conformer: 58.88164646020678 kcal/mol)

>  <smiles>  (25) 
Cc1nc(C)c(C(=O)Nc2ccccc2)s1

>  <score_type>  (25) 
oracle

>  <origin>  (25) 
adg

>  <m_score__min__energy>  (25) 
-6.46

>  <m_primary>  (25) 
energy

$$$$
25:0
     RDKit          3D

 31 33  0  0  0  0  0  0  0  0999 V2000
   62.9280   33.8120   46.3840 C   0  0  0  0  0  0  0  0  0  0  0  0
   62.2340   33.8120   47.7210 C   0  0  0  0  0  0  0  0  0  0  0  0
   63.0200   33.8410   48.8870 C   0  0  0  0  0  0  0  0  0  0  0  0
   62.4220   33.8030   50.1490 C   0  0  0  0  0  0  0  0  0  0  0  0
   61.0330   33.7370   50.2620 C   0  0  0  0  0  0  0  0  0  0  0  0
   60.2360   33.7270   49.1160 C   0  0  0  0  0  0  0  0  0  0  0  0
   60.8190   33.7880   47.8390 C   0  0  0  0  0  0  0  0  0  0  0  0
   59.9240   33.8020   46.6620 C   0  0  0  0  0  0  0  0  0  0  0  0
   59.6600   34.9890   45.9660 C   0  0  0  0  0  0  0  0  0  0  0  0
   58.7900   34.9620   44.8750 C   0  0  0  0  0  0  0  0  0  0  0  0
   58.1820   33.7650   44.4960 C   0  0  0  0  0  0  0  0  0  0  0  0
   58.4480   32.5940   45.2240 C   0  0  0  0  0  0  0  0  0  0  0  0
   57.8250   31.2980   44.8800 C   0  0  0  0  0  0  0  0  0  0  0  0
   57.0150   31.0100   43.7810 C   0  0  0  0  0  0  0  0  0  0  0  0
   56.5830   29.6780   43.7450 C   0  0  0  0  0  0  0  0  0  0  0  0
   57.0440   28.9090   44.8050 C   0  0  0  0  0  0  0  0  0  0  0  0
   57.9900   29.8890   45.7880 S   0  0  0  0  0  0  0  0  0  0  0  0
   59.3040   32.6510   46.2820 N   0  0  0  0  0  0  0  0  0  0  0  0
   63.0969   32.7749   46.0586 H   0  0  0  0  0  0  0  0  0  0  0  0
   62.2998   34.3305   45.6448 H   0  0  0  0  0  0  0  0  0  0  0  0
   63.8941   34.3305   46.4723 H   0  0  0  0  0  0  0  0  0  0  0  0
   64.1156   33.8941   48.8045 H   0  0  0  0  0  0  0  0  0  0  0  0
   63.0467   33.8251   51.0541 H   0  0  0  0  0  0  0  0  0  0  0  0
   60.5648   33.6927   51.2564 H   0  0  0  0  0  0  0  0  0  0  0  0
   59.1418   33.6709   49.2135 H   0  0  0  0  0  0  0  0  0  0  0  0
   60.1334   35.9322   46.2762 H   0  0  0  0  0  0  0  0  0  0  0  0
   58.5836   35.8852   44.3136 H   0  0  0  0  0  0  0  0  0  0  0  0
   57.4996   33.7386   43.6337 H   0  0  0  0  0  0  0  0  0  0  0  0
   56.7428   31.7548   43.0187 H   0  0  0  0  0  0  0  0  0  0  0  0
   55.9374   29.2778   42.9494 H   0  0  0  0  0  0  0  0  0  0  0  0
   56.8275   27.8435   44.9720 H   0  0  0  0  0  0  0  0  0  0  0  0
  1  2  1  0
  2  3  2  0
  3  4  1  0
  4  5  2  0
  5  6  1  0
  6  7  2  0
  7  8  1  0
  8  9  2  0
  9 10  1  0
 10 11  2  0
 11 12  1  0
 12 13  1  0
 13 14  2  0
 14 15  1  0
 15 16  2  0
 16 17  1  0
 12 18  2  0
  7  2  1  0
 18  8  1  0
 17 13  1  0
  1 19  1  0
  1 20  1  0
  1 21  1  0
  3 22  1  0
  4 23  1  0
  5 24  1  0
  6 25  1  0
  9 26  1  0
 10 27  1  0
 11 28  1  0
 14 29  1  0
 15 30  1  0
 16 31  1  0
M  END
>  <UniqueID>  (26) 
25

>  <SMILES>  (26) 
Cc1ccccc1-c1cccc(-c2cccs2)n1

>  <Energy>  (26) 
67.79412959677914

>  <Genealogy>  (26) 
Cc1ccccc1-c1cccc(-c2cccs2)n1 (3D coordinates assigned)
Cc1ccccc1-c1cccc(-c2cccs2)n1 (optimized conformer: 67.79412959677914 kcal/mol)

>  <smiles>  (26) 
Cc1ccccc1-c1cccc(-c2cccs2)n1

>  <score_type>  (26) 
oracle

>  <origin>  (26) 
adg

>  <m_score__min__energy>  (26) 
-7.3399999999999999

>  <m_primary>  (26) 
energy

$$$$
26:0
     RDKit          3D

 42 43  0  0  0  0  0  0  0  0999 V2000
   57.7700   31.7200   43.0740 C   0  0  0  0  0  0  0  0  0  0  0  0
   57.0320   31.7710   44.4200 C   0  0  0  0  0  0  0  0  0  0  0  0
   57.2160   30.5550   45.2430 N   0  0  0  0  0  0  0  0  0  0  0  0
   56.6900   29.3310   44.5900 C   0  0  0  0  0  0  0  0  0  0  0  0
   57.2920   28.0930   45.2450 C   0  0  0  0  0  0  0  0  0  0  0  0
   58.6060   30.4090   45.7310 C   0  0  0  0  0  0  0  0  0  0  0  0
   58.8210   31.2200   46.9910 C   0  0  0  0  0  0  0  0  0  0  0  0
   58.7860   30.5840   48.2520 C   0  0  0  0  0  0  0  0  0  0  0  0
   58.5460   29.2070   48.3160 O   0  0  0  0  0  0  0  0  0  0  0  0
   59.5920   28.2480   48.2020 C   0  0  0  0  0  0  0  0  0  0  0  0
   58.9510   31.3420   49.4360 C   0  0  0  0  0  0  0  0  0  0  0  0
   58.8500   30.7050   50.8030 C   0  0  0  0  0  0  0  0  0  0  0  0
   57.6050   30.0860   50.9780 O   0  0  0  0  0  0  0  0  0  0  0  0
   59.2210   32.7150   49.3440 C   0  0  0  0  0  0  0  0  0  0  0  0
   59.2910   33.3440   48.0990 C   0  0  0  0  0  0  0  0  0  0  0  0
   59.5590   34.7140   47.9940 C   0  0  0  0  0  0  0  0  0  0  0  0
   59.6140   35.3070   46.7350 C   0  0  0  0  0  0  0  0  0  0  0  0
   59.3970   34.5150   45.6050 C   0  0  0  0  0  0  0  0  0  0  0  0
   59.4410   35.0290   44.4570 O   0  0  0  0  0  0  0  0  0  0  0  0
   59.1430   33.2160   45.7340 O   0  0  0  0  0  0  0  0  0  0  0  0
   59.0830   32.6030   46.9170 C   0  0  0  0  0  0  0  0  0  0  0  0
   58.8529   31.6452   43.2522 H   0  0  0  0  0  0  0  0  0  0  0  0
   57.4309   30.8431   42.5029 H   0  0  0  0  0  0  0  0  0  0  0  0
   57.5548   32.6352   42.5029 H   0  0  0  0  0  0  0  0  0  0  0  0
   57.4052   32.6355   44.9886 H   0  0  0  0  0  0  0  0  0  0  0  0
   55.9579   31.8495   44.1962 H   0  0  0  0  0  0  0  0  0  0  0  0
   55.5954   29.3033   44.6952 H   0  0  0  0  0  0  0  0  0  0  0  0
   56.9613   29.3445   43.5241 H   0  0  0  0  0  0  0  0  0  0  0  0
   57.2419   28.1960   46.3390 H   0  0  0  0  0  0  0  0  0  0  0  0
   56.7265   27.2021   44.9343 H   0  0  0  0  0  0  0  0  0  0  0  0
   58.3419   27.9876   44.9343 H   0  0  0  0  0  0  0  0  0  0  0  0
   58.8030   29.3485   45.9466 H   0  0  0  0  0  0  0  0  0  0  0  0
   59.2929   30.7756   44.9540 H   0  0  0  0  0  0  0  0  0  0  0  0
   59.9226   27.9449   49.2064 H   0  0  0  0  0  0  0  0  0  0  0  0
   59.2238   27.3670   47.6558 H   0  0  0  0  0  0  0  0  0  0  0  0
   60.4378   28.6911   47.6558 H   0  0  0  0  0  0  0  0  0  0  0  0
   59.6443   29.9514   50.9082 H   0  0  0  0  0  0  0  0  0  0  0  0
   58.9608   31.4908   51.5648 H   0  0  0  0  0  0  0  0  0  0  0  0
   57.3950   29.6270   50.1220 H   0  0  0  0  0  0  0  0  0  0  0  0
   59.3791   33.3020   50.2608 H   0  0  0  0  0  0  0  0  0  0  0  0
   59.7248   35.3174   48.8987 H   0  0  0  0  0  0  0  0  0  0  0  0
   59.8249   36.3817   46.6321 H   0  0  0  0  0  0  0  0  0  0  0  0
  1  2  1  0
  2  3  1  0
  3  4  1  0
  4  5  1  0
  3  6  1  0
  6  7  1  0
  7  8  2  0
  8  9  1  0
  9 10  1  0
  8 11  1  0
 11 12  1  0
 12 13  1  0
 11 14  2  0
 14 15  1  0
 15 16  1  0
 16 17  2  0
 17 18  1  0
 18 19  2  0
 18 20  1  0
 20 21  1  0
 21  7  1  0
 21 15  2  0
  1 22  1  0
  1 23  1  0
  1 24  1  0
  2 25  1  0
  2 26  1  0
  4 27  1  0
  4 28  1  0
  5 29  1  0
  5 30  1  0
  5 31  1  0
  6 32  1  0
  6 33  1  0
 10 34  1  0
 10 35  1  0
 10 36  1  0
 12 37  1  0
 12 38  1  0
 13 39  1  0
 14 40  1  0
 16 41  1  0
 17 42  1  0
M  END
>  <UniqueID>  (27) 
26

>  <SMILES>  (27) 
CCN(CC)Cc1c(OC)c(CO)cc2ccc(=O)oc12

>  <Energy>  (27) 
53.06747807191045

>  <Genealogy>  (27) 
CCN(CC)Cc1c(OC)c(CO)cc2ccc(=O)oc12 (3D coordinates assigned)
CCN(CC)Cc1c(OC)c(CO)cc2ccc(=O)oc12 (optimized conformer: 53.06747807191045 kcal/mol)

>  <smiles>  (27) 
CCN(CC)Cc1c(OC)c(CO)cc2ccc(=O)oc12

>  <score_type>  (27) 
oracle

>  <origin>  (27) 
adg

>  <m_score__min__energy>  (27) 
-6.0199999999999996

>  <m_primary>  (27) 
energy

$$$$
27:0
     RDKit          3D

 40 42  0  0  0  0  0  0  0  0999 V2000
   56.2700   32.0080   45.1470 O   0  0  0  0  0  0  0  0  0  0  0  0
   57.3980   32.3050   45.6270 C   0  0  0  0  0  0  0  0  0  0  0  0
   58.4000   31.2860   45.7890 N   0  0  0  0  0  0  0  0  0  0  0  0
   58.3440   30.0120   45.1250 C   0  0  0  0  0  0  0  0  0  0  0  0
   57.4430   29.8000   44.0650 C   0  0  0  0  0  0  0  0  0  0  0  0
   57.4110   28.5720   43.3980 C   0  0  0  0  0  0  0  0  0  0  0  0
   58.2810   27.5480   43.7740 C   0  0  0  0  0  0  0  0  0  0  0  0
   59.1890   27.7500   44.8150 C   0  0  0  0  0  0  0  0  0  0  0  0
   59.2300   28.9770   45.4880 C   0  0  0  0  0  0  0  0  0  0  0  0
   60.3770   29.1740   46.8080 Cl  0  0  0  0  0  0  0  0  0  0  0  0
   57.6680   33.7390   46.0260 C   0  0  0  0  0  0  0  0  0  0  0  0
   58.2300   33.8510   47.4730 C   0  0  0  0  0  0  0  0  0  0  0  0
   59.5820   34.5720   47.5450 C   0  0  0  0  0  0  0  0  0  0  0  0
   60.4760   34.0740   46.4930 N   0  0  0  0  0  0  0  0  0  0  0  0
   61.8480   33.7540   46.7810 C   0  0  0  0  0  0  0  0  0  0  0  0
   62.7600   34.2230   46.0470 O   0  0  0  0  0  0  0  0  0  0  0  0
   62.2140   32.8540   47.8910 C   0  0  0  0  0  0  0  0  0  0  0  0
   63.5050   32.6280   48.3570 C   0  0  0  0  0  0  0  0  0  0  0  0
   63.5670   31.6770   49.3840 C   0  0  0  0  0  0  0  0  0  0  0  0
   62.3330   31.1420   49.7250 C   0  0  0  0  0  0  0  0  0  0  0  0
   61.1660   31.8520   48.7470 S   0  0  0  0  0  0  0  0  0  0  0  0
   60.0320   34.0890   45.0930 C   0  0  0  0  0  0  0  0  0  0  0  0
   58.5440   34.4490   44.9690 C   0  0  0  0  0  0  0  0  0  0  0  0
   59.1960   31.4680   46.4390 H   0  0  0  0  0  0  0  0  0  0  0  0
   56.7595   30.6058   43.7593 H   0  0  0  0  0  0  0  0  0  0  0  0
   56.6986   28.4126   42.5751 H   0  0  0  0  0  0  0  0  0  0  0  0
   58.2514   26.5813   43.2500 H   0  0  0  0  0  0  0  0  0  0  0  0
   59.8752   26.9416   45.1077 H   0  0  0  0  0  0  0  0  0  0  0  0
   56.7068   34.2733   46.0490 H   0  0  0  0  0  0  0  0  0  0  0  0
   57.5053   34.4059   48.0870 H   0  0  0  0  0  0  0  0  0  0  0  0
   58.3872   32.8266   47.8415 H   0  0  0  0  0  0  0  0  0  0  0  0
   59.4259   35.6523   47.4085 H   0  0  0  0  0  0  0  0  0  0  0  0
   60.0399   34.3810   48.5267 H   0  0  0  0  0  0  0  0  0  0  0  0
   64.3903   33.1451   47.9584 H   0  0  0  0  0  0  0  0  0  0  0  0
   64.5064   31.3820   49.8743 H   0  0  0  0  0  0  0  0  0  0  0  0
   62.1504   30.3843   50.5012 H   0  0  0  0  0  0  0  0  0  0  0  0
   60.6251   34.8319   44.5395 H   0  0  0  0  0  0  0  0  0  0  0  0
   60.1748   33.0800   44.6788 H   0  0  0  0  0  0  0  0  0  0  0  0
   58.4335   35.5363   45.0934 H   0  0  0  0  0  0  0  0  0  0  0  0
   58.2033   34.1161   43.9775 H   0  0  0  0  0  0  0  0  0  0  0  0
  1  2  2  0
  2  3  1  0
  3  4  1  0
  4  5  2  0
  5  6  1  0
  6  7  2  0
  7  8  1  0
  8  9  2  0
  9 10  1  0
  2 11  1  0
 11 12  1  0
 12 13  1  0
 13 14  1  0
 14 15  1  0
 15 16  2  0
 15 17  1  0
 17 18  2  0
 18 19  1  0
 19 20  2  0
 20 21  1  0
 14 22  1  0
 22 23  1  0
  9  4  1  0
 23 11  1  0
 21 17  1  0
  3 24  1  0
  5 25  1  0
  6 26  1  0
  7 27  1  0
  8 28  1  0
 11 29  1  0
 12 30  1  0
 12 31  1  0
 13 32  1  0
 13 33  1  0
 18 34  1  0
 19 35  1  0
 20 36  1  0
 22 37  1  0
 22 38  1  0
 23 39  1  0
 23 40  1  0
M  END
>  <UniqueID>  (28) 
27

>  <SMILES>  (28) 
O=C(Nc1ccccc1Cl)C1CCN(C(=O)c2cccs2)CC1

>  <Energy>  (28) 
76.2083046381515

>  <Genealogy>  (28) 
O=C(Nc1ccccc1Cl)C1CCN(C(=O)c2cccs2)CC1 (3D coordinates assigned)
O=C(Nc1ccccc1Cl)C1CCN(C(=O)c2cccs2)CC1 (nonaromatic ring conformer: 76.2083046381515 kcal/mol)

>  <smiles>  (28) 
O=C(Nc1ccccc1Cl)C1CCN(C(=O)c2cccs2)CC1

>  <score_type>  (28) 
oracle

>  <origin>  (28) 
adg

>  <m_score__min__energy>  (28) 
-7.9800000000000004

>  <m_primary>  (28) 
energy

$$$$
28:0
     RDKit          3D

 51 53  0  0  0  0  0  0  0  0999 V2000
   57.7720   34.0700   45.7960 C   0  0  0  0  0  0  0  0  0  0  0  0
   57.7890   33.1780   44.2110 S   0  0  0  0  0  0  0  0  0  0  0  0
   58.1100   31.5860   44.9730 C   0  0  0  0  0  0  0  0  0  0  0  0
   57.7730   30.4070   44.2990 C   0  0  0  0  0  0  0  0  0  0  0  0
   58.0100   29.1690   44.8980 C   0  0  0  0  0  0  0  0  0  0  0  0
   58.5930   29.1020   46.1660 C   0  0  0  0  0  0  0  0  0  0  0  0
   58.9560   30.2780   46.8480 C   0  0  0  0  0  0  0  0  0  0  0  0
   59.5490   30.2020   48.1580 N   0  0  0  0  0  0  0  0  0  0  0  0
   58.8310   29.9070   49.3930 C   0  0  0  0  0  0  0  0  0  0  0  0
   59.8520   30.1390   50.5290 C   0  0  0  0  0  0  0  0  0  0  0  0
   61.1610   30.2390   49.8830 N   0  0  0  0  0  0  0  0  0  0  0  0
   62.3600   30.7050   50.5830 C   0  0  0  0  0  0  0  0  0  0  0  0
   62.4720   32.2420   50.6840 C   0  0  0  0  0  0  0  0  0  0  0  0
   62.2390   33.0440   49.4480 N   0  0  0  0  0  0  0  0  0  0  0  0
   60.9530   33.7930   49.3910 C   0  0  0  0  0  0  0  0  0  0  0  0
   60.4820   34.2210   47.9900 C   0  0  0  0  0  0  0  0  0  0  0  0
   61.1680   33.4520   46.8540 C   0  0  0  0  0  0  0  0  0  0  0  0
   62.5490   34.0000   46.4680 C   0  0  0  0  0  0  0  0  0  0  0  0
   63.6860   33.4310   47.3280 C   0  0  0  0  0  0  0  0  0  0  0  0
   63.4600   33.6510   48.8360 C   0  0  0  0  0  0  0  0  0  0  0  0
   60.9140   30.3770   48.4930 C   0  0  0  0  0  0  0  0  0  0  0  0
   61.8150   30.6220   47.6470 O   0  0  0  0  0  0  0  0  0  0  0  0
   58.6990   31.5220   46.2410 C   0  0  0  0  0  0  0  0  0  0  0  0
   57.7858   33.3462   46.6242 H   0  0  0  0  0  0  0  0  0  0  0  0
   58.6579   34.7187   45.8612 H   0  0  0  0  0  0  0  0  0  0  0  0
   56.8620   34.6845   45.8612 H   0  0  0  0  0  0  0  0  0  0  0  0
   57.3213   30.4559   43.2972 H   0  0  0  0  0  0  0  0  0  0  0  0
   57.7370   28.2432   44.3703 H   0  0  0  0  0  0  0  0  0  0  0  0
   58.7695   28.1226   46.6346 H   0  0  0  0  0  0  0  0  0  0  0  0
   57.9691   30.5809   49.5071 H   0  0  0  0  0  0  0  0  0  0  0  0
   58.4376   28.8798   49.4011 H   0  0  0  0  0  0  0  0  0  0  0  0
   59.6196   31.0698   51.0671 H   0  0  0  0  0  0  0  0  0  0  0  0
   59.8279   29.3214   51.2645 H   0  0  0  0  0  0  0  0  0  0  0  0
   62.3479   30.2915   51.6023 H   0  0  0  0  0  0  0  0  0  0  0  0
   63.2245   30.3612   49.9961 H   0  0  0  0  0  0  0  0  0  0  0  0
   61.7384   32.5749   51.4330 H   0  0  0  0  0  0  0  0  0  0  0  0
   63.5273   32.4246   50.9350 H   0  0  0  0  0  0  0  0  0  0  0  0
   62.0390   32.2670   48.7700 H   0  0  0  0  0  0  0  0  0  0  0  0
   60.1717   33.1536   49.8277 H   0  0  0  0  0  0  0  0  0  0  0  0
   61.1304   34.7282   49.9423 H   0  0  0  0  0  0  0  0  0  0  0  0
   59.3974   34.0515   47.9202 H   0  0  0  0  0  0  0  0  0  0  0  0
   60.7464   35.2819   47.8692 H   0  0  0  0  0  0  0  0  0  0  0  0
   61.2880   32.4050   47.1694 H   0  0  0  0  0  0  0  0  0  0  0  0
   60.5261   33.5588   45.9671 H   0  0  0  0  0  0  0  0  0  0  0  0
   62.7449   33.7452   45.4160 H   0  0  0  0  0  0  0  0  0  0  0  0
   62.5272   35.0875   46.6320 H   0  0  0  0  0  0  0  0  0  0  0  0
   63.7636   32.3503   47.1380 H   0  0  0  0  0  0  0  0  0  0  0  0
   64.6091   33.9609   47.0502 H   0  0  0  0  0  0  0  0  0  0  0  0
   64.3326   33.2380   49.3633 H   0  0  0  0  0  0  0  0  0  0  0  0
   63.3156   34.7364   48.9416 H   0  0  0  0  0  0  0  0  0  0  0  0
   58.9632   32.4510   46.7675 H   0  0  0  0  0  0  0  0  0  0  0  0
  1  2  1  0
  2  3  1  0
  3  4  2  0
  4  5  1  0
  5  6  2  0
  6  7  1  0
  7  8  1  0
  8  9  1  0
  9 10  1  0
 10 11  1  0
 11 12  1  0
 12 13  1  0
 13 14  1  0
 14 15  1  0
 15 16  1  0
 16 17  1  0
 17 18  1  0
 18 19  1  0
 19 20  1  0
 11 21  1  0
 21 22  2  0
  7 23  2  0
 23  3  1  0
 21  8  1  0
 20 14  1  0
  1 24  1  0
  1 25  1  0
  1 26  1  0
  4 27  1  0
  5 28  1  0
  6 29  1  0
  9 30  1  0
  9 31  1  0
 10 32  1  0
 10 33  1  0
 12 34  1  0
 12 35  1  0
 13 36  1  0
 13 37  1  0
 14 38  1  0
 15 39  1  0
 15 40  1  0
 16 41  1  0
 16 42  1  0
 17 43  1  0
 17 44  1  0
 18 45  1  0
 18 46  1  0
 19 47  1  0
 19 48  1  0
 20 49  1  0
 20 50  1  0
 23 51  1  0
M  CHG  1  14   1
M  END
>  <UniqueID>  (29) 
28

>  <SMILES>  (29) 
CSc1cccc(N2CCN(CC[NH+]3CCCCCC3)C2=O)c1

>  <Energy>  (29) 
87.1828405331441

>  <Genealogy>  (29) 
CSc1cccc(N2CCN(CC[NH+]3CCCCCC3)C2=O)c1 (protonated)
CSc1cccc(N2CCN(CC[NH+]3CCCCCC3)C2=O)c1 (3D coordinates assigned)
CSc1cccc(N2CCN(CC[NH+]3CCCCCC3)C2=O)c1 (nonaromatic ring conformer: 87.1828405331441 kcal/mol)

>  <smiles>  (29) 
CSc1cccc(N2CCN(CCN3CCCCCC3)C2=O)c1

>  <score_type>  (29) 
oracle

>  <origin>  (29) 
adg

>  <m_score__min__energy>  (29) 
-3.9199999999999999

>  <m_primary>  (29) 
energy

$$$$
29:0
     RDKit          3D

 63 66  0  0  0  0  0  0  0  0999 V2000
   54.3450   25.0650   45.5930 C   0  0  0  0  0  0  0  0  0  0  0  0
   54.9740   26.3320   45.7520 O   0  0  0  0  0  0  0  0  0  0  0  0
   56.2910   26.5200   46.2010 C   0  0  0  0  0  0  0  0  0  0  0  0
   56.9270   25.5860   47.0430 C   0  0  0  0  0  0  0  0  0  0  0  0
   58.2310   25.8090   47.4910 C   0  0  0  0  0  0  0  0  0  0  0  0
   58.9270   26.9620   47.1020 C   0  0  0  0  0  0  0  0  0  0  0  0
   60.3090   27.2290   47.6310 C   0  0  0  0  0  0  0  0  0  0  0  0
   60.2360   28.1500   48.8120 C   0  0  0  0  0  0  0  0  0  0  0  0
   60.9030   27.8450   50.0090 C   0  0  0  0  0  0  0  0  0  0  0  0
   60.7860   28.6770   51.0790 N   0  0  0  0  0  0  0  0  0  0  0  0
   60.0190   29.8010   51.0120 C   0  0  0  0  0  0  0  0  0  0  0  0
   59.8930   30.6600   52.1150 C   0  0  0  0  0  0  0  0  0  0  0  0
   59.0940   31.8040   52.0220 C   0  0  0  0  0  0  0  0  0  0  0  0
   58.4170   32.0960   50.8320 C   0  0  0  0  0  0  0  0  0  0  0  0
   58.5380   31.2460   49.7270 C   0  0  0  0  0  0  0  0  0  0  0  0
   59.3360   30.1010   49.8140 C   0  0  0  0  0  0  0  0  0  0  0  0
   59.4610   29.2660   48.7490 N   0  0  0  0  0  0  0  0  0  0  0  0
   58.2970   27.8980   46.2710 C   0  0  0  0  0  0  0  0  0  0  0  0
   56.9900   27.6780   45.8040 C   0  0  0  0  0  0  0  0  0  0  0  0
   56.3250   28.7240   44.9430 C   0  0  0  0  0  0  0  0  0  0  0  0
   57.3500   29.7760   44.4920 C   0  0  0  0  0  0  0  0  0  0  0  0
   57.2880   31.0330   45.2660 N   0  0  0  0  0  0  0  0  0  0  0  0
   57.0650   32.2740   44.4960 C   0  0  0  0  0  0  0  0  0  0  0  0
   58.3350   33.1250   44.3040 C   0  0  0  0  0  0  0  0  0  0  0  0
   59.1540   33.2330   45.5250 N   0  0  0  0  0  0  0  0  0  0  0  0
   58.9120   34.3760   46.4470 C   0  0  0  0  0  0  0  0  0  0  0  0
   59.2590   33.9580   47.8790 C   0  0  0  0  0  0  0  0  0  0  0  0
   59.6570   35.6670   46.0710 C   0  0  0  0  0  0  0  0  0  0  0  0
   59.4450   31.9350   46.1530 C   0  0  0  0  0  0  0  0  0  0  0  0
   58.1700   31.1350   46.4410 C   0  0  0  0  0  0  0  0  0  0  0  0
   54.1315   24.6349   46.5826 H   0  0  0  0  0  0  0  0  0  0  0  0
   53.4043   25.1899   45.0367 H   0  0  0  0  0  0  0  0  0  0  0  0
   55.0132   24.3911   45.0367 H   0  0  0  0  0  0  0  0  0  0  0  0
   56.3926   24.6747   47.3496 H   0  0  0  0  0  0  0  0  0  0  0  0
   58.7147   25.0756   48.1529 H   0  0  0  0  0  0  0  0  0  0  0  0
   60.7717   26.2793   47.9375 H   0  0  0  0  0  0  0  0  0  0  0  0
   60.9133   27.7003   46.8419 H   0  0  0  0  0  0  0  0  0  0  0  0
   61.5183   26.9361   50.0816 H   0  0  0  0  0  0  0  0  0  0  0  0
   61.2940   28.4340   51.9600 H   0  0  0  0  0  0  0  0  0  0  0  0
   60.4225   30.4334   53.0522 H   0  0  0  0  0  0  0  0  0  0  0  0
   58.9972   32.4767   52.8869 H   0  0  0  0  0  0  0  0  0  0  0  0
   57.7882   32.9961   50.7654 H   0  0  0  0  0  0  0  0  0  0  0  0
   58.0067   31.4780   48.7922 H   0  0  0  0  0  0  0  0  0  0  0  0
   58.8313   28.8148   45.9811 H   0  0  0  0  0  0  0  0  0  0  0  0
   55.8882   28.2401   44.0569 H   0  0  0  0  0  0  0  0  0  0  0  0
   55.5375   29.2208   45.5287 H   0  0  0  0  0  0  0  0  0  0  0  0
   58.3578   29.3491   44.6024 H   0  0  0  0  0  0  0  0  0  0  0  0
   57.1143   30.0286   43.4477 H   0  0  0  0  0  0  0  0  0  0  0  0
   56.6774   32.0010   43.5034 H   0  0  0  0  0  0  0  0  0  0  0  0
   56.3549   32.8849   45.0727 H   0  0  0  0  0  0  0  0  0  0  0  0
   58.9464   32.6665   43.5128 H   0  0  0  0  0  0  0  0  0  0  0  0
   58.0092   34.1417   44.0389 H   0  0  0  0  0  0  0  0  0  0  0  0
   57.8434   34.6219   46.3603 H   0  0  0  0  0  0  0  0  0  0  0  0
   58.7227   34.6040   48.5897 H   0  0  0  0  0  0  0  0  0  0  0  0
   58.9607   32.9112   48.0379 H   0  0  0  0  0  0  0  0  0  0  0  0
   60.3428   34.0586   48.0379 H   0  0  0  0  0  0  0  0  0  0  0  0
   59.9615   36.1946   46.9869 H   0  0  0  0  0  0  0  0  0  0  0  0
   60.5492   35.4162   45.4785 H   0  0  0  0  0  0  0  0  0  0  0  0
   58.9934   36.3140   45.4785 H   0  0  0  0  0  0  0  0  0  0  0  0
   60.0858   31.3497   45.4771 H   0  0  0  0  0  0  0  0  0  0  0  0
   59.9477   32.1280   47.1122 H   0  0  0  0  0  0  0  0  0  0  0  0
   58.4545   30.1205   46.7571 H   0  0  0  0  0  0  0  0  0  0  0  0
   57.6151   31.6649   47.2292 H   0  0  0  0  0  0  0  0  0  0  0  0
  1  2  1  0
  2  3  1  0
  3  4  2  0
  4  5  1  0
  5  6  2  0
  6  7  1  0
  7  8  1  0
  8  9  2  0
  9 10  1  0
 10 11  2  0
 11 12  1  0
 12 13  2  0
 13 14  1  0
 14 15  2  0
 15 16  1  0
 16 17  2  0
  6 18  1  0
 18 19  2  0
 19 20  1  0
 20 21  1  0
 21 22  1  0
 22 23  1  0
 23 24  1  0
 24 25  1  0
 25 26  1  0
 26 27  1  0
 26 28  1  0
 25 29  1  0
 29 30  1  0
 19  3  1  0
 30 22  1  0
 17  8  1  0
 16 11  1  0
  1 31  1  0
  1 32  1  0
  1 33  1  0
  4 34  1  0
  5 35  1  0
  7 36  1  0
  7 37  1  0
  9 38  1  0
 10 39  1  0
 12 40  1  0
 13 41  1  0
 14 42  1  0
 15 43  1  0
 18 44  1  0
 20 45  1  0
 20 46  1  0
 21 47  1  0
 21 48  1  0
 23 49  1  0
 23 50  1  0
 24 51  1  0
 24 52  1  0
 26 53  1  0
 27 54  1  0
 27 55  1  0
 27 56  1  0
 28 57  1  0
 28 58  1  0
 28 59  1  0
 29 60  1  0
 29 61  1  0
 30 62  1  0
 30 63  1  0
M  CHG  1  10   1
M  END
>  <UniqueID>  (30) 
29

>  <SMILES>  (30) 
COc1ccc(Cc2c[nH+]c3ccccc3n2)cc1CCN1CCN(C(C)C)CC1

>  <Energy>  (30) 
83.01656536687095

>  <Genealogy>  (30) 
COc1ccc(Cc2c[nH+]c3ccccc3n2)cc1CCN1CCN(C(C)C)CC1 (protonated)
COc1ccc(Cc2c[nH+]c3ccccc3n2)cc1CCN1CCN(C(C)C)CC1 (3D coordinates assigned)
COc1ccc(Cc2c[nH+]c3ccccc3n2)cc1CCN1CCN(C(C)C)CC1 (nonaromatic ring conformer: 83.01656536687095 kcal/mol)

>  <smiles>  (30) 
COc1ccc(Cc2cnc3ccccc3n2)cc1CCN1CCN(C(C)C)CC1

>  <score_type>  (30) 
oracle

>  <origin>  (30) 
adg

>  <m_score__min__energy>  (30) 
-8.0700000000000003

>  <m_primary>  (30) 
energy

$$$$
30:0
     RDKit          3D

 38 40  0  0  0  0  0  0  0  0999 V2000
   55.2640   30.4700   44.4060 O   0  0  0  0  0  0  0  0  0  0  0  0
   56.3260   29.8550   44.6890 C   0  0  0  0  0  0  0  0  0  0  0  0
   56.3390   28.6610   45.2540 O   0  0  0  0  0  0  0  0  0  0  0  0
   57.6050   28.3570   45.4070 C   0  0  0  0  0  0  0  0  0  0  0  0
   58.1580   27.2050   45.9550 C   0  0  0  0  0  0  0  0  0  0  0  0
   59.5620   27.1200   46.0170 C   0  0  0  0  0  0  0  0  0  0  0  0
   60.3650   28.1810   45.5410 C   0  0  0  0  0  0  0  0  0  0  0  0
   59.7750   29.3360   44.9940 C   0  0  0  0  0  0  0  0  0  0  0  0
   58.3790   29.3830   44.9340 C   0  0  0  0  0  0  0  0  0  0  0  0
   57.5690   30.3490   44.4540 N   0  0  0  0  0  0  0  0  0  0  0  0
   57.9270   31.6280   43.8300 C   0  0  0  0  0  0  0  0  0  0  0  0
   57.3390   32.8250   44.5960 C   0  0  0  0  0  0  0  0  0  0  0  0
   58.2090   33.3170   45.7660 C   0  0  0  0  0  0  0  0  0  0  0  0
   59.2840   34.3200   45.3300 C   0  0  0  0  0  0  0  0  0  0  0  0
   60.2720   34.4740   46.3500 O   0  0  0  0  0  0  0  0  0  0  0  0
   61.2070   33.5010   46.7380 C   0  0  0  0  0  0  0  0  0  0  0  0
   62.5670   33.8330   46.6850 C   0  0  0  0  0  0  0  0  0  0  0  0
   63.5420   32.9030   47.0630 C   0  0  0  0  0  0  0  0  0  0  0  0
   63.1630   31.6310   47.4980 C   0  0  0  0  0  0  0  0  0  0  0  0
   61.8090   31.2880   47.5580 C   0  0  0  0  0  0  0  0  0  0  0  0
   61.4420   30.0530   47.9830 F   0  0  0  0  0  0  0  0  0  0  0  0
   60.8340   32.2160   47.1810 C   0  0  0  0  0  0  0  0  0  0  0  0
   57.5211   26.3889   46.3269 H   0  0  0  0  0  0  0  0  0  0  0  0
   60.0370   26.2219   46.4387 H   0  0  0  0  0  0  0  0  0  0  0  0
   61.4608   28.1036   45.5985 H   0  0  0  0  0  0  0  0  0  0  0  0
   60.3898   30.1711   44.6271 H   0  0  0  0  0  0  0  0  0  0  0  0
   59.0230   31.7207   43.8127 H   0  0  0  0  0  0  0  0  0  0  0  0
   57.5117   31.6381   42.8115 H   0  0  0  0  0  0  0  0  0  0  0  0
   57.2105   33.6574   43.8884 H   0  0  0  0  0  0  0  0  0  0  0  0
   56.3884   32.4839   45.0319 H   0  0  0  0  0  0  0  0  0  0  0  0
   57.5575   33.8013   46.5083 H   0  0  0  0  0  0  0  0  0  0  0  0
   58.7256   32.4406   46.1844 H   0  0  0  0  0  0  0  0  0  0  0  0
   59.7668   33.9557   44.4112 H   0  0  0  0  0  0  0  0  0  0  0  0
   58.8069   35.2944   45.1488 H   0  0  0  0  0  0  0  0  0  0  0  0
   62.8711   34.8334   46.3433 H   0  0  0  0  0  0  0  0  0  0  0  0
   64.6072   33.1738   47.0175 H   0  0  0  0  0  0  0  0  0  0  0  0
   63.9295   30.8994   47.7933 H   0  0  0  0  0  0  0  0  0  0  0  0
   59.7698   31.9419   47.2303 H   0  0  0  0  0  0  0  0  0  0  0  0
  1  2  2  0
  2  3  1  0
  3  4  1  0
  4  5  2  0
  5  6  1  0
  6  7  2  0
  7  8  1  0
  8  9  2  0
  9 10  1  0
 10 11  1  0
 11 12  1  0
 12 13  1  0
 13 14  1  0
 14 15  1  0
 15 16  1  0
 16 17  2  0
 17 18  1  0
 18 19  2  0
 19 20  1  0
 20 21  1  0
 20 22  2  0
 10  2  1  0
 22 16  1  0
  9  4  1  0
  5 23  1  0
  6 24  1  0
  7 25  1  0
  8 26  1  0
 11 27  1  0
 11 28  1  0
 12 29  1  0
 12 30  1  0
 13 31  1  0
 13 32  1  0
 14 33  1  0
 14 34  1  0
 17 35  1  0
 18 36  1  0
 19 37  1  0
 22 38  1  0
M  END
>  <UniqueID>  (31) 
30

>  <SMILES>  (31) 
O=c1oc2ccccc2n1CCCCOc1cccc(F)c1

>  <Energy>  (31) 
75.30365523132049

>  <Genealogy>  (31) 
O=c1oc2ccccc2n1CCCCOc1cccc(F)c1 (3D coordinates assigned)
O=c1oc2ccccc2n1CCCCOc1cccc(F)c1 (optimized conformer: 75.30365523132049 kcal/mol)

>  <smiles>  (31) 
O=c1oc2ccccc2n1CCCCOc1cccc(F)c1

>  <score_type>  (31) 
oracle

>  <origin>  (31) 
adg

>  <m_score__min__energy>  (31) 
-7.04

>  <m_primary>  (31) 
energy

$$$$
31:0
     RDKit          3D

 57 59  0  0  0  0  0  0  0  0999 V2000
   59.4340   34.5800   47.1650 C   0  0  0  0  0  0  0  0  0  0  0  0
   60.7660   34.2080   46.5170 C   0  0  0  0  0  0  0  0  0  0  0  0
   61.1360   32.8200   46.8740 N   0  0  0  0  0  0  0  0  0  0  0  0
   62.5390   32.7400   47.3410 C   0  0  0  0  0  0  0  0  0  0  0  0
   63.3770   33.8390   46.6950 C   0  0  0  0  0  0  0  0  0  0  0  0
   60.2070   32.2610   47.8850 C   0  0  0  0  0  0  0  0  0  0  0  0
   60.1660   30.7330   47.7700 C   0  0  0  0  0  0  0  0  0  0  0  0
   60.2370   30.2840   46.3030 C   0  0  0  0  0  0  0  0  0  0  0  0
   58.8920   29.9130   45.8000 N   0  0  0  0  0  0  0  0  0  0  0  0
   58.1500   30.8400   45.0880 C   0  0  0  0  0  0  0  0  0  0  0  0
   58.6650   32.2290   44.7790 C   0  0  0  0  0  0  0  0  0  0  0  0
   56.8560   30.5290   44.6560 C   0  0  0  0  0  0  0  0  0  0  0  0
   56.3140   29.2760   44.8950 C   0  0  0  0  0  0  0  0  0  0  0  0
   55.1450   29.0260   44.4910 O   0  0  0  0  0  0  0  0  0  0  0  0
   57.0700   28.3100   45.5680 C   0  0  0  0  0  0  0  0  0  0  0  0
   56.5430   27.0240   45.7990 C   0  0  0  0  0  0  0  0  0  0  0  0
   57.3040   26.0470   46.4430 C   0  0  0  0  0  0  0  0  0  0  0  0
   56.6440   24.4410   46.7390 S   0  0  0  0  0  0  0  0  0  0  0  0
   55.1430   24.5030   46.7370 O   0  0  0  0  0  0  0  0  0  0  0  0
   57.0880   23.9330   48.0850 O   0  0  0  0  0  0  0  0  0  0  0  0
   57.2030   23.3470   45.4790 C   0  0  0  0  0  0  0  0  0  0  0  0
   58.5150   22.8520   45.5010 C   0  0  0  0  0  0  0  0  0  0  0  0
   58.9600   21.9950   44.4890 C   0  0  0  0  0  0  0  0  0  0  0  0
   58.0990   21.6330   43.4490 C   0  0  0  0  0  0  0  0  0  0  0  0
   56.7930   22.1320   43.4180 C   0  0  0  0  0  0  0  0  0  0  0  0
   56.3460   22.9890   44.4280 C   0  0  0  0  0  0  0  0  0  0  0  0
   58.5940   26.3510   46.8730 C   0  0  0  0  0  0  0  0  0  0  0  0
   59.1290   27.6210   46.6640 C   0  0  0  0  0  0  0  0  0  0  0  0
   58.3820   28.6370   46.0130 C   0  0  0  0  0  0  0  0  0  0  0  0
   59.5380   34.5509   48.2597 H   0  0  0  0  0  0  0  0  0  0  0  0
   59.1439   35.5935   46.8510 H   0  0  0  0  0  0  0  0  0  0  0  0
   58.6607   33.8635   46.8510 H   0  0  0  0  0  0  0  0  0  0  0  0
   60.6742   34.2902   45.4239 H   0  0  0  0  0  0  0  0  0  0  0  0
   61.5464   34.8930   46.8800 H   0  0  0  0  0  0  0  0  0  0  0  0
   62.5647   32.8596   48.4342 H   0  0  0  0  0  0  0  0  0  0  0  0
   62.9543   31.7614   47.0585 H   0  0  0  0  0  0  0  0  0  0  0  0
   63.8447   34.4524   47.4793 H   0  0  0  0  0  0  0  0  0  0  0  0
   64.1595   33.3839   46.0700 H   0  0  0  0  0  0  0  0  0  0  0  0
   62.7311   34.4731   46.0700 H   0  0  0  0  0  0  0  0  0  0  0  0
   60.5517   32.5416   48.8912 H   0  0  0  0  0  0  0  0  0  0  0  0
   59.1983   32.6638   47.7108 H   0  0  0  0  0  0  0  0  0  0  0  0
   61.0212   30.3090   48.3167 H   0  0  0  0  0  0  0  0  0  0  0  0
   59.2171   30.3770   48.1975 H   0  0  0  0  0  0  0  0  0  0  0  0
   60.6357   31.1077   45.6927 H   0  0  0  0  0  0  0  0  0  0  0  0
   60.8939   29.4043   46.2350 H   0  0  0  0  0  0  0  0  0  0  0  0
   58.8634   32.7641   45.7194 H   0  0  0  0  0  0  0  0  0  0  0  0
   59.5951   32.1540   44.1965 H   0  0  0  0  0  0  0  0  0  0  0  0
   57.9109   32.7785   44.1965 H   0  0  0  0  0  0  0  0  0  0  0  0
   56.2633   31.2861   44.1217 H   0  0  0  0  0  0  0  0  0  0  0  0
   55.5209   26.7873   45.4683 H   0  0  0  0  0  0  0  0  0  0  0  0
   59.1958   23.1384   46.3161 H   0  0  0  0  0  0  0  0  0  0  0  0
   59.9885   21.6055   44.5116 H   0  0  0  0  0  0  0  0  0  0  0  0
   58.4485   20.9561   42.6555 H   0  0  0  0  0  0  0  0  0  0  0  0
   56.1165   21.8498   42.5978 H   0  0  0  0  0  0  0  0  0  0  0  0
   55.3196   23.3835   44.3984 H   0  0  0  0  0  0  0  0  0  0  0  0
   59.1950   25.5827   47.3814 H   0  0  0  0  0  0  0  0  0  0  0  0
   60.1498   27.8400   47.0103 H   0  0  0  0  0  0  0  0  0  0  0  0
  1  2  1  0
  2  3  1  0
  3  4  1  0
  4  5  1  0
  3  6  1  0
  6  7  1  0
  7  8  1  0
  8  9  1  0
  9 10  1  0
 10 11  1  0
 10 12  2  0
 12 13  1  0
 13 14  2  0
 13 15  1  0
 15 16  2  0
 16 17  1  0
 17 18  1  0
 18 19  2  0
 18 20  2  0
 18 21  1  0
 21 22  2  0
 22 23  1  0
 23 24  2  0
 24 25  1  0
 25 26  2  0
 17 27  2  0
 27 28  1  0
 28 29  2  0
 29  9  1  0
 29 15  1  0
 26 21  1  0
  1 30  1  0
  1 31  1  0
  1 32  1  0
  2 33  1  0
  2 34  1  0
  4 35  1  0
  4 36  1  0
  5 37  1  0
  5 38  1  0
  5 39  1  0
  6 40  1  0
  6 41  1  0
  7 42  1  0
  7 43  1  0
  8 44  1  0
  8 45  1  0
 11 46  1  0
 11 47  1  0
 11 48  1  0
 12 49  1  0
 16 50  1  0
 22 51  1  0
 23 52  1  0
 24 53  1  0
 25 54  1  0
 26 55  1  0
 27 56  1  0
 28 57  1  0
M  END
>  <UniqueID>  (32) 
31

>  <SMILES>  (32) 
CCN(CC)CCCn1c(C)cc(=O)c2cc(S(=O)(=O)c3ccccc3)ccc21

>  <Energy>  (32) 
69.07666827658358

>  <Genealogy>  (32) 
CCN(CC)CCCn1c(C)cc(=O)c2cc(S(=O)(=O)c3ccccc3)ccc21 (3D coordinates assigned)
CCN(CC)CCCn1c(C)cc(=O)c2cc(S(=O)(=O)c3ccccc3)ccc21 (optimized conformer: 69.07666827658358 kcal/mol)

>  <smiles>  (32) 
CCN(CC)CCCn1c(C)cc(=O)c2cc(S(=O)(=O)c3ccccc3)ccc21

>  <score_type>  (32) 
oracle

>  <origin>  (32) 
adg

>  <m_score__min__energy>  (32) 
-8.6999999999999993

>  <m_primary>  (32) 
energy

$$$$
32:0
     RDKit          3D

 39 42  0  0  0  0  0  0  0  0999 V2000
   58.1440   26.7300   42.3270 C   0  0  0  0  0  0  0  0  0  0  0  0
   57.6190   27.8410   43.0470 O   0  0  0  0  0  0  0  0  0  0  0  0
   58.2580   28.4600   44.1320 C   0  0  0  0  0  0  0  0  0  0  0  0
   59.0050   27.6620   45.0000 C   0  0  0  0  0  0  0  0  0  0  0  0
   59.6750   28.2270   46.0850 C   0  0  0  0  0  0  0  0  0  0  0  0
   59.6080   29.6080   46.3180 C   0  0  0  0  0  0  0  0  0  0  0  0
   58.8220   30.4290   45.4790 C   0  0  0  0  0  0  0  0  0  0  0  0
   58.1700   29.8450   44.3720 C   0  0  0  0  0  0  0  0  0  0  0  0
   58.7440   31.8910   45.7670 C   0  0  0  0  0  0  0  0  0  0  0  0
   57.7630   32.7290   45.2060 C   0  0  0  0  0  0  0  0  0  0  0  0
   57.7460   34.0900   45.5080 C   0  0  0  0  0  0  0  0  0  0  0  0
   58.6970   34.6080   46.3830 C   0  0  0  0  0  0  0  0  0  0  0  0
   59.6300   33.7930   46.9440 N   0  0  0  0  0  0  0  0  0  0  0  0
   59.6800   32.4570   46.6570 C   0  0  0  0  0  0  0  0  0  0  0  0
   60.6580   31.6040   47.2860 N   0  0  0  0  0  0  0  0  0  0  0  0
   61.9150   32.1290   47.7610 C   0  0  0  0  0  0  0  0  0  0  0  0
   62.5480   33.1780   47.0730 C   0  0  0  0  0  0  0  0  0  0  0  0
   63.7690   33.6840   47.5270 C   0  0  0  0  0  0  0  0  0  0  0  0
   64.3710   33.1450   48.6680 C   0  0  0  0  0  0  0  0  0  0  0  0
   63.7520   32.0980   49.3560 C   0  0  0  0  0  0  0  0  0  0  0  0
   64.3350   31.5760   50.4630 F   0  0  0  0  0  0  0  0  0  0  0  0
   62.5290   31.5890   48.9050 C   0  0  0  0  0  0  0  0  0  0  0  0
   60.3230   30.1910   47.5110 C   0  0  0  0  0  0  0  0  0  0  0  0
   58.5032   25.9699   43.0364 H   0  0  0  0  0  0  0  0  0  0  0  0
   57.3551   26.2973   41.6942 H   0  0  0  0  0  0  0  0  0  0  0  0
   58.9792   27.0647   41.6942 H   0  0  0  0  0  0  0  0  0  0  0  0
   59.0659   26.5774   44.8267 H   0  0  0  0  0  0  0  0  0  0  0  0
   60.2591   27.5858   46.7615 H   0  0  0  0  0  0  0  0  0  0  0  0
   57.5862   30.4790   43.6885 H   0  0  0  0  0  0  0  0  0  0  0  0
   57.0067   32.3089   44.5267 H   0  0  0  0  0  0  0  0  0  0  0  0
   56.9880   34.7486   45.0590 H   0  0  0  0  0  0  0  0  0  0  0  0
   58.6937   35.6818   46.6217 H   0  0  0  0  0  0  0  0  0  0  0  0
   60.2990   34.2130   47.6250 H   0  0  0  0  0  0  0  0  0  0  0  0
   62.0802   33.6030   46.1727 H   0  0  0  0  0  0  0  0  0  0  0  0
   64.2573   34.5078   46.9857 H   0  0  0  0  0  0  0  0  0  0  0  0
   65.3318   33.5451   49.0241 H   0  0  0  0  0  0  0  0  0  0  0  0
   62.0459   30.7630   49.4476 H   0  0  0  0  0  0  0  0  0  0  0  0
   61.2498   29.6252   47.6866 H   0  0  0  0  0  0  0  0  0  0  0  0
   59.6585   30.1235   48.3850 H   0  0  0  0  0  0  0  0  0  0  0  0
  1  2  1  0
  2  3  1  0
  3  4  2  0
  4  5  1  0
  5  6  2  0
  6  7  1  0
  7  8  2  0
  7  9  1  0
  9 10  2  0
 10 11  1  0
 11 12  2  0
 12 13  1  0
 13 14  2  0
 14 15  1  0
 15 16  1  0
 16 17  2  0
 17 18  1  0
 18 19  2  0
 19 20  1  0
 20 21  1  0
 20 22  2  0
 15 23  1  0
  8  3  1  0
 14  9  1  0
 22 16  1  0
 23  6  1  0
  1 24  1  0
  1 25  1  0
  1 26  1  0
  4 27  1  0
  5 28  1  0
  8 29  1  0
 10 30  1  0
 11 31  1  0
 12 32  1  0
 13 33  1  0
 17 34  1  0
 18 35  1  0
 19 36  1  0
 22 37  1  0
 23 38  1  0
 23 39  1  0
M  CHG  1  13   1
M  END
>  <UniqueID>  (33) 
32

>  <SMILES>  (33) 
COc1ccc2c(c1)-c1ccc[nH+]c1N(c1cccc(F)c1)C2

>  <Energy>  (33) 
56.24509115237226

>  <Genealogy>  (33) 
COc1ccc2c(c1)-c1ccc[nH+]c1N(c1cccc(F)c1)C2 (protonated)
COc1ccc2c(c1)-c1ccc[nH+]c1N(c1cccc(F)c1)C2 (3D coordinates assigned)
COc1ccc2c(c1)-c1ccc[nH+]c1N(c1cccc(F)c1)C2 (nonaromatic ring conformer: 56.24509115237226 kcal/mol)

>  <smiles>  (33) 
COc1ccc2c(c1)-c1cccnc1N(c1cccc(F)c1)C2

>  <score_type>  (33) 
oracle

>  <origin>  (33) 
adg

>  <m_score__min__energy>  (33) 
-5.5999999999999996

>  <m_primary>  (33) 
energy

$$$$
33:0
     RDKit          3D

 32 34  0  0  0  0  0  0  0  0999 V2000
   59.0490   34.2240   44.5090 C   0  0  0  0  0  0  0  0  0  0  0  0
   57.5960   34.2520   44.9740 C   0  0  0  0  0  0  0  0  0  0  0  0
   57.4010   33.4050   46.2350 C   0  0  0  0  0  0  0  0  0  0  0  0
   58.5820   32.4890   46.4490 C   0  0  0  0  0  0  0  0  0  0  0  0
   58.7200   31.2100   45.8710 C   0  0  0  0  0  0  0  0  0  0  0  0
   57.8080   30.5140   44.9430 C   0  0  0  0  0  0  0  0  0  0  0  0
   58.1750   29.5760   44.1410 N   0  0  0  0  0  0  0  0  0  0  0  0
   57.0200   29.1110   43.3870 C   0  0  0  0  0  0  0  0  0  0  0  0
   55.8540   29.9650   43.9030 C   0  0  0  0  0  0  0  0  0  0  0  0
   56.4610   30.8030   44.8680 O   0  0  0  0  0  0  0  0  0  0  0  0
   60.1860   30.5320   46.3690 S   0  0  0  0  0  0  0  0  0  0  0  0
   60.6710   31.8420   47.2880 C   0  0  0  0  0  0  0  0  0  0  0  0
   61.8550   31.9860   48.0070 C   0  0  0  0  0  0  0  0  0  0  0  0
   62.0740   33.1900   48.6930 C   0  0  0  0  0  0  0  0  0  0  0  0
   63.6820   33.4380   49.6910 Br  0  0  0  0  0  0  0  0  0  0  0  0
   61.1140   34.2180   48.6410 C   0  0  0  0  0  0  0  0  0  0  0  0
   59.9260   34.0500   47.9080 C   0  0  0  0  0  0  0  0  0  0  0  0
   59.7070   32.8400   47.2310 C   0  0  0  0  0  0  0  0  0  0  0  0
   59.7141   34.2112   45.3850 H   0  0  0  0  0  0  0  0  0  0  0  0
   59.2229   33.3223   43.9034 H   0  0  0  0  0  0  0  0  0  0  0  0
   59.2575   35.1183   43.9034 H   0  0  0  0  0  0  0  0  0  0  0  0
   57.3091   35.2913   45.1921 H   0  0  0  0  0  0  0  0  0  0  0  0
   56.9664   33.8353   44.1740 H   0  0  0  0  0  0  0  0  0  0  0  0
   57.2976   34.0704   47.1048 H   0  0  0  0  0  0  0  0  0  0  0  0
   56.4952   32.7927   46.1138 H   0  0  0  0  0  0  0  0  0  0  0  0
   57.1703   29.2692   42.3089 H   0  0  0  0  0  0  0  0  0  0  0  0
   56.8401   28.0340   43.5200 H   0  0  0  0  0  0  0  0  0  0  0  0
   55.4110   30.5585   43.0896 H   0  0  0  0  0  0  0  0  0  0  0  0
   55.0310   29.3627   44.3151 H   0  0  0  0  0  0  0  0  0  0  0  0
   62.5993   31.1766   48.0363 H   0  0  0  0  0  0  0  0  0  0  0  0
   61.2947   35.1607   49.1783 H   0  0  0  0  0  0  0  0  0  0  0  0
   59.1784   34.8558   47.8656 H   0  0  0  0  0  0  0  0  0  0  0  0
  1  2  1  0
  2  3  1  0
  3  4  1  0
  4  5  2  0
  5  6  1  0
  6  7  2  0
  7  8  1  0
  8  9  1  0
  9 10  1  0
  5 11  1  0
 11 12  1  0
 12 13  2  0
 13 14  1  0
 14 15  1  0
 14 16  2  0
 16 17  1  0
 17 18  2  0
 18  4  1  0
 10  6  1  0
 18 12  1  0
  1 19  1  0
  1 20  1  0
  1 21  1  0
  2 22  1  0
  2 23  1  0
  3 24  1  0
  3 25  1  0
  8 26  1  0
  8 27  1  0
  9 28  1  0
  9 29  1  0
 13 30  1  0
 16 31  1  0
 17 32  1  0
M  END
>  <UniqueID>  (34) 
33

>  <SMILES>  (34) 
CCCc1c(C2=NCCO2)sc2cc(Br)ccc12

>  <Energy>  (34) 
73.21750010025744

>  <Genealogy>  (34) 
CCCc1c(C2=NCCO2)sc2cc(Br)ccc12 (3D coordinates assigned)
CCCc1c(C2=NCCO2)sc2cc(Br)ccc12 (nonaromatic ring conformer: 73.21750010025744 kcal/mol)

>  <smiles>  (34) 
CCCc1c(C2=NCCO2)sc2cc(Br)ccc12

>  <score_type>  (34) 
oracle

>  <origin>  (34) 
adg

>  <m_score__min__energy>  (34) 
-7.1900000000000004

>  <m_primary>  (34) 
energy

$$$$
34:0
     RDKit          3D

 35 38  0  0  0  0  0  0  0  0999 V2000
   58.5110   27.0790   43.8530 C   0  0  0  0  0  0  0  0  0  0  0  0
   58.0210   28.4770   44.0250 C   0  0  0  0  0  0  0  0  0  0  0  0
   56.8930   28.9630   43.4840 N   0  0  0  0  0  0  0  0  0  0  0  0
   56.7770   30.2220   43.8710 N   0  0  0  0  0  0  0  0  0  0  0  0
   57.8540   30.4610   44.6490 C   0  0  0  0  0  0  0  0  0  0  0  0
   58.1380   31.7520   45.3050 C   0  0  0  0  0  0  0  0  0  0  0  0
   57.1850   32.8000   45.2440 C   0  0  0  0  0  0  0  0  0  0  0  0
   57.4290   34.0290   45.8790 C   0  0  0  0  0  0  0  0  0  0  0  0
   58.6360   34.1880   46.5540 C   0  0  0  0  0  0  0  0  0  0  0  0
   59.0380   35.2680   47.2470 N   0  0  0  0  0  0  0  0  0  0  0  0
   60.2540   34.9590   47.7480 C   0  0  0  0  0  0  0  0  0  0  0  0
   60.6320   33.6770   47.3610 C   0  0  0  0  0  0  0  0  0  0  0  0
   61.9060   33.0170   47.7060 C   0  0  0  0  0  0  0  0  0  0  0  0
   62.4250   31.8750   47.1240 C   0  0  0  0  0  0  0  0  0  0  0  0
   63.5690   31.5360   47.7500 N   0  0  0  0  0  0  0  0  0  0  0  0
   63.7840   32.4320   48.7010 N   0  0  0  0  0  0  0  0  0  0  0  0
   64.8780   32.3520   49.6570 C   0  0  0  0  0  0  0  0  0  0  0  0
   62.7860   33.3350   48.7200 C   0  0  0  0  0  0  0  0  0  0  0  0
   59.5770   33.1910   46.6020 C   0  0  0  0  0  0  0  0  0  0  0  0
   59.3520   31.9490   46.0030 C   0  0  0  0  0  0  0  0  0  0  0  0
   58.6180   29.3940   44.7490 O   0  0  0  0  0  0  0  0  0  0  0  0
   58.6710   26.6224   44.8409 H   0  0  0  0  0  0  0  0  0  0  0  0
   57.7641   26.4946   43.2956 H   0  0  0  0  0  0  0  0  0  0  0  0
   59.4593   27.0888   43.2956 H   0  0  0  0  0  0  0  0  0  0  0  0
   56.2140   28.4600   42.8700 H   0  0  0  0  0  0  0  0  0  0  0  0
   56.2446   32.6491   44.6936 H   0  0  0  0  0  0  0  0  0  0  0  0
   56.6884   34.8415   45.8439 H   0  0  0  0  0  0  0  0  0  0  0  0
   58.5160   36.1620   47.3790 H   0  0  0  0  0  0  0  0  0  0  0  0
   60.8613   35.6283   48.3751 H   0  0  0  0  0  0  0  0  0  0  0  0
   61.9745   31.3290   46.2820 H   0  0  0  0  0  0  0  0  0  0  0  0
   64.4741   32.3815   50.6797 H   0  0  0  0  0  0  0  0  0  0  0  0
   65.4280   31.4112   49.5070 H   0  0  0  0  0  0  0  0  0  0  0  0
   65.5590   33.2027   49.5070 H   0  0  0  0  0  0  0  0  0  0  0  0
   62.6891   34.1777   49.4203 H   0  0  0  0  0  0  0  0  0  0  0  0
   60.0998   31.1452   46.0725 H   0  0  0  0  0  0  0  0  0  0  0  0
  1  2  1  0
  2  3  2  0
  3  4  1  0
  4  5  2  0
  5  6  1  0
  6  7  2  0
  7  8  1  0
  8  9  2  0
  9 10  1  0
 10 11  1  0
 11 12  2  0
 12 13  1  0
 13 14  1  0
 14 15  2  0
 15 16  1  0
 16 17  1  0
 16 18  1  0
 12 19  1  0
 19 20  2  0
  5 21  1  0
 21  2  1  0
 20  6  1  0
 19  9  1  0
 18 13  2  0
  1 22  1  0
  1 23  1  0
  1 24  1  0
  3 25  1  0
  7 26  1  0
  8 27  1  0
 10 28  1  0
 11 29  1  0
 14 30  1  0
 17 31  1  0
 17 32  1  0
 17 33  1  0
 18 34  1  0
 20 35  1  0
M  CHG  1   3   1
M  END
>  <UniqueID>  (35) 
34

>  <SMILES>  (35) 
Cc1[nH+]nc(-c2ccc3[nH]cc(-c4cnn(C)c4)c3c2)o1

>  <Energy>  (35) 
137.16002251876287

>  <Genealogy>  (35) 
Cc1[nH+]nc(-c2ccc3[nH]cc(-c4cnn(C)c4)c3c2)o1 (protonated)
Cc1[nH+]nc(-c2ccc3[nH]cc(-c4cnn(C)c4)c3c2)o1 (3D coordinates assigned)
Cc1[nH+]nc(-c2ccc3[nH]cc(-c4cnn(C)c4)c3c2)o1 (optimized conformer: 137.16002251876287 kcal/mol)

>  <smiles>  (35) 
Cc1nnc(-c2ccc3[nH]cc(-c4cnn(C)c4)c3c2)o1

>  <score_type>  (35) 
oracle

>  <origin>  (35) 
adg

>  <m_score__min__energy>  (35) 
-6.3399999999999999

>  <m_primary>  (35) 
energy

$$$$
35:0
     RDKit          3D

 42 43  0  0  0  0  0  0  0  0999 V2000
   58.0600   24.0840   46.4340 C   0  0  0  0  0  0  0  0  0  0  0  0
   57.7210   25.2950   47.1040 O   0  0  0  0  0  0  0  0  0  0  0  0
   57.7670   26.5740   46.5260 C   0  0  0  0  0  0  0  0  0  0  0  0
   58.9710   27.3030   46.4850 C   0  0  0  0  0  0  0  0  0  0  0  0
   59.0190   28.5780   45.9170 C   0  0  0  0  0  0  0  0  0  0  0  0
   60.2600   29.2950   45.8690 N   0  0  0  0  0  0  0  0  0  0  0  0
   61.2660   28.9400   44.8720 C   0  0  0  0  0  0  0  0  0  0  0  0
   60.5550   30.5630   47.0190 S   0  0  0  0  0  0  0  0  0  0  0  0
   60.0370   30.1340   48.3630 O   0  0  0  0  0  0  0  0  0  0  0  0
   62.0340   30.8100   47.1490 O   0  0  0  0  0  0  0  0  0  0  0  0
   59.7520   32.0430   46.5020 C   0  0  0  0  0  0  0  0  0  0  0  0
   60.4620   33.2510   46.4340 C   0  0  0  0  0  0  0  0  0  0  0  0
   59.8090   34.4300   46.0560 C   0  0  0  0  0  0  0  0  0  0  0  0
   58.4460   34.4070   45.7460 C   0  0  0  0  0  0  0  0  0  0  0  0
   57.7330   33.2070   45.8160 C   0  0  0  0  0  0  0  0  0  0  0  0
   58.3830   32.0270   46.1940 C   0  0  0  0  0  0  0  0  0  0  0  0
   57.8590   29.1470   45.3900 C   0  0  0  0  0  0  0  0  0  0  0  0
   56.6440   28.4370   45.4100 C   0  0  0  0  0  0  0  0  0  0  0  0
   55.4640   28.9740   44.8710 O   0  0  0  0  0  0  0  0  0  0  0  0
   55.4050   29.7740   43.6930 C   0  0  0  0  0  0  0  0  0  0  0  0
   56.5920   27.1510   45.9740 C   0  0  0  0  0  0  0  0  0  0  0  0
   55.3420   26.5020   45.9480 O   0  0  0  0  0  0  0  0  0  0  0  0
   55.0990   25.1380   45.6230 C   0  0  0  0  0  0  0  0  0  0  0  0
   58.2787   23.3028   47.1769 H   0  0  0  0  0  0  0  0  0  0  0  0
   57.2166   23.7651   45.8039 H   0  0  0  0  0  0  0  0  0  0  0  0
   58.9464   24.2493   45.8039 H   0  0  0  0  0  0  0  0  0  0  0  0
   59.8865   26.8621   46.9062 H   0  0  0  0  0  0  0  0  0  0  0  0
   62.1864   28.6152   45.3793 H   0  0  0  0  0  0  0  0  0  0  0  0
   60.8859   28.1217   44.2428 H   0  0  0  0  0  0  0  0  0  0  0  0
   61.4836   29.8156   44.2428 H   0  0  0  0  0  0  0  0  0  0  0  0
   61.5343   33.2717   46.6783 H   0  0  0  0  0  0  0  0  0  0  0  0
   60.3688   35.3754   46.0028 H   0  0  0  0  0  0  0  0  0  0  0  0
   57.9345   35.3338   45.4469 H   0  0  0  0  0  0  0  0  0  0  0  0
   56.6601   33.1902   45.5738 H   0  0  0  0  0  0  0  0  0  0  0  0
   57.8193   31.0841   46.2499 H   0  0  0  0  0  0  0  0  0  0  0  0
   57.8944   30.1572   44.9561 H   0  0  0  0  0  0  0  0  0  0  0  0
   55.3268   30.8347   43.9737 H   0  0  0  0  0  0  0  0  0  0  0  0
   56.3171   29.6184   43.0981 H   0  0  0  0  0  0  0  0  0  0  0  0
   54.5256   29.4863   43.0981 H   0  0  0  0  0  0  0  0  0  0  0  0
   54.9948   24.5534   46.5489 H   0  0  0  0  0  0  0  0  0  0  0  0
   54.1729   25.0607   45.0344 H   0  0  0  0  0  0  0  0  0  0  0  0
   55.9414   24.7456   45.0344 H   0  0  0  0  0  0  0  0  0  0  0  0
  1  2  1  0
  2  3  1  0
  3  4  2  0
  4  5  1  0
  5  6  1  0
  6  7  1  0
  6  8  1  0
  8  9  2  0
  8 10  2  0
  8 11  1  0
 11 12  2  0
 12 13  1  0
 13 14  2  0
 14 15  1  0
 15 16  2  0
  5 17  2  0
 17 18  1  0
 18 19  1  0
 19 20  1  0
 18 21  2  0
 21 22  1  0
 22 23  1  0
 21  3  1  0
 16 11  1  0
  1 24  1  0
  1 25  1  0
  1 26  1  0
  4 27  1  0
  7 28  1  0
  7 29  1  0
  7 30  1  0
 12 31  1  0
 13 32  1  0
 14 33  1  0
 15 34  1  0
 16 35  1  0
 17 36  1  0
 20 37  1  0
 20 38  1  0
 20 39  1  0
 23 40  1  0
 23 41  1  0
 23 42  1  0
M  END
>  <UniqueID>  (36) 
35

>  <SMILES>  (36) 
COc1cc(N(C)S(=O)(=O)c2ccccc2)cc(OC)c1OC

>  <Energy>  (36) 
48.034479766557865

>  <Genealogy>  (36) 
COc1cc(N(C)S(=O)(=O)c2ccccc2)cc(OC)c1OC (3D coordinates assigned)
COc1cc(N(C)S(=O)(=O)c2ccccc2)cc(OC)c1OC (optimized conformer: 48.034479766557865 kcal/mol)

>  <smiles>  (36) 
COc1cc(N(C)S(=O)(=O)c2ccccc2)cc(OC)c1OC

>  <score_type>  (36) 
oracle

>  <origin>  (36) 
adg

>  <m_score__min__energy>  (36) 
-7.2000000000000002

>  <m_primary>  (36) 
energy

$$$$
36:0
     RDKit          3D

 55 58  0  0  0  0  0  0  0  0999 V2000
   57.2840   32.7340   40.3460 C   0  0  0  0  0  0  0  0  0  0  0  0
   57.0170   31.6890   41.2760 O   0  0  0  0  0  0  0  0  0  0  0  0
   57.3990   31.7140   42.6260 C   0  0  0  0  0  0  0  0  0  0  0  0
   57.7340   32.9040   43.2940 C   0  0  0  0  0  0  0  0  0  0  0  0
   58.1040   32.8770   44.6400 C   0  0  0  0  0  0  0  0  0  0  0  0
   58.1440   31.6590   45.3470 C   0  0  0  0  0  0  0  0  0  0  0  0
   58.4750   31.6050   46.7100 O   0  0  0  0  0  0  0  0  0  0  0  0
   58.4700   32.7250   47.5890 C   0  0  0  0  0  0  0  0  0  0  0  0
   57.8230   30.4630   44.6750 C   0  0  0  0  0  0  0  0  0  0  0  0
   57.8670   29.2010   45.3650 N   0  0  0  0  0  0  0  0  0  0  0  0
   56.8400   28.3650   45.6160 C   0  0  0  0  0  0  0  0  0  0  0  0
   55.5220   28.5930   45.2370 O   0  0  0  0  0  0  0  0  0  0  0  0
   57.2930   27.2860   46.3510 C   0  0  0  0  0  0  0  0  0  0  0  0
   56.4330   26.1890   46.9210 C   0  0  0  0  0  0  0  0  0  0  0  0
   56.1630   25.0970   45.9220 C   0  0  0  0  0  0  0  0  0  0  0  0
   55.0040   24.6120   45.8030 O   0  0  0  0  0  0  0  0  0  0  0  0
   57.2400   24.6100   45.1060 N   0  0  0  0  0  0  0  0  0  0  0  0
   57.1610   23.4290   44.2900 C   0  0  0  0  0  0  0  0  0  0  0  0
   56.3100   23.3660   43.1710 C   0  0  0  0  0  0  0  0  0  0  0  0
   56.2340   22.1960   42.4090 C   0  0  0  0  0  0  0  0  0  0  0  0
   56.9980   21.0800   42.7600 C   0  0  0  0  0  0  0  0  0  0  0  0
   57.8290   21.1270   43.8810 C   0  0  0  0  0  0  0  0  0  0  0  0
   57.9040   22.2940   44.6500 C   0  0  0  0  0  0  0  0  0  0  0  0
   58.6180   27.4590   46.5790 N   0  0  0  0  0  0  0  0  0  0  0  0
   59.5140   26.6200   47.3800 C   0  0  0  0  0  0  0  0  0  0  0  0
   59.9240   27.3370   48.6270 C   0  0  0  0  0  0  0  0  0  0  0  0
   59.6760   28.6730   48.9180 C   0  0  0  0  0  0  0  0  0  0  0  0
   60.1800   29.0660   50.1630 C   0  0  0  0  0  0  0  0  0  0  0  0
   60.8300   28.0480   50.8490 C   0  0  0  0  0  0  0  0  0  0  0  0
   60.7750   26.6560   49.9070 S   0  0  0  0  0  0  0  0  0  0  0  0
   58.9280   28.6300   45.9760 C   0  0  0  0  0  0  0  0  0  0  0  0
   60.0840   29.1320   45.9820 O   0  0  0  0  0  0  0  0  0  0  0  0
   57.4470   30.5030   43.3240 C   0  0  0  0  0  0  0  0  0  0  0  0
   57.5204   33.6592   40.8920 H   0  0  0  0  0  0  0  0  0  0  0  0
   58.1391   32.4526   39.7138 H   0  0  0  0  0  0  0  0  0  0  0  0
   56.3987   32.8973   39.7138 H   0  0  0  0  0  0  0  0  0  0  0  0
   57.7046   33.8617   42.7537 H   0  0  0  0  0  0  0  0  0  0  0  0
   58.3664   33.8142   45.1526 H   0  0  0  0  0  0  0  0  0  0  0  0
   58.4716   32.3732   48.6312 H   0  0  0  0  0  0  0  0  0  0  0  0
   59.3654   33.3376   47.4075 H   0  0  0  0  0  0  0  0  0  0  0  0
   57.5691   33.3296   47.4075 H   0  0  0  0  0  0  0  0  0  0  0  0
   56.9461   25.7534   47.7911 H   0  0  0  0  0  0  0  0  0  0  0  0
   55.4668   26.6320   47.2043 H   0  0  0  0  0  0  0  0  0  0  0  0
   58.1020   25.1980   45.0370 H   0  0  0  0  0  0  0  0  0  0  0  0
   55.7024   24.2403   42.8947 H   0  0  0  0  0  0  0  0  0  0  0  0
   55.5716   22.1541   41.5318 H   0  0  0  0  0  0  0  0  0  0  0  0
   56.9448   20.1642   42.1530 H   0  0  0  0  0  0  0  0  0  0  0  0
   58.4254   20.2459   44.1601 H   0  0  0  0  0  0  0  0  0  0  0  0
   58.5485   22.3218   45.5410 H   0  0  0  0  0  0  0  0  0  0  0  0
   58.9933   25.6898   47.6514 H   0  0  0  0  0  0  0  0  0  0  0  0
   60.4126   26.3914   46.7881 H   0  0  0  0  0  0  0  0  0  0  0  0
   59.1387   29.3519   48.2395 H   0  0  0  0  0  0  0  0  0  0  0  0
   60.0716   30.0857   50.5611 H   0  0  0  0  0  0  0  0  0  0  0  0
   61.3004   28.1371   51.8393 H   0  0  0  0  0  0  0  0  0  0  0  0
   57.1861   29.5683   42.8061 H   0  0  0  0  0  0  0  0  0  0  0  0
  1  2  1  0
  2  3  1  0
  3  4  2  0
  4  5  1  0
  5  6  2  0
  6  7  1  0
  7  8  1  0
  6  9  1  0
  9 10  1  0
 10 11  1  0
 11 12  1  0
 11 13  2  0
 13 14  1  0
 14 15  1  0
 15 16  2  0
 15 17  1  0
 17 18  1  0
 18 19  2  0
 19 20  1  0
 20 21  2  0
 21 22  1  0
 22 23  2  0
 13 24  1  0
 24 25  1  0
 25 26  1  0
 26 27  2  0
 27 28  1  0
 28 29  2  0
 29 30  1  0
 24 31  1  0
 31 32  2  0
  9 33  2  0
 33  3  1  0
 31 10  1  0
 23 18  1  0
 30 26  1  0
  1 34  1  0
  1 35  1  0
  1 36  1  0
  4 37  1  0
  5 38  1  0
  8 39  1  0
  8 40  1  0
  8 41  1  0
 14 42  1  0
 14 43  1  0
 17 44  1  0
 19 45  1  0
 20 46  1  0
 21 47  1  0
 22 48  1  0
 23 49  1  0
 25 50  1  0
 25 51  1  0
 27 52  1  0
 28 53  1  0
 29 54  1  0
 33 55  1  0
M  CHG  1  12  -1
M  END
>  <UniqueID>  (37) 
36

>  <SMILES>  (37) 
COc1ccc(OC)c(-n2c([O-])c(CC(=O)Nc3ccccc3)n(Cc3cccs3)c2=O)c1

>  <Energy>  (37) 
123.3548288249142

>  <Genealogy>  (37) 
COc1ccc(OC)c(-n2c([O-])c(CC(=O)Nc3ccccc3)n(Cc3cccs3)c2=O)c1 (protonated)
COc1ccc(OC)c(-n2c([O-])c(CC(=O)Nc3ccccc3)n(Cc3cccs3)c2=O)c1 (3D coordinates assigned)
COc1ccc(OC)c(-n2c([O-])c(CC(=O)Nc3ccccc3)n(Cc3cccs3)c2=O)c1 (optimized conformer: 123.3548288249142 kcal/mol)

>  <smiles>  (37) 
COc1ccc(OC)c(-n2c(O)c(CC(=O)Nc3ccccc3)n(Cc3cccs3)c2=O)c1

>  <score_type>  (37) 
oracle

>  <origin>  (37) 
adg

>  <m_score__min__energy>  (37) 
-11.130000000000001

>  <m_primary>  (37) 
energy

$$$$
37:0
     RDKit          3D

 41 43  0  0  0  0  0  0  0  0999 V2000
   57.7690   28.5900   43.8430 C   0  0  0  0  0  0  0  0  0  0  0  0
   56.7470   30.0410   44.0010 S   0  0  0  0  0  0  0  0  0  0  0  0
   55.5640   29.6680   44.8510 O   0  0  0  0  0  0  0  0  0  0  0  0
   56.2460   30.4680   42.6520 O   0  0  0  0  0  0  0  0  0  0  0  0
   57.6400   31.3670   44.7710 C   0  0  0  0  0  0  0  0  0  0  0  0
   57.4320   32.6740   44.3030 C   0  0  0  0  0  0  0  0  0  0  0  0
   58.0290   33.7650   44.9340 C   0  0  0  0  0  0  0  0  0  0  0  0
   58.8470   33.5760   46.0570 C   0  0  0  0  0  0  0  0  0  0  0  0
   59.4130   34.7090   46.7500 N   0  0  0  0  0  0  0  0  0  0  0  0
   59.9230   34.3260   48.0780 C   0  0  0  0  0  0  0  0  0  0  0  0
   61.3710   33.9020   48.0240 C   0  0  0  0  0  0  0  0  0  0  0  0
   62.0390   33.8260   46.7900 C   0  0  0  0  0  0  0  0  0  0  0  0
   63.3930   33.4790   46.7430 C   0  0  0  0  0  0  0  0  0  0  0  0
   64.0900   33.2120   47.9260 C   0  0  0  0  0  0  0  0  0  0  0  0
   63.4330   33.2940   49.1570 C   0  0  0  0  0  0  0  0  0  0  0  0
   62.0790   33.6400   49.2080 C   0  0  0  0  0  0  0  0  0  0  0  0
   59.0690   32.2720   46.5270 C   0  0  0  0  0  0  0  0  0  0  0  0
   58.4940   31.1650   45.8850 C   0  0  0  0  0  0  0  0  0  0  0  0
   58.8010   29.8300   46.4270 C   0  0  0  0  0  0  0  0  0  0  0  0
   60.0600   29.3090   46.6510 C   0  0  0  0  0  0  0  0  0  0  0  0
   59.8520   28.0610   47.1960 C   0  0  0  0  0  0  0  0  0  0  0  0
   58.4830   27.9030   47.2790 C   0  0  0  0  0  0  0  0  0  0  0  0
   57.8850   28.9760   46.8190 O   0  0  0  0  0  0  0  0  0  0  0  0
   58.0323   28.2162   44.8435 H   0  0  0  0  0  0  0  0  0  0  0  0
   57.2185   27.8118   43.2940 H   0  0  0  0  0  0  0  0  0  0  0  0
   58.6871   28.8462   43.2940 H   0  0  0  0  0  0  0  0  0  0  0  0
   56.7890   32.8400   43.4261 H   0  0  0  0  0  0  0  0  0  0  0  0
   57.8570   34.7806   44.5481 H   0  0  0  0  0  0  0  0  0  0  0  0
   60.2060   35.0940   46.1850 H   0  0  0  0  0  0  0  0  0  0  0  0
   58.7040   35.4730   46.8490 H   0  0  0  0  0  0  0  0  0  0  0  0
   59.8295   35.1866   48.7567 H   0  0  0  0  0  0  0  0  0  0  0  0
   59.3307   33.4716   48.4373 H   0  0  0  0  0  0  0  0  0  0  0  0
   61.4952   34.0401   45.8581 H   0  0  0  0  0  0  0  0  0  0  0  0
   63.9105   33.4160   45.7744 H   0  0  0  0  0  0  0  0  0  0  0  0
   65.1545   32.9377   47.8876 H   0  0  0  0  0  0  0  0  0  0  0  0
   63.9820   33.0860   50.0873 H   0  0  0  0  0  0  0  0  0  0  0  0
   61.5667   33.7072   50.1791 H   0  0  0  0  0  0  0  0  0  0  0  0
   59.7033   32.1158   47.4120 H   0  0  0  0  0  0  0  0  0  0  0  0
   61.0264   29.7897   46.4388 H   0  0  0  0  0  0  0  0  0  0  0  0
   60.6211   27.3369   47.5029 H   0  0  0  0  0  0  0  0  0  0  0  0
   57.9711   27.0120   47.6715 H   0  0  0  0  0  0  0  0  0  0  0  0
  1  2  1  0
  2  3  2  0
  2  4  2  0
  2  5  1  0
  5  6  2  0
  6  7  1  0
  7  8  2  0
  8  9  1  0
  9 10  1  0
 10 11  1  0
 11 12  2  0
 12 13  1  0
 13 14  2  0
 14 15  1  0
 15 16  2  0
  8 17  1  0
 17 18  2  0
 18 19  1  0
 19 20  2  0
 20 21  1  0
 21 22  2  0
 22 23  1  0
 18  5  1  0
 23 19  1  0
 16 11  1  0
  1 24  1  0
  1 25  1  0
  1 26  1  0
  6 27  1  0
  7 28  1  0
  9 29  1  0
  9 30  1  0
 10 31  1  0
 10 32  1  0
 12 33  1  0
 13 34  1  0
 14 35  1  0
 15 36  1  0
 16 37  1  0
 17 38  1  0
 20 39  1  0
 21 40  1  0
 22 41  1  0
M  CHG  1   9   1
M  END
>  <UniqueID>  (38) 
37

>  <SMILES>  (38) 
CS(=O)(=O)c1ccc([NH2+]Cc2ccccc2)cc1-c1ccco1

>  <Energy>  (38) 
74.73649281278512

>  <Genealogy>  (38) 
CS(=O)(=O)c1ccc([NH2+]Cc2ccccc2)cc1-c1ccco1 (protonated)
CS(=O)(=O)c1ccc([NH2+]Cc2ccccc2)cc1-c1ccco1 (3D coordinates assigned)
CS(=O)(=O)c1ccc([NH2+]Cc2ccccc2)cc1-c1ccco1 (optimized conformer: 74.73649281278512 kcal/mol)

>  <smiles>  (38) 
CS(=O)(=O)c1ccc(NCc2ccccc2)cc1-c1ccco1

>  <score_type>  (38) 
oracle

>  <origin>  (38) 
adg

>  <m_score__min__energy>  (38) 
-7.29

>  <m_primary>  (38) 
energy

$$$$
38:0
     RDKit          3D

 31 33  0  0  0  0  0  0  0  0999 V2000
   56.7360   26.8010   46.2120 C   0  0  0  0  0  0  0  0  0  0  0  0
   55.9950   27.7980   45.5170 O   0  0  0  0  0  0  0  0  0  0  0  0
   56.5250   29.0230   45.0820 C   0  0  0  0  0  0  0  0  0  0  0  0
   56.0200   29.7050   43.9650 C   0  0  0  0  0  0  0  0  0  0  0  0
   56.5830   30.9180   43.5720 C   0  0  0  0  0  0  0  0  0  0  0  0
   57.6400   31.4920   44.2910 C   0  0  0  0  0  0  0  0  0  0  0  0
   58.1720   30.8020   45.4130 C   0  0  0  0  0  0  0  0  0  0  0  0
   57.5990   29.5710   45.7890 C   0  0  0  0  0  0  0  0  0  0  0  0
   59.3430   31.2850   46.1840 C   0  0  0  0  0  0  0  0  0  0  0  0
   60.1570   30.4430   46.6550 O   0  0  0  0  0  0  0  0  0  0  0  0
   59.5430   32.6790   46.4570 N   0  0  0  0  0  0  0  0  0  0  0  0
   60.5250   33.1620   47.4140 C   0  0  0  0  0  0  0  0  0  0  0  0
   60.1620   34.6160   47.6770 C   0  0  0  0  0  0  0  0  0  0  0  0
   59.2650   35.0350   46.5160 C   0  0  0  0  0  0  0  0  0  0  0  0
   58.6870   33.7310   45.9500 C   0  0  1  0  0  0  0  0  0  0  0  0
   58.6880   33.7060   44.4490 C   0  0  0  0  0  0  0  0  0  0  0  0
   58.1940   32.7140   43.7730 N   0  0  0  0  0  0  0  0  0  0  0  0
   56.6248   26.9506   47.2961 H   0  0  0  0  0  0  0  0  0  0  0  0
   56.3571   25.8052   45.9385 H   0  0  0  0  0  0  0  0  0  0  0  0
   57.7988   26.8767   45.9385 H   0  0  0  0  0  0  0  0  0  0  0  0
   55.1778   29.2816   43.3980 H   0  0  0  0  0  0  0  0  0  0  0  0
   56.1911   31.4333   42.6827 H   0  0  0  0  0  0  0  0  0  0  0  0
   58.0051   29.0302   46.6566 H   0  0  0  0  0  0  0  0  0  0  0  0
   60.4722   32.5789   48.3452 H   0  0  0  0  0  0  0  0  0  0  0  0
   61.5506   33.0625   47.0290 H   0  0  0  0  0  0  0  0  0  0  0  0
   59.6230   34.7100   48.6312 H   0  0  0  0  0  0  0  0  0  0  0  0
   61.0573   35.2512   47.7477 H   0  0  0  0  0  0  0  0  0  0  0  0
   58.4567   35.6905   46.8724 H   0  0  0  0  0  0  0  0  0  0  0  0
   59.8228   35.5980   45.7532 H   0  0  0  0  0  0  0  0  0  0  0  0
   57.6364   33.6154   46.2547 H   0  0  0  0  0  0  0  0  0  0  0  0
   59.1220   34.5570   43.9036 H   0  0  0  0  0  0  0  0  0  0  0  0
  1  2  1  0
  2  3  1  0
  3  4  2  0
  4  5  1  0
  5  6  2  0
  6  7  1  0
  7  8  2  0
  7  9  1  0
  9 10  2  0
  9 11  1  0
 11 12  1  0
 12 13  1  0
 13 14  1  0
 14 15  1  0
 15 16  1  0
 16 17  2  0
  8  3  1  0
 15 11  1  0
 17  6  1  0
  1 18  1  0
  1 19  1  0
  1 20  1  0
  4 21  1  0
  5 22  1  0
  8 23  1  0
 12 24  1  0
 12 25  1  0
 13 26  1  0
 13 27  1  0
 14 28  1  0
 14 29  1  0
 15 30  1  1
 16 31  1  0
M  END
>  <UniqueID>  (39) 
38

>  <SMILES>  (39) 
COc1ccc2c(c1)C(=O)N1CCC[C@H]1C=N2

>  <Energy>  (39) 
43.83512022462339

>  <Genealogy>  (39) 
COc1ccc2c(c1)C(=O)N1CCC[C@H]1C=N2 (chirality)
COc1ccc2c(c1)C(=O)N1CCC[C@H]1C=N2 (3D coordinates assigned)
COc1ccc2c(c1)C(=O)N1CCC[C@H]1C=N2 (nonaromatic ring conformer: 43.83512022462339 kcal/mol)

>  <smiles>  (39) 
COc1ccc2c(c1)C(=O)N1CCCC1C=N2

>  <score_type>  (39) 
oracle

>  <origin>  (39) 
adg

>  <m_score__min__energy>  (39) 
-5.1900000000000004

>  <m_primary>  (39) 
energy

$$$$
39:0
     RDKit          3D

 38 39  0  0  0  0  0  0  0  0999 V2000
   64.1460   32.8750   46.7640 N   0  0  0  0  0  0  0  0  0  0  0  0
   62.9530   32.9390   48.0140 S   0  0  0  0  0  0  0  0  0  0  0  0
   63.1550   31.7950   48.9690 O   0  0  0  0  0  0  0  0  0  0  0  0
   63.0970   34.2300   48.7700 O   0  0  0  0  0  0  0  0  0  0  0  0
   61.3490   32.8280   47.3000 C   0  0  0  0  0  0  0  0  0  0  0  0
   60.6290   31.6250   47.3440 C   0  0  0  0  0  0  0  0  0  0  0  0
   59.3730   31.5350   46.7350 C   0  0  0  0  0  0  0  0  0  0  0  0
   58.8190   32.6490   46.0840 C   0  0  0  0  0  0  0  0  0  0  0  0
   57.4950   32.5390   45.3740 C   0  0  0  0  0  0  0  0  0  0  0  0
   57.0450   31.1390   45.2840 N   0  0  0  0  0  0  0  0  0  0  0  0
   56.2690   30.8690   44.0620 C   0  0  0  0  0  0  0  0  0  0  0  0
   55.4980   29.5940   44.2080 C   0  0  0  0  0  0  0  0  0  0  0  0
   54.5670   29.3420   43.3990 O   0  0  0  0  0  0  0  0  0  0  0  0
   55.8850   28.6490   45.2160 N   0  0  0  0  0  0  0  0  0  0  0  0
   57.1840   28.0810   45.4470 C   0  0  0  0  0  0  0  0  0  0  0  0
   57.3250   27.1550   46.4900 C   0  0  0  0  0  0  0  0  0  0  0  0
   58.5700   26.5860   46.7720 C   0  0  0  0  0  0  0  0  0  0  0  0
   59.6830   26.9240   46.0010 C   0  0  0  0  0  0  0  0  0  0  0  0
   59.5500   27.8200   44.9370 C   0  0  0  0  0  0  0  0  0  0  0  0
   58.3050   28.3930   44.6530 C   0  0  0  0  0  0  0  0  0  0  0  0
   59.5250   33.8630   46.0800 C   0  0  0  0  0  0  0  0  0  0  0  0
   60.7860   33.9480   46.6760 C   0  0  0  0  0  0  0  0  0  0  0  0
   64.4410   31.8780   46.6740 H   0  0  0  0  0  0  0  0  0  0  0  0
   64.9770   33.4060   47.1070 H   0  0  0  0  0  0  0  0  0  0  0  0
   61.0531   30.7502   47.8587 H   0  0  0  0  0  0  0  0  0  0  0  0
   58.8164   30.5867   46.7662 H   0  0  0  0  0  0  0  0  0  0  0  0
   56.7433   33.1211   45.9273 H   0  0  0  0  0  0  0  0  0  0  0  0
   57.6179   32.9283   44.3525 H   0  0  0  0  0  0  0  0  0  0  0  0
   57.9050   30.5430   45.2500 H   0  0  0  0  0  0  0  0  0  0  0  0
   55.5685   31.6987   43.8861 H   0  0  0  0  0  0  0  0  0  0  0  0
   56.9609   30.7738   43.2122 H   0  0  0  0  0  0  0  0  0  0  0  0
   56.4481   26.8738   47.0917 H   0  0  0  0  0  0  0  0  0  0  0  0
   58.6726   25.8715   47.6020 H   0  0  0  0  0  0  0  0  0  0  0  0
   60.6651   26.4851   46.2309 H   0  0  0  0  0  0  0  0  0  0  0  0
   60.4252   28.0754   44.3216 H   0  0  0  0  0  0  0  0  0  0  0  0
   58.2016   29.0889   43.8074 H   0  0  0  0  0  0  0  0  0  0  0  0
   59.0831   34.7515   45.6053 H   0  0  0  0  0  0  0  0  0  0  0  0
   61.3388   34.8988   46.6549 H   0  0  0  0  0  0  0  0  0  0  0  0
  1  2  1  0
  2  3  2  0
  2  4  2  0
  2  5  1  0
  5  6  2  0
  6  7  1  0
  7  8  2  0
  8  9  1  0
  9 10  1  0
 10 11  1  0
 11 12  1  0
 12 13  2  0
 12 14  1  0
 14 15  1  0
 15 16  2  0
 16 17  1  0
 17 18  2  0
 18 19  1  0
 19 20  2  0
  8 21  1  0
 21 22  2  0
 22  5  1  0
 20 15  1  0
  1 23  1  0
  1 24  1  0
  6 25  1  0
  7 26  1  0
  9 27  1  0
  9 28  1  0
 10 29  1  0
 11 30  1  0
 11 31  1  0
 16 32  1  0
 17 33  1  0
 18 34  1  0
 19 35  1  0
 20 36  1  0
 21 37  1  0
 22 38  1  0
M  CHG  1  14  -1
M  END
>  <UniqueID>  (40) 
39

>  <SMILES>  (40) 
NS(=O)(=O)c1ccc(CNCC(=O)[N-]c2ccccc2)cc1

>  <Energy>  (40) 
35.536896613480216

>  <Genealogy>  (40) 
NS(=O)(=O)c1ccc(CNCC(=O)[N-]c2ccccc2)cc1 (protonated)
NS(=O)(=O)c1ccc(CNCC(=O)[N-]c2ccccc2)cc1 (3D coordinates assigned)
NS(=O)(=O)c1ccc(CNCC(=O)[N-]c2ccccc2)cc1 (optimized conformer: 35.536896613480216 kcal/mol)

>  <smiles>  (40) 
NS(=O)(=O)c1ccc(CNCC(=O)Nc2ccccc2)cc1

>  <score_type>  (40) 
oracle

>  <origin>  (40) 
adg

>  <m_score__min__energy>  (40) 
-9.6899999999999995

>  <m_primary>  (40) 
energy

$$$$
40:0
     RDKit          3D

 34 37  0  0  0  0  0  0  0  0999 V2000
   55.4980   18.8810   44.6630 C   0  0  0  0  0  0  0  0  0  0  0  0
   55.8040   19.8700   43.6870 O   0  0  0  0  0  0  0  0  0  0  0  0
   56.4600   21.0640   43.9990 C   0  0  0  0  0  0  0  0  0  0  0  0
   57.8540   21.1350   43.8690 C   0  0  0  0  0  0  0  0  0  0  0  0
   58.5200   22.3210   44.1880 C   0  0  0  0  0  0  0  0  0  0  0  0
   57.7920   23.4260   44.6320 C   0  0  0  0  0  0  0  0  0  0  0  0
   58.4290   24.5870   44.9850 N   0  0  0  0  0  0  0  0  0  0  0  0
   57.7450   25.6750   45.4510 C   0  0  0  0  0  0  0  0  0  0  0  0
   58.4800   26.9120   45.8610 C   0  0  0  0  0  0  0  0  0  0  0  0
   56.3560   25.5800   45.5630 C   0  0  0  0  0  0  0  0  0  0  0  0
   55.4990   26.4950   46.0480 N   0  0  0  0  0  0  0  0  0  0  0  0
   54.2810   25.9660   45.9920 N   0  0  0  0  0  0  0  0  0  0  0  0
   54.3620   24.7190   45.4680 C   0  0  0  0  0  0  0  0  0  0  0  0
   53.1850   23.8600   45.2460 C   0  0  0  0  0  0  0  0  0  0  0  0
   52.0830   24.3140   44.5070 C   0  0  0  0  0  0  0  0  0  0  0  0
   50.9670   23.4920   44.3400 C   0  0  0  0  0  0  0  0  0  0  0  0
   50.9590   22.2240   44.9250 C   0  0  0  0  0  0  0  0  0  0  0  0
   52.0240   21.8060   45.6580 N   0  0  0  0  0  0  0  0  0  0  0  0
   53.1210   22.5900   45.8360 C   0  0  0  0  0  0  0  0  0  0  0  0
   55.6910   24.4450   45.1940 C   0  0  0  0  0  0  0  0  0  0  0  0
   56.3840   23.3210   44.7360 C   0  0  0  0  0  0  0  0  0  0  0  0
   55.7620   22.1520   44.4290 N   0  0  0  0  0  0  0  0  0  0  0  0
   55.6294   19.3058   45.6691 H   0  0  0  0  0  0  0  0  0  0  0  0
   54.4560   18.5518   44.5372 H   0  0  0  0  0  0  0  0  0  0  0  0
   56.1720   18.0208   44.5372 H   0  0  0  0  0  0  0  0  0  0  0  0
   58.4211   20.2605   43.5173 H   0  0  0  0  0  0  0  0  0  0  0  0
   59.6138   22.3837   44.0896 H   0  0  0  0  0  0  0  0  0  0  0  0
   58.5150   26.9708   46.9589 H   0  0  0  0  0  0  0  0  0  0  0  0
   59.5048   26.8785   45.4628 H   0  0  0  0  0  0  0  0  0  0  0  0
   57.9606   27.7961   45.4628 H   0  0  0  0  0  0  0  0  0  0  0  0
   52.0979   25.3184   44.0587 H   0  0  0  0  0  0  0  0  0  0  0  0
   50.1033   23.8394   43.7540 H   0  0  0  0  0  0  0  0  0  0  0  0
   50.0898   21.5630   44.7923 H   0  0  0  0  0  0  0  0  0  0  0  0
   53.9614   22.2261   46.4454 H   0  0  0  0  0  0  0  0  0  0  0  0
  1  2  1  0
  2  3  1  0
  3  4  2  0
  4  5  1  0
  5  6  2  0
  6  7  1  0
  7  8  2  0
  8  9  1  0
  8 10  1  0
 10 11  2  0
 11 12  1  0
 12 13  1  0
 13 14  1  0
 14 15  2  0
 15 16  1  0
 16 17  2  0
 17 18  1  0
 18 19  2  0
 13 20  2  0
 20 21  1  0
 21 22  2  0
 22  3  1  0
 21  6  1  0
 20 10  1  0
 19 14  1  0
  1 23  1  0
  1 24  1  0
  1 25  1  0
  4 26  1  0
  5 27  1  0
  9 28  1  0
  9 29  1  0
  9 30  1  0
 15 31  1  0
 16 32  1  0
 17 33  1  0
 19 34  1  0
M  CHG  1  12  -1
M  END
>  <UniqueID>  (41) 
40

>  <SMILES>  (41) 
COc1ccc2nc(C)c3n[n-]c(-c4cccnc4)c3c2n1

>  <Energy>  (41) 
82.80315370732569

>  <Genealogy>  (41) 
COc1ccc2nc(C)c3n[n-]c(-c4cccnc4)c3c2n1 (protonated)
COc1ccc2nc(C)c3n[n-]c(-c4cccnc4)c3c2n1 (3D coordinates assigned)
COc1ccc2nc(C)c3n[n-]c(-c4cccnc4)c3c2n1 (optimized conformer: 82.80315370732569 kcal/mol)

>  <smiles>  (41) 
COc1ccc2nc(C)c3n[nH]c(-c4cccnc4)c3c2n1

>  <score_type>  (41) 
oracle

>  <origin>  (41) 
adg

>  <m_score__min__energy>  (41) 
-9.0899999999999999

>  <m_primary>  (41) 
energy

$$$$
41:0
     RDKit          3D

 39 40  0  0  0  0  0  0  0  0999 V2000
   56.1101   29.2807   42.0587 H   0  0  0  0  0  0  0  0  0  0  0  0
   56.4700   29.8870   42.9030 C   0  0  0  0  0  0  0  0  0  0  0  0
   56.3430   29.3530   44.2720 C   0  0  0  0  0  0  0  0  0  0  0  0
   55.2390   29.4750   44.8670 O   0  0  0  0  0  0  0  0  0  0  0  0
   57.4400   28.6990   44.9340 N   0  0  0  0  0  0  0  0  0  0  0  0
   57.1730   27.4200   45.6110 C   0  0  0  0  0  0  0  0  0  0  0  0
   56.4202   27.5845   46.3960 H   0  0  0  0  0  0  0  0  0  0  0  0
   56.8127   26.7058   44.8560 H   0  0  0  0  0  0  0  0  0  0  0  0
   58.4410   26.8300   46.2550 C   0  0  2  0  0  0  0  0  0  0  0  0
   59.0465   26.3396   45.4785 H   0  0  0  0  0  0  0  0  0  0  0  0
   58.0800   25.7630   47.2940 C   0  0  0  0  0  0  0  0  0  0  0  0
   58.2190   26.1738   48.3049 H   0  0  0  0  0  0  0  0  0  0  0  0
   57.0302   25.4625   47.1614 H   0  0  0  0  0  0  0  0  0  0  0  0
   58.7317   24.8868   47.1614 H   0  0  0  0  0  0  0  0  0  0  0  0
   59.2620   27.9610   46.8870 C   0  0  0  0  0  0  0  0  0  0  0  0
   58.6230   28.5270   47.5808 H   0  0  0  0  0  0  0  0  0  0  0  0
   60.1141   27.5211   47.4259 H   0  0  0  0  0  0  0  0  0  0  0  0
   59.8010   28.9160   45.8010 C   0  0  2  0  0  0  0  0  0  0  0  0
   60.6925   28.4404   45.3662 H   0  0  0  0  0  0  0  0  0  0  0  0
   60.2200   30.2530   46.4240 C   0  0  0  0  0  0  0  0  0  0  0  0
   60.1942   30.1706   47.5206 H   0  0  0  0  0  0  0  0  0  0  0  0
   61.2402   30.5052   46.0992 H   0  0  0  0  0  0  0  0  0  0  0  0
   59.5262   31.0423   46.0992 H   0  0  0  0  0  0  0  0  0  0  0  0
   58.8180   29.1100   44.6130 C   0  0  0  0  0  0  0  0  0  0  0  0
   58.8106   30.1740   44.3341 H   0  0  0  0  0  0  0  0  0  0  0  0
   59.1683   28.4721   43.7881 H   0  0  0  0  0  0  0  0  0  0  0  0
   57.0090   31.0850   42.6570 C   0  0  0  0  0  0  0  0  0  0  0  0
   57.1003   31.4129   41.6110 H   0  0  0  0  0  0  0  0  0  0  0  0
   57.4870   31.9880   43.7190 C   0  0  0  0  0  0  0  0  0  0  0  0
   57.0560   31.9170   44.9580 O   0  0  0  0  0  0  0  0  0  0  0  0
   57.6650   32.8420   45.6640 C   0  0  0  0  0  0  0  0  0  0  0  0
   57.4250   33.0810   47.1160 C   0  0  0  0  0  0  0  0  0  0  0  0
   58.0816   32.4271   47.7087 H   0  0  0  0  0  0  0  0  0  0  0  0
   57.6419   34.1325   47.3553 H   0  0  0  0  0  0  0  0  0  0  0  0
   56.3744   32.8597   47.3553 H   0  0  0  0  0  0  0  0  0  0  0  0
   58.5310   33.5590   44.8640 C   0  0  0  0  0  0  0  0  0  0  0  0
   59.1759   34.3969   45.1672 H   0  0  0  0  0  0  0  0  0  0  0  0
   58.4200   33.0070   43.6060 C   0  0  0  0  0  0  0  0  0  0  0  0
   58.9610   33.3125   42.6982 H   0  0  0  0  0  0  0  0  0  0  0  0
  1  2  1  0
  2  3  1  0
  3  4  2  0
  3  5  1  0
  5  6  1  0
  6  7  1  0
  6  8  1  0
  6  9  1  0
  9 10  1  6
  9 11  1  0
 11 12  1  0
 11 13  1  0
 11 14  1  0
  9 15  1  0
 15 16  1  0
 15 17  1  0
 15 18  1  0
 18 19  1  6
 18 20  1  0
 20 21  1  0
 20 22  1  0
 20 23  1  0
 18 24  1  0
 24 25  1  0
 24 26  1  0
  2 27  2  0
 27 28  1  0
 27 29  1  0
 29 30  1  0
 30 31  1  0
 31 32  1  0
 32 33  1  0
 32 34  1  0
 32 35  1  0
 31 36  2  0
 36 37  1  0
 36 38  1  0
 38 39  1  0
 24  5  1  0
 38 29  2  0
M  END
>  <UniqueID>  (42) 
41

>  <SMILES>  (42) 
Cc1ccc(/C=C/C(=O)N2C[C@H](C)C[C@H](C)C2)o1

>  <Energy>  (42) 
64.08893298845166

>  <Genealogy>  (42) 
Cc1ccc(C=CC(=O)N2C[C@H](C)C[C@H](C)C2)o1 (chirality)
Cc1ccc(/C=C/C(=O)N2C[C@H](C)C[C@H](C)C2)o1 (cis-trans isomerization)
Cc1ccc(/C=C/C(=O)N2C[C@H](C)C[C@H](C)C2)o1 (3D coordinates assigned)
Cc1ccc(/C=C/C(=O)N2C[C@H](C)C[C@H](C)C2)o1 (nonaromatic ring conformer: 64.08893298845166 kcal/mol)

>  <smiles>  (42) 
Cc1ccc(C=CC(=O)N2CC(C)CC(C)C2)o1

>  <score_type>  (42) 
oracle

>  <origin>  (42) 
adg

>  <m_score__min__energy>  (42) 
-7.29

>  <m_primary>  (42) 
energy

$$$$
42:0
     RDKit          3D

 29 30  0  0  0  0  0  0  0  0999 V2000
   60.1170   27.8960   48.4250 C   0  0  0  0  0  0  0  0  0  0  0  0
   60.5740   29.2230   48.1890 O   0  0  0  0  0  0  0  0  0  0  0  0
   59.8650   30.1920   47.4610 C   0  0  0  0  0  0  0  0  0  0  0  0
   58.7840   29.8560   46.6280 C   0  0  0  0  0  0  0  0  0  0  0  0
   58.1050   30.8580   45.9110 C   0  0  0  0  0  0  0  0  0  0  0  0
   57.0180   30.5660   45.0650 O   0  0  0  0  0  0  0  0  0  0  0  0
   57.0600   29.7400   43.9010 C   0  0  0  0  0  0  0  0  0  0  0  0
   56.5630   30.5040   42.6780 C   0  0  0  0  0  0  0  0  0  0  0  0
   57.7630   31.9710   42.2750 Br  0  0  0  0  0  0  0  0  0  0  0  0
   58.5190   32.1940   46.0510 C   0  0  0  0  0  0  0  0  0  0  0  0
   57.8750   33.2390   45.3620 C   0  0  0  0  0  0  0  0  0  0  0  0
   58.3070   34.5590   45.5180 C   0  0  0  0  0  0  0  0  0  0  0  0
   59.3840   34.8520   46.3580 C   0  0  0  0  0  0  0  0  0  0  0  0
   60.0350   33.8250   47.0470 C   0  0  0  0  0  0  0  0  0  0  0  0
   59.6100   32.4940   46.9010 C   0  0  0  0  0  0  0  0  0  0  0  0
   60.2470   31.4940   47.5750 N   0  0  0  0  0  0  0  0  0  0  0  0
   60.0553   27.7167   49.5085 H   0  0  0  0  0  0  0  0  0  0  0  0
   59.1221   27.7653   47.9744 H   0  0  0  0  0  0  0  0  0  0  0  0
   60.8205   27.1804   47.9744 H   0  0  0  0  0  0  0  0  0  0  0  0
   58.4679   28.8064   46.5364 H   0  0  0  0  0  0  0  0  0  0  0  0
   58.0962   29.4146   43.7267 H   0  0  0  0  0  0  0  0  0  0  0  0
   56.4078   28.8690   44.0623 H   0  0  0  0  0  0  0  0  0  0  0  0
   56.5199   29.8221   41.8160 H   0  0  0  0  0  0  0  0  0  0  0  0
   55.5610   30.9063   42.8880 H   0  0  0  0  0  0  0  0  0  0  0  0
   57.0274   33.0156   44.6974 H   0  0  0  0  0  0  0  0  0  0  0  0
   57.7971   35.3700   44.9774 H   0  0  0  0  0  0  0  0  0  0  0  0
   59.7202   35.8925   46.4773 H   0  0  0  0  0  0  0  0  0  0  0  0
   60.8836   34.0598   47.7063 H   0  0  0  0  0  0  0  0  0  0  0  0
   61.0540   31.7210   48.2010 H   0  0  0  0  0  0  0  0  0  0  0  0
  1  2  1  0
  2  3  1  0
  3  4  2  0
  4  5  1  0
  5  6  1  0
  6  7  1  0
  7  8  1  0
  8  9  1  0
  5 10  2  0
 10 11  1  0
 11 12  2  0
 12 13  1  0
 13 14  2  0
 14 15  1  0
 15 16  2  0
 16  3  1  0
 15 10  1  0
  1 17  1  0
  1 18  1  0
  1 19  1  0
  4 20  1  0
  7 21  1  0
  7 22  1  0
  8 23  1  0
  8 24  1  0
 11 25  1  0
 12 26  1  0
 13 27  1  0
 14 28  1  0
 16 29  1  0
M  CHG  1  16   1
M  END
>  <UniqueID>  (43) 
42

>  <SMILES>  (43) 
COc1cc(OCCBr)c2ccccc2[nH+]1

>  <Energy>  (43) 
30.447102292446072

>  <Genealogy>  (43) 
COc1cc(OCCBr)c2ccccc2[nH+]1 (protonated)
COc1cc(OCCBr)c2ccccc2[nH+]1 (3D coordinates assigned)
COc1cc(OCCBr)c2ccccc2[nH+]1 (optimized conformer: 30.447102292446072 kcal/mol)

>  <smiles>  (43) 
COc1cc(OCCBr)c2ccccc2n1

>  <score_type>  (43) 
oracle

>  <origin>  (43) 
adg

>  <m_score__min__energy>  (43) 
-4

>  <m_primary>  (43) 
energy

$$$$
43:0
     RDKit          3D

 54 58  0  0  0  0  0  0  0  0999 V2000
   55.5560   27.4094   55.0554 H   0  0  0  0  0  0  0  0  0  0  0  0
   54.9810   28.0340   54.3560 C   0  0  0  0  0  0  0  0  0  0  0  0
   53.5880   28.0740   54.4410 C   0  0  0  0  0  0  0  0  0  0  0  0
   53.0654   27.4676   55.1955 H   0  0  0  0  0  0  0  0  0  0  0  0
   52.8580   28.8840   53.5680 C   0  0  0  0  0  0  0  0  0  0  0  0
   51.7608   28.9162   53.6395 H   0  0  0  0  0  0  0  0  0  0  0  0
   53.5180   29.6570   52.6000 C   0  0  0  0  0  0  0  0  0  0  0  0
   52.7570   30.4850   51.7050 N   0  0  0  0  0  0  0  0  0  0  0  0
   52.4240   29.9620   50.3730 C   0  0  0  0  0  0  0  0  0  0  0  0
   52.0336   28.9393   50.4811 H   0  0  0  0  0  0  0  0  0  0  0  0
   53.3403   29.9776   49.7645 H   0  0  0  0  0  0  0  0  0  0  0  0
   51.3900   30.8050   49.6750 C   0  0  0  0  0  0  0  0  0  0  0  0
   50.9760   30.4640   48.5360 O   0  0  0  0  0  0  0  0  0  0  0  0
   50.9050   32.0140   50.2640 N   0  0  0  0  0  0  0  0  0  0  0  0
   51.2120   32.3700   51.6420 C   0  0  0  0  0  0  0  0  0  0  0  0
   50.4927   31.8791   52.3141 H   0  0  0  0  0  0  0  0  0  0  0  0
   51.1442   33.4619   51.7568 H   0  0  0  0  0  0  0  0  0  0  0  0
   52.6240   31.9160   51.9950 C   0  0  0  0  0  0  0  0  0  0  0  0
   52.8110   32.0936   53.0643 H   0  0  0  0  0  0  0  0  0  0  0  0
   53.3543   32.4832   51.3993 H   0  0  0  0  0  0  0  0  0  0  0  0
   54.9190   29.5870   52.4870 C   0  0  0  0  0  0  0  0  0  0  0  0
   55.5890   30.3820   51.4940 N   0  0  0  0  0  0  0  0  0  0  0  0
   56.7970   30.8560   51.5830 C   0  0  0  0  0  0  0  0  0  0  0  0
   57.7010   30.6750   50.5780 N   0  0  0  0  0  0  0  0  0  0  0  0
   58.9570   31.1990   50.6270 C   0  0  0  0  0  0  0  0  0  0  0  0
   59.8560   31.0170   49.5540 C   0  0  0  0  0  0  0  0  0  0  0  0
   59.4820   30.2260   48.3610 C   0  0  0  0  0  0  0  0  0  0  0  0
   60.0390   28.9540   48.1540 C   0  0  0  0  0  0  0  0  0  0  0  0
   60.7531   28.5432   48.8829 H   0  0  0  0  0  0  0  0  0  0  0  0
   59.6900   28.2090   47.0270 C   0  0  0  0  0  0  0  0  0  0  0  0
   60.1356   27.2161   46.8671 H   0  0  0  0  0  0  0  0  0  0  0  0
   58.7770   28.7190   46.1010 C   0  0  0  0  0  0  0  0  0  0  0  0
   58.5111   28.1297   45.2110 H   0  0  0  0  0  0  0  0  0  0  0  0
   58.1960   29.9860   46.3040 C   0  0  0  0  0  0  0  0  0  0  0  0
   57.2620   30.5350   45.4140 O   0  0  0  0  0  0  0  0  0  0  0  0
   57.3680   30.4700   43.9950 C   0  0  0  0  0  0  0  0  0  0  0  0
   58.2760   29.9132   43.7203 H   0  0  0  0  0  0  0  0  0  0  0  0
   56.4854   29.9577   43.5845 H   0  0  0  0  0  0  0  0  0  0  0  0
   57.4244   31.4890   43.5845 H   0  0  0  0  0  0  0  0  0  0  0  0
   58.5560   30.7310   47.4340 C   0  0  0  0  0  0  0  0  0  0  0  0
   58.1085   31.7225   47.5971 H   0  0  0  0  0  0  0  0  0  0  0  0
   61.1280   31.6120   49.6150 C   0  0  0  0  0  0  0  0  0  0  0  0
   61.8296   31.4862   48.7772 H   0  0  0  0  0  0  0  0  0  0  0  0
   61.5090   32.3620   50.7310 C   0  0  0  0  0  0  0  0  0  0  0  0
   62.5104   32.8156   50.7699 H   0  0  0  0  0  0  0  0  0  0  0  0
   60.6250   32.5380   51.7960 C   0  0  0  0  0  0  0  0  0  0  0  0
   60.9327   33.1245   52.6743 H   0  0  0  0  0  0  0  0  0  0  0  0
   59.3470   31.9690   51.7480 C   0  0  0  0  0  0  0  0  0  0  0  0
   58.4320   32.1620   52.7910 C   0  0  0  0  0  0  0  0  0  0  0  0
   58.7214   32.7470   53.6764 H   0  0  0  0  0  0  0  0  0  0  0  0
   57.1530   31.6110   52.7050 C   0  0  0  0  0  0  0  0  0  0  0  0
   56.4276   31.7699   53.5165 H   0  0  0  0  0  0  0  0  0  0  0  0
   55.6460   28.7860   53.3840 C   0  0  0  0  0  0  0  0  0  0  0  0
   56.7436   28.7508   53.3207 H   0  0  0  0  0  0  0  0  0  0  0  0
  1  2  1  0
  2  3  2  0
  3  4  1  0
  3  5  1  0
  5  6  1  0
  5  7  2  0
  7  8  1  0
  8  9  1  0
  9 10  1  0
  9 11  1  0
  9 12  1  0
 12 13  2  0
 12 14  1  0
 14 15  1  0
 15 16  1  0
 15 17  1  0
 15 18  1  0
 18 19  1  0
 18 20  1  0
  7 21  1  0
 21 22  1  0
 22 23  2  0
 23 24  1  0
 24 25  1  0
 25 26  2  0
 26 27  1  0
 27 28  2  0
 28 29  1  0
 28 30  1  0
 30 31  1  0
 30 32  2  0
 32 33  1  0
 32 34  1  0
 34 35  1  0
 35 36  1  0
 36 37  1  0
 36 38  1  0
 36 39  1  0
 34 40  2  0
 40 41  1  0
 26 42  1  0
 42 43  1  0
 42 44  2  0
 44 45  1  0
 44 46  1  0
 46 47  1  0
 46 48  2  0
 48 49  1  0
 49 50  1  0
 49 51  2  0
 51 52  1  0
 21 53  2  0
 53 54  1  0
 53  2  1  0
 18  8  1  0
 51 23  1  0
 48 25  1  0
 40 27  1  0
M  CHG  2  14  -1  24  -1
M  END
>  <UniqueID>  (44) 
43

>  <SMILES>  (44) 
COc1cccc(-c2cccc3cc/c(=N/c4ccccc4N4CC[N-]C(=O)C4)[n-]c23)c1

>  <Energy>  (44) 
77.41243126371346

>  <Genealogy>  (44) 
COc1cccc(-c2cccc3ccc(=Nc4ccccc4N4CC[N-]C(=O)C4)[n-]c23)c1 (protonated)
COc1cccc(-c2cccc3cc/c(=N/c4ccccc4N4CC[N-]C(=O)C4)[n-]c23)c1 (cis-trans isomerization)
COc1cccc(-c2cccc3cc/c(=N/c4ccccc4N4CC[N-]C(=O)C4)[n-]c23)c1 (3D coordinates assigned)
COc1cccc(-c2cccc3cc/c(=N/c4ccccc4N4CC[N-]C(=O)C4)[n-]c23)c1 (nonaromatic ring conformer: 77.41243126371346 kcal/mol)

>  <smiles>  (44) 
COc1cccc(-c2cccc3ccc(=Nc4ccccc4N4CCNC(=O)C4)[nH]c23)c1

>  <score_type>  (44) 
oracle

>  <origin>  (44) 
adg

>  <m_score__min__energy>  (44) 
-13.279999999999999

>  <m_primary>  (44) 
energy

$$$$
44:0
     RDKit          3D

 37 38  0  0  0  0  0  0  0  0999 V2000
   60.3680   32.8080   47.6230 C   0  0  0  0  0  0  0  0  0  0  0  0
   60.9740   31.5490   47.0150 C   0  0  0  0  0  0  0  0  0  0  0  0
   60.0000   30.4630   47.0310 N   0  0  0  0  0  0  0  0  0  0  0  0
   59.5480   29.7900   45.9560 C   0  0  0  0  0  0  0  0  0  0  0  0
   58.5810   28.9190   46.3960 C   0  0  0  0  0  0  0  0  0  0  0  0
   57.8490   27.9900   45.5920 N   0  0  0  0  0  0  0  0  0  0  0  0
   56.4220   27.9940   45.4940 C   0  0  0  0  0  0  0  0  0  0  0  0
   55.7910   26.9150   45.6420 O   0  0  0  0  0  0  0  0  0  0  0  0
   55.6960   29.1980   45.2250 N   0  0  0  0  0  0  0  0  0  0  0  0
   55.4700   29.7150   43.8790 C   0  0  0  0  0  0  0  0  0  0  0  0
   56.7760   30.2430   43.2880 C   0  0  0  0  0  0  0  0  0  0  0  0
   57.2450   31.4480   44.0410 C   0  0  0  0  0  0  0  0  0  0  0  0
   56.7390   31.8260   45.2350 N   0  0  0  0  0  0  0  0  0  0  0  0
   57.4730   32.9120   45.5460 C   0  0  0  0  0  0  0  0  0  0  0  0
   57.3420   33.6700   46.8270 C   0  0  0  0  0  0  0  0  0  0  0  0
   58.3980   33.1350   44.5490 C   0  0  0  0  0  0  0  0  0  0  0  0
   59.4380   34.2050   44.5010 C   0  0  0  0  0  0  0  0  0  0  0  0
   58.2310   32.2170   43.6320 O   0  0  0  0  0  0  0  0  0  0  0  0
   58.4930   29.1010   47.7620 C   0  0  0  0  0  0  0  0  0  0  0  0
   59.3660   30.0610   48.1250 N   0  0  0  0  0  0  0  0  0  0  0  0
   60.4017   32.7381   48.7203 H   0  0  0  0  0  0  0  0  0  0  0  0
   60.9417   33.6869   47.2938 H   0  0  0  0  0  0  0  0  0  0  0  0
   59.3232   32.9078   47.2938 H   0  0  0  0  0  0  0  0  0  0  0  0
   61.2723   31.7543   45.9763 H   0  0  0  0  0  0  0  0  0  0  0  0
   61.8528   31.2519   47.6062 H   0  0  0  0  0  0  0  0  0  0  0  0
   59.8897   29.9145   44.9179 H   0  0  0  0  0  0  0  0  0  0  0  0
   55.0829   28.9074   43.2403 H   0  0  0  0  0  0  0  0  0  0  0  0
   54.7414   30.5376   43.9292 H   0  0  0  0  0  0  0  0  0  0  0  0
   57.5438   29.4575   43.3482 H   0  0  0  0  0  0  0  0  0  0  0  0
   56.6023   30.5254   42.2391 H   0  0  0  0  0  0  0  0  0  0  0  0
   57.4613   32.9799   47.6752 H   0  0  0  0  0  0  0  0  0  0  0  0
   58.1192   34.4470   46.8744 H   0  0  0  0  0  0  0  0  0  0  0  0
   56.3491   34.1411   46.8744 H   0  0  0  0  0  0  0  0  0  0  0  0
   59.7167   34.4917   45.5258 H   0  0  0  0  0  0  0  0  0  0  0  0
   60.3259   33.8299   43.9709 H   0  0  0  0  0  0  0  0  0  0  0  0
   59.0378   35.0818   43.9709 H   0  0  0  0  0  0  0  0  0  0  0  0
   57.8222   28.5536   48.4405 H   0  0  0  0  0  0  0  0  0  0  0  0
  1  2  1  0
  2  3  1  0
  3  4  1  0
  4  5  2  0
  5  6  1  0
  6  7  1  0
  7  8  2  0
  7  9  1  0
  9 10  1  0
 10 11  1  0
 11 12  1  0
 12 13  2  0
 13 14  1  0
 14 15  1  0
 14 16  2  0
 16 17  1  0
 16 18  1  0
  5 19  1  0
 19 20  2  0
 20  3  1  0
 18 12  1  0
  1 21  1  0
  1 22  1  0
  1 23  1  0
  2 24  1  0
  2 25  1  0
  4 26  1  0
 10 27  1  0
 10 28  1  0
 11 29  1  0
 11 30  1  0
 15 31  1  0
 15 32  1  0
 15 33  1  0
 17 34  1  0
 17 35  1  0
 17 36  1  0
 19 37  1  0
M  CHG  2   6  -1   9  -1
M  END
>  <UniqueID>  (45) 
44

>  <SMILES>  (45) 
CCn1cc([N-]C(=O)[N-]CCc2nc(C)c(C)o2)cn1

>  <Energy>  (45) 
89.8359258258298

>  <Genealogy>  (45) 
CCn1cc([N-]C(=O)[N-]CCc2nc(C)c(C)o2)cn1 (protonated)
CCn1cc([N-]C(=O)[N-]CCc2nc(C)c(C)o2)cn1 (3D coordinates assigned)
CCn1cc([N-]C(=O)[N-]CCc2nc(C)c(C)o2)cn1 (optimized conformer: 89.8359258258298 kcal/mol)

>  <smiles>  (45) 
CCn1cc(NC(=O)NCCc2nc(C)c(C)o2)cn1

>  <score_type>  (45) 
oracle

>  <origin>  (45) 
adg

>  <m_score__min__energy>  (45) 
-10.4

>  <m_primary>  (45) 
energy

$$$$
