0:0
     RDKit          3D

 72 76  0  0  0  0  0  0  0  0999 V2000
   56.0800   29.7180   43.5670 C   0  0  0  0  0  0  0  0  0  0  0  0
   56.9840   30.6610   43.8500 C   0  0  0  0  0  0  0  0  0  0  0  0
   57.5250   30.8430   45.2400 C   0  0  0  0  0  0  0  0  0  0  0  0
   58.1530   32.2040   45.3940 C   0  0  0  0  0  0  0  0  0  0  0  0
   57.5680   33.3240   44.7900 C   0  0  0  0  0  0  0  0  0  0  0  0
   58.1430   34.5820   44.9490 C   0  0  0  0  0  0  0  0  0  0  0  0
   59.3010   34.7380   45.7150 C   0  0  0  0  0  0  0  0  0  0  0  0
   59.9160   33.6300   46.3470 C   0  0  0  0  0  0  0  0  0  0  0  0
   61.1250   33.7940   47.1560 N   0  0  0  0  0  0  0  0  0  0  0  0
   60.9780   34.0570   48.6070 C   0  0  0  0  0  0  0  0  0  0  0  0
   62.2930   34.3570   49.3240 C   0  0  0  0  0  0  0  0  0  0  0  0
   63.3360   33.4500   48.8390 N   0  0  0  0  0  0  0  0  0  0  0  0
   64.5330   33.4180   49.7110 C   0  0  0  0  0  0  0  0  0  0  0  0
   64.2370   33.6200   51.2120 C   0  0  0  0  0  0  0  0  0  0  0  0
   63.7880   32.3090   51.8660 C   0  0  0  0  0  0  0  0  0  0  0  0
   62.3790   32.0220   51.5230 N   0  0  0  0  0  0  0  0  0  0  0  0
   62.0900   31.1830   50.4810 C   0  0  0  0  0  0  0  0  0  0  0  0
   63.0220   30.6370   49.8270 O   0  0  0  0  0  0  0  0  0  0  0  0
   60.7600   30.9330   50.1180 C   0  0  0  0  0  0  0  0  0  0  0  0
   60.4780   30.0390   48.9690 C   0  0  0  0  0  0  0  0  0  0  0  0
   59.6960   28.8870   49.1460 C   0  0  0  0  0  0  0  0  0  0  0  0
   59.4330   28.0450   48.0620 C   0  0  0  0  0  0  0  0  0  0  0  0
   59.9480   28.3350   46.7930 C   0  0  0  0  0  0  0  0  0  0  0  0
   59.6510   27.4600   45.7360 O   0  0  0  0  0  0  0  0  0  0  0  0
   59.1910   27.8750   44.4540 C   0  0  0  0  0  0  0  0  0  0  0  0
   60.7400   29.4870   46.6190 C   0  0  0  0  0  0  0  0  0  0  0  0
   61.0020   30.3310   47.7020 C   0  0  0  0  0  0  0  0  0  0  0  0
   59.7310   31.5660   50.8440 C   0  0  0  0  0  0  0  0  0  0  0  0
   58.3740   31.3200   50.5390 C   0  0  0  0  0  0  0  0  0  0  0  0
   57.3730   31.9640   51.2560 C   0  0  0  0  0  0  0  0  0  0  0  0
   57.7110   32.8430   52.2740 C   0  0  0  0  0  0  0  0  0  0  0  0
   59.0530   33.0650   52.5730 C   0  0  0  0  0  0  0  0  0  0  0  0
   60.0510   32.4290   51.8720 N   0  0  0  0  0  0  0  0  0  0  0  0
   61.3680   32.6570   52.1990 C   0  0  0  0  0  0  0  0  0  0  0  0
   61.6550   33.4600   53.1330 O   0  0  0  0  0  0  0  0  0  0  0  0
   63.6450   33.7870   47.4460 C   0  0  0  0  0  0  0  0  0  0  0  0
   62.4420   33.4940   46.5460 C   0  0  0  0  0  0  0  0  0  0  0  0
   59.3090   32.3620   46.1740 C   0  0  0  0  0  0  0  0  0  0  0  0
   55.7023   29.6088   42.5397 H   0  0  0  0  0  0  0  0  0  0  0  0
   55.7137   29.0511   44.3614 H   0  0  0  0  0  0  0  0  0  0  0  0
   57.3409   31.3204   43.0451 H   0  0  0  0  0  0  0  0  0  0  0  0
   56.7028   30.7409   45.9636 H   0  0  0  0  0  0  0  0  0  0  0  0
   58.2927   30.0769   45.4235 H   0  0  0  0  0  0  0  0  0  0  0  0
   56.6535   33.2097   44.1895 H   0  0  0  0  0  0  0  0  0  0  0  0
   57.6829   35.4582   44.4688 H   0  0  0  0  0  0  0  0  0  0  0  0
   59.7427   35.7389   45.8291 H   0  0  0  0  0  0  0  0  0  0  0  0
   60.3099   34.9214   48.7352 H   0  0  0  0  0  0  0  0  0  0  0  0
   60.5750   33.1374   49.0563 H   0  0  0  0  0  0  0  0  0  0  0  0
   62.5902   35.3969   49.1235 H   0  0  0  0  0  0  0  0  0  0  0  0
   62.1594   34.2140   50.4065 H   0  0  0  0  0  0  0  0  0  0  0  0
   65.0232   32.4412   49.5859 H   0  0  0  0  0  0  0  0  0  0  0  0
   65.1683   34.2609   49.4013 H   0  0  0  0  0  0  0  0  0  0  0  0
   65.1485   33.9779   51.7131 H   0  0  0  0  0  0  0  0  0  0  0  0
   63.4264   34.3567   51.3126 H   0  0  0  0  0  0  0  0  0  0  0  0
   64.4241   31.4870   51.5057 H   0  0  0  0  0  0  0  0  0  0  0  0
   63.8787   32.4040   52.9581 H   0  0  0  0  0  0  0  0  0  0  0  0
   59.2895   28.6465   50.1394 H   0  0  0  0  0  0  0  0  0  0  0  0
   58.8157   27.1462   48.2073 H   0  0  0  0  0  0  0  0  0  0  0  0
   58.3792   28.6074   44.5751 H   0  0  0  0  0  0  0  0  0  0  0  0
   60.0208   28.3360   43.8982 H   0  0  0  0  0  0  0  0  0  0  0  0
   58.8176   27.0023   43.8982 H   0  0  0  0  0  0  0  0  0  0  0  0
   61.1537   29.7231   45.6275 H   0  0  0  0  0  0  0  0  0  0  0  0
   61.6221   31.2283   47.5594 H   0  0  0  0  0  0  0  0  0  0  0  0
   58.1096   30.6186   49.7339 H   0  0  0  0  0  0  0  0  0  0  0  0
   56.3157   31.7772   51.0169 H   0  0  0  0  0  0  0  0  0  0  0  0
   56.9243   33.3615   52.8416 H   0  0  0  0  0  0  0  0  0  0  0  0
   59.3191   33.7602   53.3829 H   0  0  0  0  0  0  0  0  0  0  0  0
   63.8959   34.8559   47.3789 H   0  0  0  0  0  0  0  0  0  0  0  0
   64.4971   33.1767   47.1121 H   0  0  0  0  0  0  0  0  0  0  0  0
   62.5422   34.0984   45.6324 H   0  0  0  0  0  0  0  0  0  0  0  0
   62.4553   32.4113   46.3520 H   0  0  0  0  0  0  0  0  0  0  0  0
   59.7534   31.4818   46.6617 H   0  0  0  0  0  0  0  0  0  0  0  0
  1  2  2  0
  2  3  1  0
  3  4  1  0
  4  5  2  0
  5  6  1  0
  6  7  2  0
  7  8  1  0
  8  9  1  0
  9 10  1  0
 10 11  1  0
 11 12  1  0
 12 13  1  0
 13 14  1  0
 14 15  1  0
 15 16  1  0
 16 17  1  0
 17 18  2  0
 17 19  1  0
 19 20  1  0
 20 21  2  0
 21 22  1  0
 22 23  2  0
 23 24  1  0
 24 25  1  0
 23 26  1  0
 26 27  2  0
 19 28  2  0
 28 29  1  0
 29 30  2  0
 30 31  1  0
 31 32  2  0
 32 33  1  0
 33 34  1  0
 34 35  2  0
 12 36  1  0
 36 37  1  0
  8 38  2  0
 38  4  1  0
 37  9  1  0
 34 16  1  0
 27 20  1  0
 33 28  1  0
  1 39  1  0
  1 40  1  0
  2 41  1  0
  3 42  1  0
  3 43  1  0
  5 44  1  0
  6 45  1  0
  7 46  1  0
 10 47  1  0
 10 48  1  0
 11 49  1  0
 11 50  1  0
 13 51  1  0
 13 52  1  0
 14 53  1  0
 14 54  1  0
 15 55  1  0
 15 56  1  0
 21 57  1  0
 22 58  1  0
 25 59  1  0
 25 60  1  0
 25 61  1  0
 26 62  1  0
 27 63  1  0
 29 64  1  0
 30 65  1  0
 31 66  1  0
 32 67  1  0
 36 68  1  0
 36 69  1  0
 37 70  1  0
 37 71  1  0
 38 72  1  0
M  END
>  <UniqueID>  (1) 
1

>  <SMILES>  (1) 
C=CCc1cccc(N2CCN(CCCn3c(=O)c(-c4ccc(OC)cc4)c4ccccn4c3=O)CC2)c1

>  <Energy>  (1) 
101.10879208412005

>  <Genealogy>  (1) 
C=CCc1cccc(N2CCN(CCCn3c(=O)c(-c4ccc(OC)cc4)c4ccccn4c3=O)CC2)c1 (3D coordinates assigned)
C=CCc1cccc(N2CCN(CCCn3c(=O)c(-c4ccc(OC)cc4)c4ccccn4c3=O)CC2)c1 (nonaromatic ring conformer: 101.10879208412005 kcal/mol)

>  <smiles>  (1) 
C=CCc1cccc(N2CCN(CCCn3c(=O)c(-c4ccc(OC)cc4)c4ccccn4c3=O)CC2)c1

>  <score_type>  (1) 
oracle

>  <origin>  (1) 
adg

>  <m_score__min__energy>  (1) 
-9.2200000000000006

>  <m_primary>  (1) 
energy

$$$$
1:0
     RDKit          3D

 45 47  0  0  0  0  0  0  0  0999 V2000
   59.3960   34.5580   44.5220 C   0  0  0  0  0  0  0  0  0  0  0  0
   59.0670   33.4280   45.4180 N   0  0  2  0  0  0  0  0  0  0  0  0
   57.6250   33.0930   45.3260 C   0  0  0  0  0  0  0  0  0  0  0  0
   57.3970   31.6090   45.2710 C   0  0  0  0  0  0  0  0  0  0  0  0
   56.2970   31.1090   44.6480 N   0  0  0  0  0  0  0  0  0  0  0  0
   56.0880   29.7700   44.5700 C   0  0  0  0  0  0  0  0  0  0  0  0
   55.0630   29.3300   43.9860 O   0  0  0  0  0  0  0  0  0  0  0  0
   57.0110   28.8860   45.1320 C   0  0  0  0  0  0  0  0  0  0  0  0
   58.1450   29.4110   45.7740 C   0  0  0  0  0  0  0  0  0  0  0  0
   59.1440   28.5530   46.3690 N   0  0  0  0  0  0  0  0  0  0  0  0
   59.9600   27.6540   45.5410 C   0  0  0  0  0  0  0  0  0  0  0  0
   60.4460   26.4610   46.3710 C   0  0  0  0  0  0  0  0  0  0  0  0
   61.0580   26.8940   47.5680 O   0  0  0  0  0  0  0  0  0  0  0  0
   60.0950   27.5190   48.3920 C   0  0  0  0  0  0  0  0  0  0  0  0
   59.5830   28.8110   47.7470 C   0  0  0  0  0  0  0  0  0  0  0  0
   58.3060   30.7610   45.8210 N   0  0  0  0  0  0  0  0  0  0  0  0
   59.4140   33.7550   46.8230 C   0  0  0  0  0  0  0  0  0  0  0  0
   60.7780   33.2250   47.2120 C   0  0  0  0  0  0  0  0  0  0  0  0
   61.9340   33.8360   46.6970 C   0  0  0  0  0  0  0  0  0  0  0  0
   63.2020   33.3700   47.0580 C   0  0  0  0  0  0  0  0  0  0  0  0
   63.3260   32.2930   47.9400 C   0  0  0  0  0  0  0  0  0  0  0  0
   62.1830   31.6820   48.4610 C   0  0  0  0  0  0  0  0  0  0  0  0
   60.9120   32.1430   48.1030 C   0  0  0  0  0  0  0  0  0  0  0  0
   59.8170   31.5390   48.6300 F   0  0  0  0  0  0  0  0  0  0  0  0
   59.6532   35.4413   45.1251 H   0  0  0  0  0  0  0  0  0  0  0  0
   60.2521   34.2855   43.8873 H   0  0  0  0  0  0  0  0  0  0  0  0
   58.5274   34.7876   43.8873 H   0  0  0  0  0  0  0  0  0  0  0  0
   59.6250   32.5920   45.1210 H   0  0  0  0  0  0  0  0  0  0  0  0
   57.1085   33.4997   46.2079 H   0  0  0  0  0  0  0  0  0  0  0  0
   57.2313   33.5330   44.3979 H   0  0  0  0  0  0  0  0  0  0  0  0
   56.8533   27.7990   45.0732 H   0  0  0  0  0  0  0  0  0  0  0  0
   59.3549   27.2875   44.6986 H   0  0  0  0  0  0  0  0  0  0  0  0
   60.8330   28.2077   45.1652 H   0  0  0  0  0  0  0  0  0  0  0  0
   59.5866   25.8202   46.6176 H   0  0  0  0  0  0  0  0  0  0  0  0
   61.1866   25.9014   45.7808 H   0  0  0  0  0  0  0  0  0  0  0  0
   59.2495   26.8319   48.5434 H   0  0  0  0  0  0  0  0  0  0  0  0
   60.5636   27.7677   49.3556 H   0  0  0  0  0  0  0  0  0  0  0  0
   58.7352   29.1974   48.3317 H   0  0  0  0  0  0  0  0  0  0  0  0
   60.3973   29.5503   47.7309 H   0  0  0  0  0  0  0  0  0  0  0  0
   59.4109   34.8484   46.9437 H   0  0  0  0  0  0  0  0  0  0  0  0
   58.6673   33.2788   47.4755 H   0  0  0  0  0  0  0  0  0  0  0  0
   61.8408   34.6863   46.0054 H   0  0  0  0  0  0  0  0  0  0  0  0
   64.1021   33.8512   46.6477 H   0  0  0  0  0  0  0  0  0  0  0  0
   64.3235   31.9265   48.2239 H   0  0  0  0  0  0  0  0  0  0  0  0
   62.2829   30.8349   49.1556 H   0  0  0  0  0  0  0  0  0  0  0  0
  1  2  1  0
  2  3  1  0
  3  4  1  0
  4  5  2  0
  5  6  1  0
  6  7  2  0
  6  8  1  0
  8  9  2  0
  9 10  1  0
 10 11  1  0
 11 12  1  0
 12 13  1  0
 13 14  1  0
 14 15  1  0
  9 16  1  0
  2 17  1  0
 17 18  1  0
 18 19  2  0
 19 20  1  0
 20 21  2  0
 21 22  1  0
 22 23  2  0
 23 24  1  0
 16  4  1  0
 23 18  1  0
 15 10  1  0
  1 25  1  0
  1 26  1  0
  1 27  1  0
  2 28  1  6
  3 29  1  0
  3 30  1  0
  8 31  1  0
 11 32  1  0
 11 33  1  0
 12 34  1  0
 12 35  1  0
 14 36  1  0
 14 37  1  0
 15 38  1  0
 15 39  1  0
 17 40  1  0
 17 41  1  0
 19 42  1  0
 20 43  1  0
 21 44  1  0
 22 45  1  0
M  CHG  2   2   1  16  -1
M  END
>  <UniqueID>  (2) 
2

>  <SMILES>  (2) 
C[N@H+](Cc1nc(=O)cc(N2CCOCC2)[n-]1)Cc1ccccc1F

>  <Energy>  (2) 
53.00150806799912

>  <Genealogy>  (2) 
C[NH+](Cc1nc(=O)cc(N2CCOCC2)[n-]1)Cc1ccccc1F (protonated)
C[N@H+](Cc1nc(=O)cc(N2CCOCC2)[n-]1)Cc1ccccc1F (chirality)
C[N@H+](Cc1nc(=O)cc(N2CCOCC2)[n-]1)Cc1ccccc1F (3D coordinates assigned)
C[N@H+](Cc1nc(=O)cc(N2CCOCC2)[n-]1)Cc1ccccc1F (nonaromatic ring conformer: 53.00150806799912 kcal/mol)

>  <smiles>  (2) 
CN(Cc1nc(=O)cc(N2CCOCC2)[nH]1)Cc1ccccc1F

>  <score_type>  (2) 
oracle

>  <origin>  (2) 
adg

>  <m_score__min__energy>  (2) 
-7.0099999999999998

>  <m_primary>  (2) 
energy

$$$$
2:0
     RDKit          3D

 25 26  0  0  0  0  0  0  0  0999 V2000
   58.1600   22.7030   45.5160 C   0  0  0  0  0  0  0  0  0  0  0  0
   58.0590   23.7180   46.5080 O   0  0  0  0  0  0  0  0  0  0  0  0
   57.8860   25.0840   46.2350 C   0  0  0  0  0  0  0  0  0  0  0  0
   58.9740   25.9340   45.9630 C   0  0  0  0  0  0  0  0  0  0  0  0
   58.7650   27.2880   45.6960 C   0  0  0  0  0  0  0  0  0  0  0  0
   57.4660   27.8250   45.6940 C   0  0  0  0  0  0  0  0  0  0  0  0
   57.2340   29.2230   45.4200 N   0  0  0  0  0  0  0  0  0  0  0  0
   58.0340   30.2800   45.6640 C   0  0  0  0  0  0  0  0  0  0  0  0
   57.4330   31.4100   45.2510 N   0  0  0  0  0  0  0  0  0  0  0  0
   56.2650   31.0250   44.7540 N   0  0  0  0  0  0  0  0  0  0  0  0
   56.1440   29.7110   44.8550 N   0  0  0  0  0  0  0  0  0  0  0  0
   56.3810   26.9740   45.9660 C   0  0  0  0  0  0  0  0  0  0  0  0
   56.5850   25.6060   46.2360 C   0  0  0  0  0  0  0  0  0  0  0  0
   55.5190   24.7330   46.5110 O   0  0  0  0  0  0  0  0  0  0  0  0
   54.7800   24.0240   45.5220 C   0  0  0  0  0  0  0  0  0  0  0  0
   58.2576   21.7219   46.0038 H   0  0  0  0  0  0  0  0  0  0  0  0
   57.2565   22.7122   44.8886 H   0  0  0  0  0  0  0  0  0  0  0  0
   59.0440   22.8901   44.8886 H   0  0  0  0  0  0  0  0  0  0  0  0
   59.9965   25.5285   45.9608 H   0  0  0  0  0  0  0  0  0  0  0  0
   59.6248   27.9409   45.4852 H   0  0  0  0  0  0  0  0  0  0  0  0
   59.0287   30.2264   46.1307 H   0  0  0  0  0  0  0  0  0  0  0  0
   55.3591   27.3812   45.9682 H   0  0  0  0  0  0  0  0  0  0  0  0
   54.0698   23.3426   46.0133 H   0  0  0  0  0  0  0  0  0  0  0  0
   54.2278   24.7389   44.8943 H   0  0  0  0  0  0  0  0  0  0  0  0
   55.4714   23.4427   44.8943 H   0  0  0  0  0  0  0  0  0  0  0  0
  1  2  1  0
  2  3  1  0
  3  4  2  0
  4  5  1  0
  5  6  2  0
  6  7  1  0
  7  8  1  0
  8  9  2  0
  9 10  1  0
 10 11  2  0
  6 12  1  0
 12 13  2  0
 13 14  1  0
 14 15  1  0
 13  3  1  0
 11  7  1  0
  1 16  1  0
  1 17  1  0
  1 18  1  0
  4 19  1  0
  5 20  1  0
  8 21  1  0
 12 22  1  0
 15 23  1  0
 15 24  1  0
 15 25  1  0
M  END
>  <UniqueID>  (3) 
3

>  <SMILES>  (3) 
COc1ccc(-n2cnnn2)cc1OC

>  <Energy>  (3) 
66.1893385825703

>  <Genealogy>  (3) 
COc1ccc(-n2cnnn2)cc1OC (3D coordinates assigned)
COc1ccc(-n2cnnn2)cc1OC (optimized conformer: 66.1893385825703 kcal/mol)

>  <smiles>  (3) 
COc1ccc(-n2cnnn2)cc1OC

>  <score_type>  (3) 
oracle

>  <origin>  (3) 
adg

>  <m_score__min__energy>  (3) 
-5.4400000000000004

>  <m_primary>  (3) 
energy

$$$$
3:0
     RDKit          3D

 29 30  0  0  0  0  0  0  0  0999 V2000
   59.8650   22.2090   44.8890 C   0  0  0  0  0  0  0  0  0  0  0  0
   58.4000   22.5070   44.7690 C   0  0  0  0  0  0  0  0  0  0  0  0
   57.6400   21.9150   43.7490 C   0  0  0  0  0  0  0  0  0  0  0  0
   56.2890   22.2380   43.6030 C   0  0  0  0  0  0  0  0  0  0  0  0
   55.6860   23.1520   44.4700 C   0  0  0  0  0  0  0  0  0  0  0  0
   54.3740   23.4580   44.3120 F   0  0  0  0  0  0  0  0  0  0  0  0
   56.4280   23.7460   45.5000 C   0  0  0  0  0  0  0  0  0  0  0  0
   55.7870   24.7020   46.3560 N   0  0  0  0  0  0  0  0  0  0  0  0
   55.1810   25.9310   45.9420 C   0  0  0  0  0  0  0  0  0  0  0  0
   53.9610   25.9350   45.6360 O   0  0  0  0  0  0  0  0  0  0  0  0
   55.9250   27.1570   45.9840 N   0  0  0  0  0  0  0  0  0  0  0  0
   57.3470   27.2990   45.8710 C   0  0  0  0  0  0  0  0  0  0  0  0
   57.9520   27.9150   44.7590 C   0  0  0  0  0  0  0  0  0  0  0  0
   59.3450   28.0090   44.6790 C   0  0  0  0  0  0  0  0  0  0  0  0
   60.1440   27.4800   45.6960 C   0  0  0  0  0  0  0  0  0  0  0  0
   59.5510   26.8460   46.7910 C   0  0  0  0  0  0  0  0  0  0  0  0
   58.1580   26.7500   46.8740 C   0  0  0  0  0  0  0  0  0  0  0  0
   57.7960   23.4400   45.6280 C   0  0  0  0  0  0  0  0  0  0  0  0
   60.1418   22.1527   45.9521 H   0  0  0  0  0  0  0  0  0  0  0  0
   60.0848   21.2478   44.4015 H   0  0  0  0  0  0  0  0  0  0  0  0
   60.4428   23.0080   44.4015 H   0  0  0  0  0  0  0  0  0  0  0  0
   58.1092   21.1948   43.0627 H   0  0  0  0  0  0  0  0  0  0  0  0
   55.6975   21.7706   42.8019 H   0  0  0  0  0  0  0  0  0  0  0  0
   57.3273   28.3235   43.9509 H   0  0  0  0  0  0  0  0  0  0  0  0
   59.8129   28.5006   43.8133 H   0  0  0  0  0  0  0  0  0  0  0  0
   61.2392   27.5626   45.6347 H   0  0  0  0  0  0  0  0  0  0  0  0
   60.1798   26.4223   47.5879 H   0  0  0  0  0  0  0  0  0  0  0  0
   57.6958   26.2402   47.7322 H   0  0  0  0  0  0  0  0  0  0  0  0
   58.3961   23.9348   46.4059 H   0  0  0  0  0  0  0  0  0  0  0  0
  1  2  1  0
  2  3  2  0
  3  4  1  0
  4  5  2  0
  5  6  1  0
  5  7  1  0
  7  8  1  0
  8  9  1  0
  9 10  2  0
  9 11  1  0
 11 12  1  0
 12 13  2  0
 13 14  1  0
 14 15  2  0
 15 16  1  0
 16 17  2  0
  7 18  2  0
 18  2  1  0
 17 12  1  0
  1 19  1  0
  1 20  1  0
  1 21  1  0
  3 22  1  0
  4 23  1  0
 13 24  1  0
 14 25  1  0
 15 26  1  0
 16 27  1  0
 17 28  1  0
 18 29  1  0
M  CHG  2   8  -1  11  -1
M  END
>  <UniqueID>  (4) 
4

>  <SMILES>  (4) 
Cc1ccc(F)c([N-]C(=O)[N-]c2ccccc2)c1

>  <Energy>  (4) 
35.54590384097269

>  <Genealogy>  (4) 
Cc1ccc(F)c([N-]C(=O)[N-]c2ccccc2)c1 (protonated)
Cc1ccc(F)c([N-]C(=O)[N-]c2ccccc2)c1 (3D coordinates assigned)
Cc1ccc(F)c([N-]C(=O)[N-]c2ccccc2)c1 (optimized conformer: 35.54590384097269 kcal/mol)

>  <smiles>  (4) 
Cc1ccc(F)c(NC(=O)Nc2ccccc2)c1

>  <score_type>  (4) 
oracle

>  <origin>  (4) 
adg

>  <m_score__min__energy>  (4) 
-10.43

>  <m_primary>  (4) 
energy

$$$$
4:0
     RDKit          3D

 33 34  0  0  0  0  0  0  0  0999 V2000
   57.4010   33.1640   45.4960 C   0  0  0  0  0  0  0  0  0  0  0  0
   57.4150   32.0430   44.4610 C   0  0  0  0  0  0  0  0  0  0  0  0
   57.2810   30.7210   45.1330 N   0  0  0  0  0  0  0  0  0  0  0  0
   56.2280   29.8840   44.5130 C   0  0  0  0  0  0  0  0  0  0  0  0
   56.2960   29.9350   42.9870 C   0  0  0  0  0  0  0  0  0  0  0  0
   58.5740   29.9960   45.1600 C   0  0  0  0  0  0  0  0  0  0  0  0
   58.8780   29.4720   46.5700 C   0  0  0  0  0  0  0  0  0  0  0  0
   59.2110   28.0830   46.5370 O   0  0  0  0  0  0  0  0  0  0  0  0
   58.2930   27.0630   46.2640 C   0  0  0  0  0  0  0  0  0  0  0  0
   58.7600   25.8050   45.9770 N   0  0  0  0  0  0  0  0  0  0  0  0
   57.9090   24.7750   45.6940 C   0  0  0  0  0  0  0  0  0  0  0  0
   58.5900   23.0370   45.2930 Br  0  0  0  0  0  0  0  0  0  0  0  0
   56.5480   25.0430   45.7060 C   0  0  0  0  0  0  0  0  0  0  0  0
   55.5160   24.2230   45.4600 N   0  0  0  0  0  0  0  0  0  0  0  0
   54.4550   25.0580   45.6240 C   0  0  0  0  0  0  0  0  0  0  0  0
   53.2670   24.6710   45.4790 O   0  0  0  0  0  0  0  0  0  0  0  0
   54.7670   26.3400   45.9550 N   0  0  0  0  0  0  0  0  0  0  0  0
   56.1040   26.2850   45.9960 C   0  0  0  0  0  0  0  0  0  0  0  0
   56.9460   27.3050   46.2790 N   0  0  0  0  0  0  0  0  0  0  0  0
   57.4064   32.7299   46.5067 H   0  0  0  0  0  0  0  0  0  0  0  0
   58.2913   33.7963   45.3637 H   0  0  0  0  0  0  0  0  0  0  0  0
   56.4952   33.7739   45.3637 H   0  0  0  0  0  0  0  0  0  0  0  0
   56.5764   32.1824   43.7630 H   0  0  0  0  0  0  0  0  0  0  0  0
   58.3684   32.0722   43.9132 H   0  0  0  0  0  0  0  0  0  0  0  0
   56.3598   28.8426   44.8418 H   0  0  0  0  0  0  0  0  0  0  0  0
   55.2486   30.2737   44.8274 H   0  0  0  0  0  0  0  0  0  0  0  0
   57.1407   30.5685   42.6786 H   0  0  0  0  0  0  0  0  0  0  0  0
   56.4370   28.9181   42.5921 H   0  0  0  0  0  0  0  0  0  0  0  0
   55.3592   30.3551   42.5921 H   0  0  0  0  0  0  0  0  0  0  0  0
   58.5254   29.1466   44.4627 H   0  0  0  0  0  0  0  0  0  0  0  0
   59.3732   30.6911   44.8632 H   0  0  0  0  0  0  0  0  0  0  0  0
   59.7248   30.0355   46.9888 H   0  0  0  0  0  0  0  0  0  0  0  0
   57.9822   29.6039   47.1946 H   0  0  0  0  0  0  0  0  0  0  0  0
  1  2  1  0
  2  3  1  0
  3  4  1  0
  4  5  1  0
  3  6  1  0
  6  7  1  0
  7  8  1  0
  8  9  1  0
  9 10  2  0
 10 11  1  0
 11 12  1  0
 11 13  2  0
 13 14  1  0
 14 15  1  0
 15 16  2  0
 15 17  1  0
 17 18  1  0
 18 19  2  0
 19  9  1  0
 18 13  1  0
  1 20  1  0
  1 21  1  0
  1 22  1  0
  2 23  1  0
  2 24  1  0
  4 25  1  0
  4 26  1  0
  5 27  1  0
  5 28  1  0
  5 29  1  0
  6 30  1  0
  6 31  1  0
  7 32  1  0
  7 33  1  0
M  CHG  2  14  -1  17  -1
M  END
>  <UniqueID>  (5) 
5

>  <SMILES>  (5) 
CCN(CC)CCOc1nc(Br)c2[n-]c(=O)[n-]c2n1

>  <Energy>  (5) 
68.43269367316927

>  <Genealogy>  (5) 
CCN(CC)CCOc1nc(Br)c2[n-]c(=O)[n-]c2n1 (protonated)
CCN(CC)CCOc1nc(Br)c2[n-]c(=O)[n-]c2n1 (3D coordinates assigned)
CCN(CC)CCOc1nc(Br)c2[n-]c(=O)[n-]c2n1 (optimized conformer: 68.43269367316927 kcal/mol)

>  <smiles>  (5) 
CCN(CC)CCOc1nc(Br)c2[nH]c(=O)[nH]c2n1

>  <score_type>  (5) 
oracle

>  <origin>  (5) 
adg

>  <m_score__min__energy>  (5) 
-10.039999999999999

>  <m_primary>  (5) 
energy

$$$$
5:0
     RDKit          3D

 39 41  0  0  0  0  0  0  0  0999 V2000
   62.5050   34.5720   49.4550 C   0  0  0  0  0  0  0  0  0  0  0  0
   61.2540   34.8820   48.8490 O   0  0  0  0  0  0  0  0  0  0  0  0
   60.4670   33.9610   48.1420 C   0  0  0  0  0  0  0  0  0  0  0  0
   60.9000   32.6320   48.0730 C   0  0  0  0  0  0  0  0  0  0  0  0
   60.1510   31.6760   47.3800 C   0  0  0  0  0  0  0  0  0  0  0  0
   58.9530   32.0380   46.7430 C   0  0  0  0  0  0  0  0  0  0  0  0
   58.1570   31.0340   46.0100 C   0  0  0  0  0  0  0  0  0  0  0  0
   57.0370   31.3080   45.3110 N   0  0  0  0  0  0  0  0  0  0  0  0
   56.6210   30.1580   44.8060 N   0  0  0  0  0  0  0  0  0  0  0  0
   57.5020   29.2230   45.2140 C   0  0  0  0  0  0  0  0  0  0  0  0
   57.4170   27.7890   44.8760 C   0  0  0  0  0  0  0  0  0  0  0  0
   56.9050   26.8750   45.8060 C   0  0  0  0  0  0  0  0  0  0  0  0
   56.8210   25.5150   45.4940 C   0  0  0  0  0  0  0  0  0  0  0  0
   57.2510   25.0340   44.2390 C   0  0  0  0  0  0  0  0  0  0  0  0
   57.1650   23.6210   43.9130 N   0  0  0  0  0  0  0  0  0  0  0  0
   56.1270   23.1280   43.0000 C   0  0  0  0  0  0  0  0  0  0  0  0
   58.1150   22.6630   44.4900 C   0  0  0  0  0  0  0  0  0  0  0  0
   57.7650   25.9620   43.3100 C   0  0  0  0  0  0  0  0  0  0  0  0
   57.8470   27.3220   43.6260 C   0  0  0  0  0  0  0  0  0  0  0  0
   58.4460   29.7550   45.9530 O   0  0  0  0  0  0  0  0  0  0  0  0
   58.5170   33.3700   46.8120 C   0  0  0  0  0  0  0  0  0  0  0  0
   59.2670   34.3250   47.5050 C   0  0  0  0  0  0  0  0  0  0  0  0
   62.3987   34.5983   50.5495 H   0  0  0  0  0  0  0  0  0  0  0  0
   62.8252   33.5673   49.1418 H   0  0  0  0  0  0  0  0  0  0  0  0
   63.2573   35.3109   49.1418 H   0  0  0  0  0  0  0  0  0  0  0  0
   61.8371   32.3371   48.5679 H   0  0  0  0  0  0  0  0  0  0  0  0
   60.5021   30.6346   47.3335 H   0  0  0  0  0  0  0  0  0  0  0  0
   56.5661   27.2306   46.7902 H   0  0  0  0  0  0  0  0  0  0  0  0
   56.4149   24.8114   46.2356 H   0  0  0  0  0  0  0  0  0  0  0  0
   55.2849   22.7281   43.5839 H   0  0  0  0  0  0  0  0  0  0  0  0
   55.7737   23.9545   42.3659 H   0  0  0  0  0  0  0  0  0  0  0  0
   56.5444   22.3319   42.3659 H   0  0  0  0  0  0  0  0  0  0  0  0
   58.0652   22.7132   45.5877 H   0  0  0  0  0  0  0  0  0  0  0  0
   57.8582   21.6464   44.1574 H   0  0  0  0  0  0  0  0  0  0  0  0
   59.1337   22.9112   44.1574 H   0  0  0  0  0  0  0  0  0  0  0  0
   58.1057   25.6119   42.3244 H   0  0  0  0  0  0  0  0  0  0  0  0
   58.2519   28.0304   42.8883 H   0  0  0  0  0  0  0  0  0  0  0  0
   57.5794   33.6646   46.3179 H   0  0  0  0  0  0  0  0  0  0  0  0
   58.9167   35.3667   47.5523 H   0  0  0  0  0  0  0  0  0  0  0  0
  1  2  1  0
  2  3  1  0
  3  4  2  0
  4  5  1  0
  5  6  2  0
  6  7  1  0
  7  8  2  0
  8  9  1  0
  9 10  2  0
 10 11  1  0
 11 12  2  0
 12 13  1  0
 13 14  2  0
 14 15  1  0
 15 16  1  0
 15 17  1  0
 14 18  1  0
 18 19  2  0
 10 20  1  0
  6 21  1  0
 21 22  2  0
 22  3  1  0
 20  7  1  0
 19 11  1  0
  1 23  1  0
  1 24  1  0
  1 25  1  0
  4 26  1  0
  5 27  1  0
 12 28  1  0
 13 29  1  0
 16 30  1  0
 16 31  1  0
 16 32  1  0
 17 33  1  0
 17 34  1  0
 17 35  1  0
 18 36  1  0
 19 37  1  0
 21 38  1  0
 22 39  1  0
M  END
>  <UniqueID>  (6) 
6

>  <SMILES>  (6) 
COc1ccc(-c2nnc(-c3ccc(N(C)C)cc3)o2)cc1

>  <Energy>  (6) 
76.8567581757842

>  <Genealogy>  (6) 
COc1ccc(-c2nnc(-c3ccc(N(C)C)cc3)o2)cc1 (3D coordinates assigned)
COc1ccc(-c2nnc(-c3ccc(N(C)C)cc3)o2)cc1 (optimized conformer: 76.8567581757842 kcal/mol)

>  <smiles>  (6) 
COc1ccc(-c2nnc(-c3ccc(N(C)C)cc3)o2)cc1

>  <score_type>  (6) 
oracle

>  <origin>  (6) 
adg

>  <m_score__min__energy>  (6) 
-6.3600000000000003

>  <m_primary>  (6) 
energy

$$$$
6:0
     RDKit          3D

 43 45  0  0  0  0  0  0  0  0999 V2000
   60.0740   29.3290   48.8490 C   0  0  0  0  0  0  0  0  0  0  0  0
   60.3450   27.9960   48.1600 C   0  0  0  0  0  0  0  0  0  0  0  0
   59.3310   27.7400   47.1380 N   0  0  0  0  0  0  0  0  0  0  0  0
   58.2380   27.0290   47.3700 N   0  0  0  0  0  0  0  0  0  0  0  0
   57.5390   26.9640   46.2200 C   0  0  0  0  0  0  0  0  0  0  0  0
   56.2480   26.2240   46.0770 C   0  0  0  0  0  0  0  0  0  0  0  0
   58.2190   27.6420   45.2190 C   0  0  0  0  0  0  0  0  0  0  0  0
   57.7850   27.8430   43.7920 C   0  0  0  0  0  0  0  0  0  0  0  0
   57.4090   29.3040   43.4930 C   0  0  0  0  0  0  0  0  0  0  0  0
   56.3150   29.8240   44.3920 C   0  0  0  0  0  0  0  0  0  0  0  0
   55.4830   29.0110   44.8740 O   0  0  0  0  0  0  0  0  0  0  0  0
   56.2720   31.1880   44.8340 N   0  0  0  0  0  0  0  0  0  0  0  0
   57.3860   32.0150   45.1960 C   0  0  0  0  0  0  0  0  0  0  0  0
   57.4460   33.3830   44.8220 C   0  0  0  0  0  0  0  0  0  0  0  0
   58.5340   34.1840   45.2170 C   0  0  0  0  0  0  0  0  0  0  0  0
   59.5230   33.5960   45.9980 C   0  0  0  0  0  0  0  0  0  0  0  0
   59.4570   32.2960   46.3810 C   0  0  0  0  0  0  0  0  0  0  0  0
   58.3980   31.4710   46.0100 C   0  0  0  0  0  0  0  0  0  0  0  0
   60.5600   31.9870   47.1530 O   0  0  0  0  0  0  0  0  0  0  0  0
   61.3710   33.1660   47.2600 C   0  0  0  0  0  0  0  0  0  0  0  0
   60.6720   34.1690   46.5090 O   0  0  0  0  0  0  0  0  0  0  0  0
   59.3670   28.1130   45.8390 C   0  0  0  0  0  0  0  0  0  0  0  0
   60.4370   28.9620   45.2170 C   0  0  0  0  0  0  0  0  0  0  0  0
   60.1022   29.1903   49.9399 H   0  0  0  0  0  0  0  0  0  0  0  0
   60.8423   30.0581   48.5521 H   0  0  0  0  0  0  0  0  0  0  0  0
   59.0820   29.7002   48.5521 H   0  0  0  0  0  0  0  0  0  0  0  0
   61.3377   28.0267   47.6871 H   0  0  0  0  0  0  0  0  0  0  0  0
   60.3104   27.1913   48.9092 H   0  0  0  0  0  0  0  0  0  0  0  0
   55.8453   25.9932   47.0743 H   0  0  0  0  0  0  0  0  0  0  0  0
   55.5277   26.8464   45.5258 H   0  0  0  0  0  0  0  0  0  0  0  0
   56.4210   25.2879   45.5258 H   0  0  0  0  0  0  0  0  0  0  0  0
   58.6100   27.5475   43.1271 H   0  0  0  0  0  0  0  0  0  0  0  0
   56.8903   27.2256   43.6238 H   0  0  0  0  0  0  0  0  0  0  0  0
   58.3025   29.9312   43.6284 H   0  0  0  0  0  0  0  0  0  0  0  0
   57.0340   29.3437   42.4596 H   0  0  0  0  0  0  0  0  0  0  0  0
   56.6365   33.8203   44.2192 H   0  0  0  0  0  0  0  0  0  0  0  0
   58.5998   35.2405   44.9177 H   0  0  0  0  0  0  0  0  0  0  0  0
   58.3534   30.4237   46.3435 H   0  0  0  0  0  0  0  0  0  0  0  0
   61.4719   33.4713   48.3119 H   0  0  0  0  0  0  0  0  0  0  0  0
   62.3900   33.0015   46.8799 H   0  0  0  0  0  0  0  0  0  0  0  0
   61.0351   29.4366   46.0089 H   0  0  0  0  0  0  0  0  0  0  0  0
   61.0883   28.3323   44.5931 H   0  0  0  0  0  0  0  0  0  0  0  0
   59.9718   29.7394   44.5931 H   0  0  0  0  0  0  0  0  0  0  0  0
  1  2  1  0
  2  3  1  0
  3  4  1  0
  4  5  2  0
  5  6  1  0
  5  7  1  0
  7  8  1  0
  8  9  1  0
  9 10  1  0
 10 11  2  0
 10 12  1  0
 12 13  1  0
 13 14  2  0
 14 15  1  0
 15 16  2  0
 16 17  1  0
 17 18  2  0
 17 19  1  0
 19 20  1  0
 20 21  1  0
  7 22  2  0
 22 23  1  0
 22  3  1  0
 18 13  1  0
 21 16  1  0
  1 24  1  0
  1 25  1  0
  1 26  1  0
  2 27  1  0
  2 28  1  0
  6 29  1  0
  6 30  1  0
  6 31  1  0
  8 32  1  0
  8 33  1  0
  9 34  1  0
  9 35  1  0
 14 36  1  0
 15 37  1  0
 18 38  1  0
 20 39  1  0
 20 40  1  0
 23 41  1  0
 23 42  1  0
 23 43  1  0
M  CHG  1  12  -1
M  END
>  <UniqueID>  (7) 
7

>  <SMILES>  (7) 
CCn1nc(C)c(CCC(=O)[N-]c2ccc3c(c2)OCO3)c1C

>  <Energy>  (7) 
99.23125365465683

>  <Genealogy>  (7) 
CCn1nc(C)c(CCC(=O)[N-]c2ccc3c(c2)OCO3)c1C (protonated)
CCn1nc(C)c(CCC(=O)[N-]c2ccc3c(c2)OCO3)c1C (3D coordinates assigned)
CCn1nc(C)c(CCC(=O)[N-]c2ccc3c(c2)OCO3)c1C (nonaromatic ring conformer: 99.23125365465683 kcal/mol)

>  <smiles>  (7) 
CCn1nc(C)c(CCC(=O)Nc2ccc3c(c2)OCO3)c1C

>  <score_type>  (7) 
oracle

>  <origin>  (7) 
adg

>  <m_score__min__energy>  (7) 
-9.6999999999999993

>  <m_primary>  (7) 
energy

$$$$
7:0
     RDKit          3D

 43 45  0  0  0  0  0  0  0  0999 V2000
   57.8330   25.1240   47.5040 C   0  0  0  0  0  0  0  0  0  0  0  0
   56.5520   24.9790   46.8070 N   0  0  0  0  0  0  0  0  0  0  0  0
   55.7850   23.7300   46.9230 C   0  0  0  0  0  0  0  0  0  0  0  0
   56.3830   22.6710   46.0370 C   0  0  0  0  0  0  0  0  0  0  0  0
   56.4660   21.3390   46.4690 C   0  0  0  0  0  0  0  0  0  0  0  0
   56.9960   20.3700   45.6140 C   0  0  0  0  0  0  0  0  0  0  0  0
   57.4240   20.7150   44.3690 N   0  0  0  0  0  0  0  0  0  0  0  0
   57.3500   21.9990   43.9250 C   0  0  0  0  0  0  0  0  0  0  0  0
   56.8260   22.9980   44.7490 C   0  0  0  0  0  0  0  0  0  0  0  0
   56.0660   26.0600   45.9870 C   0  0  0  0  0  0  0  0  0  0  0  0
   54.8400   26.3540   45.9920 O   0  0  0  0  0  0  0  0  0  0  0  0
   56.9720   26.7670   45.1270 N   0  0  0  0  0  0  0  0  0  0  0  0
   57.3520   28.1470   45.2370 C   0  0  0  0  0  0  0  0  0  0  0  0
   58.1720   28.5340   46.3020 C   0  0  0  0  0  0  0  0  0  0  0  0
   58.5530   29.8710   46.4560 C   0  0  0  0  0  0  0  0  0  0  0  0
   58.1020   30.8500   45.5520 C   0  0  0  0  0  0  0  0  0  0  0  0
   58.5030   32.2710   45.7140 C   0  0  0  0  0  0  0  0  0  0  0  0
   58.1730   33.2240   44.7320 C   0  0  0  0  0  0  0  0  0  0  0  0
   58.5500   34.5610   44.8870 C   0  0  0  0  0  0  0  0  0  0  0  0
   59.2610   34.9620   46.0210 C   0  0  0  0  0  0  0  0  0  0  0  0
   59.5930   34.0270   47.0020 C   0  0  0  0  0  0  0  0  0  0  0  0
   59.2200   32.6880   46.8520 C   0  0  0  0  0  0  0  0  0  0  0  0
   57.2570   30.4610   44.4970 C   0  0  0  0  0  0  0  0  0  0  0  0
   56.8790   29.1240   44.3440 C   0  0  0  0  0  0  0  0  0  0  0  0
   57.6634   25.1048   48.5907 H   0  0  0  0  0  0  0  0  0  0  0  0
   58.4996   24.2956   47.2222 H   0  0  0  0  0  0  0  0  0  0  0  0
   58.2975   26.0805   47.2222 H   0  0  0  0  0  0  0  0  0  0  0  0
   55.8070   23.3854   47.9674 H   0  0  0  0  0  0  0  0  0  0  0  0
   54.7465   23.9154   46.6114 H   0  0  0  0  0  0  0  0  0  0  0  0
   56.1162   21.0597   47.4738 H   0  0  0  0  0  0  0  0  0  0  0  0
   57.0677   19.3244   45.9481 H   0  0  0  0  0  0  0  0  0  0  0  0
   57.8160   19.9780   43.7420 H   0  0  0  0  0  0  0  0  0  0  0  0
   57.7038   22.2511   42.9144 H   0  0  0  0  0  0  0  0  0  0  0  0
   56.7617   24.0353   44.3885 H   0  0  0  0  0  0  0  0  0  0  0  0
   58.5200   27.7809   47.0242 H   0  0  0  0  0  0  0  0  0  0  0  0
   59.2100   30.1590   47.2899 H   0  0  0  0  0  0  0  0  0  0  0  0
   57.6145   32.9144   43.8363 H   0  0  0  0  0  0  0  0  0  0  0  0
   58.2865   35.2988   44.1149 H   0  0  0  0  0  0  0  0  0  0  0  0
   59.5588   36.0142   46.1403 H   0  0  0  0  0  0  0  0  0  0  0  0
   60.1498   34.3443   47.8960 H   0  0  0  0  0  0  0  0  0  0  0  0
   59.4883   31.9557   47.6277 H   0  0  0  0  0  0  0  0  0  0  0  0
   56.8903   31.2158   43.7858 H   0  0  0  0  0  0  0  0  0  0  0  0
   56.2085   28.8352   43.5212 H   0  0  0  0  0  0  0  0  0  0  0  0
  1  2  1  0
  2  3  1  0
  3  4  1  0
  4  5  2  0
  5  6  1  0
  6  7  2  0
  7  8  1  0
  8  9  2  0
  2 10  1  0
 10 11  2  0
 10 12  1  0
 12 13  1  0
 13 14  2  0
 14 15  1  0
 15 16  2  0
 16 17  1  0
 17 18  2  0
 18 19  1  0
 19 20  2  0
 20 21  1  0
 21 22  2  0
 16 23  1  0
 23 24  2  0
  9  4  1  0
 24 13  1  0
 22 17  1  0
  1 25  1  0
  1 26  1  0
  1 27  1  0
  3 28  1  0
  3 29  1  0
  5 30  1  0
  6 31  1  0
  7 32  1  0
  8 33  1  0
  9 34  1  0
 14 35  1  0
 15 36  1  0
 18 37  1  0
 19 38  1  0
 20 39  1  0
 21 40  1  0
 22 41  1  0
 23 42  1  0
 24 43  1  0
M  CHG  2   7   1  12  -1
M  END
>  <UniqueID>  (8) 
8

>  <SMILES>  (8) 
CN(Cc1cc[nH+]cc1)C(=O)[N-]c1ccc(-c2ccccc2)cc1

>  <Energy>  (8) 
51.097415521795774

>  <Genealogy>  (8) 
CN(Cc1cc[nH+]cc1)C(=O)[N-]c1ccc(-c2ccccc2)cc1 (protonated)
CN(Cc1cc[nH+]cc1)C(=O)[N-]c1ccc(-c2ccccc2)cc1 (3D coordinates assigned)
CN(Cc1cc[nH+]cc1)C(=O)[N-]c1ccc(-c2ccccc2)cc1 (optimized conformer: 51.097415521795774 kcal/mol)

>  <smiles>  (8) 
CN(Cc1ccncc1)C(=O)Nc1ccc(-c2ccccc2)cc1

>  <score_type>  (8) 
oracle

>  <origin>  (8) 
adg

>  <m_score__min__energy>  (8) 
-8.8200000000000003

>  <m_primary>  (8) 
energy

$$$$
8:0
     RDKit          3D

 37 40  0  0  0  0  0  0  0  0999 V2000
   53.6100   24.7750   45.6170 C   0  0  0  0  0  0  0  0  0  0  0  0
   54.7730   25.5230   45.9560 O   0  0  0  0  0  0  0  0  0  0  0  0
   56.0830   25.0110   45.9690 C   0  0  0  0  0  0  0  0  0  0  0  0
   56.3240   23.6350   46.1520 C   0  0  0  0  0  0  0  0  0  0  0  0
   57.6260   23.1340   46.1610 C   0  0  0  0  0  0  0  0  0  0  0  0
   58.7090   23.9920   45.9890 C   0  0  0  0  0  0  0  0  0  0  0  0
   58.5000   25.3610   45.8050 C   0  0  0  0  0  0  0  0  0  0  0  0
   59.5500   26.1560   45.6450 O   0  0  0  0  0  0  0  0  0  0  0  0
   59.4400   27.4660   45.4630 C   0  0  0  0  0  0  0  0  0  0  0  0
   58.1830   28.0840   45.4290 C   0  0  0  0  0  0  0  0  0  0  0  0
   58.0880   29.5510   45.2160 C   0  0  0  0  0  0  0  0  0  0  0  0
   57.3750   30.0670   44.1200 C   0  0  0  0  0  0  0  0  0  0  0  0
   57.2920   31.4450   43.9110 C   0  0  0  0  0  0  0  0  0  0  0  0
   57.9240   32.3320   44.7940 C   0  0  0  0  0  0  0  0  0  0  0  0
   57.8470   33.7200   44.5930 C   0  0  0  0  0  0  0  0  0  0  0  0
   58.4840   34.5930   45.4800 C   0  0  0  0  0  0  0  0  0  0  0  0
   59.2000   34.0900   46.5700 C   0  0  0  0  0  0  0  0  0  0  0  0
   59.2850   32.7110   46.7800 C   0  0  0  0  0  0  0  0  0  0  0  0
   58.6510   31.8230   45.8970 C   0  0  0  0  0  0  0  0  0  0  0  0
   58.7300   30.4360   46.0980 C   0  0  0  0  0  0  0  0  0  0  0  0
   57.0390   27.2810   45.6060 C   0  0  0  0  0  0  0  0  0  0  0  0
   55.8970   27.8180   45.6180 O   0  0  0  0  0  0  0  0  0  0  0  0
   57.1850   25.8870   45.7920 C   0  0  0  0  0  0  0  0  0  0  0  0
   53.1028   24.4488   46.5370 H   0  0  0  0  0  0  0  0  0  0  0  0
   52.9285   25.4045   45.0261 H   0  0  0  0  0  0  0  0  0  0  0  0
   53.9002   23.8938   45.0261 H   0  0  0  0  0  0  0  0  0  0  0  0
   55.4760   22.9480   46.2893 H   0  0  0  0  0  0  0  0  0  0  0  0
   57.7977   22.0570   46.3045 H   0  0  0  0  0  0  0  0  0  0  0  0
   59.7330   23.5904   45.9980 H   0  0  0  0  0  0  0  0  0  0  0  0
   60.3476   28.0746   45.3372 H   0  0  0  0  0  0  0  0  0  0  0  0
   56.8778   29.3788   43.4205 H   0  0  0  0  0  0  0  0  0  0  0  0
   56.7289   31.8360   43.0508 H   0  0  0  0  0  0  0  0  0  0  0  0
   57.2848   34.1207   43.7366 H   0  0  0  0  0  0  0  0  0  0  0  0
   58.4215   35.6794   45.3195 H   0  0  0  0  0  0  0  0  0  0  0  0
   59.6983   34.7820   47.2649 H   0  0  0  0  0  0  0  0  0  0  0  0
   59.8500   32.3206   47.6392 H   0  0  0  0  0  0  0  0  0  0  0  0
   59.2986   30.0394   46.9521 H   0  0  0  0  0  0  0  0  0  0  0  0
  1  2  1  0
  2  3  1  0
  3  4  2  0
  4  5  1  0
  5  6  2  0
  6  7  1  0
  7  8  1  0
  8  9  1  0
  9 10  2  0
 10 11  1  0
 11 12  2  0
 12 13  1  0
 13 14  2  0
 14 15  1  0
 15 16  2  0
 16 17  1  0
 17 18  2  0
 18 19  1  0
 19 20  2  0
 10 21  1  0
 21 22  2  0
 21 23  1  0
 23  3  1  0
 23  7  2  0
 20 11  1  0
 19 14  1  0
  1 24  1  0
  1 25  1  0
  1 26  1  0
  4 27  1  0
  5 28  1  0
  6 29  1  0
  9 30  1  0
 12 31  1  0
 13 32  1  0
 15 33  1  0
 16 34  1  0
 17 35  1  0
 18 36  1  0
 20 37  1  0
M  END
>  <UniqueID>  (9) 
9

>  <SMILES>  (9) 
COc1cccc2occ(-c3ccc4ccccc4c3)c(=O)c12

>  <Energy>  (9) 
58.36489553408094

>  <Genealogy>  (9) 
COc1cccc2occ(-c3ccc4ccccc4c3)c(=O)c12 (3D coordinates assigned)
COc1cccc2occ(-c3ccc4ccccc4c3)c(=O)c12 (optimized conformer: 58.36489553408094 kcal/mol)

>  <smiles>  (9) 
COc1cccc2occ(-c3ccc4ccccc4c3)c(=O)c12

>  <score_type>  (9) 
oracle

>  <origin>  (9) 
adg

>  <m_score__min__energy>  (9) 
-8.2799999999999994

>  <m_primary>  (9) 
energy

$$$$
9:0
     RDKit          3D

 35 36  0  0  0  0  0  0  0  0999 V2000
   58.3853   30.4013   47.8823 H   0  0  0  0  0  0  0  0  0  0  0  0
   59.0010   30.7110   47.0250 C   0  0  0  0  0  0  0  0  0  0  0  0
   59.9290   29.9120   46.5940 N   0  0  0  0  0  0  0  0  0  0  0  0
   60.3300   28.7020   47.3030 C   0  0  0  0  0  0  0  0  0  0  0  0
   61.4012   28.7635   47.5455 H   0  0  0  0  0  0  0  0  0  0  0  0
   59.7351   28.6176   48.2244 H   0  0  0  0  0  0  0  0  0  0  0  0
   60.0800   27.4620   46.4390 C   0  0  0  0  0  0  0  0  0  0  0  0
   60.4836   27.6365   45.4307 H   0  0  0  0  0  0  0  0  0  0  0  0
   60.5788   26.5990   46.9042 H   0  0  0  0  0  0  0  0  0  0  0  0
   58.6060   27.1750   46.3390 C   0  0  0  0  0  0  0  0  0  0  0  0
   58.0890   25.9530   46.8000 C   0  0  0  0  0  0  0  0  0  0  0  0
   58.7603   25.2121   47.2587 H   0  0  0  0  0  0  0  0  0  0  0  0
   56.7250   25.6750   46.6780 C   0  0  0  0  0  0  0  0  0  0  0  0
   56.3249   24.7194   47.0479 H   0  0  0  0  0  0  0  0  0  0  0  0
   55.8670   26.6080   46.0870 C   0  0  0  0  0  0  0  0  0  0  0  0
   54.5120   26.3250   45.9700 O   0  0  0  0  0  0  0  0  0  0  0  0
   56.3770   27.8230   45.6130 C   0  0  0  0  0  0  0  0  0  0  0  0
   55.5300   28.7520   45.0200 O   0  0  0  0  0  0  0  0  0  0  0  0
   57.7430   28.1040   45.7350 C   0  0  0  0  0  0  0  0  0  0  0  0
   58.1422   29.0565   45.3562 H   0  0  0  0  0  0  0  0  0  0  0  0
   58.7470   32.0290   46.3950 C   0  0  0  0  0  0  0  0  0  0  0  0
   59.4910   33.1300   46.8510 C   0  0  0  0  0  0  0  0  0  0  0  0
   60.2321   32.9903   47.6518 H   0  0  0  0  0  0  0  0  0  0  0  0
   59.3020   34.3990   46.3010 C   0  0  0  0  0  0  0  0  0  0  0  0
   60.0470   35.4760   46.7650 O   0  0  0  0  0  0  0  0  0  0  0  0
   58.3650   34.5860   45.2860 C   0  0  0  0  0  0  0  0  0  0  0  0
   58.2167   35.5861   44.8527 H   0  0  0  0  0  0  0  0  0  0  0  0
   57.6150   33.5060   44.8190 C   0  0  0  0  0  0  0  0  0  0  0  0
   56.8773   33.6621   44.0181 H   0  0  0  0  0  0  0  0  0  0  0  0
   57.7920   32.2170   45.3620 C   0  0  0  0  0  0  0  0  0  0  0  0
   57.0410   31.1230   44.9020 O   0  0  0  0  0  0  0  0  0  0  0  0
   57.0310   30.6520   43.5570 C   0  0  0  0  0  0  0  0  0  0  0  0
   57.0076   29.5523   43.5538 H   0  0  0  0  0  0  0  0  0  0  0  0
   56.1409   31.0392   43.0395 H   0  0  0  0  0  0  0  0  0  0  0  0
   57.9368   31.0010   43.0395 H   0  0  0  0  0  0  0  0  0  0  0  0
  1  2  1  0
  2  3  2  0
  3  4  1  0
  4  5  1  0
  4  6  1  0
  4  7  1  0
  7  8  1  0
  7  9  1  0
  7 10  1  0
 10 11  2  0
 11 12  1  0
 11 13  1  0
 13 14  1  0
 13 15  2  0
 15 16  1  0
 15 17  1  0
 17 18  1  0
 17 19  2  0
 19 20  1  0
  2 21  1  0
 21 22  2  0
 22 23  1  0
 22 24  1  0
 24 25  1  0
 24 26  2  0
 26 27  1  0
 26 28  1  0
 28 29  1  0
 28 30  2  0
 30 31  1  0
 31 32  1  0
 32 33  1  0
 32 34  1  0
 32 35  1  0
 19 10  1  0
 30 21  1  0
M  CHG  3  16  -1  18  -1  25  -1
M  END
>  <UniqueID>  (10) 
10

>  <SMILES>  (10) 
COc1ccc([O-])cc1/C=N/CCc1ccc([O-])c([O-])c1

>  <Energy>  (10) 
32.77536861348682

>  <Genealogy>  (10) 
COc1ccc([O-])cc1C=NCCc1ccc([O-])c([O-])c1 (protonated)
COc1ccc([O-])cc1/C=N/CCc1ccc([O-])c([O-])c1 (cis-trans isomerization)
COc1ccc([O-])cc1/C=N/CCc1ccc([O-])c([O-])c1 (3D coordinates assigned)
COc1ccc([O-])cc1/C=N/CCc1ccc([O-])c([O-])c1 (optimized conformer: 32.77536861348682 kcal/mol)

>  <smiles>  (10) 
COc1ccc(O)cc1C=NCCc1ccc(O)c(O)c1

>  <score_type>  (10) 
oracle

>  <origin>  (10) 
adg

>  <m_score__min__energy>  (10) 
-15.48

>  <m_primary>  (10) 
energy

$$$$
10:0
     RDKit          3D

 48 51  0  0  0  0  0  0  0  0999 V2000
   55.8570   29.7370   43.0020 C   0  0  0  0  0  0  0  0  0  0  0  0
   55.9240   29.7500   44.4240 O   0  0  0  0  0  0  0  0  0  0  0  0
   57.0920   29.9950   45.1620 C   0  0  0  0  0  0  0  0  0  0  0  0
   57.6920   28.9190   45.8240 C   0  0  0  0  0  0  0  0  0  0  0  0
   58.8540   29.1050   46.5730 C   0  0  0  0  0  0  0  0  0  0  0  0
   59.4360   30.3730   46.6680 C   0  0  0  0  0  0  0  0  0  0  0  0
   60.5590   30.5360   47.4100 N   0  0  0  0  0  0  0  0  0  0  0  0
   61.1740   31.7390   47.5470 C   0  0  0  0  0  0  0  0  0  0  0  0
   62.3400   31.8230   48.3750 N   0  0  0  0  0  0  0  0  0  0  0  0
   62.2520   31.3860   49.7760 C   0  0  0  0  0  0  0  0  0  0  0  0
   63.6410   31.2730   50.4100 C   0  0  0  0  0  0  0  0  0  0  0  0
   64.4390   32.4590   50.0750 N   0  0  0  0  0  0  0  0  0  0  0  0
   64.9350   33.3040   51.1270 C   0  0  0  0  0  0  0  0  0  0  0  0
   64.1780   33.6130   52.0860 O   0  0  0  0  0  0  0  0  0  0  0  0
   66.3100   33.8270   51.1100 C   0  0  0  0  0  0  0  0  0  0  0  0
   66.8180   34.8290   51.9140 C   0  0  0  0  0  0  0  0  0  0  0  0
   68.1300   34.9900   51.5220 C   0  0  0  0  0  0  0  0  0  0  0  0
   68.3400   34.0840   50.5040 C   0  0  0  0  0  0  0  0  0  0  0  0
   67.2360   33.4090   50.2790 O   0  0  0  0  0  0  0  0  0  0  0  0
   64.5190   32.9200   48.6800 C   0  0  0  0  0  0  0  0  0  0  0  0
   63.6430   32.0690   47.7500 C   0  0  0  0  0  0  0  0  0  0  0  0
   60.6660   32.8730   46.8770 C   0  0  0  0  0  0  0  0  0  0  0  0
   61.3700   34.2070   46.9890 C   0  0  0  0  0  0  0  0  0  0  0  0
   59.4740   32.7430   46.1250 C   0  0  0  0  0  0  0  0  0  0  0  0
   58.8950   33.9070   45.4850 C   0  0  0  0  0  0  0  0  0  0  0  0
   58.4330   34.8370   44.9740 N   0  0  0  0  0  0  0  0  0  0  0  0
   58.8520   31.4760   46.0090 C   0  0  0  0  0  0  0  0  0  0  0  0
   57.6730   31.2750   45.2560 C   0  0  0  0  0  0  0  0  0  0  0  0
   54.8228   29.5363   42.6855 H   0  0  0  0  0  0  0  0  0  0  0  0
   56.1771   30.7140   42.6109 H   0  0  0  0  0  0  0  0  0  0  0  0
   56.5193   28.9506   42.6109 H   0  0  0  0  0  0  0  0  0  0  0  0
   57.2436   27.9170   45.7534 H   0  0  0  0  0  0  0  0  0  0  0  0
   59.3144   28.2508   47.0910 H   0  0  0  0  0  0  0  0  0  0  0  0
   61.6573   32.1173   50.3431 H   0  0  0  0  0  0  0  0  0  0  0  0
   61.7760   30.3947   49.8020 H   0  0  0  0  0  0  0  0  0  0  0  0
   63.5386   31.1985   51.5027 H   0  0  0  0  0  0  0  0  0  0  0  0
   64.1449   30.3752   50.0227 H   0  0  0  0  0  0  0  0  0  0  0  0
   66.2868   35.3827   52.7022 H   0  0  0  0  0  0  0  0  0  0  0  0
   68.8617   35.6984   51.9376 H   0  0  0  0  0  0  0  0  0  0  0  0
   69.2878   33.9474   49.9627 H   0  0  0  0  0  0  0  0  0  0  0  0
   64.1810   33.9656   48.6301 H   0  0  0  0  0  0  0  0  0  0  0  0
   65.5634   32.8272   48.3474 H   0  0  0  0  0  0  0  0  0  0  0  0
   63.4961   32.6022   46.7992 H   0  0  0  0  0  0  0  0  0  0  0  0
   64.1421   31.1064   47.5646 H   0  0  0  0  0  0  0  0  0  0  0  0
   61.5048   34.4625   48.0504 H   0  0  0  0  0  0  0  0  0  0  0  0
   62.3529   34.1452   46.4990 H   0  0  0  0  0  0  0  0  0  0  0  0
   60.7643   34.9835   46.4990 H   0  0  0  0  0  0  0  0  0  0  0  0
   57.2049   32.1255   44.7388 H   0  0  0  0  0  0  0  0  0  0  0  0
  1  2  1  0
  2  3  1  0
  3  4  2  0
  4  5  1  0
  5  6  2  0
  6  7  1  0
  7  8  2  0
  8  9  1  0
  9 10  1  0
 10 11  1  0
 11 12  1  0
 12 13  1  0
 13 14  2  0
 13 15  1  0
 15 16  2  0
 16 17  1  0
 17 18  2  0
 18 19  1  0
 12 20  1  0
 20 21  1  0
  8 22  1  0
 22 23  1  0
 22 24  2  0
 24 25  1  0
 25 26  3  0
 24 27  1  0
 27 28  2  0
 28  3  1  0
 27  6  1  0
 21  9  1  0
 19 15  1  0
  1 29  1  0
  1 30  1  0
  1 31  1  0
  4 32  1  0
  5 33  1  0
 10 34  1  0
 10 35  1  0
 11 36  1  0
 11 37  1  0
 16 38  1  0
 17 39  1  0
 18 40  1  0
 20 41  1  0
 20 42  1  0
 21 43  1  0
 21 44  1  0
 23 45  1  0
 23 46  1  0
 23 47  1  0
 28 48  1  0
M  END
>  <UniqueID>  (11) 
11

>  <SMILES>  (11) 
COc1ccc2nc(N3CCN(C(=O)c4ccco4)CC3)c(C)c(C#N)c2c1

>  <Energy>  (11) 
92.26410629753718

>  <Genealogy>  (11) 
COc1ccc2nc(N3CCN(C(=O)c4ccco4)CC3)c(C)c(C#N)c2c1 (3D coordinates assigned)
COc1ccc2nc(N3CCN(C(=O)c4ccco4)CC3)c(C)c(C#N)c2c1 (nonaromatic ring conformer: 92.26410629753718 kcal/mol)

>  <smiles>  (11) 
COc1ccc2nc(N3CCN(C(=O)c4ccco4)CC3)c(C)c(C#N)c2c1

>  <score_type>  (11) 
oracle

>  <origin>  (11) 
adg

>  <m_score__min__energy>  (11) 
-7.3099999999999996

>  <m_primary>  (11) 
energy

$$$$
11:0
     RDKit          3D

 48 51  0  0  0  0  0  0  0  0999 V2000
   54.2540   30.4500   51.6770 C   0  0  0  0  0  0  0  0  0  0  0  0
   55.5420   30.0960   52.4130 C   0  0  0  0  0  0  0  0  0  0  0  0
   56.6830   30.3890   51.6070 O   0  0  0  0  0  0  0  0  0  0  0  0
   57.5580   31.4730   51.7900 C   0  0  0  0  0  0  0  0  0  0  0  0
   57.5040   32.3150   52.9180 C   0  0  0  0  0  0  0  0  0  0  0  0
   58.4080   33.3740   53.0490 C   0  0  0  0  0  0  0  0  0  0  0  0
   59.3690   33.6040   52.0620 C   0  0  0  0  0  0  0  0  0  0  0  0
   59.4280   32.7780   50.9340 C   0  0  0  0  0  0  0  0  0  0  0  0
   60.6570   33.0470   49.7040 S   0  0  0  0  0  0  0  0  0  0  0  0
   61.6310   31.9010   49.6890 O   0  0  0  0  0  0  0  0  0  0  0  0
   61.4200   34.3050   50.0120 O   0  0  0  0  0  0  0  0  0  0  0  0
   59.8740   33.1800   48.1350 C   0  0  0  0  0  0  0  0  0  0  0  0
   59.7320   34.4410   47.5170 C   0  0  0  0  0  0  0  0  0  0  0  0
   59.0820   34.5550   46.2810 C   0  0  0  0  0  0  0  0  0  0  0  0
   58.5850   33.3990   45.6870 C   0  0  0  0  0  0  0  0  0  0  0  0
   57.7520   33.2690   44.2400 S   0  0  0  0  0  0  0  0  0  0  0  0
   57.5400   31.5950   44.3350 C   0  0  0  0  0  0  0  0  0  0  0  0
   58.1330   31.1070   45.5150 C   0  0  0  0  0  0  0  0  0  0  0  0
   58.7100   32.1490   46.2740 C   0  0  0  0  0  0  0  0  0  0  0  0
   59.3530   32.0280   47.5150 C   0  0  0  0  0  0  0  0  0  0  0  0
   58.1570   29.6580   45.9690 C   0  0  0  0  0  0  0  0  0  0  0  0
   58.7170   28.6270   44.9700 C   0  0  0  0  0  0  0  0  0  0  0  0
   57.8510   28.4790   43.7070 C   0  0  0  0  0  0  0  0  0  0  0  0
   56.5730   29.3410   43.7370 C   0  0  0  0  0  0  0  0  0  0  0  0
   56.7650   30.8070   43.3240 C   0  0  0  0  0  0  0  0  0  0  0  0
   58.5280   31.7110   50.8070 C   0  0  0  0  0  0  0  0  0  0  0  0
   53.4618   30.6677   52.4084 H   0  0  0  0  0  0  0  0  0  0  0  0
   54.4237   31.3348   51.0459 H   0  0  0  0  0  0  0  0  0  0  0  0
   53.9476   29.6028   51.0459 H   0  0  0  0  0  0  0  0  0  0  0  0
   55.5980   30.6802   53.3434 H   0  0  0  0  0  0  0  0  0  0  0  0
   55.5356   29.0191   52.6370 H   0  0  0  0  0  0  0  0  0  0  0  0
   56.7486   32.1391   53.6980 H   0  0  0  0  0  0  0  0  0  0  0  0
   58.3620   34.0280   53.9323 H   0  0  0  0  0  0  0  0  0  0  0  0
   60.0806   34.4357   52.1715 H   0  0  0  0  0  0  0  0  0  0  0  0
   60.1339   35.3393   48.0085 H   0  0  0  0  0  0  0  0  0  0  0  0
   58.9675   35.5339   45.7924 H   0  0  0  0  0  0  0  0  0  0  0  0
   59.4491   31.0445   47.9982 H   0  0  0  0  0  0  0  0  0  0  0  0
   58.7699   29.6049   46.8809 H   0  0  0  0  0  0  0  0  0  0  0  0
   57.1013   29.3817   46.1070 H   0  0  0  0  0  0  0  0  0  0  0  0
   59.7258   28.9446   44.6676 H   0  0  0  0  0  0  0  0  0  0  0  0
   58.7274   27.6509   45.4770 H   0  0  0  0  0  0  0  0  0  0  0  0
   58.4521   28.7766   42.8351 H   0  0  0  0  0  0  0  0  0  0  0  0
   57.5325   27.4275   43.6527 H   0  0  0  0  0  0  0  0  0  0  0  0
   55.8404   28.8877   43.0531 H   0  0  0  0  0  0  0  0  0  0  0  0
   56.2413   29.3597   44.7856 H   0  0  0  0  0  0  0  0  0  0  0  0
   57.3054   30.8350   42.3663 H   0  0  0  0  0  0  0  0  0  0  0  0
   55.7672   31.2625   43.2412 H   0  0  0  0  0  0  0  0  0  0  0  0
   58.5837   31.0537   49.9267 H   0  0  0  0  0  0  0  0  0  0  0  0
  1  2  1  0
  2  3  1  0
  3  4  1  0
  4  5  2  0
  5  6  1  0
  6  7  2  0
  7  8  1  0
  8  9  1  0
  9 10  2  0
  9 11  2  0
  9 12  1  0
 12 13  2  0
 13 14  1  0
 14 15  2  0
 15 16  1  0
 16 17  1  0
 17 18  2  0
 18 19  1  0
 19 20  2  0
 18 21  1  0
 21 22  1  0
 22 23  1  0
 23 24  1  0
 24 25  1  0
  8 26  2  0
 26  4  1  0
 20 12  1  0
 19 15  1  0
 25 17  1  0
  1 27  1  0
  1 28  1  0
  1 29  1  0
  2 30  1  0
  2 31  1  0
  5 32  1  0
  6 33  1  0
  7 34  1  0
 13 35  1  0
 14 36  1  0
 20 37  1  0
 21 38  1  0
 21 39  1  0
 22 40  1  0
 22 41  1  0
 23 42  1  0
 23 43  1  0
 24 44  1  0
 24 45  1  0
 25 46  1  0
 25 47  1  0
 26 48  1  0
M  END
>  <UniqueID>  (12) 
12

>  <SMILES>  (12) 
CCOc1cccc(S(=O)(=O)c2ccc3sc4c(c3c2)CCCCC4)c1

>  <Energy>  (12) 
86.74196002014844

>  <Genealogy>  (12) 
CCOc1cccc(S(=O)(=O)c2ccc3sc4c(c3c2)CCCCC4)c1 (3D coordinates assigned)
CCOc1cccc(S(=O)(=O)c2ccc3sc4c(c3c2)CCCCC4)c1 (nonaromatic ring conformer: 86.74196002014844 kcal/mol)

>  <smiles>  (12) 
CCOc1cccc(S(=O)(=O)c2ccc3sc4c(c3c2)CCCCC4)c1

>  <score_type>  (12) 
oracle

>  <origin>  (12) 
adg

>  <m_score__min__energy>  (12) 
-7.9699999999999998

>  <m_primary>  (12) 
energy

$$$$
12:0
     RDKit          3D

 53 56  0  0  0  0  0  0  0  0999 V2000
   58.5010   31.9440   48.3750 C   0  0  0  0  0  0  0  0  0  0  0  0
   58.4450   32.5740   47.0080 C   0  0  0  0  0  0  0  0  0  0  0  0
   58.4830   33.9730   46.8970 C   0  0  0  0  0  0  0  0  0  0  0  0
   58.3970   34.5890   45.6480 C   0  0  0  0  0  0  0  0  0  0  0  0
   58.2750   33.8190   44.4930 C   0  0  0  0  0  0  0  0  0  0  0  0
   58.2580   32.4160   44.5690 C   0  0  0  0  0  0  0  0  0  0  0  0
   58.1110   31.6080   43.3090 C   0  0  0  0  0  0  0  0  0  0  0  0
   58.3640   31.7850   45.8310 C   0  0  0  0  0  0  0  0  0  0  0  0
   58.3590   30.3510   45.9120 N   0  0  0  0  0  0  0  0  0  0  0  0
   57.2710   29.5560   45.4230 C   0  0  0  0  0  0  0  0  0  0  0  0
   56.2870   30.0990   44.8550 O   0  0  0  0  0  0  0  0  0  0  0  0
   57.2600   28.0770   45.6590 C   0  0  0  0  0  0  0  0  0  0  0  0
   58.3850   27.6560   46.4920 N   0  0  0  0  0  0  0  0  0  0  0  0
   59.3640   26.8810   46.0560 N   0  0  0  0  0  0  0  0  0  0  0  0
   60.2770   26.7710   47.0050 N   0  0  0  0  0  0  0  0  0  0  0  0
   59.8090   27.5140   48.0310 C   0  0  0  0  0  0  0  0  0  0  0  0
   60.5310   27.7150   49.3080 C   0  0  0  0  0  0  0  0  0  0  0  0
   60.7910   26.5960   50.1210 C   0  0  0  0  0  0  0  0  0  0  0  0
   61.5100   26.7320   51.3100 C   0  0  0  0  0  0  0  0  0  0  0  0
   61.9920   27.9810   51.6960 C   0  0  0  0  0  0  0  0  0  0  0  0
   61.7260   29.1060   50.9120 C   0  0  0  0  0  0  0  0  0  0  0  0
   60.9700   28.9940   49.7290 C   0  0  0  0  0  0  0  0  0  0  0  0
   60.6560   30.1570   48.9420 N   0  0  0  0  0  0  0  0  0  0  0  0
   61.2460   30.5190   47.6850 C   0  0  0  0  0  0  0  0  0  0  0  0
   61.0660   29.7940   46.6690 O   0  0  0  0  0  0  0  0  0  0  0  0
   62.0980   31.7260   47.5840 C   0  0  0  0  0  0  0  0  0  0  0  0
   63.2910   31.8220   48.3230 C   0  0  0  0  0  0  0  0  0  0  0  0
   64.0930   32.9620   48.2300 C   0  0  0  0  0  0  0  0  0  0  0  0
   63.7060   34.0250   47.4140 C   0  0  0  0  0  0  0  0  0  0  0  0
   62.5270   33.9390   46.6680 C   0  0  0  0  0  0  0  0  0  0  0  0
   61.7290   32.7940   46.7460 C   0  0  0  0  0  0  0  0  0  0  0  0
   58.6310   28.0830   47.7200 N   0  0  0  0  0  0  0  0  0  0  0  0
   58.4313   32.7282   49.1433 H   0  0  0  0  0  0  0  0  0  0  0  0
   57.6617   31.2423   48.4900 H   0  0  0  0  0  0  0  0  0  0  0  0
   59.4509   31.4014   48.4900 H   0  0  0  0  0  0  0  0  0  0  0  0
   58.5815   34.5891   47.8029 H   0  0  0  0  0  0  0  0  0  0  0  0
   58.4256   35.6862   45.5748 H   0  0  0  0  0  0  0  0  0  0  0  0
   58.1913   34.3134   43.5139 H   0  0  0  0  0  0  0  0  0  0  0  0
   57.9197   30.5562   43.5681 H   0  0  0  0  0  0  0  0  0  0  0  0
   57.2693   31.9992   42.7187 H   0  0  0  0  0  0  0  0  0  0  0  0
   59.0366   31.6777   42.7187 H   0  0  0  0  0  0  0  0  0  0  0  0
   59.0990   29.8890   46.4890 H   0  0  0  0  0  0  0  0  0  0  0  0
   56.3211   27.8029   46.1623 H   0  0  0  0  0  0  0  0  0  0  0  0
   57.3458   27.5728   44.6851 H   0  0  0  0  0  0  0  0  0  0  0  0
   60.4242   25.6046   49.8167 H   0  0  0  0  0  0  0  0  0  0  0  0
   61.6962   25.8518   51.9430 H   0  0  0  0  0  0  0  0  0  0  0  0
   62.5824   28.0812   52.6187 H   0  0  0  0  0  0  0  0  0  0  0  0
   62.1107   30.0889   51.2215 H   0  0  0  0  0  0  0  0  0  0  0  0
   63.5948   30.9930   48.9792 H   0  0  0  0  0  0  0  0  0  0  0  0
   65.0312   33.0215   48.8012 H   0  0  0  0  0  0  0  0  0  0  0  0
   64.3282   34.9304   47.3576 H   0  0  0  0  0  0  0  0  0  0  0  0
   62.2265   34.7741   46.0182 H   0  0  0  0  0  0  0  0  0  0  0  0
   60.8075   32.7277   46.1489 H   0  0  0  0  0  0  0  0  0  0  0  0
  1  2  1  0
  2  3  2  0
  3  4  1  0
  4  5  2  0
  5  6  1  0
  6  7  1  0
  6  8  2  0
  8  9  1  0
  9 10  1  0
 10 11  2  0
 10 12  1  0
 12 13  1  0
 13 14  1  0
 14 15  2  0
 15 16  1  0
 16 17  1  0
 17 18  2  0
 18 19  1  0
 19 20  2  0
 20 21  1  0
 21 22  2  0
 22 23  1  0
 23 24  1  0
 24 25  2  0
 24 26  1  0
 26 27  2  0
 27 28  1  0
 28 29  2  0
 29 30  1  0
 30 31  2  0
 16 32  2  0
  8  2  1  0
 32 13  1  0
 22 17  1  0
 31 26  1  0
  1 33  1  0
  1 34  1  0
  1 35  1  0
  3 36  1  0
  4 37  1  0
  5 38  1  0
  7 39  1  0
  7 40  1  0
  7 41  1  0
  9 42  1  0
 12 43  1  0
 12 44  1  0
 18 45  1  0
 19 46  1  0
 20 47  1  0
 21 48  1  0
 27 49  1  0
 28 50  1  0
 29 51  1  0
 30 52  1  0
 31 53  1  0
M  CHG  1  23  -1
M  END
>  <UniqueID>  (13) 
13

>  <SMILES>  (13) 
Cc1cccc(C)c1NC(=O)Cn1nnc(-c2ccccc2[N-]C(=O)c2ccccc2)n1

>  <Energy>  (13) 
102.66307251778994

>  <Genealogy>  (13) 
Cc1cccc(C)c1NC(=O)Cn1nnc(-c2ccccc2[N-]C(=O)c2ccccc2)n1 (protonated)
Cc1cccc(C)c1NC(=O)Cn1nnc(-c2ccccc2[N-]C(=O)c2ccccc2)n1 (3D coordinates assigned)
Cc1cccc(C)c1NC(=O)Cn1nnc(-c2ccccc2[N-]C(=O)c2ccccc2)n1 (optimized conformer: 102.66307251778994 kcal/mol)

>  <smiles>  (13) 
Cc1cccc(C)c1NC(=O)Cn1nnc(-c2ccccc2NC(=O)c2ccccc2)n1

>  <score_type>  (13) 
oracle

>  <origin>  (13) 
adg

>  <m_score__min__energy>  (13) 
-10.17

>  <m_primary>  (13) 
energy

$$$$
13:0
     RDKit          3D

 39 41  0  0  0  0  0  0  0  0999 V2000
   64.5970   33.8450   51.2150 C   0  0  0  0  0  0  0  0  0  0  0  0
   64.5570   33.2520   49.8390 C   0  0  0  0  0  0  0  0  0  0  0  0
   65.6160   32.7480   49.3740 O   0  0  0  0  0  0  0  0  0  0  0  0
   63.3140   33.2430   49.0220 C   0  0  0  0  0  0  0  0  0  0  0  0
   63.2240   32.4980   47.8310 C   0  0  0  0  0  0  0  0  0  0  0  0
   62.0490   32.5010   47.0760 C   0  0  0  0  0  0  0  0  0  0  0  0
   60.9420   33.2590   47.4820 C   0  0  0  0  0  0  0  0  0  0  0  0
   59.7390   33.2270   46.6950 N   0  0  0  0  0  0  0  0  0  0  0  0
   58.9090   34.3740   46.4470 C   0  0  0  0  0  0  0  0  0  0  0  0
   59.3020   35.5320   46.7560 O   0  0  0  0  0  0  0  0  0  0  0  0
   57.5970   34.2070   45.7460 C   0  0  0  0  0  0  0  0  0  0  0  0
   57.8330   33.4140   44.1190 S   0  0  0  0  0  0  0  0  0  0  0  0
   57.5790   31.7500   44.7310 C   0  0  0  0  0  0  0  0  0  0  0  0
   56.4470   31.0450   44.5500 N   0  0  0  0  0  0  0  0  0  0  0  0
   56.6420   29.8780   45.1440 N   0  0  0  0  0  0  0  0  0  0  0  0
   57.8860   29.9190   45.6630 C   0  0  0  0  0  0  0  0  0  0  0  0
   58.5140   28.8170   46.4170 C   0  0  0  0  0  0  0  0  0  0  0  0
   59.5520   29.0760   47.3240 C   0  0  0  0  0  0  0  0  0  0  0  0
   60.1390   28.0260   48.0330 C   0  0  0  0  0  0  0  0  0  0  0  0
   59.6820   26.7230   47.8310 C   0  0  0  0  0  0  0  0  0  0  0  0
   58.6750   26.4860   46.9500 N   0  0  0  0  0  0  0  0  0  0  0  0
   58.0860   27.4890   46.2460 C   0  0  0  0  0  0  0  0  0  0  0  0
   58.4670   31.0680   45.4110 O   0  0  0  0  0  0  0  0  0  0  0  0
   61.0170   33.9870   48.6810 C   0  0  0  0  0  0  0  0  0  0  0  0
   62.1930   33.9840   49.4380 C   0  0  0  0  0  0  0  0  0  0  0  0
   64.5427   33.0402   51.9628 H   0  0  0  0  0  0  0  0  0  0  0  0
   65.5349   34.4046   51.3460 H   0  0  0  0  0  0  0  0  0  0  0  0
   63.7427   34.5255   51.3460 H   0  0  0  0  0  0  0  0  0  0  0  0
   64.0878   31.9075   47.4915 H   0  0  0  0  0  0  0  0  0  0  0  0
   61.9918   31.9031   46.1544 H   0  0  0  0  0  0  0  0  0  0  0  0
   59.5020   32.3410   46.1970 H   0  0  0  0  0  0  0  0  0  0  0  0
   56.9358   33.5792   46.3614 H   0  0  0  0  0  0  0  0  0  0  0  0
   57.1475   35.1995   45.5945 H   0  0  0  0  0  0  0  0  0  0  0  0
   59.9039   30.1069   47.4769 H   0  0  0  0  0  0  0  0  0  0  0  0
   60.9543   28.2241   48.7444 H   0  0  0  0  0  0  0  0  0  0  0  0
   60.1367   25.8883   48.3846 H   0  0  0  0  0  0  0  0  0  0  0  0
   57.2729   27.2608   45.5412 H   0  0  0  0  0  0  0  0  0  0  0  0
   60.1457   34.5628   49.0265 H   0  0  0  0  0  0  0  0  0  0  0  0
   62.2419   34.5676   50.3691 H   0  0  0  0  0  0  0  0  0  0  0  0
  1  2  1  0
  2  3  2  0
  2  4  1  0
  4  5  2  0
  5  6  1  0
  6  7  2  0
  7  8  1  0
  8  9  1  0
  9 10  2  0
  9 11  1  0
 11 12  1  0
 12 13  1  0
 13 14  2  0
 14 15  1  0
 15 16  2  0
 16 17  1  0
 17 18  2  0
 18 19  1  0
 19 20  2  0
 20 21  1  0
 21 22  2  0
 16 23  1  0
  7 24  1  0
 24 25  2  0
 25  4  1  0
 23 13  1  0
 22 17  1  0
  1 26  1  0
  1 27  1  0
  1 28  1  0
  5 29  1  0
  6 30  1  0
  8 31  1  0
 11 32  1  0
 11 33  1  0
 18 34  1  0
 19 35  1  0
 20 36  1  0
 22 37  1  0
 24 38  1  0
 25 39  1  0
M  END
>  <UniqueID>  (14) 
14

>  <SMILES>  (14) 
CC(=O)c1ccc(NC(=O)CSc2nnc(-c3cccnc3)o2)cc1

>  <Energy>  (14) 
75.94277238968489

>  <Genealogy>  (14) 
CC(=O)c1ccc(NC(=O)CSc2nnc(-c3cccnc3)o2)cc1 (3D coordinates assigned)
CC(=O)c1ccc(NC(=O)CSc2nnc(-c3cccnc3)o2)cc1 (optimized conformer: 75.94277238968489 kcal/mol)

>  <smiles>  (14) 
CC(=O)c1ccc(NC(=O)CSc2nnc(-c3cccnc3)o2)cc1

>  <score_type>  (14) 
oracle

>  <origin>  (14) 
adg

>  <m_score__min__energy>  (14) 
-7.8099999999999996

>  <m_primary>  (14) 
energy

$$$$
14:0
     RDKit          3D

 27 26  0  0  0  0  0  0  0  0999 V2000
   57.7150   34.0850   44.9590 C   0  0  0  0  0  0  0  0  0  0  0  0
   57.8140   32.8290   44.0930 C   0  0  0  0  0  0  0  0  0  0  0  0
   57.4340   31.5440   44.8510 C   0  0  0  0  0  0  0  0  0  0  0  0
   57.5190   30.2620   44.0090 C   0  0  0  0  0  0  0  0  0  0  0  0
   56.7090   29.1500   44.6020 C   0  0  0  0  0  0  0  0  0  0  0  0
   55.5060   29.3540   44.9190 O   0  0  0  0  0  0  0  0  0  0  0  0
   57.3090   27.8560   44.7650 N   0  0  0  0  0  0  0  0  0  0  0  0
   57.3190   27.1020   45.8290 C   0  0  0  0  0  0  0  0  0  0  0  0
   58.5400   27.1400   46.7040 C   0  0  0  0  0  0  0  0  0  0  0  0
   58.8610   28.5730   47.1160 C   0  0  0  0  0  0  0  0  0  0  0  0
   56.1360   26.3340   46.2920 C   0  0  0  0  0  0  0  0  0  0  0  0
   54.9690   26.7060   46.0010 O   0  0  0  0  0  0  0  0  0  0  0  0
   56.3060   25.2350   47.1240 O   0  0  0  0  0  0  0  0  0  0  0  0
   57.7374   33.8006   46.0214 H   0  0  0  0  0  0  0  0  0  0  0  0
   58.5635   34.7496   44.7394 H   0  0  0  0  0  0  0  0  0  0  0  0
   56.7728   34.6085   44.7394 H   0  0  0  0  0  0  0  0  0  0  0  0
   57.1373   32.9419   43.2332 H   0  0  0  0  0  0  0  0  0  0  0  0
   58.8634   32.7277   43.7792 H   0  0  0  0  0  0  0  0  0  0  0  0
   58.1133   31.4374   45.7096 H   0  0  0  0  0  0  0  0  0  0  0  0
   56.3809   31.6549   45.1487 H   0  0  0  0  0  0  0  0  0  0  0  0
   57.1434   30.4753   42.9973 H   0  0  0  0  0  0  0  0  0  0  0  0
   58.5707   29.9409   43.9818 H   0  0  0  0  0  0  0  0  0  0  0  0
   58.3575   26.5369   47.6056 H   0  0  0  0  0  0  0  0  0  0  0  0
   59.3928   26.7336   46.1405 H   0  0  0  0  0  0  0  0  0  0  0  0
   58.8769   28.6441   48.2136 H   0  0  0  0  0  0  0  0  0  0  0  0
   59.8452   28.8579   46.7158 H   0  0  0  0  0  0  0  0  0  0  0  0
   58.0924   29.2505   46.7158 H   0  0  0  0  0  0  0  0  0  0  0  0
  1  2  1  0
  2  3  1  0
  3  4  1  0
  4  5  1  0
  5  6  2  0
  5  7  1  0
  7  8  2  3
  8  9  1  0
  9 10  1  0
  8 11  1  0
 11 12  2  0
 11 13  1  0
  1 14  1  0
  1 15  1  0
  1 16  1  0
  2 17  1  0
  2 18  1  0
  3 19  1  0
  3 20  1  0
  4 21  1  0
  4 22  1  0
  9 23  1  0
  9 24  1  0
 10 25  1  0
 10 26  1  0
 10 27  1  0
M  CHG  1  13  -1
M  END
>  <UniqueID>  (15) 
15

>  <SMILES>  (15) 
CCCCC(=O)N=C(CC)C(=O)[O-]

>  <Energy>  (15) 
19.13313001137401

>  <Genealogy>  (15) 
CCCCC(=O)N=C(CC)C(=O)[O-] (protonated)
CCCCC(=O)N=C(CC)C(=O)[O-] (3D coordinates assigned)
CCCCC(=O)N=C(CC)C(=O)[O-] (optimized conformer: 19.13313001137401 kcal/mol)

>  <smiles>  (15) 
CCCCC(=O)N=C(CC)C(=O)O

>  <score_type>  (15) 
oracle

>  <origin>  (15) 
adg

>  <m_score__min__energy>  (15) 
-8.4399999999999995

>  <m_primary>  (15) 
energy

$$$$
15:0
     RDKit          3D

 43 46  0  0  1  0  0  0  0  0999 V2000
   65.3730   31.9710   50.4400 C   0  0  0  0  0  0  0  0  0  0  0  0
   64.0920   31.5480   50.0100 O   0  0  0  0  0  0  0  0  0  0  0  0
   63.4890   32.1600   48.9200 C   0  0  0  0  0  0  0  0  0  0  0  0
   64.1620   33.2070   48.3170 C   0  0  0  0  0  0  0  0  0  0  0  0
   63.6020   33.8390   47.2380 C   0  0  0  0  0  0  0  0  0  0  0  0
   62.3750   33.4480   46.7400 C   0  0  0  0  0  0  0  0  0  0  0  0
   61.6860   32.4090   47.3220 C   0  0  0  0  0  0  0  0  0  0  0  0
   60.4200   31.9730   46.8420 N   0  0  0  0  0  0  0  0  0  0  0  0
   59.8390   30.8070   47.1710 C   0  0  0  0  0  0  0  0  0  0  0  0
   58.6460   30.6750   46.5610 N   0  0  0  0  0  0  0  0  0  0  0  0
   58.4690   31.7840   45.8280 C   0  0  0  0  0  0  0  0  0  0  0  0
   57.4380   32.1590   45.0200 C   0  0  0  0  0  0  0  0  0  0  0  0
   56.4040   31.3820   44.8690 N   0  0  0  0  0  0  0  0  0  0  0  0
   56.5490   30.0310   44.4540 C   0  0  0  0  0  0  0  0  0  0  0  0
   56.4450   29.6710   43.2540 O   0  0  0  0  0  0  0  0  0  0  0  0
   56.8250   29.0790   45.4940 N   0  0  0  0  0  0  0  0  0  0  0  0
   56.9950   27.6980   45.2420 C   0  0  0  0  0  0  0  0  0  0  0  0
   57.8100   27.3180   44.2070 C   0  0  0  0  0  0  0  0  0  0  0  0
   58.0040   25.9720   43.9270 C   0  0  0  0  0  0  0  0  0  0  0  0
   57.3500   25.0300   44.7250 C   0  0  0  0  0  0  0  0  0  0  0  0
   57.6180   23.1780   44.3380 Br  0  0  0  0  0  0  0  0  0  0  0  0
   56.5320   25.4200   45.7670 C   0  0  0  0  0  0  0  0  0  0  0  0
   56.3530   26.7510   46.0270 C   0  0  0  0  0  0  0  0  0  0  0  0
   57.5120   33.3440   44.3880 N   0  0  0  0  0  0  0  0  0  0  0  0
   58.5970   34.1110   44.5760 C   0  0  0  0  0  0  0  0  0  0  0  0
   59.6280   33.7630   45.3670 N   0  0  0  0  0  0  0  0  0  0  0  0
   59.5910   32.5880   46.0140 C   0  0  0  0  0  0  0  0  0  0  0  0
   62.2820   31.7970   48.4070 C   0  0  0  0  0  0  0  0  0  0  0  0
   65.4057   31.9818   51.5395 H   0  0  0  0  0  0  0  0  0  0  0  0
   66.1359   31.2771   50.0573 H   0  0  0  0  0  0  0  0  0  0  0  0
   65.5726   32.9828   50.0573 H   0  0  0  0  0  0  0  0  0  0  0  0
   65.1407   33.5303   48.7012 H   0  0  0  0  0  0  0  0  0  0  0  0
   64.1389   34.6719   46.7605 H   0  0  0  0  0  0  0  0  0  0  0  0
   61.9456   33.9705   45.8725 H   0  0  0  0  0  0  0  0  0  0  0  0
   60.2792   30.0602   47.8481 H   0  0  0  0  0  0  0  0  0  0  0  0
   56.9110   29.3840   46.4990 H   0  0  0  0  0  0  0  0  0  0  0  0
   58.3122   28.0826   43.5960 H   0  0  0  0  0  0  0  0  0  0  0  0
   58.6553   25.6557   43.0989 H   0  0  0  0  0  0  0  0  0  0  0  0
   56.0265   24.6636   46.3853 H   0  0  0  0  0  0  0  0  0  0  0  0
   55.7027   27.0693   46.8551 H   0  0  0  0  0  0  0  0  0  0  0  0
   56.7270   33.6590   43.7580 H   0  0  0  0  0  0  0  0  0  0  0  0
   58.6461   35.0781   44.0542 H   0  0  0  0  0  0  0  0  0  0  0  0
   61.7475   30.9638   48.8867 H   0  0  0  0  0  0  0  0  0  0  0  0
  1  2  1  0
  2  3  1  0
  3  4  2  0
  4  5  1  0
  5  6  2  0
  6  7  1  0
  7  8  1  0
  8  9  1  0
  9 10  2  0
 10 11  1  0
 11 12  1  0
 12 13  2  0
 13 14  1  0
 14 15  2  0
 14 16  1  0
 16 17  1  0
 17 18  2  0
 18 19  1  0
 19 20  2  0
 20 21  1  0
 20 22  1  0
 22 23  2  0
 12 24  1  0
 24 25  1  0
 25 26  2  0
 26 27  1  0
  7 28  2  0
 28  3  1  0
 27  8  1  0
 27 11  2  0
 23 17  1  0
  1 29  1  0
  1 30  1  0
  1 31  1  0
  4 32  1  0
  5 33  1  0
  6 34  1  0
  9 35  1  0
 16 36  1  0
 18 37  1  0
 19 38  1  0
 22 39  1  0
 23 40  1  0
 24 41  1  0
 25 42  1  0
 28 43  1  0
M  END
>  <smiles>  (16) 
COc1cccc(-n2cnc3c(=NC(=O)Nc4ccc(Br)cc4)[nH]cnc32)c1

>  <score_type>  (16) 
oracle

>  <origin>  (16) 
adg

>  <m_score__min__energy>  (16) 
-8.2400000000000002

>  <m_primary>  (16) 
energy

$$$$
16:0
     RDKit          3D

 36 37  0  0  0  0  0  0  0  0999 V2000
   55.1260   23.3000   45.6950 C   0  0  0  0  0  0  0  0  0  0  0  0
   55.9050   24.5780   45.7040 C   0  0  0  0  0  0  0  0  0  0  0  0
   55.8350   25.4690   46.7180 N   0  0  0  0  0  0  0  0  0  0  0  0
   56.6470   26.4750   46.3360 C   0  0  0  0  0  0  0  0  0  0  0  0
   57.1940   26.1790   45.1060 C   0  0  0  0  0  0  0  0  0  0  0  0
   58.0820   27.0800   44.2980 C   0  0  0  0  0  0  0  0  0  0  0  0
   58.1080   28.4310   44.8900 N   0  0  0  0  0  0  0  0  0  0  0  0
   59.4320   29.0490   44.7290 C   0  0  0  0  0  0  0  0  0  0  0  0
   56.9080   29.4360   44.1150 S   0  0  0  0  0  0  0  0  0  0  0  0
   56.6760   28.9780   42.7020 O   0  0  0  0  0  0  0  0  0  0  0  0
   55.6100   29.3660   44.8720 O   0  0  0  0  0  0  0  0  0  0  0  0
   57.4780   31.0940   44.0780 C   0  0  0  0  0  0  0  0  0  0  0  0
   57.7790   31.8530   42.9650 C   0  0  0  0  0  0  0  0  0  0  0  0
   58.1420   33.0880   43.3640 N   0  0  0  0  0  0  0  0  0  0  0  0
   58.0610   33.1210   44.6860 N   0  0  0  0  0  0  0  0  0  0  0  0
   58.4160   34.2780   45.4940 C   0  0  0  0  0  0  0  0  0  0  0  0
   57.6690   31.9230   45.1580 C   0  0  0  0  0  0  0  0  0  0  0  0
   56.7340   24.9760   44.7120 N   0  0  0  0  0  0  0  0  0  0  0  0
   56.9770   24.3150   43.4290 C   0  0  0  0  0  0  0  0  0  0  0  0
   54.9319   22.9816   46.7299 H   0  0  0  0  0  0  0  0  0  0  0  0
   54.1699   23.4570   45.1743 H   0  0  0  0  0  0  0  0  0  0  0  0
   55.7037   22.5221   45.1743 H   0  0  0  0  0  0  0  0  0  0  0  0
   56.8425   27.3893   46.9155 H   0  0  0  0  0  0  0  0  0  0  0  0
   59.1022   26.6689   44.2851 H   0  0  0  0  0  0  0  0  0  0  0  0
   57.6910   27.1444   43.2718 H   0  0  0  0  0  0  0  0  0  0  0  0
   59.8652   29.2512   45.7197 H   0  0  0  0  0  0  0  0  0  0  0  0
   60.0907   28.3653   44.1734 H   0  0  0  0  0  0  0  0  0  0  0  0
   59.3309   29.9930   44.1734 H   0  0  0  0  0  0  0  0  0  0  0  0
   57.7305   31.5063   41.9222 H   0  0  0  0  0  0  0  0  0  0  0  0
   58.3365   34.0190   46.5601 H   0  0  0  0  0  0  0  0  0  0  0  0
   59.4485   34.5813   45.2663 H   0  0  0  0  0  0  0  0  0  0  0  0
   57.7313   35.1083   45.2663 H   0  0  0  0  0  0  0  0  0  0  0  0
   57.5272   31.6558   46.2156 H   0  0  0  0  0  0  0  0  0  0  0  0
   57.3516   23.2961   43.6066 H   0  0  0  0  0  0  0  0  0  0  0  0
   56.0380   24.2661   42.8581 H   0  0  0  0  0  0  0  0  0  0  0  0
   57.7240   24.8860   42.8581 H   0  0  0  0  0  0  0  0  0  0  0  0
  1  2  1  0
  2  3  2  0
  3  4  1  0
  4  5  2  0
  5  6  1  0
  6  7  1  0
  7  8  1  0
  7  9  1  0
  9 10  2  0
  9 11  2  0
  9 12  1  0
 12 13  1  0
 13 14  2  0
 14 15  1  0
 15 16  1  0
 15 17  1  0
  5 18  1  0
 18 19  1  0
 18  2  1  0
 17 12  2  0
  1 20  1  0
  1 21  1  0
  1 22  1  0
  4 23  1  0
  6 24  1  0
  6 25  1  0
  8 26  1  0
  8 27  1  0
  8 28  1  0
 13 29  1  0
 16 30  1  0
 16 31  1  0
 16 32  1  0
 17 33  1  0
 19 34  1  0
 19 35  1  0
 19 36  1  0
M  END
>  <UniqueID>  (17) 
16

>  <SMILES>  (17) 
Cc1ncc(CN(C)S(=O)(=O)c2cnn(C)c2)n1C

>  <Energy>  (17) 
89.34678066062486

>  <Genealogy>  (17) 
Cc1ncc(CN(C)S(=O)(=O)c2cnn(C)c2)n1C (3D coordinates assigned)
Cc1ncc(CN(C)S(=O)(=O)c2cnn(C)c2)n1C (optimized conformer: 89.34678066062486 kcal/mol)

>  <smiles>  (17) 
Cc1ncc(CN(C)S(=O)(=O)c2cnn(C)c2)n1C

>  <score_type>  (17) 
oracle

>  <origin>  (17) 
adg

>  <m_score__min__energy>  (17) 
-6.8099999999999996

>  <m_primary>  (17) 
energy

$$$$
17:0
     RDKit          3D

 33 34  0  0  0  0  0  0  0  0999 V2000
   58.6371   34.3679   44.7382 H   0  0  0  0  0  0  0  0  0  0  0  0
   58.4710   33.3140   45.0060 C   0  0  0  0  0  0  0  0  0  0  0  0
   57.5300   32.5530   44.2950 C   0  0  0  0  0  0  0  0  0  0  0  0
   56.9545   32.9973   43.4696 H   0  0  0  0  0  0  0  0  0  0  0  0
   57.3420   31.2200   44.6600 C   0  0  0  0  0  0  0  0  0  0  0  0
   58.0580   30.6450   45.6970 C   0  0  0  0  0  0  0  0  0  0  0  0
   58.9980   31.3900   46.4130 C   0  0  0  0  0  0  0  0  0  0  0  0
   59.5661   30.9328   47.2365 H   0  0  0  0  0  0  0  0  0  0  0  0
   59.2040   32.7350   46.0610 C   0  0  0  0  0  0  0  0  0  0  0  0
   60.3770   33.6980   46.9410 Cl  0  0  0  0  0  0  0  0  0  0  0  0
   57.6940   29.2350   45.9000 C   0  0  0  0  0  0  0  0  0  0  0  0
   58.2370   28.4880   46.8140 N   0  0  0  0  0  0  0  0  0  0  0  0
   59.5830   27.9300   46.7230 C   0  0  0  0  0  0  0  0  0  0  0  0
   59.9981   27.8135   47.7350 H   0  0  0  0  0  0  0  0  0  0  0  0
   60.2166   28.6106   46.1354 H   0  0  0  0  0  0  0  0  0  0  0  0
   59.5390   26.5620   46.0320 C   0  0  0  0  0  0  0  0  0  0  0  0
   59.2864   25.7983   46.7823 H   0  0  0  0  0  0  0  0  0  0  0  0
   60.5288   26.3870   45.5852 H   0  0  0  0  0  0  0  0  0  0  0  0
   58.4990   26.4950   44.8920 C   0  0  0  0  0  0  0  0  0  0  0  0
   57.5288   26.8320   45.2859 H   0  0  0  0  0  0  0  0  0  0  0  0
   58.4689   25.4522   44.5431 H   0  0  0  0  0  0  0  0  0  0  0  0
   58.8610   27.3680   43.6770 C   0  0  0  0  0  0  0  0  0  0  0  0
   59.7436   26.9367   43.1820 H   0  0  0  0  0  0  0  0  0  0  0  0
   59.0622   28.3859   44.0423 H   0  0  0  0  0  0  0  0  0  0  0  0
   57.7700   27.4490   42.7060 N   0  0  0  0  0  0  0  0  0  0  0  0
   56.8920   27.7250   43.2030 H   0  0  0  0  0  0  0  0  0  0  0  0
   57.6180   26.5210   42.2480 H   0  0  0  0  0  0  0  0  0  0  0  0
   57.9810   28.1780   41.9860 H   0  0  0  0  0  0  0  0  0  0  0  0
   56.6900   28.7730   44.9870 N   0  0  0  0  0  0  0  0  0  0  0  0
   56.2790   27.8140   44.9480 H   0  0  0  0  0  0  0  0  0  0  0  0
   56.2490   30.0730   43.9440 S   0  0  0  0  0  0  0  0  0  0  0  0
   54.8100   30.4610   44.1240 O   0  0  0  0  0  0  0  0  0  0  0  0
   56.5880   29.7720   42.5120 O   0  0  0  0  0  0  0  0  0  0  0  0
  1  2  1  0
  2  3  2  0
  3  4  1  0
  3  5  1  0
  5  6  2  0
  6  7  1  0
  7  8  1  0
  7  9  2  0
  9 10  1  0
  6 11  1  0
 11 12  2  0
 12 13  1  0
 13 14  1  0
 13 15  1  0
 13 16  1  0
 16 17  1  0
 16 18  1  0
 16 19  1  0
 19 20  1  0
 19 21  1  0
 19 22  1  0
 22 23  1  0
 22 24  1  0
 22 25  1  0
 25 26  1  0
 25 27  1  0
 25 28  1  0
 11 29  1  0
 29 30  1  0
 29 31  1  0
 31 32  2  0
 31 33  2  0
  9  2  1  0
 31  5  1  0
M  CHG  1  25   1
M  END
>  <UniqueID>  (18) 
17

>  <SMILES>  (18) 
[NH3+]CCCC/N=C1\NS(=O)(=O)c2ccc(Cl)cc21

>  <Energy>  (18) 
50.13502637638754

>  <Genealogy>  (18) 
[NH3+]CCCCN=C1NS(=O)(=O)c2ccc(Cl)cc21 (protonated)
[NH3+]CCCC/N=C1\NS(=O)(=O)c2ccc(Cl)cc21 (cis-trans isomerization)
[NH3+]CCCC/N=C1\NS(=O)(=O)c2ccc(Cl)cc21 (3D coordinates assigned)
[NH3+]CCCC/N=C1\NS(=O)(=O)c2ccc(Cl)cc21 (nonaromatic ring conformer: 50.13502637638754 kcal/mol)

>  <smiles>  (18) 
NCCCCN=C1NS(=O)(=O)c2ccc(Cl)cc21

>  <score_type>  (18) 
oracle

>  <origin>  (18) 
adg

>  <m_score__min__energy>  (18) 
-6.0099999999999998

>  <m_primary>  (18) 
energy

$$$$
18:0
     RDKit          3D

 29 30  0  0  0  0  0  0  0  0999 V2000
   57.0010   34.6040   44.8970 C   0  0  0  0  0  0  0  0  0  0  0  0
   58.2520   33.8460   45.0740 N   0  0  0  0  0  0  0  0  0  0  0  0
   58.4930   33.0030   43.8790 C   0  0  0  0  0  0  0  0  0  0  0  0
   57.6670   31.7450   43.9240 C   0  0  0  0  0  0  0  0  0  0  0  0
   57.1180   31.2150   42.7470 C   0  0  0  0  0  0  0  0  0  0  0  0
   56.3290   30.0650   42.8010 C   0  0  0  0  0  0  0  0  0  0  0  0
   56.1040   29.4470   44.0320 C   0  0  0  0  0  0  0  0  0  0  0  0
   56.6530   29.9630   45.1640 N   0  0  0  0  0  0  0  0  0  0  0  0
   57.4240   31.0830   45.1380 C   0  0  0  0  0  0  0  0  0  0  0  0
   59.3730   34.7820   45.3280 C   0  0  0  0  0  0  0  0  0  0  0  0
   60.1140   34.4000   46.5760 C   0  0  0  0  0  0  0  0  0  0  0  0
   61.4060   33.8500   46.5630 C   0  0  0  0  0  0  0  0  0  0  0  0
   61.9080   33.5830   47.8270 C   0  0  0  0  0  0  0  0  0  0  0  0
   60.7410   34.0170   48.9550 S   0  0  0  0  0  0  0  0  0  0  0  0
   59.5870   34.5480   47.8550 C   0  0  0  0  0  0  0  0  0  0  0  0
   56.5831   34.8572   45.8825 H   0  0  0  0  0  0  0  0  0  0  0  0
   57.2084   35.5285   44.3382 H   0  0  0  0  0  0  0  0  0  0  0  0
   56.2775   33.9922   44.3382 H   0  0  0  0  0  0  0  0  0  0  0  0
   58.2274   33.5745   42.9774 H   0  0  0  0  0  0  0  0  0  0  0  0
   59.5561   32.7210   43.8606 H   0  0  0  0  0  0  0  0  0  0  0  0
   57.3093   31.7058   41.7813 H   0  0  0  0  0  0  0  0  0  0  0  0
   55.8888   29.6498   41.8824 H   0  0  0  0  0  0  0  0  0  0  0  0
   55.4819   28.5415   44.0866 H   0  0  0  0  0  0  0  0  0  0  0  0
   57.8585   31.4714   46.0709 H   0  0  0  0  0  0  0  0  0  0  0  0
   60.0662   34.7546   44.4743 H   0  0  0  0  0  0  0  0  0  0  0  0
   58.9641   35.7950   45.4569 H   0  0  0  0  0  0  0  0  0  0  0  0
   61.9663   33.6501   45.6377 H   0  0  0  0  0  0  0  0  0  0  0  0
   62.8983   33.1604   48.0524 H   0  0  0  0  0  0  0  0  0  0  0  0
   58.5906   34.9430   48.1025 H   0  0  0  0  0  0  0  0  0  0  0  0
  1  2  1  0
  2  3  1  0
  3  4  1  0
  4  5  2  0
  5  6  1  0
  6  7  2  0
  7  8  1  0
  8  9  2  0
  2 10  1  0
 10 11  1  0
 11 12  1  0
 12 13  2  0
 13 14  1  0
 14 15  1  0
  9  4  1  0
 15 11  2  0
  1 16  1  0
  1 17  1  0
  1 18  1  0
  3 19  1  0
  3 20  1  0
  5 21  1  0
  6 22  1  0
  7 23  1  0
  9 24  1  0
 10 25  1  0
 10 26  1  0
 12 27  1  0
 13 28  1  0
 15 29  1  0
M  END
>  <UniqueID>  (19) 
18

>  <SMILES>  (19) 
CN(Cc1cccnc1)Cc1ccsc1

>  <Energy>  (19) 
54.24668455680272

>  <Genealogy>  (19) 
CN(Cc1cccnc1)Cc1ccsc1 (3D coordinates assigned)
CN(Cc1cccnc1)Cc1ccsc1 (optimized conformer: 54.24668455680272 kcal/mol)

>  <smiles>  (19) 
CN(Cc1cccnc1)Cc1ccsc1

>  <score_type>  (19) 
oracle

>  <origin>  (19) 
adg

>  <m_score__min__energy>  (19) 
-6.0300000000000002

>  <m_primary>  (19) 
energy

$$$$
19:0
     RDKit          3D

 33 35  0  0  0  0  0  0  0  0999 V2000
   54.5100   29.3760   43.5270 O   0  0  0  0  0  0  0  0  0  0  0  0
   55.5780   29.5080   44.1850 C   0  0  0  0  0  0  0  0  0  0  0  0
   55.8870   28.5900   45.2380 N   0  0  0  0  0  0  0  0  0  0  0  0
   57.0710   27.7410   45.2280 C   0  0  0  0  0  0  0  0  0  0  0  0
   58.2640   28.5490   45.6440 C   0  0  0  0  0  0  0  0  0  0  0  0
   59.4280   28.5480   44.8580 C   0  0  0  0  0  0  0  0  0  0  0  0
   60.5550   29.2670   45.2680 C   0  0  0  0  0  0  0  0  0  0  0  0
   60.5330   29.9820   46.4690 C   0  0  0  0  0  0  0  0  0  0  0  0
   61.6280   30.6770   46.8660 F   0  0  0  0  0  0  0  0  0  0  0  0
   59.3820   29.9770   47.2630 C   0  0  0  0  0  0  0  0  0  0  0  0
   58.2530   29.2580   46.8570 C   0  0  0  0  0  0  0  0  0  0  0  0
   56.5010   30.6120   43.8630 C   0  0  0  0  0  0  0  0  0  0  0  0
   56.9060   30.8620   42.5430 C   0  0  0  0  0  0  0  0  0  0  0  0
   57.7830   31.9150   42.2830 C   0  0  0  0  0  0  0  0  0  0  0  0
   58.2480   32.7110   43.3300 C   0  0  0  0  0  0  0  0  0  0  0  0
   57.8260   32.4410   44.6420 C   0  0  0  0  0  0  0  0  0  0  0  0
   58.2820   33.2580   45.7850 C   0  0  0  0  0  0  0  0  0  0  0  0
   58.0340   33.0180   47.1210 C   0  0  0  0  0  0  0  0  0  0  0  0
   58.6120   33.9870   47.8560 N   0  0  0  0  0  0  0  0  0  0  0  0
   59.2210   34.8320   47.0380 N   0  0  0  0  0  0  0  0  0  0  0  0
   59.0380   34.4140   45.7720 C   0  0  0  0  0  0  0  0  0  0  0  0
   56.9710   31.4040   44.8660 N   0  0  0  0  0  0  0  0  0  0  0  0
   56.9301   26.9057   45.9298 H   0  0  0  0  0  0  0  0  0  0  0  0
   57.2305   27.3432   44.2149 H   0  0  0  0  0  0  0  0  0  0  0  0
   59.4531   27.9796   43.9166 H   0  0  0  0  0  0  0  0  0  0  0  0
   61.4609   29.2700   44.6441 H   0  0  0  0  0  0  0  0  0  0  0  0
   59.3644   30.5393   48.2083 H   0  0  0  0  0  0  0  0  0  0  0  0
   57.3532   29.2476   47.4897 H   0  0  0  0  0  0  0  0  0  0  0  0
   56.5351   30.2330   41.7204 H   0  0  0  0  0  0  0  0  0  0  0  0
   58.1081   32.1179   41.2519 H   0  0  0  0  0  0  0  0  0  0  0  0
   58.9392   33.5429   43.1297 H   0  0  0  0  0  0  0  0  0  0  0  0
   57.4570   32.1713   47.5212 H   0  0  0  0  0  0  0  0  0  0  0  0
   59.4275   34.9124   44.8721 H   0  0  0  0  0  0  0  0  0  0  0  0
  1  2  2  0
  2  3  1  0
  3  4  1  0
  4  5  1  0
  5  6  2  0
  6  7  1  0
  7  8  2  0
  8  9  1  0
  8 10  1  0
 10 11  2  0
  2 12  1  0
 12 13  2  0
 13 14  1  0
 14 15  2  0
 15 16  1  0
 16 17  1  0
 17 18  1  0
 18 19  2  0
 19 20  1  0
 20 21  1  0
 16 22  2  0
 11  5  1  0
 22 12  1  0
 21 17  2  0
  4 23  1  0
  4 24  1  0
  6 25  1  0
  7 26  1  0
 10 27  1  0
 11 28  1  0
 13 29  1  0
 14 30  1  0
 15 31  1  0
 18 32  1  0
 21 33  1  0
M  CHG  2   3  -1  20  -1
M  END
>  <UniqueID>  (20) 
19

>  <SMILES>  (20) 
O=C([N-]Cc1ccc(F)cc1)c1cccc(-c2cn[n-]c2)n1

>  <Energy>  (20) 
63.50953320968413

>  <Genealogy>  (20) 
O=C([N-]Cc1ccc(F)cc1)c1cccc(-c2cn[n-]c2)n1 (protonated)
O=C([N-]Cc1ccc(F)cc1)c1cccc(-c2cn[n-]c2)n1 (3D coordinates assigned)
O=C([N-]Cc1ccc(F)cc1)c1cccc(-c2cn[n-]c2)n1 (optimized conformer: 63.50953320968413 kcal/mol)

>  <smiles>  (20) 
O=C(NCc1ccc(F)cc1)c1cccc(-c2cn[nH]c2)n1

>  <score_type>  (20) 
oracle

>  <origin>  (20) 
adg

>  <m_score__min__energy>  (20) 
-10.6

>  <m_primary>  (20) 
energy

$$$$
20:0
     RDKit          3D

 26 28  0  0  0  0  0  0  0  0999 V2000
   59.2610   34.9520   47.5480 C   0  0  0  0  0  0  0  0  0  0  0  0
   58.9690   33.6120   47.3330 C   0  0  0  0  0  0  0  0  0  0  0  0
   59.0730   33.2210   45.9850 C   0  0  0  0  0  0  0  0  0  0  0  0
   58.8130   31.8470   45.5040 C   0  0  0  0  0  0  0  0  0  0  0  0
   57.8390   31.4660   44.5790 C   0  0  0  0  0  0  0  0  0  0  0  0
   57.8480   30.0900   44.3160 C   0  0  0  0  0  0  0  0  0  0  0  0
   58.7850   29.3900   45.0540 C   0  0  0  0  0  0  0  0  0  0  0  0
   59.6590   30.4690   45.9960 S   0  0  0  0  0  0  0  0  0  0  0  0
   59.0290   27.9240   44.9030 C   0  0  0  0  0  0  0  0  0  0  0  0
   57.8340   27.2630   44.1900 C   0  0  0  0  0  0  0  0  0  0  0  0
   57.4030   28.0520   43.0180 N   0  0  0  0  0  0  0  0  0  0  0  0
   56.8860   29.3800   43.4060 C   0  0  0  0  0  0  0  0  0  0  0  0
   59.4500   34.2620   45.1410 C   0  0  0  0  0  0  0  0  0  0  0  0
   59.6480   35.6480   46.0700 S   0  0  0  0  0  0  0  0  0  0  0  0
   59.2421   35.4686   48.5190 H   0  0  0  0  0  0  0  0  0  0  0  0
   58.6834   32.9211   48.1399 H   0  0  0  0  0  0  0  0  0  0  0  0
   57.1391   32.1712   44.1070 H   0  0  0  0  0  0  0  0  0  0  0  0
   59.9411   27.7656   44.3088 H   0  0  0  0  0  0  0  0  0  0  0  0
   59.1503   27.4731   45.8990 H   0  0  0  0  0  0  0  0  0  0  0  0
   58.1282   26.2571   43.8559 H   0  0  0  0  0  0  0  0  0  0  0  0
   56.9945   27.2085   44.8988 H   0  0  0  0  0  0  0  0  0  0  0  0
   58.2080   28.1670   42.3570 H   0  0  0  0  0  0  0  0  0  0  0  0
   56.6450   27.5300   42.5210 H   0  0  0  0  0  0  0  0  0  0  0  0
   56.7349   29.9854   42.5001 H   0  0  0  0  0  0  0  0  0  0  0  0
   55.9352   29.2420   43.9417 H   0  0  0  0  0  0  0  0  0  0  0  0
   59.5936   34.1896   44.0528 H   0  0  0  0  0  0  0  0  0  0  0  0
  1  2  2  0
  2  3  1  0
  3  4  1  0
  4  5  2  0
  5  6  1  0
  6  7  2  0
  7  8  1  0
  7  9  1  0
  9 10  1  0
 10 11  1  0
 11 12  1  0
  3 13  2  0
 13 14  1  0
 14  1  1  0
  8  4  1  0
 12  6  1  0
  1 15  1  0
  2 16  1  0
  5 17  1  0
  9 18  1  0
  9 19  1  0
 10 20  1  0
 10 21  1  0
 11 22  1  0
 11 23  1  0
 12 24  1  0
 12 25  1  0
 13 26  1  0
M  CHG  1  11   1
M  END
>  <UniqueID>  (21) 
20

>  <SMILES>  (21) 
c1cc(-c2cc3c(s2)CC[NH2+]C3)cs1

>  <Energy>  (21) 
81.22206726280976

>  <Genealogy>  (21) 
c1cc(-c2cc3c(s2)CC[NH2+]C3)cs1 (protonated)
c1cc(-c2cc3c(s2)CC[NH2+]C3)cs1 (3D coordinates assigned)
c1cc(-c2cc3c(s2)CC[NH2+]C3)cs1 (nonaromatic ring conformer: 81.22206726280976 kcal/mol)

>  <smiles>  (21) 
c1cc(-c2cc3c(s2)CCNC3)cs1

>  <score_type>  (21) 
oracle

>  <origin>  (21) 
adg

>  <m_score__min__energy>  (21) 
-4.9199999999999999

>  <m_primary>  (21) 
energy

$$$$
21:0
     RDKit          3D

 66 70  0  0  0  0  0  0  0  0999 V2000
   58.7708   21.9329   43.9602 H   0  0  0  0  0  0  0  0  0  0  0  0
   58.3850   22.8370   44.4540 C   0  0  0  0  0  0  0  0  0  0  0  0
   57.2150   23.4430   43.9880 C   0  0  0  0  0  0  0  0  0  0  0  0
   56.6752   23.0097   43.1331 H   0  0  0  0  0  0  0  0  0  0  0  0
   56.7290   24.6000   44.6070 C   0  0  0  0  0  0  0  0  0  0  0  0
   55.8085   25.0730   44.2342 H   0  0  0  0  0  0  0  0  0  0  0  0
   57.4090   25.1630   45.7030 C   0  0  0  0  0  0  0  0  0  0  0  0
   56.8810   26.3730   46.3740 C   0  0  0  0  0  0  0  0  0  0  0  0
   55.6860   26.7250   46.1670 O   0  0  0  0  0  0  0  0  0  0  0  0
   57.7430   27.1650   47.2140 N   0  0  0  0  0  0  0  0  0  0  0  0
   58.8870   27.7070   46.8960 C   0  0  0  0  0  0  0  0  0  0  0  0
   59.1550   28.2130   45.5360 C   0  0  0  0  0  0  0  0  0  0  0  0
   60.2260   27.8950   44.9530 O   0  0  0  0  0  0  0  0  0  0  0  0
   58.1840   29.0150   44.8510 N   0  0  0  0  0  0  0  0  0  0  0  0
   57.4060   28.3990   43.7760 C   0  0  0  0  0  0  0  0  0  0  0  0
   58.0609   27.7461   43.1804 H   0  0  0  0  0  0  0  0  0  0  0  0
   56.5889   27.8075   44.2148 H   0  0  0  0  0  0  0  0  0  0  0  0
   56.8120   29.4840   42.8710 C   0  0  0  0  0  0  0  0  0  0  0  0
   57.6250   29.9785   42.3192 H   0  0  0  0  0  0  0  0  0  0  0  0
   56.1063   29.0125   42.1712 H   0  0  0  0  0  0  0  0  0  0  0  0
   56.1150   30.4510   43.6370 O   0  0  0  0  0  0  0  0  0  0  0  0
   57.0250   31.1410   44.4730 C   0  0  0  0  0  0  0  0  0  0  0  0
   57.8335   31.5613   43.8568 H   0  0  0  0  0  0  0  0  0  0  0  0
   56.4848   31.9444   44.9952 H   0  0  0  0  0  0  0  0  0  0  0  0
   57.6280   30.1960   45.5160 C   0  0  0  0  0  0  0  0  0  0  0  0
   58.4272   30.7176   46.0630 H   0  0  0  0  0  0  0  0  0  0  0  0
   56.8427   29.8816   46.2192 H   0  0  0  0  0  0  0  0  0  0  0  0
   59.8930   27.9650   47.9810 C   0  0  0  0  0  0  0  0  0  0  0  0
   60.8935   27.6879   47.6173 H   0  0  0  0  0  0  0  0  0  0  0  0
   59.6223   27.3624   48.8606 H   0  0  0  0  0  0  0  0  0  0  0  0
   59.8980   29.4120   48.3760 C   0  0  0  0  0  0  0  0  0  0  0  0
   60.4110   30.4680   47.6330 C   0  0  0  0  0  0  0  0  0  0  0  0
   60.9431   30.3634   46.6760 H   0  0  0  0  0  0  0  0  0  0  0  0
   60.1620   31.6450   48.2560 N   0  0  0  0  0  0  0  0  0  0  0  0
   60.5880   32.9650   47.7860 C   0  0  0  0  0  0  0  0  0  0  0  0
   60.6634   33.6494   48.6439 H   0  0  0  0  0  0  0  0  0  0  0  0
   61.5669   32.8721   47.2929 H   0  0  0  0  0  0  0  0  0  0  0  0
   59.5920   33.5110   46.8010 C   0  0  0  0  0  0  0  0  0  0  0  0
   60.0250   34.1530   45.6280 C   0  0  0  0  0  0  0  0  0  0  0  0
   61.1010   34.2739   45.4339 H   0  0  0  0  0  0  0  0  0  0  0  0
   59.0900   34.6390   44.7060 C   0  0  0  0  0  0  0  0  0  0  0  0
   59.4333   35.1442   43.7911 H   0  0  0  0  0  0  0  0  0  0  0  0
   57.7220   34.4840   44.9450 C   0  0  0  0  0  0  0  0  0  0  0  0
   56.9899   34.8715   44.2212 H   0  0  0  0  0  0  0  0  0  0  0  0
   57.2840   33.8370   46.1030 C   0  0  0  0  0  0  0  0  0  0  0  0
   56.2071   33.7108   46.2883 H   0  0  0  0  0  0  0  0  0  0  0  0
   58.2150   33.3490   47.0280 C   0  0  0  0  0  0  0  0  0  0  0  0
   57.8666   32.8363   47.9367 H   0  0  0  0  0  0  0  0  0  0  0  0
   59.4960   31.3390   49.3910 C   0  0  0  0  0  0  0  0  0  0  0  0
   59.0090   32.2100   50.3700 C   0  0  0  0  0  0  0  0  0  0  0  0
   59.1662   33.2953   50.2844 H   0  0  0  0  0  0  0  0  0  0  0  0
   58.3130   31.6690   51.4680 C   0  0  0  0  0  0  0  0  0  0  0  0
   57.8330   32.5510   52.4470 O   0  0  0  0  0  0  0  0  0  0  0  0
   58.2440   33.9080   52.5800 C   0  0  0  0  0  0  0  0  0  0  0  0
   58.3217   34.1647   53.6468 H   0  0  0  0  0  0  0  0  0  0  0  0
   59.2234   34.0434   52.0980 H   0  0  0  0  0  0  0  0  0  0  0  0
   57.5043   34.5641   52.0980 H   0  0  0  0  0  0  0  0  0  0  0  0
   58.1140   30.2630   51.5500 C   0  0  0  0  0  0  0  0  0  0  0  0
   57.5632   29.8393   52.4027 H   0  0  0  0  0  0  0  0  0  0  0  0
   58.6150   29.4100   50.5510 C   0  0  0  0  0  0  0  0  0  0  0  0
   58.4653   28.3217   50.6082 H   0  0  0  0  0  0  0  0  0  0  0  0
   59.3070   29.9840   49.4860 C   0  0  0  0  0  0  0  0  0  0  0  0
   58.5830   24.5370   46.1700 C   0  0  0  0  0  0  0  0  0  0  0  0
   59.1239   24.9606   47.0290 H   0  0  0  0  0  0  0  0  0  0  0  0
   59.0640   23.3800   45.5470 C   0  0  0  0  0  0  0  0  0  0  0  0
   59.9794   22.8968   45.9192 H   0  0  0  0  0  0  0  0  0  0  0  0
  1  2  1  0
  2  3  2  0
  3  4  1  0
  3  5  1  0
  5  6  1  0
  5  7  2  0
  7  8  1  0
  8  9  2  0
  8 10  1  0
 10 11  2  0
 11 12  1  0
 12 13  2  0
 12 14  1  0
 14 15  1  0
 15 16  1  0
 15 17  1  0
 15 18  1  0
 18 19  1  0
 18 20  1  0
 18 21  1  0
 21 22  1  0
 22 23  1  0
 22 24  1  0
 22 25  1  0
 25 26  1  0
 25 27  1  0
 11 28  1  0
 28 29  1  0
 28 30  1  0
 28 31  1  0
 31 32  2  0
 32 33  1  0
 32 34  1  0
 34 35  1  0
 35 36  1  0
 35 37  1  0
 35 38  1  0
 38 39  2  0
 39 40  1  0
 39 41  1  0
 41 42  1  0
 41 43  2  0
 43 44  1  0
 43 45  1  0
 45 46  1  0
 45 47  2  0
 47 48  1  0
 34 49  1  0
 49 50  2  0
 50 51  1  0
 50 52  1  0
 52 53  1  0
 53 54  1  0
 54 55  1  0
 54 56  1  0
 54 57  1  0
 52 58  2  0
 58 59  1  0
 58 60  1  0
 60 61  1  0
 60 62  2  0
  7 63  1  0
 63 64  1  0
 63 65  2  0
 65 66  1  0
 65  2  1  0
 25 14  1  0
 62 31  1  0
 47 38  1  0
 62 49  1  0
M  END
>  <UniqueID>  (22) 
21

>  <SMILES>  (22) 
COc1ccc2c(C/C(=N/C(=O)c3ccccc3)C(=O)N3CCOCC3)cn(Cc3ccccc3)c2c1

>  <Energy>  (22) 
116.92901970359736

>  <Genealogy>  (22) 
COc1ccc2c(C/C(=N/C(=O)c3ccccc3)C(=O)N3CCOCC3)cn(Cc3ccccc3)c2c1 (cis-trans isomerization)
COc1ccc2c(C/C(=N/C(=O)c3ccccc3)C(=O)N3CCOCC3)cn(Cc3ccccc3)c2c1 (3D coordinates assigned)
COc1ccc2c(C/C(=N/C(=O)c3ccccc3)C(=O)N3CCOCC3)cn(Cc3ccccc3)c2c1 (nonaromatic ring conformer: 116.92901970359736 kcal/mol)

>  <smiles>  (22) 
COc1ccc2c(CC(=NC(=O)c3ccccc3)C(=O)N3CCOCC3)cn(Cc3ccccc3)c2c1

>  <score_type>  (22) 
oracle

>  <origin>  (22) 
adg

>  <m_score__min__energy>  (22) 
-9.9499999999999993

>  <m_primary>  (22) 
energy

$$$$
22:0
     RDKit          3D

 70 72  0  0  0  0  0  0  0  0999 V2000
   57.0510   33.8320   45.5740 C   0  0  0  0  0  0  0  0  0  0  0  0
   58.4140   34.0620   44.9230 C   0  0  0  0  0  0  0  0  0  0  0  0
   59.5620   34.0930   45.9420 C   0  0  0  0  0  0  0  0  0  0  0  0
   59.0680   34.2110   47.3910 C   0  0  0  0  0  0  0  0  0  0  0  0
   59.2340   32.9390   48.1070 N   0  0  0  0  0  0  0  0  0  0  0  0
   58.8950   32.8120   49.5350 C   0  0  0  0  0  0  0  0  0  0  0  0
   58.5420   31.3710   49.9280 C   0  0  0  0  0  0  0  0  0  0  0  0
   57.7190   31.3090   51.2200 C   0  0  0  0  0  0  0  0  0  0  0  0
   57.7440   32.6450   51.9560 C   0  0  0  0  0  0  0  0  0  0  0  0
   59.9650   31.8790   47.4700 C   0  0  0  0  0  0  0  0  0  0  0  0
   61.3330   31.6670   47.5160 C   0  0  0  0  0  0  0  0  0  0  0  0
   62.3490   32.5380   48.1810 C   0  0  0  0  0  0  0  0  0  0  0  0
   61.6560   30.6080   46.7350 N   0  0  0  0  0  0  0  0  0  0  0  0
   60.4630   30.1920   46.2570 C   0  0  0  0  0  0  0  0  0  0  0  0
   60.2640   29.1160   45.3980 C   0  0  0  0  0  0  0  0  0  0  0  0
   58.9480   28.8280   45.0050 C   0  0  0  0  0  0  0  0  0  0  0  0
   57.8670   29.6010   45.4880 C   0  0  0  0  0  0  0  0  0  0  0  0
   56.4770   29.3040   45.0880 C   0  0  0  0  0  0  0  0  0  0  0  0
   55.7620   30.2350   44.6300 O   0  0  0  0  0  0  0  0  0  0  0  0
   55.8960   28.0030   45.2470 N   0  0  0  0  0  0  0  0  0  0  0  0
   56.4480   26.9420   46.0810 C   0  0  0  0  0  0  0  0  0  0  0  0
   57.4320   26.1040   45.2610 C   0  0  0  0  0  0  0  0  0  0  0  0
   57.1940   24.6540   45.4490 N   0  0  0  0  0  0  0  0  0  0  0  0
   56.0210   24.1910   44.6650 C   0  0  0  0  0  0  0  0  0  0  0  0
   56.4280   23.6210   43.2950 C   0  0  0  0  0  0  0  0  0  0  0  0
   57.3630   22.4750   43.4150 N   0  0  0  0  0  0  0  0  0  0  0  0
   56.6750   21.1940   43.1880 C   0  0  0  0  0  0  0  0  0  0  0  0
   58.1000   22.4410   44.6980 C   0  0  0  0  0  0  0  0  0  0  0  0
   58.4230   23.8590   45.1840 C   0  0  0  0  0  0  0  0  0  0  0  0
   58.1360   30.6930   46.3330 C   0  0  0  0  0  0  0  0  0  0  0  0
   59.4270   30.9390   46.6780 N   0  0  0  0  0  0  0  0  0  0  0  0
   57.1596   33.8503   46.6685 H   0  0  0  0  0  0  0  0  0  0  0  0
   56.3566   34.6257   45.2611 H   0  0  0  0  0  0  0  0  0  0  0  0
   56.6555   32.8544   45.2611 H   0  0  0  0  0  0  0  0  0  0  0  0
   58.6025   33.2496   44.2057 H   0  0  0  0  0  0  0  0  0  0  0  0
   58.3834   35.0440   44.4283 H   0  0  0  0  0  0  0  0  0  0  0  0
   60.1444   33.1651   45.8437 H   0  0  0  0  0  0  0  0  0  0  0  0
   60.1723   34.9824   45.7266 H   0  0  0  0  0  0  0  0  0  0  0  0
   59.6462   34.9923   47.9061 H   0  0  0  0  0  0  0  0  0  0  0  0
   57.9990   34.4698   47.3777 H   0  0  0  0  0  0  0  0  0  0  0  0
   59.7580   33.1397   50.1332 H   0  0  0  0  0  0  0  0  0  0  0  0
   58.0105   33.4374   49.7260 H   0  0  0  0  0  0  0  0  0  0  0  0
   57.9593   30.9144   49.1144 H   0  0  0  0  0  0  0  0  0  0  0  0
   59.4827   30.8274   50.1000 H   0  0  0  0  0  0  0  0  0  0  0  0
   56.6779   31.0566   50.9702 H   0  0  0  0  0  0  0  0  0  0  0  0
   58.1579   30.5425   51.8756 H   0  0  0  0  0  0  0  0  0  0  0  0
   57.7406   32.4658   53.0413 H   0  0  0  0  0  0  0  0  0  0  0  0
   58.6527   33.1994   51.6787 H   0  0  0  0  0  0  0  0  0  0  0  0
   56.8567   33.2331   51.6787 H   0  0  0  0  0  0  0  0  0  0  0  0
   62.2479   32.4513   49.2729 H   0  0  0  0  0  0  0  0  0  0  0  0
   63.3580   32.2200   47.8798 H   0  0  0  0  0  0  0  0  0  0  0  0
   62.1889   33.5838   47.8798 H   0  0  0  0  0  0  0  0  0  0  0  0
   61.1098   28.5113   45.0389 H   0  0  0  0  0  0  0  0  0  0  0  0
   58.7556   27.9933   44.3149 H   0  0  0  0  0  0  0  0  0  0  0  0
   56.9726   27.3866   46.9395 H   0  0  0  0  0  0  0  0  0  0  0  0
   55.6319   26.2985   46.4413 H   0  0  0  0  0  0  0  0  0  0  0  0
   57.3119   26.3513   44.1959 H   0  0  0  0  0  0  0  0  0  0  0  0
   58.4519   26.3347   45.6025 H   0  0  0  0  0  0  0  0  0  0  0  0
   55.5008   23.4070   45.2348 H   0  0  0  0  0  0  0  0  0  0  0  0
   55.3672   25.0582   44.4901 H   0  0  0  0  0  0  0  0  0  0  0  0
   55.5224   23.2846   42.7690 H   0  0  0  0  0  0  0  0  0  0  0  0
   56.9437   24.4182   42.7395 H   0  0  0  0  0  0  0  0  0  0  0  0
   56.4279   20.7339   44.1561 H   0  0  0  0  0  0  0  0  0  0  0  0
   55.7502   21.3703   42.6191 H   0  0  0  0  0  0  0  0  0  0  0  0
   57.3327   20.5203   42.6191 H   0  0  0  0  0  0  0  0  0  0  0  0
   57.4828   21.9335   45.4540 H   0  0  0  0  0  0  0  0  0  0  0  0
   59.0450   21.8992   44.5450 H   0  0  0  0  0  0  0  0  0  0  0  0
   59.0083   23.7907   46.1129 H   0  0  0  0  0  0  0  0  0  0  0  0
   58.9905   24.3676   44.3907 H   0  0  0  0  0  0  0  0  0  0  0  0
   57.3215   31.3318   46.7052 H   0  0  0  0  0  0  0  0  0  0  0  0
  1  2  1  0
  2  3  1  0
  3  4  1  0
  4  5  1  0
  5  6  1  0
  6  7  1  0
  7  8  1  0
  8  9  1  0
  5 10  1  0
 10 11  2  0
 11 12  1  0
 11 13  1  0
 13 14  2  0
 14 15  1  0
 15 16  2  0
 16 17  1  0
 17 18  1  0
 18 19  2  0
 18 20  1  0
 20 21  1  0
 21 22  1  0
 22 23  1  0
 23 24  1  0
 24 25  1  0
 25 26  1  0
 26 27  1  0
 26 28  1  0
 28 29  1  0
 17 30  2  0
 30 31  1  0
 31 10  1  0
 31 14  1  0
 29 23  1  0
  1 32  1  0
  1 33  1  0
  1 34  1  0
  2 35  1  0
  2 36  1  0
  3 37  1  0
  3 38  1  0
  4 39  1  0
  4 40  1  0
  6 41  1  0
  6 42  1  0
  7 43  1  0
  7 44  1  0
  8 45  1  0
  8 46  1  0
  9 47  1  0
  9 48  1  0
  9 49  1  0
 12 50  1  0
 12 51  1  0
 12 52  1  0
 15 53  1  0
 16 54  1  0
 21 55  1  0
 21 56  1  0
 22 57  1  0
 22 58  1  0
 24 59  1  0
 24 60  1  0
 25 61  1  0
 25 62  1  0
 27 63  1  0
 27 64  1  0
 27 65  1  0
 28 66  1  0
 28 67  1  0
 29 68  1  0
 29 69  1  0
 30 70  1  0
M  CHG  1  20  -1
M  END
>  <UniqueID>  (23) 
22

>  <SMILES>  (23) 
CCCCN(CCCC)c1c(C)nc2ccc(C(=O)[N-]CCN3CCN(C)CC3)cn12

>  <Energy>  (23) 
109.96189294860636

>  <Genealogy>  (23) 
CCCCN(CCCC)c1c(C)nc2ccc(C(=O)[N-]CCN3CCN(C)CC3)cn12 (protonated)
CCCCN(CCCC)c1c(C)nc2ccc(C(=O)[N-]CCN3CCN(C)CC3)cn12 (3D coordinates assigned)
CCCCN(CCCC)c1c(C)nc2ccc(C(=O)[N-]CCN3CCN(C)CC3)cn12 (nonaromatic ring conformer: 109.96189294860636 kcal/mol)

>  <smiles>  (23) 
CCCCN(CCCC)c1c(C)nc2ccc(C(=O)NCCN3CCN(C)CC3)cn12

>  <score_type>  (23) 
oracle

>  <origin>  (23) 
adg

>  <m_score__min__energy>  (23) 
-9.8399999999999999

>  <m_primary>  (23) 
energy

$$$$
23:0
     RDKit          3D

 47 50  0  0  0  0  0  0  0  0999 V2000
   60.6440   34.3030   48.8860 C   0  0  0  0  0  0  0  0  0  0  0  0
   59.2870   34.1150   48.5010 O   0  0  0  0  0  0  0  0  0  0  0  0
   58.8650   34.1880   47.1670 C   0  0  0  0  0  0  0  0  0  0  0  0
   59.4310   34.9710   46.3560 O   0  0  0  0  0  0  0  0  0  0  0  0
   57.7680   33.2970   46.6830 C   0  0  0  0  0  0  0  0  0  0  0  0
   58.0770   32.7950   44.9580 S   0  0  0  0  0  0  0  0  0  0  0  0
   57.5780   31.0970   45.2450 C   0  0  0  0  0  0  0  0  0  0  0  0
   56.5410   30.5090   44.6190 N   0  0  0  0  0  0  0  0  0  0  0  0
   56.4570   29.2720   45.0900 N   0  0  0  0  0  0  0  0  0  0  0  0
   57.4420   29.1250   45.9990 C   0  0  0  0  0  0  0  0  0  0  0  0
   57.7000   27.8380   46.7310 C   0  0  0  0  0  0  0  0  0  0  0  0
   57.0000   26.6920   46.0700 C   0  0  0  0  0  0  0  0  0  0  0  0
   55.7170   26.3510   46.3670 N   0  0  0  0  0  0  0  0  0  0  0  0
   55.5350   25.2420   45.6390 C   0  0  0  0  0  0  0  0  0  0  0  0
   54.3980   24.4420   45.5780 C   0  0  0  0  0  0  0  0  0  0  0  0
   54.4440   23.3030   44.7510 C   0  0  0  0  0  0  0  0  0  0  0  0
   55.6180   23.0000   44.0210 C   0  0  0  0  0  0  0  0  0  0  0  0
   56.7510   23.8300   44.1150 C   0  0  0  0  0  0  0  0  0  0  0  0
   56.6660   24.9480   44.9400 C   0  0  0  0  0  0  0  0  0  0  0  0
   57.6200   25.8550   45.1960 N   0  0  0  0  0  0  0  0  0  0  0  0
   58.1610   30.2620   46.1260 N   0  0  0  0  0  0  0  0  0  0  0  0
   59.3160   30.5060   46.9410 C   0  0  0  0  0  0  0  0  0  0  0  0
   60.5470   30.8160   46.3490 C   0  0  0  0  0  0  0  0  0  0  0  0
   61.6510   31.1410   47.1440 C   0  0  0  0  0  0  0  0  0  0  0  0
   61.5320   31.1570   48.5480 C   0  0  0  0  0  0  0  0  0  0  0  0
   62.6000   31.5060   49.3890 O   0  0  0  0  0  0  0  0  0  0  0  0
   63.7190   32.2880   48.9840 C   0  0  0  0  0  0  0  0  0  0  0  0
   60.3060   30.8210   49.1340 C   0  0  0  0  0  0  0  0  0  0  0  0
   59.2040   30.4980   48.3370 C   0  0  0  0  0  0  0  0  0  0  0  0
   60.7157   34.3129   49.9836 H   0  0  0  0  0  0  0  0  0  0  0  0
   61.2559   33.4810   48.4860 H   0  0  0  0  0  0  0  0  0  0  0  0
   61.0094   35.2603   48.4860 H   0  0  0  0  0  0  0  0  0  0  0  0
   57.7209   32.4008   47.3191 H   0  0  0  0  0  0  0  0  0  0  0  0
   56.8147   33.8436   46.7318 H   0  0  0  0  0  0  0  0  0  0  0  0
   58.7821   27.6408   46.7403 H   0  0  0  0  0  0  0  0  0  0  0  0
   57.3160   27.9368   47.7570 H   0  0  0  0  0  0  0  0  0  0  0  0
   53.4952   24.6905   46.1553 H   0  0  0  0  0  0  0  0  0  0  0  0
   53.5647   22.6468   44.6722 H   0  0  0  0  0  0  0  0  0  0  0  0
   55.6453   22.1096   43.3756 H   0  0  0  0  0  0  0  0  0  0  0  0
   57.6710   23.6032   43.5563 H   0  0  0  0  0  0  0  0  0  0  0  0
   60.6460   30.8038   45.2535 H   0  0  0  0  0  0  0  0  0  0  0  0
   62.6143   31.3847   46.6721 H   0  0  0  0  0  0  0  0  0  0  0  0
   64.2489   32.6583   49.8740 H   0  0  0  0  0  0  0  0  0  0  0  0
   64.4007   31.6687   48.3826 H   0  0  0  0  0  0  0  0  0  0  0  0
   63.3718   33.1411   48.3826 H   0  0  0  0  0  0  0  0  0  0  0  0
   60.2091   30.8111   50.2297 H   0  0  0  0  0  0  0  0  0  0  0  0
   58.2450   30.2365   48.8081 H   0  0  0  0  0  0  0  0  0  0  0  0
  1  2  1  0
  2  3  1  0
  3  4  2  0
  3  5  1  0
  5  6  1  0
  6  7  1  0
  7  8  2  0
  8  9  1  0
  9 10  2  0
 10 11  1  0
 11 12  1  0
 12 13  2  0
 13 14  1  0
 14 15  2  0
 15 16  1  0
 16 17  2  0
 17 18  1  0
 18 19  2  0
 19 20  1  0
 10 21  1  0
 21 22  1  0
 22 23  2  0
 23 24  1  0
 24 25  2  0
 25 26  1  0
 26 27  1  0
 25 28  1  0
 28 29  2  0
 21  7  1  0
 29 22  1  0
 20 12  1  0
 19 14  1  0
  1 30  1  0
  1 31  1  0
  1 32  1  0
  5 33  1  0
  5 34  1  0
 11 35  1  0
 11 36  1  0
 15 37  1  0
 16 38  1  0
 17 39  1  0
 18 40  1  0
 23 41  1  0
 24 42  1  0
 27 43  1  0
 27 44  1  0
 27 45  1  0
 28 46  1  0
 29 47  1  0
M  CHG  1  20  -1
M  END
>  <UniqueID>  (24) 
23

>  <SMILES>  (24) 
COC(=O)CSc1nnc(Cc2nc3ccccc3[n-]2)n1-c1ccc(OC)cc1

>  <Energy>  (24) 
114.63865679302431

>  <Genealogy>  (24) 
COC(=O)CSc1nnc(Cc2nc3ccccc3[n-]2)n1-c1ccc(OC)cc1 (protonated)
COC(=O)CSc1nnc(Cc2nc3ccccc3[n-]2)n1-c1ccc(OC)cc1 (3D coordinates assigned)
COC(=O)CSc1nnc(Cc2nc3ccccc3[n-]2)n1-c1ccc(OC)cc1 (optimized conformer: 114.63865679302431 kcal/mol)

>  <smiles>  (24) 
COC(=O)CSc1nnc(Cc2nc3ccccc3[nH]2)n1-c1ccc(OC)cc1

>  <score_type>  (24) 
oracle

>  <origin>  (24) 
adg

>  <m_score__min__energy>  (24) 
-9.0099999999999998

>  <m_primary>  (24) 
energy

$$$$
24:0
     RDKit          3D

 52 54  0  0  0  0  0  0  0  0999 V2000
   55.5670   29.7240   43.3840 C   0  0  0  0  0  0  0  0  0  0  0  0
   55.9970   30.0440   44.7030 O   0  0  0  0  0  0  0  0  0  0  0  0
   57.2680   29.7460   45.2240 C   0  0  0  0  0  0  0  0  0  0  0  0
   57.4830   28.6170   46.0420 C   0  0  0  0  0  0  0  0  0  0  0  0
   58.7500   28.3510   46.5610 C   0  0  0  0  0  0  0  0  0  0  0  0
   59.8170   29.1990   46.2710 C   0  0  0  0  0  0  0  0  0  0  0  0
   59.6230   30.3180   45.4610 C   0  0  0  0  0  0  0  0  0  0  0  0
   58.3500   30.6060   44.9310 C   0  0  0  0  0  0  0  0  0  0  0  0
   58.1620   31.7910   44.0550 C   0  0  0  0  0  0  0  0  0  0  0  0
   58.2190   31.6450   42.8030 O   0  0  0  0  0  0  0  0  0  0  0  0
   57.9570   33.1770   44.6290 C   0  0  0  0  0  0  0  0  0  0  0  0
   59.3110   33.8470   44.9580 C   0  0  0  0  0  0  0  0  0  0  0  0
   59.1270   34.9450   46.0140 C   0  0  0  0  0  0  0  0  0  0  0  0
   58.6030   34.4180   47.3040 N   0  0  0  0  0  0  0  0  0  0  0  0
   59.6820   34.2590   48.3010 C   0  0  0  0  0  0  0  0  0  0  0  0
   60.2350   32.8590   48.2770 C   0  0  0  0  0  0  0  0  0  0  0  0
   61.3650   32.4210   47.6060 C   0  0  0  0  0  0  0  0  0  0  0  0
   62.2710   33.2530   46.7570 C   0  0  0  0  0  0  0  0  0  0  0  0
   61.6120   31.1340   47.9200 N   0  0  0  0  0  0  0  0  0  0  0  0
   60.6630   30.7370   48.7540 N   0  0  0  0  0  0  0  0  0  0  0  0
   60.6150   29.3980   49.3320 C   0  0  0  0  0  0  0  0  0  0  0  0
   59.8030   31.7520   48.9900 C   0  0  0  0  0  0  0  0  0  0  0  0
   58.6600   31.7090   49.9620 C   0  0  0  0  0  0  0  0  0  0  0  0
   57.8060   33.1700   47.1680 C   0  0  0  0  0  0  0  0  0  0  0  0
   57.0140   33.1360   45.8560 C   0  0  0  0  0  0  0  0  0  0  0  0
   54.6855   29.0680   43.4347 H   0  0  0  0  0  0  0  0  0  0  0  0
   55.3054   30.6489   42.8491 H   0  0  0  0  0  0  0  0  0  0  0  0
   56.3779   29.2079   42.8491 H   0  0  0  0  0  0  0  0  0  0  0  0
   56.6457   27.9418   46.2721 H   0  0  0  0  0  0  0  0  0  0  0  0
   58.9073   27.4700   47.2006 H   0  0  0  0  0  0  0  0  0  0  0  0
   60.8148   28.9855   46.6818 H   0  0  0  0  0  0  0  0  0  0  0  0
   60.4710   30.9809   45.2343 H   0  0  0  0  0  0  0  0  0  0  0  0
   57.4664   33.7976   43.8647 H   0  0  0  0  0  0  0  0  0  0  0  0
   60.0063   33.0870   45.3439 H   0  0  0  0  0  0  0  0  0  0  0  0
   59.7146   34.3007   44.0408 H   0  0  0  0  0  0  0  0  0  0  0  0
   60.1004   35.4230   46.1983 H   0  0  0  0  0  0  0  0  0  0  0  0
   58.3898   35.6620   45.6235 H   0  0  0  0  0  0  0  0  0  0  0  0
   60.4904   34.9693   48.0729 H   0  0  0  0  0  0  0  0  0  0  0  0
   59.2678   34.4557   49.3009 H   0  0  0  0  0  0  0  0  0  0  0  0
   62.9272   33.8556   47.4022 H   0  0  0  0  0  0  0  0  0  0  0  0
   62.8838   32.5964   46.1220 H   0  0  0  0  0  0  0  0  0  0  0  0
   61.6688   33.9194   46.1220 H   0  0  0  0  0  0  0  0  0  0  0  0
   60.6177   29.4721   50.4295 H   0  0  0  0  0  0  0  0  0  0  0  0
   59.6980   28.8884   49.0011 H   0  0  0  0  0  0  0  0  0  0  0  0
   61.4932   28.8241   49.0011 H   0  0  0  0  0  0  0  0  0  0  0  0
   59.0519   31.7237   50.9897 H   0  0  0  0  0  0  0  0  0  0  0  0
   58.0115   32.5834   49.8043 H   0  0  0  0  0  0  0  0  0  0  0  0
   58.0790   30.7884   49.8043 H   0  0  0  0  0  0  0  0  0  0  0  0
   58.4887   32.3078   47.1934 H   0  0  0  0  0  0  0  0  0  0  0  0
   57.0876   33.1326   48.0002 H   0  0  0  0  0  0  0  0  0  0  0  0
   56.4193   32.2113   45.8202 H   0  0  0  0  0  0  0  0  0  0  0  0
   56.3606   34.0203   45.8217 H   0  0  0  0  0  0  0  0  0  0  0  0
  1  2  1  0
  2  3  1  0
  3  4  2  0
  4  5  1  0
  5  6  2  0
  6  7  1  0
  7  8  2  0
  8  9  1  0
  9 10  2  0
  9 11  1  0
 11 12  1  0
 12 13  1  0
 13 14  1  0
 14 15  1  0
 15 16  1  0
 16 17  1  0
 17 18  1  0
 17 19  2  0
 19 20  1  0
 20 21  1  0
 20 22  1  0
 22 23  1  0
 14 24  1  0
 24 25  1  0
  8  3  1  0
 25 11  1  0
 22 16  2  0
  1 26  1  0
  1 27  1  0
  1 28  1  0
  4 29  1  0
  5 30  1  0
  6 31  1  0
  7 32  1  0
 11 33  1  0
 12 34  1  0
 12 35  1  0
 13 36  1  0
 13 37  1  0
 15 38  1  0
 15 39  1  0
 18 40  1  0
 18 41  1  0
 18 42  1  0
 21 43  1  0
 21 44  1  0
 21 45  1  0
 23 46  1  0
 23 47  1  0
 23 48  1  0
 24 49  1  0
 24 50  1  0
 25 51  1  0
 25 52  1  0
M  END
>  <UniqueID>  (25) 
24

>  <SMILES>  (25) 
COc1ccccc1C(=O)C1CCN(Cc2c(C)nn(C)c2C)CC1

>  <Energy>  (25) 
91.59262931570962

>  <Genealogy>  (25) 
COc1ccccc1C(=O)C1CCN(Cc2c(C)nn(C)c2C)CC1 (3D coordinates assigned)
COc1ccccc1C(=O)C1CCN(Cc2c(C)nn(C)c2C)CC1 (nonaromatic ring conformer: 91.59262931570962 kcal/mol)

>  <smiles>  (25) 
COc1ccccc1C(=O)C1CCN(Cc2c(C)nn(C)c2C)CC1

>  <score_type>  (25) 
oracle

>  <origin>  (25) 
adg

>  <m_score__min__energy>  (25) 
-8.4399999999999995

>  <m_primary>  (25) 
energy

$$$$
25:0
     RDKit          3D

 36 37  0  0  0  0  0  0  0  0999 V2000
   54.8560   24.8400   45.6060 C   0  0  0  0  0  0  0  0  0  0  0  0
   55.5730   26.0050   45.9950 O   0  0  0  0  0  0  0  0  0  0  0  0
   56.9210   26.2030   45.6820 C   0  0  0  0  0  0  0  0  0  0  0  0
   57.7380   25.2460   45.7620 O   0  0  0  0  0  0  0  0  0  0  0  0
   57.3720   27.5390   45.2570 C   0  0  0  0  0  0  0  0  0  0  0  0
   57.4210   28.8810   46.2750 S   0  0  0  0  0  0  0  0  0  0  0  0
   58.0090   29.9150   45.0820 C   0  0  0  0  0  0  0  0  0  0  0  0
   58.3190   31.3110   45.2710 N   0  0  0  0  0  0  0  0  0  0  0  0
   57.7840   32.3070   44.3280 C   0  0  0  0  0  0  0  0  0  0  0  0
   58.5580   33.6270   44.4140 C   0  0  0  0  0  0  0  0  0  0  0  0
   58.5860   34.1800   45.8560 C   0  0  0  0  0  0  0  0  0  0  0  0
   59.6620   35.2650   45.9830 C   0  0  0  0  0  0  0  0  0  0  0  0
   58.7740   33.0730   46.9290 C   0  0  0  0  0  0  0  0  0  0  0  0
   59.2350   31.7360   46.3390 C   0  0  0  0  0  0  0  0  0  0  0  0
   58.1740   29.2560   43.9120 N   0  0  0  0  0  0  0  0  0  0  0  0
   57.8250   27.9410   43.9910 C   0  0  0  0  0  0  0  0  0  0  0  0
   57.9280   27.0310   42.8040 C   0  0  0  0  0  0  0  0  0  0  0  0
   54.5225   24.2981   46.5033 H   0  0  0  0  0  0  0  0  0  0  0  0
   53.9806   25.1312   45.0069 H   0  0  0  0  0  0  0  0  0  0  0  0
   55.5104   24.1897   45.0069 H   0  0  0  0  0  0  0  0  0  0  0  0
   57.8637   31.9109   43.3049 H   0  0  0  0  0  0  0  0  0  0  0  0
   56.7334   32.5028   44.5887 H   0  0  0  0  0  0  0  0  0  0  0  0
   59.5913   33.4569   44.0773 H   0  0  0  0  0  0  0  0  0  0  0  0
   58.0511   34.3641   43.7739 H   0  0  0  0  0  0  0  0  0  0  0  0
   57.5994   34.6253   46.0520 H   0  0  0  0  0  0  0  0  0  0  0  0
   59.8588   35.4635   47.0469 H   0  0  0  0  0  0  0  0  0  0  0  0
   60.5873   34.9225   45.4966 H   0  0  0  0  0  0  0  0  0  0  0  0
   59.3118   36.1874   45.4966 H   0  0  0  0  0  0  0  0  0  0  0  0
   59.5270   33.4135   47.6550 H   0  0  0  0  0  0  0  0  0  0  0  0
   57.7946   32.9033   47.4002 H   0  0  0  0  0  0  0  0  0  0  0  0
   60.2476   31.8511   45.9250 H   0  0  0  0  0  0  0  0  0  0  0  0
   59.2389   30.9749   47.1332 H   0  0  0  0  0  0  0  0  0  0  0  0
   58.5210   29.7040   43.0340 H   0  0  0  0  0  0  0  0  0  0  0  0
   58.0455   25.9925   43.1472 H   0  0  0  0  0  0  0  0  0  0  0  0
   57.0146   27.1154   42.1969 H   0  0  0  0  0  0  0  0  0  0  0  0
   58.7995   27.3174   42.1969 H   0  0  0  0  0  0  0  0  0  0  0  0
  1  2  1  0
  2  3  1  0
  3  4  2  0
  3  5  1  0
  5  6  1  0
  6  7  1  0
  7  8  1  0
  8  9  1  0
  9 10  1  0
 10 11  1  0
 11 12  1  0
 11 13  1  0
 13 14  1  0
  7 15  2  0
 15 16  1  0
 16 17  1  0
 16  5  2  0
 14  8  1  0
  1 18  1  0
  1 19  1  0
  1 20  1  0
  9 21  1  0
  9 22  1  0
 10 23  1  0
 10 24  1  0
 11 25  1  0
 12 26  1  0
 12 27  1  0
 12 28  1  0
 13 29  1  0
 13 30  1  0
 14 31  1  0
 14 32  1  0
 15 33  1  0
 17 34  1  0
 17 35  1  0
 17 36  1  0
M  CHG  1  15   1
M  END
>  <UniqueID>  (26) 
25

>  <SMILES>  (26) 
COC(=O)c1sc(N2CCC(C)CC2)[nH+]c1C

>  <Energy>  (26) 
61.91887342978362

>  <Genealogy>  (26) 
COC(=O)c1sc(N2CCC(C)CC2)[nH+]c1C (protonated)
COC(=O)c1sc(N2CCC(C)CC2)[nH+]c1C (3D coordinates assigned)
COC(=O)c1sc(N2CCC(C)CC2)[nH+]c1C (nonaromatic ring conformer: 61.91887342978362 kcal/mol)

>  <smiles>  (26) 
COC(=O)c1sc(N2CCC(C)CC2)nc1C

>  <score_type>  (26) 
oracle

>  <origin>  (26) 
adg

>  <m_score__min__energy>  (26) 
-5.1200000000000001

>  <m_primary>  (26) 
energy

$$$$
26:0
     RDKit          3D

 59 63  0  0  0  0  0  0  0  0999 V2000
   58.3390   31.4830   43.7730 C   0  0  0  0  0  0  0  0  0  0  0  0
   58.1750   31.0680   45.1620 N   0  0  0  0  0  0  0  0  0  0  0  0
   58.0920   32.1020   46.1660 C   0  0  0  0  0  0  0  0  0  0  0  0
   56.9990   32.7240   46.3260 O   0  0  0  0  0  0  0  0  0  0  0  0
   59.2250   32.2910   47.1440 C   0  0  1  0  0  0  0  0  0  0  0  0
   59.2800   33.7060   47.6520 N   0  0  0  0  0  0  0  0  0  0  0  0
   59.7920   34.6450   46.6150 C   0  0  0  0  0  0  0  0  0  0  0  0
   61.2940   34.4650   46.2860 C   0  0  0  0  0  0  0  0  0  0  0  0
   62.1090   33.8680   47.4080 C   0  0  0  0  0  0  0  0  0  0  0  0
   63.4270   33.5980   47.2060 N   0  0  0  0  0  0  0  0  0  0  0  0
   64.2120   33.0500   48.1740 C   0  0  0  0  0  0  0  0  0  0  0  0
   63.6740   32.7430   49.4360 C   0  0  0  0  0  0  0  0  0  0  0  0
   64.5450   32.1860   50.5420 C   0  0  0  0  0  0  0  0  0  0  0  0
   64.2020   30.8740   50.8240 F   0  0  0  0  0  0  0  0  0  0  0  0
   65.8820   32.2050   50.1730 F   0  0  0  0  0  0  0  0  0  0  0  0
   64.3760   32.9480   51.6890 F   0  0  0  0  0  0  0  0  0  0  0  0
   62.3270   33.0620   49.6800 C   0  0  0  0  0  0  0  0  0  0  0  0
   61.5300   33.5930   48.6560 C   0  0  0  0  0  0  0  0  0  0  0  0
   60.0810   33.9320   48.8810 C   0  0  0  0  0  0  0  0  0  0  0  0
   58.9940   31.1870   48.2180 C   0  0  0  0  0  0  0  0  0  0  0  0
   59.4270   29.8840   47.6910 N   0  0  0  0  0  0  0  0  0  0  0  0
   60.7750   29.4490   48.1120 C   0  0  0  0  0  0  0  0  0  0  0  0
   60.8060   29.0840   49.5710 C   0  0  0  0  0  0  0  0  0  0  0  0
   60.7940   27.7280   49.9510 C   0  0  0  0  0  0  0  0  0  0  0  0
   60.8490   27.3700   51.3050 C   0  0  0  0  0  0  0  0  0  0  0  0
   60.9190   28.3600   52.2890 C   0  0  0  0  0  0  0  0  0  0  0  0
   60.9260   29.7090   51.9240 C   0  0  0  0  0  0  0  0  0  0  0  0
   60.8560   30.0730   50.5700 C   0  0  0  0  0  0  0  0  0  0  0  0
   58.6340   29.1170   46.7290 C   0  0  0  0  0  0  0  0  0  0  0  0
   58.2990   27.7700   47.0090 C   0  0  0  0  0  0  0  0  0  0  0  0
   57.6600   26.9570   46.0770 C   0  0  0  0  0  0  0  0  0  0  0  0
   57.3170   27.4580   44.8360 C   0  0  0  0  0  0  0  0  0  0  0  0
   57.5480   28.7910   44.5550 C   0  0  0  0  0  0  0  0  0  0  0  0
   58.1650   29.6530   45.4840 C   0  0  0  0  0  0  0  0  0  0  0  0
   58.7431   32.5056   43.7411 H   0  0  0  0  0  0  0  0  0  0  0  0
   59.0341   30.7981   43.2653 H   0  0  0  0  0  0  0  0  0  0  0  0
   57.3635   31.4583   43.2653 H   0  0  0  0  0  0  0  0  0  0  0  0
   60.2258   32.1676   46.7044 H   0  0  0  0  0  0  0  0  0  0  0  0
   59.2149   34.4882   45.6918 H   0  0  0  0  0  0  0  0  0  0  0  0
   59.6756   35.6606   47.0213 H   0  0  0  0  0  0  0  0  0  0  0  0
   61.3780   33.8048   45.4102 H   0  0  0  0  0  0  0  0  0  0  0  0
   61.6991   35.4713   46.1035 H   0  0  0  0  0  0  0  0  0  0  0  0
   65.2731   32.8463   47.9675 H   0  0  0  0  0  0  0  0  0  0  0  0
   61.8965   32.8944   50.6783 H   0  0  0  0  0  0  0  0  0  0  0  0
   59.6855   33.2985   49.6886 H   0  0  0  0  0  0  0  0  0  0  0  0
   60.0101   34.9956   49.1524 H   0  0  0  0  0  0  0  0  0  0  0  0
   59.5750   31.4277   49.1205 H   0  0  0  0  0  0  0  0  0  0  0  0
   57.9239   31.1410   48.4687 H   0  0  0  0  0  0  0  0  0  0  0  0
   61.0692   28.5714   47.5177 H   0  0  0  0  0  0  0  0  0  0  0  0
   61.4731   30.2835   47.9501 H   0  0  0  0  0  0  0  0  0  0  0  0
   60.7411   26.9449   49.1803 H   0  0  0  0  0  0  0  0  0  0  0  0
   60.8371   26.3086   51.5935 H   0  0  0  0  0  0  0  0  0  0  0  0
   60.9686   28.0774   53.3509 H   0  0  0  0  0  0  0  0  0  0  0  0
   60.9865   30.4871   52.6992 H   0  0  0  0  0  0  0  0  0  0  0  0
   60.8402   31.1364   50.2890 H   0  0  0  0  0  0  0  0  0  0  0  0
   58.5518   27.3525   47.9948 H   0  0  0  0  0  0  0  0  0  0  0  0
   57.4273   25.9120   46.3295 H   0  0  0  0  0  0  0  0  0  0  0  0
   56.8641   26.8016   44.0784 H   0  0  0  0  0  0  0  0  0  0  0  0
   57.2413   29.1913   43.5774 H   0  0  0  0  0  0  0  0  0  0  0  0
  1  2  1  0
  2  3  1  0
  3  4  2  0
  3  5  1  0
  5  6  1  0
  6  7  1  0
  7  8  1  0
  8  9  1  0
  9 10  2  0
 10 11  1  0
 11 12  2  0
 12 13  1  0
 13 14  1  0
 13 15  1  0
 13 16  1  0
 12 17  1  0
 17 18  2  0
 18 19  1  0
  5 20  1  0
 20 21  1  0
 21 22  1  0
 22 23  1  0
 23 24  2  0
 24 25  1  0
 25 26  2  0
 26 27  1  0
 27 28  2  0
 21 29  1  0
 29 30  2  0
 30 31  1  0
 31 32  2  0
 32 33  1  0
 33 34  2  0
 34  2  1  0
 19  6  1  0
 28 23  1  0
 34 29  1  0
 18  9  1  0
  1 35  1  0
  1 36  1  0
  1 37  1  0
  5 38  1  6
  7 39  1  0
  7 40  1  0
  8 41  1  0
  8 42  1  0
 11 43  1  0
 17 44  1  0
 19 45  1  0
 19 46  1  0
 20 47  1  0
 20 48  1  0
 22 49  1  0
 22 50  1  0
 24 51  1  0
 25 52  1  0
 26 53  1  0
 27 54  1  0
 28 55  1  0
 30 56  1  0
 31 57  1  0
 32 58  1  0
 33 59  1  0
M  END
>  <UniqueID>  (27) 
26

>  <SMILES>  (27) 
CN1C(=O)[C@@H](N2CCc3ncc(C(F)(F)F)cc3C2)CN(Cc2ccccc2)c2ccccc21

>  <Energy>  (27) 
105.99124309678395

>  <Genealogy>  (27) 
CN1C(=O)[C@@H](N2CCc3ncc(C(F)(F)F)cc3C2)CN(Cc2ccccc2)c2ccccc21 (chirality)
CN1C(=O)[C@@H](N2CCc3ncc(C(F)(F)F)cc3C2)CN(Cc2ccccc2)c2ccccc21 (3D coordinates assigned)
CN1C(=O)[C@@H](N2CCc3ncc(C(F)(F)F)cc3C2)CN(Cc2ccccc2)c2ccccc21 (nonaromatic ring conformer: 105.99124309678395 kcal/mol)

>  <smiles>  (27) 
CN1C(=O)C(N2CCc3ncc(C(F)(F)F)cc3C2)CN(Cc2ccccc2)c2ccccc21

>  <score_type>  (27) 
oracle

>  <origin>  (27) 
adg

>  <m_score__min__energy>  (27) 
-6.29

>  <m_primary>  (27) 
energy

$$$$
27:0
     RDKit          3D

 33 35  0  0  0  0  0  0  0  0999 V2000
   58.0900   26.5130   42.3930 F   0  0  0  0  0  0  0  0  0  0  0  0
   57.8410   27.6140   43.1420 C   0  0  0  0  0  0  0  0  0  0  0  0
   58.4110   27.7400   44.4130 C   0  0  0  0  0  0  0  0  0  0  0  0
   58.1570   28.8770   45.1860 C   0  0  0  0  0  0  0  0  0  0  0  0
   57.3140   29.8920   44.6970 C   0  0  0  0  0  0  0  0  0  0  0  0
   57.0460   31.0540   45.4350 O   0  0  0  0  0  0  0  0  0  0  0  0
   57.9130   32.1500   45.5700 C   0  0  0  0  0  0  0  0  0  0  0  0
   57.4530   33.4170   45.2000 C   0  0  0  0  0  0  0  0  0  0  0  0
   58.2830   34.5330   45.3270 C   0  0  0  0  0  0  0  0  0  0  0  0
   59.5760   34.3930   45.8380 C   0  0  0  0  0  0  0  0  0  0  0  0
   60.0500   33.1300   46.2380 C   0  0  0  0  0  0  0  0  0  0  0  0
   61.4190   32.9810   46.7960 C   0  0  0  0  0  0  0  0  0  0  0  0
   61.7020   31.9760   47.7390 C   0  0  0  0  0  0  0  0  0  0  0  0
   62.9950   31.8530   48.2520 C   0  0  0  0  0  0  0  0  0  0  0  0
   63.9780   32.7010   47.8440 N   0  0  0  0  0  0  0  0  0  0  0  0
   63.7340   33.6810   46.9340 C   0  0  0  0  0  0  0  0  0  0  0  0
   62.4560   33.8400   46.3950 C   0  0  0  0  0  0  0  0  0  0  0  0
   59.2060   32.0110   46.1070 C   0  0  0  0  0  0  0  0  0  0  0  0
   56.7620   29.7660   43.4150 C   0  0  0  0  0  0  0  0  0  0  0  0
   57.0180   28.6290   42.6430 C   0  0  0  0  0  0  0  0  0  0  0  0
   59.0602   26.9432   44.8051 H   0  0  0  0  0  0  0  0  0  0  0  0
   58.6177   28.9784   46.1797 H   0  0  0  0  0  0  0  0  0  0  0  0
   56.4325   33.5356   44.8070 H   0  0  0  0  0  0  0  0  0  0  0  0
   57.9177   35.5253   45.0238 H   0  0  0  0  0  0  0  0  0  0  0  0
   60.2270   35.2751   45.9281 H   0  0  0  0  0  0  0  0  0  0  0  0
   60.9084   31.2903   48.0707 H   0  0  0  0  0  0  0  0  0  0  0  0
   63.2198   31.0677   48.9887 H   0  0  0  0  0  0  0  0  0  0  0  0
   64.9400   32.5960   48.2380 H   0  0  0  0  0  0  0  0  0  0  0  0
   64.5475   34.3520   46.6208 H   0  0  0  0  0  0  0  0  0  0  0  0
   62.2617   34.6345   45.6594 H   0  0  0  0  0  0  0  0  0  0  0  0
   59.5602   31.0200   46.4270 H   0  0  0  0  0  0  0  0  0  0  0  0
   56.1234   30.5667   43.0137 H   0  0  0  0  0  0  0  0  0  0  0  0
   56.5718   28.5325   41.6422 H   0  0  0  0  0  0  0  0  0  0  0  0
  1  2  1  0
  2  3  2  0
  3  4  1  0
  4  5  2  0
  5  6  1  0
  6  7  1  0
  7  8  2  0
  8  9  1  0
  9 10  2  0
 10 11  1  0
 11 12  1  0
 12 13  2  0
 13 14  1  0
 14 15  2  0
 15 16  1  0
 16 17  2  0
 11 18  2  0
  5 19  1  0
 19 20  2  0
 20  2  1  0
 18  7  1  0
 17 12  1  0
  3 21  1  0
  4 22  1  0
  8 23  1  0
  9 24  1  0
 10 25  1  0
 13 26  1  0
 14 27  1  0
 15 28  1  0
 16 29  1  0
 17 30  1  0
 18 31  1  0
 19 32  1  0
 20 33  1  0
M  CHG  1  15   1
M  END
>  <UniqueID>  (28) 
27

>  <SMILES>  (28) 
Fc1ccc(Oc2cccc(-c3cc[nH+]cc3)c2)cc1

>  <Energy>  (28) 
47.55019354880483

>  <Genealogy>  (28) 
Fc1ccc(Oc2cccc(-c3cc[nH+]cc3)c2)cc1 (protonated)
Fc1ccc(Oc2cccc(-c3cc[nH+]cc3)c2)cc1 (3D coordinates assigned)
Fc1ccc(Oc2cccc(-c3cc[nH+]cc3)c2)cc1 (optimized conformer: 47.55019354880483 kcal/mol)

>  <smiles>  (28) 
Fc1ccc(Oc2cccc(-c3ccncc3)c2)cc1

>  <score_type>  (28) 
oracle

>  <origin>  (28) 
adg

>  <m_score__min__energy>  (28) 
-6.1500000000000004

>  <m_primary>  (28) 
energy

$$$$
28:0
     RDKit          3D

 50 53  0  0  0  0  0  0  0  0999 V2000
   59.2860   34.5720   45.0180 C   0  0  0  0  0  0  0  0  0  0  0  0
   58.3170   34.4150   46.1840 C   0  0  0  0  0  0  0  0  0  0  0  0
   58.8340   33.4310   47.1490 N   0  0  0  0  0  0  0  0  0  0  0  0
   59.6710   33.8700   48.2760 C   0  0  0  0  0  0  0  0  0  0  0  0
   61.1140   33.4830   48.0690 C   0  0  0  0  0  0  0  0  0  0  0  0
   61.7980   33.8650   46.9070 C   0  0  0  0  0  0  0  0  0  0  0  0
   63.1240   33.4730   46.7150 C   0  0  0  0  0  0  0  0  0  0  0  0
   63.7570   32.7010   47.6900 C   0  0  0  0  0  0  0  0  0  0  0  0
   63.0860   32.3360   48.8160 N   0  0  0  0  0  0  0  0  0  0  0  0
   61.7920   32.7060   49.0240 C   0  0  0  0  0  0  0  0  0  0  0  0
   58.6830   32.0220   46.8850 C   0  0  0  0  0  0  0  0  0  0  0  0
   58.2060   31.5830   45.6410 C   0  0  0  0  0  0  0  0  0  0  0  0
   58.0580   30.2190   45.3790 C   0  0  0  0  0  0  0  0  0  0  0  0
   58.3830   29.2670   46.3580 C   0  0  0  0  0  0  0  0  0  0  0  0
   58.2280   27.8630   46.0880 N   0  0  0  0  0  0  0  0  0  0  0  0
   57.0320   27.1690   45.7130 C   0  0  0  0  0  0  0  0  0  0  0  0
   55.8960   27.7040   45.6190 O   0  0  0  0  0  0  0  0  0  0  0  0
   57.3180   25.7530   45.5140 C   0  0  0  0  0  0  0  0  0  0  0  0
   56.4850   24.7020   45.1410 C   0  0  0  0  0  0  0  0  0  0  0  0
   57.0520   23.4210   45.0150 C   0  0  0  0  0  0  0  0  0  0  0  0
   58.4290   23.2120   45.2730 C   0  0  0  0  0  0  0  0  0  0  0  0
   59.0250   21.8480   45.0950 C   0  0  0  0  0  0  0  0  0  0  0  0
   59.2500   24.3020   45.6370 C   0  0  0  0  0  0  0  0  0  0  0  0
   58.6600   25.5590   45.7570 C   0  0  0  0  0  0  0  0  0  0  0  0
   59.2400   26.8500   46.1100 C   0  0  0  0  0  0  0  0  0  0  0  0
   60.4580   27.0620   46.3500 O   0  0  0  0  0  0  0  0  0  0  0  0
   58.8540   29.7050   47.6060 C   0  0  0  0  0  0  0  0  0  0  0  0
   58.9990   31.0700   47.8680 C   0  0  0  0  0  0  0  0  0  0  0  0
   60.3023   34.7367   45.4054 H   0  0  0  0  0  0  0  0  0  0  0  0
   59.2712   33.6597   44.4035 H   0  0  0  0  0  0  0  0  0  0  0  0
   58.9839   35.4329   44.4035 H   0  0  0  0  0  0  0  0  0  0  0  0
   58.1936   35.3857   46.6865 H   0  0  0  0  0  0  0  0  0  0  0  0
   57.3481   34.0639   45.7993 H   0  0  0  0  0  0  0  0  0  0  0  0
   59.6029   34.9640   48.3683 H   0  0  0  0  0  0  0  0  0  0  0  0
   59.3073   33.3794   49.1909 H   0  0  0  0  0  0  0  0  0  0  0  0
   61.2895   34.4744   46.1454 H   0  0  0  0  0  0  0  0  0  0  0  0
   63.6646   33.7697   45.8041 H   0  0  0  0  0  0  0  0  0  0  0  0
   64.8015   32.3866   47.5478 H   0  0  0  0  0  0  0  0  0  0  0  0
   63.5740   31.7580   49.5370 H   0  0  0  0  0  0  0  0  0  0  0  0
   61.2749   32.3953   49.9438 H   0  0  0  0  0  0  0  0  0  0  0  0
   57.9464   32.3188   44.8656 H   0  0  0  0  0  0  0  0  0  0  0  0
   57.6842   29.8886   44.3987 H   0  0  0  0  0  0  0  0  0  0  0  0
   55.4145   24.8684   44.9503 H   0  0  0  0  0  0  0  0  0  0  0  0
   56.4198   22.5730   44.7131 H   0  0  0  0  0  0  0  0  0  0  0  0
   59.2201   21.4016   46.0812 H   0  0  0  0  0  0  0  0  0  0  0  0
   58.3231   21.2112   44.5366 H   0  0  0  0  0  0  0  0  0  0  0  0
   59.9691   21.9304   44.5366 H   0  0  0  0  0  0  0  0  0  0  0  0
   60.3256   24.1627   45.8208 H   0  0  0  0  0  0  0  0  0  0  0  0
   59.1105   28.9692   48.3824 H   0  0  0  0  0  0  0  0  0  0  0  0
   59.3634   31.4013   48.8516 H   0  0  0  0  0  0  0  0  0  0  0  0
  1  2  1  0
  2  3  1  0
  3  4  1  0
  4  5  1  0
  5  6  2  0
  6  7  1  0
  7  8  2  0
  8  9  1  0
  9 10  2  0
  3 11  1  0
 11 12  2  0
 12 13  1  0
 13 14  2  0
 14 15  1  0
 15 16  1  0
 16 17  2  0
 16 18  1  0
 18 19  2  0
 19 20  1  0
 20 21  2  0
 21 22  1  0
 21 23  1  0
 23 24  2  0
 24 25  1  0
 25 26  2  0
 14 27  1  0
 27 28  2  0
 10  5  1  0
 28 11  1  0
 25 15  1  0
 24 18  1  0
  1 29  1  0
  1 30  1  0
  1 31  1  0
  2 32  1  0
  2 33  1  0
  4 34  1  0
  4 35  1  0
  6 36  1  0
  7 37  1  0
  8 38  1  0
  9 39  1  0
 10 40  1  0
 12 41  1  0
 13 42  1  0
 19 43  1  0
 20 44  1  0
 22 45  1  0
 22 46  1  0
 22 47  1  0
 23 48  1  0
 27 49  1  0
 28 50  1  0
M  CHG  1   9   1
M  END
>  <UniqueID>  (29) 
28

>  <SMILES>  (29) 
CCN(Cc1ccc[nH+]c1)c1ccc(N2C(=O)c3ccc(C)cc3C2=O)cc1

>  <Energy>  (29) 
90.61668260190723

>  <Genealogy>  (29) 
CCN(Cc1ccc[nH+]c1)c1ccc(N2C(=O)c3ccc(C)cc3C2=O)cc1 (protonated)
CCN(Cc1ccc[nH+]c1)c1ccc(N2C(=O)c3ccc(C)cc3C2=O)cc1 (3D coordinates assigned)
CCN(Cc1ccc[nH+]c1)c1ccc(N2C(=O)c3ccc(C)cc3C2=O)cc1 (nonaromatic ring conformer: 90.61668260190723 kcal/mol)

>  <smiles>  (29) 
CCN(Cc1cccnc1)c1ccc(N2C(=O)c3ccc(C)cc3C2=O)cc1

>  <score_type>  (29) 
oracle

>  <origin>  (29) 
adg

>  <m_score__min__energy>  (29) 
-7.8099999999999996

>  <m_primary>  (29) 
energy

$$$$
29:0
     RDKit          3D

 48 50  0  0  0  0  0  0  0  0999 V2000
   57.3390   30.9220   43.5520 C   0  0  0  0  0  0  0  0  0  0  0  0
   58.0160   30.5160   44.7870 N   0  0  0  0  0  0  0  0  0  0  0  0
   57.9680   29.1330   45.1650 C   0  0  0  0  0  0  0  0  0  0  0  0
   56.7360   28.4780   45.3200 C   0  0  0  0  0  0  0  0  0  0  0  0
   56.7000   27.1250   45.6680 C   0  0  0  0  0  0  0  0  0  0  0  0
   57.8910   26.4190   45.8580 C   0  0  0  0  0  0  0  0  0  0  0  0
   59.1200   27.0640   45.6950 C   0  0  0  0  0  0  0  0  0  0  0  0
   59.1610   28.4210   45.3330 C   0  0  0  0  0  0  0  0  0  0  0  0
   60.4640   29.1440   45.1730 C   0  0  0  0  0  0  0  0  0  0  0  0
   60.6780   30.0980   46.3450 C   0  0  0  0  0  0  0  0  0  0  0  0
   59.7880   31.3340   46.3940 C   0  0  0  0  0  0  0  0  0  0  0  0
   60.2220   32.3550   47.2620 C   0  0  0  0  0  0  0  0  0  0  0  0
   59.5070   33.5490   47.4140 C   0  0  0  0  0  0  0  0  0  0  0  0
   60.0100   34.5620   48.3040 N   0  0  0  0  0  0  0  0  0  0  0  0
   61.3110   34.4970   48.9760 C   0  0  0  0  0  0  0  0  0  0  0  0
   61.2880   33.4820   50.1320 C   0  0  0  0  0  0  0  0  0  0  0  0
   62.4370   32.5340   50.0800 N   0  0  0  0  0  0  0  0  0  0  0  0
   61.9640   31.1440   49.9440 C   0  0  0  0  0  0  0  0  0  0  0  0
   63.3430   32.8530   48.9620 C   0  0  0  0  0  0  0  0  0  0  0  0
   58.2960   33.7030   46.7300 C   0  0  0  0  0  0  0  0  0  0  0  0
   57.8330   32.7010   45.8800 C   0  0  0  0  0  0  0  0  0  0  0  0
   58.5580   31.5090   45.6880 C   0  0  0  0  0  0  0  0  0  0  0  0
   56.4202   31.4730   43.8016 H   0  0  0  0  0  0  0  0  0  0  0  0
   58.0063   31.5691   42.9638 H   0  0  0  0  0  0  0  0  0  0  0  0
   57.0824   30.0286   42.9638 H   0  0  0  0  0  0  0  0  0  0  0  0
   55.7973   29.0308   45.1673 H   0  0  0  0  0  0  0  0  0  0  0  0
   55.7332   26.6152   45.7925 H   0  0  0  0  0  0  0  0  0  0  0  0
   57.8611   25.3551   46.1360 H   0  0  0  0  0  0  0  0  0  0  0  0
   60.0566   26.5085   45.8503 H   0  0  0  0  0  0  0  0  0  0  0  0
   61.2853   28.4128   45.1436 H   0  0  0  0  0  0  0  0  0  0  0  0
   60.4448   29.7206   44.2364 H   0  0  0  0  0  0  0  0  0  0  0  0
   60.5104   29.5299   47.2719 H   0  0  0  0  0  0  0  0  0  0  0  0
   61.7007   30.4835   46.2203 H   0  0  0  0  0  0  0  0  0  0  0  0
   61.1488   32.2101   47.8366 H   0  0  0  0  0  0  0  0  0  0  0  0
   59.3440   35.2920   48.6460 H   0  0  0  0  0  0  0  0  0  0  0  0
   62.0770   34.1938   48.2471 H   0  0  0  0  0  0  0  0  0  0  0  0
   61.5409   35.4905   49.3883 H   0  0  0  0  0  0  0  0  0  0  0  0
   61.3259   34.0308   51.0845 H   0  0  0  0  0  0  0  0  0  0  0  0
   60.3634   32.8929   50.0422 H   0  0  0  0  0  0  0  0  0  0  0  0
   62.9930   32.5820   50.9680 H   0  0  0  0  0  0  0  0  0  0  0  0
   61.8156   30.7078   50.9429 H   0  0  0  0  0  0  0  0  0  0  0  0
   61.0115   31.1330   49.3938 H   0  0  0  0  0  0  0  0  0  0  0  0
   62.7121   30.5543   49.3938 H   0  0  0  0  0  0  0  0  0  0  0  0
   64.3104   33.1936   49.3597 H   0  0  0  0  0  0  0  0  0  0  0  0
   63.4957   31.9546   48.3460 H   0  0  0  0  0  0  0  0  0  0  0  0
   62.8991   33.6489   48.3460 H   0  0  0  0  0  0  0  0  0  0  0  0
   57.7056   34.6214   46.8643 H   0  0  0  0  0  0  0  0  0  0  0  0
   56.8811   32.8439   45.3476 H   0  0  0  0  0  0  0  0  0  0  0  0
  1  2  1  0
  2  3  1  0
  3  4  2  0
  4  5  1  0
  5  6  2  0
  6  7  1  0
  7  8  2  0
  8  9  1  0
  9 10  1  0
 10 11  1  0
 11 12  2  0
 12 13  1  0
 13 14  1  0
 14 15  1  0
 15 16  1  0
 16 17  1  0
 17 18  1  0
 17 19  1  0
 13 20  2  0
 20 21  1  0
 21 22  2  0
 22  2  1  0
  8  3  1  0
 22 11  1  0
  1 23  1  0
  1 24  1  0
  1 25  1  0
  4 26  1  0
  5 27  1  0
  6 28  1  0
  7 29  1  0
  9 30  1  0
  9 31  1  0
 10 32  1  0
 10 33  1  0
 12 34  1  0
 14 35  1  0
 15 36  1  0
 15 37  1  0
 16 38  1  0
 16 39  1  0
 17 40  1  0
 18 41  1  0
 18 42  1  0
 18 43  1  0
 19 44  1  0
 19 45  1  0
 19 46  1  0
 20 47  1  0
 21 48  1  0
M  CHG  1  17   1
M  END
>  <UniqueID>  (30) 
29

>  <SMILES>  (30) 
CN1c2ccccc2CCc2cc(NCC[NH+](C)C)ccc21

>  <Energy>  (30) 
68.62191104454328

>  <Genealogy>  (30) 
CN1c2ccccc2CCc2cc(NCC[NH+](C)C)ccc21 (protonated)
CN1c2ccccc2CCc2cc(NCC[NH+](C)C)ccc21 (3D coordinates assigned)
CN1c2ccccc2CCc2cc(NCC[NH+](C)C)ccc21 (nonaromatic ring conformer: 68.62191104454328 kcal/mol)

>  <smiles>  (30) 
CN(C)CCNc1ccc2c(c1)CCc1ccccc1N2C

>  <score_type>  (30) 
oracle

>  <origin>  (30) 
adg

>  <m_score__min__energy>  (30) 
-3.9500000000000002

>  <m_primary>  (30) 
energy

$$$$
30:0
     RDKit          3D

 28 29  0  0  0  0  0  0  0  0999 V2000
   60.6350   30.2440   47.9800 C   0  0  0  0  0  0  0  0  0  0  0  0
   60.6330   30.1480   46.1930 S   0  0  0  0  0  0  0  0  0  0  0  0
   59.1090   29.5130   45.5370 C   0  0  0  0  0  0  0  0  0  0  0  0
   58.9170   28.2090   45.2520 N   0  0  0  0  0  0  0  0  0  0  0  0
   57.7420   27.7870   44.7560 C   0  0  0  0  0  0  0  0  0  0  0  0
   57.6170   26.5270   44.5030 N   0  0  0  0  0  0  0  0  0  0  0  0
   56.7080   28.6140   44.5180 N   0  0  0  0  0  0  0  0  0  0  0  0
   56.8920   29.9330   44.8030 C   0  0  0  0  0  0  0  0  0  0  0  0
   55.9450   30.7610   44.5970 N   0  0  0  0  0  0  0  0  0  0  0  0
   58.0840   30.4070   45.3130 C   0  0  0  0  0  0  0  0  0  0  0  0
   58.2090   31.8420   45.5950 C   0  0  0  0  0  0  0  0  0  0  0  0
   58.2880   32.3250   46.8900 C   0  0  0  0  0  0  0  0  0  0  0  0
   58.4040   33.6670   47.1250 C   0  0  0  0  0  0  0  0  0  0  0  0
   58.4450   34.5640   46.0580 C   0  0  0  0  0  0  0  0  0  0  0  0
   58.3670   34.0880   44.7520 C   0  0  0  0  0  0  0  0  0  0  0  0
   58.2500   32.7280   44.5350 C   0  0  0  0  0  0  0  0  0  0  0  0
   58.1500   32.0990   42.9090 Cl  0  0  0  0  0  0  0  0  0  0  0  0
   60.6138   29.2283   48.4018 H   0  0  0  0  0  0  0  0  0  0  0  0
   61.5441   30.7627   48.3183 H   0  0  0  0  0  0  0  0  0  0  0  0
   59.7482   30.8001   48.3183 H   0  0  0  0  0  0  0  0  0  0  0  0
   59.6760   27.5300   45.4150 H   0  0  0  0  0  0  0  0  0  0  0  0
   57.0330   26.1200   43.7460 H   0  0  0  0  0  0  0  0  0  0  0  0
   55.7990   28.2570   44.1300 H   0  0  0  0  0  0  0  0  0  0  0  0
   55.6510   31.5110   45.2460 H   0  0  0  0  0  0  0  0  0  0  0  0
   58.2572   31.6235   47.7367 H   0  0  0  0  0  0  0  0  0  0  0  0
   58.4651   34.0399   48.1581 H   0  0  0  0  0  0  0  0  0  0  0  0
   58.5386   35.6435   46.2475 H   0  0  0  0  0  0  0  0  0  0  0  0
   58.3981   34.7862   43.9026 H   0  0  0  0  0  0  0  0  0  0  0  0
  1  2  1  0
  2  3  1  0
  3  4  1  0
  4  5  1  0
  5  6  2  3
  5  7  1  0
  7  8  1  0
  8  9  2  3
  8 10  1  0
 10 11  1  0
 11 12  2  0
 12 13  1  0
 13 14  2  0
 14 15  1  0
 15 16  2  0
 16 17  1  0
 10  3  2  0
 16 11  1  0
  1 18  1  0
  1 19  1  0
  1 20  1  0
  4 21  1  0
  6 22  1  0
  7 23  1  0
  9 24  1  0
 12 25  1  0
 13 26  1  0
 14 27  1  0
 15 28  1  0
M  END
>  <smiles>  (31) 
CSc1[nH]c(=N)[nH]c(=N)c1-c1ccccc1Cl

>  <score_type>  (31) 
oracle

>  <origin>  (31) 
adg

>  <m_score__min__energy>  (31) 
-6.54

>  <m_primary>  (31) 
energy

$$$$
31:0
     RDKit          3D

 42 45  0  0  0  0  0  0  0  0999 V2000
   64.2320   32.6570   48.9740 C   0  0  0  0  0  0  0  0  0  0  0  0
   62.8620   33.0290   48.6480 N   0  0  0  0  0  0  0  0  0  0  0  0
   62.3370   33.0860   47.4110 C   0  0  0  0  0  0  0  0  0  0  0  0
   60.9950   33.3940   47.5330 C   0  0  0  0  0  0  0  0  0  0  0  0
   59.9700   33.4640   46.4690 C   0  0  0  0  0  0  0  0  0  0  0  0
   59.8160   34.6580   45.8400 N   0  0  0  0  0  0  0  0  0  0  0  0
   58.8770   34.8440   44.8850 C   0  0  0  0  0  0  0  0  0  0  0  0
   58.0500   33.8290   44.5460 N   0  0  0  0  0  0  0  0  0  0  0  0
   58.1510   32.6040   45.1250 C   0  0  0  0  0  0  0  0  0  0  0  0
   59.1620   32.3580   46.0870 C   0  0  0  0  0  0  0  0  0  0  0  0
   59.3950   30.9770   46.7000 C   0  0  0  0  0  0  0  0  0  0  0  0
   59.6390   29.7740   45.7510 C   0  0  0  0  0  0  0  0  0  0  0  0
   58.4710   29.3520   44.9530 N   0  0  0  0  0  0  0  0  0  0  0  0
   58.5600   27.9840   44.4010 C   0  0  0  0  0  0  0  0  0  0  0  0
   57.5830   27.0920   45.1010 C   0  0  0  0  0  0  0  0  0  0  0  0
   57.4050   25.7410   44.8960 C   0  0  0  0  0  0  0  0  0  0  0  0
   56.3680   25.3770   45.7290 C   0  0  0  0  0  0  0  0  0  0  0  0
   55.9370   26.4280   46.3910 O   0  0  0  0  0  0  0  0  0  0  0  0
   56.6430   27.4770   46.0330 C   0  0  0  0  0  0  0  0  0  0  0  0
   57.9650   30.3730   44.0040 C   0  0  0  0  0  0  0  0  0  0  0  0
   57.2100   31.5360   44.6640 C   0  0  0  0  0  0  0  0  0  0  0  0
   60.7670   33.4650   48.8960 C   0  0  0  0  0  0  0  0  0  0  0  0
   61.9210   33.2400   49.5540 N   0  0  0  0  0  0  0  0  0  0  0  0
   64.3529   32.6242   50.0668 H   0  0  0  0  0  0  0  0  0  0  0  0
   64.4535   31.6662   48.5507 H   0  0  0  0  0  0  0  0  0  0  0  0
   64.9242   33.3997   48.5507 H   0  0  0  0  0  0  0  0  0  0  0  0
   62.8795   32.9174   46.4691 H   0  0  0  0  0  0  0  0  0  0  0  0
   58.7859   35.8193   44.3846 H   0  0  0  0  0  0  0  0  0  0  0  0
   60.2754   31.0573   47.3545 H   0  0  0  0  0  0  0  0  0  0  0  0
   58.4416   30.7391   47.1944 H   0  0  0  0  0  0  0  0  0  0  0  0
   60.4449   30.0488   45.0545 H   0  0  0  0  0  0  0  0  0  0  0  0
   59.8881   28.9211   46.3995 H   0  0  0  0  0  0  0  0  0  0  0  0
   58.3279   28.0078   43.3260 H   0  0  0  0  0  0  0  0  0  0  0  0
   59.5786   27.5966   44.5510 H   0  0  0  0  0  0  0  0  0  0  0  0
   57.9704   25.0905   44.2125 H   0  0  0  0  0  0  0  0  0  0  0  0
   55.9620   24.3592   45.8252 H   0  0  0  0  0  0  0  0  0  0  0  0
   56.5058   28.4990   46.4159 H   0  0  0  0  0  0  0  0  0  0  0  0
   58.8235   30.7878   43.4554 H   0  0  0  0  0  0  0  0  0  0  0  0
   57.2432   29.8621   43.3498 H   0  0  0  0  0  0  0  0  0  0  0  0
   56.5083   31.9672   43.9349 H   0  0  0  0  0  0  0  0  0  0  0  0
   56.6709   31.1468   45.5403 H   0  0  0  0  0  0  0  0  0  0  0  0
   59.7955   33.6727   49.3684 H   0  0  0  0  0  0  0  0  0  0  0  0
  1  2  1  0
  2  3  1  0
  3  4  2  0
  4  5  1  0
  5  6  2  0
  6  7  1  0
  7  8  2  0
  8  9  1  0
  9 10  2  0
 10 11  1  0
 11 12  1  0
 12 13  1  0
 13 14  1  0
 14 15  1  0
 15 16  1  0
 16 17  2  0
 17 18  1  0
 18 19  1  0
 13 20  1  0
 20 21  1  0
  4 22  1  0
 22 23  2  0
 23  2  1  0
 10  5  1  0
 19 15  2  0
 21  9  1  0
  1 24  1  0
  1 25  1  0
  1 26  1  0
  3 27  1  0
  7 28  1  0
 11 29  1  0
 11 30  1  0
 12 31  1  0
 12 32  1  0
 14 33  1  0
 14 34  1  0
 16 35  1  0
 17 36  1  0
 19 37  1  0
 20 38  1  0
 20 39  1  0
 21 40  1  0
 21 41  1  0
 22 42  1  0
M  END
>  <UniqueID>  (32) 
30

>  <SMILES>  (32) 
Cn1cc(-c2ncnc3c2CCN(Cc2ccoc2)CC3)cn1

>  <Energy>  (32) 
123.40441493098967

>  <Genealogy>  (32) 
Cn1cc(-c2ncnc3c2CCN(Cc2ccoc2)CC3)cn1 (3D coordinates assigned)
Cn1cc(-c2ncnc3c2CCN(Cc2ccoc2)CC3)cn1 (nonaromatic ring conformer: 123.40441493098967 kcal/mol)

>  <smiles>  (32) 
Cn1cc(-c2ncnc3c2CCN(Cc2ccoc2)CC3)cn1

>  <score_type>  (32) 
oracle

>  <origin>  (32) 
adg

>  <m_score__min__energy>  (32) 
-5.8099999999999996

>  <m_primary>  (32) 
energy

$$$$
32:0
     RDKit          3D

 35 36  0  0  0  0  0  0  0  0999 V2000
   56.8687   32.3221   43.5371 H   0  0  0  0  0  0  0  0  0  0  0  0
   57.3150   31.9350   44.4650 C   0  0  0  0  0  0  0  0  0  0  0  0
   57.1400   30.6260   44.7410 C   0  0  0  0  0  0  0  0  0  0  0  0
   56.1250   29.7840   44.0610 C   0  0  0  0  0  0  0  0  0  0  0  0
   55.1440   29.3470   44.7200 O   0  0  0  0  0  0  0  0  0  0  0  0
   56.2630   29.3830   42.6240 C   0  0  0  0  0  0  0  0  0  0  0  0
   56.6205   28.3443   42.5659 H   0  0  0  0  0  0  0  0  0  0  0  0
   55.2857   29.4629   42.1256 H   0  0  0  0  0  0  0  0  0  0  0  0
   56.9842   30.0474   42.1256 H   0  0  0  0  0  0  0  0  0  0  0  0
   58.0710   29.9630   45.7270 C   0  0  0  0  0  0  0  0  0  0  0  0
   58.9215   29.5282   45.1814 H   0  0  0  0  0  0  0  0  0  0  0  0
   58.4181   30.7218   46.4438 H   0  0  0  0  0  0  0  0  0  0  0  0
   57.4080   28.9360   46.4450 O   0  0  0  0  0  0  0  0  0  0  0  0
   58.1240   27.7190   46.3700 C   0  0  0  0  0  0  0  0  0  0  0  0
   58.9427   27.8247   45.6430 H   0  0  0  0  0  0  0  0  0  0  0  0
   58.5290   27.4823   47.3649 H   0  0  0  0  0  0  0  0  0  0  0  0
   57.2210   26.6060   45.9370 C   0  0  0  0  0  0  0  0  0  0  0  0
   55.9840   26.4600   46.3510 O   0  0  0  0  0  0  0  0  0  0  0  0
   55.4820   25.3810   45.7970 C   0  0  0  0  0  0  0  0  0  0  0  0
   54.4609   25.0041   45.9557 H   0  0  0  0  0  0  0  0  0  0  0  0
   56.4300   24.7910   44.9850 C   0  0  0  0  0  0  0  0  0  0  0  0
   56.3106   23.8759   44.3864 H   0  0  0  0  0  0  0  0  0  0  0  0
   57.5570   25.5810   45.0760 C   0  0  0  0  0  0  0  0  0  0  0  0
   58.5209   25.4266   44.5690 H   0  0  0  0  0  0  0  0  0  0  0  0
   58.0600   32.8890   45.3130 C   0  0  0  0  0  0  0  0  0  0  0  0
   57.8370   32.8960   46.6980 C   0  0  0  0  0  0  0  0  0  0  0  0
   57.1338   32.1766   47.1430 H   0  0  0  0  0  0  0  0  0  0  0  0
   58.5050   33.8140   47.5160 C   0  0  0  0  0  0  0  0  0  0  0  0
   58.3388   33.8036   48.6033 H   0  0  0  0  0  0  0  0  0  0  0  0
   59.3830   34.7440   46.9530 C   0  0  0  0  0  0  0  0  0  0  0  0
   59.9134   35.4602   47.5978 H   0  0  0  0  0  0  0  0  0  0  0  0
   59.5870   34.7640   45.5710 C   0  0  0  0  0  0  0  0  0  0  0  0
   60.2725   35.5015   45.1281 H   0  0  0  0  0  0  0  0  0  0  0  0
   58.9220   33.8490   44.7500 C   0  0  0  0  0  0  0  0  0  0  0  0
   59.0726   33.8791   43.6608 H   0  0  0  0  0  0  0  0  0  0  0  0
  1  2  1  0
  2  3  2  0
  3  4  1  0
  4  5  2  0
  4  6  1  0
  6  7  1  0
  6  8  1  0
  6  9  1  0
  3 10  1  0
 10 11  1  0
 10 12  1  0
 10 13  1  0
 13 14  1  0
 14 15  1  0
 14 16  1  0
 14 17  1  0
 17 18  1  0
 18 19  1  0
 19 20  1  0
 19 21  2  0
 21 22  1  0
 21 23  1  0
 23 24  1  0
  2 25  1  0
 25 26  2  0
 26 27  1  0
 26 28  1  0
 28 29  1  0
 28 30  2  0
 30 31  1  0
 30 32  1  0
 32 33  1  0
 32 34  2  0
 34 35  1  0
 23 17  2  0
 34 25  1  0
M  END
>  <UniqueID>  (33) 
31

>  <SMILES>  (33) 
CC(=O)/C(=C\c1ccccc1)COCc1ccco1

>  <Energy>  (33) 
71.26592094184797

>  <Genealogy>  (33) 
CC(=O)/C(=C\c1ccccc1)COCc1ccco1 (cis-trans isomerization)
CC(=O)/C(=C\c1ccccc1)COCc1ccco1 (3D coordinates assigned)
CC(=O)/C(=C\c1ccccc1)COCc1ccco1 (optimized conformer: 71.26592094184797 kcal/mol)

>  <smiles>  (33) 
CC(=O)C(=Cc1ccccc1)COCc1ccco1

>  <score_type>  (33) 
oracle

>  <origin>  (33) 
adg

>  <m_score__min__energy>  (33) 
-7.5499999999999998

>  <m_primary>  (33) 
energy

$$$$
33:0
     RDKit          3D

 46 49  0  0  0  0  0  0  0  0999 V2000
   54.6392   30.5074   43.7800 H   0  0  0  0  0  0  0  0  0  0  0  0
   55.5490   30.1200   44.2620 C   0  0  0  0  0  0  0  0  0  0  0  0
   55.5280   28.9120   44.8740 N   0  0  0  0  0  0  0  0  0  0  0  0
   56.6400   28.3710   45.4380 C   0  0  0  0  0  0  0  0  0  0  0  0
   56.5610   27.0940   46.0010 C   0  0  0  0  0  0  0  0  0  0  0  0
   55.5888   26.5825   46.0577 H   0  0  0  0  0  0  0  0  0  0  0  0
   57.7120   26.4580   46.4950 C   0  0  0  0  0  0  0  0  0  0  0  0
   57.6740   25.1820   47.0860 O   0  0  0  0  0  0  0  0  0  0  0  0
   57.4100   23.9540   46.4060 C   0  0  0  0  0  0  0  0  0  0  0  0
   56.3474   23.6964   46.5264 H   0  0  0  0  0  0  0  0  0  0  0  0
   58.0462   23.1678   46.8386 H   0  0  0  0  0  0  0  0  0  0  0  0
   57.7290   24.0780   44.9200 C   0  0  0  0  0  0  0  0  0  0  0  0
   58.7477   24.4740   44.7955 H   0  0  0  0  0  0  0  0  0  0  0  0
   57.6601   23.0876   44.4463 H   0  0  0  0  0  0  0  0  0  0  0  0
   57.0093   24.7619   44.4463 H   0  0  0  0  0  0  0  0  0  0  0  0
   58.9540   27.0920   46.3740 C   0  0  0  0  0  0  0  0  0  0  0  0
   60.0960   26.4100   46.8290 O   0  0  0  0  0  0  0  0  0  0  0  0
   60.8060   26.7270   48.0230 C   0  0  0  0  0  0  0  0  0  0  0  0
   60.1951   26.4543   48.8962 H   0  0  0  0  0  0  0  0  0  0  0  0
   61.7517   26.1656   48.0473 H   0  0  0  0  0  0  0  0  0  0  0  0
   61.0193   27.8058   48.0473 H   0  0  0  0  0  0  0  0  0  0  0  0
   59.0320   28.3760   45.8020 C   0  0  0  0  0  0  0  0  0  0  0  0
   60.0172   28.8433   45.6571 H   0  0  0  0  0  0  0  0  0  0  0  0
   57.8700   29.0750   45.4110 C   0  0  0  0  0  0  0  0  0  0  0  0
   57.8740   30.4070   44.8840 C   0  0  0  0  0  0  0  0  0  0  0  0
   58.8660   31.2550   44.9870 N   0  0  0  0  0  0  0  0  0  0  0  0
   58.9070   32.5430   45.6110 C   0  0  0  0  0  0  0  0  0  0  0  0
   58.9690   33.7130   44.8180 C   0  0  0  0  0  0  0  0  0  0  0  0
   58.8714   33.6337   43.7252 H   0  0  0  0  0  0  0  0  0  0  0  0
   59.1540   34.9780   45.4090 C   0  0  0  0  0  0  0  0  0  0  0  0
   59.1644   35.8798   44.7792 H   0  0  0  0  0  0  0  0  0  0  0  0
   59.3250   35.0940   46.7960 C   0  0  0  0  0  0  0  0  0  0  0  0
   59.4855   36.0744   47.2683 H   0  0  0  0  0  0  0  0  0  0  0  0
   59.2850   33.9280   47.5560 C   0  0  0  0  0  0  0  0  0  0  0  0
   59.4780   33.7550   48.9060 C   0  0  0  0  0  0  0  0  0  0  0  0
   59.6882   34.5537   49.6325 H   0  0  0  0  0  0  0  0  0  0  0  0
   59.3690   32.4730   49.1830 O   0  0  0  0  0  0  0  0  0  0  0  0
   59.1030   31.8030   48.0780 C   0  0  0  0  0  0  0  0  0  0  0  0
   58.8800   30.4210   48.0970 O   0  0  0  0  0  0  0  0  0  0  0  0
   59.1740   29.5680   49.1970 C   0  0  0  0  0  0  0  0  0  0  0  0
   58.9885   30.1063   50.1382 H   0  0  0  0  0  0  0  0  0  0  0  0
   58.5313   28.6764   49.1516 H   0  0  0  0  0  0  0  0  0  0  0  0
   60.2295   29.2618   49.1516 H   0  0  0  0  0  0  0  0  0  0  0  0
   59.0640   32.6890   47.0010 C   0  0  0  0  0  0  0  0  0  0  0  0
   56.7200   30.8720   44.2420 C   0  0  0  0  0  0  0  0  0  0  0  0
   56.7389   31.8389   43.7179 H   0  0  0  0  0  0  0  0  0  0  0  0
  1  2  1  0
  2  3  1  0
  3  4  1  0
  4  5  2  0
  5  6  1  0
  5  7  1  0
  7  8  1  0
  8  9  1  0
  9 10  1  0
  9 11  1  0
  9 12  1  0
 12 13  1  0
 12 14  1  0
 12 15  1  0
  7 16  2  0
 16 17  1  0
 17 18  1  0
 18 19  1  0
 18 20  1  0
 18 21  1  0
 16 22  1  0
 22 23  1  0
 22 24  2  0
 24 25  1  0
 25 26  2  0
 26 27  1  0
 27 28  2  0
 28 29  1  0
 28 30  1  0
 30 31  1  0
 30 32  2  0
 32 33  1  0
 32 34  1  0
 34 35  2  0
 35 36  1  0
 35 37  1  0
 37 38  1  0
 38 39  1  0
 39 40  1  0
 40 41  1  0
 40 42  1  0
 40 43  1  0
 38 44  2  0
 25 45  1  0
 45 46  1  0
 45  2  2  0
 24  4  1  0
 44 27  1  0
 44 34  1  0
M  CHG  1   3  -1
M  END
>  <UniqueID>  (34) 
32

>  <SMILES>  (34) 
CCOc1cc2[n-]cc/c(=N/c3cccc4coc(OC)c34)c2cc1OC

>  <Energy>  (34) 
112.04039883212896

>  <Genealogy>  (34) 
CCOc1cc2[n-]ccc(=Nc3cccc4coc(OC)c34)c2cc1OC (protonated)
CCOc1cc2[n-]cc/c(=N/c3cccc4coc(OC)c34)c2cc1OC (cis-trans isomerization)
CCOc1cc2[n-]cc/c(=N/c3cccc4coc(OC)c34)c2cc1OC (3D coordinates assigned)
CCOc1cc2[n-]cc/c(=N/c3cccc4coc(OC)c34)c2cc1OC (optimized conformer: 112.04039883212896 kcal/mol)

>  <smiles>  (34) 
CCOc1cc2[nH]ccc(=Nc3cccc4coc(OC)c34)c2cc1OC

>  <score_type>  (34) 
oracle

>  <origin>  (34) 
adg

>  <m_score__min__energy>  (34) 
-8.8800000000000008

>  <m_primary>  (34) 
energy

$$$$
34:0
     RDKit          3D

 56 57  0  0  0  0  0  0  0  0999 V2000
   59.6740   28.9230   48.7790 C   0  0  0  0  0  0  0  0  0  0  0  0
   60.1670   27.6800   48.0450 C   0  0  0  0  0  0  0  0  0  0  0  0
   59.3670   27.4380   46.7600 C   0  0  0  0  0  0  0  0  0  0  0  0
   58.1420   28.3660   46.6990 C   0  0  0  0  0  0  0  0  0  0  0  0
   57.1830   28.0370   45.6170 N   0  0  0  0  0  0  0  0  0  0  0  0
   57.0480   26.5900   45.3220 C   0  0  0  0  0  0  0  0  0  0  0  0
   55.9370   25.9090   46.0800 C   0  0  0  0  0  0  0  0  0  0  0  0
   54.7550   26.3350   45.9920 O   0  0  0  0  0  0  0  0  0  0  0  0
   56.2310   24.7400   46.8560 N   0  0  0  0  0  0  0  0  0  0  0  0
   56.0390   23.3770   46.4430 C   0  0  0  0  0  0  0  0  0  0  0  0
   54.8870   22.6600   46.8280 C   0  0  0  0  0  0  0  0  0  0  0  0
   54.7160   21.3310   46.4360 C   0  0  0  0  0  0  0  0  0  0  0  0
   55.6950   20.6980   45.6680 C   0  0  0  0  0  0  0  0  0  0  0  0
   56.8590   21.3840   45.3040 C   0  0  0  0  0  0  0  0  0  0  0  0
   57.0520   22.7240   45.6960 C   0  0  0  0  0  0  0  0  0  0  0  0
   58.3240   23.4600   45.3220 C   0  0  0  0  0  0  0  0  0  0  0  0
   59.3600   22.5870   45.0350 F   0  0  0  0  0  0  0  0  0  0  0  0
   58.7170   24.2690   46.3740 F   0  0  0  0  0  0  0  0  0  0  0  0
   58.0930   24.2460   44.2020 F   0  0  0  0  0  0  0  0  0  0  0  0
   57.2270   28.9300   44.4380 C   0  0  0  0  0  0  0  0  0  0  0  0
   57.3580   30.3650   44.8570 C   0  0  0  0  0  0  0  0  0  0  0  0
   56.3420   31.1170   44.8270 O   0  0  0  0  0  0  0  0  0  0  0  0
   58.6220   30.8690   45.3130 N   0  0  0  0  0  0  0  0  0  0  0  0
   58.8690   32.2680   45.5230 C   0  0  0  0  0  0  0  0  0  0  0  0
   58.1920   33.2060   44.7270 C   0  0  0  0  0  0  0  0  0  0  0  0
   58.4150   34.5730   44.9020 C   0  0  0  0  0  0  0  0  0  0  0  0
   59.3030   35.0170   45.8840 C   0  0  0  0  0  0  0  0  0  0  0  0
   59.9640   34.0940   46.7020 C   0  0  0  0  0  0  0  0  0  0  0  0
   59.7430   32.7110   46.5400 C   0  0  0  0  0  0  0  0  0  0  0  0
   60.3510   31.7610   47.3780 O   0  0  0  0  0  0  0  0  0  0  0  0
   61.7580   31.5770   47.5120 C   0  0  0  0  0  0  0  0  0  0  0  0
   59.7395   28.7579   49.8646 H   0  0  0  0  0  0  0  0  0  0  0  0
   60.2984   29.7849   48.5009 H   0  0  0  0  0  0  0  0  0  0  0  0
   58.6286   29.1226   48.5009 H   0  0  0  0  0  0  0  0  0  0  0  0
   61.2279   27.8135   47.7868 H   0  0  0  0  0  0  0  0  0  0  0  0
   60.0337   26.8108   48.7059 H   0  0  0  0  0  0  0  0  0  0  0  0
   60.0121   27.6340   45.8908 H   0  0  0  0  0  0  0  0  0  0  0  0
   59.0205   26.3940   46.7506 H   0  0  0  0  0  0  0  0  0  0  0  0
   57.6122   28.3014   47.6608 H   0  0  0  0  0  0  0  0  0  0  0  0
   58.5215   29.3767   46.4882 H   0  0  0  0  0  0  0  0  0  0  0  0
   56.8539   26.4734   44.2455 H   0  0  0  0  0  0  0  0  0  0  0  0
   57.9872   26.1125   45.6382 H   0  0  0  0  0  0  0  0  0  0  0  0
   54.1177   23.1515   47.4416 H   0  0  0  0  0  0  0  0  0  0  0  0
   53.8097   20.7825   46.7323 H   0  0  0  0  0  0  0  0  0  0  0  0
   55.5507   19.6556   45.3477 H   0  0  0  0  0  0  0  0  0  0  0  0
   57.6293   20.8735   44.7073 H   0  0  0  0  0  0  0  0  0  0  0  0
   58.0895   28.6575   43.8120 H   0  0  0  0  0  0  0  0  0  0  0  0
   56.2901   28.8130   43.8737 H   0  0  0  0  0  0  0  0  0  0  0  0
   59.3290   30.1850   45.6660 H   0  0  0  0  0  0  0  0  0  0  0  0
   57.4817   32.8616   43.9609 H   0  0  0  0  0  0  0  0  0  0  0  0
   57.8907   35.3011   44.2657 H   0  0  0  0  0  0  0  0  0  0  0  0
   59.4832   36.0942   46.0147 H   0  0  0  0  0  0  0  0  0  0  0  0
   60.6601   34.4495   47.4760 H   0  0  0  0  0  0  0  0  0  0  0  0
   62.0233   31.5423   48.5790 H   0  0  0  0  0  0  0  0  0  0  0  0
   62.0518   30.6328   47.0302 H   0  0  0  0  0  0  0  0  0  0  0  0
   62.2848   32.4139   47.0302 H   0  0  0  0  0  0  0  0  0  0  0  0
  1  2  1  0
  2  3  1  0
  3  4  1  0
  4  5  1  0
  5  6  1  0
  6  7  1  0
  7  8  2  0
  7  9  1  0
  9 10  1  0
 10 11  2  0
 11 12  1  0
 12 13  2  0
 13 14  1  0
 14 15  2  0
 15 16  1  0
 16 17  1  0
 16 18  1  0
 16 19  1  0
  5 20  1  0
 20 21  1  0
 21 22  2  0
 21 23  1  0
 23 24  1  0
 24 25  2  0
 25 26  1  0
 26 27  2  0
 27 28  1  0
 28 29  2  0
 29 30  1  0
 30 31  1  0
 15 10  1  0
 29 24  1  0
  1 32  1  0
  1 33  1  0
  1 34  1  0
  2 35  1  0
  2 36  1  0
  3 37  1  0
  3 38  1  0
  4 39  1  0
  4 40  1  0
  6 41  1  0
  6 42  1  0
 11 43  1  0
 12 44  1  0
 13 45  1  0
 14 46  1  0
 20 47  1  0
 20 48  1  0
 23 49  1  0
 25 50  1  0
 26 51  1  0
 27 52  1  0
 28 53  1  0
 31 54  1  0
 31 55  1  0
 31 56  1  0
M  CHG  1   9  -1
M  END
>  <UniqueID>  (35) 
33

>  <SMILES>  (35) 
CCCCN(CC(=O)[N-]c1ccccc1C(F)(F)F)CC(=O)Nc1ccccc1OC

>  <Energy>  (35) 
66.24077831214129

>  <Genealogy>  (35) 
CCCCN(CC(=O)[N-]c1ccccc1C(F)(F)F)CC(=O)Nc1ccccc1OC (protonated)
CCCCN(CC(=O)[N-]c1ccccc1C(F)(F)F)CC(=O)Nc1ccccc1OC (3D coordinates assigned)
CCCCN(CC(=O)[N-]c1ccccc1C(F)(F)F)CC(=O)Nc1ccccc1OC (optimized conformer: 66.24077831214129 kcal/mol)

>  <smiles>  (35) 
CCCCN(CC(=O)Nc1ccccc1OC)CC(=O)Nc1ccccc1C(F)(F)F

>  <score_type>  (35) 
oracle

>  <origin>  (35) 
adg

>  <m_score__min__energy>  (35) 
-9.3300000000000001

>  <m_primary>  (35) 
energy

$$$$
35:0
     RDKit          3D

 24 25  0  0  0  0  0  0  0  0999 V2000
   58.1900   27.7700   44.1780 C   0  0  0  0  0  0  0  0  0  0  0  0
   58.3120   28.4260   45.5480 C   0  0  0  0  0  0  0  0  0  0  0  0
   57.1540   29.2060   45.8380 O   0  0  0  0  0  0  0  0  0  0  0  0
   56.3330   29.7660   44.8530 C   0  0  0  0  0  0  0  0  0  0  0  0
   55.1470   29.3610   44.7070 O   0  0  0  0  0  0  0  0  0  0  0  0
   56.8650   30.8000   43.9450 C   0  0  0  0  0  0  0  0  0  0  0  0
   56.6660   30.7400   42.5540 C   0  0  0  0  0  0  0  0  0  0  0  0
   57.3200   31.7410   41.8460 C   0  0  0  0  0  0  0  0  0  0  0  0
   58.1400   32.7160   42.9400 S   0  0  0  0  0  0  0  0  0  0  0  0
   57.6760   31.8770   44.3230 C   0  0  0  0  0  0  0  0  0  0  0  0
   57.9770   32.3080   45.6590 N   0  0  0  0  0  0  0  0  0  0  0  0
   58.8740   31.7570   46.4930 C   0  0  0  0  0  0  0  0  0  0  0  0
   58.9660   32.4560   47.6410 N   0  0  0  0  0  0  0  0  0  0  0  0
   58.0840   33.4610   47.4420 C   0  0  0  0  0  0  0  0  0  0  0  0
   57.4860   33.3880   46.2380 N   0  0  0  0  0  0  0  0  0  0  0  0
   57.9902   26.6955   44.3025 H   0  0  0  0  0  0  0  0  0  0  0  0
   57.3629   28.2347   43.6213 H   0  0  0  0  0  0  0  0  0  0  0  0
   59.1289   27.9063   43.6213 H   0  0  0  0  0  0  0  0  0  0  0  0
   58.4221   27.6444   46.3141 H   0  0  0  0  0  0  0  0  0  0  0  0
   59.1920   29.0860   45.5471 H   0  0  0  0  0  0  0  0  0  0  0  0
   56.0479   29.9696   42.0698 H   0  0  0  0  0  0  0  0  0  0  0  0
   57.3034   31.8724   40.7540 H   0  0  0  0  0  0  0  0  0  0  0  0
   59.4578   30.8523   46.2679 H   0  0  0  0  0  0  0  0  0  0  0  0
   57.8781   34.2496   48.1807 H   0  0  0  0  0  0  0  0  0  0  0  0
  1  2  1  0
  2  3  1  0
  3  4  1  0
  4  5  2  0
  4  6  1  0
  6  7  1  0
  7  8  2  0
  8  9  1  0
  9 10  1  0
 10 11  1  0
 11 12  1  0
 12 13  2  0
 13 14  1  0
 14 15  2  0
 10  6  2  0
 15 11  1  0
  1 16  1  0
  1 17  1  0
  1 18  1  0
  2 19  1  0
  2 20  1  0
  7 21  1  0
  8 22  1  0
 12 23  1  0
 14 24  1  0
M  END
>  <UniqueID>  (36) 
34

>  <SMILES>  (36) 
CCOC(=O)c1ccsc1-n1cncn1

>  <Energy>  (36) 
83.98085314550421

>  <Genealogy>  (36) 
CCOC(=O)c1ccsc1-n1cncn1 (3D coordinates assigned)
CCOC(=O)c1ccsc1-n1cncn1 (optimized conformer: 83.98085314550421 kcal/mol)

>  <smiles>  (36) 
CCOC(=O)c1ccsc1-n1cncn1

>  <score_type>  (36) 
oracle

>  <origin>  (36) 
adg

>  <m_score__min__energy>  (36) 
-5.1600000000000001

>  <m_primary>  (36) 
energy

$$$$
36:0
     RDKit          3D

 54 56  0  0  0  0  0  0  0  0999 V2000
   52.6340   23.1730   45.9470 C   0  0  0  0  0  0  0  0  0  0  0  0
   53.3720   24.1360   45.0230 C   0  0  0  0  0  0  0  0  0  0  0  0
   54.8340   23.8050   44.9720 C   0  0  0  0  0  0  0  0  0  0  0  0
   55.3350   22.6410   44.4880 N   0  0  0  0  0  0  0  0  0  0  0  0
   56.6620   22.6920   44.5190 N   0  0  0  0  0  0  0  0  0  0  0  0
   57.5470   21.6600   43.9940 C   0  0  0  0  0  0  0  0  0  0  0  0
   57.0140   23.8980   44.9940 C   0  0  0  0  0  0  0  0  0  0  0  0
   58.2710   24.3820   45.1460 N   0  0  0  0  0  0  0  0  0  0  0  0
   58.4370   25.6480   45.6340 C   0  0  0  0  0  0  0  0  0  0  0  0
   57.3140   26.4520   45.9750 C   0  0  0  0  0  0  0  0  0  0  0  0
   57.5180   27.8380   46.5370 C   0  0  0  0  0  0  0  0  0  0  0  0
   58.3080   28.6690   45.6160 N   0  0  0  0  0  0  0  0  0  0  0  0
   57.6530   29.2730   44.4450 C   0  0  0  0  0  0  0  0  0  0  0  0
   58.2490   30.6530   44.1180 C   0  0  0  0  0  0  0  0  0  0  0  0
   57.3100   31.8230   44.4540 C   0  0  0  0  0  0  0  0  0  0  0  0
   58.0070   32.9110   45.2360 C   0  0  0  0  0  0  0  0  0  0  0  0
   58.0040   32.8940   46.6410 C   0  0  0  0  0  0  0  0  0  0  0  0
   58.6330   33.9150   47.3600 C   0  0  0  0  0  0  0  0  0  0  0  0
   59.2840   34.9500   46.6820 C   0  0  0  0  0  0  0  0  0  0  0  0
   59.3120   34.9640   45.2850 C   0  0  0  0  0  0  0  0  0  0  0  0
   58.6800   33.9460   44.5640 C   0  0  0  0  0  0  0  0  0  0  0  0
   59.7240   28.8360   45.8250 C   0  0  0  0  0  0  0  0  0  0  0  0
   60.5460   28.2980   45.0330 O   0  0  0  0  0  0  0  0  0  0  0  0
   60.1880   29.5780   46.9150 O   0  0  0  0  0  0  0  0  0  0  0  0
   59.3230   30.0880   47.9220 C   0  0  0  0  0  0  0  0  0  0  0  0
   56.0120   25.9290   45.7890 C   0  0  0  0  0  0  0  0  0  0  0  0
   54.8810   26.6810   46.0860 O   0  0  0  0  0  0  0  0  0  0  0  0
   55.9030   24.6300   45.2950 C   0  0  0  0  0  0  0  0  0  0  0  0
   52.8388   23.4402   46.9942 H   0  0  0  0  0  0  0  0  0  0  0  0
   51.5526   23.2384   45.7566 H   0  0  0  0  0  0  0  0  0  0  0  0
   52.9783   22.1458   45.7566 H   0  0  0  0  0  0  0  0  0  0  0  0
   52.9490   24.0606   44.0104 H   0  0  0  0  0  0  0  0  0  0  0  0
   53.2539   25.1587   45.4103 H   0  0  0  0  0  0  0  0  0  0  0  0
   54.7790   21.8360   44.1210 H   0  0  0  0  0  0  0  0  0  0  0  0
   58.0129   21.1168   44.8294 H   0  0  0  0  0  0  0  0  0  0  0  0
   56.9663   20.9575   43.3782 H   0  0  0  0  0  0  0  0  0  0  0  0
   58.3298   22.1268   43.3782 H   0  0  0  0  0  0  0  0  0  0  0  0
   59.4524   26.0504   45.7648 H   0  0  0  0  0  0  0  0  0  0  0  0
   56.5371   28.3098   46.6958 H   0  0  0  0  0  0  0  0  0  0  0  0
   58.0635   27.7536   47.4885 H   0  0  0  0  0  0  0  0  0  0  0  0
   57.7883   28.6101   43.5777 H   0  0  0  0  0  0  0  0  0  0  0  0
   56.5850   29.4027   44.6743 H   0  0  0  0  0  0  0  0  0  0  0  0
   59.1781   30.7761   44.6938 H   0  0  0  0  0  0  0  0  0  0  0  0
   58.4236   30.6804   43.0323 H   0  0  0  0  0  0  0  0  0  0  0  0
   56.9284   32.2511   43.5153 H   0  0  0  0  0  0  0  0  0  0  0  0
   56.4934   31.4306   45.0778 H   0  0  0  0  0  0  0  0  0  0  0  0
   57.5046   32.0739   47.1776 H   0  0  0  0  0  0  0  0  0  0  0  0
   58.6156   33.9039   48.4598 H   0  0  0  0  0  0  0  0  0  0  0  0
   59.7749   35.7546   47.2492 H   0  0  0  0  0  0  0  0  0  0  0  0
   59.8307   35.7751   44.7529 H   0  0  0  0  0  0  0  0  0  0  0  0
   58.7097   33.9553   43.4644 H   0  0  0  0  0  0  0  0  0  0  0  0
   59.7326   29.8465   48.9139 H   0  0  0  0  0  0  0  0  0  0  0  0
   59.2398   31.1797   47.8155 H   0  0  0  0  0  0  0  0  0  0  0  0
   58.3275   29.6323   47.8155 H   0  0  0  0  0  0  0  0  0  0  0  0
  1  2  1  0
  2  3  1  0
  3  4  2  0
  4  5  1  0
  5  6  1  0
  5  7  1  0
  7  8  2  0
  8  9  1  0
  9 10  2  0
 10 11  1  0
 11 12  1  0
 12 13  1  0
 13 14  1  0
 14 15  1  0
 15 16  1  0
 16 17  2  0
 17 18  1  0
 18 19  2  0
 19 20  1  0
 20 21  2  0
 12 22  1  0
 22 23  2  0
 22 24  1  0
 24 25  1  0
 10 26  1  0
 26 27  1  0
 26 28  2  0
 28  3  1  0
 28  7  1  0
 21 16  1  0
  1 29  1  0
  1 30  1  0
  1 31  1  0
  2 32  1  0
  2 33  1  0
  4 34  1  0
  6 35  1  0
  6 36  1  0
  6 37  1  0
  9 38  1  0
 11 39  1  0
 11 40  1  0
 13 41  1  0
 13 42  1  0
 14 43  1  0
 14 44  1  0
 15 45  1  0
 15 46  1  0
 17 47  1  0
 18 48  1  0
 19 49  1  0
 20 50  1  0
 21 51  1  0
 25 52  1  0
 25 53  1  0
 25 54  1  0
M  CHG  2   4   1  27  -1
M  END
>  <UniqueID>  (37) 
35

>  <SMILES>  (37) 
CCc1[nH+]n(C)c2ncc(CN(CCCc3ccccc3)C(=O)OC)c([O-])c12

>  <Energy>  (37) 
85.57452025848319

>  <Genealogy>  (37) 
CCc1[nH+]n(C)c2ncc(CN(CCCc3ccccc3)C(=O)OC)c([O-])c12 (protonated)
CCc1[nH+]n(C)c2ncc(CN(CCCc3ccccc3)C(=O)OC)c([O-])c12 (3D coordinates assigned)
CCc1[nH+]n(C)c2ncc(CN(CCCc3ccccc3)C(=O)OC)c([O-])c12 (optimized conformer: 85.57452025848319 kcal/mol)

>  <smiles>  (37) 
CCc1nn(C)c2ncc(CN(CCCc3ccccc3)C(=O)OC)c(O)c12

>  <score_type>  (37) 
oracle

>  <origin>  (37) 
adg

>  <m_score__min__energy>  (37) 
-10.84

>  <m_primary>  (37) 
energy

$$$$
37:0
     RDKit          3D

 41 43  0  0  0  0  0  0  0  0999 V2000
   59.7560   29.2530   48.0250 C   0  0  0  0  0  0  0  0  0  0  0  0
   59.6750   30.3220   46.9200 C   0  0  0  0  0  0  0  0  0  0  0  0
   58.8090   31.4970   47.2250 N   0  0  2  0  0  0  0  0  0  0  0  0
   58.0850   32.0160   46.0950 C   0  0  0  0  0  0  0  0  0  0  0  0
   57.5150   31.2760   45.2460 O   0  0  0  0  0  0  0  0  0  0  0  0
   57.9180   33.4160   46.1020 N   0  0  0  0  0  0  0  0  0  0  0  0
   57.5220   34.2280   44.9570 C   0  0  0  0  0  0  0  0  0  0  0  0
   58.7150   33.8560   47.1830 C   0  0  0  0  0  0  0  0  0  0  0  0
   58.8930   35.0820   47.4240 O   0  0  0  0  0  0  0  0  0  0  0  0
   59.4460   32.7110   47.8730 C   0  0  0  0  0  0  0  0  0  0  0  0
   60.9710   32.8320   47.6070 C   0  0  0  0  0  0  0  0  0  0  0  0
   61.4620   33.7110   46.6120 C   0  0  0  0  0  0  0  0  0  0  0  0
   62.8320   33.8290   46.3660 C   0  0  0  0  0  0  0  0  0  0  0  0
   63.7450   33.0790   47.1050 C   0  0  0  0  0  0  0  0  0  0  0  0
   63.2900   32.2130   48.0980 C   0  0  0  0  0  0  0  0  0  0  0  0
   61.9220   32.0890   48.3510 C   0  0  0  0  0  0  0  0  0  0  0  0
   59.1910   32.7610   49.4040 C   0  0  0  0  0  0  0  0  0  0  0  0
   58.2440   31.8950   50.0030 C   0  0  0  0  0  0  0  0  0  0  0  0
   57.9630   31.9630   51.3710 C   0  0  0  0  0  0  0  0  0  0  0  0
   58.5800   32.9260   52.1650 C   0  0  0  0  0  0  0  0  0  0  0  0
   59.4560   33.8440   51.5880 C   0  0  0  0  0  0  0  0  0  0  0  0
   59.7410   33.7810   50.2220 C   0  0  0  0  0  0  0  0  0  0  0  0
   59.7191   29.7406   49.0103 H   0  0  0  0  0  0  0  0  0  0  0  0
   58.9078   28.5594   47.9271 H   0  0  0  0  0  0  0  0  0  0  0  0
   60.6990   28.6952   47.9271 H   0  0  0  0  0  0  0  0  0  0  0  0
   60.6936   30.6918   46.7311 H   0  0  0  0  0  0  0  0  0  0  0  0
   59.2153   29.8253   46.0528 H   0  0  0  0  0  0  0  0  0  0  0  0
   58.0320   31.1480   47.8300 H   0  0  0  0  0  0  0  0  0  0  0  0
   57.0656   35.1639   45.3115 H   0  0  0  0  0  0  0  0  0  0  0  0
   58.4081   34.4599   44.3479 H   0  0  0  0  0  0  0  0  0  0  0  0
   56.7936   33.6726   44.3479 H   0  0  0  0  0  0  0  0  0  0  0  0
   60.7530   34.3111   46.0227 H   0  0  0  0  0  0  0  0  0  0  0  0
   63.1915   34.5164   45.5861 H   0  0  0  0  0  0  0  0  0  0  0  0
   64.8228   33.1702   46.9050 H   0  0  0  0  0  0  0  0  0  0  0  0
   64.0111   31.6250   48.6847 H   0  0  0  0  0  0  0  0  0  0  0  0
   61.5771   31.4042   49.1398 H   0  0  0  0  0  0  0  0  0  0  0  0
   57.7197   31.1550   49.3804 H   0  0  0  0  0  0  0  0  0  0  0  0
   57.2527   31.2539   51.8211 H   0  0  0  0  0  0  0  0  0  0  0  0
   58.3766   32.9623   53.2454 H   0  0  0  0  0  0  0  0  0  0  0  0
   59.9244   34.6206   52.2105 H   0  0  0  0  0  0  0  0  0  0  0  0
   60.4035   34.5355   49.7728 H   0  0  0  0  0  0  0  0  0  0  0  0
  1  2  1  0
  2  3  1  0
  3  4  1  0
  4  5  2  0
  4  6  1  0
  6  7  1  0
  6  8  1  0
  8  9  2  0
  8 10  1  0
 10 11  1  0
 11 12  2  0
 12 13  1  0
 13 14  2  0
 14 15  1  0
 15 16  2  0
 10 17  1  0
 17 18  2  0
 18 19  1  0
 19 20  2  0
 20 21  1  0
 21 22  2  0
 10  3  1  0
 16 11  1  0
 22 17  1  0
  1 23  1  0
  1 24  1  0
  1 25  1  0
  2 26  1  0
  2 27  1  0
  3 28  1  1
  7 29  1  0
  7 30  1  0
  7 31  1  0
 12 32  1  0
 13 33  1  0
 14 34  1  0
 15 35  1  0
 16 36  1  0
 18 37  1  0
 19 38  1  0
 20 39  1  0
 21 40  1  0
 22 41  1  0
M  CHG  1   3   1
M  END
>  <UniqueID>  (38) 
36

>  <SMILES>  (38) 
CC[N@@H+]1C(=O)N(C)C(=O)C1(c1ccccc1)c1ccccc1

>  <Energy>  (38) 
84.06008176007897

>  <Genealogy>  (38) 
CC[NH+]1C(=O)N(C)C(=O)C1(c1ccccc1)c1ccccc1 (protonated)
CC[N@@H+]1C(=O)N(C)C(=O)C1(c1ccccc1)c1ccccc1 (chirality)
CC[N@@H+]1C(=O)N(C)C(=O)C1(c1ccccc1)c1ccccc1 (3D coordinates assigned)
CC[N@@H+]1C(=O)N(C)C(=O)C1(c1ccccc1)c1ccccc1 (nonaromatic ring conformer: 84.06008176007897 kcal/mol)

>  <smiles>  (38) 
CCN1C(=O)N(C)C(=O)C1(c1ccccc1)c1ccccc1

>  <score_type>  (38) 
oracle

>  <origin>  (38) 
adg

>  <m_score__min__energy>  (38) 
-5.9199999999999999

>  <m_primary>  (38) 
energy

$$$$
38:0
     RDKit          3D

 43 45  0  0  0  0  0  0  0  0999 V2000
   59.7840   33.8390   50.1970 C   0  0  0  0  0  0  0  0  0  0  0  0
   59.8610   34.5670   48.9760 O   0  0  0  0  0  0  0  0  0  0  0  0
   59.3430   34.1170   47.7530 C   0  0  0  0  0  0  0  0  0  0  0  0
   58.5550   32.9560   47.6480 C   0  0  0  0  0  0  0  0  0  0  0  0
   58.0610   32.5490   46.4030 C   0  0  0  0  0  0  0  0  0  0  0  0
   58.3510   33.2920   45.2490 C   0  0  0  0  0  0  0  0  0  0  0  0
   57.8070   32.8730   43.9100 C   0  0  0  0  0  0  0  0  0  0  0  0
   58.1600   31.4830   43.6340 N   0  0  0  0  0  0  0  0  0  0  0  0
   57.3260   30.3840   44.0310 C   0  0  0  0  0  0  0  0  0  0  0  0
   56.1720   30.5990   44.4890 O   0  0  0  0  0  0  0  0  0  0  0  0
   57.7750   28.9910   43.8560 C   0  0  0  0  0  0  0  0  0  0  0  0
   57.3850   28.2280   42.8160 N   0  0  0  0  0  0  0  0  0  0  0  0
   58.0850   27.0860   42.9780 C   0  0  0  0  0  0  0  0  0  0  0  0
   58.8570   27.1140   44.0400 O   0  0  0  0  0  0  0  0  0  0  0  0
   58.6830   28.2750   44.6220 C   0  0  0  0  0  0  0  0  0  0  0  0
   59.3410   28.6550   45.8880 C   0  0  0  0  0  0  0  0  0  0  0  0
   59.0600   27.9360   47.0580 C   0  0  0  0  0  0  0  0  0  0  0  0
   59.6580   28.2930   48.2710 C   0  0  0  0  0  0  0  0  0  0  0  0
   60.5370   29.3910   48.3320 C   0  0  0  0  0  0  0  0  0  0  0  0
   61.1650   29.7870   49.5230 O   0  0  0  0  0  0  0  0  0  0  0  0
   61.8770   31.0100   49.6870 C   0  0  0  0  0  0  0  0  0  0  0  0
   60.7970   30.1210   47.1680 C   0  0  0  0  0  0  0  0  0  0  0  0
   60.1980   29.7650   45.9560 C   0  0  0  0  0  0  0  0  0  0  0  0
   59.1340   34.4510   45.3560 C   0  0  0  0  0  0  0  0  0  0  0  0
   59.6260   34.8580   46.5980 C   0  0  0  0  0  0  0  0  0  0  0  0
   59.8577   34.5360   51.0448 H   0  0  0  0  0  0  0  0  0  0  0  0
   58.8242   33.3037   50.2448 H   0  0  0  0  0  0  0  0  0  0  0  0
   60.6106   33.1148   50.2448 H   0  0  0  0  0  0  0  0  0  0  0  0
   58.3263   32.3659   48.5477 H   0  0  0  0  0  0  0  0  0  0  0  0
   57.4425   31.6423   46.3293 H   0  0  0  0  0  0  0  0  0  0  0  0
   56.7118   32.9756   43.9147 H   0  0  0  0  0  0  0  0  0  0  0  0
   58.2414   33.5151   43.1296 H   0  0  0  0  0  0  0  0  0  0  0  0
   59.0350   31.2960   43.0940 H   0  0  0  0  0  0  0  0  0  0  0  0
   58.0166   26.2260   42.2955 H   0  0  0  0  0  0  0  0  0  0  0  0
   58.3641   27.0848   47.0220 H   0  0  0  0  0  0  0  0  0  0  0  0
   59.4407   27.7138   49.1805 H   0  0  0  0  0  0  0  0  0  0  0  0
   62.0002   31.2216   50.7594 H   0  0  0  0  0  0  0  0  0  0  0  0
   62.8665   30.9245   49.2141 H   0  0  0  0  0  0  0  0  0  0  0  0
   61.3141   31.8282   49.2141 H   0  0  0  0  0  0  0  0  0  0  0  0
   61.4790   30.9832   47.2063 H   0  0  0  0  0  0  0  0  0  0  0  0
   60.3991   30.3574   45.0513 H   0  0  0  0  0  0  0  0  0  0  0  0
   59.3617   35.0424   44.4569 H   0  0  0  0  0  0  0  0  0  0  0  0
   60.2405   35.7675   46.6701 H   0  0  0  0  0  0  0  0  0  0  0  0
  1  2  1  0
  2  3  1  0
  3  4  2  0
  4  5  1  0
  5  6  2  0
  6  7  1  0
  7  8  1  0
  8  9  1  0
  9 10  2  0
  9 11  1  0
 11 12  1  0
 12 13  2  0
 13 14  1  0
 14 15  1  0
 15 16  1  0
 16 17  2  0
 17 18  1  0
 18 19  2  0
 19 20  1  0
 20 21  1  0
 19 22  1  0
 22 23  2  0
  6 24  1  0
 24 25  2  0
 25  3  1  0
 15 11  2  0
 23 16  1  0
  1 26  1  0
  1 27  1  0
  1 28  1  0
  4 29  1  0
  5 30  1  0
  7 31  1  0
  7 32  1  0
  8 33  1  0
 13 34  1  0
 17 35  1  0
 18 36  1  0
 21 37  1  0
 21 38  1  0
 21 39  1  0
 22 40  1  0
 23 41  1  0
 24 42  1  0
 25 43  1  0
M  END
>  <UniqueID>  (39) 
37

>  <SMILES>  (39) 
COc1ccc(CNC(=O)c2ncoc2-c2ccc(OC)cc2)cc1

>  <Energy>  (39) 
77.24632624529843

>  <Genealogy>  (39) 
COc1ccc(CNC(=O)c2ncoc2-c2ccc(OC)cc2)cc1 (3D coordinates assigned)
COc1ccc(CNC(=O)c2ncoc2-c2ccc(OC)cc2)cc1 (optimized conformer: 77.24632624529843 kcal/mol)

>  <smiles>  (39) 
COc1ccc(CNC(=O)c2ncoc2-c2ccc(OC)cc2)cc1

>  <score_type>  (39) 
oracle

>  <origin>  (39) 
adg

>  <m_score__min__energy>  (39) 
-7.2400000000000002

>  <m_primary>  (39) 
energy

$$$$
39:0
     RDKit          3D

 44 45  0  0  0  0  0  0  0  0999 V2000
   63.2410   33.6250   46.7470 C   0  0  0  0  0  0  0  0  0  0  0  0
   63.1310   32.3950   47.6440 C   0  0  0  0  0  0  0  0  0  0  0  0
   62.1080   31.3650   47.1340 C   0  0  0  0  0  0  0  0  0  0  0  0
   60.7900   31.3480   47.9360 C   0  0  0  0  0  0  0  0  0  0  0  0
   59.5520   31.3270   47.0260 C   0  0  0  0  0  0  0  0  0  0  0  0
   59.2550   32.7020   46.4870 C   0  0  0  0  0  0  0  0  0  0  0  0
   59.6820   33.8640   47.1540 C   0  0  0  0  0  0  0  0  0  0  0  0
   59.3590   35.0430   46.4980 C   0  0  0  0  0  0  0  0  0  0  0  0
   58.5560   34.6470   45.0800 S   0  0  0  0  0  0  0  0  0  0  0  0
   58.5900   32.9740   45.2830 C   0  0  0  0  0  0  0  0  0  0  0  0
   58.0700   31.9720   44.2710 C   0  0  2  0  0  0  0  0  0  0  0  0
   58.0860   32.5880   42.8720 C   0  0  0  0  0  0  0  0  0  0  0  0
   56.7010   31.5320   44.5860 N   0  0  0  0  0  0  0  0  0  0  0  0
   56.4660   29.8270   44.3040 S   0  0  0  0  0  0  0  0  0  0  0  0
   55.1590   29.3410   44.8660 O   0  0  0  0  0  0  0  0  0  0  0  0
   56.4750   29.5780   42.8220 O   0  0  0  0  0  0  0  0  0  0  0  0
   57.7820   28.9240   45.0370 C   0  0  0  0  0  0  0  0  0  0  0  0
   59.0560   28.9220   44.4580 C   0  0  0  0  0  0  0  0  0  0  0  0
   60.0840   28.2000   45.0680 C   0  0  0  0  0  0  0  0  0  0  0  0
   59.8310   27.4900   46.2440 C   0  0  0  0  0  0  0  0  0  0  0  0
   58.5480   27.5150   46.7940 C   0  0  0  0  0  0  0  0  0  0  0  0
   57.5600   28.2250   46.1840 N   0  0  0  0  0  0  0  0  0  0  0  0
   63.3217   34.5276   47.3706 H   0  0  0  0  0  0  0  0  0  0  0  0
   64.1349   33.5369   46.1120 H   0  0  0  0  0  0  0  0  0  0  0  0
   62.3457   33.6970   46.1120 H   0  0  0  0  0  0  0  0  0  0  0  0
   64.1176   31.9115   47.6975 H   0  0  0  0  0  0  0  0  0  0  0  0
   62.7864   32.7385   48.6305 H   0  0  0  0  0  0  0  0  0  0  0  0
   61.8730   31.5993   46.0853 H   0  0  0  0  0  0  0  0  0  0  0  0
   62.5671   30.3722   47.2504 H   0  0  0  0  0  0  0  0  0  0  0  0
   60.7755   30.4515   48.5732 H   0  0  0  0  0  0  0  0  0  0  0  0
   60.7501   32.2690   48.5361 H   0  0  0  0  0  0  0  0  0  0  0  0
   59.7356   30.6427   46.1846 H   0  0  0  0  0  0  0  0  0  0  0  0
   58.6883   30.9881   47.6169 H   0  0  0  0  0  0  0  0  0  0  0  0
   60.2240   33.8403   48.1109 H   0  0  0  0  0  0  0  0  0  0  0  0
   59.5895   36.0603   46.8472 H   0  0  0  0  0  0  0  0  0  0  0  0
   58.7317   31.0941   44.3096 H   0  0  0  0  0  0  0  0  0  0  0  0
   58.1145   33.6845   42.9545 H   0  0  0  0  0  0  0  0  0  0  0  0
   58.9754   32.2380   42.3274 H   0  0  0  0  0  0  0  0  0  0  0  0
   57.1797   32.2847   42.3274 H   0  0  0  0  0  0  0  0  0  0  0  0
   56.4690   31.7390   45.5840 H   0  0  0  0  0  0  0  0  0  0  0  0
   59.2458   29.4837   43.5314 H   0  0  0  0  0  0  0  0  0  0  0  0
   61.0902   28.1904   44.6236 H   0  0  0  0  0  0  0  0  0  0  0  0
   60.6338   26.9174   46.7314 H   0  0  0  0  0  0  0  0  0  0  0  0
   58.3357   26.9609   47.7202 H   0  0  0  0  0  0  0  0  0  0  0  0
  1  2  1  0
  2  3  1  0
  3  4  1  0
  4  5  1  0
  5  6  1  0
  6  7  1  0
  7  8  2  0
  8  9  1  0
  9 10  1  0
 10 11  1  0
 11 12  1  0
 11 13  1  0
 13 14  1  0
 14 15  2  0
 14 16  2  0
 14 17  1  0
 17 18  2  0
 18 19  1  0
 19 20  2  0
 20 21  1  0
 21 22  2  0
 10  6  2  0
 22 17  1  0
  1 23  1  0
  1 24  1  0
  1 25  1  0
  2 26  1  0
  2 27  1  0
  3 28  1  0
  3 29  1  0
  4 30  1  0
  4 31  1  0
  5 32  1  0
  5 33  1  0
  7 34  1  0
  8 35  1  0
 11 36  1  6
 12 37  1  0
 12 38  1  0
 12 39  1  0
 13 40  1  0
 18 41  1  0
 19 42  1  0
 20 43  1  0
 21 44  1  0
M  END
>  <UniqueID>  (40) 
38

>  <SMILES>  (40) 
CCCCCc1ccsc1[C@H](C)NS(=O)(=O)c1ccccn1

>  <Energy>  (40) 
60.623523807430026

>  <Genealogy>  (40) 
CCCCCc1ccsc1[C@H](C)NS(=O)(=O)c1ccccn1 (chirality)
CCCCCc1ccsc1[C@H](C)NS(=O)(=O)c1ccccn1 (3D coordinates assigned)
CCCCCc1ccsc1[C@H](C)NS(=O)(=O)c1ccccn1 (optimized conformer: 60.623523807430026 kcal/mol)

>  <smiles>  (40) 
CCCCCc1ccsc1C(C)NS(=O)(=O)c1ccccn1

>  <score_type>  (40) 
oracle

>  <origin>  (40) 
adg

>  <m_score__min__energy>  (40) 
-8.4800000000000004

>  <m_primary>  (40) 
energy

$$$$
40:0
     RDKit          3D

 49 51  0  0  0  0  0  0  0  0999 V2000
   56.8040   26.1460   45.9120 C   0  0  0  0  0  0  0  0  0  0  0  0
   55.9340   27.2350   45.6250 O   0  0  0  0  0  0  0  0  0  0  0  0
   56.3630   28.4990   45.1960 C   0  0  0  0  0  0  0  0  0  0  0  0
   57.6670   28.8990   45.5060 C   0  0  0  0  0  0  0  0  0  0  0  0
   58.1430   30.1490   45.0990 C   0  0  0  0  0  0  0  0  0  0  0  0
   57.3250   31.0210   44.3610 C   0  0  0  0  0  0  0  0  0  0  0  0
   57.8610   32.3480   43.9610 C   0  0  0  0  0  0  0  0  0  0  0  0
   58.1030   32.5460   42.7390 O   0  0  0  0  0  0  0  0  0  0  0  0
   58.1180   33.4920   44.9240 C   0  0  0  0  0  0  0  0  0  0  0  0
   58.0990   33.0690   46.4030 C   0  0  0  0  0  0  0  0  0  0  0  0
   58.3310   34.2910   47.3000 C   0  0  0  0  0  0  0  0  0  0  0  0
   59.6020   34.9760   46.9830 N   0  0  0  0  0  0  0  0  0  0  0  0
   60.7980   34.2180   47.4220 C   0  0  0  0  0  0  0  0  0  0  0  0
   60.5070   33.4490   48.7180 C   0  0  0  0  0  0  0  0  0  0  0  0
   60.2440   31.9860   48.4460 C   0  0  0  0  0  0  0  0  0  0  0  0
   60.9640   31.3390   47.4260 C   0  0  0  0  0  0  0  0  0  0  0  0
   60.7710   29.9790   47.1730 C   0  0  0  0  0  0  0  0  0  0  0  0
   59.8620   29.2480   47.9400 C   0  0  0  0  0  0  0  0  0  0  0  0
   59.1480   29.8740   48.9640 C   0  0  0  0  0  0  0  0  0  0  0  0
   59.3350   31.2370   49.2270 C   0  0  0  0  0  0  0  0  0  0  0  0
   58.4140   31.9640   50.5400 Cl  0  0  0  0  0  0  0  0  0  0  0  0
   59.6600   35.4040   45.5660 C   0  0  0  0  0  0  0  0  0  0  0  0
   59.4080   34.2520   44.5750 C   0  0  0  0  0  0  0  0  0  0  0  0
   56.0090   30.6240   44.0630 C   0  0  0  0  0  0  0  0  0  0  0  0
   55.5330   29.3740   44.4720 C   0  0  0  0  0  0  0  0  0  0  0  0
   56.8976   26.0288   47.0017 H   0  0  0  0  0  0  0  0  0  0  0  0
   56.3917   25.2231   45.4781 H   0  0  0  0  0  0  0  0  0  0  0  0
   57.7951   26.3443   45.4781 H   0  0  0  0  0  0  0  0  0  0  0  0
   58.3236   28.2243   46.0749 H   0  0  0  0  0  0  0  0  0  0  0  0
   59.1678   30.4527   45.3591 H   0  0  0  0  0  0  0  0  0  0  0  0
   57.2704   34.1813   44.7955 H   0  0  0  0  0  0  0  0  0  0  0  0
   57.1228   32.6218   46.6417 H   0  0  0  0  0  0  0  0  0  0  0  0
   58.8985   32.3343   46.5792 H   0  0  0  0  0  0  0  0  0  0  0  0
   57.5009   34.9987   47.1581 H   0  0  0  0  0  0  0  0  0  0  0  0
   58.3827   33.9431   48.3422 H   0  0  0  0  0  0  0  0  0  0  0  0
   61.0823   33.5043   46.6347 H   0  0  0  0  0  0  0  0  0  0  0  0
   61.6178   34.9274   47.6081 H   0  0  0  0  0  0  0  0  0  0  0  0
   61.3743   33.5377   49.3888 H   0  0  0  0  0  0  0  0  0  0  0  0
   59.6079   33.8812   49.1816 H   0  0  0  0  0  0  0  0  0  0  0  0
   61.6855   31.9089   46.8221 H   0  0  0  0  0  0  0  0  0  0  0  0
   61.3354   29.4838   46.3692 H   0  0  0  0  0  0  0  0  0  0  0  0
   59.7080   28.1778   47.7376 H   0  0  0  0  0  0  0  0  0  0  0  0
   58.4347   29.2934   49.5674 H   0  0  0  0  0  0  0  0  0  0  0  0
   58.8966   36.1790   45.4031 H   0  0  0  0  0  0  0  0  0  0  0  0
   60.6765   35.7806   45.3789 H   0  0  0  0  0  0  0  0  0  0  0  0
   59.3177   34.6652   43.5596 H   0  0  0  0  0  0  0  0  0  0  0  0
   60.2530   33.5502   44.6338 H   0  0  0  0  0  0  0  0  0  0  0  0
   55.3483   31.3025   43.5034 H   0  0  0  0  0  0  0  0  0  0  0  0
   54.5038   29.0735   44.2261 H   0  0  0  0  0  0  0  0  0  0  0  0
  1  2  1  0
  2  3  1  0
  3  4  2  0
  4  5  1  0
  5  6  2  0
  6  7  1  0
  7  8  2  0
  7  9  1  0
  9 10  1  0
 10 11  1  0
 11 12  1  0
 12 13  1  0
 13 14  1  0
 14 15  1  0
 15 16  2  0
 16 17  1  0
 17 18  2  0
 18 19  1  0
 19 20  2  0
 20 21  1  0
 12 22  1  0
 22 23  1  0
  6 24  1  0
 24 25  2  0
 25  3  1  0
 23  9  1  0
 20 15  1  0
  1 26  1  0
  1 27  1  0
  1 28  1  0
  4 29  1  0
  5 30  1  0
  9 31  1  0
 10 32  1  0
 10 33  1  0
 11 34  1  0
 11 35  1  0
 13 36  1  0
 13 37  1  0
 14 38  1  0
 14 39  1  0
 16 40  1  0
 17 41  1  0
 18 42  1  0
 19 43  1  0
 22 44  1  0
 22 45  1  0
 23 46  1  0
 23 47  1  0
 24 48  1  0
 25 49  1  0
M  END
>  <UniqueID>  (41) 
39

>  <SMILES>  (41) 
COc1ccc(C(=O)C2CCN(CCc3ccccc3Cl)CC2)cc1

>  <Energy>  (41) 
55.54926074895482

>  <Genealogy>  (41) 
COc1ccc(C(=O)C2CCN(CCc3ccccc3Cl)CC2)cc1 (3D coordinates assigned)
COc1ccc(C(=O)C2CCN(CCc3ccccc3Cl)CC2)cc1 (nonaromatic ring conformer: 55.54926074895482 kcal/mol)

>  <smiles>  (41) 
COc1ccc(C(=O)C2CCN(CCc3ccccc3Cl)CC2)cc1

>  <score_type>  (41) 
oracle

>  <origin>  (41) 
adg

>  <m_score__min__energy>  (41) 
-8.4900000000000002

>  <m_primary>  (41) 
energy

$$$$
41:0
     RDKit          3D

 38 39  0  0  0  0  0  0  0  0999 V2000
   55.1650   26.4720   45.9900 O   0  0  0  0  0  0  0  0  0  0  0  0
   56.2020   25.8120   45.7110 C   0  0  0  0  0  0  0  0  0  0  0  0
   56.1050   24.3200   45.5800 C   0  0  0  0  0  0  0  0  0  0  0  0
   57.3490   23.6520   46.1550 C   0  0  0  0  0  0  0  0  0  0  0  0
   58.4140   23.7430   45.2150 O   0  0  0  0  0  0  0  0  0  0  0  0
   59.7210   23.9570   45.6090 N   0  0  0  0  0  0  0  0  0  0  0  0
   60.0880   25.0680   46.0490 O   0  0  0  0  0  0  0  0  0  0  0  0
   60.6250   22.9230   45.5350 O   0  0  0  0  0  0  0  0  0  0  0  0
   57.4620   26.4720   45.5160 N   0  0  0  0  0  0  0  0  0  0  0  0
   57.6200   27.9000   45.4690 C   0  0  0  0  0  0  0  0  0  0  0  0
   57.1600   28.6080   44.3480 C   0  0  0  0  0  0  0  0  0  0  0  0
   57.2840   29.9980   44.2880 C   0  0  0  0  0  0  0  0  0  0  0  0
   57.8570   30.7010   45.3550 C   0  0  0  0  0  0  0  0  0  0  0  0
   57.9920   32.4550   45.2750 S   0  0  0  0  0  0  0  0  0  0  0  0
   58.4050   32.8880   43.8950 O   0  0  0  0  0  0  0  0  0  0  0  0
   56.6560   33.0710   45.5800 O   0  0  0  0  0  0  0  0  0  0  0  0
   59.1990   32.9900   46.4380 C   0  0  0  0  0  0  0  0  0  0  0  0
   58.9390   34.1080   47.2450 C   0  0  0  0  0  0  0  0  0  0  0  0
   59.8970   34.5500   48.1650 C   0  0  0  0  0  0  0  0  0  0  0  0
   61.1200   33.8780   48.2790 C   0  0  0  0  0  0  0  0  0  0  0  0
   62.3200   34.4330   49.4330 Cl  0  0  0  0  0  0  0  0  0  0  0  0
   61.3860   32.7680   47.4690 C   0  0  0  0  0  0  0  0  0  0  0  0
   60.4290   32.3260   46.5490 C   0  0  0  0  0  0  0  0  0  0  0  0
   58.2900   30.0040   46.4910 C   0  0  0  0  0  0  0  0  0  0  0  0
   58.1710   28.6130   46.5500 C   0  0  0  0  0  0  0  0  0  0  0  0
   55.2184   23.9655   46.1262 H   0  0  0  0  0  0  0  0  0  0  0  0
   56.0222   24.0609   44.5142 H   0  0  0  0  0  0  0  0  0  0  0  0
   57.6389   24.1580   47.0877 H   0  0  0  0  0  0  0  0  0  0  0  0
   57.1336   22.5937   46.3636 H   0  0  0  0  0  0  0  0  0  0  0  0
   58.3270   25.8840   45.4940 H   0  0  0  0  0  0  0  0  0  0  0  0
   56.6984   28.0643   43.5105 H   0  0  0  0  0  0  0  0  0  0  0  0
   56.9304   30.5421   43.3998 H   0  0  0  0  0  0  0  0  0  0  0  0
   57.9797   34.6386   47.1545 H   0  0  0  0  0  0  0  0  0  0  0  0
   59.6890   35.4251   48.7982 H   0  0  0  0  0  0  0  0  0  0  0  0
   62.3485   32.2426   47.5558 H   0  0  0  0  0  0  0  0  0  0  0  0
   60.6421   31.4555   45.9112 H   0  0  0  0  0  0  0  0  0  0  0  0
   58.7249   30.5536   47.3388 H   0  0  0  0  0  0  0  0  0  0  0  0
   58.5098   28.0724   47.4461 H   0  0  0  0  0  0  0  0  0  0  0  0
  1  2  2  0
  2  3  1  0
  3  4  1  0
  4  5  1  0
  5  6  1  0
  6  7  2  0
  6  8  1  0
  2  9  1  0
  9 10  1  0
 10 11  2  0
 11 12  1  0
 12 13  2  0
 13 14  1  0
 14 15  2  0
 14 16  2  0
 14 17  1  0
 17 18  2  0
 18 19  1  0
 19 20  2  0
 20 21  1  0
 20 22  1  0
 22 23  2  0
 13 24  1  0
 24 25  2  0
 25 10  1  0
 23 17  1  0
  3 26  1  0
  3 27  1  0
  4 28  1  0
  4 29  1  0
  9 30  1  0
 11 31  1  0
 12 32  1  0
 18 33  1  0
 19 34  1  0
 22 35  1  0
 23 36  1  0
 24 37  1  0
 25 38  1  0
M  CHG  2   6   1   8  -1
M  END
>  <UniqueID>  (42) 
40

>  <SMILES>  (42) 
O=C(CCO[N+](=O)[O-])Nc1ccc(S(=O)(=O)c2ccc(Cl)cc2)cc1

>  <Energy>  (42) 
38.19518751039388

>  <Genealogy>  (42) 
O=C(CCO[N+](=O)[O-])Nc1ccc(S(=O)(=O)c2ccc(Cl)cc2)cc1 (3D coordinates assigned)
O=C(CCO[N+](=O)[O-])Nc1ccc(S(=O)(=O)c2ccc(Cl)cc2)cc1 (optimized conformer: 38.19518751039388 kcal/mol)

>  <smiles>  (42) 
O=C(CCO[N+](=O)[O-])Nc1ccc(S(=O)(=O)c2ccc(Cl)cc2)cc1

>  <score_type>  (42) 
oracle

>  <origin>  (42) 
adg

>  <m_score__min__energy>  (42) 
-8.3900000000000006

>  <m_primary>  (42) 
energy

$$$$
42:0
     RDKit          3D

 62 65  0  0  0  0  0  0  0  0999 V2000
   56.6460   34.5900   44.8670 C   0  0  0  0  0  0  0  0  0  0  0  0
   57.3040   33.5950   45.7770 C   0  0  0  0  0  0  0  0  0  0  0  0
   56.7720   33.3540   46.8930 O   0  0  0  0  0  0  0  0  0  0  0  0
   58.5030   32.8860   45.4260 N   0  0  0  0  0  0  0  0  0  0  0  0
   59.5760   32.6970   46.1430 C   0  0  0  0  0  0  0  0  0  0  0  0
   60.2770   33.7040   46.7350 N   0  0  0  0  0  0  0  0  0  0  0  0
   61.2650   33.0370   47.3510 C   0  0  0  0  0  0  0  0  0  0  0  0
   62.1960   33.5560   48.1830 N   0  0  0  0  0  0  0  0  0  0  0  0
   63.0760   32.7120   48.8100 C   0  0  0  0  0  0  0  0  0  0  0  0
   64.0480   33.2720   49.7910 C   0  0  0  0  0  0  0  0  0  0  0  0
   63.5890   34.1190   50.8210 C   0  0  0  0  0  0  0  0  0  0  0  0
   64.4690   34.5890   51.8000 C   0  0  0  0  0  0  0  0  0  0  0  0
   65.8190   34.2310   51.7640 C   0  0  0  0  0  0  0  0  0  0  0  0
   66.2970   33.4200   50.7350 C   0  0  0  0  0  0  0  0  0  0  0  0
   65.4220   32.9460   49.7490 C   0  0  0  0  0  0  0  0  0  0  0  0
   62.9710   31.3080   48.5700 C   0  0  0  0  0  0  0  0  0  0  0  0
   62.0070   30.8220   47.7310 N   0  0  0  0  0  0  0  0  0  0  0  0
   61.1630   31.7050   47.1390 C   0  0  0  0  0  0  0  0  0  0  0  0
   60.0870   31.4540   46.3760 N   0  0  0  0  0  0  0  0  0  0  0  0
   59.5270   30.1540   45.9810 C   0  0  1  0  0  0  0  0  0  0  0  0
   60.3690   29.1160   46.4290 O   0  0  0  0  0  0  0  0  0  0  0  0
   59.5510   28.0400   46.8420 C   0  0  1  0  0  0  0  0  0  0  0  0
   59.9150   27.6570   48.2800 C   0  0  0  0  0  0  0  0  0  0  0  0
   60.5390   28.7620   48.9270 O   0  0  0  0  0  0  0  0  0  0  0  0
   59.8320   29.6710   49.7210 C   0  0  0  0  0  0  0  0  0  0  0  0
   60.5510   30.4460   50.7730 C   0  0  0  0  0  0  0  0  0  0  0  0
   58.5940   29.8450   49.5560 O   0  0  0  0  0  0  0  0  0  0  0  0
   58.0760   28.4420   46.7170 C   0  0  2  0  0  0  0  0  0  0  0  0
   57.5200   27.8480   45.5390 O   0  0  0  0  0  0  0  0  0  0  0  0
   56.7740   26.6620   45.5420 C   0  0  0  0  0  0  0  0  0  0  0  0
   57.4210   25.3970   45.0940 C   0  0  0  0  0  0  0  0  0  0  0  0
   55.5900   26.6380   45.9810 O   0  0  0  0  0  0  0  0  0  0  0  0
   58.1480   29.9460   46.5800 C   0  0  2  0  0  0  0  0  0  0  0  0
   57.1310   30.4690   45.7210 O   0  0  0  0  0  0  0  0  0  0  0  0
   57.1930   30.3700   44.3270 C   0  0  0  0  0  0  0  0  0  0  0  0
   56.0790   29.7090   43.5890 C   0  0  0  0  0  0  0  0  0  0  0  0
   58.1970   30.8020   43.6940 O   0  0  0  0  0  0  0  0  0  0  0  0
   56.1382   35.3578   45.4692 H   0  0  0  0  0  0  0  0  0  0  0  0
   57.4078   35.0662   44.2323 H   0  0  0  0  0  0  0  0  0  0  0  0
   55.9095   34.0754   44.2323 H   0  0  0  0  0  0  0  0  0  0  0  0
   62.5293   34.4123   50.8542 H   0  0  0  0  0  0  0  0  0  0  0  0
   64.0971   35.2435   52.6021 H   0  0  0  0  0  0  0  0  0  0  0  0
   66.5043   34.5885   52.5466 H   0  0  0  0  0  0  0  0  0  0  0  0
   67.3632   33.1520   50.6975 H   0  0  0  0  0  0  0  0  0  0  0  0
   65.8080   32.3146   48.9352 H   0  0  0  0  0  0  0  0  0  0  0  0
   63.6688   30.6146   49.0623 H   0  0  0  0  0  0  0  0  0  0  0  0
   61.9260   29.7930   47.5790 H   0  0  0  0  0  0  0  0  0  0  0  0
   59.4489   30.1415   44.8838 H   0  0  0  0  0  0  0  0  0  0  0  0
   59.7159   27.1618   46.2005 H   0  0  0  0  0  0  0  0  0  0  0  0
   59.0017   27.3807   48.8273 H   0  0  0  0  0  0  0  0  0  0  0  0
   60.6089   26.8036   48.2655 H   0  0  0  0  0  0  0  0  0  0  0  0
   60.2302   30.1002   51.7668 H   0  0  0  0  0  0  0  0  0  0  0  0
   61.6350   30.2938   50.6641 H   0  0  0  0  0  0  0  0  0  0  0  0
   60.3181   31.5155   50.6641 H   0  0  0  0  0  0  0  0  0  0  0  0
   57.4469   28.1200   47.5600 H   0  0  0  0  0  0  0  0  0  0  0  0
   57.7222   24.8080   45.9728 H   0  0  0  0  0  0  0  0  0  0  0  0
   56.7096   24.8155   44.4892 H   0  0  0  0  0  0  0  0  0  0  0  0
   58.3089   25.6335   44.4892 H   0  0  0  0  0  0  0  0  0  0  0  0
   57.9896   30.4661   47.5362 H   0  0  0  0  0  0  0  0  0  0  0  0
   55.3635   29.2845   44.3086 H   0  0  0  0  0  0  0  0  0  0  0  0
   55.5675   30.4498   42.9569 H   0  0  0  0  0  0  0  0  0  0  0  0
   56.4841   28.9050   42.9569 H   0  0  0  0  0  0  0  0  0  0  0  0
  1  2  1  0
  2  3  2  0
  2  4  1  0
  4  5  2  3
  5  6  1  0
  6  7  1  0
  7  8  2  0
  8  9  1  0
  9 10  1  0
 10 11  2  0
 11 12  1  0
 12 13  2  0
 13 14  1  0
 14 15  2  0
  9 16  2  0
 16 17  1  0
 17 18  2  0
 18 19  1  0
 19 20  1  0
 20 21  1  0
 21 22  1  0
 22 23  1  0
 23 24  1  0
 24 25  1  0
 25 26  1  0
 25 27  2  0
 22 28  1  0
 28 29  1  0
 29 30  1  0
 30 31  1  0
 30 32  2  0
 28 33  1  0
 33 34  1  0
 34 35  1  0
 35 36  1  0
 35 37  2  0
 19  5  1  0
 33 20  1  0
 18  7  1  0
 15 10  1  0
  1 38  1  0
  1 39  1  0
  1 40  1  0
 11 41  1  0
 12 42  1  0
 13 43  1  0
 14 44  1  0
 15 45  1  0
 16 46  1  0
 17 47  1  0
 20 48  1  6
 22 49  1  6
 23 50  1  0
 23 51  1  0
 26 52  1  0
 26 53  1  0
 26 54  1  0
 28 55  1  1
 31 56  1  0
 31 57  1  0
 31 58  1  0
 33 59  1  1
 36 60  1  0
 36 61  1  0
 36 62  1  0
M  CHG  2   6  -1  17   1
M  END
>  <UniqueID>  (43) 
41

>  <SMILES>  (43) 
CC(=O)N=c1[n-]c2nc(-c3ccccc3)c[nH+]c2n1[C@H]1O[C@@H](COC(C)=O)C(OC(C)=O)C1OC(C)=O

>  <Energy>  (43) 
105.18768903345914

>  <Genealogy>  (43) 
CC(=O)N=c1[n-]c2nc(-c3ccccc3)c[nH+]c2n1C1OC(COC(C)=O)C(OC(C)=O)C1OC(C)=O (protonated)
CC(=O)N=c1[n-]c2nc(-c3ccccc3)c[nH+]c2n1[C@H]1O[C@@H](COC(C)=O)C(OC(C)=O)C1OC(C)=O (chirality)
CC(=O)N=c1[n-]c2nc(-c3ccccc3)c[nH+]c2n1[C@H]1O[C@@H](COC(C)=O)C(OC(C)=O)C1OC(C)=O (3D coordinates assigned)
CC(=O)N=c1[n-]c2nc(-c3ccccc3)c[nH+]c2n1[C@H]1O[C@@H](COC(C)=O)C(OC(C)=O)C1OC(C)=O (nonaromatic ring conformer: 105.18768903345914 kcal/mol)

>  <smiles>  (43) 
CC(=O)N=c1[nH]c2nc(-c3ccccc3)cnc2n1C1OC(COC(C)=O)C(OC(C)=O)C1OC(C)=O

>  <score_type>  (43) 
oracle

>  <origin>  (43) 
adg

>  <m_score__min__energy>  (43) 
-7.5899999999999999

>  <m_primary>  (43) 
energy

$$$$
43:0
     RDKit          3D

 34 34  0  0  0  0  0  0  0  0999 V2000
   59.3020   32.9930   49.2680 C   0  0  0  0  0  0  0  0  0  0  0  0
   59.5530   34.2180   48.3970 C   0  0  0  0  0  0  0  0  0  0  0  0
   59.8630   33.8140   47.0180 N   0  0  0  0  0  0  0  0  0  0  0  0
   61.0060   32.9340   46.7340 C   0  0  0  0  0  0  0  0  0  0  0  0
   62.3220   33.7050   46.7570 C   0  0  0  0  0  0  0  0  0  0  0  0
   58.9330   34.1330   45.9710 C   0  0  0  0  0  0  0  0  0  0  0  0
   59.2750   35.3320   44.9100 S   0  0  0  0  0  0  0  0  0  0  0  0
   57.2570   33.4900   46.0280 S   0  0  0  0  0  0  0  0  0  0  0  0
   57.4080   32.4860   44.5100 C   0  0  0  0  0  0  0  0  0  0  0  0
   57.2360   31.0240   44.8140 C   0  0  0  0  0  0  0  0  0  0  0  0
   56.1290   30.4800   44.5470 O   0  0  0  0  0  0  0  0  0  0  0  0
   58.3390   30.1920   45.3500 C   0  0  0  0  0  0  0  0  0  0  0  0
   58.6400   30.2340   46.7250 C   0  0  0  0  0  0  0  0  0  0  0  0
   59.6560   29.4330   47.2520 C   0  0  0  0  0  0  0  0  0  0  0  0
   60.3920   28.5920   46.4160 C   0  0  0  0  0  0  0  0  0  0  0  0
   60.1190   28.5580   45.0460 C   0  0  0  0  0  0  0  0  0  0  0  0
   59.1030   29.3580   44.5120 C   0  0  0  0  0  0  0  0  0  0  0  0
   59.3606   33.2790   50.3286 H   0  0  0  0  0  0  0  0  0  0  0  0
   58.3022   32.5882   49.0521 H   0  0  0  0  0  0  0  0  0  0  0  0
   60.0620   32.2276   49.0521 H   0  0  0  0  0  0  0  0  0  0  0  0
   58.6537   34.8514   48.3952 H   0  0  0  0  0  0  0  0  0  0  0  0
   60.4087   34.7758   48.8053 H   0  0  0  0  0  0  0  0  0  0  0  0
   61.0434   32.1396   47.4940 H   0  0  0  0  0  0  0  0  0  0  0  0
   60.8726   32.5072   45.7290 H   0  0  0  0  0  0  0  0  0  0  0  0
   62.6248   33.8824   47.7995 H   0  0  0  0  0  0  0  0  0  0  0  0
   63.0991   33.1193   46.2440 H   0  0  0  0  0  0  0  0  0  0  0  0
   62.1911   34.6692   46.2440 H   0  0  0  0  0  0  0  0  0  0  0  0
   56.6341   32.7982   43.7933 H   0  0  0  0  0  0  0  0  0  0  0  0
   58.4106   32.6408   44.0848 H   0  0  0  0  0  0  0  0  0  0  0  0
   58.0713   30.9020   47.3886 H   0  0  0  0  0  0  0  0  0  0  0  0
   59.8766   29.4652   48.3292 H   0  0  0  0  0  0  0  0  0  0  0  0
   61.1861   27.9566   46.8351 H   0  0  0  0  0  0  0  0  0  0  0  0
   60.7042   27.9008   44.3859 H   0  0  0  0  0  0  0  0  0  0  0  0
   58.9000   29.3351   43.4311 H   0  0  0  0  0  0  0  0  0  0  0  0
  1  2  1  0
  2  3  1  0
  3  4  1  0
  4  5  1  0
  3  6  1  0
  6  7  2  0
  6  8  1  0
  8  9  1  0
  9 10  1  0
 10 11  2  0
 10 12  1  0
 12 13  2  0
 13 14  1  0
 14 15  2  0
 15 16  1  0
 16 17  2  0
 17 12  1  0
  1 18  1  0
  1 19  1  0
  1 20  1  0
  2 21  1  0
  2 22  1  0
  4 23  1  0
  4 24  1  0
  5 25  1  0
  5 26  1  0
  5 27  1  0
  9 28  1  0
  9 29  1  0
 13 30  1  0
 14 31  1  0
 15 32  1  0
 16 33  1  0
 17 34  1  0
M  END
>  <UniqueID>  (44) 
42

>  <SMILES>  (44) 
CCN(CC)C(=S)SCC(=O)c1ccccc1

>  <Energy>  (44) 
26.953230140673345

>  <Genealogy>  (44) 
CCN(CC)C(=S)SCC(=O)c1ccccc1 (3D coordinates assigned)
CCN(CC)C(=S)SCC(=O)c1ccccc1 (optimized conformer: 26.953230140673345 kcal/mol)

>  <smiles>  (44) 
CCN(CC)C(=S)SCC(=O)c1ccccc1

>  <score_type>  (44) 
oracle

>  <origin>  (44) 
adg

>  <m_score__min__energy>  (44) 
-6.2400000000000002

>  <m_primary>  (44) 
energy

$$$$
44:0
     RDKit          3D

 54 58  0  0  0  0  0  0  0  0999 V2000
   67.1010   33.1320   50.4080 C   0  0  0  0  0  0  0  0  0  0  0  0
   65.9340   32.6550   49.7430 O   0  0  0  0  0  0  0  0  0  0  0  0
   64.6280   33.0660   50.0440 C   0  0  0  0  0  0  0  0  0  0  0  0
   64.2900   33.2680   51.3850 C   0  0  0  0  0  0  0  0  0  0  0  0
   63.0010   33.6770   51.7370 C   0  0  0  0  0  0  0  0  0  0  0  0
   62.0380   33.8870   50.7480 C   0  0  0  0  0  0  0  0  0  0  0  0
   62.3570   33.6890   49.3940 C   0  0  0  0  0  0  0  0  0  0  0  0
   61.3640   33.8940   48.3710 N   0  0  0  0  0  0  0  0  0  0  0  0
   60.0840   34.5390   48.6740 C   0  0  0  0  0  0  0  0  0  0  0  0
   58.9430   33.7650   48.0130 C   0  0  0  0  0  0  0  0  0  0  0  0
   59.2510   33.4710   46.6040 N   0  0  0  0  0  0  0  0  0  0  0  0
   58.1680   33.4280   45.6470 C   0  0  0  0  0  0  0  0  0  0  0  0
   57.1700   34.1830   45.7980 O   0  0  0  0  0  0  0  0  0  0  0  0
   58.1940   32.5140   44.4480 C   0  0  0  0  0  0  0  0  0  0  0  0
   58.2000   31.1030   44.8600 N   0  0  0  0  0  0  0  0  0  0  0  0
   59.3780   30.5480   45.2050 N   0  0  0  0  0  0  0  0  0  0  0  0
   59.4960   29.2380   45.5690 C   0  0  0  0  0  0  0  0  0  0  0  0
   58.3470   28.4660   45.5620 C   0  0  0  0  0  0  0  0  0  0  0  0
   57.1410   29.0040   45.1970 C   0  0  0  0  0  0  0  0  0  0  0  0
   56.1510   28.0840   45.2450 N   0  0  0  0  0  0  0  0  0  0  0  0
   56.7600   26.9480   45.6500 C   0  0  0  0  0  0  0  0  0  0  0  0
   56.1700   25.7020   45.8530 C   0  0  0  0  0  0  0  0  0  0  0  0
   56.9960   24.6420   46.2760 C   0  0  0  0  0  0  0  0  0  0  0  0
   58.3790   24.8490   46.4840 C   0  0  0  0  0  0  0  0  0  0  0  0
   58.9530   26.1150   46.2730 C   0  0  0  0  0  0  0  0  0  0  0  0
   58.1110   27.1430   45.8550 C   0  0  0  0  0  0  0  0  0  0  0  0
   57.0510   30.3410   44.8300 C   0  0  0  0  0  0  0  0  0  0  0  0
   55.9430   30.8310   44.4810 O   0  0  0  0  0  0  0  0  0  0  0  0
   60.5580   32.8710   46.2970 C   0  0  0  0  0  0  0  0  0  0  0  0
   61.6830   33.6660   46.9600 C   0  0  0  0  0  0  0  0  0  0  0  0
   63.6540   33.2780   49.0490 C   0  0  0  0  0  0  0  0  0  0  0  0
   66.9533   33.0716   51.4964 H   0  0  0  0  0  0  0  0  0  0  0  0
   67.9650   32.5149   50.1204 H   0  0  0  0  0  0  0  0  0  0  0  0
   67.2853   34.1776   50.1204 H   0  0  0  0  0  0  0  0  0  0  0  0
   65.0440   33.1039   52.1689 H   0  0  0  0  0  0  0  0  0  0  0  0
   62.7445   33.8338   52.7951 H   0  0  0  0  0  0  0  0  0  0  0  0
   61.0247   34.2090   51.0302 H   0  0  0  0  0  0  0  0  0  0  0  0
   59.9318   34.5540   49.7633 H   0  0  0  0  0  0  0  0  0  0  0  0
   60.0960   35.5684   48.2865 H   0  0  0  0  0  0  0  0  0  0  0  0
   58.7903   32.8188   48.5527 H   0  0  0  0  0  0  0  0  0  0  0  0
   58.0331   34.3819   48.0512 H   0  0  0  0  0  0  0  0  0  0  0  0
   57.3034   32.7047   43.8312 H   0  0  0  0  0  0  0  0  0  0  0  0
   59.1109   32.7151   43.8745 H   0  0  0  0  0  0  0  0  0  0  0  0
   60.4681   28.8114   45.8573 H   0  0  0  0  0  0  0  0  0  0  0  0
   55.1400   28.2180   45.0170 H   0  0  0  0  0  0  0  0  0  0  0  0
   55.0930   25.5508   45.6881 H   0  0  0  0  0  0  0  0  0  0  0  0
   56.5616   23.6458   46.4457 H   0  0  0  0  0  0  0  0  0  0  0  0
   59.0118   24.0119   46.8139 H   0  0  0  0  0  0  0  0  0  0  0  0
   60.0277   26.2874   46.4322 H   0  0  0  0  0  0  0  0  0  0  0  0
   60.5777   31.8364   46.6702 H   0  0  0  0  0  0  0  0  0  0  0  0
   60.7079   32.8849   45.2073 H   0  0  0  0  0  0  0  0  0  0  0  0
   62.6234   33.1003   46.8849 H   0  0  0  0  0  0  0  0  0  0  0  0
   61.7920   34.6350   46.4509 H   0  0  0  0  0  0  0  0  0  0  0  0
   63.9122   33.1200   47.9915 H   0  0  0  0  0  0  0  0  0  0  0  0
  1  2  1  0
  2  3  1  0
  3  4  2  0
  4  5  1  0
  5  6  2  0
  6  7  1  0
  7  8  1  0
  8  9  1  0
  9 10  1  0
 10 11  1  0
 11 12  1  0
 12 13  2  0
 12 14  1  0
 14 15  1  0
 15 16  1  0
 16 17  2  0
 17 18  1  0
 18 19  2  0
 19 20  1  0
 20 21  1  0
 21 22  2  0
 22 23  1  0
 23 24  2  0
 24 25  1  0
 25 26  2  0
 19 27  1  0
 27 28  2  0
 11 29  1  0
 29 30  1  0
  7 31  2  0
 31  3  1  0
 30  8  1  0
 27 15  1  0
 26 18  1  0
 26 21  1  0
  1 32  1  0
  1 33  1  0
  1 34  1  0
  4 35  1  0
  5 36  1  0
  6 37  1  0
  9 38  1  0
  9 39  1  0
 10 40  1  0
 10 41  1  0
 14 42  1  0
 14 43  1  0
 17 44  1  0
 20 45  1  0
 22 46  1  0
 23 47  1  0
 24 48  1  0
 25 49  1  0
 29 50  1  0
 29 51  1  0
 30 52  1  0
 30 53  1  0
 31 54  1  0
M  END
>  <UniqueID>  (45) 
43

>  <SMILES>  (45) 
COc1cccc(N2CCN(C(=O)Cn3ncc4c([nH]c5ccccc54)c3=O)CC2)c1

>  <Energy>  (45) 
107.58749187452092

>  <Genealogy>  (45) 
COc1cccc(N2CCN(C(=O)Cn3ncc4c([nH]c5ccccc54)c3=O)CC2)c1 (3D coordinates assigned)
COc1cccc(N2CCN(C(=O)Cn3ncc4c([nH]c5ccccc54)c3=O)CC2)c1 (nonaromatic ring conformer: 107.58749187452092 kcal/mol)

>  <smiles>  (45) 
COc1cccc(N2CCN(C(=O)Cn3ncc4c([nH]c5ccccc54)c3=O)CC2)c1

>  <score_type>  (45) 
oracle

>  <origin>  (45) 
adg

>  <m_score__min__energy>  (45) 
-9.3499999999999996

>  <m_primary>  (45) 
energy

$$$$
45:0
     RDKit          3D

 45 48  0  0  0  0  0  0  0  0999 V2000
   58.5090   33.2070   51.9010 C   0  0  0  0  0  0  0  0  0  0  0  0
   58.1720   32.4960   50.7150 O   0  0  0  0  0  0  0  0  0  0  0  0
   58.8380   32.6470   49.4920 C   0  0  0  0  0  0  0  0  0  0  0  0
   58.1670   32.7140   48.2460 C   0  0  0  0  0  0  0  0  0  0  0  0
   58.8920   32.8750   47.0400 C   0  0  0  0  0  0  0  0  0  0  0  0
   58.0370   32.9290   45.5040 S   0  0  0  0  0  0  0  0  0  0  0  0
   56.6440   33.4550   45.7140 O   0  0  0  0  0  0  0  0  0  0  0  0
   58.7450   33.8500   44.5510 O   0  0  0  0  0  0  0  0  0  0  0  0
   57.9710   31.3050   44.8310 C   0  0  0  0  0  0  0  0  0  0  0  0
   58.8910   30.3330   45.2470 C   0  0  0  0  0  0  0  0  0  0  0  0
   58.8270   29.0360   44.7290 C   0  0  0  0  0  0  0  0  0  0  0  0
   57.8280   28.6920   43.8040 C   0  0  0  0  0  0  0  0  0  0  0  0
   57.7830   27.3120   43.2190 C   0  0  0  0  0  0  0  0  0  0  0  0
   56.9140   29.6700   43.3830 C   0  0  0  0  0  0  0  0  0  0  0  0
   56.9790   30.9670   43.9010 C   0  0  0  0  0  0  0  0  0  0  0  0
   60.2990   32.9540   47.0640 C   0  0  0  0  0  0  0  0  0  0  0  0
   60.9300   32.8780   48.3010 C   0  0  0  0  0  0  0  0  0  0  0  0
   62.2550   32.9240   48.6550 C   0  0  0  0  0  0  0  0  0  0  0  0
   62.2700   32.8370   50.0300 C   0  0  0  0  0  0  0  0  0  0  0  0
   61.0460   32.7110   50.5070 O   0  0  0  0  0  0  0  0  0  0  0  0
   60.2290   32.7370   49.4750 C   0  0  0  0  0  0  0  0  0  0  0  0
   63.5350   32.8540   50.8250 C   0  0  0  0  0  0  0  0  0  0  0  0
   64.6880   33.4120   49.9600 C   0  0  0  0  0  0  0  0  0  0  0  0
   64.6940   32.8190   48.6050 N   0  0  0  0  0  0  0  0  0  0  0  0
   63.4830   33.1680   47.8340 C   0  0  0  0  0  0  0  0  0  0  0  0
   58.2257   32.6092   52.7799 H   0  0  0  0  0  0  0  0  0  0  0  0
   59.5925   33.3960   51.9199 H   0  0  0  0  0  0  0  0  0  0  0  0
   57.9693   34.1653   51.9199 H   0  0  0  0  0  0  0  0  0  0  0  0
   57.0699   32.6401   48.2149 H   0  0  0  0  0  0  0  0  0  0  0  0
   59.6660   30.5915   45.9836 H   0  0  0  0  0  0  0  0  0  0  0  0
   59.5620   28.2821   45.0473 H   0  0  0  0  0  0  0  0  0  0  0  0
   57.7588   26.5702   44.0309 H   0  0  0  0  0  0  0  0  0  0  0  0
   56.8809   27.2060   42.5985 H   0  0  0  0  0  0  0  0  0  0  0  0
   58.6763   27.1475   42.5985 H   0  0  0  0  0  0  0  0  0  0  0  0
   56.1424   29.4149   42.6416 H   0  0  0  0  0  0  0  0  0  0  0  0
   56.2494   31.7241   43.5776 H   0  0  0  0  0  0  0  0  0  0  0  0
   60.8781   33.0717   46.1362 H   0  0  0  0  0  0  0  0  0  0  0  0
   63.4012   33.4919   51.7111 H   0  0  0  0  0  0  0  0  0  0  0  0
   63.7801   31.8291   51.1405 H   0  0  0  0  0  0  0  0  0  0  0  0
   64.5712   34.5022   49.8712 H   0  0  0  0  0  0  0  0  0  0  0  0
   65.6387   33.1551   50.4501 H   0  0  0  0  0  0  0  0  0  0  0  0
   65.5330   33.1700   48.0870 H   0  0  0  0  0  0  0  0  0  0  0  0
   64.7720   31.7760   48.6810 H   0  0  0  0  0  0  0  0  0  0  0  0
   63.5259   34.2305   47.5525 H   0  0  0  0  0  0  0  0  0  0  0  0
   63.4404   32.5401   46.9318 H   0  0  0  0  0  0  0  0  0  0  0  0
  1  2  1  0
  2  3  1  0
  3  4  2  0
  4  5  1  0
  5  6  1  0
  6  7  2  0
  6  8  2  0
  6  9  1  0
  9 10  2  0
 10 11  1  0
 11 12  2  0
 12 13  1  0
 12 14  1  0
 14 15  2  0
  5 16  2  0
 16 17  1  0
 17 18  1  0
 18 19  2  0
 19 20  1  0
 20 21  1  0
 19 22  1  0
 22 23  1  0
 23 24  1  0
 24 25  1  0
 21  3  1  0
 15  9  1  0
 21 17  2  0
 25 18  1  0
  1 26  1  0
  1 27  1  0
  1 28  1  0
  4 29  1  0
 10 30  1  0
 11 31  1  0
 13 32  1  0
 13 33  1  0
 13 34  1  0
 14 35  1  0
 15 36  1  0
 16 37  1  0
 22 38  1  0
 22 39  1  0
 23 40  1  0
 23 41  1  0
 24 42  1  0
 24 43  1  0
 25 44  1  0
 25 45  1  0
M  CHG  1  24   1
M  END
>  <UniqueID>  (46) 
44

>  <SMILES>  (46) 
COc1cc(S(=O)(=O)c2ccc(C)cc2)cc2c3c(oc12)CC[NH2+]C3

>  <Energy>  (46) 
85.53101843081146

>  <Genealogy>  (46) 
COc1cc(S(=O)(=O)c2ccc(C)cc2)cc2c3c(oc12)CC[NH2+]C3 (protonated)
COc1cc(S(=O)(=O)c2ccc(C)cc2)cc2c3c(oc12)CC[NH2+]C3 (3D coordinates assigned)
COc1cc(S(=O)(=O)c2ccc(C)cc2)cc2c3c(oc12)CC[NH2+]C3 (nonaromatic ring conformer: 85.53101843081146 kcal/mol)

>  <smiles>  (46) 
COc1cc(S(=O)(=O)c2ccc(C)cc2)cc2c3c(oc12)CCNC3

>  <score_type>  (46) 
oracle

>  <origin>  (46) 
adg

>  <m_score__min__energy>  (46) 
-6.5800000000000001

>  <m_primary>  (46) 
energy

$$$$
46:0
     RDKit          3D

 49 51  0  0  0  0  0  0  0  0999 V2000
   58.9650   34.0420   44.5120 C   0  0  0  0  0  0  0  0  0  0  0  0
   58.5580   33.0300   43.5970 O   0  0  0  0  0  0  0  0  0  0  0  0
   57.8850   31.8550   43.9620 C   0  0  0  0  0  0  0  0  0  0  0  0
   58.0520   31.3700   45.2650 C   0  0  0  0  0  0  0  0  0  0  0  0
   57.4050   30.2020   45.6750 C   0  0  0  0  0  0  0  0  0  0  0  0
   56.5960   29.4900   44.7830 C   0  0  0  0  0  0  0  0  0  0  0  0
   55.9230   28.3100   45.2460 N   0  0  0  0  0  0  0  0  0  0  0  0
   56.5420   27.1140   45.7380 C   0  0  0  0  0  0  0  0  0  0  0  0
   55.8630   26.3270   46.4480 O   0  0  0  0  0  0  0  0  0  0  0  0
   57.9910   26.8000   45.4740 C   0  0  0  0  0  0  0  0  0  0  0  0
   58.8550   27.8890   45.9720 N   0  0  0  0  0  0  0  0  0  0  0  0
   60.0940   27.9930   45.1800 C   0  0  0  0  0  0  0  0  0  0  0  0
   60.7720   29.3220   45.5080 C   0  0  0  0  0  0  0  0  0  0  0  0
   60.7090   29.5930   46.9470 N   0  0  0  0  0  0  0  0  0  0  0  0
   61.0490   30.8990   47.4340 C   0  0  0  0  0  0  0  0  0  0  0  0
   62.3220   31.4160   47.1540 C   0  0  0  0  0  0  0  0  0  0  0  0
   62.6910   32.6780   47.6230 C   0  0  0  0  0  0  0  0  0  0  0  0
   61.7920   33.4320   48.3800 C   0  0  0  0  0  0  0  0  0  0  0  0
   60.5190   32.9290   48.6620 C   0  0  0  0  0  0  0  0  0  0  0  0
   60.1270   31.6690   48.1790 C   0  0  0  0  0  0  0  0  0  0  0  0
   58.7570   31.1470   48.5150 C   0  0  0  0  0  0  0  0  0  0  0  0
   60.3620   28.5320   47.8990 C   0  0  0  0  0  0  0  0  0  0  0  0
   59.1620   27.6900   47.4070 C   0  0  0  0  0  0  0  0  0  0  0  0
   56.4020   29.9860   43.4840 C   0  0  0  0  0  0  0  0  0  0  0  0
   57.0490   31.1550   43.0710 C   0  0  0  0  0  0  0  0  0  0  0  0
   58.8211   33.6842   45.5422 H   0  0  0  0  0  0  0  0  0  0  0  0
   60.0274   34.2767   44.3504 H   0  0  0  0  0  0  0  0  0  0  0  0
   58.3609   34.9469   44.3504 H   0  0  0  0  0  0  0  0  0  0  0  0
   58.6976   31.9130   45.9710 H   0  0  0  0  0  0  0  0  0  0  0  0
   57.5324   29.8397   46.7058 H   0  0  0  0  0  0  0  0  0  0  0  0
   58.2576   25.8635   45.9858 H   0  0  0  0  0  0  0  0  0  0  0  0
   58.1404   26.6950   44.3893 H   0  0  0  0  0  0  0  0  0  0  0  0
   60.7672   27.1609   45.4341 H   0  0  0  0  0  0  0  0  0  0  0  0
   59.8588   27.9460   44.1065 H   0  0  0  0  0  0  0  0  0  0  0  0
   61.8254   29.2773   45.1945 H   0  0  0  0  0  0  0  0  0  0  0  0
   60.2490   30.1281   44.9725 H   0  0  0  0  0  0  0  0  0  0  0  0
   63.0343   30.8235   46.5611 H   0  0  0  0  0  0  0  0  0  0  0  0
   63.6901   33.0785   47.3962 H   0  0  0  0  0  0  0  0  0  0  0  0
   62.0862   34.4234   48.7549 H   0  0  0  0  0  0  0  0  0  0  0  0
   59.8186   33.5239   49.2666 H   0  0  0  0  0  0  0  0  0  0  0  0
   58.6395   31.1022   49.6078 H   0  0  0  0  0  0  0  0  0  0  0  0
   57.9950   31.8178   48.0915 H   0  0  0  0  0  0  0  0  0  0  0  0
   58.6346   30.1392   48.0915 H   0  0  0  0  0  0  0  0  0  0  0  0
   61.2317   27.8711   48.0283 H   0  0  0  0  0  0  0  0  0  0  0  0
   60.0805   29.0053   48.8512 H   0  0  0  0  0  0  0  0  0  0  0  0
   59.3913   26.6267   47.5707 H   0  0  0  0  0  0  0  0  0  0  0  0
   58.2797   28.0167   47.9769 H   0  0  0  0  0  0  0  0  0  0  0  0
   55.7380   29.4526   42.7878 H   0  0  0  0  0  0  0  0  0  0  0  0
   56.9044   31.5289   42.0467 H   0  0  0  0  0  0  0  0  0  0  0  0
  1  2  1  0
  2  3  1  0
  3  4  2  0
  4  5  1  0
  5  6  2  0
  6  7  1  0
  7  8  1  0
  8  9  2  0
  8 10  1  0
 10 11  1  0
 11 12  1  0
 12 13  1  0
 13 14  1  0
 14 15  1  0
 15 16  2  0
 16 17  1  0
 17 18  2  0
 18 19  1  0
 19 20  2  0
 20 21  1  0
 14 22  1  0
 22 23  1  0
  6 24  1  0
 24 25  2  0
 25  3  1  0
 23 11  1  0
 20 15  1  0
  1 26  1  0
  1 27  1  0
  1 28  1  0
  4 29  1  0
  5 30  1  0
 10 31  1  0
 10 32  1  0
 12 33  1  0
 12 34  1  0
 13 35  1  0
 13 36  1  0
 16 37  1  0
 17 38  1  0
 18 39  1  0
 19 40  1  0
 21 41  1  0
 21 42  1  0
 21 43  1  0
 22 44  1  0
 22 45  1  0
 23 46  1  0
 23 47  1  0
 24 48  1  0
 25 49  1  0
M  CHG  1   7  -1
M  END
>  <UniqueID>  (47) 
45

>  <SMILES>  (47) 
COc1ccc([N-]C(=O)CN2CCN(c3ccccc3C)CC2)cc1

>  <Energy>  (47) 
65.01361748684778

>  <Genealogy>  (47) 
COc1ccc([N-]C(=O)CN2CCN(c3ccccc3C)CC2)cc1 (protonated)
COc1ccc([N-]C(=O)CN2CCN(c3ccccc3C)CC2)cc1 (3D coordinates assigned)
COc1ccc([N-]C(=O)CN2CCN(c3ccccc3C)CC2)cc1 (nonaromatic ring conformer: 65.01361748684778 kcal/mol)

>  <smiles>  (47) 
COc1ccc(NC(=O)CN2CCN(c3ccccc3C)CC2)cc1

>  <score_type>  (47) 
oracle

>  <origin>  (47) 
adg

>  <m_score__min__energy>  (47) 
-9.5099999999999998

>  <m_primary>  (47) 
energy

$$$$
47:0
     RDKit          3D

 36 38  0  0  0  0  0  0  0  0999 V2000
   55.9860   30.2096   42.8714 H   0  0  0  0  0  0  0  0  0  0  0  0
   56.3510   30.2010   43.9090 C   0  0  0  0  0  0  0  0  0  0  0  0
   56.0380   29.1370   44.6640 C   0  0  0  0  0  0  0  0  0  0  0  0
   54.9807   28.8363   44.7050 H   0  0  0  0  0  0  0  0  0  0  0  0
   57.0060   28.3380   45.4450 C   0  0  0  0  0  0  0  0  0  0  0  0
   58.2780   28.8760   45.6900 C   0  0  0  0  0  0  0  0  0  0  0  0
   58.5342   29.8710   45.2970 H   0  0  0  0  0  0  0  0  0  0  0  0
   59.2290   28.1540   46.4340 C   0  0  0  0  0  0  0  0  0  0  0  0
   60.5190   28.6450   46.6870 O   0  0  0  0  0  0  0  0  0  0  0  0
   60.8700   30.0250   46.6760 C   0  0  0  0  0  0  0  0  0  0  0  0
   60.9624   30.3881   47.7102 H   0  0  0  0  0  0  0  0  0  0  0  0
   61.8298   30.1551   46.1546 H   0  0  0  0  0  0  0  0  0  0  0  0
   60.0890   30.5979   46.1546 H   0  0  0  0  0  0  0  0  0  0  0  0
   58.8860   26.8990   46.9450 C   0  0  0  0  0  0  0  0  0  0  0  0
   59.6273   26.3239   47.5192 H   0  0  0  0  0  0  0  0  0  0  0  0
   57.6120   26.3680   46.7340 C   0  0  0  0  0  0  0  0  0  0  0  0
   57.3555   25.3817   47.1479 H   0  0  0  0  0  0  0  0  0  0  0  0
   56.6540   27.0870   45.9950 C   0  0  0  0  0  0  0  0  0  0  0  0
   55.3540   26.5940   45.7920 O   0  0  0  0  0  0  0  0  0  0  0  0
   55.0260   25.2170   45.6380 C   0  0  0  0  0  0  0  0  0  0  0  0
   54.9155   24.7533   46.6294 H   0  0  0  0  0  0  0  0  0  0  0  0
   54.0808   25.1251   45.0828 H   0  0  0  0  0  0  0  0  0  0  0  0
   55.8282   24.7088   45.0828 H   0  0  0  0  0  0  0  0  0  0  0  0
   57.1450   31.3600   44.3580 C   0  0  0  0  0  0  0  0  0  0  0  0
   57.2800   31.7460   45.6520 N   0  0  0  0  0  0  0  0  0  0  0  0
   58.0470   32.8610   45.7550 C   0  0  0  0  0  0  0  0  0  0  0  0
   58.3750   33.4840   46.9600 C   0  0  0  0  0  0  0  0  0  0  0  0
   58.0093   33.0831   47.9168 H   0  0  0  0  0  0  0  0  0  0  0  0
   59.1820   34.6340   46.9260 C   0  0  0  0  0  0  0  0  0  0  0  0
   59.4534   35.1388   47.8649 H   0  0  0  0  0  0  0  0  0  0  0  0
   59.6460   35.1450   45.6970 C   0  0  0  0  0  0  0  0  0  0  0  0
   60.2755   36.0469   45.6824 H   0  0  0  0  0  0  0  0  0  0  0  0
   59.3090   34.5090   44.4910 C   0  0  0  0  0  0  0  0  0  0  0  0
   59.6647   34.8995   43.5261 H   0  0  0  0  0  0  0  0  0  0  0  0
   58.5110   33.3690   44.5530 C   0  0  0  0  0  0  0  0  0  0  0  0
   57.9520   32.4070   43.2980 S   0  0  0  0  0  0  0  0  0  0  0  0
  1  2  1  0
  2  3  2  0
  3  4  1  0
  3  5  1  0
  5  6  2  0
  6  7  1  0
  6  8  1  0
  8  9  1  0
  9 10  1  0
 10 11  1  0
 10 12  1  0
 10 13  1  0
  8 14  2  0
 14 15  1  0
 14 16  1  0
 16 17  1  0
 16 18  2  0
 18 19  1  0
 19 20  1  0
 20 21  1  0
 20 22  1  0
 20 23  1  0
  2 24  1  0
 24 25  2  0
 25 26  1  0
 26 27  2  0
 27 28  1  0
 27 29  1  0
 29 30  1  0
 29 31  2  0
 31 32  1  0
 31 33  1  0
 33 34  1  0
 33 35  2  0
 35 36  1  0
 18  5  1  0
 36 24  1  0
 35 26  1  0
M  END
>  <UniqueID>  (48) 
46

>  <SMILES>  (48) 
COc1ccc(OC)c(/C=C\c2nc3ccccc3s2)c1

>  <Energy>  (48) 
78.313686351188

>  <Genealogy>  (48) 
COc1ccc(OC)c(/C=C\c2nc3ccccc3s2)c1 (cis-trans isomerization)
COc1ccc(OC)c(/C=C\c2nc3ccccc3s2)c1 (3D coordinates assigned)
COc1ccc(OC)c(/C=C\c2nc3ccccc3s2)c1 (optimized conformer: 78.313686351188 kcal/mol)

>  <smiles>  (48) 
COc1ccc(OC)c(C=Cc2nc3ccccc3s2)c1

>  <score_type>  (48) 
oracle

>  <origin>  (48) 
adg

>  <m_score__min__energy>  (48) 
-7.7400000000000002

>  <m_primary>  (48) 
energy

$$$$
