0:0
     RDKit          3D

 38 40  0  0  0  0  0  0  0  0999 V2000
   65.8750   32.6960   50.1120 C   0  0  0  0  0  0  0  0  0  0  0  0
   64.9540   33.7820   50.0910 O   0  0  0  0  0  0  0  0  0  0  0  0
   63.7270   33.7680   49.4100 C   0  0  0  0  0  0  0  0  0  0  0  0
   63.7090   33.3230   48.0840 C   0  0  0  0  0  0  0  0  0  0  0  0
   62.5130   33.2890   47.3620 C   0  0  0  0  0  0  0  0  0  0  0  0
   61.3100   33.6980   47.9610 C   0  0  0  0  0  0  0  0  0  0  0  0
   60.0790   33.6750   47.2130 N   0  0  0  0  0  0  0  0  0  0  0  0
   60.0730   34.1190   45.8110 C   0  0  0  0  0  0  0  0  0  0  0  0
   58.7180   33.8620   45.1350 C   0  0  0  0  0  0  0  0  0  0  0  0
   58.2060   32.5280   45.4910 N   0  0  0  0  0  0  0  0  0  0  0  0
   57.5440   31.7040   44.5090 C   0  0  0  0  0  0  0  0  0  0  0  0
   56.7910   30.6390   44.9040 N   0  0  0  0  0  0  0  0  0  0  0  0
   56.1560   29.8500   43.9990 C   0  0  0  0  0  0  0  0  0  0  0  0
   56.2670   30.1270   42.6370 C   0  0  0  0  0  0  0  0  0  0  0  0
   57.0370   31.2180   42.2440 C   0  0  0  0  0  0  0  0  0  0  0  0
   57.6570   31.9830   43.1800 N   0  0  0  0  0  0  0  0  0  0  0  0
   58.2580   32.0710   46.8910 C   0  0  0  0  0  0  0  0  0  0  0  0
   58.8510   33.1400   47.8100 C   0  0  0  0  0  0  0  0  0  0  0  0
   61.3280   34.1500   49.2890 C   0  0  0  0  0  0  0  0  0  0  0  0
   62.5240   34.1840   50.0110 C   0  0  0  0  0  0  0  0  0  0  0  0
   66.1022   32.4281   51.1544 H   0  0  0  0  0  0  0  0  0  0  0  0
   65.4321   31.8296   49.5989 H   0  0  0  0  0  0  0  0  0  0  0  0
   66.8021   32.9915   49.5989 H   0  0  0  0  0  0  0  0  0  0  0  0
   64.6443   32.9970   47.6055 H   0  0  0  0  0  0  0  0  0  0  0  0
   62.5136   32.9400   46.3188 H   0  0  0  0  0  0  0  0  0  0  0  0
   60.2879   35.1973   45.7785 H   0  0  0  0  0  0  0  0  0  0  0  0
   60.8390   33.5456   45.2684 H   0  0  0  0  0  0  0  0  0  0  0  0
   57.9984   34.6255   45.4656 H   0  0  0  0  0  0  0  0  0  0  0  0
   58.8508   33.9114   44.0442 H   0  0  0  0  0  0  0  0  0  0  0  0
   55.5552   28.9940   44.3400 H   0  0  0  0  0  0  0  0  0  0  0  0
   55.7584   29.4986   41.8911 H   0  0  0  0  0  0  0  0  0  0  0  0
   57.1434   31.4606   41.1764 H   0  0  0  0  0  0  0  0  0  0  0  0
   57.2376   31.8364   47.2282 H   0  0  0  0  0  0  0  0  0  0  0  0
   58.9018   31.1803   46.9387 H   0  0  0  0  0  0  0  0  0  0  0  0
   58.1232   33.9541   47.9420 H   0  0  0  0  0  0  0  0  0  0  0  0
   59.0844   32.6930   48.7876 H   0  0  0  0  0  0  0  0  0  0  0  0
   60.3933   34.4803   49.7657 H   0  0  0  0  0  0  0  0  0  0  0  0
   62.5254   34.5371   51.0528 H   0  0  0  0  0  0  0  0  0  0  0  0
  1  2  1  0
  2  3  1  0
  3  4  2  0
  4  5  1  0
  5  6  2  0
  6  7  1  0
  7  8  1  0
  8  9  1  0
  9 10  1  0
 10 11  1  0
 11 12  2  0
 12 13  1  0
 13 14  2  0
 14 15  1  0
 15 16  2  0
 10 17  1  0
 17 18  1  0
  6 19  1  0
 19 20  2  0
 20  3  1  0
 18  7  1  0
 16 11  1  0
  1 21  1  0
  1 22  1  0
  1 23  1  0
  4 24  1  0
  5 25  1  0
  8 26  1  0
  8 27  1  0
  9 28  1  0
  9 29  1  0
 13 30  1  0
 14 31  1  0
 15 32  1  0
 17 33  1  0
 17 34  1  0
 18 35  1  0
 18 36  1  0
 19 37  1  0
 20 38  1  0
M  END
>  <UniqueID>  (1) 
1

>  <SMILES>  (1) 
COc1ccc(N2CCN(c3ncccn3)CC2)cc1

>  <Energy>  (1) 
44.859137763567546

>  <Genealogy>  (1) 
COc1ccc(N2CCN(c3ncccn3)CC2)cc1 (3D coordinates assigned)
COc1ccc(N2CCN(c3ncccn3)CC2)cc1 (nonaromatic ring conformer: 44.859137763567546 kcal/mol)

>  <smiles>  (1) 
COc1ccc(N2CCN(c3ncccn3)CC2)cc1

>  <score_type>  (1) 
oracle

>  <origin>  (1) 
adg

>  <m_score__min__energy>  (1) 
-6.7000000000000002

>  <m_primary>  (1) 
energy

$$$$
1:0
     RDKit          3D

 39 41  0  0  0  0  0  0  0  0999 V2000
   56.2980   30.1160   42.6190 C   0  0  0  0  0  0  0  0  0  0  0  0
   57.0890   31.2110   42.2720 C   0  0  0  0  0  0  0  0  0  0  0  0
   57.7300   31.9530   43.2670 C   0  0  0  0  0  0  0  0  0  0  0  0
   57.5650   31.5900   44.6160 C   0  0  0  0  0  0  0  0  0  0  0  0
   58.2260   32.3420   45.7140 C   0  0  0  0  0  0  0  0  0  0  0  0
   58.7110   31.6880   46.8640 C   0  0  0  0  0  0  0  0  0  0  0  0
   59.3450   32.4110   47.8780 C   0  0  0  0  0  0  0  0  0  0  0  0
   59.5180   33.7990   47.7600 C   0  0  0  0  0  0  0  0  0  0  0  0
   60.2300   34.5650   48.8460 C   0  0  0  0  0  0  0  0  0  0  0  0
   61.2080   33.7490   49.5910 N   0  0  0  0  0  0  0  0  0  0  0  0
   62.4950   33.3980   48.9430 C   0  0  0  0  0  0  0  0  0  0  0  0
   62.7540   34.0190   47.5660 C   0  0  0  0  0  0  0  0  0  0  0  0
   63.7360   33.0680   46.9060 C   0  0  0  0  0  0  0  0  0  0  0  0
   63.3600   31.6850   47.4180 C   0  0  0  0  0  0  0  0  0  0  0  0
   62.7480   31.8880   48.8020 C   0  0  0  0  0  0  0  0  0  0  0  0
   59.0310   34.4540   46.6200 C   0  0  0  0  0  0  0  0  0  0  0  0
   58.4000   33.7330   45.6040 C   0  0  0  0  0  0  0  0  0  0  0  0
   56.7920   30.5080   44.9200 N   0  0  0  0  0  0  0  0  0  0  0  0
   56.1630   29.7750   43.9650 C   0  0  0  0  0  0  0  0  0  0  0  0
   55.7872   29.5289   41.8415 H   0  0  0  0  0  0  0  0  0  0  0  0
   57.2081   31.4904   41.2148 H   0  0  0  0  0  0  0  0  0  0  0  0
   58.3589   32.8144   42.9977 H   0  0  0  0  0  0  0  0  0  0  0  0
   58.5896   30.5993   46.9644 H   0  0  0  0  0  0  0  0  0  0  0  0
   59.7109   31.8890   48.7745 H   0  0  0  0  0  0  0  0  0  0  0  0
   60.7603   35.4117   48.3857 H   0  0  0  0  0  0  0  0  0  0  0  0
   59.4665   34.8957   49.5655 H   0  0  0  0  0  0  0  0  0  0  0  0
   60.7470   32.8780   49.9440 H   0  0  0  0  0  0  0  0  0  0  0  0
   63.1938   33.8430   49.6666 H   0  0  0  0  0  0  0  0  0  0  0  0
   61.8220   34.0821   46.9852 H   0  0  0  0  0  0  0  0  0  0  0  0
   63.1432   35.0456   47.6338 H   0  0  0  0  0  0  0  0  0  0  0  0
   63.6397   33.1131   45.8112 H   0  0  0  0  0  0  0  0  0  0  0  0
   64.7789   33.3244   47.1441 H   0  0  0  0  0  0  0  0  0  0  0  0
   62.6283   31.2159   46.7438 H   0  0  0  0  0  0  0  0  0  0  0  0
   64.2387   31.0249   47.4640 H   0  0  0  0  0  0  0  0  0  0  0  0
   61.8016   31.3336   48.8853 H   0  0  0  0  0  0  0  0  0  0  0  0
   63.4164   31.5184   49.5935 H   0  0  0  0  0  0  0  0  0  0  0  0
   59.1468   35.5438   46.5252 H   0  0  0  0  0  0  0  0  0  0  0  0
   58.0355   34.2584   44.7089 H   0  0  0  0  0  0  0  0  0  0  0  0
   55.5461   28.9111   44.2534 H   0  0  0  0  0  0  0  0  0  0  0  0
  1  2  2  0
  2  3  1  0
  3  4  2  0
  4  5  1  0
  5  6  2  0
  6  7  1  0
  7  8  2  0
  8  9  1  0
  9 10  1  0
 10 11  1  0
 11 12  1  0
 12 13  1  0
 13 14  1  0
 14 15  1  0
  8 16  1  0
 16 17  2  0
  4 18  1  0
 18 19  2  0
 19  1  1  0
 17  5  1  0
 15 11  1  0
  1 20  1  0
  2 21  1  0
  3 22  1  0
  6 23  1  0
  7 24  1  0
  9 25  1  0
  9 26  1  0
 10 27  1  0
 11 28  1  0
 12 29  1  0
 12 30  1  0
 13 31  1  0
 13 32  1  0
 14 33  1  0
 14 34  1  0
 15 35  1  0
 15 36  1  0
 16 37  1  0
 17 38  1  0
 19 39  1  0
M  END
>  <UniqueID>  (2) 
2

>  <SMILES>  (2) 
c1ccc(-c2ccc(CNC3CCCC3)cc2)nc1

>  <Energy>  (2) 
53.54322307752248

>  <Genealogy>  (2) 
c1ccc(-c2ccc(CNC3CCCC3)cc2)nc1 (3D coordinates assigned)
c1ccc(-c2ccc(CNC3CCCC3)cc2)nc1 (nonaromatic ring conformer: 53.54322307752248 kcal/mol)

>  <smiles>  (2) 
c1ccc(-c2ccc(CNC3CCCC3)cc2)nc1

>  <score_type>  (2) 
oracle

>  <origin>  (2) 
adg

>  <m_score__min__energy>  (2) 
-7.7300000000000004

>  <m_primary>  (2) 
energy

$$$$
2:0
     RDKit          3D

 36 38  0  0  0  0  0  0  0  0999 V2000
   60.8020   28.4820   44.6470 N   0  0  0  0  0  0  0  0  0  0  0  0
   60.4820   27.4350   45.6130 C   0  0  0  0  0  0  0  0  0  0  0  0
   58.9910   27.2650   45.7540 C   0  0  0  0  0  0  0  0  0  0  0  0
   58.4620   26.0870   46.3000 C   0  0  0  0  0  0  0  0  0  0  0  0
   57.0780   25.9120   46.3890 C   0  0  0  0  0  0  0  0  0  0  0  0
   56.2100   26.9110   45.9360 C   0  0  0  0  0  0  0  0  0  0  0  0
   54.8390   26.6910   45.9920 O   0  0  0  0  0  0  0  0  0  0  0  0
   56.7320   28.1090   45.4080 C   0  0  0  0  0  0  0  0  0  0  0  0
   55.8800   29.1590   44.9270 N   0  0  0  0  0  0  0  0  0  0  0  0
   56.2930   30.2910   44.1530 C   0  0  0  0  0  0  0  0  0  0  0  0
   55.9190   30.3730   42.9520 O   0  0  0  0  0  0  0  0  0  0  0  0
   57.1920   31.3270   44.7000 C   0  0  0  0  0  0  0  0  0  0  0  0
   57.4340   32.5710   44.1260 C   0  0  0  0  0  0  0  0  0  0  0  0
   58.3650   33.3430   44.8330 C   0  0  0  0  0  0  0  0  0  0  0  0
   58.8710   32.7040   45.9660 C   0  0  0  0  0  0  0  0  0  0  0  0
   59.8620   33.2300   46.9280 C   0  0  0  0  0  0  0  0  0  0  0  0
   59.4810   33.7670   48.1720 C   0  0  0  0  0  0  0  0  0  0  0  0
   60.4620   34.2490   49.0410 C   0  0  0  0  0  0  0  0  0  0  0  0
   61.8060   34.1970   48.6730 C   0  0  0  0  0  0  0  0  0  0  0  0
   62.1520   33.6590   47.4320 C   0  0  0  0  0  0  0  0  0  0  0  0
   61.1840   33.1940   46.5990 N   0  0  0  0  0  0  0  0  0  0  0  0
   58.1560   31.1830   46.0730 S   0  0  0  0  0  0  0  0  0  0  0  0
   58.1190   28.2640   45.2920 C   0  0  0  0  0  0  0  0  0  0  0  0
   60.0160   28.5590   43.9610 H   0  0  0  0  0  0  0  0  0  0  0  0
   61.6590   28.2010   44.1160 H   0  0  0  0  0  0  0  0  0  0  0  0
   60.9214   26.4857   45.2728 H   0  0  0  0  0  0  0  0  0  0  0  0
   60.8951   27.7234   46.5909 H   0  0  0  0  0  0  0  0  0  0  0  0
   59.1385   25.2977   46.6596 H   0  0  0  0  0  0  0  0  0  0  0  0
   56.6697   24.9846   46.8171 H   0  0  0  0  0  0  0  0  0  0  0  0
   56.9413   32.9156   43.2048 H   0  0  0  0  0  0  0  0  0  0  0  0
   58.6679   34.3547   44.5251 H   0  0  0  0  0  0  0  0  0  0  0  0
   58.4194   33.8066   48.4573 H   0  0  0  0  0  0  0  0  0  0  0  0
   60.1746   34.6697   50.0159 H   0  0  0  0  0  0  0  0  0  0  0  0
   62.5842   34.5753   49.3522 H   0  0  0  0  0  0  0  0  0  0  0  0
   63.2082   33.6115   47.1284 H   0  0  0  0  0  0  0  0  0  0  0  0
   58.5291   29.1766   44.8348 H   0  0  0  0  0  0  0  0  0  0  0  0
  1  2  1  0
  2  3  1  0
  3  4  2  0
  4  5  1  0
  5  6  2  0
  6  7  1  0
  6  8  1  0
  8  9  1  0
  9 10  1  0
 10 11  2  0
 10 12  1  0
 12 13  2  0
 13 14  1  0
 14 15  2  0
 15 16  1  0
 16 17  2  0
 17 18  1  0
 18 19  2  0
 19 20  1  0
 20 21  2  0
 15 22  1  0
  8 23  2  0
 23  3  1  0
 22 12  1  0
 21 16  1  0
  1 24  1  0
  1 25  1  0
  2 26  1  0
  2 27  1  0
  4 28  1  0
  5 29  1  0
 13 30  1  0
 14 31  1  0
 17 32  1  0
 18 33  1  0
 19 34  1  0
 20 35  1  0
 23 36  1  0
M  CHG  2   7  -1   9  -1
M  END
>  <UniqueID>  (3) 
3

>  <SMILES>  (3) 
NCc1ccc([O-])c([N-]C(=O)c2ccc(-c3ccccn3)s2)c1

>  <Energy>  (3) 
72.05908080119733

>  <Genealogy>  (3) 
NCc1ccc([O-])c([N-]C(=O)c2ccc(-c3ccccn3)s2)c1 (protonated)
NCc1ccc([O-])c([N-]C(=O)c2ccc(-c3ccccn3)s2)c1 (3D coordinates assigned)
NCc1ccc([O-])c([N-]C(=O)c2ccc(-c3ccccn3)s2)c1 (optimized conformer: 72.05908080119733 kcal/mol)

>  <smiles>  (3) 
NCc1ccc(O)c(NC(=O)c2ccc(-c3ccccn3)s2)c1

>  <score_type>  (3) 
oracle

>  <origin>  (3) 
adg

>  <m_score__min__energy>  (3) 
-13.800000000000001

>  <m_primary>  (3) 
energy

$$$$
3:0
     RDKit          3D

 41 43  0  0  0  0  0  0  0  0999 V2000
   58.8680   34.6220   44.8740 C   0  0  0  0  0  0  0  0  0  0  0  0
   57.3920   34.2340   44.8720 C   0  0  0  0  0  0  0  0  0  0  0  0
   57.0190   33.4440   46.1280 C   0  0  0  0  0  0  0  0  0  0  0  0
   57.9520   32.3110   46.3120 N   0  0  0  0  0  0  0  0  0  0  0  0
   59.0320   32.4500   47.1560 C   0  0  0  0  0  0  0  0  0  0  0  0
   59.2030   33.5280   47.7920 O   0  0  0  0  0  0  0  0  0  0  0  0
   59.9710   31.4070   47.3050 C   0  0  0  0  0  0  0  0  0  0  0  0
   61.1660   31.5660   48.1740 C   0  0  0  0  0  0  0  0  0  0  0  0
   61.6670   30.5440   48.7210 O   0  0  0  0  0  0  0  0  0  0  0  0
   61.7380   32.8750   48.4250 N   0  0  0  0  0  0  0  0  0  0  0  0
   62.8640   32.7900   49.3690 C   0  0  0  0  0  0  0  0  0  0  0  0
   64.1540   32.7330   48.5570 C   0  0  0  0  0  0  0  0  0  0  0  0
   63.7700   33.1250   47.1390 C   0  0  0  0  0  0  0  0  0  0  0  0
   62.2850   33.4610   47.1930 C   0  0  0  0  0  0  0  0  0  0  0  0
   59.7770   30.2180   46.5960 C   0  0  0  0  0  0  0  0  0  0  0  0
   58.6930   30.0870   45.7260 C   0  0  0  0  0  0  0  0  0  0  0  0
   58.5020   28.9160   44.9790 C   0  0  0  0  0  0  0  0  0  0  0  0
   57.4240   28.8220   44.0990 C   0  0  0  0  0  0  0  0  0  0  0  0
   56.5440   29.8980   43.9760 C   0  0  0  0  0  0  0  0  0  0  0  0
   56.7380   31.0240   44.7100 N   0  0  0  0  0  0  0  0  0  0  0  0
   57.7820   31.1550   45.5840 C   0  0  0  0  0  0  0  0  0  0  0  0
   59.2213   34.7149   45.9116 H   0  0  0  0  0  0  0  0  0  0  0  0
   59.4516   33.8468   44.3559 H   0  0  0  0  0  0  0  0  0  0  0  0
   58.9949   35.5840   44.3559 H   0  0  0  0  0  0  0  0  0  0  0  0
   56.7820   35.1484   44.8304 H   0  0  0  0  0  0  0  0  0  0  0  0
   57.2033   33.5976   43.9949 H   0  0  0  0  0  0  0  0  0  0  0  0
   57.0742   34.1066   47.0043 H   0  0  0  0  0  0  0  0  0  0  0  0
   55.9965   33.0539   46.0173 H   0  0  0  0  0  0  0  0  0  0  0  0
   61.0170   33.5150   48.8260 H   0  0  0  0  0  0  0  0  0  0  0  0
   62.8721   33.6755   50.0216 H   0  0  0  0  0  0  0  0  0  0  0  0
   62.7684   31.8936   49.9994 H   0  0  0  0  0  0  0  0  0  0  0  0
   64.8932   33.4394   48.9626 H   0  0  0  0  0  0  0  0  0  0  0  0
   64.6091   31.7321   48.5907 H   0  0  0  0  0  0  0  0  0  0  0  0
   64.3500   34.0009   46.8127 H   0  0  0  0  0  0  0  0  0  0  0  0
   63.9778   32.3159   46.4233 H   0  0  0  0  0  0  0  0  0  0  0  0
   62.1481   34.5524   47.2046 H   0  0  0  0  0  0  0  0  0  0  0  0
   61.7665   33.0566   46.3112 H   0  0  0  0  0  0  0  0  0  0  0  0
   60.4810   29.3825   46.7240 H   0  0  0  0  0  0  0  0  0  0  0  0
   59.2008   28.0733   45.0867 H   0  0  0  0  0  0  0  0  0  0  0  0
   57.2689   27.9078   43.5072 H   0  0  0  0  0  0  0  0  0  0  0  0
   55.6918   29.8340   43.2834 H   0  0  0  0  0  0  0  0  0  0  0  0
  1  2  1  0
  2  3  1  0
  3  4  1  0
  4  5  1  0
  5  6  2  0
  5  7  1  0
  7  8  1  0
  8  9  2  0
  8 10  1  0
 10 11  1  0
 11 12  1  0
 12 13  1  0
 13 14  1  0
  7 15  2  0
 15 16  1  0
 16 17  2  0
 17 18  1  0
 18 19  2  0
 19 20  1  0
 20 21  2  0
 21  4  1  0
 14 10  1  0
 21 16  1  0
  1 22  1  0
  1 23  1  0
  1 24  1  0
  2 25  1  0
  2 26  1  0
  3 27  1  0
  3 28  1  0
 10 29  1  0
 11 30  1  0
 11 31  1  0
 12 32  1  0
 12 33  1  0
 13 34  1  0
 13 35  1  0
 14 36  1  0
 14 37  1  0
 15 38  1  0
 17 39  1  0
 18 40  1  0
 19 41  1  0
M  CHG  1  10   1
M  END
>  <UniqueID>  (4) 
4

>  <SMILES>  (4) 
CCCn1c(=O)c(C(=O)[NH+]2CCCC2)cc2cccnc21

>  <Energy>  (4) 
54.27498727153184

>  <Genealogy>  (4) 
CCCn1c(=O)c(C(=O)[NH+]2CCCC2)cc2cccnc21 (protonated)
CCCn1c(=O)c(C(=O)[NH+]2CCCC2)cc2cccnc21 (3D coordinates assigned)
CCCn1c(=O)c(C(=O)[NH+]2CCCC2)cc2cccnc21 (nonaromatic ring conformer: 54.27498727153184 kcal/mol)

>  <smiles>  (4) 
CCCn1c(=O)c(C(=O)N2CCCC2)cc2cccnc21

>  <score_type>  (4) 
oracle

>  <origin>  (4) 
adg

>  <m_score__min__energy>  (4) 
-5.8300000000000001

>  <m_primary>  (4) 
energy

$$$$
4:0
     RDKit          3D

 44 48  0  0  0  0  0  0  0  0999 V2000
   57.4330   21.1550   44.3250 C   0  0  0  0  0  0  0  0  0  0  0  0
   57.0580   21.9960   45.4100 O   0  0  0  0  0  0  0  0  0  0  0  0
   57.3250   23.3730   45.4810 C   0  0  0  0  0  0  0  0  0  0  0  0
   57.4190   24.1740   44.3320 C   0  0  0  0  0  0  0  0  0  0  0  0
   57.6860   25.5470   44.4350 C   0  0  0  0  0  0  0  0  0  0  0  0
   57.7690   26.3150   43.2770 C   0  0  0  0  0  0  0  0  0  0  0  0
   58.0280   27.6740   43.3650 C   0  0  0  0  0  0  0  0  0  0  0  0
   58.2110   28.2810   44.5740 N   0  0  0  0  0  0  0  0  0  0  0  0
   58.4590   29.6280   44.5800 C   0  0  0  0  0  0  0  0  0  0  0  0
   58.6550   30.3300   45.7770 C   0  0  0  0  0  0  0  0  0  0  0  0
   58.6390   29.6120   46.9840 C   0  0  0  0  0  0  0  0  0  0  0  0
   58.3710   28.2400   46.9720 C   0  0  0  0  0  0  0  0  0  0  0  0
   58.1470   27.5580   45.7530 C   0  0  0  0  0  0  0  0  0  0  0  0
   57.8710   26.1530   45.7020 C   0  0  0  0  0  0  0  0  0  0  0  0
   57.7670   25.3300   46.8510 C   0  0  0  0  0  0  0  0  0  0  0  0
   57.4980   23.9520   46.7410 C   0  0  0  0  0  0  0  0  0  0  0  0
   57.3930   23.1200   47.8690 O   0  0  0  0  0  0  0  0  0  0  0  0
   56.1750   22.5810   48.3730 C   0  0  0  0  0  0  0  0  0  0  0  0
   58.8890   30.3200   48.2920 C   0  0  0  0  0  0  0  0  0  0  0  0
   60.3630   31.3730   48.1200 S   0  0  0  0  0  0  0  0  0  0  0  0
   59.5970   32.3950   46.8560 C   0  0  0  0  0  0  0  0  0  0  0  0
   59.7040   33.7870   46.9490 C   0  0  0  0  0  0  0  0  0  0  0  0
   59.1400   34.6020   45.9680 C   0  0  0  0  0  0  0  0  0  0  0  0
   58.4520   34.0320   44.8960 C   0  0  0  0  0  0  0  0  0  0  0  0
   58.3170   32.6440   44.8070 C   0  0  0  0  0  0  0  0  0  0  0  0
   58.8910   31.8050   45.7850 C   0  0  0  0  0  0  0  0  0  0  0  0
   57.8516   20.2161   44.7165 H   0  0  0  0  0  0  0  0  0  0  0  0
   56.5483   20.9336   43.7099 H   0  0  0  0  0  0  0  0  0  0  0  0
   58.1889   21.6652   43.7099 H   0  0  0  0  0  0  0  0  0  0  0  0
   57.2817   23.7197   43.3397 H   0  0  0  0  0  0  0  0  0  0  0  0
   57.6292   25.8439   42.2929 H   0  0  0  0  0  0  0  0  0  0  0  0
   58.0871   28.2736   42.4447 H   0  0  0  0  0  0  0  0  0  0  0  0
   58.5054   30.1707   43.6243 H   0  0  0  0  0  0  0  0  0  0  0  0
   58.3339   27.6847   47.9208 H   0  0  0  0  0  0  0  0  0  0  0  0
   57.8989   25.7760   47.8478 H   0  0  0  0  0  0  0  0  0  0  0  0
   56.1970   22.5908   49.4727 H   0  0  0  0  0  0  0  0  0  0  0  0
   55.3301   23.1893   48.0178 H   0  0  0  0  0  0  0  0  0  0  0  0
   56.0570   21.5466   48.0178 H   0  0  0  0  0  0  0  0  0  0  0  0
   58.0185   30.9421   48.5474 H   0  0  0  0  0  0  0  0  0  0  0  0
   59.0500   29.5811   49.0909 H   0  0  0  0  0  0  0  0  0  0  0  0
   60.2350   34.2402   47.7991 H   0  0  0  0  0  0  0  0  0  0  0  0
   59.2375   35.6953   46.0393 H   0  0  0  0  0  0  0  0  0  0  0  0
   58.0150   34.6768   44.1193 H   0  0  0  0  0  0  0  0  0  0  0  0
   57.7590   32.2024   43.9681 H   0  0  0  0  0  0  0  0  0  0  0  0
  1  2  1  0
  2  3  1  0
  3  4  2  0
  4  5  1  0
  5  6  2  0
  6  7  1  0
  7  8  2  0
  8  9  1  0
  9 10  2  0
 10 11  1  0
 11 12  2  0
 12 13  1  0
 13 14  2  0
 14 15  1  0
 15 16  2  0
 16 17  1  0
 17 18  1  0
 11 19  1  0
 19 20  1  0
 20 21  1  0
 21 22  2  0
 22 23  1  0
 23 24  2  0
 24 25  1  0
 25 26  2  0
 16  3  1  0
 26 21  1  0
 14  5  1  0
 13  8  1  0
 26 10  1  0
  1 27  1  0
  1 28  1  0
  1 29  1  0
  4 30  1  0
  6 31  1  0
  7 32  1  0
  9 33  1  0
 12 34  1  0
 15 35  1  0
 18 36  1  0
 18 37  1  0
 18 38  1  0
 19 39  1  0
 19 40  1  0
 22 41  1  0
 23 42  1  0
 24 43  1  0
 25 44  1  0
M  CHG  1   8   1
M  END
>  <UniqueID>  (5) 
5

>  <SMILES>  (5) 
COc1cc2cc[n+]3cc4c(cc3c2cc1OC)CSc1ccccc1-4

>  <Energy>  (5) 
71.43584592984007

>  <Genealogy>  (5) 
COc1cc2cc[n+]3cc4c(cc3c2cc1OC)CSc1ccccc1-4 (3D coordinates assigned)
COc1cc2cc[n+]3cc4c(cc3c2cc1OC)CSc1ccccc1-4 (nonaromatic ring conformer: 71.43584592984007 kcal/mol)

>  <smiles>  (5) 
COc1cc2cc[n+]3cc4c(cc3c2cc1OC)CSc1ccccc1-4

>  <score_type>  (5) 
oracle

>  <origin>  (5) 
adg

>  <m_score__min__energy>  (5) 
-6.46

>  <m_primary>  (5) 
energy

$$$$
5:0
     RDKit          3D

 44 46  0  0  0  0  0  0  0  0999 V2000
   59.7990   28.5380   45.5560 C   0  0  0  0  0  0  0  0  0  0  0  0
   58.7190   29.3270   44.8780 C   0  0  0  0  0  0  0  0  0  0  0  0
   57.6790   28.6690   44.2040 C   0  0  0  0  0  0  0  0  0  0  0  0
   56.6550   29.4030   43.6010 C   0  0  0  0  0  0  0  0  0  0  0  0
   56.6530   30.7980   43.6790 C   0  0  0  0  0  0  0  0  0  0  0  0
   57.6740   31.4690   44.3700 C   0  0  0  0  0  0  0  0  0  0  0  0
   57.6830   32.9740   44.4480 C   0  0  0  0  0  0  0  0  0  0  0  0
   57.0070   33.4320   45.6710 N   0  0  0  0  0  0  0  0  0  0  0  0
   57.9510   33.8190   46.7340 C   0  0  0  0  0  0  0  0  0  0  0  0
   59.2160   34.4960   46.1780 C   0  0  0  0  0  0  0  0  0  0  0  0
   60.4080   34.1740   47.0410 C   0  0  0  0  0  0  0  0  0  0  0  0
   61.5850   33.6810   46.4590 C   0  0  0  0  0  0  0  0  0  0  0  0
   62.7070   33.4120   47.2490 C   0  0  0  0  0  0  0  0  0  0  0  0
   62.6750   33.6410   48.6350 C   0  0  0  0  0  0  0  0  0  0  0  0
   63.8320   33.3640   49.4480 N   0  0  0  0  0  0  0  0  0  0  0  0
   63.9410   33.5520   50.7810 C   0  0  0  0  0  0  0  0  0  0  0  0
   65.2050   33.1640   51.1810 C   0  0  0  0  0  0  0  0  0  0  0  0
   65.8330   32.7440   50.0240 C   0  0  0  0  0  0  0  0  0  0  0  0
   64.9770   32.8750   48.9940 N   0  0  0  0  0  0  0  0  0  0  0  0
   61.4970   34.1470   49.2140 C   0  0  0  0  0  0  0  0  0  0  0  0
   60.3750   34.4180   48.4250 C   0  0  0  0  0  0  0  0  0  0  0  0
   59.2610   34.9270   49.0090 F   0  0  0  0  0  0  0  0  0  0  0  0
   58.7040   30.7280   44.9700 C   0  0  0  0  0  0  0  0  0  0  0  0
   59.6844   28.6217   46.6468 H   0  0  0  0  0  0  0  0  0  0  0  0
   59.7226   27.4815   45.2593 H   0  0  0  0  0  0  0  0  0  0  0  0
   60.7822   28.9320   45.2593 H   0  0  0  0  0  0  0  0  0  0  0  0
   57.6701   27.5703   44.1503 H   0  0  0  0  0  0  0  0  0  0  0  0
   55.8488   28.8819   43.0638 H   0  0  0  0  0  0  0  0  0  0  0  0
   55.8483   31.3726   43.1971 H   0  0  0  0  0  0  0  0  0  0  0  0
   58.7239   33.3296   44.4553 H   0  0  0  0  0  0  0  0  0  0  0  0
   57.1495   33.3780   43.5750 H   0  0  0  0  0  0  0  0  0  0  0  0
   56.3910   34.2450   45.4340 H   0  0  0  0  0  0  0  0  0  0  0  0
   57.4468   34.5190   47.4164 H   0  0  0  0  0  0  0  0  0  0  0  0
   58.2632   32.9020   47.2551 H   0  0  0  0  0  0  0  0  0  0  0  0
   59.4007   34.1344   45.1557 H   0  0  0  0  0  0  0  0  0  0  0  0
   59.0639   35.5854   46.1726 H   0  0  0  0  0  0  0  0  0  0  0  0
   61.6258   33.5048   45.3740 H   0  0  0  0  0  0  0  0  0  0  0  0
   63.6217   33.0181   46.7819 H   0  0  0  0  0  0  0  0  0  0  0  0
   63.1537   33.9484   51.4391 H   0  0  0  0  0  0  0  0  0  0  0  0
   65.6211   33.1848   52.1991 H   0  0  0  0  0  0  0  0  0  0  0  0
   66.8634   32.3649   49.9561 H   0  0  0  0  0  0  0  0  0  0  0  0
   65.1910   32.6550   47.9970 H   0  0  0  0  0  0  0  0  0  0  0  0
   61.4582   34.3312   50.2978 H   0  0  0  0  0  0  0  0  0  0  0  0
   59.5048   31.2483   45.5159 H   0  0  0  0  0  0  0  0  0  0  0  0
  1  2  1  0
  2  3  2  0
  3  4  1  0
  4  5  2  0
  5  6  1  0
  6  7  1  0
  7  8  1  0
  8  9  1  0
  9 10  1  0
 10 11  1  0
 11 12  2  0
 12 13  1  0
 13 14  2  0
 14 15  1  0
 15 16  1  0
 16 17  2  0
 17 18  1  0
 18 19  2  0
 14 20  1  0
 20 21  2  0
 21 22  1  0
  6 23  2  0
 23  2  1  0
 21 11  1  0
 19 15  1  0
  1 24  1  0
  1 25  1  0
  1 26  1  0
  3 27  1  0
  4 28  1  0
  5 29  1  0
  7 30  1  0
  7 31  1  0
  8 32  1  0
  9 33  1  0
  9 34  1  0
 10 35  1  0
 10 36  1  0
 12 37  1  0
 13 38  1  0
 16 39  1  0
 17 40  1  0
 18 41  1  0
 19 42  1  0
 20 43  1  0
 23 44  1  0
M  CHG  1  19   1
M  END
>  <UniqueID>  (6) 
6

>  <SMILES>  (6) 
Cc1cccc(CNCCc2ccc(-n3ccc[nH+]3)cc2F)c1

>  <Energy>  (6) 
77.20953042022788

>  <Genealogy>  (6) 
Cc1cccc(CNCCc2ccc(-n3ccc[nH+]3)cc2F)c1 (protonated)
Cc1cccc(CNCCc2ccc(-n3ccc[nH+]3)cc2F)c1 (3D coordinates assigned)
Cc1cccc(CNCCc2ccc(-n3ccc[nH+]3)cc2F)c1 (optimized conformer: 77.20953042022788 kcal/mol)

>  <smiles>  (6) 
Cc1cccc(CNCCc2ccc(-n3cccn3)cc2F)c1

>  <score_type>  (6) 
oracle

>  <origin>  (6) 
adg

>  <m_score__min__energy>  (6) 
-6.7300000000000004

>  <m_primary>  (6) 
energy

$$$$
6:0
     RDKit          3D

 52 56  0  0  0  0  0  0  0  0999 V2000
   62.4750   32.2160   52.8200 C   0  0  0  0  0  0  0  0  0  0  0  0
   61.1980   32.8840   52.3780 C   0  0  0  0  0  0  0  0  0  0  0  0
   60.3390   33.4310   53.3430 C   0  0  0  0  0  0  0  0  0  0  0  0
   59.1610   34.0670   52.9620 C   0  0  0  0  0  0  0  0  0  0  0  0
   58.8240   34.1720   51.6130 C   0  0  0  0  0  0  0  0  0  0  0  0
   59.6600   33.6350   50.6220 C   0  0  0  0  0  0  0  0  0  0  0  0
   59.2890   33.7840   49.2380 N   0  0  0  0  0  0  0  0  0  0  0  0
   59.9130   34.5910   48.3790 N   0  0  0  0  0  0  0  0  0  0  0  0
   59.2770   34.4160   47.2070 C   0  0  0  0  0  0  0  0  0  0  0  0
   59.5190   35.0260   45.9810 C   0  0  0  0  0  0  0  0  0  0  0  0
   58.6890   34.6590   44.9020 C   0  0  0  0  0  0  0  0  0  0  0  0
   57.6570   33.7060   45.0800 C   0  0  0  0  0  0  0  0  0  0  0  0
   57.4420   33.1110   46.3390 C   0  0  0  0  0  0  0  0  0  0  0  0
   58.2840   33.5010   47.3770 C   0  0  0  0  0  0  0  0  0  0  0  0
   58.3020   33.1050   48.6560 N   0  0  0  0  0  0  0  0  0  0  0  0
   60.8580   32.9800   51.0060 C   0  0  0  0  0  0  0  0  0  0  0  0
   61.7860   32.4500   49.9840 C   0  0  0  0  0  0  0  0  0  0  0  0
   62.8640   33.0700   49.7790 O   0  0  0  0  0  0  0  0  0  0  0  0
   61.4800   31.2560   49.2270 N   0  0  0  0  0  0  0  0  0  0  0  0
   60.4630   30.3000   49.6950 C   0  0  0  0  0  0  0  0  0  0  0  0
   59.2020   30.3890   48.8310 C   0  0  0  0  0  0  0  0  0  0  0  0
   59.3300   29.7600   47.4550 C   0  0  0  0  0  0  0  0  0  0  0  0
   58.3970   28.7550   47.1300 C   0  0  0  0  0  0  0  0  0  0  0  0
   58.4610   28.0790   45.9130 C   0  0  0  0  0  0  0  0  0  0  0  0
   59.4640   28.3830   44.9990 C   0  0  0  0  0  0  0  0  0  0  0  0
   60.4130   29.3580   45.3030 C   0  0  0  0  0  0  0  0  0  0  0  0
   60.3830   30.0430   46.5330 C   0  0  0  0  0  0  0  0  0  0  0  0
   61.4260   31.1260   46.7420 C   0  0  0  0  0  0  0  0  0  0  0  0
   62.2610   30.9600   48.0160 C   0  0  0  0  0  0  0  0  0  0  0  0
   62.5162   32.1945   53.9190 H   0  0  0  0  0  0  0  0  0  0  0  0
   62.5040   31.1872   52.4318 H   0  0  0  0  0  0  0  0  0  0  0  0
   63.3366   32.7789   52.4318 H   0  0  0  0  0  0  0  0  0  0  0  0
   60.5986   33.3566   54.4093 H   0  0  0  0  0  0  0  0  0  0  0  0
   58.4934   34.4884   53.7280 H   0  0  0  0  0  0  0  0  0  0  0  0
   57.8931   34.6811   51.3226 H   0  0  0  0  0  0  0  0  0  0  0  0
   60.3249   35.7645   45.8581 H   0  0  0  0  0  0  0  0  0  0  0  0
   58.8444   35.1167   43.9139 H   0  0  0  0  0  0  0  0  0  0  0  0
   57.0182   33.4280   44.2288 H   0  0  0  0  0  0  0  0  0  0  0  0
   56.6436   32.3706   46.4950 H   0  0  0  0  0  0  0  0  0  0  0  0
   57.6630   32.4210   49.1200 H   0  0  0  0  0  0  0  0  0  0  0  0
   60.8709   29.2802   49.6354 H   0  0  0  0  0  0  0  0  0  0  0  0
   60.1987   30.5438   50.7346 H   0  0  0  0  0  0  0  0  0  0  0  0
   58.3845   29.8822   49.3647 H   0  0  0  0  0  0  0  0  0  0  0  0
   59.0130   31.4601   48.6666 H   0  0  0  0  0  0  0  0  0  0  0  0
   57.6048   28.4998   47.8492 H   0  0  0  0  0  0  0  0  0  0  0  0
   57.7173   27.3041   45.6751 H   0  0  0  0  0  0  0  0  0  0  0  0
   59.5086   27.8539   44.0356 H   0  0  0  0  0  0  0  0  0  0  0  0
   61.1980   29.5961   44.5701 H   0  0  0  0  0  0  0  0  0  0  0  0
   62.1085   31.1181   45.8794 H   0  0  0  0  0  0  0  0  0  0  0  0
   60.8787   32.0746   46.8455 H   0  0  0  0  0  0  0  0  0  0  0  0
   62.6230   29.9227   48.0711 H   0  0  0  0  0  0  0  0  0  0  0  0
   63.0991   31.6709   47.9690 H   0  0  0  0  0  0  0  0  0  0  0  0
  1  2  1  0
  2  3  2  0
  3  4  1  0
  4  5  2  0
  5  6  1  0
  6  7  1  0
  7  8  1  0
  8  9  2  0
  9 10  1  0
 10 11  2  0
 11 12  1  0
 12 13  2  0
 13 14  1  0
 14 15  2  0
  6 16  2  0
 16 17  1  0
 17 18  2  0
 17 19  1  0
 19 20  1  0
 20 21  1  0
 21 22  1  0
 22 23  2  0
 23 24  1  0
 24 25  2  0
 25 26  1  0
 26 27  2  0
 27 28  1  0
 28 29  1  0
 16  2  1  0
 29 19  1  0
 15  7  1  0
 27 22  1  0
 14  9  1  0
  1 30  1  0
  1 31  1  0
  1 32  1  0
  3 33  1  0
  4 34  1  0
  5 35  1  0
 10 36  1  0
 11 37  1  0
 12 38  1  0
 13 39  1  0
 15 40  1  0
 20 41  1  0
 20 42  1  0
 21 43  1  0
 21 44  1  0
 23 45  1  0
 24 46  1  0
 25 47  1  0
 26 48  1  0
 28 49  1  0
 28 50  1  0
 29 51  1  0
 29 52  1  0
M  CHG  1  15   1
M  END
>  <UniqueID>  (7) 
7

>  <SMILES>  (7) 
Cc1cccc(-n2nc3ccccc3[nH+]2)c1C(=O)N1CCc2ccccc2CC1

>  <Energy>  (7) 
122.18421786401706

>  <Genealogy>  (7) 
Cc1cccc(-n2nc3ccccc3[nH+]2)c1C(=O)N1CCc2ccccc2CC1 (protonated)
Cc1cccc(-n2nc3ccccc3[nH+]2)c1C(=O)N1CCc2ccccc2CC1 (3D coordinates assigned)
Cc1cccc(-n2nc3ccccc3[nH+]2)c1C(=O)N1CCc2ccccc2CC1 (nonaromatic ring conformer: 122.18421786401706 kcal/mol)

>  <smiles>  (7) 
Cc1cccc(-n2nc3ccccc3n2)c1C(=O)N1CCc2ccccc2CC1

>  <score_type>  (7) 
oracle

>  <origin>  (7) 
adg

>  <m_score__min__energy>  (7) 
-5.9199999999999999

>  <m_primary>  (7) 
energy

$$$$
7:0
     RDKit          3D

 55 57  0  0  0  0  0  0  0  0999 V2000
   62.9020   34.1780   46.6100 F   0  0  0  0  0  0  0  0  0  0  0  0
   62.2190   33.0400   46.9930 C   0  0  0  0  0  0  0  0  0  0  0  0
   61.2100   32.8040   46.0740 F   0  0  0  0  0  0  0  0  0  0  0  0
   63.0790   31.9580   46.9640 F   0  0  0  0  0  0  0  0  0  0  0  0
   61.6640   33.2340   48.3880 C   0  0  0  0  0  0  0  0  0  0  0  0
   62.4650   32.9490   49.5120 C   0  0  0  0  0  0  0  0  0  0  0  0
   61.9610   33.1040   50.8060 C   0  0  0  0  0  0  0  0  0  0  0  0
   60.6490   33.5340   50.9990 C   0  0  0  0  0  0  0  0  0  0  0  0
   59.8350   33.8030   49.8990 C   0  0  0  0  0  0  0  0  0  0  0  0
   60.3250   33.6480   48.5940 C   0  0  0  0  0  0  0  0  0  0  0  0
   59.4500   33.9190   47.4880 N   0  0  0  0  0  0  0  0  0  0  0  0
   59.6510   35.1470   46.7170 C   0  0  0  0  0  0  0  0  0  0  0  0
   59.1730   34.9810   45.2570 C   0  0  0  0  0  0  0  0  0  0  0  0
   58.0640   34.0050   45.0750 N   0  0  0  0  0  0  0  0  0  0  0  0
   58.5340   32.7460   44.4480 C   0  0  0  0  0  0  0  0  0  0  0  0
   57.5550   32.2230   43.3930 C   0  0  0  0  0  0  0  0  0  0  0  0
   57.8400   30.8630   43.1330 O   0  0  0  0  0  0  0  0  0  0  0  0
   56.6430   30.1190   42.9990 C   0  0  0  0  0  0  0  0  0  0  0  0
   56.0510   29.8220   44.3800 C   0  0  0  0  0  0  0  0  0  0  0  0
   56.7590   28.6340   45.0420 C   0  0  0  0  0  0  0  0  0  0  0  0
   58.1440   29.0250   45.4850 C   0  0  0  0  0  0  0  0  0  0  0  0
   58.3190   29.9430   46.5330 C   0  0  0  0  0  0  0  0  0  0  0  0
   59.6050   30.3300   46.9240 C   0  0  0  0  0  0  0  0  0  0  0  0
   60.7230   29.8100   46.2640 C   0  0  0  0  0  0  0  0  0  0  0  0
   60.5560   28.9070   45.2110 C   0  0  0  0  0  0  0  0  0  0  0  0
   59.2710   28.5180   44.8180 C   0  0  0  0  0  0  0  0  0  0  0  0
   57.2810   33.8040   46.3130 C   0  0  0  0  0  0  0  0  0  0  0  0
   58.1470   33.2500   47.4520 C   0  0  0  0  0  0  0  0  0  0  0  0
   63.4985   32.6006   49.3690 H   0  0  0  0  0  0  0  0  0  0  0  0
   62.6007   32.8863   51.6740 H   0  0  0  0  0  0  0  0  0  0  0  0
   60.2560   33.6611   52.0185 H   0  0  0  0  0  0  0  0  0  0  0  0
   58.7997   34.1397   50.0562 H   0  0  0  0  0  0  0  0  0  0  0  0
   59.0835   35.9627   47.1888 H   0  0  0  0  0  0  0  0  0  0  0  0
   60.7269   35.3759   46.7050 H   0  0  0  0  0  0  0  0  0  0  0  0
   58.8301   35.9614   44.8947 H   0  0  0  0  0  0  0  0  0  0  0  0
   60.0304   34.5876   44.6912 H   0  0  0  0  0  0  0  0  0  0  0  0
   59.5062   32.9311   43.9679 H   0  0  0  0  0  0  0  0  0  0  0  0
   58.6155   31.9856   45.2387 H   0  0  0  0  0  0  0  0  0  0  0  0
   56.5248   32.3188   43.7665 H   0  0  0  0  0  0  0  0  0  0  0  0
   57.6598   32.8077   42.4672 H   0  0  0  0  0  0  0  0  0  0  0  0
   55.9180   30.6992   42.4094 H   0  0  0  0  0  0  0  0  0  0  0  0
   56.8643   29.1692   42.4901 H   0  0  0  0  0  0  0  0  0  0  0  0
   56.1666   30.7101   45.0187 H   0  0  0  0  0  0  0  0  0  0  0  0
   54.9875   29.5694   44.2565 H   0  0  0  0  0  0  0  0  0  0  0  0
   56.1776   28.3081   45.9171 H   0  0  0  0  0  0  0  0  0  0  0  0
   56.8372   27.8149   44.3119 H   0  0  0  0  0  0  0  0  0  0  0  0
   57.4411   30.3595   47.0486 H   0  0  0  0  0  0  0  0  0  0  0  0
   59.7370   31.0435   47.7508 H   0  0  0  0  0  0  0  0  0  0  0  0
   61.7343   30.1121   46.5740 H   0  0  0  0  0  0  0  0  0  0  0  0
   61.4360   28.5014   44.6903 H   0  0  0  0  0  0  0  0  0  0  0  0
   59.1429   27.8126   43.9837 H   0  0  0  0  0  0  0  0  0  0  0  0
   56.8560   34.7691   46.6260 H   0  0  0  0  0  0  0  0  0  0  0  0
   56.4874   33.0726   46.1004 H   0  0  0  0  0  0  0  0  0  0  0  0
   57.6311   33.4137   48.4096 H   0  0  0  0  0  0  0  0  0  0  0  0
   58.3073   32.1751   47.2821 H   0  0  0  0  0  0  0  0  0  0  0  0
  1  2  1  0
  2  3  1  0
  2  4  1  0
  2  5  1  0
  5  6  2  0
  6  7  1  0
  7  8  2  0
  8  9  1  0
  9 10  2  0
 10 11  1  0
 11 12  1  0
 12 13  1  0
 13 14  1  0
 14 15  1  0
 15 16  1  0
 16 17  1  0
 17 18  1  0
 18 19  1  0
 19 20  1  0
 20 21  1  0
 21 22  2  0
 22 23  1  0
 23 24  2  0
 24 25  1  0
 25 26  2  0
 14 27  1  0
 27 28  1  0
 10  5  1  0
 28 11  1  0
 26 21  1  0
  6 29  1  0
  7 30  1  0
  8 31  1  0
  9 32  1  0
 12 33  1  0
 12 34  1  0
 13 35  1  0
 13 36  1  0
 15 37  1  0
 15 38  1  0
 16 39  1  0
 16 40  1  0
 18 41  1  0
 18 42  1  0
 19 43  1  0
 19 44  1  0
 20 45  1  0
 20 46  1  0
 22 47  1  0
 23 48  1  0
 24 49  1  0
 25 50  1  0
 26 51  1  0
 27 52  1  0
 27 53  1  0
 28 54  1  0
 28 55  1  0
M  END
>  <UniqueID>  (8) 
8

>  <SMILES>  (8) 
FC(F)(F)c1ccccc1N1CCN(CCOCCCc2ccccc2)CC1

>  <Energy>  (8) 
68.59740354155677

>  <Genealogy>  (8) 
FC(F)(F)c1ccccc1N1CCN(CCOCCCc2ccccc2)CC1 (3D coordinates assigned)
FC(F)(F)c1ccccc1N1CCN(CCOCCCc2ccccc2)CC1 (nonaromatic ring conformer: 68.59740354155677 kcal/mol)

>  <smiles>  (8) 
FC(F)(F)c1ccccc1N1CCN(CCOCCCc2ccccc2)CC1

>  <score_type>  (8) 
oracle

>  <origin>  (8) 
adg

>  <m_score__min__energy>  (8) 
-7.8200000000000003

>  <m_primary>  (8) 
energy

$$$$
8:0
     RDKit          3D

 38 39  0  0  0  0  0  0  0  0999 V2000
   56.2660   29.3710   42.5550 C   0  0  0  0  0  0  0  0  0  0  0  0
   56.7240   29.6980   44.2440 S   0  0  0  0  0  0  0  0  0  0  0  0
   56.1400   28.6390   45.1370 O   0  0  0  0  0  0  0  0  0  0  0  0
   56.1690   31.0350   44.6470 O   0  0  0  0  0  0  0  0  0  0  0  0
   58.4550   29.7310   44.4010 N   0  0  0  0  0  0  0  0  0  0  0  0
   58.8740   30.9710   45.0560 C   0  0  0  0  0  0  0  0  0  0  0  0
   59.1340   30.7120   46.5190 C   0  0  0  0  0  0  0  0  0  0  0  0
   59.6770   29.4810   46.9180 C   0  0  0  0  0  0  0  0  0  0  0  0
   59.9070   29.2190   48.2680 C   0  0  0  0  0  0  0  0  0  0  0  0
   59.5830   30.1860   49.2180 C   0  0  0  0  0  0  0  0  0  0  0  0
   59.0400   31.3670   48.8260 N   0  0  0  0  0  0  0  0  0  0  0  0
   58.8030   31.6550   47.5170 C   0  0  0  0  0  0  0  0  0  0  0  0
   58.0540   33.1960   47.1240 S   0  0  0  0  0  0  0  0  0  0  0  0
   56.8560   32.9900   45.9660 O   0  0  0  0  0  0  0  0  0  0  0  0
   59.2610   34.3980   46.6040 C   0  0  0  0  0  0  0  0  0  0  0  0
   60.5940   34.0880   47.2270 C   0  0  0  0  0  0  0  0  0  0  0  0
   61.6810   33.7380   46.4100 C   0  0  0  0  0  0  0  0  0  0  0  0
   62.9370   33.4930   46.9720 C   0  0  0  0  0  0  0  0  0  0  0  0
   63.1200   33.6070   48.3520 C   0  0  0  0  0  0  0  0  0  0  0  0
   64.3420   33.3780   48.8950 F   0  0  0  0  0  0  0  0  0  0  0  0
   62.0470   33.9620   49.1720 C   0  0  0  0  0  0  0  0  0  0  0  0
   60.7870   34.2030   48.6170 C   0  0  0  0  0  0  0  0  0  0  0  0
   59.7590   34.5520   49.4320 F   0  0  0  0  0  0  0  0  0  0  0  0
   55.3709   28.7319   42.5350 H   0  0  0  0  0  0  0  0  0  0  0  0
   56.0502   30.3205   42.0432 H   0  0  0  0  0  0  0  0  0  0  0  0
   57.0939   28.8586   42.0432 H   0  0  0  0  0  0  0  0  0  0  0  0
   58.8480   29.7260   43.4320 H   0  0  0  0  0  0  0  0  0  0  0  0
   59.7944   31.3420   44.5814 H   0  0  0  0  0  0  0  0  0  0  0  0
   58.0771   31.7226   44.9557 H   0  0  0  0  0  0  0  0  0  0  0  0
   59.9221   28.7198   46.1627 H   0  0  0  0  0  0  0  0  0  0  0  0
   60.3404   28.2575   48.5806 H   0  0  0  0  0  0  0  0  0  0  0  0
   59.7672   29.9924   50.2850 H   0  0  0  0  0  0  0  0  0  0  0  0
   56.6480   32.0220   45.9950 H   0  0  0  0  0  0  0  0  0  0  0  0
   59.3551   34.3698   45.5084 H   0  0  0  0  0  0  0  0  0  0  0  0
   58.9360   35.3990   46.9239 H   0  0  0  0  0  0  0  0  0  0  0  0
   61.5433   33.6562   45.3217 H   0  0  0  0  0  0  0  0  0  0  0  0
   63.7820   33.2102   46.3270 H   0  0  0  0  0  0  0  0  0  0  0  0
   62.1938   34.0523   50.2584 H   0  0  0  0  0  0  0  0  0  0  0  0
  1  2  1  0
  2  3  2  0
  2  4  2  0
  2  5  1  0
  5  6  1  0
  6  7  1  0
  7  8  2  0
  8  9  1  0
  9 10  2  0
 10 11  1  0
 11 12  2  0
 12 13  1  0
 13 14  1  6
 13 15  1  0
 15 16  1  0
 16 17  2  0
 17 18  1  0
 18 19  2  0
 19 20  1  0
 19 21  1  0
 21 22  2  0
 22 23  1  0
 12  7  1  0
 22 16  1  0
  1 24  1  0
  1 25  1  0
  1 26  1  0
  5 27  1  0
  6 28  1  0
  6 29  1  0
  8 30  1  0
  9 31  1  0
 10 32  1  0
 14 33  1  0
 15 34  1  0
 15 35  1  0
 17 36  1  0
 18 37  1  0
 21 38  1  0
M  CHG  1  13   1
M  END
>  <UniqueID>  (9) 
9

>  <SMILES>  (9) 
CS(=O)(=O)NCc1cccnc1[S@+](O)Cc1ccc(F)cc1F

>  <Energy>  (9) 
23.32053336428243

>  <Genealogy>  (9) 
CS(=O)(=O)NCc1cccnc1[S+](O)Cc1ccc(F)cc1F (protonated)
CS(=O)(=O)NCc1cccnc1[S@+](O)Cc1ccc(F)cc1F (chirality)
CS(=O)(=O)NCc1cccnc1[S@+](O)Cc1ccc(F)cc1F (3D coordinates assigned)
CS(=O)(=O)NCc1cccnc1[S@+](O)Cc1ccc(F)cc1F (optimized conformer: 23.32053336428243 kcal/mol)

>  <smiles>  (9) 
CS(=O)(=O)NCc1cccnc1[S+]([O-])Cc1ccc(F)cc1F

>  <score_type>  (9) 
oracle

>  <origin>  (9) 
adg

>  <m_score__min__energy>  (9) 
-6.25

>  <m_primary>  (9) 
energy

$$$$
9:0
     RDKit          3D

 39 41  0  0  1  0  0  0  0  0999 V2000
   54.7920   24.9090   45.6210 C   0  0  0  0  0  0  0  0  0  0  0  0
   55.1560   26.2010   46.0040 O   0  0  0  0  0  0  0  0  0  0  0  0
   56.4440   26.7080   46.0420 C   0  0  0  0  0  0  0  0  0  0  0  0
   57.4890   26.0990   46.7040 C   0  0  0  0  0  0  0  0  0  0  0  0
   58.7380   26.6870   46.6810 C   0  0  0  0  0  0  0  0  0  0  0  0
   59.0030   27.8710   46.0230 C   0  0  0  0  0  0  0  0  0  0  0  0
   57.9310   28.4780   45.3550 C   0  0  0  0  0  0  0  0  0  0  0  0
   58.0850   29.7420   44.6030 C   0  0  0  0  0  0  0  0  0  0  0  0
   57.3620   30.7960   45.2420 N   0  0  0  0  0  0  0  0  0  0  0  0
   57.7610   31.9560   45.5520 C   0  0  0  0  0  0  0  0  0  0  0  0
   58.9640   32.1460   46.2470 C   0  0  0  0  0  0  0  0  0  0  0  0
   59.3890   33.4240   46.5800 C   0  0  0  0  0  0  0  0  0  0  0  0
   60.6390   33.6240   47.3020 C   0  0  0  0  0  0  0  0  0  0  0  0
   61.8820   33.4530   46.7250 C   0  0  0  0  0  0  0  0  0  0  0  0
   63.0670   33.6450   47.4220 C   0  0  0  0  0  0  0  0  0  0  0  0
   63.0550   34.0240   48.7460 C   0  0  0  0  0  0  0  0  0  0  0  0
   61.8300   34.2000   49.3400 C   0  0  0  0  0  0  0  0  0  0  0  0
   60.6350   34.0040   48.6340 C   0  0  0  0  0  0  0  0  0  0  0  0
   58.5850   34.4320   46.1970 N   0  0  0  0  0  0  0  0  0  0  0  0
   57.4290   34.2430   45.5270 C   0  0  0  0  0  0  0  0  0  0  0  0
   57.0170   33.0080   45.2050 N   0  0  0  0  0  0  0  0  0  0  0  0
   56.6670   27.8950   45.3710 C   0  0  0  0  0  0  0  0  0  0  0  0
   54.6192   24.2957   46.5177 H   0  0  0  0  0  0  0  0  0  0  0  0
   53.8705   24.9501   45.0217 H   0  0  0  0  0  0  0  0  0  0  0  0
   55.5995   24.4630   45.0217 H   0  0  0  0  0  0  0  0  0  0  0  0
   57.3293   25.1545   47.2448 H   0  0  0  0  0  0  0  0  0  0  0  0
   59.5615   26.1878   47.2127 H   0  0  0  0  0  0  0  0  0  0  0  0
   60.0084   28.3172   46.0229 H   0  0  0  0  0  0  0  0  0  0  0  0
   59.1511   30.0093   44.5589 H   0  0  0  0  0  0  0  0  0  0  0  0
   57.6866   29.6023   43.5872 H   0  0  0  0  0  0  0  0  0  0  0  0
   59.5748   31.2760   46.5300 H   0  0  0  0  0  0  0  0  0  0  0  0
   61.9353   33.1519   45.6684 H   0  0  0  0  0  0  0  0  0  0  0  0
   64.0285   33.4924   46.9100 H   0  0  0  0  0  0  0  0  0  0  0  0
   63.9895   34.1794   49.3051 H   0  0  0  0  0  0  0  0  0  0  0  0
   61.7850   34.5025   50.3966 H   0  0  0  0  0  0  0  0  0  0  0  0
   59.6744   34.1551   49.1483 H   0  0  0  0  0  0  0  0  0  0  0  0
   58.8300   35.4220   46.4070 H   0  0  0  0  0  0  0  0  0  0  0  0
   56.8176   35.1118   45.2417 H   0  0  0  0  0  0  0  0  0  0  0  0
   55.8358   28.3852   44.8431 H   0  0  0  0  0  0  0  0  0  0  0  0
  1  2  1  0
  2  3  1  0
  3  4  2  0
  4  5  1  0
  5  6  2  0
  6  7  1  0
  7  8  1  0
  8  9  1  0
  9 10  2  0
 10 11  1  0
 11 12  2  0
 12 13  1  0
 13 14  2  0
 14 15  1  0
 15 16  2  0
 16 17  1  0
 17 18  2  0
 12 19  1  0
 19 20  1  0
 20 21  2  0
  7 22  2  0
 22  3  1  0
 21 10  1  0
 18 13  1  0
  1 23  1  0
  1 24  1  0
  1 25  1  0
  4 26  1  0
  5 27  1  0
  6 28  1  0
  8 29  1  0
  8 30  1  0
 11 31  1  0
 14 32  1  0
 15 33  1  0
 16 34  1  0
 17 35  1  0
 18 36  1  0
 19 37  1  0
 20 38  1  0
 22 39  1  0
M  END
>  <smiles>  (10) 
COc1cccc(CN=c2cc(-c3ccccc3)[nH]cn2)c1

>  <score_type>  (10) 
oracle

>  <origin>  (10) 
adg

>  <m_score__min__energy>  (10) 
-7.96

>  <m_primary>  (10) 
energy

$$$$
10:0
     RDKit          3D

 54 57  0  0  0  0  0  0  0  0999 V2000
   56.7700   29.4250   45.9850 O   0  0  0  0  0  0  0  0  0  0  0  0
   57.3710   29.5250   44.8820 C   0  0  0  0  0  0  0  0  0  0  0  0
   57.6980   28.2680   44.1200 C   0  0  0  0  0  0  0  0  0  0  0  0
   59.0980   27.8560   44.3560 N   0  0  0  0  0  0  0  0  0  0  0  0
   59.2080   26.8290   45.4090 C   0  0  0  0  0  0  0  0  0  0  0  0
   58.9530   27.4070   46.8180 C   0  0  0  0  0  0  0  0  0  0  0  0
   59.4060   28.8170   46.9750 N   0  0  0  0  0  0  0  0  0  0  0  0
   59.8410   29.1020   48.3650 C   0  0  0  0  0  0  0  0  0  0  0  0
   59.8040   30.6040   48.7180 C   0  0  0  0  0  0  0  0  0  0  0  0
   61.1370   31.2730   48.4980 C   0  0  0  0  0  0  0  0  0  0  0  0
   61.3660   32.0240   47.3330 C   0  0  0  0  0  0  0  0  0  0  0  0
   62.5910   32.6720   47.1410 C   0  0  0  0  0  0  0  0  0  0  0  0
   63.5930   32.5770   48.1100 C   0  0  0  0  0  0  0  0  0  0  0  0
   63.3730   31.8330   49.2730 C   0  0  0  0  0  0  0  0  0  0  0  0
   62.1500   31.1830   49.4680 C   0  0  0  0  0  0  0  0  0  0  0  0
   60.4980   29.1370   46.0340 C   0  0  0  0  0  0  0  0  0  0  0  0
   60.0200   28.9990   44.5740 C   0  0  0  0  0  0  0  0  0  0  0  0
   57.7660   30.8270   44.4160 N   0  0  0  0  0  0  0  0  0  0  0  0
   57.7650   31.1910   42.9990 C   0  0  0  0  0  0  0  0  0  0  0  0
   57.9080   32.7310   42.9480 C   0  0  0  0  0  0  0  0  0  0  0  0
   58.0520   33.1090   44.3800 C   0  0  0  0  0  0  0  0  0  0  0  0
   58.2810   34.3800   44.9090 C   0  0  0  0  0  0  0  0  0  0  0  0
   58.4450   34.5090   46.2970 C   0  0  0  0  0  0  0  0  0  0  0  0
   58.3990   33.3710   47.1230 C   0  0  0  0  0  0  0  0  0  0  0  0
   58.1740   32.1020   46.5670 C   0  0  0  0  0  0  0  0  0  0  0  0
   57.9720   32.0040   45.1850 C   0  0  0  0  0  0  0  0  0  0  0  0
   57.0253   27.4623   44.4491 H   0  0  0  0  0  0  0  0  0  0  0  0
   57.5662   28.4644   43.0457 H   0  0  0  0  0  0  0  0  0  0  0  0
   58.4688   26.0387   45.2114 H   0  0  0  0  0  0  0  0  0  0  0  0
   60.2339   26.4327   45.3877 H   0  0  0  0  0  0  0  0  0  0  0  0
   57.8728   27.3641   47.0212 H   0  0  0  0  0  0  0  0  0  0  0  0
   59.5363   26.8001   47.5261 H   0  0  0  0  0  0  0  0  0  0  0  0
   58.6100   29.4590   46.7510 H   0  0  0  0  0  0  0  0  0  0  0  0
   59.1761   28.5639   49.0566 H   0  0  0  0  0  0  0  0  0  0  0  0
   60.8861   28.7709   48.4547 H   0  0  0  0  0  0  0  0  0  0  0  0
   59.0510   31.0980   48.0864 H   0  0  0  0  0  0  0  0  0  0  0  0
   59.5525   30.6943   49.7850 H   0  0  0  0  0  0  0  0  0  0  0  0
   60.5789   32.1029   46.5686 H   0  0  0  0  0  0  0  0  0  0  0  0
   62.7655   33.2570   46.2260 H   0  0  0  0  0  0  0  0  0  0  0  0
   64.5553   33.0877   47.9578 H   0  0  0  0  0  0  0  0  0  0  0  0
   64.1625   31.7587   50.0354 H   0  0  0  0  0  0  0  0  0  0  0  0
   61.9803   30.5989   50.3845 H   0  0  0  0  0  0  0  0  0  0  0  0
   60.8328   30.1703   46.2078 H   0  0  0  0  0  0  0  0  0  0  0  0
   61.3264   28.4330   46.2021 H   0  0  0  0  0  0  0  0  0  0  0  0
   59.4991   29.9251   44.2896 H   0  0  0  0  0  0  0  0  0  0  0  0
   60.9128   28.8152   43.9583 H   0  0  0  0  0  0  0  0  0  0  0  0
   58.6097   30.7124   42.4819 H   0  0  0  0  0  0  0  0  0  0  0  0
   56.8429   30.8576   42.5005 H   0  0  0  0  0  0  0  0  0  0  0  0
   58.7974   33.0253   42.3714 H   0  0  0  0  0  0  0  0  0  0  0  0
   57.0582   33.2262   42.4554 H   0  0  0  0  0  0  0  0  0  0  0  0
   58.3318   35.2613   44.2526 H   0  0  0  0  0  0  0  0  0  0  0  0
   58.6099   35.5022   46.7400 H   0  0  0  0  0  0  0  0  0  0  0  0
   58.5399   33.4762   48.2089 H   0  0  0  0  0  0  0  0  0  0  0  0
   58.1568   31.2045   47.2028 H   0  0  0  0  0  0  0  0  0  0  0  0
  1  2  2  0
  2  3  1  0
  3  4  1  0
  4  5  1  0
  5  6  1  0
  6  7  1  0
  7  8  1  0
  8  9  1  0
  9 10  1  0
 10 11  2  0
 11 12  1  0
 12 13  2  0
 13 14  1  0
 14 15  2  0
  7 16  1  0
 16 17  1  0
  2 18  1  0
 18 19  1  0
 19 20  1  0
 20 21  1  0
 21 22  2  0
 22 23  1  0
 23 24  2  0
 24 25  1  0
 25 26  2  0
 17  4  1  0
 26 18  1  0
 15 10  1  0
 26 21  1  0
  3 27  1  0
  3 28  1  0
  5 29  1  0
  5 30  1  0
  6 31  1  0
  6 32  1  0
  7 33  1  0
  8 34  1  0
  8 35  1  0
  9 36  1  0
  9 37  1  0
 11 38  1  0
 12 39  1  0
 13 40  1  0
 14 41  1  0
 15 42  1  0
 16 43  1  0
 16 44  1  0
 17 45  1  0
 17 46  1  0
 19 47  1  0
 19 48  1  0
 20 49  1  0
 20 50  1  0
 22 51  1  0
 23 52  1  0
 24 53  1  0
 25 54  1  0
M  CHG  1   7   1
M  END
>  <UniqueID>  (11) 
10

>  <SMILES>  (11) 
O=C(CN1CC[NH+](CCc2ccccc2)CC1)N1CCc2ccccc21

>  <Energy>  (11) 
84.94394609661515

>  <Genealogy>  (11) 
O=C(CN1CC[NH+](CCc2ccccc2)CC1)N1CCc2ccccc21 (protonated)
O=C(CN1CC[NH+](CCc2ccccc2)CC1)N1CCc2ccccc21 (3D coordinates assigned)
O=C(CN1CC[NH+](CCc2ccccc2)CC1)N1CCc2ccccc21 (nonaromatic ring conformer: 84.94394609661515 kcal/mol)

>  <smiles>  (11) 
O=C(CN1CCN(CCc2ccccc2)CC1)N1CCc2ccccc21

>  <score_type>  (11) 
oracle

>  <origin>  (11) 
adg

>  <m_score__min__energy>  (11) 
-6.8899999999999997

>  <m_primary>  (11) 
energy

$$$$
11:0
     RDKit          3D

 36 39  0  0  0  0  0  0  0  0999 V2000
   62.1330   34.2150   49.2290 C   0  0  0  0  0  0  0  0  0  0  0  0
   61.0740   34.7060   48.4140 O   0  0  0  0  0  0  0  0  0  0  0  0
   60.1750   33.8950   47.7070 C   0  0  0  0  0  0  0  0  0  0  0  0
   58.9180   34.3580   47.2770 C   0  0  0  0  0  0  0  0  0  0  0  0
   58.0570   33.5130   46.5740 C   0  0  0  0  0  0  0  0  0  0  0  0
   58.4330   32.1880   46.2970 C   0  0  0  0  0  0  0  0  0  0  0  0
   59.6840   31.7190   46.7230 C   0  0  0  0  0  0  0  0  0  0  0  0
   60.5500   32.5780   47.4220 C   0  0  0  0  0  0  0  0  0  0  0  0
   60.0890   30.3410   46.3830 C   0  0  0  0  0  0  0  0  0  0  0  0
   61.3180   30.0670   46.3140 O   0  0  0  0  0  0  0  0  0  0  0  0
   59.0490   29.3320   46.0090 C   0  0  0  0  0  0  0  0  0  0  0  0
   57.7890   29.8140   45.5520 C   0  0  0  0  0  0  0  0  0  0  0  0
   56.8060   28.8950   45.1020 C   0  0  0  0  0  0  0  0  0  0  0  0
   55.4720   29.3040   44.7680 N   0  0  0  0  0  0  0  0  0  0  0  0
   57.1110   27.5360   45.0280 C   0  0  0  0  0  0  0  0  0  0  0  0
   58.3230   27.0400   45.5070 C   0  0  0  0  0  0  0  0  0  0  0  0
   58.5590   25.6560   45.4860 C   0  0  0  0  0  0  0  0  0  0  0  0
   59.7240   25.1310   46.0410 C   0  0  0  0  0  0  0  0  0  0  0  0
   60.6490   25.9780   46.6440 C   0  0  0  0  0  0  0  0  0  0  0  0
   60.4330   27.3580   46.6660 C   0  0  0  0  0  0  0  0  0  0  0  0
   59.2880   27.9250   46.0560 C   0  0  0  0  0  0  0  0  0  0  0  0
   57.5530   31.2900   45.5250 C   0  0  0  0  0  0  0  0  0  0  0  0
   56.6500   31.7890   44.8010 O   0  0  0  0  0  0  0  0  0  0  0  0
   61.8671   34.3383   50.2892 H   0  0  0  0  0  0  0  0  0  0  0  0
   62.2973   33.1488   49.0137 H   0  0  0  0  0  0  0  0  0  0  0  0
   63.0529   34.7785   49.0137 H   0  0  0  0  0  0  0  0  0  0  0  0
   58.6118   35.3916   47.4959 H   0  0  0  0  0  0  0  0  0  0  0  0
   57.0794   33.8866   46.2354 H   0  0  0  0  0  0  0  0  0  0  0  0
   61.5339   32.2101   47.7486 H   0  0  0  0  0  0  0  0  0  0  0  0
   55.1200   30.2590   44.9940 H   0  0  0  0  0  0  0  0  0  0  0  0
   54.7560   28.5940   44.4950 H   0  0  0  0  0  0  0  0  0  0  0  0
   56.3819   26.8426   44.5835 H   0  0  0  0  0  0  0  0  0  0  0  0
   57.8196   24.9822   45.0286 H   0  0  0  0  0  0  0  0  0  0  0  0
   59.9125   24.0480   46.0026 H   0  0  0  0  0  0  0  0  0  0  0  0
   61.5550   25.5586   47.1058 H   0  0  0  0  0  0  0  0  0  0  0  0
   61.1627   28.0133   47.1642 H   0  0  0  0  0  0  0  0  0  0  0  0
  1  2  1  0
  2  3  1  0
  3  4  2  0
  4  5  1  0
  5  6  2  0
  6  7  1  0
  7  8  2  0
  7  9  1  0
  9 10  2  0
  9 11  1  0
 11 12  2  0
 12 13  1  0
 13 14  1  0
 13 15  2  0
 15 16  1  0
 16 17  2  0
 17 18  1  0
 18 19  2  0
 19 20  1  0
 20 21  2  0
 12 22  1  0
 22 23  2  0
  8  3  1  0
 21 11  1  0
 22  6  1  0
 21 16  1  0
  1 24  1  0
  1 25  1  0
  1 26  1  0
  4 27  1  0
  5 28  1  0
  8 29  1  0
 14 30  1  0
 14 31  1  0
 15 32  1  0
 17 33  1  0
 18 34  1  0
 19 35  1  0
 20 36  1  0
M  END
>  <UniqueID>  (12) 
11

>  <SMILES>  (12) 
COc1ccc2c(c1)C(=O)c1c(c(N)cc3ccccc13)C2=O

>  <Energy>  (12) 
62.924369769470516

>  <Genealogy>  (12) 
COc1ccc2c(c1)C(=O)c1c(c(N)cc3ccccc13)C2=O (3D coordinates assigned)
COc1ccc2c(c1)C(=O)c1c(c(N)cc3ccccc13)C2=O (nonaromatic ring conformer: 62.924369769470516 kcal/mol)

>  <smiles>  (12) 
COc1ccc2c(c1)C(=O)c1c(c(N)cc3ccccc13)C2=O

>  <score_type>  (12) 
oracle

>  <origin>  (12) 
adg

>  <m_score__min__energy>  (12) 
-8.0299999999999994

>  <m_primary>  (12) 
energy

$$$$
12:0
     RDKit          3D

 44 47  0  0  0  0  0  0  0  0999 V2000
   55.6010   28.7040   44.8440 O   0  0  0  0  0  0  0  0  0  0  0  0
   56.2850   27.9850   45.6200 C   0  0  0  0  0  0  0  0  0  0  0  0
   55.8180   26.6930   46.0270 N   0  0  0  0  0  0  0  0  0  0  0  0
   56.0740   25.4330   45.3890 C   0  0  0  0  0  0  0  0  0  0  0  0
   57.3170   25.2370   44.7700 C   0  0  0  0  0  0  0  0  0  0  0  0
   57.5980   24.0410   44.1060 C   0  0  0  0  0  0  0  0  0  0  0  0
   56.6340   23.0300   44.0420 C   0  0  0  0  0  0  0  0  0  0  0  0
   57.0170   21.3970   43.1290 Br  0  0  0  0  0  0  0  0  0  0  0  0
   55.3830   23.2230   44.6390 C   0  0  0  0  0  0  0  0  0  0  0  0
   55.0980   24.4200   45.3050 C   0  0  0  0  0  0  0  0  0  0  0  0
   57.6190   28.4700   46.1220 C   0  0  0  0  0  0  0  0  0  0  0  0
   58.6240   28.6450   44.9820 C   0  0  0  0  0  0  0  0  0  0  0  0
   59.9170   29.2810   45.5180 C   0  0  0  0  0  0  0  0  0  0  0  0
   60.3730   28.7190   46.8110 N   0  0  0  0  0  0  0  0  0  0  0  0
   60.5340   29.9070   48.0890 S   0  0  0  0  0  0  0  0  0  0  0  0
   61.3450   29.3250   49.2130 O   0  0  0  0  0  0  0  0  0  0  0  0
   59.1680   30.2180   48.6330 O   0  0  0  0  0  0  0  0  0  0  0  0
   61.2870   31.4140   47.5450 C   0  0  0  0  0  0  0  0  0  0  0  0
   62.6860   31.5550   47.6070 C   0  0  0  0  0  0  0  0  0  0  0  0
   63.3090   32.7480   47.2090 C   0  0  0  0  0  0  0  0  0  0  0  0
   62.5510   33.8230   46.7310 C   0  0  0  0  0  0  0  0  0  0  0  0
   61.1660   33.6940   46.6430 C   0  0  0  0  0  0  0  0  0  0  0  0
   60.3660   34.6920   46.1880 N   0  0  0  0  0  0  0  0  0  0  0  0
   58.8880   33.9630   46.3150 S   0  0  0  0  0  0  0  0  0  0  0  0
   59.1760   32.4490   46.9140 N   0  0  0  0  0  0  0  0  0  0  0  0
   60.5270   32.4830   47.0390 C   0  0  0  0  0  0  0  0  0  0  0  0
   59.7150   27.4720   47.2480 C   0  0  0  0  0  0  0  0  0  0  0  0
   58.1730   27.5220   47.2010 C   0  0  0  0  0  0  0  0  0  0  0  0
   58.0767   26.0316   44.8078 H   0  0  0  0  0  0  0  0  0  0  0  0
   58.5798   23.8939   43.6323 H   0  0  0  0  0  0  0  0  0  0  0  0
   54.6214   22.4311   44.5845 H   0  0  0  0  0  0  0  0  0  0  0  0
   54.1098   24.5707   45.7641 H   0  0  0  0  0  0  0  0  0  0  0  0
   57.4618   29.4596   46.5759 H   0  0  0  0  0  0  0  0  0  0  0  0
   58.8548   27.6623   44.5450 H   0  0  0  0  0  0  0  0  0  0  0  0
   58.1893   29.3007   44.2132 H   0  0  0  0  0  0  0  0  0  0  0  0
   60.7125   29.1272   44.7740 H   0  0  0  0  0  0  0  0  0  0  0  0
   59.7003   30.3453   45.6919 H   0  0  0  0  0  0  0  0  0  0  0  0
   63.2997   30.7185   47.9725 H   0  0  0  0  0  0  0  0  0  0  0  0
   64.4033   32.8390   47.2734 H   0  0  0  0  0  0  0  0  0  0  0  0
   63.0428   34.7592   46.4282 H   0  0  0  0  0  0  0  0  0  0  0  0
   60.0540   26.6552   46.5939 H   0  0  0  0  0  0  0  0  0  0  0  0
   59.9950   27.3182   48.3006 H   0  0  0  0  0  0  0  0  0  0  0  0
   57.7983   26.5078   46.9983 H   0  0  0  0  0  0  0  0  0  0  0  0
   57.8333   27.9073   48.1737 H   0  0  0  0  0  0  0  0  0  0  0  0
  1  2  2  0
  2  3  1  0
  3  4  1  0
  4  5  2  0
  5  6  1  0
  6  7  2  0
  7  8  1  0
  7  9  1  0
  9 10  2  0
  2 11  1  0
 11 12  1  0
 12 13  1  0
 13 14  1  0
 14 15  1  0
 15 16  2  0
 15 17  2  0
 15 18  1  0
 18 19  2  0
 19 20  1  0
 20 21  2  0
 21 22  1  0
 22 23  2  0
 23 24  1  0
 24 25  1  0
 25 26  2  0
 14 27  1  0
 27 28  1  0
 10  4  1  0
 28 11  1  0
 26 18  1  0
 26 22  1  0
  5 29  1  0
  6 30  1  0
  9 31  1  0
 10 32  1  0
 11 33  1  0
 12 34  1  0
 12 35  1  0
 13 36  1  0
 13 37  1  0
 19 38  1  0
 20 39  1  0
 21 40  1  0
 27 41  1  0
 27 42  1  0
 28 43  1  0
 28 44  1  0
M  CHG  1   3  -1
M  END
>  <UniqueID>  (13) 
12

>  <SMILES>  (13) 
O=C([N-]c1ccc(Br)cc1)C1CCN(S(=O)(=O)c2cccc3nsnc23)CC1

>  <Energy>  (13) 
97.07593337580688

>  <Genealogy>  (13) 
O=C([N-]c1ccc(Br)cc1)C1CCN(S(=O)(=O)c2cccc3nsnc23)CC1 (protonated)
O=C([N-]c1ccc(Br)cc1)C1CCN(S(=O)(=O)c2cccc3nsnc23)CC1 (3D coordinates assigned)
O=C([N-]c1ccc(Br)cc1)C1CCN(S(=O)(=O)c2cccc3nsnc23)CC1 (nonaromatic ring conformer: 97.07593337580688 kcal/mol)

>  <smiles>  (13) 
O=C(Nc1ccc(Br)cc1)C1CCN(S(=O)(=O)c2cccc3nsnc23)CC1

>  <score_type>  (13) 
oracle

>  <origin>  (13) 
adg

>  <m_score__min__energy>  (13) 
-11.33

>  <m_primary>  (13) 
energy

$$$$
13:0
     RDKit          3D

 35 36  0  0  0  0  0  0  0  0999 V2000
   59.2610   34.9750   46.1890 C   0  0  0  0  0  0  0  0  0  0  0  0
   58.6820   33.8750   45.4250 N   0  0  0  0  0  0  0  0  0  0  0  0
   58.4640   33.9350   44.1200 N   0  0  0  0  0  0  0  0  0  0  0  0
   57.9950   32.7360   43.7250 C   0  0  0  0  0  0  0  0  0  0  0  0
   57.9080   31.8930   44.8170 C   0  0  0  0  0  0  0  0  0  0  0  0
   57.5150   30.4750   44.7760 C   0  0  0  0  0  0  0  0  0  0  0  0
   56.6530   30.0550   45.5940 O   0  0  0  0  0  0  0  0  0  0  0  0
   58.1340   29.5670   43.8550 N   0  0  0  0  0  0  0  0  0  0  0  0
   57.6450   28.2070   43.6500 C   0  0  0  0  0  0  0  0  0  0  0  0
   57.9590   27.3570   44.8440 C   0  0  0  0  0  0  0  0  0  0  0  0
   59.2630   27.1670   45.3260 C   0  0  0  0  0  0  0  0  0  0  0  0
   59.3250   26.3670   46.4570 C   0  0  0  0  0  0  0  0  0  0  0  0
   57.7590   25.9060   46.8560 S   0  0  0  0  0  0  0  0  0  0  0  0
   56.9860   26.7120   45.6010 C   0  0  0  0  0  0  0  0  0  0  0  0
   58.3560   32.6500   45.8930 C   0  0  0  0  0  0  0  0  0  0  0  0
   58.6890   32.1540   47.2730 C   0  0  0  0  0  0  0  0  0  0  0  0
   59.6370   30.6530   47.1610 S   0  0  0  0  0  0  0  0  0  0  0  0
   61.1170   30.7780   48.1380 C   0  0  0  0  0  0  0  0  0  0  0  0
   58.7180   29.3510   47.6900 O   0  0  0  0  0  0  0  0  0  0  0  0
   59.1536   34.7709   47.2645 H   0  0  0  0  0  0  0  0  0  0  0  0
   60.3277   35.0734   45.9392 H   0  0  0  0  0  0  0  0  0  0  0  0
   58.7382   35.9100   45.9392 H   0  0  0  0  0  0  0  0  0  0  0  0
   57.7232   32.4689   42.6931 H   0  0  0  0  0  0  0  0  0  0  0  0
   59.0160   29.8520   43.3720 H   0  0  0  0  0  0  0  0  0  0  0  0
   56.5558   28.2318   43.4983 H   0  0  0  0  0  0  0  0  0  0  0  0
   58.1385   27.7784   42.7653 H   0  0  0  0  0  0  0  0  0  0  0  0
   60.1512   27.6103   44.8520 H   0  0  0  0  0  0  0  0  0  0  0  0
   60.2396   26.0836   46.9985 H   0  0  0  0  0  0  0  0  0  0  0  0
   55.9026   26.7271   45.4113 H   0  0  0  0  0  0  0  0  0  0  0  0
   59.2760   32.9179   47.8039 H   0  0  0  0  0  0  0  0  0  0  0  0
   57.7570   31.9549   47.8222 H   0  0  0  0  0  0  0  0  0  0  0  0
   60.8543   30.7558   49.2059 H   0  0  0  0  0  0  0  0  0  0  0  0
   61.7818   29.9328   47.9063 H   0  0  0  0  0  0  0  0  0  0  0  0
   61.6306   31.7227   47.9063 H   0  0  0  0  0  0  0  0  0  0  0  0
   58.0730   29.1890   46.9560 H   0  0  0  0  0  0  0  0  0  0  0  0
  1  2  1  0
  2  3  1  0
  3  4  2  0
  4  5  1  0
  5  6  1  0
  6  7  2  0
  6  8  1  0
  8  9  1  0
  9 10  1  0
 10 11  1  0
 11 12  2  0
 12 13  1  0
 13 14  1  0
  5 15  2  0
 15 16  1  0
 16 17  1  0
 17 18  1  0
 17 19  1  1
 15  2  1  0
 14 10  2  0
  1 20  1  0
  1 21  1  0
  1 22  1  0
  4 23  1  0
  8 24  1  0
  9 25  1  0
  9 26  1  0
 11 27  1  0
 12 28  1  0
 14 29  1  0
 16 30  1  0
 16 31  1  0
 18 32  1  0
 18 33  1  0
 18 34  1  0
 19 35  1  0
M  CHG  1  17   1
M  END
>  <UniqueID>  (14) 
13

>  <SMILES>  (14) 
Cn1ncc(C(=O)NCc2ccsc2)c1C[S@@+](C)O

>  <Energy>  (14) 
82.52826049704261

>  <Genealogy>  (14) 
Cn1ncc(C(=O)NCc2ccsc2)c1C[S+](C)O (protonated)
Cn1ncc(C(=O)NCc2ccsc2)c1C[S@@+](C)O (chirality)
Cn1ncc(C(=O)NCc2ccsc2)c1C[S@@+](C)O (3D coordinates assigned)
Cn1ncc(C(=O)NCc2ccsc2)c1C[S@@+](C)O (optimized conformer: 82.52826049704261 kcal/mol)

>  <smiles>  (14) 
Cn1ncc(C(=O)NCc2ccsc2)c1C[S+](C)[O-]

>  <score_type>  (14) 
oracle

>  <origin>  (14) 
adg

>  <m_score__min__energy>  (14) 
-4.7199999999999998

>  <m_primary>  (14) 
energy

$$$$
14:0
     RDKit          3D

 45 47  0  0  0  0  0  0  0  0999 V2000
   59.1753   21.2582   45.7175 H   0  0  0  0  0  0  0  0  0  0  0  0
   58.3120   21.9380   45.6670 C   0  0  0  0  0  0  0  0  0  0  0  0
   57.4050   21.9570   46.6760 N   0  0  0  0  0  0  0  0  0  0  0  0
   56.3370   22.7940   46.6380 C   0  0  0  0  0  0  0  0  0  0  0  0
   55.6078   22.7888   47.4616 H   0  0  0  0  0  0  0  0  0  0  0  0
   56.1590   23.6650   45.5540 C   0  0  0  0  0  0  0  0  0  0  0  0
   54.9540   24.5680   45.5110 C   0  0  0  0  0  0  0  0  0  0  0  0
   54.7836   24.9036   44.4774 H   0  0  0  0  0  0  0  0  0  0  0  0
   54.0703   24.0186   45.8677 H   0  0  0  0  0  0  0  0  0  0  0  0
   55.1860   25.7280   46.3680 N   0  0  0  0  0  0  0  0  0  0  0  0
   56.2640   26.4510   46.3340 C   0  0  0  0  0  0  0  0  0  0  0  0
   56.3190   27.5970   45.6010 N   0  0  0  0  0  0  0  0  0  0  0  0
   57.4390   28.3700   45.5500 C   0  0  0  0  0  0  0  0  0  0  0  0
   57.4330   29.6130   44.7370 C   0  0  0  0  0  0  0  0  0  0  0  0
   56.8410   29.6080   43.4610 C   0  0  0  0  0  0  0  0  0  0  0  0
   56.3881   28.6837   43.0729 H   0  0  0  0  0  0  0  0  0  0  0  0
   56.8240   30.7680   42.6830 C   0  0  0  0  0  0  0  0  0  0  0  0
   56.3470   30.7565   41.6919 H   0  0  0  0  0  0  0  0  0  0  0  0
   57.4100   31.9410   43.1590 C   0  0  0  0  0  0  0  0  0  0  0  0
   57.3800   32.8546   42.5472 H   0  0  0  0  0  0  0  0  0  0  0  0
   58.0370   31.9620   44.4130 C   0  0  0  0  0  0  0  0  0  0  0  0
   58.6560   33.2020   44.9260 C   0  0  0  0  0  0  0  0  0  0  0  0
   59.2600   33.9580   44.1160 O   0  0  0  0  0  0  0  0  0  0  0  0
   58.5790   33.5690   46.3180 N   0  0  0  0  0  0  0  0  0  0  0  0
   57.4090   33.1970   47.1210 C   0  0  0  0  0  0  0  0  0  0  0  0
   57.6576   33.2760   48.1896 H   0  0  0  0  0  0  0  0  0  0  0  0
   56.5739   33.8739   46.8877 H   0  0  0  0  0  0  0  0  0  0  0  0
   57.1182   32.1621   46.8877 H   0  0  0  0  0  0  0  0  0  0  0  0
   59.6030   34.4550   46.8780 C   0  0  0  0  0  0  0  0  0  0  0  0
   59.5595   34.4174   47.9765 H   0  0  0  0  0  0  0  0  0  0  0  0
   60.5968   34.1272   46.5389 H   0  0  0  0  0  0  0  0  0  0  0  0
   59.4214   35.4856   46.5389 H   0  0  0  0  0  0  0  0  0  0  0  0
   58.0330   30.7990   45.2030 C   0  0  0  0  0  0  0  0  0  0  0  0
   58.5041   30.8155   46.1969 H   0  0  0  0  0  0  0  0  0  0  0  0
   58.5630   27.9680   46.2940 C   0  0  0  0  0  0  0  0  0  0  0  0
   59.4798   28.5758   46.2831 H   0  0  0  0  0  0  0  0  0  0  0  0
   58.5100   26.8250   47.0260 N   0  0  0  0  0  0  0  0  0  0  0  0
   57.3910   26.0560   47.0600 C   0  0  0  0  0  0  0  0  0  0  0  0
   57.3719   25.1303   47.6538 H   0  0  0  0  0  0  0  0  0  0  0  0
   57.1020   23.6120   44.5050 C   0  0  0  0  0  0  0  0  0  0  0  0
   56.9920   24.4890   43.2910 C   0  0  0  0  0  0  0  0  0  0  0  0
   56.8608   25.5350   43.6050 H   0  0  0  0  0  0  0  0  0  0  0  0
   57.9085   24.3990   42.6894 H   0  0  0  0  0  0  0  0  0  0  0  0
   56.1262   24.1754   42.6894 H   0  0  0  0  0  0  0  0  0  0  0  0
   58.1560   22.7560   44.5960 N   0  0  0  0  0  0  0  0  0  0  0  0
  1  2  1  0
  2  3  2  0
  3  4  1  0
  4  5  1  0
  4  6  2  0
  6  7  1  0
  7  8  1  0
  7  9  1  0
  7 10  1  0
 10 11  2  0
 11 12  1  0
 12 13  1  0
 13 14  1  0
 14 15  2  0
 15 16  1  0
 15 17  1  0
 17 18  1  0
 17 19  2  0
 19 20  1  0
 19 21  1  0
 21 22  1  0
 22 23  2  0
 22 24  1  0
 24 25  1  0
 25 26  1  0
 25 27  1  0
 25 28  1  0
 24 29  1  0
 29 30  1  0
 29 31  1  0
 29 32  1  0
 21 33  2  0
 33 34  1  0
 13 35  2  0
 35 36  1  0
 35 37  1  0
 37 38  2  0
 38 39  1  0
  6 40  1  0
 40 41  1  0
 41 42  1  0
 41 43  1  0
 41 44  1  0
 40 45  2  0
 45  2  1  0
 38 11  1  0
 33 14  1  0
M  CHG  1  12  -1
M  END
>  <UniqueID>  (15) 
14

>  <SMILES>  (15) 
Cc1ncncc1C/N=c1/cncc(-c2cccc(C(=O)N(C)C)c2)[n-]1

>  <Energy>  (15) 
55.92858570324576

>  <Genealogy>  (15) 
Cc1ncncc1CN=c1cncc(-c2cccc(C(=O)N(C)C)c2)[n-]1 (protonated)
Cc1ncncc1C/N=c1/cncc(-c2cccc(C(=O)N(C)C)c2)[n-]1 (cis-trans isomerization)
Cc1ncncc1C/N=c1/cncc(-c2cccc(C(=O)N(C)C)c2)[n-]1 (3D coordinates assigned)
Cc1ncncc1C/N=c1/cncc(-c2cccc(C(=O)N(C)C)c2)[n-]1 (optimized conformer: 55.92858570324576 kcal/mol)

>  <smiles>  (15) 
Cc1ncncc1CN=c1cncc(-c2cccc(C(=O)N(C)C)c2)[nH]1

>  <score_type>  (15) 
oracle

>  <origin>  (15) 
adg

>  <m_score__min__energy>  (15) 
-10.23

>  <m_primary>  (15) 
energy

$$$$
15:0
     RDKit          3D

 43 45  0  0  0  0  0  0  0  0999 V2000
   55.0534   29.3279   43.6433 H   0  0  0  0  0  0  0  0  0  0  0  0
   55.8870   30.0400   43.7330 C   0  0  0  0  0  0  0  0  0  0  0  0
   56.3120   30.5690   44.8570 O   0  0  0  0  0  0  0  0  0  0  0  0
   57.3170   31.3700   44.5900 C   0  0  0  0  0  0  0  0  0  0  0  0
   58.0430   32.1380   45.6080 C   0  0  0  0  0  0  0  0  0  0  0  0
   58.3450   33.3400   45.3820 O   0  0  0  0  0  0  0  0  0  0  0  0
   58.3540   31.5090   46.8630 N   0  0  0  0  0  0  0  0  0  0  0  0
   59.4890   30.9960   47.2510 C   0  0  0  0  0  0  0  0  0  0  0  0
   60.7370   31.7900   47.3330 C   0  0  0  0  0  0  0  0  0  0  0  0
   61.8350   31.1760   47.4340 O   0  0  0  0  0  0  0  0  0  0  0  0
   60.6980   33.2400   47.3420 N   0  0  0  0  0  0  0  0  0  0  0  0
   59.7470   33.5330   47.0210 H   0  0  0  0  0  0  0  0  0  0  0  0
   60.8930   33.7880   48.7090 C   0  0  0  0  0  0  0  0  0  0  0  0
   60.2384   34.6633   48.8332 H   0  0  0  0  0  0  0  0  0  0  0  0
   60.6469   32.9889   49.4237 H   0  0  0  0  0  0  0  0  0  0  0  0
   62.3470   34.2190   48.9790 C   0  0  0  0  0  0  0  0  0  0  0  0
   62.4686   35.2764   48.7012 H   0  0  0  0  0  0  0  0  0  0  0  0
   62.5665   34.0800   50.0479 H   0  0  0  0  0  0  0  0  0  0  0  0
   63.2430   33.4350   48.2240 O   0  0  0  0  0  0  0  0  0  0  0  0
   63.1180   33.7500   46.8500 C   0  0  0  0  0  0  0  0  0  0  0  0
   63.5873   34.7289   46.6726 H   0  0  0  0  0  0  0  0  0  0  0  0
   63.6108   32.9444   46.2860 H   0  0  0  0  0  0  0  0  0  0  0  0
   61.6480   33.8150   46.3650 C   0  0  0  0  0  0  0  0  0  0  0  0
   61.3808   34.8680   46.1923 H   0  0  0  0  0  0  0  0  0  0  0  0
   61.5762   33.2202   45.4425 H   0  0  0  0  0  0  0  0  0  0  0  0
   59.5260   29.5290   47.5870 C   0  0  0  0  0  0  0  0  0  0  0  0
   60.5649   29.2362   47.7990 H   0  0  0  0  0  0  0  0  0  0  0  0
   58.8861   29.3581   48.4652 H   0  0  0  0  0  0  0  0  0  0  0  0
   59.0030   28.6920   46.4480 C   0  0  0  0  0  0  0  0  0  0  0  0
   59.6390   28.7140   45.1950 C   0  0  0  0  0  0  0  0  0  0  0  0
   60.5226   29.3509   45.0412 H   0  0  0  0  0  0  0  0  0  0  0  0
   59.1550   27.9310   44.1430 C   0  0  0  0  0  0  0  0  0  0  0  0
   59.6593   27.9506   43.1656 H   0  0  0  0  0  0  0  0  0  0  0  0
   58.0300   27.1230   44.3330 C   0  0  0  0  0  0  0  0  0  0  0  0
   57.6506   26.5057   43.5054 H   0  0  0  0  0  0  0  0  0  0  0  0
   57.3880   27.0990   45.5720 C   0  0  0  0  0  0  0  0  0  0  0  0
   56.5020   26.4638   45.7190 H   0  0  0  0  0  0  0  0  0  0  0  0
   57.8690   27.8810   46.6270 C   0  0  0  0  0  0  0  0  0  0  0  0
   57.3578   27.8613   47.6008 H   0  0  0  0  0  0  0  0  0  0  0  0
   57.5700   31.3730   43.2330 C   0  0  0  0  0  0  0  0  0  0  0  0
   58.3474   31.9427   42.7029 H   0  0  0  0  0  0  0  0  0  0  0  0
   56.6450   30.5130   42.6810 C   0  0  0  0  0  0  0  0  0  0  0  0
   56.5335   30.2557   41.6173 H   0  0  0  0  0  0  0  0  0  0  0  0
  1  2  1  0
  2  3  1  0
  3  4  1  0
  4  5  1  0
  5  6  2  0
  5  7  1  0
  7  8  2  0
  8  9  1  0
  9 10  2  0
  9 11  1  0
 11 12  1  0
 11 13  1  0
 13 14  1  0
 13 15  1  0
 13 16  1  0
 16 17  1  0
 16 18  1  0
 16 19  1  0
 19 20  1  0
 20 21  1  0
 20 22  1  0
 20 23  1  0
 23 24  1  0
 23 25  1  0
  8 26  1  0
 26 27  1  0
 26 28  1  0
 26 29  1  0
 29 30  2  0
 30 31  1  0
 30 32  1  0
 32 33  1  0
 32 34  2  0
 34 35  1  0
 34 36  1  0
 36 37  1  0
 36 38  2  0
 38 39  1  0
  4 40  2  0
 40 41  1  0
 40 42  1  0
 42 43  1  0
 42  2  2  0
 23 11  1  0
 38 29  1  0
M  CHG  1  11   1
M  END
>  <UniqueID>  (16) 
15

>  <SMILES>  (16) 
O=C(/N=C(/Cc1ccccc1)C(=O)[NH+]1CCOCC1)c1ccco1

>  <Energy>  (16) 
89.19870368473416

>  <Genealogy>  (16) 
O=C(N=C(Cc1ccccc1)C(=O)[NH+]1CCOCC1)c1ccco1 (protonated)
O=C(/N=C(/Cc1ccccc1)C(=O)[NH+]1CCOCC1)c1ccco1 (cis-trans isomerization)
O=C(/N=C(/Cc1ccccc1)C(=O)[NH+]1CCOCC1)c1ccco1 (3D coordinates assigned)
O=C(/N=C(/Cc1ccccc1)C(=O)[NH+]1CCOCC1)c1ccco1 (nonaromatic ring conformer: 89.19870368473416 kcal/mol)

>  <smiles>  (16) 
O=C(N=C(Cc1ccccc1)C(=O)N1CCOCC1)c1ccco1

>  <score_type>  (16) 
oracle

>  <origin>  (16) 
adg

>  <m_score__min__energy>  (16) 
-5.4199999999999999

>  <m_primary>  (16) 
energy

$$$$
16:0
     RDKit          3D

 48 52  0  0  0  0  0  0  0  0999 V2000
   54.9210   28.3690   44.5060 H   0  0  0  0  0  0  0  0  0  0  0  0
   55.2310   29.3470   44.3220 N   0  0  0  0  0  0  0  0  0  0  0  0
   56.2580   29.9160   44.8740 C   0  0  0  0  0  0  0  0  0  0  0  0
   56.3220   31.2740   44.8570 N   0  0  0  0  0  0  0  0  0  0  0  0
   57.3820   31.9620   45.3550 C   0  0  0  0  0  0  0  0  0  0  0  0
   57.3832   33.0616   45.3272 H   0  0  0  0  0  0  0  0  0  0  0  0
   58.4720   31.2780   45.9030 C   0  0  0  0  0  0  0  0  0  0  0  0
   59.6490   32.0140   46.4280 C   0  0  0  0  0  0  0  0  0  0  0  0
   60.3690   31.4750   47.5080 C   0  0  0  0  0  0  0  0  0  0  0  0
   60.0460   30.5224   47.9533 H   0  0  0  0  0  0  0  0  0  0  0  0
   61.4950   32.1350   48.0270 C   0  0  0  0  0  0  0  0  0  0  0  0
   62.2490   31.5560   49.1680 C   0  0  0  0  0  0  0  0  0  0  0  0
   61.6870   30.5300   49.9520 C   0  0  0  0  0  0  0  0  0  0  0  0
   60.6812   30.1516   49.7171 H   0  0  0  0  0  0  0  0  0  0  0  0
   62.3990   29.9890   51.0270 C   0  0  0  0  0  0  0  0  0  0  0  0
   61.9514   29.1887   51.6346 H   0  0  0  0  0  0  0  0  0  0  0  0
   63.6780   30.4630   51.3310 C   0  0  0  0  0  0  0  0  0  0  0  0
   64.2366   30.0348   52.1763 H   0  0  0  0  0  0  0  0  0  0  0  0
   64.2470   31.4800   50.5620 C   0  0  0  0  0  0  0  0  0  0  0  0
   65.2536   31.8525   50.8026 H   0  0  0  0  0  0  0  0  0  0  0  0
   63.5390   32.0260   49.4860 C   0  0  0  0  0  0  0  0  0  0  0  0
   63.9922   32.8275   48.8842 H   0  0  0  0  0  0  0  0  0  0  0  0
   61.8980   33.3490   47.4490 C   0  0  0  0  0  0  0  0  0  0  0  0
   62.7823   33.8728   47.8410 H   0  0  0  0  0  0  0  0  0  0  0  0
   61.1860   33.8970   46.3810 C   0  0  0  0  0  0  0  0  0  0  0  0
   61.5144   34.8490   45.9385 H   0  0  0  0  0  0  0  0  0  0  0  0
   60.0520   33.2430   45.8650 C   0  0  0  0  0  0  0  0  0  0  0  0
   59.2990   33.7940   44.8140 O   0  0  0  0  0  0  0  0  0  0  0  0
   58.5030   34.9690   44.9190 C   0  0  0  0  0  0  0  0  0  0  0  0
   58.3408   35.2084   45.9803 H   0  0  0  0  0  0  0  0  0  0  0  0
   59.0200   35.8072   44.4289 H   0  0  0  0  0  0  0  0  0  0  0  0
   57.5329   34.7997   44.4289 H   0  0  0  0  0  0  0  0  0  0  0  0
   58.4370   29.8780   45.9340 C   0  0  0  0  0  0  0  0  0  0  0  0
   59.2906   29.3229   46.3502 H   0  0  0  0  0  0  0  0  0  0  0  0
   57.3270   29.1740   45.4410 C   0  0  0  0  0  0  0  0  0  0  0  0
   57.3120   27.7000   45.5670 C   0  0  0  0  0  0  0  0  0  0  0  0
   56.1760   26.9690   45.7030 N   0  0  0  0  0  0  0  0  0  0  0  0
   56.4550   25.6500   45.8590 C   0  0  0  0  0  0  0  0  0  0  0  0
   55.4910   24.6520   46.0150 C   0  0  0  0  0  0  0  0  0  0  0  0
   54.4199   24.9023   46.0134 H   0  0  0  0  0  0  0  0  0  0  0  0
   55.9150   23.3220   46.1740 C   0  0  0  0  0  0  0  0  0  0  0  0
   55.1700   22.5220   46.2962 H   0  0  0  0  0  0  0  0  0  0  0  0
   57.2890   23.0060   46.1780 C   0  0  0  0  0  0  0  0  0  0  0  0
   57.6101   21.9613   46.3024 H   0  0  0  0  0  0  0  0  0  0  0  0
   58.2490   24.0180   46.0240 C   0  0  0  0  0  0  0  0  0  0  0  0
   59.3238   23.7838   46.0288 H   0  0  0  0  0  0  0  0  0  0  0  0
   57.8020   25.3270   45.8650 C   0  0  0  0  0  0  0  0  0  0  0  0
   58.7010   26.7290   45.6690 S   0  0  0  0  0  0  0  0  0  0  0  0
  1  2  1  0
  2  3  2  0
  3  4  1  0
  4  5  1  0
  5  6  1  0
  5  7  2  0
  7  8  1  0
  8  9  2  0
  9 10  1  0
  9 11  1  0
 11 12  1  0
 12 13  2  0
 13 14  1  0
 13 15  1  0
 15 16  1  0
 15 17  2  0
 17 18  1  0
 17 19  1  0
 19 20  1  0
 19 21  2  0
 21 22  1  0
 11 23  2  0
 23 24  1  0
 23 25  1  0
 25 26  1  0
 25 27  2  0
 27 28  1  0
 28 29  1  0
 29 30  1  0
 29 31  1  0
 29 32  1  0
  7 33  1  0
 33 34  1  0
 33 35  2  0
 35 36  1  0
 36 37  2  0
 37 38  1  0
 38 39  2  0
 39 40  1  0
 39 41  1  0
 41 42  1  0
 41 43  2  0
 43 44  1  0
 43 45  1  0
 45 46  1  0
 45 47  2  0
 47 48  1  0
 35  3  1  0
 48 36  1  0
 27  8  1  0
 47 38  1  0
 21 12  1  0
M  CHG  1   4  -1
M  END
>  <UniqueID>  (17) 
16

>  <SMILES>  (17) 
[H]/N=c1/[n-]cc(-c2cc(-c3ccccc3)ccc2OC)cc1-c1nc2ccccc2s1

>  <Energy>  (17) 
108.30233094706396

>  <Genealogy>  (17) 
COc1ccc(-c2ccccc2)cc1-c1c[n-]c(=N)c(-c2nc3ccccc3s2)c1 (protonated)
[H]/N=c1/[n-]cc(-c2cc(-c3ccccc3)ccc2OC)cc1-c1nc2ccccc2s1 (cis-trans isomerization)
[H]/N=c1/[n-]cc(-c2cc(-c3ccccc3)ccc2OC)cc1-c1nc2ccccc2s1 (3D coordinates assigned)
[H]/N=c1/[n-]cc(-c2cc(-c3ccccc3)ccc2OC)cc1-c1nc2ccccc2s1 (optimized conformer: 108.30233094706396 kcal/mol)

>  <smiles>  (17) 
COc1ccc(-c2ccccc2)cc1-c1c[nH]c(=N)c(-c2nc3ccccc3s2)c1

>  <score_type>  (17) 
oracle

>  <origin>  (17) 
adg

>  <m_score__min__energy>  (17) 
-10.15

>  <m_primary>  (17) 
energy

$$$$
17:0
     RDKit          3D

 31 33  0  0  0  0  0  0  0  0999 V2000
   59.8080   27.8810   53.0380 C   0  0  0  0  0  0  0  0  0  0  0  0
   58.6780   27.7260   53.8900 O   0  0  0  0  0  0  0  0  0  0  0  0
   57.3920   28.2060   53.5990 C   0  0  0  0  0  0  0  0  0  0  0  0
   57.1890   29.4410   52.9350 C   0  0  0  0  0  0  0  0  0  0  0  0
   55.8860   29.8600   52.6770 C   0  0  0  0  0  0  0  0  0  0  0  0
   54.8060   29.0910   53.0580 C   0  0  0  0  0  0  0  0  0  0  0  0
   54.9670   27.8720   53.7110 C   0  0  0  0  0  0  0  0  0  0  0  0
   56.2800   27.4210   53.9870 C   0  0  0  0  0  0  0  0  0  0  0  0
   56.5220   26.2050   54.6430 O   0  0  0  0  0  0  0  0  0  0  0  0
   55.6240   25.1000   54.6500 C   0  0  0  0  0  0  0  0  0  0  0  0
   53.5970   29.7790   52.6580 C   0  0  0  0  0  0  0  0  0  0  0  0
   52.2600   29.4120   52.8170 C   0  0  0  0  0  0  0  0  0  0  0  0
   51.2720   30.2810   52.3260 C   0  0  0  0  0  0  0  0  0  0  0  0
   51.6330   31.4880   51.6930 C   0  0  0  0  0  0  0  0  0  0  0  0
   50.6460   32.3390   51.2130 O   0  0  0  0  0  0  0  0  0  0  0  0
   52.9880   31.8340   51.5450 C   0  0  0  0  0  0  0  0  0  0  0  0
   53.9580   30.9600   52.0380 C   0  0  0  0  0  0  0  0  0  0  0  0
   55.4500   31.1240   51.9910 C   0  0  0  0  0  0  0  0  0  0  0  0
   60.7139   28.0053   53.6494 H   0  0  0  0  0  0  0  0  0  0  0  0
   59.9136   26.9889   52.4031 H   0  0  0  0  0  0  0  0  0  0  0  0
   59.6695   28.7686   52.4031 H   0  0  0  0  0  0  0  0  0  0  0  0
   58.0461   30.0586   52.6284 H   0  0  0  0  0  0  0  0  0  0  0  0
   54.0931   27.2726   54.0059 H   0  0  0  0  0  0  0  0  0  0  0  0
   55.3960   24.8194   55.6889 H   0  0  0  0  0  0  0  0  0  0  0  0
   54.6941   25.3799   54.1333 H   0  0  0  0  0  0  0  0  0  0  0  0
   56.0882   24.2470   54.1333 H   0  0  0  0  0  0  0  0  0  0  0  0
   51.9877   28.4687   53.3129 H   0  0  0  0  0  0  0  0  0  0  0  0
   50.2095   30.0182   52.4360 H   0  0  0  0  0  0  0  0  0  0  0  0
   53.2772   32.7734   51.0512 H   0  0  0  0  0  0  0  0  0  0  0  0
   55.8208   31.1733   50.9565 H   0  0  0  0  0  0  0  0  0  0  0  0
   55.8243   32.0492   52.4535 H   0  0  0  0  0  0  0  0  0  0  0  0
  1  2  1  0
  2  3  1  0
  3  4  2  0
  4  5  1  0
  5  6  2  0
  6  7  1  0
  7  8  2  0
  8  9  1  0
  9 10  1  0
  6 11  1  0
 11 12  2  0
 12 13  1  0
 13 14  2  0
 14 15  1  0
 14 16  1  0
 16 17  2  0
 17 18  1  0
  8  3  1  0
 17 11  1  0
 18  5  1  0
  1 19  1  0
  1 20  1  0
  1 21  1  0
  4 22  1  0
  7 23  1  0
 10 24  1  0
 10 25  1  0
 10 26  1  0
 12 27  1  0
 13 28  1  0
 16 29  1  0
 18 30  1  0
 18 31  1  0
M  CHG  1  15  -1
M  END
>  <UniqueID>  (18) 
17

>  <SMILES>  (18) 
COc1cc2c(cc1OC)-c1ccc([O-])cc1C2

>  <Energy>  (18) 
54.23405788016243

>  <Genealogy>  (18) 
COc1cc2c(cc1OC)-c1ccc([O-])cc1C2 (protonated)
COc1cc2c(cc1OC)-c1ccc([O-])cc1C2 (3D coordinates assigned)
COc1cc2c(cc1OC)-c1ccc([O-])cc1C2 (nonaromatic ring conformer: 54.23405788016243 kcal/mol)

>  <smiles>  (18) 
COc1cc2c(cc1OC)-c1ccc(O)cc1C2

>  <score_type>  (18) 
oracle

>  <origin>  (18) 
adg

>  <m_score__min__energy>  (18) 
-8.6799999999999997

>  <m_primary>  (18) 
energy

$$$$
18:0
     RDKit          3D

 31 32  0  0  0  0  0  0  0  0999 V2000
   64.9550   31.7930   50.1520 C   0  0  0  0  0  0  0  0  0  0  0  0
   64.8840   33.1150   49.3930 C   0  0  0  0  0  0  0  0  0  0  0  0
   63.5590   33.2830   48.7680 N   0  0  0  0  0  0  0  0  0  0  0  0
   63.4680   33.1010   47.4150 C   0  0  0  0  0  0  0  0  0  0  0  0
   62.2550   33.2580   46.7470 C   0  0  0  0  0  0  0  0  0  0  0  0
   61.1060   33.6130   47.4600 C   0  0  0  0  0  0  0  0  0  0  0  0
   59.8040   33.7810   46.7650 C   0  0  0  0  0  0  0  0  0  0  0  0
   58.6150   33.2930   47.3410 C   0  0  0  0  0  0  0  0  0  0  0  0
   57.3920   33.4530   46.6850 C   0  0  0  0  0  0  0  0  0  0  0  0
   57.3400   34.1020   45.4490 C   0  0  0  0  0  0  0  0  0  0  0  0
   58.5110   34.5910   44.8670 C   0  0  0  0  0  0  0  0  0  0  0  0
   59.7370   34.4340   45.5190 C   0  0  0  0  0  0  0  0  0  0  0  0
   61.2100   33.8090   48.8440 C   0  0  0  0  0  0  0  0  0  0  0  0
   62.4460   33.6540   49.4940 C   0  0  0  0  0  0  0  0  0  0  0  0
   62.4990   33.8600   50.9880 C   0  0  0  0  0  0  0  0  0  0  0  0
   64.9444   31.9904   51.2341 H   0  0  0  0  0  0  0  0  0  0  0  0
   64.0890   31.1697   49.8845 H   0  0  0  0  0  0  0  0  0  0  0  0
   65.8827   31.2660   49.8845 H   0  0  0  0  0  0  0  0  0  0  0  0
   65.0612   33.9443   50.0936 H   0  0  0  0  0  0  0  0  0  0  0  0
   65.6509   33.1133   48.6044 H   0  0  0  0  0  0  0  0  0  0  0  0
   64.3676   32.8261   46.8448 H   0  0  0  0  0  0  0  0  0  0  0  0
   62.2016   33.1027   45.6593 H   0  0  0  0  0  0  0  0  0  0  0  0
   58.6496   32.7821   48.3146 H   0  0  0  0  0  0  0  0  0  0  0  0
   56.4688   33.0675   47.1423 H   0  0  0  0  0  0  0  0  0  0  0  0
   56.3761   34.2278   44.9342 H   0  0  0  0  0  0  0  0  0  0  0  0
   58.4685   35.1009   43.8932 H   0  0  0  0  0  0  0  0  0  0  0  0
   60.6558   34.8230   45.0559 H   0  0  0  0  0  0  0  0  0  0  0  0
   60.3181   34.0860   49.4251 H   0  0  0  0  0  0  0  0  0  0  0  0
   62.2560   32.9157   51.4972 H   0  0  0  0  0  0  0  0  0  0  0  0
   63.5096   34.1834   51.2779 H   0  0  0  0  0  0  0  0  0  0  0  0
   61.7700   34.6310   51.2779 H   0  0  0  0  0  0  0  0  0  0  0  0
  1  2  1  0
  2  3  1  0
  3  4  2  0
  4  5  1  0
  5  6  2  0
  6  7  1  0
  7  8  2  0
  8  9  1  0
  9 10  2  0
 10 11  1  0
 11 12  2  0
  6 13  1  0
 13 14  2  0
 14 15  1  0
 14  3  1  0
 12  7  1  0
  1 16  1  0
  1 17  1  0
  1 18  1  0
  2 19  1  0
  2 20  1  0
  4 21  1  0
  5 22  1  0
  8 23  1  0
  9 24  1  0
 10 25  1  0
 11 26  1  0
 12 27  1  0
 13 28  1  0
 15 29  1  0
 15 30  1  0
 15 31  1  0
M  CHG  1   3   1
M  END
>  <UniqueID>  (19) 
18

>  <SMILES>  (19) 
CC[n+]1ccc(-c2ccccc2)cc1C

>  <Energy>  (19) 
36.52216523334201

>  <Genealogy>  (19) 
CC[n+]1ccc(-c2ccccc2)cc1C (3D coordinates assigned)
CC[n+]1ccc(-c2ccccc2)cc1C (optimized conformer: 36.52216523334201 kcal/mol)

>  <smiles>  (19) 
CC[n+]1ccc(-c2ccccc2)cc1C

>  <score_type>  (19) 
oracle

>  <origin>  (19) 
adg

>  <m_score__min__energy>  (19) 
-4.6299999999999999

>  <m_primary>  (19) 
energy

$$$$
19:0
     RDKit          3D

 38 41  0  0  0  0  0  0  0  0999 V2000
   59.5180   33.4390   50.2940 C   0  0  0  0  0  0  0  0  0  0  0  0
   60.5440   34.1760   49.6380 O   0  0  0  0  0  0  0  0  0  0  0  0
   61.8510   33.7080   49.4230 C   0  0  0  0  0  0  0  0  0  0  0  0
   62.9180   34.0730   50.2680 C   0  0  0  0  0  0  0  0  0  0  0  0
   64.2030   33.5790   50.0410 C   0  0  0  0  0  0  0  0  0  0  0  0
   64.4430   32.7220   48.9680 C   0  0  0  0  0  0  0  0  0  0  0  0
   63.3980   32.3530   48.1190 C   0  0  0  0  0  0  0  0  0  0  0  0
   62.0950   32.8360   48.3390 C   0  0  0  0  0  0  0  0  0  0  0  0
   61.0260   32.4660   47.4490 N   0  0  0  0  0  0  0  0  0  0  0  0
   60.6110   31.2160   47.2620 N   0  0  0  0  0  0  0  0  0  0  0  0
   59.5880   31.2280   46.3690 C   0  0  0  0  0  0  0  0  0  0  0  0
   58.8880   30.0070   45.9190 C   0  0  0  0  0  0  0  0  0  0  0  0
   57.5170   30.0640   45.6150 C   0  0  0  0  0  0  0  0  0  0  0  0
   56.8360   28.9150   45.2010 C   0  0  0  0  0  0  0  0  0  0  0  0
   55.5170   28.9810   44.8980 F   0  0  0  0  0  0  0  0  0  0  0  0
   57.5150   27.6980   45.0990 C   0  0  0  0  0  0  0  0  0  0  0  0
   58.8740   27.6260   45.4210 C   0  0  0  0  0  0  0  0  0  0  0  0
   59.5260   26.4400   45.3430 F   0  0  0  0  0  0  0  0  0  0  0  0
   59.5570   28.7740   45.8350 C   0  0  0  0  0  0  0  0  0  0  0  0
   59.3480   32.5420   45.9930 C   0  0  0  0  0  0  0  0  0  0  0  0
   58.4130   33.1610   45.1670 C   0  0  0  0  0  0  0  0  0  0  0  0
   58.4900   34.5600   45.0420 C   0  0  0  0  0  0  0  0  0  0  0  0
   59.4810   35.2770   45.7500 C   0  0  0  0  0  0  0  0  0  0  0  0
   60.3580   34.6240   46.5690 N   0  0  0  0  0  0  0  0  0  0  0  0
   60.2670   33.2750   46.6850 C   0  0  0  0  0  0  0  0  0  0  0  0
   59.6419   33.5280   51.3834 H   0  0  0  0  0  0  0  0  0  0  0  0
   58.5356   33.8392   50.0028 H   0  0  0  0  0  0  0  0  0  0  0  0
   59.5836   32.3803   50.0028 H   0  0  0  0  0  0  0  0  0  0  0  0
   62.7364   34.7529   51.1134 H   0  0  0  0  0  0  0  0  0  0  0  0
   65.0279   33.8662   50.7097 H   0  0  0  0  0  0  0  0  0  0  0  0
   65.4575   32.3359   48.7900 H   0  0  0  0  0  0  0  0  0  0  0  0
   63.5948   31.6796   47.2717 H   0  0  0  0  0  0  0  0  0  0  0  0
   56.9765   31.0180   45.7033 H   0  0  0  0  0  0  0  0  0  0  0  0
   56.9804   26.7964   44.7653 H   0  0  0  0  0  0  0  0  0  0  0  0
   60.6237   28.7115   46.0963 H   0  0  0  0  0  0  0  0  0  0  0  0
   57.6459   32.5798   44.6343 H   0  0  0  0  0  0  0  0  0  0  0  0
   57.7800   35.0951   44.3942 H   0  0  0  0  0  0  0  0  0  0  0  0
   59.5467   36.3696   45.6407 H   0  0  0  0  0  0  0  0  0  0  0  0
  1  2  1  0
  2  3  1  0
  3  4  2  0
  4  5  1  0
  5  6  2  0
  6  7  1  0
  7  8  2  0
  8  9  1  0
  9 10  1  0
 10 11  2  0
 11 12  1  0
 12 13  2  0
 13 14  1  0
 14 15  1  0
 14 16  2  0
 16 17  1  0
 17 18  1  0
 17 19  2  0
 11 20  1  0
 20 21  2  0
 21 22  1  0
 22 23  2  0
 23 24  1  0
 24 25  2  0
  8  3  1  0
 25  9  1  0
 19 12  1  0
 25 20  1  0
  1 26  1  0
  1 27  1  0
  1 28  1  0
  4 29  1  0
  5 30  1  0
  6 31  1  0
  7 32  1  0
 13 33  1  0
 16 34  1  0
 19 35  1  0
 21 36  1  0
 22 37  1  0
 23 38  1  0
M  END
>  <UniqueID>  (20) 
19

>  <SMILES>  (20) 
COc1ccccc1-n1nc(-c2cc(F)cc(F)c2)c2cccnc21

>  <Energy>  (20) 
92.80966023738446

>  <Genealogy>  (20) 
COc1ccccc1-n1nc(-c2cc(F)cc(F)c2)c2cccnc21 (3D coordinates assigned)
COc1ccccc1-n1nc(-c2cc(F)cc(F)c2)c2cccnc21 (optimized conformer: 92.80966023738446 kcal/mol)

>  <smiles>  (20) 
COc1ccccc1-n1nc(-c2cc(F)cc(F)c2)c2cccnc21

>  <score_type>  (20) 
oracle

>  <origin>  (20) 
adg

>  <m_score__min__energy>  (20) 
-7.21

>  <m_primary>  (20) 
energy

$$$$
20:0
     RDKit          3D

 43 45  0  0  0  0  0  0  0  0999 V2000
   62.6680   33.0900   47.1960 C   0  0  0  0  0  0  0  0  0  0  0  0
   61.3590   32.3610   47.1490 C   0  0  0  0  0  0  0  0  0  0  0  0
   61.1670   31.2030   47.9180 C   0  0  0  0  0  0  0  0  0  0  0  0
   59.9360   30.5420   47.8990 C   0  0  0  0  0  0  0  0  0  0  0  0
   58.8840   31.0400   47.1270 C   0  0  0  0  0  0  0  0  0  0  0  0
   59.0530   32.2110   46.3690 C   0  0  0  0  0  0  0  0  0  0  0  0
   57.9670   32.7300   45.5770 N   0  0  0  0  0  0  0  0  0  0  0  0
   57.0830   33.7410   46.1670 C   0  0  0  0  0  0  0  0  0  0  0  0
   57.8600   32.3630   44.1800 C   0  0  0  0  0  0  0  0  0  0  0  0
   58.3900   33.0950   43.3010 O   0  0  0  0  0  0  0  0  0  0  0  0
   57.1070   31.1400   43.7230 C   0  0  0  0  0  0  0  0  0  0  0  0
   57.6640   29.9200   44.3230 N   0  0  0  0  0  0  0  0  0  0  0  0
   58.9890   29.7580   44.3040 N   0  0  0  0  0  0  0  0  0  0  0  0
   59.6090   28.6740   44.8360 C   0  0  0  0  0  0  0  0  0  0  0  0
   61.1070   28.6050   44.7660 C   0  0  0  0  0  0  0  0  0  0  0  0
   58.8300   27.6630   45.4340 C   0  0  0  0  0  0  0  0  0  0  0  0
   59.4060   26.5130   46.0110 C   0  0  0  0  0  0  0  0  0  0  0  0
   58.5960   25.5330   46.5920 C   0  0  0  0  0  0  0  0  0  0  0  0
   57.2110   25.6840   46.6050 C   0  0  0  0  0  0  0  0  0  0  0  0
   56.6230   26.8170   46.0390 C   0  0  0  0  0  0  0  0  0  0  0  0
   57.4240   27.8170   45.4510 C   0  0  0  0  0  0  0  0  0  0  0  0
   56.8540   28.9660   44.8760 C   0  0  0  0  0  0  0  0  0  0  0  0
   55.5990   29.1170   44.8700 O   0  0  0  0  0  0  0  0  0  0  0  0
   60.2940   32.8690   46.3880 C   0  0  0  0  0  0  0  0  0  0  0  0
   62.9598   33.2525   48.2441 H   0  0  0  0  0  0  0  0  0  0  0  0
   63.4394   32.4916   46.6892 H   0  0  0  0  0  0  0  0  0  0  0  0
   62.5654   34.0609   46.6892 H   0  0  0  0  0  0  0  0  0  0  0  0
   61.9884   30.8143   48.5379 H   0  0  0  0  0  0  0  0  0  0  0  0
   59.7952   29.6273   48.4935 H   0  0  0  0  0  0  0  0  0  0  0  0
   57.9186   30.5130   47.1123 H   0  0  0  0  0  0  0  0  0  0  0  0
   57.1366   33.6797   47.2640 H   0  0  0  0  0  0  0  0  0  0  0  0
   57.4009   34.7419   45.8397 H   0  0  0  0  0  0  0  0  0  0  0  0
   56.0486   33.5595   45.8397 H   0  0  0  0  0  0  0  0  0  0  0  0
   56.0520   31.2364   44.0191 H   0  0  0  0  0  0  0  0  0  0  0  0
   57.1966   31.0634   42.6293 H   0  0  0  0  0  0  0  0  0  0  0  0
   61.5212   28.5859   45.7849 H   0  0  0  0  0  0  0  0  0  0  0  0
   61.4074   27.6921   44.2309 H   0  0  0  0  0  0  0  0  0  0  0  0
   61.4901   29.4865   44.2309 H   0  0  0  0  0  0  0  0  0  0  0  0
   60.4986   26.3861   46.0040 H   0  0  0  0  0  0  0  0  0  0  0  0
   59.0539   24.6391   47.0407 H   0  0  0  0  0  0  0  0  0  0  0  0
   56.5790   24.9085   47.0624 H   0  0  0  0  0  0  0  0  0  0  0  0
   55.5289   26.9299   46.0520 H   0  0  0  0  0  0  0  0  0  0  0  0
   60.4325   33.7896   45.8020 H   0  0  0  0  0  0  0  0  0  0  0  0
  1  2  1  0
  2  3  2  0
  3  4  1  0
  4  5  2  0
  5  6  1  0
  6  7  1  0
  7  8  1  0
  7  9  1  0
  9 10  2  0
  9 11  1  0
 11 12  1  0
 12 13  1  0
 13 14  2  0
 14 15  1  0
 14 16  1  0
 16 17  2  0
 17 18  1  0
 18 19  2  0
 19 20  1  0
 20 21  2  0
 21 22  1  0
 22 23  2  0
  6 24  2  0
 24  2  1  0
 22 12  1  0
 21 16  1  0
  1 25  1  0
  1 26  1  0
  1 27  1  0
  3 28  1  0
  4 29  1  0
  5 30  1  0
  8 31  1  0
  8 32  1  0
  8 33  1  0
 11 34  1  0
 11 35  1  0
 15 36  1  0
 15 37  1  0
 15 38  1  0
 17 39  1  0
 18 40  1  0
 19 41  1  0
 20 42  1  0
 24 43  1  0
M  END
>  <UniqueID>  (21) 
20

>  <SMILES>  (21) 
Cc1cccc(N(C)C(=O)Cn2nc(C)c3ccccc3c2=O)c1

>  <Energy>  (21) 
56.01316527371226

>  <Genealogy>  (21) 
Cc1cccc(N(C)C(=O)Cn2nc(C)c3ccccc3c2=O)c1 (3D coordinates assigned)
Cc1cccc(N(C)C(=O)Cn2nc(C)c3ccccc3c2=O)c1 (optimized conformer: 56.01316527371226 kcal/mol)

>  <smiles>  (21) 
Cc1cccc(N(C)C(=O)Cn2nc(C)c3ccccc3c2=O)c1

>  <score_type>  (21) 
oracle

>  <origin>  (21) 
adg

>  <m_score__min__energy>  (21) 
-8.0299999999999994

>  <m_primary>  (21) 
energy

$$$$
21:0
     RDKit          3D

 50 52  0  0  0  0  0  0  0  0999 V2000
   57.7390   23.6880   44.6190 C   0  0  0  0  0  0  0  0  0  0  0  0
   58.2090   24.8430   45.3060 O   0  0  0  0  0  0  0  0  0  0  0  0
   57.8020   26.1550   45.0210 C   0  0  0  0  0  0  0  0  0  0  0  0
   57.0610   26.9290   45.9330 C   0  0  0  0  0  0  0  0  0  0  0  0
   56.6780   28.2330   45.6010 C   0  0  0  0  0  0  0  0  0  0  0  0
   57.0190   28.7800   44.3540 C   0  0  0  0  0  0  0  0  0  0  0  0
   56.6040   30.1920   43.9970 C   0  0  0  0  0  0  0  0  0  0  0  0
   57.2180   31.2350   44.8500 N   0  0  0  0  0  0  0  0  0  0  0  0
   57.4560   32.5060   44.1380 C   0  0  0  0  0  0  0  0  0  0  0  0
   58.1160   33.5450   45.0660 C   0  0  0  0  0  0  0  0  0  0  0  0
   58.0930   33.0840   46.4700 N   0  0  0  0  0  0  0  0  0  0  0  0
   58.6370   34.1120   47.3790 C   0  0  0  0  0  0  0  0  0  0  0  0
   60.1130   33.9020   47.5920 C   0  0  0  0  0  0  0  0  0  0  0  0
   60.6150   33.5850   48.8630 C   0  0  0  0  0  0  0  0  0  0  0  0
   61.9860   33.3750   49.0460 C   0  0  0  0  0  0  0  0  0  0  0  0
   62.8710   33.4720   47.9660 C   0  0  0  0  0  0  0  0  0  0  0  0
   64.2360   33.2490   48.2020 O   0  0  0  0  0  0  0  0  0  0  0  0
   64.7660   32.7160   49.4120 C   0  0  0  0  0  0  0  0  0  0  0  0
   62.3670   33.7870   46.6910 C   0  0  0  0  0  0  0  0  0  0  0  0
   60.9970   33.9990   46.5070 C   0  0  0  0  0  0  0  0  0  0  0  0
   58.8570   31.8240   46.6050 C   0  0  0  0  0  0  0  0  0  0  0  0
   58.4350   30.7850   45.5460 C   0  0  0  0  0  0  0  0  0  0  0  0
   57.7680   28.0070   43.4520 C   0  0  0  0  0  0  0  0  0  0  0  0
   58.1520   26.7060   43.7830 C   0  0  0  0  0  0  0  0  0  0  0  0
   57.4293   22.9270   45.3504 H   0  0  0  0  0  0  0  0  0  0  0  0
   56.8804   23.9608   43.9879 H   0  0  0  0  0  0  0  0  0  0  0  0
   58.5442   23.2838   43.9879 H   0  0  0  0  0  0  0  0  0  0  0  0
   56.7820   26.5075   46.9100 H   0  0  0  0  0  0  0  0  0  0  0  0
   56.1053   28.8342   46.3226 H   0  0  0  0  0  0  0  0  0  0  0  0
   56.8938   30.3841   42.9534 H   0  0  0  0  0  0  0  0  0  0  0  0
   55.5169   30.2529   44.1533 H   0  0  0  0  0  0  0  0  0  0  0  0
   58.1179   32.3188   43.2796 H   0  0  0  0  0  0  0  0  0  0  0  0
   56.4881   32.9040   43.7993 H   0  0  0  0  0  0  0  0  0  0  0  0
   59.1596   33.6965   44.7532 H   0  0  0  0  0  0  0  0  0  0  0  0
   57.5544   34.4882   44.9953 H   0  0  0  0  0  0  0  0  0  0  0  0
   58.4729   35.1069   46.9395 H   0  0  0  0  0  0  0  0  0  0  0  0
   58.1238   34.0358   48.3490 H   0  0  0  0  0  0  0  0  0  0  0  0
   59.9285   33.5013   49.7184 H   0  0  0  0  0  0  0  0  0  0  0  0
   62.3717   33.1316   50.0470 H   0  0  0  0  0  0  0  0  0  0  0  0
   64.2813   33.2035   50.2707 H   0  0  0  0  0  0  0  0  0  0  0  0
   64.5761   31.6332   49.4498 H   0  0  0  0  0  0  0  0  0  0  0  0
   65.8499   32.8997   49.4498 H   0  0  0  0  0  0  0  0  0  0  0  0
   63.0534   33.8669   45.8351 H   0  0  0  0  0  0  0  0  0  0  0  0
   60.6106   34.2431   45.5064 H   0  0  0  0  0  0  0  0  0  0  0  0
   59.9283   32.0419   46.4836 H   0  0  0  0  0  0  0  0  0  0  0  0
   58.6508   31.4028   47.6000 H   0  0  0  0  0  0  0  0  0  0  0  0
   59.2472   30.6610   44.8146 H   0  0  0  0  0  0  0  0  0  0  0  0
   58.2299   29.8264   46.0450 H   0  0  0  0  0  0  0  0  0  0  0  0
   58.0543   28.4295   42.4776 H   0  0  0  0  0  0  0  0  0  0  0  0
   58.7341   26.1095   43.0652 H   0  0  0  0  0  0  0  0  0  0  0  0
  1  2  1  0
  2  3  1  0
  3  4  2  0
  4  5  1  0
  5  6  2  0
  6  7  1  0
  7  8  1  0
  8  9  1  0
  9 10  1  0
 10 11  1  0
 11 12  1  0
 12 13  1  0
 13 14  2  0
 14 15  1  0
 15 16  2  0
 16 17  1  0
 17 18  1  0
 16 19  1  0
 19 20  2  0
 11 21  1  0
 21 22  1  0
  6 23  1  0
 23 24  2  0
 24  3  1  0
 22  8  1  0
 20 13  1  0
  1 25  1  0
  1 26  1  0
  1 27  1  0
  4 28  1  0
  5 29  1  0
  7 30  1  0
  7 31  1  0
  9 32  1  0
  9 33  1  0
 10 34  1  0
 10 35  1  0
 12 36  1  0
 12 37  1  0
 14 38  1  0
 15 39  1  0
 18 40  1  0
 18 41  1  0
 18 42  1  0
 19 43  1  0
 20 44  1  0
 21 45  1  0
 21 46  1  0
 22 47  1  0
 22 48  1  0
 23 49  1  0
 24 50  1  0
M  END
>  <UniqueID>  (22) 
21

>  <SMILES>  (22) 
COc1ccc(CN2CCN(Cc3ccc(OC)cc3)CC2)cc1

>  <Energy>  (22) 
60.35038364939347

>  <Genealogy>  (22) 
COc1ccc(CN2CCN(Cc3ccc(OC)cc3)CC2)cc1 (3D coordinates assigned)
COc1ccc(CN2CCN(Cc3ccc(OC)cc3)CC2)cc1 (nonaromatic ring conformer: 60.35038364939347 kcal/mol)

>  <smiles>  (22) 
COc1ccc(CN2CCN(Cc3ccc(OC)cc3)CC2)cc1

>  <score_type>  (22) 
oracle

>  <origin>  (22) 
adg

>  <m_score__min__energy>  (22) 
-7.5800000000000001

>  <m_primary>  (22) 
energy

$$$$
22:0
     RDKit          3D

 49 50  0  0  0  0  0  0  0  0999 V2000
   55.8160   30.0870   43.6610 C   0  0  0  0  0  0  0  0  0  0  0  0
   56.4290   29.9750   44.9420 O   0  0  0  0  0  0  0  0  0  0  0  0
   57.6980   29.4180   45.1730 C   0  0  0  0  0  0  0  0  0  0  0  0
   57.9240   28.0290   45.0970 C   0  0  0  0  0  0  0  0  0  0  0  0
   59.2080   27.5120   45.2780 C   0  0  0  0  0  0  0  0  0  0  0  0
   60.2800   28.3690   45.5280 C   0  0  0  0  0  0  0  0  0  0  0  0
   60.0680   29.7450   45.6170 C   0  0  0  0  0  0  0  0  0  0  0  0
   58.7760   30.2770   45.4710 C   0  0  0  0  0  0  0  0  0  0  0  0
   58.5770   31.7400   45.5680 C   0  0  0  0  0  0  0  0  0  0  0  0
   58.0790   32.4210   44.4460 C   0  0  0  0  0  0  0  0  0  0  0  0
   57.8340   33.7940   44.4980 C   0  0  0  0  0  0  0  0  0  0  0  0
   58.0780   34.5020   45.6730 C   0  0  0  0  0  0  0  0  0  0  0  0
   58.5850   33.8460   46.7960 C   0  0  0  0  0  0  0  0  0  0  0  0
   58.8660   32.4680   46.7550 C   0  0  0  0  0  0  0  0  0  0  0  0
   59.4520   31.8020   47.9810 C   0  0  0  0  0  0  0  0  0  0  0  0
   60.8030   32.3340   48.3250 N   0  0  0  0  0  0  0  0  0  0  0  0
   60.8310   33.6140   49.1080 C   0  0  0  0  0  0  0  0  0  0  0  0
   59.6400   33.8570   50.0590 C   0  0  0  0  0  0  0  0  0  0  0  0
   62.1230   33.6620   49.9380 C   0  0  0  0  0  0  0  0  0  0  0  0
   61.7710   32.3940   47.1790 C   0  0  0  0  0  0  0  0  0  0  0  0
   63.1100   31.6830   47.4430 C   0  0  0  0  0  0  0  0  0  0  0  0
   61.9890   33.8290   46.6870 C   0  0  0  0  0  0  0  0  0  0  0  0
   54.7408   30.2834   43.7849 H   0  0  0  0  0  0  0  0  0  0  0  0
   56.2784   30.9155   43.1044 H   0  0  0  0  0  0  0  0  0  0  0  0
   55.9555   29.1485   43.1044 H   0  0  0  0  0  0  0  0  0  0  0  0
   57.0840   27.3485   44.8939 H   0  0  0  0  0  0  0  0  0  0  0  0
   59.3749   26.4261   45.2234 H   0  0  0  0  0  0  0  0  0  0  0  0
   61.2930   27.9596   45.6550 H   0  0  0  0  0  0  0  0  0  0  0  0
   60.9181   30.4179   45.8027 H   0  0  0  0  0  0  0  0  0  0  0  0
   57.8799   31.8671   43.5167 H   0  0  0  0  0  0  0  0  0  0  0  0
   57.4481   34.3175   43.6109 H   0  0  0  0  0  0  0  0  0  0  0  0
   57.8704   35.5814   45.7158 H   0  0  0  0  0  0  0  0  0  0  0  0
   58.7665   34.4117   47.7217 H   0  0  0  0  0  0  0  0  0  0  0  0
   58.7773   31.9732   48.8328 H   0  0  0  0  0  0  0  0  0  0  0  0
   59.5592   30.7294   47.7617 H   0  0  0  0  0  0  0  0  0  0  0  0
   60.7705   34.4081   48.3492 H   0  0  0  0  0  0  0  0  0  0  0  0
   59.9832   33.7870   51.1017 H   0  0  0  0  0  0  0  0  0  0  0  0
   59.2235   34.8586   49.8765 H   0  0  0  0  0  0  0  0  0  0  0  0
   58.8644   33.0986   49.8765 H   0  0  0  0  0  0  0  0  0  0  0  0
   61.8715   33.6527   51.0088 H   0  0  0  0  0  0  0  0  0  0  0  0
   62.7446   32.7863   49.6997 H   0  0  0  0  0  0  0  0  0  0  0  0
   62.6779   34.5814   49.6997 H   0  0  0  0  0  0  0  0  0  0  0  0
   61.2879   31.8232   46.3723 H   0  0  0  0  0  0  0  0  0  0  0  0
   63.2719   31.5970   48.5276 H   0  0  0  0  0  0  0  0  0  0  0  0
   63.0864   30.6786   46.9950 H   0  0  0  0  0  0  0  0  0  0  0  0
   63.9288   32.2651   46.9950 H   0  0  0  0  0  0  0  0  0  0  0  0
   62.0912   34.5015   47.5515 H   0  0  0  0  0  0  0  0  0  0  0  0
   62.9041   33.8728   46.0782 H   0  0  0  0  0  0  0  0  0  0  0  0
   61.1282   34.1426   46.0782 H   0  0  0  0  0  0  0  0  0  0  0  0
  1  2  1  0
  2  3  1  0
  3  4  2  0
  4  5  1  0
  5  6  2  0
  6  7  1  0
  7  8  2  0
  8  9  1  0
  9 10  2  0
 10 11  1  0
 11 12  2  0
 12 13  1  0
 13 14  2  0
 14 15  1  0
 15 16  1  0
 16 17  1  0
 17 18  1  0
 17 19  1  0
 16 20  1  0
 20 21  1  0
 20 22  1  0
  8  3  1  0
 14  9  1  0
  1 23  1  0
  1 24  1  0
  1 25  1  0
  4 26  1  0
  5 27  1  0
  6 28  1  0
  7 29  1  0
 10 30  1  0
 11 31  1  0
 12 32  1  0
 13 33  1  0
 15 34  1  0
 15 35  1  0
 17 36  1  0
 18 37  1  0
 18 38  1  0
 18 39  1  0
 19 40  1  0
 19 41  1  0
 19 42  1  0
 20 43  1  0
 21 44  1  0
 21 45  1  0
 21 46  1  0
 22 47  1  0
 22 48  1  0
 22 49  1  0
M  END
>  <UniqueID>  (23) 
22

>  <SMILES>  (23) 
COc1ccccc1-c1ccccc1CN(C(C)C)C(C)C

>  <Energy>  (23) 
63.39903736702811

>  <Genealogy>  (23) 
COc1ccccc1-c1ccccc1CN(C(C)C)C(C)C (3D coordinates assigned)
COc1ccccc1-c1ccccc1CN(C(C)C)C(C)C (optimized conformer: 63.39903736702811 kcal/mol)

>  <smiles>  (23) 
COc1ccccc1-c1ccccc1CN(C(C)C)C(C)C

>  <score_type>  (23) 
oracle

>  <origin>  (23) 
adg

>  <m_score__min__energy>  (23) 
-7.3499999999999996

>  <m_primary>  (23) 
energy

$$$$
23:0
     RDKit          3D

 30 31  0  0  0  0  0  0  0  0999 V2000
   56.9920   24.0650   47.7760 C   0  0  0  0  0  0  0  0  0  0  0  0
   56.7050   25.0280   47.1100 C   0  0  0  0  0  0  0  0  0  0  0  0
   56.3640   26.1720   46.3080 C   0  0  0  0  0  0  0  0  0  0  0  0
   55.1600   26.3730   45.9970 O   0  0  0  0  0  0  0  0  0  0  0  0
   57.4150   27.1580   45.9020 C   0  0  0  0  0  0  0  0  0  0  0  0
   56.9230   27.9810   44.7990 N   0  0  0  0  0  0  0  0  0  0  0  0
   57.5730   29.1870   44.3750 C   0  0  0  0  0  0  0  0  0  0  0  0
   59.1970   29.3790   44.4940 S   0  0  0  0  0  0  0  0  0  0  0  0
   56.5880   30.5360   43.7310 S   0  0  0  0  0  0  0  0  0  0  0  0
   57.5800   31.7560   44.5900 C   0  0  0  0  0  0  0  0  0  0  0  0
   58.1130   32.8420   43.8870 C   0  0  0  0  0  0  0  0  0  0  0  0
   58.8410   33.8280   44.5580 C   0  0  0  0  0  0  0  0  0  0  0  0
   59.0430   33.7340   45.9430 C   0  0  0  0  0  0  0  0  0  0  0  0
   59.7580   34.7260   46.6320 C   0  0  0  0  0  0  0  0  0  0  0  0
   59.9440   34.6250   48.0130 C   0  0  0  0  0  0  0  0  0  0  0  0
   59.4210   33.5360   48.7170 C   0  0  0  0  0  0  0  0  0  0  0  0
   58.7070   32.5400   48.0430 C   0  0  0  0  0  0  0  0  0  0  0  0
   58.5130   32.6300   46.6560 C   0  0  0  0  0  0  0  0  0  0  0  0
   57.7870   31.6440   45.9710 C   0  0  0  0  0  0  0  0  0  0  0  0
   57.2539   23.1863   48.3837 H   0  0  0  0  0  0  0  0  0  0  0  0
   57.6600   27.8037   46.7582 H   0  0  0  0  0  0  0  0  0  0  0  0
   58.3151   26.6157   45.5767 H   0  0  0  0  0  0  0  0  0  0  0  0
   55.9300   27.8380   44.5050 H   0  0  0  0  0  0  0  0  0  0  0  0
   57.9582   32.9200   42.8007 H   0  0  0  0  0  0  0  0  0  0  0  0
   59.2565   34.6795   43.9992 H   0  0  0  0  0  0  0  0  0  0  0  0
   60.1727   35.5846   46.0836 H   0  0  0  0  0  0  0  0  0  0  0  0
   60.5042   35.4055   48.5487 H   0  0  0  0  0  0  0  0  0  0  0  0
   59.5716   33.4624   49.8042 H   0  0  0  0  0  0  0  0  0  0  0  0
   58.2970   31.6851   48.6007 H   0  0  0  0  0  0  0  0  0  0  0  0
   57.3797   30.7817   46.5192 H   0  0  0  0  0  0  0  0  0  0  0  0
  1  2  3  0
  2  3  1  0
  3  4  2  0
  3  5  1  0
  5  6  1  0
  6  7  1  0
  7  8  2  0
  7  9  1  0
  9 10  1  0
 10 11  2  0
 11 12  1  0
 12 13  2  0
 13 14  1  0
 14 15  2  0
 15 16  1  0
 16 17  2  0
 17 18  1  0
 18 19  2  0
 19 10  1  0
 18 13  1  0
  1 20  1  0
  5 21  1  0
  5 22  1  0
  6 23  1  0
 11 24  1  0
 12 25  1  0
 14 26  1  0
 15 27  1  0
 16 28  1  0
 17 29  1  0
 19 30  1  0
M  END
>  <UniqueID>  (24) 
23

>  <SMILES>  (24) 
C#CC(=O)CNC(=S)Sc1ccc2ccccc2c1

>  <Energy>  (24) 
22.247620842273633

>  <Genealogy>  (24) 
C#CC(=O)CNC(=S)Sc1ccc2ccccc2c1 (3D coordinates assigned)
C#CC(=O)CNC(=S)Sc1ccc2ccccc2c1 (optimized conformer: 22.247620842273633 kcal/mol)

>  <smiles>  (24) 
C#CC(=O)CNC(=S)Sc1ccc2ccccc2c1

>  <score_type>  (24) 
oracle

>  <origin>  (24) 
adg

>  <m_score__min__energy>  (24) 
-7.8300000000000001

>  <m_primary>  (24) 
energy

$$$$
24:0
     RDKit          3D

 41 44  0  0  0  0  0  0  0  0999 V2000
   63.3960   34.4480   50.9180 C   0  0  0  0  0  0  0  0  0  0  0  0
   62.6420   34.9690   49.8270 O   0  0  0  0  0  0  0  0  0  0  0  0
   61.8510   34.1920   48.9680 C   0  0  0  0  0  0  0  0  0  0  0  0
   60.4610   34.2270   49.1310 C   0  0  0  0  0  0  0  0  0  0  0  0
   59.6300   33.4680   48.3040 C   0  0  0  0  0  0  0  0  0  0  0  0
   60.1800   32.6580   47.3000 C   0  0  0  0  0  0  0  0  0  0  0  0
   59.3240   31.8590   46.4560 N   0  0  0  0  0  0  0  0  0  0  0  0
   58.9610   30.5820   46.8240 C   0  0  0  0  0  0  0  0  0  0  0  0
   59.3290   30.0000   48.1350 C   0  0  0  0  0  0  0  0  0  0  0  0
   60.1740   28.8800   48.2160 C   0  0  0  0  0  0  0  0  0  0  0  0
   60.5170   28.3440   49.4610 C   0  0  0  0  0  0  0  0  0  0  0  0
   60.0350   28.9300   50.6330 C   0  0  0  0  0  0  0  0  0  0  0  0
   59.2120   30.0590   50.5620 C   0  0  0  0  0  0  0  0  0  0  0  0
   58.8660   30.5970   49.3190 C   0  0  0  0  0  0  0  0  0  0  0  0
   58.2320   29.8120   45.9740 N   0  0  0  0  0  0  0  0  0  0  0  0
   57.8210   30.2710   44.7690 C   0  0  0  0  0  0  0  0  0  0  0  0
   57.0660   29.4460   43.9270 C   0  0  0  0  0  0  0  0  0  0  0  0
   56.6370   29.9220   42.6840 C   0  0  0  0  0  0  0  0  0  0  0  0
   56.9620   31.2190   42.2790 C   0  0  0  0  0  0  0  0  0  0  0  0
   57.7170   32.0470   43.1150 C   0  0  0  0  0  0  0  0  0  0  0  0
   58.1530   31.5780   44.3690 C   0  0  0  0  0  0  0  0  0  0  0  0
   58.9240   32.3640   45.2420 C   0  0  0  0  0  0  0  0  0  0  0  0
   59.2610   33.5320   44.8970 O   0  0  0  0  0  0  0  0  0  0  0  0
   61.5720   32.6270   47.1270 C   0  0  0  0  0  0  0  0  0  0  0  0
   62.4040   33.3850   47.9560 C   0  0  0  0  0  0  0  0  0  0  0  0
   62.9367   34.7653   51.8658 H   0  0  0  0  0  0  0  0  0  0  0  0
   63.4061   33.3493   50.8652 H   0  0  0  0  0  0  0  0  0  0  0  0
   64.4272   34.8271   50.8652 H   0  0  0  0  0  0  0  0  0  0  0  0
   60.0197   34.8575   49.9169 H   0  0  0  0  0  0  0  0  0  0  0  0
   58.5392   33.5057   48.4408 H   0  0  0  0  0  0  0  0  0  0  0  0
   60.5673   28.4230   47.2959 H   0  0  0  0  0  0  0  0  0  0  0  0
   61.1678   27.4590   49.5172 H   0  0  0  0  0  0  0  0  0  0  0  0
   60.3022   28.5043   51.6115 H   0  0  0  0  0  0  0  0  0  0  0  0
   58.8366   30.5240   51.4855 H   0  0  0  0  0  0  0  0  0  0  0  0
   58.2283   31.4918   49.2680 H   0  0  0  0  0  0  0  0  0  0  0  0
   56.8103   28.4238   44.2429 H   0  0  0  0  0  0  0  0  0  0  0  0
   56.0423   29.2737   42.0236 H   0  0  0  0  0  0  0  0  0  0  0  0
   56.6231   31.5895   41.3003 H   0  0  0  0  0  0  0  0  0  0  0  0
   57.9711   33.0675   42.7923 H   0  0  0  0  0  0  0  0  0  0  0  0
   62.0110   32.0028   46.3347 H   0  0  0  0  0  0  0  0  0  0  0  0
   63.4946   33.3507   47.8170 H   0  0  0  0  0  0  0  0  0  0  0  0
  1  2  1  0
  2  3  1  0
  3  4  2  0
  4  5  1  0
  5  6  2  0
  6  7  1  0
  7  8  1  0
  8  9  1  0
  9 10  2  0
 10 11  1  0
 11 12  2  0
 12 13  1  0
 13 14  2  0
  8 15  2  0
 15 16  1  0
 16 17  2  0
 17 18  1  0
 18 19  2  0
 19 20  1  0
 20 21  2  0
 21 22  1  0
 22 23  2  0
  6 24  1  0
 24 25  2  0
 25  3  1  0
 22  7  1  0
 14  9  1  0
 21 16  1  0
  1 26  1  0
  1 27  1  0
  1 28  1  0
  4 29  1  0
  5 30  1  0
 10 31  1  0
 11 32  1  0
 12 33  1  0
 13 34  1  0
 14 35  1  0
 17 36  1  0
 18 37  1  0
 19 38  1  0
 20 39  1  0
 24 40  1  0
 25 41  1  0
M  END
>  <UniqueID>  (25) 
24

>  <SMILES>  (25) 
COc1ccc(-n2c(-c3ccccc3)nc3ccccc3c2=O)cc1

>  <Energy>  (25) 
64.94599927749327

>  <Genealogy>  (25) 
COc1ccc(-n2c(-c3ccccc3)nc3ccccc3c2=O)cc1 (3D coordinates assigned)
COc1ccc(-n2c(-c3ccccc3)nc3ccccc3c2=O)cc1 (optimized conformer: 64.94599927749327 kcal/mol)

>  <smiles>  (25) 
COc1ccc(-n2c(-c3ccccc3)nc3ccccc3c2=O)cc1

>  <score_type>  (25) 
oracle

>  <origin>  (25) 
adg

>  <m_score__min__energy>  (25) 
-6.8499999999999996

>  <m_primary>  (25) 
energy

$$$$
25:0
     RDKit          3D

 33 34  0  0  0  0  0  0  0  0999 V2000
   58.1900   27.3240   47.0680 C   0  0  0  0  0  0  0  0  0  0  0  0
   57.1620   26.7490   46.0980 C   0  0  0  0  0  0  0  0  0  0  0  0
   57.7850   26.5020   44.7160 C   0  0  0  0  0  0  0  0  0  0  0  0
   58.4830   27.7510   44.1500 C   0  0  0  0  0  0  0  0  0  0  0  0
   57.5540   28.6070   43.3930 N   0  0  0  0  0  0  0  0  0  0  0  0
   57.6410   29.9650   43.8670 C   0  0  0  0  0  0  0  0  0  0  0  0
   57.3970   31.0380   42.9930 C   0  0  0  0  0  0  0  0  0  0  0  0
   57.5080   32.3590   43.4390 C   0  0  0  0  0  0  0  0  0  0  0  0
   57.8730   32.6270   44.7650 C   0  0  0  0  0  0  0  0  0  0  0  0
   57.9880   33.9480   45.2220 C   0  0  0  0  0  0  0  0  0  0  0  0
   58.3580   34.2040   46.5470 C   0  0  0  0  0  0  0  0  0  0  0  0
   58.6160   33.1450   47.4210 C   0  0  0  0  0  0  0  0  0  0  0  0
   58.5050   31.8240   46.9780 C   0  0  0  0  0  0  0  0  0  0  0  0
   58.1330   31.5530   45.6510 C   0  0  0  0  0  0  0  0  0  0  0  0
   58.0190   30.2320   45.1950 C   0  0  0  0  0  0  0  0  0  0  0  0
   57.8616   27.1403   48.1017 H   0  0  0  0  0  0  0  0  0  0  0  0
   59.1632   26.8392   46.9008 H   0  0  0  0  0  0  0  0  0  0  0  0
   58.2863   28.4069   46.9008 H   0  0  0  0  0  0  0  0  0  0  0  0
   56.7844   25.7962   46.4975 H   0  0  0  0  0  0  0  0  0  0  0  0
   56.3417   27.4735   45.9875 H   0  0  0  0  0  0  0  0  0  0  0  0
   58.5257   25.6934   44.8028 H   0  0  0  0  0  0  0  0  0  0  0  0
   56.9709   26.2340   44.0265 H   0  0  0  0  0  0  0  0  0  0  0  0
   58.9018   28.3326   44.9845 H   0  0  0  0  0  0  0  0  0  0  0  0
   59.2734   27.4161   43.4621 H   0  0  0  0  0  0  0  0  0  0  0  0
   57.7930   28.5820   42.3750 H   0  0  0  0  0  0  0  0  0  0  0  0
   56.5730   28.2560   43.5050 H   0  0  0  0  0  0  0  0  0  0  0  0
   57.1161   30.8372   41.9486 H   0  0  0  0  0  0  0  0  0  0  0  0
   57.3081   33.1901   42.7466 H   0  0  0  0  0  0  0  0  0  0  0  0
   57.7868   34.7849   44.5371 H   0  0  0  0  0  0  0  0  0  0  0  0
   58.4460   35.2416   46.9013 H   0  0  0  0  0  0  0  0  0  0  0  0
   58.9075   33.3515   48.4614 H   0  0  0  0  0  0  0  0  0  0  0  0
   58.7096   30.9943   47.6706 H   0  0  0  0  0  0  0  0  0  0  0  0
   58.2269   29.3979   45.8814 H   0  0  0  0  0  0  0  0  0  0  0  0
  1  2  1  0
  2  3  1  0
  3  4  1  0
  4  5  1  0
  5  6  1  0
  6  7  2  0
  7  8  1  0
  8  9  2  0
  9 10  1  0
 10 11  2  0
 11 12  1  0
 12 13  2  0
 13 14  1  0
 14 15  2  0
 15  6  1  0
 14  9  1  0
  1 16  1  0
  1 17  1  0
  1 18  1  0
  2 19  1  0
  2 20  1  0
  3 21  1  0
  3 22  1  0
  4 23  1  0
  4 24  1  0
  5 25  1  0
  5 26  1  0
  7 27  1  0
  8 28  1  0
 10 29  1  0
 11 30  1  0
 12 31  1  0
 13 32  1  0
 15 33  1  0
M  CHG  1   5   1
M  END
>  <UniqueID>  (26) 
25

>  <SMILES>  (26) 
CCCC[NH2+]c1ccc2ccccc2c1

>  <Energy>  (26) 
30.460610714421303

>  <Genealogy>  (26) 
CCCC[NH2+]c1ccc2ccccc2c1 (protonated)
CCCC[NH2+]c1ccc2ccccc2c1 (3D coordinates assigned)
CCCC[NH2+]c1ccc2ccccc2c1 (optimized conformer: 30.460610714421303 kcal/mol)

>  <smiles>  (26) 
CCCCNc1ccc2ccccc2c1

>  <score_type>  (26) 
oracle

>  <origin>  (26) 
adg

>  <m_score__min__energy>  (26) 
-4.5199999999999996

>  <m_primary>  (26) 
energy

$$$$
26:0
     RDKit          3D

 56 58  0  0  0  0  0  0  0  0999 V2000
   58.4151   32.3958   49.2531 H   0  0  0  0  0  0  0  0  0  0  0  0
   58.8800   32.0530   48.3170 C   0  0  0  0  0  0  0  0  0  0  0  0
   59.3750   30.8540   48.2810 N   0  0  0  0  0  0  0  0  0  0  0  0
   60.7110   30.6020   48.0640 O   0  0  0  0  0  0  0  0  0  0  0  0
   61.5670   30.3080   49.1560 C   0  0  0  0  0  0  0  0  0  0  0  0
   62.1335   29.3899   48.9414 H   0  0  0  0  0  0  0  0  0  0  0  0
   60.9656   30.1626   50.0655 H   0  0  0  0  0  0  0  0  0  0  0  0
   62.5450   31.4770   49.3680 C   0  0  0  0  0  0  0  0  0  0  0  0
   63.5700   31.0860   49.2875 H   0  0  0  0  0  0  0  0  0  0  0  0
   62.3203   31.8960   50.3599 H   0  0  0  0  0  0  0  0  0  0  0  0
   62.3960   32.5910   48.3960 N   0  0  0  0  0  0  0  0  0  0  0  0
   63.4210   32.6220   47.3280 C   0  0  0  0  0  0  0  0  0  0  0  0
   63.3355   31.7051   46.7264 H   0  0  0  0  0  0  0  0  0  0  0  0
   64.4092   32.6921   47.8061 H   0  0  0  0  0  0  0  0  0  0  0  0
   63.2520   33.8330   46.4100 C   0  0  0  0  0  0  0  0  0  0  0  0
   63.1254   34.7401   47.0192 H   0  0  0  0  0  0  0  0  0  0  0  0
   64.1440   33.9392   45.7752 H   0  0  0  0  0  0  0  0  0  0  0  0
   62.3650   33.6909   45.7752 H   0  0  0  0  0  0  0  0  0  0  0  0
   62.2420   33.9060   49.0590 C   0  0  0  0  0  0  0  0  0  0  0  0
   63.2038   34.2055   49.5009 H   0  0  0  0  0  0  0  0  0  0  0  0
   61.9247   34.6500   48.3135 H   0  0  0  0  0  0  0  0  0  0  0  0
   61.1880   33.8190   50.1570 C   0  0  0  0  0  0  0  0  0  0  0  0
   61.6789   33.8595   51.1405 H   0  0  0  0  0  0  0  0  0  0  0  0
   60.4884   34.6625   50.0614 H   0  0  0  0  0  0  0  0  0  0  0  0
   60.6362   32.8723   50.0614 H   0  0  0  0  0  0  0  0  0  0  0  0
   58.9070   32.9860   47.1650 C   0  0  0  0  0  0  0  0  0  0  0  0
   59.3340   34.2990   47.4250 C   0  0  0  0  0  0  0  0  0  0  0  0
   59.6592   34.5732   48.4394 H   0  0  0  0  0  0  0  0  0  0  0  0
   59.3510   35.2600   46.4130 C   0  0  0  0  0  0  0  0  0  0  0  0
   59.6817   36.2856   46.6338 H   0  0  0  0  0  0  0  0  0  0  0  0
   58.9490   34.9200   45.1230 C   0  0  0  0  0  0  0  0  0  0  0  0
   58.9464   35.6821   44.3298 H   0  0  0  0  0  0  0  0  0  0  0  0
   58.5500   33.6150   44.8360 C   0  0  0  0  0  0  0  0  0  0  0  0
   58.2350   33.3561   43.8144 H   0  0  0  0  0  0  0  0  0  0  0  0
   58.5450   32.6250   45.8360 C   0  0  0  0  0  0  0  0  0  0  0  0
   58.1730   31.2450   45.4400 C   0  0  0  0  0  0  0  0  0  0  0  0
   57.0940   31.0640   44.8140 O   0  0  0  0  0  0  0  0  0  0  0  0
   59.0230   30.1270   45.7520 N   0  0  0  0  0  0  0  0  0  0  0  0
   59.9660   30.3160   46.1600 H   0  0  0  0  0  0  0  0  0  0  0  0
   58.5530   28.7710   45.7640 C   0  0  0  0  0  0  0  0  0  0  0  0
   58.2670   28.1100   46.9700 C   0  0  0  0  0  0  0  0  0  0  0  0
   58.3903   28.6401   47.9259 H   0  0  0  0  0  0  0  0  0  0  0  0
   57.8270   26.7840   46.9640 C   0  0  0  0  0  0  0  0  0  0  0  0
   57.6077   26.2749   47.9141 H   0  0  0  0  0  0  0  0  0  0  0  0
   57.6640   26.1000   45.7510 C   0  0  0  0  0  0  0  0  0  0  0  0
   57.2510   24.7590   45.7350 C   0  0  0  0  0  0  0  0  0  0  0  0
   57.0442   24.2369   46.6808 H   0  0  0  0  0  0  0  0  0  0  0  0
   57.1020   24.0860   44.5200 C   0  0  0  0  0  0  0  0  0  0  0  0
   56.7799   23.0343   44.5116 H   0  0  0  0  0  0  0  0  0  0  0  0
   57.3610   24.7450   43.3150 C   0  0  0  0  0  0  0  0  0  0  0  0
   57.2409   24.2102   42.3613 H   0  0  0  0  0  0  0  0  0  0  0  0
   57.7720   26.0810   43.3170 C   0  0  0  0  0  0  0  0  0  0  0  0
   57.9743   26.5947   42.3656 H   0  0  0  0  0  0  0  0  0  0  0  0
   57.9270   26.7680   44.5310 C   0  0  0  0  0  0  0  0  0  0  0  0
   58.3560   28.1030   44.5480 C   0  0  0  0  0  0  0  0  0  0  0  0
   58.5392   28.6297   43.5998 H   0  0  0  0  0  0  0  0  0  0  0  0
  1  2  1  0
  2  3  2  0
  3  4  1  0
  4  5  1  0
  5  6  1  0
  5  7  1  0
  5  8  1  0
  8  9  1  0
  8 10  1  0
  8 11  1  0
 11 12  1  0
 12 13  1  0
 12 14  1  0
 12 15  1  0
 15 16  1  0
 15 17  1  0
 15 18  1  0
 11 19  1  0
 19 20  1  0
 19 21  1  0
 19 22  1  0
 22 23  1  0
 22 24  1  0
 22 25  1  0
  2 26  1  0
 26 27  2  0
 27 28  1  0
 27 29  1  0
 29 30  1  0
 29 31  2  0
 31 32  1  0
 31 33  1  0
 33 34  1  0
 33 35  2  0
 35 36  1  0
 36 37  2  0
 36 38  1  0
 38 39  1  0
 38 40  1  0
 40 41  2  0
 41 42  1  0
 41 43  1  0
 43 44  1  0
 43 45  2  0
 45 46  1  0
 46 47  1  0
 46 48  2  0
 48 49  1  0
 48 50  1  0
 50 51  1  0
 50 52  2  0
 52 53  1  0
 52 54  1  0
 54 55  2  0
 55 56  1  0
 35 26  1  0
 55 40  1  0
 54 45  1  0
M  END
>  <UniqueID>  (27) 
26

>  <SMILES>  (27) 
CCN(CC)CCO/N=C\c1ccccc1C(=O)Nc1ccc2ccccc2c1

>  <Energy>  (27) 
68.7670797552912

>  <Genealogy>  (27) 
CCN(CC)CCO/N=C\c1ccccc1C(=O)Nc1ccc2ccccc2c1 (cis-trans isomerization)
CCN(CC)CCO/N=C\c1ccccc1C(=O)Nc1ccc2ccccc2c1 (3D coordinates assigned)
CCN(CC)CCO/N=C\c1ccccc1C(=O)Nc1ccc2ccccc2c1 (optimized conformer: 68.7670797552912 kcal/mol)

>  <smiles>  (27) 
CCN(CC)CCON=Cc1ccccc1C(=O)Nc1ccc2ccccc2c1

>  <score_type>  (27) 
oracle

>  <origin>  (27) 
adg

>  <m_score__min__energy>  (27) 
-7.9699999999999998

>  <m_primary>  (27) 
energy

$$$$
27:0
     RDKit          3D

 33 34  0  0  0  0  0  0  0  0999 V2000
   54.3970   28.9490   44.5550 H   0  0  0  0  0  0  0  0  0  0  0  0
   55.2920   29.2260   44.0990 N   0  0  0  0  0  0  0  0  0  0  0  0
   56.2850   29.8530   44.6590 C   0  0  0  0  0  0  0  0  0  0  0  0
   56.2930   31.2010   44.5690 N   0  0  0  0  0  0  0  0  0  0  0  0
   57.2980   31.9510   45.0640 C   0  0  0  0  0  0  0  0  0  0  0  0
   57.2270   33.3450   44.9610 C   0  0  0  0  0  0  0  0  0  0  0  0
   56.3495   33.8161   44.4940 H   0  0  0  0  0  0  0  0  0  0  0  0
   58.2640   34.1380   45.4480 C   0  0  0  0  0  0  0  0  0  0  0  0
   58.2034   35.2334   45.3684 H   0  0  0  0  0  0  0  0  0  0  0  0
   59.3780   33.5420   46.0360 C   0  0  0  0  0  0  0  0  0  0  0  0
   60.1959   34.1690   46.4206 H   0  0  0  0  0  0  0  0  0  0  0  0
   59.4600   32.1490   46.1390 C   0  0  0  0  0  0  0  0  0  0  0  0
   60.3428   31.6879   46.6061 H   0  0  0  0  0  0  0  0  0  0  0  0
   58.4160   31.3270   45.6470 C   0  0  0  0  0  0  0  0  0  0  0  0
   58.4350   29.9030   45.7130 C   0  0  0  0  0  0  0  0  0  0  0  0
   59.7290   29.1960   46.1320 C   0  0  0  0  0  0  0  0  0  0  0  0
   60.2637   29.8261   46.8580 H   0  0  0  0  0  0  0  0  0  0  0  0
   59.4676   28.2261   46.5803 H   0  0  0  0  0  0  0  0  0  0  0  0
   60.6350   28.9450   44.9260 C   0  0  0  0  0  0  0  0  0  0  0  0
   61.6405   28.6664   45.2744 H   0  0  0  0  0  0  0  0  0  0  0  0
   60.2183   28.1285   44.3180 H   0  0  0  0  0  0  0  0  0  0  0  0
   60.6979   29.8595   44.3180 H   0  0  0  0  0  0  0  0  0  0  0  0
   57.3130   29.1900   45.3080 N   0  0  0  0  0  0  0  0  0  0  0  0
   57.1700   27.7480   45.6260 C   0  0  0  0  0  0  0  0  0  0  0  0
   57.3850   27.5936   46.6937 H   0  0  0  0  0  0  0  0  0  0  0  0
   56.1412   27.4405   45.3874 H   0  0  0  0  0  0  0  0  0  0  0  0
   58.1360   26.8940   44.7930 C   0  0  0  0  0  0  0  0  0  0  0  0
   59.1591   27.0377   45.1706 H   0  0  0  0  0  0  0  0  0  0  0  0
   57.8349   25.8398   44.8818 H   0  0  0  0  0  0  0  0  0  0  0  0
   58.0890   27.2880   43.3200 C   0  0  0  0  0  0  0  0  0  0  0  0
   57.9591   28.3770   43.2357 H   0  0  0  0  0  0  0  0  0  0  0  0
   59.0288   26.9919   42.8311 H   0  0  0  0  0  0  0  0  0  0  0  0
   57.2452   26.7791   42.8311 H   0  0  0  0  0  0  0  0  0  0  0  0
  1  2  1  0
  2  3  2  0
  3  4  1  0
  4  5  1  0
  5  6  2  0
  6  7  1  0
  6  8  1  0
  8  9  1  0
  8 10  2  0
 10 11  1  0
 10 12  1  0
 12 13  1  0
 12 14  2  0
 14 15  1  0
 15 16  1  0
 16 17  1  0
 16 18  1  0
 16 19  1  0
 19 20  1  0
 19 21  1  0
 19 22  1  0
 15 23  2  0
 23 24  1  0
 24 25  1  0
 24 26  1  0
 24 27  1  0
 27 28  1  0
 27 29  1  0
 27 30  1  0
 30 31  1  0
 30 32  1  0
 30 33  1  0
 23  3  1  0
 14  5  1  0
M  CHG  2   4  -1  23   1
M  END
>  <UniqueID>  (28) 
27

>  <SMILES>  (28) 
[H]/N=c1/[n-]c2ccccc2c(CC)[n+]1CCC

>  <Energy>  (28) 
45.305733318246055

>  <Genealogy>  (28) 
CCC[n+]1c(CC)c2ccccc2[n-]c1=N (protonated)
[H]/N=c1/[n-]c2ccccc2c(CC)[n+]1CCC (cis-trans isomerization)
[H]/N=c1/[n-]c2ccccc2c(CC)[n+]1CCC (3D coordinates assigned)
[H]/N=c1/[n-]c2ccccc2c(CC)[n+]1CCC (optimized conformer: 45.305733318246055 kcal/mol)

>  <smiles>  (28) 
CCC[n+]1c(CC)c2ccccc2[nH]c1=N

>  <score_type>  (28) 
oracle

>  <origin>  (28) 
adg

>  <m_score__min__energy>  (28) 
-6.5499999999999998

>  <m_primary>  (28) 
energy

$$$$
28:0
     RDKit          3D

 39 41  0  0  0  0  0  0  0  0999 V2000
   58.1440   27.1340   43.0510 C   0  0  0  0  0  0  0  0  0  0  0  0
   58.2640   27.3960   44.4460 O   0  0  0  0  0  0  0  0  0  0  0  0
   58.5230   28.6590   45.0000 C   0  0  0  0  0  0  0  0  0  0  0  0
   58.2420   29.8510   44.3070 C   0  0  0  0  0  0  0  0  0  0  0  0
   58.5200   31.0990   44.8830 C   0  0  0  0  0  0  0  0  0  0  0  0
   59.0600   31.1620   46.1810 C   0  0  0  0  0  0  0  0  0  0  0  0
   59.3430   29.9720   46.8700 C   0  0  0  0  0  0  0  0  0  0  0  0
   59.0770   28.7200   46.2850 C   0  0  0  0  0  0  0  0  0  0  0  0
   59.3520   27.5140   46.9500 O   0  0  0  0  0  0  0  0  0  0  0  0
   60.4440   26.6530   46.6420 C   0  0  0  0  0  0  0  0  0  0  0  0
   59.4150   32.4910   46.8260 C   0  0  1  0  0  0  0  0  0  0  0  0
   60.9060   32.7130   46.8380 C   0  0  0  0  0  0  0  0  0  0  0  0
   61.5930   33.8520   46.4200 C   0  0  0  0  0  0  0  0  0  0  0  0
   62.9750   33.7720   46.6270 C   0  0  0  0  0  0  0  0  0  0  0  0
   63.3840   32.5840   47.2190 C   0  0  0  0  0  0  0  0  0  0  0  0
   62.0220   31.6350   47.4870 S   0  0  0  0  0  0  0  0  0  0  0  0
   58.7440   33.6480   46.1840 N   0  0  0  0  0  0  0  0  0  0  0  0
   57.3630   33.8190   46.6710 C   0  0  0  0  0  0  0  0  0  0  0  0
   58.8130   33.5990   44.7100 C   0  0  0  0  0  0  0  0  0  0  0  0
   58.1450   32.3470   44.1310 C   0  0  0  0  0  0  0  0  0  0  0  0
   57.6902   26.1432   42.9017 H   0  0  0  0  0  0  0  0  0  0  0  0
   57.5080   27.9023   42.5870 H   0  0  0  0  0  0  0  0  0  0  0  0
   59.1411   27.1543   42.5870 H   0  0  0  0  0  0  0  0  0  0  0  0
   57.7989   29.8033   43.3013 H   0  0  0  0  0  0  0  0  0  0  0  0
   59.7779   30.0188   47.8793 H   0  0  0  0  0  0  0  0  0  0  0  0
   60.9012   26.2925   47.5753 H   0  0  0  0  0  0  0  0  0  0  0  0
   60.0810   25.7955   46.0564 H   0  0  0  0  0  0  0  0  0  0  0  0
   61.1932   27.2061   46.0564 H   0  0  0  0  0  0  0  0  0  0  0  0
   59.0459   32.4272   47.8602 H   0  0  0  0  0  0  0  0  0  0  0  0
   61.0982   34.7264   45.9721 H   0  0  0  0  0  0  0  0  0  0  0  0
   63.6723   34.5753   46.3469 H   0  0  0  0  0  0  0  0  0  0  0  0
   64.4198   32.3111   47.4693 H   0  0  0  0  0  0  0  0  0  0  0  0
   57.3595   33.8194   47.7710 H   0  0  0  0  0  0  0  0  0  0  0  0
   56.9599   34.7739   46.3027 H   0  0  0  0  0  0  0  0  0  0  0  0
   56.7392   32.9912   46.3027 H   0  0  0  0  0  0  0  0  0  0  0  0
   58.3080   34.4878   44.3037 H   0  0  0  0  0  0  0  0  0  0  0  0
   59.8755   33.5716   44.4265 H   0  0  0  0  0  0  0  0  0  0  0  0
   57.0535   32.4743   44.1792 H   0  0  0  0  0  0  0  0  0  0  0  0
   58.4910   32.2309   43.0933 H   0  0  0  0  0  0  0  0  0  0  0  0
  1  2  1  0
  2  3  1  0
  3  4  2  0
  4  5  1  0
  5  6  2  0
  6  7  1  0
  7  8  2  0
  8  9  1  0
  9 10  1  0
  6 11  1  0
 11 12  1  0
 12 13  2  0
 13 14  1  0
 14 15  2  0
 15 16  1  0
 11 17  1  0
 17 18  1  0
 17 19  1  0
 19 20  1  0
  8  3  1  0
 16 12  1  0
 20  5  1  0
  1 21  1  0
  1 22  1  0
  1 23  1  0
  4 24  1  0
  7 25  1  0
 10 26  1  0
 10 27  1  0
 10 28  1  0
 11 29  1  1
 13 30  1  0
 14 31  1  0
 15 32  1  0
 18 33  1  0
 18 34  1  0
 18 35  1  0
 19 36  1  0
 19 37  1  0
 20 38  1  0
 20 39  1  0
M  END
>  <UniqueID>  (29) 
28

>  <SMILES>  (29) 
COc1cc2c(cc1OC)[C@@H](c1cccs1)N(C)CC2

>  <Energy>  (29) 
70.55702377938319

>  <Genealogy>  (29) 
COc1cc2c(cc1OC)[C@@H](c1cccs1)N(C)CC2 (chirality)
COc1cc2c(cc1OC)[C@@H](c1cccs1)N(C)CC2 (3D coordinates assigned)
COc1cc2c(cc1OC)[C@@H](c1cccs1)N(C)CC2 (nonaromatic ring conformer: 70.55702377938319 kcal/mol)

>  <smiles>  (29) 
COc1cc2c(cc1OC)C(c1cccs1)N(C)CC2

>  <score_type>  (29) 
oracle

>  <origin>  (29) 
adg

>  <m_score__min__energy>  (29) 
-6.04

>  <m_primary>  (29) 
energy

$$$$
29:0
     RDKit          3D

 39 40  0  0  0  0  0  0  0  0999 V2000
   60.3630   27.7100   48.8360 C   0  0  0  0  0  0  0  0  0  0  0  0
   60.1730   27.0550   47.4720 C   0  0  0  0  0  0  0  0  0  0  0  0
   58.9900   27.6530   46.7420 C   0  0  0  0  0  0  0  0  0  0  0  0
   57.8400   26.8680   46.5550 C   0  0  0  0  0  0  0  0  0  0  0  0
   56.6970   27.3950   45.9280 C   0  0  0  0  0  0  0  0  0  0  0  0
   55.5380   26.6290   45.7240 O   0  0  0  0  0  0  0  0  0  0  0  0
   55.5160   25.2080   45.6250 C   0  0  0  0  0  0  0  0  0  0  0  0
   56.6980   28.7240   45.4900 C   0  0  0  0  0  0  0  0  0  0  0  0
   55.5440   29.2200   44.8620 O   0  0  0  0  0  0  0  0  0  0  0  0
   55.5070   29.7500   43.5400 C   0  0  0  0  0  0  0  0  0  0  0  0
   57.8400   29.5200   45.6870 C   0  0  0  0  0  0  0  0  0  0  0  0
   58.9800   29.0030   46.3200 C   0  0  0  0  0  0  0  0  0  0  0  0
   60.1330   29.8440   46.5050 N   0  0  0  0  0  0  0  0  0  0  0  0
   60.0500   31.1600   47.0760 C   0  0  0  0  0  0  0  0  0  0  0  0
   58.9690   31.5480   47.5960 O   0  0  0  0  0  0  0  0  0  0  0  0
   61.2310   32.0530   47.0820 C   0  0  0  0  0  0  0  0  0  0  0  0
   62.7920   31.5850   47.5090 S   0  0  0  0  0  0  0  0  0  0  0  0
   63.4600   33.1010   47.2430 C   0  0  0  0  0  0  0  0  0  0  0  0
   62.5190   33.9760   46.8290 N   0  0  0  0  0  0  0  0  0  0  0  0
   61.2850   33.4110   46.7360 C   0  0  0  0  0  0  0  0  0  0  0  0
   60.1050   34.2200   46.2920 C   0  0  0  0  0  0  0  0  0  0  0  0
   60.1503   26.9766   49.6278 H   0  0  0  0  0  0  0  0  0  0  0  0
   61.4005   28.0627   48.9321 H   0  0  0  0  0  0  0  0  0  0  0  0
   59.6753   28.5631   48.9321 H   0  0  0  0  0  0  0  0  0  0  0  0
   61.0812   27.2074   46.8704 H   0  0  0  0  0  0  0  0  0  0  0  0
   59.9853   25.9816   47.6223 H   0  0  0  0  0  0  0  0  0  0  0  0
   57.8336   25.8250   46.9045 H   0  0  0  0  0  0  0  0  0  0  0  0
   55.5092   24.7702   46.6341 H   0  0  0  0  0  0  0  0  0  0  0  0
   54.6129   24.8922   45.0822 H   0  0  0  0  0  0  0  0  0  0  0  0
   56.4089   24.8644   45.0822 H   0  0  0  0  0  0  0  0  0  0  0  0
   55.4305   30.8463   43.5865 H   0  0  0  0  0  0  0  0  0  0  0  0
   56.4269   29.4690   43.0064 H   0  0  0  0  0  0  0  0  0  0  0  0
   54.6350   29.3439   43.0064 H   0  0  0  0  0  0  0  0  0  0  0  0
   57.8395   30.5637   45.3396 H   0  0  0  0  0  0  0  0  0  0  0  0
   61.0710   29.4620   46.2560 H   0  0  0  0  0  0  0  0  0  0  0  0
   64.5221   33.3487   47.3867 H   0  0  0  0  0  0  0  0  0  0  0  0
   59.5626   34.5918   47.1738 H   0  0  0  0  0  0  0  0  0  0  0  0
   60.4508   35.0719   45.6881 H   0  0  0  0  0  0  0  0  0  0  0  0
   59.4351   33.5903   45.6881 H   0  0  0  0  0  0  0  0  0  0  0  0
  1  2  1  0
  2  3  1  0
  3  4  2  0
  4  5  1  0
  5  6  1  0
  6  7  1  0
  5  8  2  0
  8  9  1  0
  9 10  1  0
  8 11  1  0
 11 12  2  0
 12 13  1  0
 13 14  1  0
 14 15  2  0
 14 16  1  0
 16 17  1  0
 17 18  1  0
 18 19  2  0
 19 20  1  0
 20 21  1  0
 12  3  1  0
 20 16  2  0
  1 22  1  0
  1 23  1  0
  1 24  1  0
  2 25  1  0
  2 26  1  0
  4 27  1  0
  7 28  1  0
  7 29  1  0
  7 30  1  0
 10 31  1  0
 10 32  1  0
 10 33  1  0
 11 34  1  0
 13 35  1  0
 18 36  1  0
 21 37  1  0
 21 38  1  0
 21 39  1  0
M  END
>  <UniqueID>  (30) 
29

>  <SMILES>  (30) 
CCc1cc(OC)c(OC)cc1NC(=O)c1scnc1C

>  <Energy>  (30) 
69.24291021087909

>  <Genealogy>  (30) 
CCc1cc(OC)c(OC)cc1NC(=O)c1scnc1C (3D coordinates assigned)
CCc1cc(OC)c(OC)cc1NC(=O)c1scnc1C (optimized conformer: 69.24291021087909 kcal/mol)

>  <smiles>  (30) 
CCc1cc(OC)c(OC)cc1NC(=O)c1scnc1C

>  <score_type>  (30) 
oracle

>  <origin>  (30) 
adg

>  <m_score__min__energy>  (30) 
-6.8700000000000001

>  <m_primary>  (30) 
energy

$$$$
30:0
     RDKit          3D

 36 38  0  0  0  0  0  0  0  0999 V2000
   63.3830   33.7870   46.5900 C   0  0  0  0  0  0  0  0  0  0  0  0
   63.2480   32.7040   47.6590 C   0  0  0  0  0  0  0  0  0  0  0  0
   62.0270   31.7950   47.4370 C   0  0  0  0  0  0  0  0  0  0  0  0
   60.7520   32.2800   48.1430 C   0  0  0  0  0  0  0  0  0  0  0  0
   60.0240   33.2510   47.3260 N   0  0  0  0  0  0  0  0  0  0  0  0
   60.2400   34.5890   47.2330 C   0  0  0  0  0  0  0  0  0  0  0  0
   59.4050   35.2090   46.3520 N   0  0  0  0  0  0  0  0  0  0  0  0
   58.6540   34.1920   45.8920 C   0  0  0  0  0  0  0  0  0  0  0  0
   57.6280   34.2090   44.9590 C   0  0  0  0  0  0  0  0  0  0  0  0
   57.0290   33.0200   44.6570 N   0  0  0  0  0  0  0  0  0  0  0  0
   57.4240   31.8430   45.2440 C   0  0  0  0  0  0  0  0  0  0  0  0
   56.7630   30.6560   44.9060 O   0  0  0  0  0  0  0  0  0  0  0  0
   57.3460   29.3810   44.9100 C   0  0  0  0  0  0  0  0  0  0  0  0
   57.5290   28.7210   43.6880 C   0  0  0  0  0  0  0  0  0  0  0  0
   58.1110   27.4510   43.6490 C   0  0  0  0  0  0  0  0  0  0  0  0
   58.5300   26.8360   44.8320 C   0  0  0  0  0  0  0  0  0  0  0  0
   58.3740   27.4950   46.0550 C   0  0  0  0  0  0  0  0  0  0  0  0
   57.7910   28.7660   46.0970 C   0  0  0  0  0  0  0  0  0  0  0  0
   58.4320   31.8460   46.1730 N   0  0  0  0  0  0  0  0  0  0  0  0
   59.0220   33.0280   46.4690 C   0  0  0  0  0  0  0  0  0  0  0  0
   63.5052   34.7671   47.0743 H   0  0  0  0  0  0  0  0  0  0  0  0
   64.2618   33.5758   45.9630 H   0  0  0  0  0  0  0  0  0  0  0  0
   62.4793   33.7980   45.9630 H   0  0  0  0  0  0  0  0  0  0  0  0
   64.1556   32.0826   47.6461 H   0  0  0  0  0  0  0  0  0  0  0  0
   63.1127   33.2093   48.6266 H   0  0  0  0  0  0  0  0  0  0  0  0
   61.8260   31.7430   46.3568 H   0  0  0  0  0  0  0  0  0  0  0  0
   62.2769   30.8145   47.8684 H   0  0  0  0  0  0  0  0  0  0  0  0
   60.0999   31.4157   48.3371 H   0  0  0  0  0  0  0  0  0  0  0  0
   61.0431   32.7695   49.0841 H   0  0  0  0  0  0  0  0  0  0  0  0
   61.0115   35.1190   47.8108 H   0  0  0  0  0  0  0  0  0  0  0  0
   57.3086   35.1462   44.4799 H   0  0  0  0  0  0  0  0  0  0  0  0
   57.2124   29.2057   42.7527 H   0  0  0  0  0  0  0  0  0  0  0  0
   58.2395   26.9349   42.6861 H   0  0  0  0  0  0  0  0  0  0  0  0
   58.9824   25.8338   44.8008 H   0  0  0  0  0  0  0  0  0  0  0  0
   58.7100   27.0136   46.9853 H   0  0  0  0  0  0  0  0  0  0  0  0
   57.6797   29.2868   47.0595 H   0  0  0  0  0  0  0  0  0  0  0  0
  1  2  1  0
  2  3  1  0
  3  4  1  0
  4  5  1  0
  5  6  1  0
  6  7  2  0
  7  8  1  0
  8  9  2  0
  9 10  1  0
 10 11  2  0
 11 12  1  0
 12 13  1  0
 13 14  2  0
 14 15  1  0
 15 16  2  0
 16 17  1  0
 17 18  2  0
 11 19  1  0
 19 20  2  0
 20  5  1  0
 20  8  1  0
 18 13  1  0
  1 21  1  0
  1 22  1  0
  1 23  1  0
  2 24  1  0
  2 25  1  0
  3 26  1  0
  3 27  1  0
  4 28  1  0
  4 29  1  0
  6 30  1  0
  9 31  1  0
 14 32  1  0
 15 33  1  0
 16 34  1  0
 17 35  1  0
 18 36  1  0
M  END
>  <UniqueID>  (31) 
30

>  <SMILES>  (31) 
CCCCn1cnc2cnc(Oc3ccccc3)nc21

>  <Energy>  (31) 
76.55008848070628

>  <Genealogy>  (31) 
CCCCn1cnc2cnc(Oc3ccccc3)nc21 (3D coordinates assigned)
CCCCn1cnc2cnc(Oc3ccccc3)nc21 (optimized conformer: 76.55008848070628 kcal/mol)

>  <smiles>  (31) 
CCCCn1cnc2cnc(Oc3ccccc3)nc21

>  <score_type>  (31) 
oracle

>  <origin>  (31) 
adg

>  <m_score__min__energy>  (31) 
-6.7999999999999998

>  <m_primary>  (31) 
energy

$$$$
31:0
     RDKit          3D

 53 57  0  0  0  0  0  0  0  0999 V2000
   66.0020   31.6290   50.6800 C   0  0  0  0  0  0  0  0  0  0  0  0
   66.1090   33.0760   50.6100 N   0  0  0  0  0  0  0  0  0  0  0  0
   67.4770   33.4760   50.5000 C   0  0  0  0  0  0  0  0  0  0  0  0
   65.3510   33.7320   51.6310 C   0  0  0  0  0  0  0  0  0  0  0  0
   64.0020   34.2240   51.2080 C   0  0  0  0  0  0  0  0  0  0  0  0
   63.9740   34.1990   49.7930 O   0  0  0  0  0  0  0  0  0  0  0  0
   63.1700   33.3440   49.0590 C   0  0  0  0  0  0  0  0  0  0  0  0
   62.8750   32.1030   49.6220 C   0  0  0  0  0  0  0  0  0  0  0  0
   62.0720   31.1850   48.9450 C   0  0  0  0  0  0  0  0  0  0  0  0
   61.5530   31.4910   47.7010 C   0  0  0  0  0  0  0  0  0  0  0  0
   60.7030   30.5620   46.9530 C   0  0  0  0  0  0  0  0  0  0  0  0
   60.7660   29.2310   46.9960 N   0  0  0  0  0  0  0  0  0  0  0  0
   59.8450   28.6720   46.1930 C   0  0  0  0  0  0  0  0  0  0  0  0
   59.5090   27.3730   45.8930 C   0  0  0  0  0  0  0  0  0  0  0  0
   58.4850   27.0870   45.0040 C   0  0  0  0  0  0  0  0  0  0  0  0
   58.1100   25.7240   44.6700 C   0  0  0  0  0  0  0  0  0  0  0  0
   58.5690   24.6350   45.3350 N   0  0  0  0  0  0  0  0  0  0  0  0
   58.0340   23.5320   44.7790 C   0  0  0  0  0  0  0  0  0  0  0  0
   58.1510   22.1760   45.0490 C   0  0  0  0  0  0  0  0  0  0  0  0
   57.4590   21.2630   44.2820 C   0  0  0  0  0  0  0  0  0  0  0  0
   56.6390   21.6310   43.2400 C   0  0  0  0  0  0  0  0  0  0  0  0
   56.5140   22.9940   42.9620 C   0  0  0  0  0  0  0  0  0  0  0  0
   57.2060   23.9340   43.7250 C   0  0  0  0  0  0  0  0  0  0  0  0
   57.2880   25.2800   43.7010 N   0  0  0  0  0  0  0  0  0  0  0  0
   57.8130   28.1440   44.4320 C   0  0  0  0  0  0  0  0  0  0  0  0
   58.1430   29.4490   44.7280 C   0  0  0  0  0  0  0  0  0  0  0  0
   59.1670   29.7210   45.6150 C   0  0  0  0  0  0  0  0  0  0  0  0
   59.7100   30.8600   46.0950 N   0  0  0  0  0  0  0  0  0  0  0  0
   61.8530   32.7360   47.1460 C   0  0  0  0  0  0  0  0  0  0  0  0
   62.6530   33.6540   47.8190 C   0  0  0  0  0  0  0  0  0  0  0  0
   65.9787   31.3136   51.7336 H   0  0  0  0  0  0  0  0  0  0  0  0
   65.0774   31.3051   50.1797 H   0  0  0  0  0  0  0  0  0  0  0  0
   66.8688   31.1726   50.1797 H   0  0  0  0  0  0  0  0  0  0  0  0
   67.9045   33.6010   51.5058 H   0  0  0  0  0  0  0  0  0  0  0  0
   68.0417   32.7054   49.9548 H   0  0  0  0  0  0  0  0  0  0  0  0
   67.5375   34.4295   49.9548 H   0  0  0  0  0  0  0  0  0  0  0  0
   65.2097   33.0218   52.4590 H   0  0  0  0  0  0  0  0  0  0  0  0
   65.9273   34.6260   51.9116 H   0  0  0  0  0  0  0  0  0  0  0  0
   63.2173   33.5678   51.6124 H   0  0  0  0  0  0  0  0  0  0  0  0
   63.8207   35.2414   51.5850 H   0  0  0  0  0  0  0  0  0  0  0  0
   63.2802   31.8448   50.6115 H   0  0  0  0  0  0  0  0  0  0  0  0
   61.8502   30.2105   49.4045 H   0  0  0  0  0  0  0  0  0  0  0  0
   60.0616   26.5478   46.3660 H   0  0  0  0  0  0  0  0  0  0  0  0
   58.7937   21.8307   45.8722 H   0  0  0  0  0  0  0  0  0  0  0  0
   57.5671   20.1930   44.5132 H   0  0  0  0  0  0  0  0  0  0  0  0
   56.1005   20.8776   42.6464 H   0  0  0  0  0  0  0  0  0  0  0  0
   55.8668   23.3275   42.1375 H   0  0  0  0  0  0  0  0  0  0  0  0
   56.7670   25.8880   43.0050 H   0  0  0  0  0  0  0  0  0  0  0  0
   56.9956   27.9426   43.7239 H   0  0  0  0  0  0  0  0  0  0  0  0
   57.5903   30.2754   44.2573 H   0  0  0  0  0  0  0  0  0  0  0  0
   59.3860   31.8120   45.8220 H   0  0  0  0  0  0  0  0  0  0  0  0
   61.4488   32.9966   46.1567 H   0  0  0  0  0  0  0  0  0  0  0  0
   62.8736   34.6294   47.3608 H   0  0  0  0  0  0  0  0  0  0  0  0
  1  2  1  0
  2  3  1  0
  2  4  1  0
  4  5  1  0
  5  6  1  0
  6  7  1  0
  7  8  2  0
  8  9  1  0
  9 10  2  0
 10 11  1  0
 11 12  2  0
 12 13  1  0
 13 14  2  0
 14 15  1  0
 15 16  1  0
 16 17  2  0
 17 18  1  0
 18 19  2  0
 19 20  1  0
 20 21  2  0
 21 22  1  0
 22 23  2  0
 23 24  1  0
 15 25  2  0
 25 26  1  0
 26 27  2  0
 27 28  1  0
 10 29  1  0
 29 30  2  0
 30  7  1  0
 28 11  1  0
 27 13  1  0
 24 16  1  0
 23 18  1  0
  1 31  1  0
  1 32  1  0
  1 33  1  0
  3 34  1  0
  3 35  1  0
  3 36  1  0
  4 37  1  0
  4 38  1  0
  5 39  1  0
  5 40  1  0
  8 41  1  0
  9 42  1  0
 14 43  1  0
 19 44  1  0
 20 45  1  0
 21 46  1  0
 22 47  1  0
 24 48  1  0
 25 49  1  0
 26 50  1  0
 28 51  1  0
 29 52  1  0
 30 53  1  0
M  END
>  <smiles>  (32) 
CN(C)CCOc1ccc(-c2nc3cc(-c4nc5ccccc5[nH]4)ccc3[nH]2)cc1

>  <score_type>  (32) 
oracle

>  <origin>  (32) 
adg

>  <m_score__min__energy>  (32) 
-7.1200000000000001

>  <m_primary>  (32) 
energy

$$$$
32:0
     RDKit          3D

 55 59  0  0  0  0  0  0  0  0999 V2000
   57.7850   32.3400   41.7400 C   0  0  0  0  0  0  0  0  0  0  0  0
   57.4000   31.3080   42.7530 C   0  0  0  0  0  0  0  0  0  0  0  0
   58.2520   31.0180   43.8270 C   0  0  0  0  0  0  0  0  0  0  0  0
   57.8900   30.0390   44.7830 C   0  0  0  0  0  0  0  0  0  0  0  0
   58.7630   29.7230   45.9130 N   0  0  0  0  0  0  0  0  0  0  0  0
   58.1480   29.2770   47.1800 C   0  0  0  0  0  0  0  0  0  0  0  0
   59.1610   28.8250   48.2310 C   0  0  0  0  0  0  0  0  0  0  0  0
   60.3160   29.7260   48.3030 N   0  0  0  0  0  0  0  0  0  0  0  0
   59.9640   31.1000   48.7250 C   0  0  0  0  0  0  0  0  0  0  0  0
   60.9630   32.0890   48.1820 C   0  0  0  0  0  0  0  0  0  0  0  0
   60.7200   33.1360   47.2900 C   0  0  0  0  0  0  0  0  0  0  0  0
   59.4630   33.4360   46.5820 C   0  0  0  0  0  0  0  0  0  0  0  0
   58.2310   33.1660   47.1970 C   0  0  0  0  0  0  0  0  0  0  0  0
   57.0340   33.4560   46.5340 C   0  0  0  0  0  0  0  0  0  0  0  0
   57.0620   34.0290   45.2600 C   0  0  0  0  0  0  0  0  0  0  0  0
   58.2860   34.3210   44.6510 C   0  0  0  0  0  0  0  0  0  0  0  0
   59.4830   34.0330   45.3130 C   0  0  0  0  0  0  0  0  0  0  0  0
   61.8220   33.9160   47.2070 N   0  0  0  0  0  0  0  0  0  0  0  0
   62.7100   33.3460   48.0410 C   0  0  0  0  0  0  0  0  0  0  0  0
   63.9940   33.8140   48.3170 C   0  0  0  0  0  0  0  0  0  0  0  0
   64.7560   33.1070   49.2590 C   0  0  0  0  0  0  0  0  0  0  0  0
   64.2190   31.9750   49.9020 C   0  0  0  0  0  0  0  0  0  0  0  0
   62.9190   31.5530   49.5870 C   0  0  0  0  0  0  0  0  0  0  0  0
   62.2200   32.2530   48.6520 N   0  0  0  0  0  0  0  0  0  0  0  0
   61.0640   29.6720   47.0410 C   0  0  0  0  0  0  0  0  0  0  0  0
   60.2140   29.9910   45.7930 C   0  0  0  0  0  0  0  0  0  0  0  0
   56.6480   29.3880   44.6080 C   0  0  0  0  0  0  0  0  0  0  0  0
   55.8290   29.7090   43.5250 C   0  0  0  0  0  0  0  0  0  0  0  0
   56.2170   30.6510   42.6290 N   0  0  0  0  0  0  0  0  0  0  0  0
   58.1247   33.2506   42.2552 H   0  0  0  0  0  0  0  0  0  0  0  0
   58.5981   31.9501   41.1101 H   0  0  0  0  0  0  0  0  0  0  0  0
   56.9151   32.5779   41.1101 H   0  0  0  0  0  0  0  0  0  0  0  0
   59.2073   31.5540   43.9277 H   0  0  0  0  0  0  0  0  0  0  0  0
   57.5658   30.1125   47.5960 H   0  0  0  0  0  0  0  0  0  0  0  0
   57.5214   28.4047   46.9426 H   0  0  0  0  0  0  0  0  0  0  0  0
   58.6670   28.8014   49.2136 H   0  0  0  0  0  0  0  0  0  0  0  0
   59.5253   27.8272   47.9452 H   0  0  0  0  0  0  0  0  0  0  0  0
   58.9627   31.3505   48.3447 H   0  0  0  0  0  0  0  0  0  0  0  0
   59.9745   31.1493   49.8238 H   0  0  0  0  0  0  0  0  0  0  0  0
   58.2065   32.7246   48.2043 H   0  0  0  0  0  0  0  0  0  0  0  0
   56.0705   33.2329   47.0156 H   0  0  0  0  0  0  0  0  0  0  0  0
   56.1205   34.2504   44.7360 H   0  0  0  0  0  0  0  0  0  0  0  0
   58.3072   34.7776   43.6505 H   0  0  0  0  0  0  0  0  0  0  0  0
   60.4445   34.2755   44.8368 H   0  0  0  0  0  0  0  0  0  0  0  0
   61.9490   34.7830   46.6370 H   0  0  0  0  0  0  0  0  0  0  0  0
   64.3953   34.7061   47.8139 H   0  0  0  0  0  0  0  0  0  0  0  0
   65.7777   33.4383   49.4965 H   0  0  0  0  0  0  0  0  0  0  0  0
   64.8148   31.4257   50.6459 H   0  0  0  0  0  0  0  0  0  0  0  0
   62.4751   30.6776   50.0835 H   0  0  0  0  0  0  0  0  0  0  0  0
   61.8863   30.4007   47.0949 H   0  0  0  0  0  0  0  0  0  0  0  0
   61.4211   28.6378   46.9268 H   0  0  0  0  0  0  0  0  0  0  0  0
   60.3415   31.0590   45.5624 H   0  0  0  0  0  0  0  0  0  0  0  0
   60.5773   29.3151   45.0048 H   0  0  0  0  0  0  0  0  0  0  0  0
   56.3250   28.6236   45.3300 H   0  0  0  0  0  0  0  0  0  0  0  0
   54.8644   29.1960   43.3970 H   0  0  0  0  0  0  0  0  0  0  0  0
  1  2  1  0
  2  3  2  0
  3  4  1  0
  4  5  1  0
  5  6  1  0
  6  7  1  0
  7  8  1  0
  8  9  1  0
  9 10  1  0
 10 11  2  0
 11 12  1  0
 12 13  2  0
 13 14  1  0
 14 15  2  0
 15 16  1  0
 16 17  2  0
 11 18  1  0
 18 19  2  0
 19 20  1  0
 20 21  2  0
 21 22  1  0
 22 23  2  0
 23 24  1  0
  8 25  1  0
 25 26  1  0
  4 27  2  0
 27 28  1  0
 28 29  2  0
 29  2  1  0
 26  5  1  0
 24 10  1  0
 17 12  1  0
 24 19  1  0
  1 30  1  0
  1 31  1  0
  1 32  1  0
  3 33  1  0
  6 34  1  0
  6 35  1  0
  7 36  1  0
  7 37  1  0
  9 38  1  0
  9 39  1  0
 13 40  1  0
 14 41  1  0
 15 42  1  0
 16 43  1  0
 17 44  1  0
 18 45  1  0
 20 46  1  0
 21 47  1  0
 22 48  1  0
 23 49  1  0
 25 50  1  0
 25 51  1  0
 26 52  1  0
 26 53  1  0
 27 54  1  0
 28 55  1  0
M  CHG  1  18   1
M  END
>  <UniqueID>  (33) 
31

>  <SMILES>  (33) 
Cc1cc(N2CCN(Cc3c(-c4ccccc4)[nH+]c4ccccn34)CC2)ccn1

>  <Energy>  (33) 
112.21817018743579

>  <Genealogy>  (33) 
Cc1cc(N2CCN(Cc3c(-c4ccccc4)[nH+]c4ccccn34)CC2)ccn1 (protonated)
Cc1cc(N2CCN(Cc3c(-c4ccccc4)[nH+]c4ccccn34)CC2)ccn1 (3D coordinates assigned)
Cc1cc(N2CCN(Cc3c(-c4ccccc4)[nH+]c4ccccn34)CC2)ccn1 (nonaromatic ring conformer: 112.21817018743579 kcal/mol)

>  <smiles>  (33) 
Cc1cc(N2CCN(Cc3c(-c4ccccc4)nc4ccccn34)CC2)ccn1

>  <score_type>  (33) 
oracle

>  <origin>  (33) 
adg

>  <m_score__min__energy>  (33) 
-7.1299999999999999

>  <m_primary>  (33) 
energy

$$$$
33:0
     RDKit          3D

 45 48  0  0  1  0  0  0  0  0999 V2000
   56.2690   19.9960   43.5080 C   0  0  0  0  0  0  0  0  0  0  0  0
   56.0960   21.3970   43.2930 O   0  0  0  0  0  0  0  0  0  0  0  0
   56.9520   22.2670   43.9820 C   0  0  0  0  0  0  0  0  0  0  0  0
   57.8170   21.7050   44.8990 C   0  0  0  0  0  0  0  0  0  0  0  0
   58.6730   22.5210   45.5940 C   0  0  0  0  0  0  0  0  0  0  0  0
   58.6700   23.8810   45.3820 C   0  0  0  0  0  0  0  0  0  0  0  0
   57.8090   24.4310   44.4700 C   0  0  0  0  0  0  0  0  0  0  0  0
   57.7780   25.8740   44.2160 C   0  0  0  0  0  0  0  0  0  0  0  0
   57.4820   26.8470   45.1220 N   0  0  0  0  0  0  0  0  0  0  0  0
   57.5580   28.0380   44.5130 C   0  0  0  0  0  0  0  0  0  0  0  0
   57.3000   29.3480   45.1800 C   0  0  1  0  0  0  0  0  0  0  0  0
   58.4020   30.3230   44.9690 C   0  0  0  0  0  0  0  0  0  0  0  0
   57.9100   31.5180   44.3290 N   0  0  0  0  0  0  0  0  0  0  0  0
   57.2650   32.4100   45.2330 C   0  0  0  0  0  0  0  0  0  0  0  0
   58.2520   33.3990   45.8260 C   0  0  0  0  0  0  0  0  0  0  0  0
   58.7410   34.4300   45.1610 C   0  0  0  0  0  0  0  0  0  0  0  0
   59.6410   35.2790   45.8020 C   0  0  0  0  0  0  0  0  0  0  0  0
   59.8270   34.5980   47.4650 S   0  0  0  0  0  0  0  0  0  0  0  0
   58.6660   33.2150   47.1460 C   0  0  0  0  0  0  0  0  0  0  0  0
   57.0980   31.1190   43.2130 C   0  0  0  0  0  0  0  0  0  0  0  0
   55.8640   30.4460   43.7090 C   0  0  0  0  0  0  0  0  0  0  0  0
   56.0340   29.7650   44.8830 O   0  0  0  0  0  0  0  0  0  0  0  0
   57.8990   27.8180   43.2320 N   0  0  0  0  0  0  0  0  0  0  0  0
   58.0360   26.5030   43.0370 N   0  0  0  0  0  0  0  0  0  0  0  0
   56.9570   23.6210   43.7770 C   0  0  0  0  0  0  0  0  0  0  0  0
   56.2943   19.7912   44.5885 H   0  0  0  0  0  0  0  0  0  0  0  0
   55.4316   19.4487   43.0506 H   0  0  0  0  0  0  0  0  0  0  0  0
   57.2144   19.6688   43.0506 H   0  0  0  0  0  0  0  0  0  0  0  0
   57.8199   20.6184   45.0700 H   0  0  0  0  0  0  0  0  0  0  0  0
   59.3677   22.0848   46.3269 H   0  0  0  0  0  0  0  0  0  0  0  0
   59.3597   24.5266   45.9455 H   0  0  0  0  0  0  0  0  0  0  0  0
   57.3174   29.2346   46.2740 H   0  0  0  0  0  0  0  0  0  0  0  0
   58.8401   30.5889   45.9423 H   0  0  0  0  0  0  0  0  0  0  0  0
   59.1624   29.8624   44.3212 H   0  0  0  0  0  0  0  0  0  0  0  0
   56.4824   32.9637   44.6936 H   0  0  0  0  0  0  0  0  0  0  0  0
   56.8281   31.8201   46.0522 H   0  0  0  0  0  0  0  0  0  0  0  0
   58.4428   34.6154   44.1185 H   0  0  0  0  0  0  0  0  0  0  0  0
   60.1320   36.1709   45.3856 H   0  0  0  0  0  0  0  0  0  0  0  0
   58.3632   32.4176   47.8406 H   0  0  0  0  0  0  0  0  0  0  0  0
   56.8202   32.0069   42.6261 H   0  0  0  0  0  0  0  0  0  0  0  0
   57.6651   30.4217   42.5789 H   0  0  0  0  0  0  0  0  0  0  0  0
   55.0903   31.2126   43.8630 H   0  0  0  0  0  0  0  0  0  0  0  0
   55.5799   29.7032   42.9491 H   0  0  0  0  0  0  0  0  0  0  0  0
   58.2960   26.0200   42.1450 H   0  0  0  0  0  0  0  0  0  0  0  0
   56.2651   24.0615   43.0440 H   0  0  0  0  0  0  0  0  0  0  0  0
  1  2  1  0
  2  3  1  0
  3  4  2  0
  4  5  1  0
  5  6  2  0
  6  7  1  0
  7  8  1  0
  8  9  2  0
  9 10  1  0
 10 11  1  0
 11 12  1  0
 12 13  1  0
 13 14  1  0
 14 15  1  0
 15 16  1  0
 16 17  2  0
 17 18  1  0
 18 19  1  0
 13 20  1  0
 20 21  1  0
 21 22  1  0
 10 23  2  0
 23 24  1  0
  7 25  2  0
 25  3  1  0
 24  8  1  0
 22 11  1  0
 19 15  2  0
  1 26  1  0
  1 27  1  0
  1 28  1  0
  4 29  1  0
  5 30  1  0
  6 31  1  0
 11 32  1  1
 12 33  1  0
 12 34  1  0
 14 35  1  0
 14 36  1  0
 16 37  1  0
 17 38  1  0
 19 39  1  0
 20 40  1  0
 20 41  1  0
 21 42  1  0
 21 43  1  0
 24 44  1  0
 25 45  1  0
M  END
>  <smiles>  (34) 
COc1cccc(-c2nc(C3CN(Cc4ccsc4)CCO3)n[nH]2)c1

>  <score_type>  (34) 
oracle

>  <origin>  (34) 
adg

>  <m_score__min__energy>  (34) 
-8.4499999999999993

>  <m_primary>  (34) 
energy

$$$$
34:0
     RDKit          3D

 35 37  0  0  0  0  0  0  0  0999 V2000
   55.9260   29.3800   45.1880 F   0  0  0  0  0  0  0  0  0  0  0  0
   57.2290   29.0040   45.1530 C   0  0  0  0  0  0  0  0  0  0  0  0
   57.5420   27.6660   44.8910 C   0  0  0  0  0  0  0  0  0  0  0  0
   58.8730   27.2410   44.9060 C   0  0  0  0  0  0  0  0  0  0  0  0
   59.8940   28.1510   45.1910 C   0  0  0  0  0  0  0  0  0  0  0  0
   59.5860   29.4890   45.4550 C   0  0  0  0  0  0  0  0  0  0  0  0
   58.2560   29.9320   45.4150 C   0  0  0  0  0  0  0  0  0  0  0  0
   57.9670   31.3060   45.7180 N   0  0  0  0  0  0  0  0  0  0  0  0
   57.5620   32.2950   44.7520 C   0  0  0  0  0  0  0  0  0  0  0  0
   57.7800   32.0410   43.1400 S   0  0  0  0  0  0  0  0  0  0  0  0
   57.0740   33.5720   45.2080 N   0  0  0  0  0  0  0  0  0  0  0  0
   58.1420   34.5850   45.1980 C   0  0  0  0  0  0  0  0  0  0  0  0
   59.2180   34.2830   46.2140 C   0  0  0  0  0  0  0  0  0  0  0  0
   58.9000   34.2090   47.5940 C   0  0  0  0  0  0  0  0  0  0  0  0
   59.8890   33.8810   48.5400 C   0  0  0  0  0  0  0  0  0  0  0  0
   61.1770   33.6410   48.0740 C   0  0  0  0  0  0  0  0  0  0  0  0
   61.4910   33.7170   46.7570 C   0  0  0  0  0  0  0  0  0  0  0  0
   60.5430   34.0370   45.7890 C   0  0  0  0  0  0  0  0  0  0  0  0
   62.8320   33.4320   46.5860 O   0  0  0  0  0  0  0  0  0  0  0  0
   63.3950   33.1600   47.8760 C   0  0  0  0  0  0  0  0  0  0  0  0
   62.3050   33.3050   48.7970 O   0  0  0  0  0  0  0  0  0  0  0  0
   56.7387   26.9470   44.6727 H   0  0  0  0  0  0  0  0  0  0  0  0
   59.1170   26.1897   44.6934 H   0  0  0  0  0  0  0  0  0  0  0  0
   60.9411   27.8145   45.2077 H   0  0  0  0  0  0  0  0  0  0  0  0
   60.3916   30.1984   45.6955 H   0  0  0  0  0  0  0  0  0  0  0  0
   58.1530   31.6310   46.6940 H   0  0  0  0  0  0  0  0  0  0  0  0
   56.7100   33.4820   46.1850 H   0  0  0  0  0  0  0  0  0  0  0  0
   56.2750   33.8810   44.6080 H   0  0  0  0  0  0  0  0  0  0  0  0
   58.5966   34.6119   44.1967 H   0  0  0  0  0  0  0  0  0  0  0  0
   57.6926   35.5550   45.4572 H   0  0  0  0  0  0  0  0  0  0  0  0
   57.8713   34.4097   47.9280 H   0  0  0  0  0  0  0  0  0  0  0  0
   59.6511   33.8166   49.6120 H   0  0  0  0  0  0  0  0  0  0  0  0
   60.8171   34.0965   44.7254 H   0  0  0  0  0  0  0  0  0  0  0  0
   63.7989   32.1375   47.9134 H   0  0  0  0  0  0  0  0  0  0  0  0
   64.2284   33.8376   48.1134 H   0  0  0  0  0  0  0  0  0  0  0  0
  1  2  1  0
  2  3  2  0
  3  4  1  0
  4  5  2  0
  5  6  1  0
  6  7  2  0
  7  8  1  0
  8  9  1  0
  9 10  2  0
  9 11  1  0
 11 12  1  0
 12 13  1  0
 13 14  2  0
 14 15  1  0
 15 16  2  0
 16 17  1  0
 17 18  2  0
 17 19  1  0
 19 20  1  0
 20 21  1  0
  7  2  1  0
 18 13  1  0
 21 16  1  0
  3 22  1  0
  4 23  1  0
  5 24  1  0
  6 25  1  0
  8 26  1  0
 11 27  1  0
 11 28  1  0
 12 29  1  0
 12 30  1  0
 14 31  1  0
 15 32  1  0
 18 33  1  0
 20 34  1  0
 20 35  1  0
M  CHG  1  11   1
M  END
>  <UniqueID>  (35) 
32

>  <SMILES>  (35) 
Fc1ccccc1NC(=S)[NH2+]Cc1ccc2c(c1)OCO2

>  <Energy>  (35) 
69.82926002345603

>  <Genealogy>  (35) 
Fc1ccccc1NC(=S)[NH2+]Cc1ccc2c(c1)OCO2 (protonated)
Fc1ccccc1NC(=S)[NH2+]Cc1ccc2c(c1)OCO2 (3D coordinates assigned)
Fc1ccccc1NC(=S)[NH2+]Cc1ccc2c(c1)OCO2 (nonaromatic ring conformer: 69.82926002345603 kcal/mol)

>  <smiles>  (35) 
Fc1ccccc1NC(=S)NCc1ccc2c(c1)OCO2

>  <score_type>  (35) 
oracle

>  <origin>  (35) 
adg

>  <m_score__min__energy>  (35) 
-5.7199999999999998

>  <m_primary>  (35) 
energy

$$$$
35:0
     RDKit          3D

 48 51  0  0  0  0  0  0  0  0999 V2000
   56.6790   21.5950   43.5240 C   0  0  0  0  0  0  0  0  0  0  0  0
   57.7610   21.9310   44.3390 C   0  0  0  0  0  0  0  0  0  0  0  0
   58.1380   23.2690   44.4910 C   0  0  0  0  0  0  0  0  0  0  0  0
   57.4320   24.2910   43.8250 C   0  0  0  0  0  0  0  0  0  0  0  0
   57.8030   25.6770   43.9680 N   0  0  0  0  0  0  0  0  0  0  0  0
   58.2520   26.3080   45.0760 C   0  0  0  0  0  0  0  0  0  0  0  0
   58.4860   27.6250   44.7210 C   0  0  0  0  0  0  0  0  0  0  0  0
   58.9880   28.7170   45.5900 C   0  0  0  0  0  0  0  0  0  0  0  0
   58.1170   29.3990   46.4580 C   0  0  0  0  0  0  0  0  0  0  0  0
   58.5920   30.4270   47.2770 C   0  0  0  0  0  0  0  0  0  0  0  0
   59.9400   30.7930   47.2540 C   0  0  0  0  0  0  0  0  0  0  0  0
   60.3590   31.8330   48.1010 O   0  0  0  0  0  0  0  0  0  0  0  0
   59.7890   33.1410   48.1590 C   0  0  0  0  0  0  0  0  0  0  0  0
   60.1580   33.9570   46.9130 C   0  0  0  0  0  0  0  0  0  0  0  0
   58.9540   34.5930   46.3280 N   0  0  0  0  0  0  0  0  0  0  0  0
   59.0510   34.6810   44.8650 C   0  0  0  0  0  0  0  0  0  0  0  0
   58.4460   33.4140   44.2880 C   0  0  0  0  0  0  0  0  0  0  0  0
   57.5000   32.9080   45.3580 C   0  0  0  0  0  0  0  0  0  0  0  0
   57.7430   33.7940   46.5750 C   0  0  0  0  0  0  0  0  0  0  0  0
   60.8160   30.1170   46.3850 C   0  0  0  0  0  0  0  0  0  0  0  0
   60.3440   29.0890   45.5640 C   0  0  0  0  0  0  0  0  0  0  0  0
   58.1720   27.7430   43.4140 N   0  0  0  0  0  0  0  0  0  0  0  0
   57.7640   26.5620   42.9820 N   0  0  0  0  0  0  0  0  0  0  0  0
   56.3390   23.9360   43.0090 C   0  0  0  0  0  0  0  0  0  0  0  0
   55.9680   22.5970   42.8620 C   0  0  0  0  0  0  0  0  0  0  0  0
   56.3869   20.5414   43.4035 H   0  0  0  0  0  0  0  0  0  0  0  0
   58.3188   21.1411   44.8633 H   0  0  0  0  0  0  0  0  0  0  0  0
   58.9919   23.5258   45.1351 H   0  0  0  0  0  0  0  0  0  0  0  0
   58.4025   25.8604   46.0695 H   0  0  0  0  0  0  0  0  0  0  0  0
   57.0532   29.1212   46.4927 H   0  0  0  0  0  0  0  0  0  0  0  0
   57.8967   30.9538   47.9472 H   0  0  0  0  0  0  0  0  0  0  0  0
   58.6942   33.0539   48.2208 H   0  0  0  0  0  0  0  0  0  0  0  0
   60.1851   33.6570   49.0460 H   0  0  0  0  0  0  0  0  0  0  0  0
   60.8790   34.7388   47.1938 H   0  0  0  0  0  0  0  0  0  0  0  0
   60.5996   33.2813   46.1657 H   0  0  0  0  0  0  0  0  0  0  0  0
   58.4960   35.5596   44.5044 H   0  0  0  0  0  0  0  0  0  0  0  0
   60.1007   34.7848   44.5529 H   0  0  0  0  0  0  0  0  0  0  0  0
   57.8976   33.6352   43.3604 H   0  0  0  0  0  0  0  0  0  0  0  0
   59.2140   32.6699   44.0303 H   0  0  0  0  0  0  0  0  0  0  0  0
   56.4567   32.9968   45.0209 H   0  0  0  0  0  0  0  0  0  0  0  0
   57.6756   31.8465   45.5867 H   0  0  0  0  0  0  0  0  0  0  0  0
   56.8817   34.4609   46.7279 H   0  0  0  0  0  0  0  0  0  0  0  0
   57.8731   33.1755   47.4753 H   0  0  0  0  0  0  0  0  0  0  0  0
   61.8787   30.3992   46.3515 H   0  0  0  0  0  0  0  0  0  0  0  0
   61.0397   28.5661   44.8913 H   0  0  0  0  0  0  0  0  0  0  0  0
   58.2120   28.6000   42.8210 H   0  0  0  0  0  0  0  0  0  0  0  0
   55.7734   24.7196   42.4836 H   0  0  0  0  0  0  0  0  0  0  0  0
   55.1131   22.3318   42.2227 H   0  0  0  0  0  0  0  0  0  0  0  0
  1  2  2  0
  2  3  1  0
  3  4  2  0
  4  5  1  0
  5  6  1  0
  6  7  2  0
  7  8  1  0
  8  9  2  0
  9 10  1  0
 10 11  2  0
 11 12  1  0
 12 13  1  0
 13 14  1  0
 14 15  1  0
 15 16  1  0
 16 17  1  0
 17 18  1  0
 18 19  1  0
 11 20  1  0
 20 21  2  0
  7 22  1  0
 22 23  2  0
  4 24  1  0
 24 25  2  0
 25  1  1  0
 23  5  1  0
 21  8  1  0
 19 15  1  0
  1 26  1  0
  2 27  1  0
  3 28  1  0
  6 29  1  0
  9 30  1  0
 10 31  1  0
 13 32  1  0
 13 33  1  0
 14 34  1  0
 14 35  1  0
 16 36  1  0
 16 37  1  0
 17 38  1  0
 17 39  1  0
 18 40  1  0
 18 41  1  0
 19 42  1  0
 19 43  1  0
 20 44  1  0
 21 45  1  0
 22 46  1  0
 24 47  1  0
 25 48  1  0
M  CHG  1  22   1
M  END
>  <UniqueID>  (36) 
33

>  <SMILES>  (36) 
c1ccc(-n2cc(-c3ccc(OCCN4CCCC4)cc3)[nH+]n2)cc1

>  <Energy>  (36) 
93.75449585591232

>  <Genealogy>  (36) 
c1ccc(-n2cc(-c3ccc(OCCN4CCCC4)cc3)[nH+]n2)cc1 (protonated)
c1ccc(-n2cc(-c3ccc(OCCN4CCCC4)cc3)[nH+]n2)cc1 (3D coordinates assigned)
c1ccc(-n2cc(-c3ccc(OCCN4CCCC4)cc3)[nH+]n2)cc1 (nonaromatic ring conformer: 93.75449585591232 kcal/mol)

>  <smiles>  (36) 
c1ccc(-n2cc(-c3ccc(OCCN4CCCC4)cc3)nn2)cc1

>  <score_type>  (36) 
oracle

>  <origin>  (36) 
adg

>  <m_score__min__energy>  (36) 
-6.5300000000000002

>  <m_primary>  (36) 
energy

$$$$
36:0
     RDKit          3D

 57 60  0  0  0  0  0  0  0  0999 V2000
   67.4960   32.9540   50.8820 C   0  0  0  0  0  0  0  0  0  0  0  0
   66.2560   33.1700   51.5500 O   0  0  0  0  0  0  0  0  0  0  0  0
   65.0140   33.2570   50.9030 C   0  0  0  0  0  0  0  0  0  0  0  0
   63.8180   33.5080   51.5970 C   0  0  0  0  0  0  0  0  0  0  0  0
   62.6040   33.5890   50.9100 C   0  0  0  0  0  0  0  0  0  0  0  0
   62.5590   33.4320   49.5090 C   0  0  0  0  0  0  0  0  0  0  0  0
   61.3500   33.5050   48.7700 C   0  0  0  0  0  0  0  0  0  0  0  0
   60.0560   33.7670   49.4490 C   0  0  0  0  0  0  0  0  0  0  0  0
   59.5990   34.9420   49.4490 O   0  0  0  0  0  0  0  0  0  0  0  0
   59.2760   32.6750   50.0860 C   0  0  0  0  0  0  0  0  0  0  0  0
   59.2250   31.4040   49.4880 C   0  0  0  0  0  0  0  0  0  0  0  0
   58.5230   30.3600   50.1000 C   0  0  0  0  0  0  0  0  0  0  0  0
   57.8560   30.5730   51.3200 C   0  0  0  0  0  0  0  0  0  0  0  0
   57.1480   29.5550   51.9780 O   0  0  0  0  0  0  0  0  0  0  0  0
   56.2360   29.7720   53.0510 C   0  0  0  0  0  0  0  0  0  0  0  0
   55.0610   30.6250   52.5700 C   0  0  0  0  0  0  0  0  0  0  0  0
   54.0600   29.8060   51.8490 N   0  0  0  0  0  0  0  0  0  0  0  0
   53.2950   28.9900   52.8060 C   0  0  0  0  0  0  0  0  0  0  0  0
   53.1350   30.6530   51.0780 C   0  0  0  0  0  0  0  0  0  0  0  0
   57.8940   31.8410   51.9070 C   0  0  0  0  0  0  0  0  0  0  0  0
   58.5930   32.8850   51.2970 C   0  0  0  0  0  0  0  0  0  0  0  0
   61.3870   33.3010   47.3670 C   0  0  0  0  0  0  0  0  0  0  0  0
   60.1700   33.3830   46.5230 C   0  0  0  0  0  0  0  0  0  0  0  0
   59.7840   34.5980   45.9350 C   0  0  0  0  0  0  0  0  0  0  0  0
   58.6200   34.6520   45.1660 C   0  0  0  0  0  0  0  0  0  0  0  0
   57.8720   33.5320   44.9810 N   0  0  0  0  0  0  0  0  0  0  0  0
   58.2280   32.3390   45.5280 C   0  0  0  0  0  0  0  0  0  0  0  0
   59.3850   32.2410   46.3050 C   0  0  0  0  0  0  0  0  0  0  0  0
   62.6130   33.0210   46.7490 C   0  0  0  0  0  0  0  0  0  0  0  0
   63.7550   32.9650   47.4770 N   0  0  0  0  0  0  0  0  0  0  0  0
   63.7640   33.1620   48.8200 C   0  0  0  0  0  0  0  0  0  0  0  0
   64.9750   33.0830   49.5160 C   0  0  0  0  0  0  0  0  0  0  0  0
   68.2940   32.8150   51.6262 H   0  0  0  0  0  0  0  0  0  0  0  0
   67.4215   32.0553   50.2521 H   0  0  0  0  0  0  0  0  0  0  0  0
   67.7297   33.8250   50.2521 H   0  0  0  0  0  0  0  0  0  0  0  0
   63.8377   33.6416   52.6887 H   0  0  0  0  0  0  0  0  0  0  0  0
   61.6744   33.7770   51.4672 H   0  0  0  0  0  0  0  0  0  0  0  0
   59.7406   31.2290   48.5322 H   0  0  0  0  0  0  0  0  0  0  0  0
   58.4925   29.3683   49.6251 H   0  0  0  0  0  0  0  0  0  0  0  0
   55.8600   28.8033   53.4119 H   0  0  0  0  0  0  0  0  0  0  0  0
   56.7546   30.2965   53.8671 H   0  0  0  0  0  0  0  0  0  0  0  0
   54.5795   31.0948   53.4403 H   0  0  0  0  0  0  0  0  0  0  0  0
   55.4470   31.3887   51.8788 H   0  0  0  0  0  0  0  0  0  0  0  0
   53.5656   29.2786   53.8324 H   0  0  0  0  0  0  0  0  0  0  0  0
   52.2187   29.1551   52.6504 H   0  0  0  0  0  0  0  0  0  0  0  0
   53.5291   27.9265   52.6504 H   0  0  0  0  0  0  0  0  0  0  0  0
   52.5041   31.2307   51.7695 H   0  0  0  0  0  0  0  0  0  0  0  0
   53.7114   31.3430   50.4442 H   0  0  0  0  0  0  0  0  0  0  0  0
   52.4984   30.0182   50.4442 H   0  0  0  0  0  0  0  0  0  0  0  0
   57.3690   32.0181   52.8573 H   0  0  0  0  0  0  0  0  0  0  0  0
   58.6093   33.8791   51.7675 H   0  0  0  0  0  0  0  0  0  0  0  0
   60.3947   35.5015   46.0792 H   0  0  0  0  0  0  0  0  0  0  0  0
   58.3076   35.6025   44.7090 H   0  0  0  0  0  0  0  0  0  0  0  0
   57.6038   31.4493   45.3584 H   0  0  0  0  0  0  0  0  0  0  0  0
   59.6783   31.2754   46.7426 H   0  0  0  0  0  0  0  0  0  0  0  0
   62.6490   32.8451   45.6637 H   0  0  0  0  0  0  0  0  0  0  0  0
   65.9064   32.8819   48.9664 H   0  0  0  0  0  0  0  0  0  0  0  0
  1  2  1  0
  2  3  1  0
  3  4  2  0
  4  5  1  0
  5  6  2  0
  6  7  1  0
  7  8  1  0
  8  9  2  0
  8 10  1  0
 10 11  2  0
 11 12  1  0
 12 13  2  0
 13 14  1  0
 14 15  1  0
 15 16  1  0
 16 17  1  0
 17 18  1  0
 17 19  1  0
 13 20  1  0
 20 21  2  0
  7 22  2  0
 22 23  1  0
 23 24  2  0
 24 25  1  0
 25 26  2  0
 26 27  1  0
 27 28  2  0
 22 29  1  0
 29 30  2  0
 30 31  1  0
 31 32  2  0
 32  3  1  0
 31  6  1  0
 21 10  1  0
 28 23  1  0
  1 33  1  0
  1 34  1  0
  1 35  1  0
  4 36  1  0
  5 37  1  0
 11 38  1  0
 12 39  1  0
 15 40  1  0
 15 41  1  0
 16 42  1  0
 16 43  1  0
 18 44  1  0
 18 45  1  0
 18 46  1  0
 19 47  1  0
 19 48  1  0
 19 49  1  0
 20 50  1  0
 21 51  1  0
 24 52  1  0
 25 53  1  0
 27 54  1  0
 28 55  1  0
 29 56  1  0
 32 57  1  0
M  END
>  <UniqueID>  (37) 
34

>  <SMILES>  (37) 
COc1ccc2c(C(=O)c3ccc(OCCN(C)C)cc3)c(-c3ccncc3)cnc2c1

>  <Energy>  (37) 
78.58334573930013

>  <Genealogy>  (37) 
COc1ccc2c(C(=O)c3ccc(OCCN(C)C)cc3)c(-c3ccncc3)cnc2c1 (3D coordinates assigned)
COc1ccc2c(C(=O)c3ccc(OCCN(C)C)cc3)c(-c3ccncc3)cnc2c1 (optimized conformer: 78.58334573930013 kcal/mol)

>  <smiles>  (37) 
COc1ccc2c(C(=O)c3ccc(OCCN(C)C)cc3)c(-c3ccncc3)cnc2c1

>  <score_type>  (37) 
oracle

>  <origin>  (37) 
adg

>  <m_score__min__energy>  (37) 
-8.0299999999999994

>  <m_primary>  (37) 
energy

$$$$
37:0
     RDKit          3D

 46 47  0  0  0  0  0  0  0  0999 V2000
   58.1470   27.0750   42.8440 C   0  0  0  0  0  0  0  0  0  0  0  0
   57.7580   27.2490   44.3100 C   0  0  0  0  0  0  0  0  0  0  0  0
   57.7800   28.6680   44.7010 N   0  0  0  0  0  0  0  0  0  0  0  0
   57.2410   29.6670   43.7650 C   0  0  0  0  0  0  0  0  0  0  0  0
   55.7700   29.9670   44.0630 C   0  0  0  0  0  0  0  0  0  0  0  0
   55.3550   29.3200   45.2330 O   0  0  0  0  0  0  0  0  0  0  0  0
   58.3290   29.1030   45.9670 C   0  0  0  0  0  0  0  0  0  0  0  0
   57.9340   30.1860   46.4780 O   0  0  0  0  0  0  0  0  0  0  0  0
   59.3100   28.2720   46.7490 C   0  0  0  0  0  0  0  0  0  0  0  0
   59.4590   28.8980   48.4570 S   0  0  0  0  0  0  0  0  0  0  0  0
   60.4490   30.3300   48.0160 C   0  0  0  0  0  0  0  0  0  0  0  0
   60.5300   30.8280   46.7710 N   0  0  0  0  0  0  0  0  0  0  0  0
   61.2960   31.9070   46.8070 N   0  0  0  0  0  0  0  0  0  0  0  0
   61.6930   32.0420   48.0900 C   0  0  0  0  0  0  0  0  0  0  0  0
   62.4960   33.2060   48.5860 C   0  0  0  0  0  0  0  0  0  0  0  0
   61.6140   34.3290   48.8780 N   0  0  0  0  0  0  0  0  0  0  0  0
   60.1890   34.2120   48.9370 C   0  0  0  0  0  0  0  0  0  0  0  0
   59.5970   34.2010   50.0500 O   0  0  0  0  0  0  0  0  0  0  0  0
   59.4100   34.1270   47.6950 C   0  0  0  0  0  0  0  0  0  0  0  0
   58.2970   33.3220   47.4830 C   0  0  0  0  0  0  0  0  0  0  0  0
   57.7870   33.4190   46.1830 C   0  0  0  0  0  0  0  0  0  0  0  0
   58.4930   34.2960   45.3700 C   0  0  0  0  0  0  0  0  0  0  0  0
   59.7560   34.9480   46.2690 S   0  0  0  0  0  0  0  0  0  0  0  0
   61.1870   31.0620   48.8730 N   0  0  0  0  0  0  0  0  0  0  0  0
   61.2510   30.9460   50.3280 C   0  0  0  0  0  0  0  0  0  0  0  0
   59.1495   26.6266   42.7814 H   0  0  0  0  0  0  0  0  0  0  0  0
   57.4192   26.4167   42.3472 H   0  0  0  0  0  0  0  0  0  0  0  0
   58.1526   28.0564   42.3472 H   0  0  0  0  0  0  0  0  0  0  0  0
   56.7441   26.8505   44.4621 H   0  0  0  0  0  0  0  0  0  0  0  0
   58.4853   26.7050   44.9306 H   0  0  0  0  0  0  0  0  0  0  0  0
   57.8226   30.5961   43.8575 H   0  0  0  0  0  0  0  0  0  0  0  0
   57.3146   29.2636   42.7443 H   0  0  0  0  0  0  0  0  0  0  0  0
   55.6418   31.0525   44.1869 H   0  0  0  0  0  0  0  0  0  0  0  0
   55.1599   29.6012   43.2240 H   0  0  0  0  0  0  0  0  0  0  0  0
   55.8720   29.7240   45.9800 H   0  0  0  0  0  0  0  0  0  0  0  0
   58.9613   27.2291   46.7748 H   0  0  0  0  0  0  0  0  0  0  0  0
   60.2943   28.3307   46.2614 H   0  0  0  0  0  0  0  0  0  0  0  0
   60.0560   30.4620   45.9150 H   0  0  0  0  0  0  0  0  0  0  0  0
   63.0320   32.9156   49.5016 H   0  0  0  0  0  0  0  0  0  0  0  0
   63.2177   33.5044   47.8113 H   0  0  0  0  0  0  0  0  0  0  0  0
   57.8612   32.6744   48.2581 H   0  0  0  0  0  0  0  0  0  0  0  0
   56.9090   32.8534   45.8377 H   0  0  0  0  0  0  0  0  0  0  0  0
   58.2652   34.5249   44.3185 H   0  0  0  0  0  0  0  0  0  0  0  0
   60.7681   31.8212   50.7872 H   0  0  0  0  0  0  0  0  0  0  0  0
   60.7301   30.0309   50.6461 H   0  0  0  0  0  0  0  0  0  0  0  0
   62.3029   30.8986   50.6461 H   0  0  0  0  0  0  0  0  0  0  0  0
  1  2  1  0
  2  3  1  0
  3  4  1  0
  4  5  1  0
  5  6  1  0
  3  7  1  0
  7  8  2  0
  7  9  1  0
  9 10  1  0
 10 11  1  0
 11 12  2  0
 12 13  1  0
 13 14  2  0
 14 15  1  0
 15 16  1  0
 16 17  1  0
 17 18  2  0
 17 19  1  0
 19 20  2  0
 20 21  1  0
 21 22  2  0
 22 23  1  0
 14 24  1  0
 24 25  1  0
 24 11  1  0
 23 19  1  0
  1 26  1  0
  1 27  1  0
  1 28  1  0
  2 29  1  0
  2 30  1  0
  4 31  1  0
  4 32  1  0
  5 33  1  0
  5 34  1  0
  6 35  1  0
  9 36  1  0
  9 37  1  0
 12 38  1  0
 15 39  1  0
 15 40  1  0
 20 41  1  0
 21 42  1  0
 22 43  1  0
 25 44  1  0
 25 45  1  0
 25 46  1  0
M  CHG  2  12   1  16  -1
M  END
>  <UniqueID>  (38) 
35

>  <SMILES>  (38) 
CCN(CCO)C(=O)CSc1[nH+]nc(C[N-]C(=O)c2cccs2)n1C

>  <Energy>  (38) 
87.78145111157741

>  <Genealogy>  (38) 
CCN(CCO)C(=O)CSc1[nH+]nc(C[N-]C(=O)c2cccs2)n1C (protonated)
CCN(CCO)C(=O)CSc1[nH+]nc(C[N-]C(=O)c2cccs2)n1C (3D coordinates assigned)
CCN(CCO)C(=O)CSc1[nH+]nc(C[N-]C(=O)c2cccs2)n1C (optimized conformer: 87.78145111157741 kcal/mol)

>  <smiles>  (38) 
CCN(CCO)C(=O)CSc1nnc(CNC(=O)c2cccs2)n1C

>  <score_type>  (38) 
oracle

>  <origin>  (38) 
adg

>  <m_score__min__energy>  (38) 
-7.5800000000000001

>  <m_primary>  (38) 
energy

$$$$
38:0
     RDKit          3D

 49 51  0  0  0  0  0  0  0  0999 V2000
   60.3570   27.8280   48.6090 C   0  0  0  0  0  0  0  0  0  0  0  0
   59.2870   28.7530   48.4800 O   0  0  0  0  0  0  0  0  0  0  0  0
   58.7540   29.1760   47.2520 C   0  0  0  0  0  0  0  0  0  0  0  0
   57.8550   28.3340   46.5950 C   0  0  0  0  0  0  0  0  0  0  0  0
   57.2540   28.7340   45.4010 C   0  0  0  0  0  0  0  0  0  0  0  0
   57.5540   29.9790   44.8390 C   0  0  0  0  0  0  0  0  0  0  0  0
   56.6420   30.4750   43.2230 Br  0  0  0  0  0  0  0  0  0  0  0  0
   58.4960   30.8240   45.4630 C   0  0  0  0  0  0  0  0  0  0  0  0
   58.8730   32.1660   44.8680 C   0  0  0  0  0  0  0  0  0  0  0  0
   57.8000   33.1800   45.0620 N   0  0  1  0  0  0  0  0  0  0  0  0
   57.1510   33.1010   46.3900 C   0  0  0  0  0  0  0  0  0  0  0  0
   58.1160   33.3880   47.5590 C   0  0  0  0  0  0  0  0  0  0  0  0
   59.1460   34.3940   47.2390 N   0  0  0  0  0  0  0  0  0  0  0  0
   60.2520   34.5840   48.1920 C   0  0  0  0  0  0  0  0  0  0  0  0
   60.9800   33.2860   48.4680 C   0  0  0  0  0  0  0  0  0  0  0  0
   60.5110   32.4550   49.5000 C   0  0  0  0  0  0  0  0  0  0  0  0
   61.1500   31.2500   49.7860 C   0  0  0  0  0  0  0  0  0  0  0  0
   62.2690   30.8590   49.0500 C   0  0  0  0  0  0  0  0  0  0  0  0
   62.7570   31.6760   48.0320 C   0  0  0  0  0  0  0  0  0  0  0  0
   62.1210   32.8900   47.7250 C   0  0  0  0  0  0  0  0  0  0  0  0
   62.6880   33.7520   46.6330 C   0  0  0  0  0  0  0  0  0  0  0  0
   59.2090   35.0030   45.9330 C   0  0  0  0  0  0  0  0  0  0  0  0
   59.9960   35.9590   45.7080 O   0  0  0  0  0  0  0  0  0  0  0  0
   58.2950   34.5510   44.8340 C   0  0  0  0  0  0  0  0  0  0  0  0
   59.0840   30.4160   46.6720 C   0  0  0  0  0  0  0  0  0  0  0  0
   60.5620   27.6508   49.6751 H   0  0  0  0  0  0  0  0  0  0  0  0
   60.0815   26.8789   48.1259 H   0  0  0  0  0  0  0  0  0  0  0  0
   61.2562   28.2378   48.1259 H   0  0  0  0  0  0  0  0  0  0  0  0
   57.6187   27.3481   47.0217 H   0  0  0  0  0  0  0  0  0  0  0  0
   56.5394   28.0656   44.8984 H   0  0  0  0  0  0  0  0  0  0  0  0
   59.7930   32.5243   45.3530 H   0  0  0  0  0  0  0  0  0  0  0  0
   59.0222   32.0299   43.7867 H   0  0  0  0  0  0  0  0  0  0  0  0
   57.0560   33.0120   44.3420 H   0  0  0  0  0  0  0  0  0  0  0  0
   56.3336   33.8364   46.4234 H   0  0  0  0  0  0  0  0  0  0  0  0
   56.7868   32.0705   46.5138 H   0  0  0  0  0  0  0  0  0  0  0  0
   57.5279   33.7519   48.4144 H   0  0  0  0  0  0  0  0  0  0  0  0
   58.6411   32.4477   47.7830 H   0  0  0  0  0  0  0  0  0  0  0  0
   60.9638   35.3101   47.7724 H   0  0  0  0  0  0  0  0  0  0  0  0
   59.8300   34.9496   49.1398 H   0  0  0  0  0  0  0  0  0  0  0  0
   59.6317   32.7585   50.0872 H   0  0  0  0  0  0  0  0  0  0  0  0
   60.7715   30.6060   50.5934 H   0  0  0  0  0  0  0  0  0  0  0  0
   62.7669   29.9040   49.2737 H   0  0  0  0  0  0  0  0  0  0  0  0
   63.6474   31.3677   47.4644 H   0  0  0  0  0  0  0  0  0  0  0  0
   63.2406   34.5922   47.0787 H   0  0  0  0  0  0  0  0  0  0  0  0
   63.3696   33.1539   46.0104 H   0  0  0  0  0  0  0  0  0  0  0  0
   61.8689   34.1411   46.0104 H   0  0  0  0  0  0  0  0  0  0  0  0
   57.4356   35.2357   44.7814 H   0  0  0  0  0  0  0  0  0  0  0  0
   58.8635   34.5570   43.8923 H   0  0  0  0  0  0  0  0  0  0  0  0
   59.8110   31.0732   47.1716 H   0  0  0  0  0  0  0  0  0  0  0  0
  1  2  1  0
  2  3  1  0
  3  4  2  0
  4  5  1  0
  5  6  2  0
  6  7  1  0
  6  8  1  0
  8  9  1  0
  9 10  1  0
 10 11  1  0
 11 12  1  0
 12 13  1  0
 13 14  1  0
 14 15  1  0
 15 16  2  0
 16 17  1  0
 17 18  2  0
 18 19  1  0
 19 20  2  0
 20 21  1  0
 13 22  1  0
 22 23  2  0
 22 24  1  0
  8 25  2  0
 25  3  1  0
 24 10  1  0
 20 15  1  0
  1 26  1  0
  1 27  1  0
  1 28  1  0
  4 29  1  0
  5 30  1  0
  9 31  1  0
  9 32  1  0
 10 33  1  6
 11 34  1  0
 11 35  1  0
 12 36  1  0
 12 37  1  0
 14 38  1  0
 14 39  1  0
 16 40  1  0
 17 41  1  0
 18 42  1  0
 19 43  1  0
 21 44  1  0
 21 45  1  0
 21 46  1  0
 24 47  1  0
 24 48  1  0
 25 49  1  0
M  CHG  1  10   1
M  END
>  <UniqueID>  (39) 
36

>  <SMILES>  (39) 
COc1ccc(Br)c(C[N@H+]2CCN(Cc3ccccc3C)C(=O)C2)c1

>  <Energy>  (39) 
58.36405794291763

>  <Genealogy>  (39) 
COc1ccc(Br)c(C[NH+]2CCN(Cc3ccccc3C)C(=O)C2)c1 (protonated)
COc1ccc(Br)c(C[N@H+]2CCN(Cc3ccccc3C)C(=O)C2)c1 (chirality)
COc1ccc(Br)c(C[N@H+]2CCN(Cc3ccccc3C)C(=O)C2)c1 (3D coordinates assigned)
COc1ccc(Br)c(C[N@H+]2CCN(Cc3ccccc3C)C(=O)C2)c1 (nonaromatic ring conformer: 58.36405794291763 kcal/mol)

>  <smiles>  (39) 
COc1ccc(Br)c(CN2CCN(Cc3ccccc3C)C(=O)C2)c1

>  <score_type>  (39) 
oracle

>  <origin>  (39) 
adg

>  <m_score__min__energy>  (39) 
-6.2000000000000002

>  <m_primary>  (39) 
energy

$$$$
39:0
     RDKit          3D

 54 57  0  0  0  0  0  0  0  0999 V2000
   62.7200   34.9900   50.2110 F   0  0  0  0  0  0  0  0  0  0  0  0
   62.6620   34.0370   49.2490 C   0  0  0  0  0  0  0  0  0  0  0  0
   63.3940   34.1910   48.0690 C   0  0  0  0  0  0  0  0  0  0  0  0
   63.3310   33.2120   47.0750 C   0  0  0  0  0  0  0  0  0  0  0  0
   62.5370   32.0770   47.2580 C   0  0  0  0  0  0  0  0  0  0  0  0
   61.7940   31.9080   48.4430 C   0  0  0  0  0  0  0  0  0  0  0  0
   60.9760   30.7350   48.6340 N   0  0  0  0  0  0  0  0  0  0  0  0
   59.9380   30.6090   49.4910 C   0  0  0  0  0  0  0  0  0  0  0  0
   59.3960   29.3440   49.3960 C   0  0  0  0  0  0  0  0  0  0  0  0
   60.1290   28.6780   48.4340 C   0  0  0  0  0  0  0  0  0  0  0  0
   59.9180   27.2620   47.9640 C   0  0  0  0  0  0  0  0  0  0  0  0
   59.1510   27.1670   46.7030 N   0  0  0  0  0  0  0  0  0  0  0  0
   57.6980   27.3880   46.8790 C   0  0  0  0  0  0  0  0  0  0  0  0
   57.0300   27.7210   45.5450 C   0  0  0  0  0  0  0  0  0  0  0  0
   57.5650   28.9950   45.0250 N   0  0  0  0  0  0  0  0  0  0  0  0
   57.0560   29.3620   43.6850 C   0  0  0  0  0  0  0  0  0  0  0  0
   56.6550   30.8400   43.5470 C   0  0  0  0  0  0  0  0  0  0  0  0
   56.6180   31.4620   44.8300 O   0  0  0  0  0  0  0  0  0  0  0  0
   57.5300   32.4310   45.2690 C   0  0  0  0  0  0  0  0  0  0  0  0
   57.8710   33.5580   44.4930 C   0  0  0  0  0  0  0  0  0  0  0  0
   58.7850   34.4970   44.9810 C   0  0  0  0  0  0  0  0  0  0  0  0
   59.3660   34.3220   46.2390 C   0  0  0  0  0  0  0  0  0  0  0  0
   59.0350   33.2070   47.0130 C   0  0  0  0  0  0  0  0  0  0  0  0
   58.1200   32.2670   46.5290 C   0  0  0  0  0  0  0  0  0  0  0  0
   59.0270   29.1850   45.2030 C   0  0  0  0  0  0  0  0  0  0  0  0
   59.7640   27.8770   45.5540 C   0  0  0  0  0  0  0  0  0  0  0  0
   61.1010   29.5550   47.9910 C   0  0  0  0  0  0  0  0  0  0  0  0
   61.8670   32.9020   49.4370 C   0  0  0  0  0  0  0  0  0  0  0  0
   64.0201   35.0835   47.9228 H   0  0  0  0  0  0  0  0  0  0  0  0
   63.9076   33.3347   46.1463 H   0  0  0  0  0  0  0  0  0  0  0  0
   62.4917   31.3097   46.4711 H   0  0  0  0  0  0  0  0  0  0  0  0
   59.5781   31.3998   50.1656 H   0  0  0  0  0  0  0  0  0  0  0  0
   58.5482   28.9451   49.9723 H   0  0  0  0  0  0  0  0  0  0  0  0
   60.9024   26.7964   47.8087 H   0  0  0  0  0  0  0  0  0  0  0  0
   59.3309   26.7479   48.7393 H   0  0  0  0  0  0  0  0  0  0  0  0
   57.2426   26.4757   47.2917 H   0  0  0  0  0  0  0  0  0  0  0  0
   57.5526   28.2352   47.5654 H   0  0  0  0  0  0  0  0  0  0  0  0
   57.2343   26.9167   44.8229 H   0  0  0  0  0  0  0  0  0  0  0  0
   55.9444   27.8159   45.6948 H   0  0  0  0  0  0  0  0  0  0  0  0
   57.8424   29.1474   42.9464 H   0  0  0  0  0  0  0  0  0  0  0  0
   56.1438   28.7699   43.5199 H   0  0  0  0  0  0  0  0  0  0  0  0
   57.3896   31.3581   42.9130 H   0  0  0  0  0  0  0  0  0  0  0  0
   55.6562   30.8998   43.0901 H   0  0  0  0  0  0  0  0  0  0  0  0
   57.4168   33.6988   43.5011 H   0  0  0  0  0  0  0  0  0  0  0  0
   59.0470   35.3754   44.3728 H   0  0  0  0  0  0  0  0  0  0  0  0
   60.0845   35.0624   46.6205 H   0  0  0  0  0  0  0  0  0  0  0  0
   59.4941   33.0686   48.0030 H   0  0  0  0  0  0  0  0  0  0  0  0
   57.8613   31.3915   47.1426 H   0  0  0  0  0  0  0  0  0  0  0  0
   59.4456   29.5834   44.2670 H   0  0  0  0  0  0  0  0  0  0  0  0
   59.1695   29.8798   46.0438 H   0  0  0  0  0  0  0  0  0  0  0  0
   59.7409   27.2135   44.6770 H   0  0  0  0  0  0  0  0  0  0  0  0
   60.7939   28.1407   45.8366 H   0  0  0  0  0  0  0  0  0  0  0  0
   61.8613   29.3260   47.2297 H   0  0  0  0  0  0  0  0  0  0  0  0
   61.2943   32.7851   50.3688 H   0  0  0  0  0  0  0  0  0  0  0  0
  1  2  1  0
  2  3  2  0
  3  4  1  0
  4  5  2  0
  5  6  1  0
  6  7  1  0
  7  8  1  0
  8  9  2  0
  9 10  1  0
 10 11  1  0
 11 12  1  0
 12 13  1  0
 13 14  1  0
 14 15  1  0
 15 16  1  0
 16 17  1  0
 17 18  1  0
 18 19  1  0
 19 20  2  0
 20 21  1  0
 21 22  2  0
 22 23  1  0
 23 24  2  0
 15 25  1  0
 25 26  1  0
 10 27  2  0
  6 28  2  0
 28  2  1  0
 27  7  1  0
 26 12  1  0
 24 19  1  0
  3 29  1  0
  4 30  1  0
  5 31  1  0
  8 32  1  0
  9 33  1  0
 11 34  1  0
 11 35  1  0
 13 36  1  0
 13 37  1  0
 14 38  1  0
 14 39  1  0
 16 40  1  0
 16 41  1  0
 17 42  1  0
 17 43  1  0
 20 44  1  0
 21 45  1  0
 22 46  1  0
 23 47  1  0
 24 48  1  0
 25 49  1  0
 25 50  1  0
 26 51  1  0
 26 52  1  0
 27 53  1  0
 28 54  1  0
M  END
>  <UniqueID>  (40) 
37

>  <SMILES>  (40) 
Fc1cccc(-n2ccc(CN3CCN(CCOc4ccccc4)CC3)c2)c1

>  <Energy>  (40) 
102.25904848970251

>  <Genealogy>  (40) 
Fc1cccc(-n2ccc(CN3CCN(CCOc4ccccc4)CC3)c2)c1 (3D coordinates assigned)
Fc1cccc(-n2ccc(CN3CCN(CCOc4ccccc4)CC3)c2)c1 (nonaromatic ring conformer: 102.25904848970251 kcal/mol)

>  <smiles>  (40) 
Fc1cccc(-n2ccc(CN3CCN(CCOc4ccccc4)CC3)c2)c1

>  <score_type>  (40) 
oracle

>  <origin>  (40) 
adg

>  <m_score__min__energy>  (40) 
-8.3300000000000001

>  <m_primary>  (40) 
energy

$$$$
40:0
     RDKit          3D

 27 28  0  0  0  0  0  0  0  0999 V2000
   58.4210   25.2820   45.2720 C   0  0  0  0  0  0  0  0  0  0  0  0
   58.2870   26.7720   45.2600 C   0  0  0  0  0  0  0  0  0  0  0  0
   59.0150   27.6050   46.1070 C   0  0  0  0  0  0  0  0  0  0  0  0
   58.5160   29.1870   45.8270 S   0  0  0  0  0  0  0  0  0  0  0  0
   57.3950   28.7510   44.6510 C   0  0  0  0  0  0  0  0  0  0  0  0
   56.4890   29.7060   43.9280 C   0  0  0  0  0  0  0  0  0  0  0  0
   56.4400   31.0270   44.5770 N   0  0  0  0  0  0  0  0  0  0  0  0
   57.3990   31.9840   44.0030 C   0  0  0  0  0  0  0  0  0  0  0  0
   58.0510   32.8000   45.0820 C   0  0  0  0  0  0  0  0  0  0  0  0
   57.4910   33.9640   45.6030 C   0  0  0  0  0  0  0  0  0  0  0  0
   58.5120   34.5450   46.8050 S   0  0  0  0  0  0  0  0  0  0  0  0
   59.6630   33.3280   46.6740 C   0  0  0  0  0  0  0  0  0  0  0  0
   61.2460   33.1950   47.7250 Br  0  0  0  0  0  0  0  0  0  0  0  0
   59.2660   32.4420   45.6840 C   0  0  0  0  0  0  0  0  0  0  0  0
   57.3840   27.4120   44.4670 N   0  0  0  0  0  0  0  0  0  0  0  0
   58.4531   24.9251   46.3120 H   0  0  0  0  0  0  0  0  0  0  0  0
   57.5597   24.8322   44.7564 H   0  0  0  0  0  0  0  0  0  0  0  0
   59.3488   24.9931   44.7564 H   0  0  0  0  0  0  0  0  0  0  0  0
   59.7798   27.2852   46.8300 H   0  0  0  0  0  0  0  0  0  0  0  0
   56.8553   29.8307   42.8983 H   0  0  0  0  0  0  0  0  0  0  0  0
   55.4731   29.2846   43.9437 H   0  0  0  0  0  0  0  0  0  0  0  0
   56.6540   30.9140   45.5960 H   0  0  0  0  0  0  0  0  0  0  0  0
   58.1737   31.4310   43.4516 H   0  0  0  0  0  0  0  0  0  0  0  0
   56.8575   32.6624   43.3273 H   0  0  0  0  0  0  0  0  0  0  0  0
   56.5442   34.4236   45.2831 H   0  0  0  0  0  0  0  0  0  0  0  0
   59.8443   31.5504   45.4001 H   0  0  0  0  0  0  0  0  0  0  0  0
   56.7500   26.9240   43.7950 H   0  0  0  0  0  0  0  0  0  0  0  0
  1  2  1  0
  2  3  2  0
  3  4  1  0
  4  5  1  0
  5  6  1  0
  6  7  1  0
  7  8  1  0
  8  9  1  0
  9 10  2  0
 10 11  1  0
 11 12  1  0
 12 13  1  0
 12 14  2  0
  5 15  2  0
 15  2  1  0
 14  9  1  0
  1 16  1  0
  1 17  1  0
  1 18  1  0
  3 19  1  0
  6 20  1  0
  6 21  1  0
  7 22  1  0
  8 23  1  0
  8 24  1  0
 10 25  1  0
 14 26  1  0
 15 27  1  0
M  CHG  1  15   1
M  END
>  <UniqueID>  (41) 
38

>  <SMILES>  (41) 
Cc1csc(CNCc2csc(Br)c2)[nH+]1

>  <Energy>  (41) 
78.64804791101598

>  <Genealogy>  (41) 
Cc1csc(CNCc2csc(Br)c2)[nH+]1 (protonated)
Cc1csc(CNCc2csc(Br)c2)[nH+]1 (3D coordinates assigned)
Cc1csc(CNCc2csc(Br)c2)[nH+]1 (optimized conformer: 78.64804791101598 kcal/mol)

>  <smiles>  (41) 
Cc1csc(CNCc2csc(Br)c2)n1

>  <score_type>  (41) 
oracle

>  <origin>  (41) 
adg

>  <m_score__min__energy>  (41) 
-5.0899999999999999

>  <m_primary>  (41) 
energy

$$$$
41:0
     RDKit          3D

 29 31  0  0  0  0  0  0  0  0999 V2000
   59.6520   35.7060   46.2140 C   0  0  0  0  0  0  0  0  0  0  0  0
   58.9000   35.0380   45.2050 O   0  0  0  0  0  0  0  0  0  0  0  0
   58.6080   33.6670   45.2130 C   0  0  0  0  0  0  0  0  0  0  0  0
   58.0630   33.0040   44.0980 C   0  0  0  0  0  0  0  0  0  0  0  0
   57.7890   31.6340   44.1570 C   0  0  0  0  0  0  0  0  0  0  0  0
   58.0560   30.9030   45.3260 C   0  0  0  0  0  0  0  0  0  0  0  0
   57.7770   29.4910   45.3850 N   0  0  0  0  0  0  0  0  0  0  0  0
   56.5970   28.8490   45.1580 C   0  0  0  0  0  0  0  0  0  0  0  0
   55.5230   29.4420   44.8730 O   0  0  0  0  0  0  0  0  0  0  0  0
   56.6790   27.5020   45.2910 N   0  0  0  0  0  0  0  0  0  0  0  0
   57.9660   27.2920   45.6170 C   0  0  0  0  0  0  0  0  0  0  0  0
   58.6240   26.0910   45.8510 C   0  0  0  0  0  0  0  0  0  0  0  0
   59.9980   26.1610   46.1460 C   0  0  0  0  0  0  0  0  0  0  0  0
   60.6470   27.4190   46.1860 C   0  0  0  0  0  0  0  0  0  0  0  0
   59.9500   28.5700   45.9450 N   0  0  0  0  0  0  0  0  0  0  0  0
   58.6210   28.4840   45.6770 C   0  0  0  0  0  0  0  0  0  0  0  0
   58.6010   31.5680   46.4360 C   0  0  0  0  0  0  0  0  0  0  0  0
   58.8740   32.9360   46.3770 C   0  0  0  0  0  0  0  0  0  0  0  0
   59.2964   35.3901   47.2059 H   0  0  0  0  0  0  0  0  0  0  0  0
   60.7166   35.4503   46.1076 H   0  0  0  0  0  0  0  0  0  0  0  0
   59.5236   36.7933   46.1076 H   0  0  0  0  0  0  0  0  0  0  0  0
   57.8516   33.5657   43.1761 H   0  0  0  0  0  0  0  0  0  0  0  0
   57.3610   31.1249   43.2809 H   0  0  0  0  0  0  0  0  0  0  0  0
   55.9220   26.7940   45.1680 H   0  0  0  0  0  0  0  0  0  0  0  0
   58.0943   25.1279   45.8076 H   0  0  0  0  0  0  0  0  0  0  0  0
   60.5667   25.2407   46.3451 H   0  0  0  0  0  0  0  0  0  0  0  0
   61.7221   27.4705   46.4131 H   0  0  0  0  0  0  0  0  0  0  0  0
   58.8143   31.0075   47.3582 H   0  0  0  0  0  0  0  0  0  0  0  0
   59.3022   33.4443   47.2535 H   0  0  0  0  0  0  0  0  0  0  0  0
  1  2  1  0
  2  3  1  0
  3  4  2  0
  4  5  1  0
  5  6  2  0
  6  7  1  0
  7  8  1  0
  8  9  2  0
  8 10  1  0
 10 11  1  0
 11 12  2  0
 12 13  1  0
 13 14  2  0
 14 15  1  0
 15 16  2  0
  6 17  1  0
 17 18  2  0
 18  3  1  0
 16  7  1  0
 16 11  1  0
  1 19  1  0
  1 20  1  0
  1 21  1  0
  4 22  1  0
  5 23  1  0
 10 24  1  0
 12 25  1  0
 13 26  1  0
 14 27  1  0
 17 28  1  0
 18 29  1  0
M  END
>  <UniqueID>  (42) 
39

>  <SMILES>  (42) 
COc1ccc(-n2c(=O)[nH]c3cccnc32)cc1

>  <Energy>  (42) 
78.77951844784575

>  <Genealogy>  (42) 
COc1ccc(-n2c(=O)[nH]c3cccnc32)cc1 (3D coordinates assigned)
COc1ccc(-n2c(=O)[nH]c3cccnc32)cc1 (optimized conformer: 78.77951844784575 kcal/mol)

>  <smiles>  (42) 
COc1ccc(-n2c(=O)[nH]c3cccnc32)cc1

>  <score_type>  (42) 
oracle

>  <origin>  (42) 
adg

>  <m_score__min__energy>  (42) 
-5.8099999999999996

>  <m_primary>  (42) 
energy

$$$$
42:0
     RDKit          3D

 47 49  0  0  0  0  0  0  0  0999 V2000
   67.1360   30.9060   50.4660 F   0  0  0  0  0  0  0  0  0  0  0  0
   66.9340   32.2130   50.8660 C   0  0  0  0  0  0  0  0  0  0  0  0
   67.4820   32.3910   52.1230 F   0  0  0  0  0  0  0  0  0  0  0  0
   67.5730   33.0590   49.9770 F   0  0  0  0  0  0  0  0  0  0  0  0
   65.4390   32.5250   50.8790 C   0  0  0  0  0  0  0  0  0  0  0  0
   65.0990   33.4650   49.8590 O   0  0  0  0  0  0  0  0  0  0  0  0
   63.8560   33.5720   49.2130 C   0  0  0  0  0  0  0  0  0  0  0  0
   62.6620   33.8750   49.8940 C   0  0  0  0  0  0  0  0  0  0  0  0
   61.4550   33.9700   49.1960 C   0  0  0  0  0  0  0  0  0  0  0  0
   61.4180   33.7730   47.8050 C   0  0  0  0  0  0  0  0  0  0  0  0
   60.1690   33.8480   47.0880 N   0  0  0  0  0  0  0  0  0  0  0  0
   60.1700   33.7820   45.6180 C   0  0  0  0  0  0  0  0  0  0  0  0
   58.7680   33.4880   45.0620 C   0  0  0  0  0  0  0  0  0  0  0  0
   58.0020   32.4220   45.8840 C   0  0  0  0  0  0  0  0  0  0  0  0
   58.4760   31.0070   45.5270 C   0  0  0  0  0  0  0  0  0  0  0  0
   59.5880   30.4660   46.2110 C   0  0  0  0  0  0  0  0  0  0  0  0
   60.0720   29.1950   45.9120 C   0  0  0  0  0  0  0  0  0  0  0  0
   59.4680   28.4350   44.9190 C   0  0  0  0  0  0  0  0  0  0  0  0
   58.3810   28.9450   44.2130 C   0  0  0  0  0  0  0  0  0  0  0  0
   57.8750   30.2340   44.4830 C   0  0  0  0  0  0  0  0  0  0  0  0
   56.6920   30.7410   43.6760 C   0  0  0  0  0  0  0  0  0  0  0  0
   55.5790   30.9600   44.4710 F   0  0  0  0  0  0  0  0  0  0  0  0
   57.0230   31.9390   43.0670 F   0  0  0  0  0  0  0  0  0  0  0  0
   56.3400   29.8140   42.7120 F   0  0  0  0  0  0  0  0  0  0  0  0
   58.0200   32.7020   47.4190 C   0  0  0  0  0  0  0  0  0  0  0  0
   58.8900   33.9040   47.8050 C   0  0  0  0  0  0  0  0  0  0  0  0
   62.6100   33.4690   47.1290 C   0  0  0  0  0  0  0  0  0  0  0  0
   63.8150   33.3760   47.8280 C   0  0  0  0  0  0  0  0  0  0  0  0
   64.8768   31.5945   50.7114 H   0  0  0  0  0  0  0  0  0  0  0  0
   65.1828   32.9623   51.8553 H   0  0  0  0  0  0  0  0  0  0  0  0
   62.6790   34.0379   50.9817 H   0  0  0  0  0  0  0  0  0  0  0  0
   60.5269   34.2007   49.7395 H   0  0  0  0  0  0  0  0  0  0  0  0
   60.5173   34.7460   45.2180 H   0  0  0  0  0  0  0  0  0  0  0  0
   60.8391   32.9644   45.3116 H   0  0  0  0  0  0  0  0  0  0  0  0
   58.1855   34.4211   45.0688 H   0  0  0  0  0  0  0  0  0  0  0  0
   58.8945   33.0902   44.0443 H   0  0  0  0  0  0  0  0  0  0  0  0
   56.9423   32.4928   45.5976 H   0  0  0  0  0  0  0  0  0  0  0  0
   60.0807   31.0603   46.9946 H   0  0  0  0  0  0  0  0  0  0  0  0
   60.9344   28.7922   46.4634 H   0  0  0  0  0  0  0  0  0  0  0  0
   59.8486   27.4287   44.6896 H   0  0  0  0  0  0  0  0  0  0  0  0
   57.9088   28.3320   43.4312 H   0  0  0  0  0  0  0  0  0  0  0  0
   56.9893   32.8958   47.7508 H   0  0  0  0  0  0  0  0  0  0  0  0
   58.4524   31.8161   47.9072 H   0  0  0  0  0  0  0  0  0  0  0  0
   58.3647   34.8337   47.5410 H   0  0  0  0  0  0  0  0  0  0  0  0
   59.0815   33.8785   48.8879 H   0  0  0  0  0  0  0  0  0  0  0  0
   62.5946   33.3030   46.0417 H   0  0  0  0  0  0  0  0  0  0  0  0
   64.7429   33.1460   47.2838 H   0  0  0  0  0  0  0  0  0  0  0  0
  1  2  1  0
  2  3  1  0
  2  4  1  0
  2  5  1  0
  5  6  1  0
  6  7  1  0
  7  8  2  0
  8  9  1  0
  9 10  2  0
 10 11  1  0
 11 12  1  0
 12 13  1  0
 13 14  1  0
 14 15  1  0
 15 16  2  0
 16 17  1  0
 17 18  2  0
 18 19  1  0
 19 20  2  0
 20 21  1  0
 21 22  1  0
 21 23  1  0
 21 24  1  0
 14 25  1  0
 25 26  1  0
 10 27  1  0
 27 28  2  0
 28  7  1  0
 26 11  1  0
 20 15  1  0
  5 29  1  0
  5 30  1  0
  8 31  1  0
  9 32  1  0
 12 33  1  0
 12 34  1  0
 13 35  1  0
 13 36  1  0
 14 37  1  0
 16 38  1  0
 17 39  1  0
 18 40  1  0
 19 41  1  0
 25 42  1  0
 25 43  1  0
 26 44  1  0
 26 45  1  0
 27 46  1  0
 28 47  1  0
M  END
>  <UniqueID>  (43) 
40

>  <SMILES>  (43) 
FC(F)(F)COc1ccc(N2CCC(c3ccccc3C(F)(F)F)CC2)cc1

>  <Energy>  (43) 
60.52213805117733

>  <Genealogy>  (43) 
FC(F)(F)COc1ccc(N2CCC(c3ccccc3C(F)(F)F)CC2)cc1 (3D coordinates assigned)
FC(F)(F)COc1ccc(N2CCC(c3ccccc3C(F)(F)F)CC2)cc1 (nonaromatic ring conformer: 60.52213805117733 kcal/mol)

>  <smiles>  (43) 
FC(F)(F)COc1ccc(N2CCC(c3ccccc3C(F)(F)F)CC2)cc1

>  <score_type>  (43) 
oracle

>  <origin>  (43) 
adg

>  <m_score__min__energy>  (43) 
-6.9900000000000002

>  <m_primary>  (43) 
energy

$$$$
43:0
     RDKit          3D

 41 44  0  0  0  0  0  0  0  0999 V2000
   58.6900   33.7700   44.5640 O   0  0  0  0  0  0  0  0  0  0  0  0
   58.8010   32.8500   45.4190 C   0  0  0  0  0  0  0  0  0  0  0  0
   58.2200   31.5190   45.0990 C   0  0  0  0  0  0  0  0  0  0  0  0
   56.9900   31.4570   44.4210 C   0  0  0  0  0  0  0  0  0  0  0  0
   56.3950   30.2240   44.1360 C   0  0  0  0  0  0  0  0  0  0  0  0
   57.0230   29.0390   44.5220 C   0  0  0  0  0  0  0  0  0  0  0  0
   58.2540   29.0820   45.1790 C   0  0  0  0  0  0  0  0  0  0  0  0
   58.8660   30.3110   45.4530 C   0  0  0  0  0  0  0  0  0  0  0  0
   60.4690   30.3130   46.2610 S   0  0  0  0  0  0  0  0  0  0  0  0
   59.7220   30.9260   47.7630 C   0  0  0  0  0  0  0  0  0  0  0  0
   59.5140   30.0680   48.8500 C   0  0  0  0  0  0  0  0  0  0  0  0
   58.8750   30.5400   49.9990 C   0  0  0  0  0  0  0  0  0  0  0  0
   58.4260   31.8630   50.0570 C   0  0  0  0  0  0  0  0  0  0  0  0
   58.6180   32.7170   48.9660 C   0  0  0  0  0  0  0  0  0  0  0  0
   59.2780   32.2570   47.8150 C   0  0  0  0  0  0  0  0  0  0  0  0
   59.4630   33.1250   46.6790 N   0  0  0  0  0  0  0  0  0  0  0  0
   60.4260   34.2320   46.7830 C   0  0  0  0  0  0  0  0  0  0  0  0
   61.6140   33.8470   47.6260 C   0  0  0  0  0  0  0  0  0  0  0  0
   61.6740   34.2130   48.9780 C   0  0  0  0  0  0  0  0  0  0  0  0
   62.7640   33.8350   49.7670 C   0  0  0  0  0  0  0  0  0  0  0  0
   63.8250   33.0990   49.2110 C   0  0  0  0  0  0  0  0  0  0  0  0
   64.9740   32.6460   50.0740 C   0  0  0  0  0  0  0  0  0  0  0  0
   64.8040   31.3110   50.3940 F   0  0  0  0  0  0  0  0  0  0  0  0
   65.0310   33.3860   51.2420 F   0  0  0  0  0  0  0  0  0  0  0  0
   66.1770   32.7990   49.4060 F   0  0  0  0  0  0  0  0  0  0  0  0
   63.7510   32.7120   47.8610 C   0  0  0  0  0  0  0  0  0  0  0  0
   62.6610   33.0910   47.0730 C   0  0  0  0  0  0  0  0  0  0  0  0
   56.4909   32.3872   44.1118 H   0  0  0  0  0  0  0  0  0  0  0  0
   55.4312   30.1881   43.6071 H   0  0  0  0  0  0  0  0  0  0  0  0
   56.5476   28.0703   44.3084 H   0  0  0  0  0  0  0  0  0  0  0  0
   58.7454   28.1459   45.4828 H   0  0  0  0  0  0  0  0  0  0  0  0
   59.8536   29.0230   48.7991 H   0  0  0  0  0  0  0  0  0  0  0  0
   58.7249   29.8705   50.8588 H   0  0  0  0  0  0  0  0  0  0  0  0
   57.9212   32.2326   50.9617 H   0  0  0  0  0  0  0  0  0  0  0  0
   58.2506   33.7529   49.0098 H   0  0  0  0  0  0  0  0  0  0  0  0
   60.7741   34.5000   45.7745 H   0  0  0  0  0  0  0  0  0  0  0  0
   59.9232   35.0857   47.2610 H   0  0  0  0  0  0  0  0  0  0  0  0
   60.8574   34.8019   49.4210 H   0  0  0  0  0  0  0  0  0  0  0  0
   62.7919   34.1153   50.8303 H   0  0  0  0  0  0  0  0  0  0  0  0
   64.5574   32.1063   47.4219 H   0  0  0  0  0  0  0  0  0  0  0  0
   62.6226   32.7958   46.0140 H   0  0  0  0  0  0  0  0  0  0  0  0
  1  2  2  0
  2  3  1  0
  3  4  2  0
  4  5  1  0
  5  6  2  0
  6  7  1  0
  7  8  2  0
  8  9  1  0
  9 10  1  0
 10 11  2  0
 11 12  1  0
 12 13  2  0
 13 14  1  0
 14 15  2  0
 15 16  1  0
 16 17  1  0
 17 18  1  0
 18 19  2  0
 19 20  1  0
 20 21  2  0
 21 22  1  0
 22 23  1  0
 22 24  1  0
 22 25  1  0
 21 26  1  0
 26 27  2  0
 16  2  1  0
 27 18  1  0
  8  3  1  0
 15 10  1  0
  4 28  1  0
  5 29  1  0
  6 30  1  0
  7 31  1  0
 11 32  1  0
 12 33  1  0
 13 34  1  0
 14 35  1  0
 17 36  1  0
 17 37  1  0
 19 38  1  0
 20 39  1  0
 26 40  1  0
 27 41  1  0
M  END
>  <UniqueID>  (44) 
41

>  <SMILES>  (44) 
O=C1c2ccccc2Sc2ccccc2N1Cc1ccc(C(F)(F)F)cc1

>  <Energy>  (44) 
59.69561153900143

>  <Genealogy>  (44) 
O=C1c2ccccc2Sc2ccccc2N1Cc1ccc(C(F)(F)F)cc1 (3D coordinates assigned)
O=C1c2ccccc2Sc2ccccc2N1Cc1ccc(C(F)(F)F)cc1 (nonaromatic ring conformer: 59.69561153900143 kcal/mol)

>  <smiles>  (44) 
O=C1c2ccccc2Sc2ccccc2N1Cc1ccc(C(F)(F)F)cc1

>  <score_type>  (44) 
oracle

>  <origin>  (44) 
adg

>  <m_score__min__energy>  (44) 
-7.9800000000000004

>  <m_primary>  (44) 
energy

$$$$
44:0
     RDKit          3D

 44 45  0  0  0  0  0  0  0  0999 V2000
   63.2670   33.8900   46.3640 C   0  0  0  0  0  0  0  0  0  0  0  0
   61.9540   33.3080   46.9040 C   0  0  0  0  0  0  0  0  0  0  0  0
   62.0860   31.9050   47.3810 N   0  0  0  0  0  0  0  0  0  0  0  0
   63.4290   31.5930   47.9540 C   0  0  0  0  0  0  0  0  0  0  0  0
   63.7860   32.3370   49.2540 C   0  0  0  0  0  0  0  0  0  0  0  0
   60.9660   31.4310   48.2390 C   0  0  0  0  0  0  0  0  0  0  0  0
   60.1230   30.2910   47.6410 C   0  0  0  0  0  0  0  0  0  0  0  0
   60.0600   30.4180   46.2210 O   0  0  0  0  0  0  0  0  0  0  0  0
   58.9040   30.2940   45.4300 C   0  0  0  0  0  0  0  0  0  0  0  0
   58.4750   29.0500   44.9190 C   0  0  0  0  0  0  0  0  0  0  0  0
   57.3400   28.9690   44.1110 C   0  0  0  0  0  0  0  0  0  0  0  0
   56.6160   30.1190   43.8010 C   0  0  0  0  0  0  0  0  0  0  0  0
   57.0200   31.3560   44.3060 C   0  0  0  0  0  0  0  0  0  0  0  0
   58.1560   31.4550   45.1290 C   0  0  0  0  0  0  0  0  0  0  0  0
   58.5560   32.7810   45.6590 C   0  0  0  0  0  0  0  0  0  0  0  0
   58.9980   33.7900   44.7840 C   0  0  0  0  0  0  0  0  0  0  0  0
   59.3710   35.0430   45.2820 C   0  0  0  0  0  0  0  0  0  0  0  0
   59.3000   35.3010   46.6530 C   0  0  0  0  0  0  0  0  0  0  0  0
   58.8550   34.3090   47.5290 C   0  0  0  0  0  0  0  0  0  0  0  0
   58.4810   33.0540   47.0370 C   0  0  0  0  0  0  0  0  0  0  0  0
   63.9144   34.1770   47.2057 H   0  0  0  0  0  0  0  0  0  0  0  0
   63.7779   33.1340   45.7496 H   0  0  0  0  0  0  0  0  0  0  0  0
   63.0500   34.7762   45.7496 H   0  0  0  0  0  0  0  0  0  0  0  0
   61.6144   33.9321   47.7438 H   0  0  0  0  0  0  0  0  0  0  0  0
   61.2328   33.3039   46.0734 H   0  0  0  0  0  0  0  0  0  0  0  0
   62.0230   31.3100   46.5190 H   0  0  0  0  0  0  0  0  0  0  0  0
   63.4664   30.5132   48.1607 H   0  0  0  0  0  0  0  0  0  0  0  0
   64.1614   31.9276   47.2046 H   0  0  0  0  0  0  0  0  0  0  0  0
   63.4922   31.7248   50.1194 H   0  0  0  0  0  0  0  0  0  0  0  0
   64.8702   32.5203   49.2857 H   0  0  0  0  0  0  0  0  0  0  0  0
   63.2507   33.2974   49.2857 H   0  0  0  0  0  0  0  0  0  0  0  0
   61.3912   31.0777   49.1900 H   0  0  0  0  0  0  0  0  0  0  0  0
   60.2852   32.2872   48.3548 H   0  0  0  0  0  0  0  0  0  0  0  0
   60.5820   29.3254   47.8995 H   0  0  0  0  0  0  0  0  0  0  0  0
   59.1040   30.3441   48.0519 H   0  0  0  0  0  0  0  0  0  0  0  0
   59.0398   28.1372   45.1596 H   0  0  0  0  0  0  0  0  0  0  0  0
   57.0157   27.9943   43.7175 H   0  0  0  0  0  0  0  0  0  0  0  0
   55.7259   30.0517   43.1581 H   0  0  0  0  0  0  0  0  0  0  0  0
   56.4452   32.2606   44.0582 H   0  0  0  0  0  0  0  0  0  0  0  0
   59.0506   33.5928   43.7031 H   0  0  0  0  0  0  0  0  0  0  0  0
   59.7206   35.8260   44.5931 H   0  0  0  0  0  0  0  0  0  0  0  0
   59.5949   36.2864   47.0428 H   0  0  0  0  0  0  0  0  0  0  0  0
   58.7984   34.5147   48.6081 H   0  0  0  0  0  0  0  0  0  0  0  0
   58.1267   32.2772   47.7306 H   0  0  0  0  0  0  0  0  0  0  0  0
  1  2  1  0
  2  3  1  0
  3  4  1  0
  4  5  1  0
  3  6  1  0
  6  7  1  0
  7  8  1  0
  8  9  1  0
  9 10  2  0
 10 11  1  0
 11 12  2  0
 12 13  1  0
 13 14  2  0
 14 15  1  0
 15 16  2  0
 16 17  1  0
 17 18  2  0
 18 19  1  0
 19 20  2  0
 14  9  1  0
 20 15  1  0
  1 21  1  0
  1 22  1  0
  1 23  1  0
  2 24  1  0
  2 25  1  0
  3 26  1  0
  4 27  1  0
  4 28  1  0
  5 29  1  0
  5 30  1  0
  5 31  1  0
  6 32  1  0
  6 33  1  0
  7 34  1  0
  7 35  1  0
 10 36  1  0
 11 37  1  0
 12 38  1  0
 13 39  1  0
 16 40  1  0
 17 41  1  0
 18 42  1  0
 19 43  1  0
 20 44  1  0
M  CHG  1   3   1
M  END
>  <UniqueID>  (45) 
42

>  <SMILES>  (45) 
CC[NH+](CC)CCOc1ccccc1-c1ccccc1

>  <Energy>  (45) 
57.81139832543301

>  <Genealogy>  (45) 
CC[NH+](CC)CCOc1ccccc1-c1ccccc1 (protonated)
CC[NH+](CC)CCOc1ccccc1-c1ccccc1 (3D coordinates assigned)
CC[NH+](CC)CCOc1ccccc1-c1ccccc1 (optimized conformer: 57.81139832543301 kcal/mol)

>  <smiles>  (45) 
CCN(CC)CCOc1ccccc1-c1ccccc1

>  <score_type>  (45) 
oracle

>  <origin>  (45) 
adg

>  <m_score__min__energy>  (45) 
-4.5700000000000003

>  <m_primary>  (45) 
energy

$$$$
45:0
     RDKit          3D

 53 55  0  0  0  0  0  0  0  0999 V2000
   58.6160   32.7190   45.3970 C   0  0  0  0  0  0  0  0  0  0  0  0
   57.3970   32.7860   44.4740 C   0  0  0  0  0  0  0  0  0  0  0  0
   57.2780   31.5560   43.5640 C   0  0  0  0  0  0  0  0  0  0  0  0
   57.2600   30.2790   44.3560 C   0  0  0  0  0  0  0  0  0  0  0  0
   56.3290   30.0770   45.1830 O   0  0  0  0  0  0  0  0  0  0  0  0
   58.2550   29.2720   44.1200 N   0  0  0  0  0  0  0  0  0  0  0  0
   58.2930   28.0380   44.8500 C   0  0  0  0  0  0  0  0  0  0  0  0
   57.7850   26.8800   44.2430 C   0  0  0  0  0  0  0  0  0  0  0  0
   57.7580   25.6700   44.9380 C   0  0  0  0  0  0  0  0  0  0  0  0
   58.2500   25.6020   46.2410 C   0  0  0  0  0  0  0  0  0  0  0  0
   58.7830   26.7420   46.8480 C   0  0  0  0  0  0  0  0  0  0  0  0
   58.8230   27.9670   46.1600 C   0  0  0  0  0  0  0  0  0  0  0  0
   59.4600   29.1050   46.7720 N   0  0  0  0  0  0  0  0  0  0  0  0
   58.9030   29.6530   48.0190 C   0  0  0  0  0  0  0  0  0  0  0  0
   59.3630   31.0950   48.2620 C   0  0  0  0  0  0  0  0  0  0  0  0
   60.8170   31.2210   48.0670 N   0  0  0  0  0  0  0  0  0  0  0  0
   61.5780   32.1740   48.8450 C   0  0  0  0  0  0  0  0  0  0  0  0
   61.3840   33.5570   48.6690 C   0  0  0  0  0  0  0  0  0  0  0  0
   62.1080   34.4810   49.4320 C   0  0  0  0  0  0  0  0  0  0  0  0
   63.0410   34.0380   50.3890 C   0  0  0  0  0  0  0  0  0  0  0  0
   63.7900   34.9250   51.1790 O   0  0  0  0  0  0  0  0  0  0  0  0
   64.7150   34.5200   52.1840 C   0  0  0  0  0  0  0  0  0  0  0  0
   63.2360   32.6640   50.5660 C   0  0  0  0  0  0  0  0  0  0  0  0
   62.5110   31.7390   49.8060 C   0  0  0  0  0  0  0  0  0  0  0  0
   61.4740   30.4990   46.9660 C   0  0  0  0  0  0  0  0  0  0  0  0
   60.4550   29.8700   46.0130 C   0  0  0  0  0  0  0  0  0  0  0  0
   58.2835   32.7373   46.4454 H   0  0  0  0  0  0  0  0  0  0  0  0
   59.1710   31.7890   45.2045 H   0  0  0  0  0  0  0  0  0  0  0  0
   59.2696   33.5826   45.2045 H   0  0  0  0  0  0  0  0  0  0  0  0
   56.4901   32.8558   45.0925 H   0  0  0  0  0  0  0  0  0  0  0  0
   57.5161   33.6683   43.8280 H   0  0  0  0  0  0  0  0  0  0  0  0
   56.3456   31.6297   42.9850 H   0  0  0  0  0  0  0  0  0  0  0  0
   58.1540   31.5351   42.8990 H   0  0  0  0  0  0  0  0  0  0  0  0
   58.8580   29.3590   43.2720 H   0  0  0  0  0  0  0  0  0  0  0  0
   57.4051   26.9259   43.2117 H   0  0  0  0  0  0  0  0  0  0  0  0
   57.3483   24.7693   44.4575 H   0  0  0  0  0  0  0  0  0  0  0  0
   58.2185   24.6501   46.7914 H   0  0  0  0  0  0  0  0  0  0  0  0
   59.1750   26.6802   47.8739 H   0  0  0  0  0  0  0  0  0  0  0  0
   57.8049   29.6352   47.9566 H   0  0  0  0  0  0  0  0  0  0  0  0
   59.2614   29.0341   48.8548 H   0  0  0  0  0  0  0  0  0  0  0  0
   58.8456   31.7621   47.5568 H   0  0  0  0  0  0  0  0  0  0  0  0
   59.1215   31.3716   49.2989 H   0  0  0  0  0  0  0  0  0  0  0  0
   60.6570   33.9151   47.9252 H   0  0  0  0  0  0  0  0  0  0  0  0
   61.9471   35.5589   49.2830 H   0  0  0  0  0  0  0  0  0  0  0  0
   64.2829   34.7092   53.1777 H   0  0  0  0  0  0  0  0  0  0  0  0
   64.9279   33.4463   52.0751 H   0  0  0  0  0  0  0  0  0  0  0  0
   65.6484   35.0918   52.0751 H   0  0  0  0  0  0  0  0  0  0  0  0
   63.9651   32.3077   51.3086 H   0  0  0  0  0  0  0  0  0  0  0  0
   62.6715   30.6618   49.9608 H   0  0  0  0  0  0  0  0  0  0  0  0
   62.1016   31.2044   46.4016 H   0  0  0  0  0  0  0  0  0  0  0  0
   62.0812   29.6911   47.4003 H   0  0  0  0  0  0  0  0  0  0  0  0
   59.9479   30.6649   45.4464 H   0  0  0  0  0  0  0  0  0  0  0  0
   60.9786   29.1932   45.3218 H   0  0  0  0  0  0  0  0  0  0  0  0
  1  2  1  0
  2  3  1  0
  3  4  1  0
  4  5  2  0
  4  6  1  0
  6  7  1  0
  7  8  2  0
  8  9  1  0
  9 10  2  0
 10 11  1  0
 11 12  2  0
 12 13  1  0
 13 14  1  0
 14 15  1  0
 15 16  1  0
 16 17  1  0
 17 18  2  0
 18 19  1  0
 19 20  2  0
 20 21  1  0
 21 22  1  0
 20 23  1  0
 23 24  2  0
 16 25  1  0
 25 26  1  0
 12  7  1  0
 26 13  1  0
 24 17  1  0
  1 27  1  0
  1 28  1  0
  1 29  1  0
  2 30  1  0
  2 31  1  0
  3 32  1  0
  3 33  1  0
  6 34  1  0
  8 35  1  0
  9 36  1  0
 10 37  1  0
 11 38  1  0
 14 39  1  0
 14 40  1  0
 15 41  1  0
 15 42  1  0
 18 43  1  0
 19 44  1  0
 22 45  1  0
 22 46  1  0
 22 47  1  0
 23 48  1  0
 24 49  1  0
 25 50  1  0
 25 51  1  0
 26 52  1  0
 26 53  1  0
M  END
>  <UniqueID>  (46) 
43

>  <SMILES>  (46) 
CCCC(=O)Nc1ccccc1N1CCN(c2ccc(OC)cc2)CC1

>  <Energy>  (46) 
59.336934603780286

>  <Genealogy>  (46) 
CCCC(=O)Nc1ccccc1N1CCN(c2ccc(OC)cc2)CC1 (3D coordinates assigned)
CCCC(=O)Nc1ccccc1N1CCN(c2ccc(OC)cc2)CC1 (nonaromatic ring conformer: 59.336934603780286 kcal/mol)

>  <smiles>  (46) 
CCCC(=O)Nc1ccccc1N1CCN(c2ccc(OC)cc2)CC1

>  <score_type>  (46) 
oracle

>  <origin>  (46) 
adg

>  <m_score__min__energy>  (46) 
-7.3200000000000003

>  <m_primary>  (46) 
energy

$$$$
46:0
     RDKit          3D

 46 48  0  0  0  0  0  0  0  0999 V2000
   63.3750   33.8690   46.7480 C   0  0  0  0  0  0  0  0  0  0  0  0
   62.7040   32.5420   47.0910 C   0  0  0  0  0  0  0  0  0  0  0  0
   62.3940   32.4440   48.5870 C   0  0  0  0  0  0  0  0  0  0  0  0
   61.4680   31.4010   48.8290 O   0  0  0  0  0  0  0  0  0  0  0  0
   60.1770   31.9100   49.1160 C   0  0  0  0  0  0  0  0  0  0  0  0
   59.2890   31.8840   47.8910 C   0  0  0  0  0  0  0  0  0  0  0  0
   58.2640   32.7740   47.8250 N   0  0  0  0  0  0  0  0  0  0  0  0
   57.4360   32.8300   46.7590 C   0  0  0  0  0  0  0  0  0  0  0  0
   57.6300   32.0020   45.7110 N   0  0  0  0  0  0  0  0  0  0  0  0
   58.6360   31.0910   45.6940 C   0  0  0  0  0  0  0  0  0  0  0  0
   59.4930   30.9540   46.8310 C   0  0  0  0  0  0  0  0  0  0  0  0
   60.6040   30.0000   46.9240 N   0  0  0  0  0  0  0  0  0  0  0  0
   60.5460   28.7230   46.1800 C   0  0  0  0  0  0  0  0  0  0  0  0
   59.1630   28.1220   46.1120 C   0  0  0  0  0  0  0  0  0  0  0  0
   58.7730   27.0850   46.9690 C   0  0  0  0  0  0  0  0  0  0  0  0
   57.4660   26.5620   46.9080 C   0  0  0  0  0  0  0  0  0  0  0  0
   57.0410   25.5170   47.7440 O   0  0  0  0  0  0  0  0  0  0  0  0
   57.2970   24.1370   47.5040 C   0  0  0  0  0  0  0  0  0  0  0  0
   56.5450   27.0970   45.9900 C   0  0  0  0  0  0  0  0  0  0  0  0
   55.2490   26.5590   45.9560 O   0  0  0  0  0  0  0  0  0  0  0  0
   54.9420   25.2190   45.5830 C   0  0  0  0  0  0  0  0  0  0  0  0
   56.9390   28.1510   45.1430 C   0  0  0  0  0  0  0  0  0  0  0  0
   58.2430   28.6490   45.2030 C   0  0  0  0  0  0  0  0  0  0  0  0
   58.7350   30.0630   44.2300 S   0  0  0  0  0  0  0  0  0  0  0  0
   63.6414   34.3959   47.6761 H   0  0  0  0  0  0  0  0  0  0  0  0
   64.2851   33.6786   46.1603 H   0  0  0  0  0  0  0  0  0  0  0  0
   62.6821   34.4891   46.1603 H   0  0  0  0  0  0  0  0  0  0  0  0
   61.7648   32.4588   46.5245 H   0  0  0  0  0  0  0  0  0  0  0  0
   63.3929   31.7265   46.8257 H   0  0  0  0  0  0  0  0  0  0  0  0
   63.3239   32.2389   49.1377 H   0  0  0  0  0  0  0  0  0  0  0  0
   61.9581   33.3955   48.9254 H   0  0  0  0  0  0  0  0  0  0  0  0
   59.7173   31.2961   49.9045 H   0  0  0  0  0  0  0  0  0  0  0  0
   60.2817   32.9541   49.4459 H   0  0  0  0  0  0  0  0  0  0  0  0
   56.6044   33.5499   46.7452 H   0  0  0  0  0  0  0  0  0  0  0  0
   60.7220   29.7200   47.9240 H   0  0  0  0  0  0  0  0  0  0  0  0
   61.4760   30.5030   46.6420 H   0  0  0  0  0  0  0  0  0  0  0  0
   60.8971   28.9032   45.1532 H   0  0  0  0  0  0  0  0  0  0  0  0
   61.1813   28.0066   46.7215 H   0  0  0  0  0  0  0  0  0  0  0  0
   59.4918   26.6762   47.6944 H   0  0  0  0  0  0  0  0  0  0  0  0
   57.3948   23.6098   48.4645 H   0  0  0  0  0  0  0  0  0  0  0  0
   56.4639   23.7038   46.9311 H   0  0  0  0  0  0  0  0  0  0  0  0
   58.2301   24.0314   46.9311 H   0  0  0  0  0  0  0  0  0  0  0  0
   54.8023   24.6094   46.4879 H   0  0  0  0  0  0  0  0  0  0  0  0
   54.0178   25.2070   44.9865 H   0  0  0  0  0  0  0  0  0  0  0  0
   55.7688   24.8058   44.9865 H   0  0  0  0  0  0  0  0  0  0  0  0
   56.2186   28.5830   44.4328 H   0  0  0  0  0  0  0  0  0  0  0  0
  1  2  1  0
  2  3  1  0
  3  4  1  0
  4  5  1  0
  5  6  1  0
  6  7  2  0
  7  8  1  0
  8  9  2  0
  9 10  1  0
 10 11  2  0
 11 12  1  0
 12 13  1  0
 13 14  1  0
 14 15  2  0
 15 16  1  0
 16 17  1  0
 17 18  1  0
 16 19  2  0
 19 20  1  0
 20 21  1  0
 19 22  1  0
 22 23  2  0
 23 24  1  0
 11  6  1  0
 23 14  1  0
 24 10  1  0
  1 25  1  0
  1 26  1  0
  1 27  1  0
  2 28  1  0
  2 29  1  0
  3 30  1  0
  3 31  1  0
  5 32  1  0
  5 33  1  0
  8 34  1  0
 12 35  1  0
 12 36  1  0
 13 37  1  0
 13 38  1  0
 15 39  1  0
 18 40  1  0
 18 41  1  0
 18 42  1  0
 21 43  1  0
 21 44  1  0
 21 45  1  0
 22 46  1  0
M  CHG  1  12   1
M  END
>  <UniqueID>  (47) 
44

>  <SMILES>  (47) 
CCCOCc1ncnc2c1[NH2+]Cc1cc(OC)c(OC)cc1S2

>  <Energy>  (47) 
65.23544201169645

>  <Genealogy>  (47) 
CCCOCc1ncnc2c1[NH2+]Cc1cc(OC)c(OC)cc1S2 (protonated)
CCCOCc1ncnc2c1[NH2+]Cc1cc(OC)c(OC)cc1S2 (3D coordinates assigned)
CCCOCc1ncnc2c1[NH2+]Cc1cc(OC)c(OC)cc1S2 (nonaromatic ring conformer: 65.23544201169645 kcal/mol)

>  <smiles>  (47) 
CCCOCc1ncnc2c1NCc1cc(OC)c(OC)cc1S2

>  <score_type>  (47) 
oracle

>  <origin>  (47) 
adg

>  <m_score__min__energy>  (47) 
-4.9299999999999997

>  <m_primary>  (47) 
energy

$$$$
47:0
     RDKit          3D

 65 69  0  0  0  0  0  0  0  0999 V2000
   63.3780   33.8310   46.3550 C   0  0  0  0  0  0  0  0  0  0  0  0
   63.5750   33.7830   47.8690 C   0  0  0  0  0  0  0  0  0  0  0  0
   62.2570   33.9460   48.6370 C   0  0  0  0  0  0  0  0  0  0  0  0
   61.3230   32.8510   48.3550 N   0  0  0  0  0  0  0  0  0  0  0  0
   61.5810   31.5430   48.5540 C   0  0  0  0  0  0  0  0  0  0  0  0
   60.4610   30.8170   48.1940 C   0  0  0  0  0  0  0  0  0  0  0  0
   60.3310   29.3470   48.2570 C   0  0  0  0  0  0  0  0  0  0  0  0
   60.7780   28.6100   49.3650 C   0  0  0  0  0  0  0  0  0  0  0  0
   60.6260   27.2250   49.3700 C   0  0  0  0  0  0  0  0  0  0  0  0
   60.0340   26.5790   48.2860 C   0  0  0  0  0  0  0  0  0  0  0  0
   59.5890   27.3360   47.1850 C   0  0  0  0  0  0  0  0  0  0  0  0
   58.9630   26.7140   46.0360 N   0  0  0  0  0  0  0  0  0  0  0  0
   58.9910   25.2460   45.9060 C   0  0  0  0  0  0  0  0  0  0  0  0
   57.7770   24.6920   45.1220 C   0  0  0  0  0  0  0  0  0  0  0  0
   57.1160   25.6820   44.2560 N   0  0  0  0  0  0  0  0  0  0  0  0
   58.0600   26.6660   43.7330 C   0  0  0  0  0  0  0  0  0  0  0  0
   58.5470   27.5360   44.8870 C   0  0  0  0  0  0  0  0  0  0  0  0
   59.7560   28.6890   47.2130 N   0  0  0  0  0  0  0  0  0  0  0  0
   59.5100   31.6740   47.7740 N   0  0  0  0  0  0  0  0  0  0  0  0
   60.0560   32.9060   47.8740 C   0  0  0  0  0  0  0  0  0  0  0  0
   59.3320   34.1740   47.4560 C   0  0  0  0  0  0  0  0  0  0  0  0
   59.8960   34.7160   46.1220 C   0  0  0  0  0  0  0  0  0  0  0  0
   59.4520   33.8770   44.9110 C   0  0  0  0  0  0  0  0  0  0  0  0
   58.0450   33.4580   45.0200 N   0  0  0  0  0  0  0  0  0  0  0  0
   57.5500   32.3450   44.2420 C   0  0  0  0  0  0  0  0  0  0  0  0
   57.6560   32.3230   42.8380 C   0  0  0  0  0  0  0  0  0  0  0  0
   57.2020   31.2440   42.1470 N   0  0  0  0  0  0  0  0  0  0  0  0
   56.6430   30.1820   42.7830 C   0  0  0  0  0  0  0  0  0  0  0  0
   56.5330   30.1960   44.1730 C   0  0  0  0  0  0  0  0  0  0  0  0
   56.9870   31.2720   44.8660 N   0  0  0  0  0  0  0  0  0  0  0  0
   57.1890   34.1190   46.0140 C   0  0  0  0  0  0  0  0  0  0  0  0
   57.7890   33.9620   47.4170 C   0  0  0  0  0  0  0  0  0  0  0  0
   62.3320   34.0859   46.1292 H   0  0  0  0  0  0  0  0  0  0  0  0
   64.0427   34.5935   45.9227 H   0  0  0  0  0  0  0  0  0  0  0  0
   63.6174   32.8482   45.9227 H   0  0  0  0  0  0  0  0  0  0  0  0
   64.0218   32.8140   48.1363 H   0  0  0  0  0  0  0  0  0  0  0  0
   64.2309   34.6208   48.1480 H   0  0  0  0  0  0  0  0  0  0  0  0
   62.4729   33.9609   49.7155 H   0  0  0  0  0  0  0  0  0  0  0  0
   61.7877   34.8871   48.3146 H   0  0  0  0  0  0  0  0  0  0  0  0
   62.5230   31.1243   48.9378 H   0  0  0  0  0  0  0  0  0  0  0  0
   61.2436   29.1208   50.2207 H   0  0  0  0  0  0  0  0  0  0  0  0
   60.9747   26.6389   50.2331 H   0  0  0  0  0  0  0  0  0  0  0  0
   59.9152   25.4854   48.2905 H   0  0  0  0  0  0  0  0  0  0  0  0
   59.9120   24.9570   45.3785 H   0  0  0  0  0  0  0  0  0  0  0  0
   58.9527   24.8221   46.9203 H   0  0  0  0  0  0  0  0  0  0  0  0
   58.1237   23.8594   44.4922 H   0  0  0  0  0  0  0  0  0  0  0  0
   57.0334   24.3793   45.8698 H   0  0  0  0  0  0  0  0  0  0  0  0
   56.6870   25.1760   43.4460 H   0  0  0  0  0  0  0  0  0  0  0  0
   58.9150   26.1502   43.2716 H   0  0  0  0  0  0  0  0  0  0  0  0
   57.5681   27.2912   42.9733 H   0  0  0  0  0  0  0  0  0  0  0  0
   59.4035   28.1365   44.5468 H   0  0  0  0  0  0  0  0  0  0  0  0
   57.7191   28.1863   45.2060 H   0  0  0  0  0  0  0  0  0  0  0  0
   58.5470   31.4430   47.4490 H   0  0  0  0  0  0  0  0  0  0  0  0
   59.5173   34.9457   48.2177 H   0  0  0  0  0  0  0  0  0  0  0  0
   59.5440   35.7489   45.9838 H   0  0  0  0  0  0  0  0  0  0  0  0
   60.9935   34.6672   46.1784 H   0  0  0  0  0  0  0  0  0  0  0  0
   59.5744   34.4780   43.9978 H   0  0  0  0  0  0  0  0  0  0  0  0
   60.0757   32.9716   44.8763 H   0  0  0  0  0  0  0  0  0  0  0  0
   58.1035   33.1739   42.3036 H   0  0  0  0  0  0  0  0  0  0  0  0
   56.2802   29.3183   42.2065 H   0  0  0  0  0  0  0  0  0  0  0  0
   56.0828   29.3437   44.7030 H   0  0  0  0  0  0  0  0  0  0  0  0
   57.1087   35.1887   45.7706 H   0  0  0  0  0  0  0  0  0  0  0  0
   56.1922   33.6541   45.9955 H   0  0  0  0  0  0  0  0  0  0  0  0
   57.3184   34.7008   48.0824 H   0  0  0  0  0  0  0  0  0  0  0  0
   57.5944   32.9287   47.7402 H   0  0  0  0  0  0  0  0  0  0  0  0
  1  2  1  0
  2  3  1  0
  3  4  1  0
  4  5  1  0
  5  6  2  0
  6  7  1  0
  7  8  2  0
  8  9  1  0
  9 10  2  0
 10 11  1  0
 11 12  1  0
 12 13  1  0
 13 14  1  0
 14 15  1  0
 15 16  1  0
 16 17  1  0
 11 18  2  0
  6 19  1  0
 19 20  2  0
 20 21  1  0
 21 22  1  0
 22 23  1  0
 23 24  1  0
 24 25  1  0
 25 26  2  0
 26 27  1  0
 27 28  2  0
 28 29  1  0
 29 30  2  0
 24 31  1  0
 31 32  1  0
 20  4  1  0
 32 21  1  0
 18  7  1  0
 30 25  1  0
 17 12  1  0
  1 33  1  0
  1 34  1  0
  1 35  1  0
  2 36  1  0
  2 37  1  0
  3 38  1  0
  3 39  1  0
  5 40  1  0
  8 41  1  0
  9 42  1  0
 10 43  1  0
 13 44  1  0
 13 45  1  0
 14 46  1  0
 14 47  1  0
 15 48  1  0
 16 49  1  0
 16 50  1  0
 17 51  1  0
 17 52  1  0
 19 53  1  0
 21 54  1  0
 22 55  1  0
 22 56  1  0
 23 57  1  0
 23 58  1  0
 26 59  1  0
 28 60  1  0
 29 61  1  0
 31 62  1  0
 31 63  1  0
 32 64  1  0
 32 65  1  0
M  CHG  1  19   1
M  END
>  <UniqueID>  (48) 
45

>  <SMILES>  (48) 
CCCn1cc(-c2cccc(N3CCNCC3)n2)[nH+]c1C1CCN(c2cnccn2)CC1

>  <Energy>  (48) 
107.29352450816886

>  <Genealogy>  (48) 
CCCn1cc(-c2cccc(N3CCNCC3)n2)[nH+]c1C1CCN(c2cnccn2)CC1 (protonated)
CCCn1cc(-c2cccc(N3CCNCC3)n2)[nH+]c1C1CCN(c2cnccn2)CC1 (3D coordinates assigned)
CCCn1cc(-c2cccc(N3CCNCC3)n2)[nH+]c1C1CCN(c2cnccn2)CC1 (nonaromatic ring conformer: 107.29352450816886 kcal/mol)

>  <smiles>  (48) 
CCCn1cc(-c2cccc(N3CCNCC3)n2)nc1C1CCN(c2cnccn2)CC1

>  <score_type>  (48) 
oracle

>  <origin>  (48) 
adg

>  <m_score__min__energy>  (48) 
-7.7199999999999998

>  <m_primary>  (48) 
energy

$$$$
