0:0
     RDKit          3D

 32 33  0  0  0  0  0  0  0  0999 V2000
   57.7480   28.4139   46.3708 H   0  0  0  0  0  0  0  0  0  0  0  0
   57.5290   28.3930   45.2930 C   0  0  0  0  0  0  0  0  0  0  0  0
   56.2780   28.6470   44.8860 C   0  0  0  0  0  0  0  0  0  0  0  0
   55.4654   28.0364   45.3064 H   0  0  0  0  0  0  0  0  0  0  0  0
   55.9140   29.7160   43.8890 C   0  0  0  0  0  0  0  0  0  0  0  0
   56.0250   29.3109   42.8724 H   0  0  0  0  0  0  0  0  0  0  0  0
   54.8741   30.0237   44.0733 H   0  0  0  0  0  0  0  0  0  0  0  0
   56.7980   30.9200   44.0350 C   0  0  0  0  0  0  0  0  0  0  0  0
   57.0160   31.4480   45.2710 N   0  0  0  0  0  0  0  0  0  0  0  0
   57.7750   32.5610   45.4550 C   0  0  0  0  0  0  0  0  0  0  0  0
   57.9650   33.0760   46.7420 C   0  0  0  0  0  0  0  0  0  0  0  0
   57.5036   32.5783   47.6077 H   0  0  0  0  0  0  0  0  0  0  0  0
   58.7420   34.2240   46.9270 C   0  0  0  0  0  0  0  0  0  0  0  0
   58.8905   34.6282   47.9392 H   0  0  0  0  0  0  0  0  0  0  0  0
   59.3310   34.8600   45.8290 C   0  0  0  0  0  0  0  0  0  0  0  0
   59.9421   35.7620   45.9805 H   0  0  0  0  0  0  0  0  0  0  0  0
   59.1450   34.3520   44.5390 C   0  0  0  0  0  0  0  0  0  0  0  0
   59.6087   34.8550   43.6776 H   0  0  0  0  0  0  0  0  0  0  0  0
   58.3670   33.2010   44.3440 C   0  0  0  0  0  0  0  0  0  0  0  0
   58.1570   32.6710   43.0660 C   0  0  0  0  0  0  0  0  0  0  0  0
   58.6111   33.1533   42.1878 H   0  0  0  0  0  0  0  0  0  0  0  0
   57.3700   31.5290   42.9080 C   0  0  0  0  0  0  0  0  0  0  0  0
   57.1993   31.1090   41.9057 H   0  0  0  0  0  0  0  0  0  0  0  0
   58.5940   28.0950   44.3800 N   0  0  0  0  0  0  0  0  0  0  0  0
   59.9340   28.5880   44.6830 C   0  0  0  0  0  0  0  0  0  0  0  0
   60.0686   28.6375   45.7736 H   0  0  0  0  0  0  0  0  0  0  0  0
   60.6818   27.9061   44.2519 H   0  0  0  0  0  0  0  0  0  0  0  0
   60.0615   29.5919   44.2519 H   0  0  0  0  0  0  0  0  0  0  0  0
   58.4020   27.1280   43.2990 C   0  0  0  0  0  0  0  0  0  0  0  0
   58.2046   26.1341   43.7269 H   0  0  0  0  0  0  0  0  0  0  0  0
   57.5476   27.4364   42.6787 H   0  0  0  0  0  0  0  0  0  0  0  0
   59.3094   27.0865   42.6787 H   0  0  0  0  0  0  0  0  0  0  0  0
  1  2  1  0
  2  3  2  0
  3  4  1  0
  3  5  1  0
  5  6  1  0
  5  7  1  0
  5  8  1  0
  8  9  2  0
  9 10  1  0
 10 11  2  0
 11 12  1  0
 11 13  1  0
 13 14  1  0
 13 15  2  0
 15 16  1  0
 15 17  1  0
 17 18  1  0
 17 19  2  0
 19 20  1  0
 20 21  1  0
 20 22  2  0
 22 23  1  0
  2 24  1  0
 24 25  1  0
 25 26  1  0
 25 27  1  0
 25 28  1  0
 24 29  1  0
 29 30  1  0
 29 31  1  0
 29 32  1  0
 22  8  1  0
 19 10  1  0
M  END
>  <UniqueID>  (1) 
1

>  <SMILES>  (1) 
CN(C)/C=C\Cc1ccc2ccccc2n1

>  <Energy>  (1) 
34.249591633770926

>  <Genealogy>  (1) 
CN(C)/C=C\Cc1ccc2ccccc2n1 (cis-trans isomerization)
CN(C)/C=C\Cc1ccc2ccccc2n1 (3D coordinates assigned)
CN(C)/C=C\Cc1ccc2ccccc2n1 (optimized conformer: 34.249591633770926 kcal/mol)

>  <smiles>  (1) 
CN(C)C=CCc1ccc2ccccc2n1

>  <score_type>  (1) 
oracle

>  <origin>  (1) 
adg

>  <m_score__min__energy>  (1) 
-6.3700000000000001

>  <m_primary>  (1) 
energy

$$$$
1:0
     RDKit          3D

 54 57  0  0  0  0  0  0  0  0999 V2000
   56.7920   21.0930   43.3060 C   0  0  0  0  0  0  0  0  0  0  0  0
   55.8940   22.0370   43.8800 O   0  0  0  0  0  0  0  0  0  0  0  0
   56.2500   23.3410   44.2540 C   0  0  0  0  0  0  0  0  0  0  0  0
   55.8610   23.9080   45.4810 C   0  0  0  0  0  0  0  0  0  0  0  0
   56.2410   25.2130   45.8080 C   0  0  0  0  0  0  0  0  0  0  0  0
   57.0250   25.9740   44.9230 C   0  0  0  0  0  0  0  0  0  0  0  0
   57.4140   27.3610   45.2870 C   0  0  0  0  0  0  0  0  0  0  0  0
   58.0180   27.6580   46.5180 C   0  0  0  0  0  0  0  0  0  0  0  0
   58.3950   28.9730   46.8280 C   0  0  0  0  0  0  0  0  0  0  0  0
   59.1080   29.2140   48.1040 C   0  0  0  0  0  0  0  0  0  0  0  0
   58.5190   29.0040   49.1990 O   0  0  0  0  0  0  0  0  0  0  0  0
   60.4470   29.7360   48.0980 N   0  0  0  0  0  0  0  0  0  0  0  0
   61.1470   30.1330   49.3190 C   0  0  0  0  0  0  0  0  0  0  0  0
   62.1310   31.2700   49.0410 C   0  0  0  0  0  0  0  0  0  0  0  0
   62.1900   31.5520   47.5840 N   0  0  0  0  0  0  0  0  0  0  0  0
   61.1670   32.5230   47.1520 C   0  0  0  0  0  0  0  0  0  0  0  0
   61.5030   33.9560   47.6260 C   0  0  0  0  0  0  0  0  0  0  0  0
   62.8080   34.0610   48.1670 O   0  0  0  0  0  0  0  0  0  0  0  0
   63.7440   33.4990   47.2710 C   0  0  0  0  0  0  0  0  0  0  0  0
   63.5360   31.9760   47.1360 C   0  0  0  0  0  0  0  0  0  0  0  0
   58.1140   30.0060   45.8980 C   0  0  0  0  0  0  0  0  0  0  0  0
   58.3900   31.3660   46.1580 C   0  0  0  0  0  0  0  0  0  0  0  0
   58.0900   32.3430   45.2040 C   0  0  0  0  0  0  0  0  0  0  0  0
   57.5040   31.9860   43.9880 C   0  0  0  0  0  0  0  0  0  0  0  0
   57.2010   30.6500   43.7250 C   0  0  0  0  0  0  0  0  0  0  0  0
   57.4940   29.6610   44.6710 C   0  0  0  0  0  0  0  0  0  0  0  0
   57.1690   28.3700   44.4090 N   0  0  0  0  0  0  0  0  0  0  0  0
   57.4030   25.4050   43.6920 C   0  0  0  0  0  0  0  0  0  0  0  0
   57.0200   24.1010   43.3670 C   0  0  0  0  0  0  0  0  0  0  0  0
   57.3114   20.5469   44.1072 H   0  0  0  0  0  0  0  0  0  0  0  0
   56.2284   20.3823   42.6836 H   0  0  0  0  0  0  0  0  0  0  0  0
   57.5299   21.6204   42.6836 H   0  0  0  0  0  0  0  0  0  0  0  0
   55.2546   23.3215   46.1870 H   0  0  0  0  0  0  0  0  0  0  0  0
   55.9236   25.6487   46.7669 H   0  0  0  0  0  0  0  0  0  0  0  0
   58.1974   26.8531   47.2460 H   0  0  0  0  0  0  0  0  0  0  0  0
   60.9560   29.8200   47.1890 H   0  0  0  0  0  0  0  0  0  0  0  0
   60.4099   30.4690   50.0632 H   0  0  0  0  0  0  0  0  0  0  0  0
   61.7097   29.2671   49.6979 H   0  0  0  0  0  0  0  0  0  0  0  0
   61.8011   32.1744   49.5731 H   0  0  0  0  0  0  0  0  0  0  0  0
   63.1310   30.9729   49.3900 H   0  0  0  0  0  0  0  0  0  0  0  0
   61.1092   32.5151   46.0535 H   0  0  0  0  0  0  0  0  0  0  0  0
   60.2056   32.2303   47.5992 H   0  0  0  0  0  0  0  0  0  0  0  0
   61.4220   34.6387   46.7673 H   0  0  0  0  0  0  0  0  0  0  0  0
   60.7910   34.2180   48.4226 H   0  0  0  0  0  0  0  0  0  0  0  0
   63.6223   33.9675   46.2832 H   0  0  0  0  0  0  0  0  0  0  0  0
   64.7559   33.6808   47.6622 H   0  0  0  0  0  0  0  0  0  0  0  0
   63.6630   31.6936   46.0805 H   0  0  0  0  0  0  0  0  0  0  0  0
   64.2774   31.4765   47.7769 H   0  0  0  0  0  0  0  0  0  0  0  0
   58.8436   31.6585   47.1165 H   0  0  0  0  0  0  0  0  0  0  0  0
   58.3169   33.3989   45.4126 H   0  0  0  0  0  0  0  0  0  0  0  0
   57.2812   32.7585   43.2372 H   0  0  0  0  0  0  0  0  0  0  0  0
   56.7300   30.3727   42.7704 H   0  0  0  0  0  0  0  0  0  0  0  0
   58.0040   25.9910   42.9811 H   0  0  0  0  0  0  0  0  0  0  0  0
   57.3271   23.6676   42.4038 H   0  0  0  0  0  0  0  0  0  0  0  0
  1  2  1  0
  2  3  1  0
  3  4  2  0
  4  5  1  0
  5  6  2  0
  6  7  1  0
  7  8  2  0
  8  9  1  0
  9 10  1  0
 10 11  2  0
 10 12  1  0
 12 13  1  0
 13 14  1  0
 14 15  1  0
 15 16  1  0
 16 17  1  0
 17 18  1  0
 18 19  1  0
 19 20  1  0
  9 21  2  0
 21 22  1  0
 22 23  2  0
 23 24  1  0
 24 25  2  0
 25 26  1  0
 26 27  2  0
  6 28  1  0
 28 29  2  0
 29  3  1  0
 27  7  1  0
 20 15  1  0
 26 21  1  0
  1 30  1  0
  1 31  1  0
  1 32  1  0
  4 33  1  0
  5 34  1  0
  8 35  1  0
 12 36  1  0
 13 37  1  0
 13 38  1  0
 14 39  1  0
 14 40  1  0
 16 41  1  0
 16 42  1  0
 17 43  1  0
 17 44  1  0
 19 45  1  0
 19 46  1  0
 20 47  1  0
 20 48  1  0
 22 49  1  0
 23 50  1  0
 24 51  1  0
 25 52  1  0
 28 53  1  0
 29 54  1  0
M  END
>  <UniqueID>  (2) 
2

>  <SMILES>  (2) 
COc1ccc(-c2cc(C(=O)NCCN3CCOCC3)c3ccccc3n2)cc1

>  <Energy>  (2) 
79.39026825934843

>  <Genealogy>  (2) 
COc1ccc(-c2cc(C(=O)NCCN3CCOCC3)c3ccccc3n2)cc1 (3D coordinates assigned)
COc1ccc(-c2cc(C(=O)NCCN3CCOCC3)c3ccccc3n2)cc1 (nonaromatic ring conformer: 79.39026825934843 kcal/mol)

>  <smiles>  (2) 
COc1ccc(-c2cc(C(=O)NCCN3CCOCC3)c3ccccc3n2)cc1

>  <score_type>  (2) 
oracle

>  <origin>  (2) 
adg

>  <m_score__min__energy>  (2) 
-8.7699999999999996

>  <m_primary>  (2) 
energy

$$$$
2:0
     RDKit          3D

 42 44  0  0  0  0  0  0  0  0999 V2000
   59.4780   24.5120   45.9620 O   0  0  0  0  0  0  0  0  0  0  0  0
   58.4120   24.6840   45.3090 C   0  0  0  0  0  0  0  0  0  0  0  0
   58.0110   26.0550   44.9170 C   0  0  0  0  0  0  0  0  0  0  0  0
   58.1500   26.4800   43.5850 C   0  0  0  0  0  0  0  0  0  0  0  0
   57.7660   27.7720   43.2110 C   0  0  0  0  0  0  0  0  0  0  0  0
   57.2330   28.6520   44.1610 C   0  0  0  0  0  0  0  0  0  0  0  0
   56.7770   30.2840   43.6830 S   0  0  0  0  0  0  0  0  0  0  0  0
   55.7000   30.8230   44.5840 O   0  0  0  0  0  0  0  0  0  0  0  0
   56.2610   30.2480   42.2720 O   0  0  0  0  0  0  0  0  0  0  0  0
   58.1590   31.3310   43.7630 N   0  0  0  0  0  0  0  0  0  0  0  0
   58.3350   32.3540   44.7580 C   0  0  0  0  0  0  0  0  0  0  0  0
   58.1030   32.0430   46.1080 C   0  0  0  0  0  0  0  0  0  0  0  0
   58.2590   33.0170   47.0990 C   0  0  0  0  0  0  0  0  0  0  0  0
   58.6520   34.3110   46.7530 C   0  0  0  0  0  0  0  0  0  0  0  0
   58.8930   34.6320   45.4150 C   0  0  0  0  0  0  0  0  0  0  0  0
   58.7400   33.6620   44.4200 C   0  0  0  0  0  0  0  0  0  0  0  0
   57.0720   28.2260   45.4850 C   0  0  0  0  0  0  0  0  0  0  0  0
   57.4560   26.9360   45.8610 C   0  0  0  0  0  0  0  0  0  0  0  0
   57.6240   23.5400   44.9330 N   0  0  0  0  0  0  0  0  0  0  0  0
   56.1900   23.4960   45.2410 C   0  0  0  0  0  0  0  0  0  0  0  0
   55.4200   22.6410   44.2070 C   0  0  0  0  0  0  0  0  0  0  0  0
   56.2600   21.9180   43.3210 O   0  0  0  0  0  0  0  0  0  0  0  0
   57.2890   21.2740   44.0410 C   0  0  0  0  0  0  0  0  0  0  0  0
   58.3070   22.3140   44.5080 C   0  0  0  0  0  0  0  0  0  0  0  0
   58.5632   25.7928   42.8320 H   0  0  0  0  0  0  0  0  0  0  0  0
   57.8831   28.0979   42.1669 H   0  0  0  0  0  0  0  0  0  0  0  0
   58.9340   31.1410   43.0880 H   0  0  0  0  0  0  0  0  0  0  0  0
   57.7960   31.0245   46.3880 H   0  0  0  0  0  0  0  0  0  0  0  0
   58.0718   32.7632   48.1528 H   0  0  0  0  0  0  0  0  0  0  0  0
   58.7718   35.0771   47.5332 H   0  0  0  0  0  0  0  0  0  0  0  0
   59.2042   35.6515   45.1434 H   0  0  0  0  0  0  0  0  0  0  0  0
   58.9363   33.9200   43.3689 H   0  0  0  0  0  0  0  0  0  0  0  0
   56.6417   28.9092   46.2320 H   0  0  0  0  0  0  0  0  0  0  0  0
   57.3230   26.6080   46.9025 H   0  0  0  0  0  0  0  0  0  0  0  0
   56.0514   23.0598   46.2413 H   0  0  0  0  0  0  0  0  0  0  0  0
   55.7954   24.5222   45.2064 H   0  0  0  0  0  0  0  0  0  0  0  0
   54.7904   21.9221   44.7518 H   0  0  0  0  0  0  0  0  0  0  0  0
   54.8302   23.3369   43.5923 H   0  0  0  0  0  0  0  0  0  0  0  0
   56.8605   20.7613   44.9148 H   0  0  0  0  0  0  0  0  0  0  0  0
   57.7862   20.5372   43.3930 H   0  0  0  0  0  0  0  0  0  0  0  0
   58.8803   21.9063   45.3536 H   0  0  0  0  0  0  0  0  0  0  0  0
   58.9834   22.5521   43.6739 H   0  0  0  0  0  0  0  0  0  0  0  0
  1  2  2  0
  2  3  1  0
  3  4  2  0
  4  5  1  0
  5  6  2  0
  6  7  1  0
  7  8  2  0
  7  9  2  0
  7 10  1  0
 10 11  1  0
 11 12  2  0
 12 13  1  0
 13 14  2  0
 14 15  1  0
 15 16  2  0
  6 17  1  0
 17 18  2  0
  2 19  1  0
 19 20  1  0
 20 21  1  0
 21 22  1  0
 22 23  1  0
 23 24  1  0
 18  3  1  0
 24 19  1  0
 16 11  1  0
  4 25  1  0
  5 26  1  0
 10 27  1  0
 12 28  1  0
 13 29  1  0
 14 30  1  0
 15 31  1  0
 16 32  1  0
 17 33  1  0
 18 34  1  0
 20 35  1  0
 20 36  1  0
 21 37  1  0
 21 38  1  0
 23 39  1  0
 23 40  1  0
 24 41  1  0
 24 42  1  0
M  END
>  <UniqueID>  (3) 
3

>  <SMILES>  (3) 
O=C(c1ccc(S(=O)(=O)Nc2ccccc2)cc1)N1CCOCC1

>  <Energy>  (3) 
56.945803121481454

>  <Genealogy>  (3) 
O=C(c1ccc(S(=O)(=O)Nc2ccccc2)cc1)N1CCOCC1 (3D coordinates assigned)
O=C(c1ccc(S(=O)(=O)Nc2ccccc2)cc1)N1CCOCC1 (nonaromatic ring conformer: 56.945803121481454 kcal/mol)

>  <smiles>  (3) 
O=C(c1ccc(S(=O)(=O)Nc2ccccc2)cc1)N1CCOCC1

>  <score_type>  (3) 
oracle

>  <origin>  (3) 
adg

>  <m_score__min__energy>  (3) 
-8.7400000000000002

>  <m_primary>  (3) 
energy

$$$$
3:0
     RDKit          3D

 73 74  0  0  0  0  0  0  0  0999 V2000
   58.0450   25.9460   45.8750 C   0  0  0  0  0  0  0  0  0  0  0  0
   59.1650   26.9940   45.9480 C   0  0  0  0  0  0  0  0  0  0  0  0
   59.2480   27.8700   44.7540 N   0  0  0  0  0  0  0  0  0  0  0  0
   60.2320   28.9710   44.8720 C   0  0  0  0  0  0  0  0  0  0  0  0
   60.4060   29.4310   46.3200 C   0  0  0  0  0  0  0  0  0  0  0  0
   57.9200   28.3700   44.3260 C   0  0  0  0  0  0  0  0  0  0  0  0
   57.2900   29.2150   45.4380 C   0  0  0  0  0  0  0  0  0  0  0  0
   56.6960   30.3990   44.9070 O   0  0  0  0  0  0  0  0  0  0  0  0
   56.6820   30.7110   43.5430 C   0  0  0  0  0  0  0  0  0  0  0  0
   55.9610   30.0590   42.7380 O   0  0  0  0  0  0  0  0  0  0  0  0
   57.5740   31.8040   43.0320 C   0  0  0  0  0  0  0  0  0  0  0  0
   58.2880   32.5640   44.1600 C   0  0  0  0  0  0  0  0  0  0  0  0
   57.3690   33.5770   44.8590 C   0  0  0  0  0  0  0  0  0  0  0  0
   57.5260   33.5010   46.3840 C   0  0  0  0  0  0  0  0  0  0  0  0
   58.5030   32.3650   46.7820 C   0  0  0  0  0  0  0  0  0  0  0  0
   59.5930   32.7340   47.7480 N   0  0  2  0  0  0  0  0  0  0  0  0
   59.2620   34.0420   48.3990 C   0  0  0  0  0  0  0  0  0  0  0  0
   59.6480   34.1410   49.8820 C   0  0  0  0  0  0  0  0  0  0  0  0
   59.7350   32.8720   50.4220 F   0  0  0  0  0  0  0  0  0  0  0  0
   61.0240   32.5610   47.2630 C   0  0  1  0  0  0  0  0  0  0  0  0
   61.5710   33.8580   46.5890 C   0  0  0  0  0  0  0  0  0  0  0  0
   63.0710   33.7980   46.3600 C   0  0  0  0  0  0  0  0  0  0  0  0
   63.7680   33.8330   47.7100 C   0  0  0  0  0  0  0  0  0  0  0  0
   63.2490   32.7540   48.6290 C   0  0  0  0  0  0  0  0  0  0  0  0
   64.0540   32.3900   49.7330 C   0  0  0  0  0  0  0  0  0  0  0  0
   65.2280   33.1210   49.9910 O   0  0  0  0  0  0  0  0  0  0  0  0
   66.4900   32.5420   50.3100 C   0  0  0  0  0  0  0  0  0  0  0  0
   63.6750   31.3070   50.5390 C   0  0  0  0  0  0  0  0  0  0  0  0
   62.5410   30.5690   50.2260 C   0  0  0  0  0  0  0  0  0  0  0  0
   61.7300   30.9430   49.1570 C   0  0  0  0  0  0  0  0  0  0  0  0
   61.9970   32.1020   48.3950 C   0  0  0  0  0  0  0  0  0  0  0  0
   57.7416   25.6621   46.8935 H   0  0  0  0  0  0  0  0  0  0  0  0
   57.1819   26.3684   45.3396 H   0  0  0  0  0  0  0  0  0  0  0  0
   58.4092   25.0568   45.3396 H   0  0  0  0  0  0  0  0  0  0  0  0
   58.9898   27.6271   46.8304 H   0  0  0  0  0  0  0  0  0  0  0  0
   60.1149   26.4423   46.0055 H   0  0  0  0  0  0  0  0  0  0  0  0
   61.2031   28.6218   44.4912 H   0  0  0  0  0  0  0  0  0  0  0  0
   59.8588   29.8244   44.2869 H   0  0  0  0  0  0  0  0  0  0  0  0
   60.1003   28.6228   47.0007 H   0  0  0  0  0  0  0  0  0  0  0  0
   61.4615   29.6828   46.5004 H   0  0  0  0  0  0  0  0  0  0  0  0
   59.7814   30.3183   46.5004 H   0  0  0  0  0  0  0  0  0  0  0  0
   58.0377   28.9870   43.4230 H   0  0  0  0  0  0  0  0  0  0  0  0
   57.2653   27.5124   44.1118 H   0  0  0  0  0  0  0  0  0  0  0  0
   56.5160   28.6212   45.9463 H   0  0  0  0  0  0  0  0  0  0  0  0
   58.0795   29.5066   46.1463 H   0  0  0  0  0  0  0  0  0  0  0  0
   58.3334   31.3587   42.3724 H   0  0  0  0  0  0  0  0  0  0  0  0
   56.9405   32.5254   42.4951 H   0  0  0  0  0  0  0  0  0  0  0  0
   58.6436   31.8372   44.9052 H   0  0  0  0  0  0  0  0  0  0  0  0
   59.1221   33.1231   43.7110 H   0  0  0  0  0  0  0  0  0  0  0  0
   57.6283   34.5911   44.5208 H   0  0  0  0  0  0  0  0  0  0  0  0
   56.3261   33.3399   44.6018 H   0  0  0  0  0  0  0  0  0  0  0  0
   57.9181   34.4598   46.7542 H   0  0  0  0  0  0  0  0  0  0  0  0
   56.5422   33.2915   46.8293 H   0  0  0  0  0  0  0  0  0  0  0  0
   57.9108   31.5574   47.2371 H   0  0  0  0  0  0  0  0  0  0  0  0
   59.0180   32.0812   45.8523 H   0  0  0  0  0  0  0  0  0  0  0  0
   59.4960   32.0500   48.5360 H   0  0  0  0  0  0  0  0  0  0  0  0
   59.7903   34.8384   47.8543 H   0  0  0  0  0  0  0  0  0  0  0  0
   58.1671   34.1393   48.3576 H   0  0  0  0  0  0  0  0  0  0  0  0
   60.6208   34.6462   49.9746 H   0  0  0  0  0  0  0  0  0  0  0  0
   58.8822   34.7171   50.4221 H   0  0  0  0  0  0  0  0  0  0  0  0
   60.9839   31.7601   46.5101 H   0  0  0  0  0  0  0  0  0  0  0  0
   61.0698   33.9913   45.6189 H   0  0  0  0  0  0  0  0  0  0  0  0
   61.3666   34.7013   47.2651 H   0  0  0  0  0  0  0  0  0  0  0  0
   63.3288   32.8672   45.8336 H   0  0  0  0  0  0  0  0  0  0  0  0
   63.3928   34.6535   45.7480 H   0  0  0  0  0  0  0  0  0  0  0  0
   64.8475   33.6849   47.5588 H   0  0  0  0  0  0  0  0  0  0  0  0
   63.5680   34.8090   48.1763 H   0  0  0  0  0  0  0  0  0  0  0  0
   66.6037   32.4898   51.4029 H   0  0  0  0  0  0  0  0  0  0  0  0
   66.5458   31.5282   49.8867 H   0  0  0  0  0  0  0  0  0  0  0  0
   67.2949   33.1609   49.8867 H   0  0  0  0  0  0  0  0  0  0  0  0
   64.2769   31.0415   51.4206 H   0  0  0  0  0  0  0  0  0  0  0  0
   62.2817   29.6840   50.8257 H   0  0  0  0  0  0  0  0  0  0  0  0
   60.8603   30.3205   48.8999 H   0  0  0  0  0  0  0  0  0  0  0  0
  1  2  1  0
  2  3  1  0
  3  4  1  0
  4  5  1  0
  3  6  1  0
  6  7  1  0
  7  8  1  0
  8  9  1  0
  9 10  2  0
  9 11  1  0
 11 12  1  0
 12 13  1  0
 13 14  1  0
 14 15  1  0
 15 16  1  0
 16 17  1  0
 17 18  1  0
 18 19  1  0
 16 20  1  0
 20 21  1  0
 21 22  1  0
 22 23  1  0
 23 24  1  0
 24 25  2  0
 25 26  1  0
 26 27  1  0
 25 28  1  0
 28 29  2  0
 29 30  1  0
 30 31  2  0
 31 20  1  0
 31 24  1  0
  1 32  1  0
  1 33  1  0
  1 34  1  0
  2 35  1  0
  2 36  1  0
  4 37  1  0
  4 38  1  0
  5 39  1  0
  5 40  1  0
  5 41  1  0
  6 42  1  0
  6 43  1  0
  7 44  1  0
  7 45  1  0
 11 46  1  0
 11 47  1  0
 12 48  1  0
 12 49  1  0
 13 50  1  0
 13 51  1  0
 14 52  1  0
 14 53  1  0
 15 54  1  0
 15 55  1  0
 16 56  1  1
 17 57  1  0
 17 58  1  0
 18 59  1  0
 18 60  1  0
 20 61  1  6
 21 62  1  0
 21 63  1  0
 22 64  1  0
 22 65  1  0
 23 66  1  0
 23 67  1  0
 27 68  1  0
 27 69  1  0
 27 70  1  0
 28 71  1  0
 29 72  1  0
 30 73  1  0
M  CHG  1  16   1
M  END
>  <UniqueID>  (4) 
4

>  <SMILES>  (4) 
CCN(CC)CCOC(=O)CCCCC[N@H+](CCF)[C@H]1CCCc2c(OC)cccc21

>  <Energy>  (4) 
91.1959821936832

>  <Genealogy>  (4) 
CCN(CC)CCOC(=O)CCCCC[NH+](CCF)C1CCCc2c(OC)cccc21 (protonated)
CCN(CC)CCOC(=O)CCCCC[N@H+](CCF)[C@H]1CCCc2c(OC)cccc21 (chirality)
CCN(CC)CCOC(=O)CCCCC[N@H+](CCF)[C@H]1CCCc2c(OC)cccc21 (3D coordinates assigned)
CCN(CC)CCOC(=O)CCCCC[N@H+](CCF)[C@H]1CCCc2c(OC)cccc21 (nonaromatic ring conformer: 91.1959821936832 kcal/mol)

>  <smiles>  (4) 
CCN(CC)CCOC(=O)CCCCCN(CCF)C1CCCc2c(OC)cccc21

>  <score_type>  (4) 
oracle

>  <origin>  (4) 
adg

>  <m_score__min__energy>  (4) 
-6.2999999999999998

>  <m_primary>  (4) 
energy

$$$$
4:0
     RDKit          3D

 43 45  0  0  0  0  0  0  0  0999 V2000
   55.5910   30.0780   43.6880 C   0  0  0  0  0  0  0  0  0  0  0  0
   56.7730   29.8930   44.5820 C   0  0  0  0  0  0  0  0  0  0  0  0
   56.8890   28.8660   45.4570 N   0  0  0  0  0  0  0  0  0  0  0  0
   58.0270   29.0460   46.1060 N   0  0  0  0  0  0  0  0  0  0  0  0
   58.5360   28.2340   47.0670 C   0  0  0  0  0  0  0  0  0  0  0  0
   59.7690   28.5780   47.6440 C   0  0  0  0  0  0  0  0  0  0  0  0
   60.4260   29.7510   47.2240 C   0  0  0  0  0  0  0  0  0  0  0  0
   59.8630   30.5660   46.2290 C   0  0  0  0  0  0  0  0  0  0  0  0
   58.6430   30.1640   45.6830 C   0  0  0  0  0  0  0  0  0  0  0  0
   57.8670   30.7540   44.7020 C   0  0  0  0  0  0  0  0  0  0  0  0
   58.1340   32.0220   43.9380 C   0  0  0  0  0  0  0  0  0  0  0  0
   57.3850   33.1570   44.4980 N   0  0  0  0  0  0  0  0  0  0  0  0
   58.2660   34.2630   44.9180 C   0  0  0  0  0  0  0  0  0  0  0  0
   58.9930   33.8990   46.1870 C   0  0  0  0  0  0  0  0  0  0  0  0
   58.2720   33.4480   47.3000 C   0  0  0  0  0  0  0  0  0  0  0  0
   58.9530   33.1000   48.4650 C   0  0  0  0  0  0  0  0  0  0  0  0
   60.3050   33.2110   48.5210 N   0  0  0  0  0  0  0  0  0  0  0  0
   61.0490   33.6610   47.4680 C   0  0  0  0  0  0  0  0  0  0  0  0
   62.4880   33.7680   47.6100 N   0  0  0  0  0  0  0  0  0  0  0  0
   63.3670   33.8430   46.4380 C   0  0  0  0  0  0  0  0  0  0  0  0
   63.0660   33.8300   48.9580 C   0  0  0  0  0  0  0  0  0  0  0  0
   60.3890   34.0150   46.2740 C   0  0  0  0  0  0  0  0  0  0  0  0
   54.6875   30.2194   44.2993 H   0  0  0  0  0  0  0  0  0  0  0  0
   55.7464   30.9628   43.0531 H   0  0  0  0  0  0  0  0  0  0  0  0
   55.4686   29.1881   43.0531 H   0  0  0  0  0  0  0  0  0  0  0  0
   57.9966   27.3298   47.3856 H   0  0  0  0  0  0  0  0  0  0  0  0
   60.2179   27.9371   48.4172 H   0  0  0  0  0  0  0  0  0  0  0  0
   61.3876   30.0307   47.6791 H   0  0  0  0  0  0  0  0  0  0  0  0
   60.3640   31.4858   45.8928 H   0  0  0  0  0  0  0  0  0  0  0  0
   59.2099   32.2466   43.9832 H   0  0  0  0  0  0  0  0  0  0  0  0
   57.8082   31.8732   42.8980 H   0  0  0  0  0  0  0  0  0  0  0  0
   56.7610   33.5160   43.7380 H   0  0  0  0  0  0  0  0  0  0  0  0
   59.0002   34.4638   44.1239 H   0  0  0  0  0  0  0  0  0  0  0  0
   57.6540   35.1587   45.1003 H   0  0  0  0  0  0  0  0  0  0  0  0
   57.1758   33.3691   47.2548 H   0  0  0  0  0  0  0  0  0  0  0  0
   58.3948   32.7351   49.3398 H   0  0  0  0  0  0  0  0  0  0  0  0
   64.4123   33.9322   46.7688 H   0  0  0  0  0  0  0  0  0  0  0  0
   63.2503   32.9316   45.8332 H   0  0  0  0  0  0  0  0  0  0  0  0
   63.0976   34.7214   45.8332 H   0  0  0  0  0  0  0  0  0  0  0  0
   62.2635   33.7439   49.7054 H   0  0  0  0  0  0  0  0  0  0  0  0
   63.7796   33.0032   49.0894 H   0  0  0  0  0  0  0  0  0  0  0  0
   63.5880   34.7893   49.0894 H   0  0  0  0  0  0  0  0  0  0  0  0
   60.9666   34.3813   45.4125 H   0  0  0  0  0  0  0  0  0  0  0  0
  1  2  1  0
  2  3  2  0
  3  4  1  0
  4  5  1  0
  5  6  2  0
  6  7  1  0
  7  8  2  0
  8  9  1  0
  9 10  2  0
 10 11  1  0
 11 12  1  0
 12 13  1  0
 13 14  1  0
 14 15  2  0
 15 16  1  0
 16 17  2  0
 17 18  1  0
 18 19  1  0
 19 20  1  0
 19 21  1  0
 18 22  2  0
 10  2  1  0
 22 14  1  0
  9  4  1  0
  1 23  1  0
  1 24  1  0
  1 25  1  0
  5 26  1  0
  6 27  1  0
  7 28  1  0
  8 29  1  0
 11 30  1  0
 11 31  1  0
 12 32  1  0
 13 33  1  0
 13 34  1  0
 15 35  1  0
 16 36  1  0
 20 37  1  0
 20 38  1  0
 20 39  1  0
 21 40  1  0
 21 41  1  0
 21 42  1  0
 22 43  1  0
M  END
>  <UniqueID>  (5) 
5

>  <SMILES>  (5) 
Cc1nn2ccccc2c1CNCc1ccnc(N(C)C)c1

>  <Energy>  (5) 
74.06124474441906

>  <Genealogy>  (5) 
Cc1nn2ccccc2c1CNCc1ccnc(N(C)C)c1 (3D coordinates assigned)
Cc1nn2ccccc2c1CNCc1ccnc(N(C)C)c1 (optimized conformer: 74.06124474441906 kcal/mol)

>  <smiles>  (5) 
Cc1nn2ccccc2c1CNCc1ccnc(N(C)C)c1

>  <score_type>  (5) 
oracle

>  <origin>  (5) 
adg

>  <m_score__min__energy>  (5) 
-7.0199999999999996

>  <m_primary>  (5) 
energy

$$$$
5:0
     RDKit          3D

 40 41  0  0  0  0  0  0  0  0999 V2000
   57.3610   31.9740   41.5170 C   0  0  0  0  0  0  0  0  0  0  0  0
   58.2860   32.6990   42.4910 C   0  0  0  0  0  0  0  0  0  0  0  0
   57.8610   32.4770   43.8830 N   0  0  0  0  0  0  0  0  0  0  0  0
   57.6680   33.5890   44.7880 C   0  0  0  0  0  0  0  0  0  0  0  0
   56.6180   33.6510   45.4850 O   0  0  0  0  0  0  0  0  0  0  0  0
   58.6710   34.6990   44.9100 C   0  0  0  0  0  0  0  0  0  0  0  0
   59.2640   34.6680   46.2050 O   0  0  0  0  0  0  0  0  0  0  0  0
   60.1390   33.6690   46.6560 C   0  0  0  0  0  0  0  0  0  0  0  0
   59.5970   32.4330   47.0260 C   0  0  0  0  0  0  0  0  0  0  0  0
   60.4230   31.4020   47.4980 C   0  0  0  0  0  0  0  0  0  0  0  0
   59.8340   30.0720   47.8630 C   0  0  0  0  0  0  0  0  0  0  0  0
   61.8080   31.6030   47.5660 C   0  0  0  0  0  0  0  0  0  0  0  0
   62.3680   32.8310   47.1820 C   0  0  0  0  0  0  0  0  0  0  0  0
   63.8460   33.0570   47.3050 C   0  0  0  0  0  0  0  0  0  0  0  0
   61.5300   33.8680   46.7460 C   0  0  0  0  0  0  0  0  0  0  0  0
   57.5350   31.1350   44.3090 C   0  0  0  0  0  0  0  0  0  0  0  0
   58.5330   30.1670   44.4900 C   0  0  0  0  0  0  0  0  0  0  0  0
   58.1730   28.8790   44.8800 C   0  0  0  0  0  0  0  0  0  0  0  0
   56.8270   28.5800   45.0730 C   0  0  0  0  0  0  0  0  0  0  0  0
   55.8910   29.5430   44.8740 N   0  0  0  0  0  0  0  0  0  0  0  0
   56.2340   30.7790   44.5010 N   0  0  0  0  0  0  0  0  0  0  0  0
   56.6180   31.3916   42.0815 H   0  0  0  0  0  0  0  0  0  0  0  0
   56.8452   32.7109   40.8838 H   0  0  0  0  0  0  0  0  0  0  0  0
   57.9533   31.2971   40.8838 H   0  0  0  0  0  0  0  0  0  0  0  0
   59.3112   32.3214   42.3629 H   0  0  0  0  0  0  0  0  0  0  0  0
   58.2445   33.7775   42.2785 H   0  0  0  0  0  0  0  0  0  0  0  0
   59.4525   34.5716   44.1465 H   0  0  0  0  0  0  0  0  0  0  0  0
   58.1660   35.6651   44.7628 H   0  0  0  0  0  0  0  0  0  0  0  0
   58.5124   32.2682   46.9459 H   0  0  0  0  0  0  0  0  0  0  0  0
   59.7922   29.9776   48.9581 H   0  0  0  0  0  0  0  0  0  0  0  0
   58.8177   29.9951   47.4493 H   0  0  0  0  0  0  0  0  0  0  0  0
   60.4601   29.2677   47.4493 H   0  0  0  0  0  0  0  0  0  0  0  0
   62.4607   30.7927   47.9228 H   0  0  0  0  0  0  0  0  0  0  0  0
   64.1232   33.0994   48.3687 H   0  0  0  0  0  0  0  0  0  0  0  0
   64.3850   32.2308   46.8183 H   0  0  0  0  0  0  0  0  0  0  0  0
   64.1135   34.0065   46.8183 H   0  0  0  0  0  0  0  0  0  0  0  0
   61.9620   34.8421   46.4729 H   0  0  0  0  0  0  0  0  0  0  0  0
   59.5903   30.4222   44.3256 H   0  0  0  0  0  0  0  0  0  0  0  0
   58.9424   28.1080   45.0335 H   0  0  0  0  0  0  0  0  0  0  0  0
   56.5238   27.5696   45.3848 H   0  0  0  0  0  0  0  0  0  0  0  0
  1  2  1  0
  2  3  1  0
  3  4  1  0
  4  5  2  0
  4  6  1  0
  6  7  1  0
  7  8  1  0
  8  9  2  0
  9 10  1  0
 10 11  1  0
 10 12  2  0
 12 13  1  0
 13 14  1  0
 13 15  2  0
  3 16  1  0
 16 17  2  0
 17 18  1  0
 18 19  2  0
 19 20  1  0
 20 21  2  0
 15  8  1  0
 21 16  1  0
  1 22  1  0
  1 23  1  0
  1 24  1  0
  2 25  1  0
  2 26  1  0
  6 27  1  0
  6 28  1  0
  9 29  1  0
 11 30  1  0
 11 31  1  0
 11 32  1  0
 12 33  1  0
 14 34  1  0
 14 35  1  0
 14 36  1  0
 15 37  1  0
 17 38  1  0
 18 39  1  0
 19 40  1  0
M  END
>  <UniqueID>  (6) 
6

>  <SMILES>  (6) 
CCN(C(=O)COc1cc(C)cc(C)c1)c1cccnn1

>  <Energy>  (6) 
41.19268173813977

>  <Genealogy>  (6) 
CCN(C(=O)COc1cc(C)cc(C)c1)c1cccnn1 (3D coordinates assigned)
CCN(C(=O)COc1cc(C)cc(C)c1)c1cccnn1 (optimized conformer: 41.19268173813977 kcal/mol)

>  <smiles>  (6) 
CCN(C(=O)COc1cc(C)cc(C)c1)c1cccnn1

>  <score_type>  (6) 
oracle

>  <origin>  (6) 
adg

>  <m_score__min__energy>  (6) 
-7.7999999999999998

>  <m_primary>  (6) 
energy

$$$$
6:0
     RDKit          3D

 45 48  0  0  0  0  0  0  0  0999 V2000
   54.7980   23.3870   46.9750 C   0  0  0  0  0  0  0  0  0  0  0  0
   56.0280   23.9550   47.4100 O   0  0  0  0  0  0  0  0  0  0  0  0
   56.6840   25.0150   46.7660 C   0  0  0  0  0  0  0  0  0  0  0  0
   58.0640   24.9350   46.5980 C   0  0  0  0  0  0  0  0  0  0  0  0
   58.7580   25.9600   45.9580 C   0  0  0  0  0  0  0  0  0  0  0  0
   58.0910   27.1090   45.4900 C   0  0  0  0  0  0  0  0  0  0  0  0
   56.6870   27.1980   45.6570 C   0  0  0  0  0  0  0  0  0  0  0  0
   56.0030   26.1470   46.2880 C   0  0  0  0  0  0  0  0  0  0  0  0
   55.8850   28.3190   45.2550 N   0  0  0  0  0  0  0  0  0  0  0  0
   56.1900   29.6460   44.8110 C   0  0  0  0  0  0  0  0  0  0  0  0
   55.2320   30.4560   44.6960 O   0  0  0  0  0  0  0  0  0  0  0  0
   57.5460   30.1230   44.3800 C   0  0  0  0  0  0  0  0  0  0  0  0
   58.6810   29.5320   45.1110 N   0  0  1  0  0  0  0  0  0  0  0  0
   58.6220   29.7940   46.5740 C   0  0  0  0  0  0  0  0  0  0  0  0
   59.4960   30.9580   46.9830 C   0  0  0  0  0  0  0  0  0  0  0  0
   58.9210   32.1980   47.3090 C   0  0  0  0  0  0  0  0  0  0  0  0
   59.7230   33.2680   47.7100 C   0  0  0  0  0  0  0  0  0  0  0  0
   61.1140   33.1190   47.7840 C   0  0  0  0  0  0  0  0  0  0  0  0
   61.9290   34.1880   48.1880 C   0  0  0  0  0  0  0  0  0  0  0  0
   63.3150   34.0270   48.2550 C   0  0  0  0  0  0  0  0  0  0  0  0
   63.8980   32.8020   47.9220 C   0  0  0  0  0  0  0  0  0  0  0  0
   63.0980   31.7290   47.5170 C   0  0  0  0  0  0  0  0  0  0  0  0
   61.7040   31.8770   47.4460 C   0  0  0  0  0  0  0  0  0  0  0  0
   60.8910   30.8070   47.0450 C   0  0  0  0  0  0  0  0  0  0  0  0
   58.9050   28.1210   44.7220 C   0  0  0  0  0  0  0  0  0  0  0  0
   54.1932   23.1077   47.8503 H   0  0  0  0  0  0  0  0  0  0  0  0
   54.2484   24.1225   46.3692 H   0  0  0  0  0  0  0  0  0  0  0  0
   55.0015   22.4917   46.3692 H   0  0  0  0  0  0  0  0  0  0  0  0
   58.6100   24.0568   46.9730 H   0  0  0  0  0  0  0  0  0  0  0  0
   59.8451   25.8703   45.8159 H   0  0  0  0  0  0  0  0  0  0  0  0
   54.9117   26.2111   46.4107 H   0  0  0  0  0  0  0  0  0  0  0  0
   57.6673   29.8846   43.3130 H   0  0  0  0  0  0  0  0  0  0  0  0
   57.5727   31.2014   44.5953 H   0  0  0  0  0  0  0  0  0  0  0  0
   59.5160   30.0560   44.7540 H   0  0  0  0  0  0  0  0  0  0  0  0
   57.5815   30.0179   46.8518 H   0  0  0  0  0  0  0  0  0  0  0  0
   58.9914   28.8968   47.0922 H   0  0  0  0  0  0  0  0  0  0  0  0
   57.8303   32.3266   47.2477 H   0  0  0  0  0  0  0  0  0  0  0  0
   59.2608   34.2320   47.9689 H   0  0  0  0  0  0  0  0  0  0  0  0
   61.4753   35.1546   48.4524 H   0  0  0  0  0  0  0  0  0  0  0  0
   63.9497   34.8680   48.5712 H   0  0  0  0  0  0  0  0  0  0  0  0
   64.9899   32.6811   47.9786 H   0  0  0  0  0  0  0  0  0  0  0  0
   63.5620   30.7671   47.2535 H   0  0  0  0  0  0  0  0  0  0  0  0
   61.3488   29.8433   46.7773 H   0  0  0  0  0  0  0  0  0  0  0  0
   58.6580   28.0182   43.6550 H   0  0  0  0  0  0  0  0  0  0  0  0
   59.9589   27.9036   44.9502 H   0  0  0  0  0  0  0  0  0  0  0  0
  1  2  1  0
  2  3  1  0
  3  4  2  0
  4  5  1  0
  5  6  2  0
  6  7  1  0
  7  8  2  0
  7  9  1  0
  9 10  1  0
 10 11  2  0
 10 12  1  0
 12 13  1  0
 13 14  1  0
 14 15  1  0
 15 16  2  0
 16 17  1  0
 17 18  2  0
 18 19  1  0
 19 20  2  0
 20 21  1  0
 21 22  2  0
 22 23  1  0
 23 24  2  0
 13 25  1  0
  8  3  1  0
 24 15  1  0
 25  6  1  0
 23 18  1  0
  1 26  1  0
  1 27  1  0
  1 28  1  0
  4 29  1  0
  5 30  1  0
  8 31  1  0
 12 32  1  0
 12 33  1  0
 13 34  1  6
 14 35  1  0
 14 36  1  0
 16 37  1  0
 17 38  1  0
 19 39  1  0
 20 40  1  0
 21 41  1  0
 22 42  1  0
 24 43  1  0
 25 44  1  0
 25 45  1  0
M  CHG  2   9  -1  13   1
M  END
>  <UniqueID>  (7) 
7

>  <SMILES>  (7) 
COc1ccc2c(c1)[N-]C(=O)C[N@@H+](Cc1ccc3ccccc3c1)C2

>  <Energy>  (7) 
70.399046527046

>  <Genealogy>  (7) 
COc1ccc2c(c1)[N-]C(=O)C[NH+](Cc1ccc3ccccc3c1)C2 (protonated)
COc1ccc2c(c1)[N-]C(=O)C[N@@H+](Cc1ccc3ccccc3c1)C2 (chirality)
COc1ccc2c(c1)[N-]C(=O)C[N@@H+](Cc1ccc3ccccc3c1)C2 (3D coordinates assigned)
COc1ccc2c(c1)[N-]C(=O)C[N@@H+](Cc1ccc3ccccc3c1)C2 (nonaromatic ring conformer: 70.399046527046 kcal/mol)

>  <smiles>  (7) 
COc1ccc2c(c1)NC(=O)CN(Cc1ccc3ccccc3c1)C2

>  <score_type>  (7) 
oracle

>  <origin>  (7) 
adg

>  <m_score__min__energy>  (7) 
-6.8799999999999999

>  <m_primary>  (7) 
energy

$$$$
7:0
     RDKit          3D

 63 65  0  0  0  0  0  0  0  0999 V2000
   59.2310   28.5989   43.8333 H   0  0  0  0  0  0  0  0  0  0  0  0
   59.2820   28.0180   44.7660 C   0  0  0  0  0  0  0  0  0  0  0  0
   60.3280   28.2280   45.5780 C   0  0  0  0  0  0  0  0  0  0  0  0
   61.2371   28.6565   45.1309 H   0  0  0  0  0  0  0  0  0  0  0  0
   60.3590   27.9230   47.0610 C   0  0  0  0  0  0  0  0  0  0  0  0
   61.3305   27.4665   47.3012 H   0  0  0  0  0  0  0  0  0  0  0  0
   59.5150   27.2485   47.2676 H   0  0  0  0  0  0  0  0  0  0  0  0
   60.1780   29.1200   47.9220 N   0  0  0  0  0  0  0  0  0  0  0  0
   60.3790   29.9730   47.3490 H   0  0  0  0  0  0  0  0  0  0  0  0
   58.7690   29.2040   48.3740 C   0  0  0  0  0  0  0  0  0  0  0  0
   58.5049   28.2677   48.8875 H   0  0  0  0  0  0  0  0  0  0  0  0
   58.1381   29.3649   47.4874 H   0  0  0  0  0  0  0  0  0  0  0  0
   58.5380   30.3860   49.3430 C   0  0  0  0  0  0  0  0  0  0  0  0
   58.2391   29.9916   50.3254 H   0  0  0  0  0  0  0  0  0  0  0  0
   57.7483   31.0287   48.9267 H   0  0  0  0  0  0  0  0  0  0  0  0
   59.7640   31.1940   49.5010 N   0  0  0  0  0  0  0  0  0  0  0  0
   59.5330   32.3550   50.3930 C   0  0  0  0  0  0  0  0  0  0  0  0
   59.6996   32.0486   51.4362 H   0  0  0  0  0  0  0  0  0  0  0  0
   58.4985   32.7046   50.2607 H   0  0  0  0  0  0  0  0  0  0  0  0
   60.4980   33.5080   50.0420 C   0  0  0  0  0  0  0  0  0  0  0  0
   61.3696   33.0888   49.5179 H   0  0  0  0  0  0  0  0  0  0  0  0
   60.7832   33.9978   50.9847 H   0  0  0  0  0  0  0  0  0  0  0  0
   59.8560   34.5720   49.1480 C   0  0  0  0  0  0  0  0  0  0  0  0
   60.2587   35.5614   49.4106 H   0  0  0  0  0  0  0  0  0  0  0  0
   58.7664   34.5642   49.2983 H   0  0  0  0  0  0  0  0  0  0  0  0
   60.1460   34.2900   47.7770 O   0  0  0  0  0  0  0  0  0  0  0  0
   59.3560   33.4790   46.9460 C   0  0  0  0  0  0  0  0  0  0  0  0
   58.1110   33.9120   46.4560 C   0  0  0  0  0  0  0  0  0  0  0  0
   57.7341   34.9085   46.7297 H   0  0  0  0  0  0  0  0  0  0  0  0
   57.3490   33.0880   45.6250 C   0  0  0  0  0  0  0  0  0  0  0  0
   56.3789   33.4434   45.2474 H   0  0  0  0  0  0  0  0  0  0  0  0
   57.8090   31.8090   45.2660 C   0  0  0  0  0  0  0  0  0  0  0  0
   56.9860   30.9480   44.3730 C   0  0  0  0  0  0  0  0  0  0  0  0
   56.1970   30.1010   44.8750 O   0  0  0  0  0  0  0  0  0  0  0  0
   57.0620   31.0540   42.8780 C   0  0  0  0  0  0  0  0  0  0  0  0
   57.6826   31.9196   42.6029 H   0  0  0  0  0  0  0  0  0  0  0  0
   57.5095   30.1367   42.4676 H   0  0  0  0  0  0  0  0  0  0  0  0
   56.0496   31.1834   42.4676 H   0  0  0  0  0  0  0  0  0  0  0  0
   59.0450   31.3680   45.7750 C   0  0  0  0  0  0  0  0  0  0  0  0
   59.4159   30.3672   45.5088 H   0  0  0  0  0  0  0  0  0  0  0  0
   59.8150   32.1940   46.6230 C   0  0  0  0  0  0  0  0  0  0  0  0
   61.0450   31.7790   47.1550 O   0  0  0  0  0  0  0  0  0  0  0  0
   62.2460   32.5430   47.1090 C   0  0  0  0  0  0  0  0  0  0  0  0
   62.5835   32.7577   48.1337 H   0  0  0  0  0  0  0  0  0  0  0  0
   63.0232   31.9729   46.5789 H   0  0  0  0  0  0  0  0  0  0  0  0
   62.0590   33.4885   46.5789 H   0  0  0  0  0  0  0  0  0  0  0  0
   60.8700   30.3470   49.9930 C   0  0  0  0  0  0  0  0  0  0  0  0
   60.6362   30.0135   51.0148 H   0  0  0  0  0  0  0  0  0  0  0  0
   61.7935   30.9444   49.9748 H   0  0  0  0  0  0  0  0  0  0  0  0
   61.0820   29.1040   49.0960 C   0  0  0  0  0  0  0  0  0  0  0  0
   60.8832   28.1983   49.6877 H   0  0  0  0  0  0  0  0  0  0  0  0
   62.1200   29.1144   48.7321 H   0  0  0  0  0  0  0  0  0  0  0  0
   58.1980   27.0620   45.0400 C   0  0  0  0  0  0  0  0  0  0  0  0
   58.0740   25.9140   44.2420 C   0  0  0  0  0  0  0  0  0  0  0  0
   58.7752   25.7439   43.4118 H   0  0  0  0  0  0  0  0  0  0  0  0
   57.0600   24.9860   44.5010 C   0  0  0  0  0  0  0  0  0  0  0  0
   56.9588   24.0917   43.8685 H   0  0  0  0  0  0  0  0  0  0  0  0
   56.1750   25.1940   45.5630 C   0  0  0  0  0  0  0  0  0  0  0  0
   55.3799   24.4617   45.7669 H   0  0  0  0  0  0  0  0  0  0  0  0
   56.2990   26.3310   46.3660 C   0  0  0  0  0  0  0  0  0  0  0  0
   55.6002   26.4939   47.1998 H   0  0  0  0  0  0  0  0  0  0  0  0
   57.3120   27.2630   46.1100 C   0  0  0  0  0  0  0  0  0  0  0  0
   57.4136   28.1534   46.7479 H   0  0  0  0  0  0  0  0  0  0  0  0
  1  2  1  0
  2  3  2  0
  3  4  1  0
  3  5  1  0
  5  6  1  0
  5  7  1  0
  5  8  1  0
  8  9  1  0
  8 10  1  0
 10 11  1  0
 10 12  1  0
 10 13  1  0
 13 14  1  0
 13 15  1  0
 13 16  1  0
 16 17  1  0
 17 18  1  0
 17 19  1  0
 17 20  1  0
 20 21  1  0
 20 22  1  0
 20 23  1  0
 23 24  1  0
 23 25  1  0
 23 26  1  0
 26 27  1  0
 27 28  2  0
 28 29  1  0
 28 30  1  0
 30 31  1  0
 30 32  2  0
 32 33  1  0
 33 34  2  0
 33 35  1  0
 35 36  1  0
 35 37  1  0
 35 38  1  0
 32 39  1  0
 39 40  1  0
 39 41  2  0
 41 42  1  0
 42 43  1  0
 43 44  1  0
 43 45  1  0
 43 46  1  0
 16 47  1  0
 47 48  1  0
 47 49  1  0
 47 50  1  0
 50 51  1  0
 50 52  1  0
  2 53  1  0
 53 54  2  0
 54 55  1  0
 54 56  1  0
 56 57  1  0
 56 58  2  0
 58 59  1  0
 58 60  1  0
 60 61  1  0
 60 62  2  0
 62 63  1  0
 50  8  1  0
 62 53  1  0
 41 27  1  0
M  CHG  1   8   1
M  END
>  <UniqueID>  (8) 
8

>  <SMILES>  (8) 
COc1cc(C(C)=O)ccc1OCCCN1CC[NH+](C/C=C\c2ccccc2)CC1

>  <Energy>  (8) 
83.88443690989372

>  <Genealogy>  (8) 
COc1cc(C(C)=O)ccc1OCCCN1CC[NH+](CC=Cc2ccccc2)CC1 (protonated)
COc1cc(C(C)=O)ccc1OCCCN1CC[NH+](C/C=C\c2ccccc2)CC1 (cis-trans isomerization)
COc1cc(C(C)=O)ccc1OCCCN1CC[NH+](C/C=C\c2ccccc2)CC1 (3D coordinates assigned)
COc1cc(C(C)=O)ccc1OCCCN1CC[NH+](C/C=C\c2ccccc2)CC1 (nonaromatic ring conformer: 83.88443690989372 kcal/mol)

>  <smiles>  (8) 
COc1cc(C(C)=O)ccc1OCCCN1CCN(CC=Cc2ccccc2)CC1

>  <score_type>  (8) 
oracle

>  <origin>  (8) 
adg

>  <m_score__min__energy>  (8) 
-7.3899999999999997

>  <m_primary>  (8) 
energy

$$$$
8:0
     RDKit          3D

 30 32  0  0  0  0  0  0  0  0999 V2000
   56.1220   29.7130   43.4490 C   0  0  0  0  0  0  0  0  0  0  0  0
   56.4340   29.9820   44.8110 O   0  0  0  0  0  0  0  0  0  0  0  0
   57.3970   30.9090   45.2380 C   0  0  0  0  0  0  0  0  0  0  0  0
   58.4130   30.4660   46.0880 C   0  0  0  0  0  0  0  0  0  0  0  0
   59.3970   31.3470   46.5470 C   0  0  0  0  0  0  0  0  0  0  0  0
   59.3740   32.7020   46.1660 C   0  0  0  0  0  0  0  0  0  0  0  0
   60.3460   33.6370   46.6060 C   0  0  0  0  0  0  0  0  0  0  0  0
   61.4180   33.2810   47.5640 C   0  0  0  0  0  0  0  0  0  0  0  0
   62.7060   32.9740   47.1020 C   0  0  0  0  0  0  0  0  0  0  0  0
   63.7110   32.6650   48.0220 C   0  0  0  0  0  0  0  0  0  0  0  0
   63.4410   32.6720   49.3550 N   0  0  0  0  0  0  0  0  0  0  0  0
   62.2040   32.9770   49.8300 C   0  0  0  0  0  0  0  0  0  0  0  0
   61.1720   33.2930   48.9450 C   0  0  0  0  0  0  0  0  0  0  0  0
   60.2860   34.9560   46.1320 C   0  0  0  0  0  0  0  0  0  0  0  0
   59.2660   35.3400   45.2630 C   0  0  0  0  0  0  0  0  0  0  0  0
   58.3320   34.4390   44.8670 N   0  0  0  0  0  0  0  0  0  0  0  0
   58.3570   33.1470   45.2870 C   0  0  0  0  0  0  0  0  0  0  0  0
   57.3750   32.2570   44.8350 C   0  0  0  0  0  0  0  0  0  0  0  0
   55.2898   28.9955   43.3983 H   0  0  0  0  0  0  0  0  0  0  0  0
   55.8310   30.6480   42.9479 H   0  0  0  0  0  0  0  0  0  0  0  0
   57.0040   29.2876   42.9479 H   0  0  0  0  0  0  0  0  0  0  0  0
   58.4393   29.4115   46.4000 H   0  0  0  0  0  0  0  0  0  0  0  0
   60.1940   30.9790   47.2099 H   0  0  0  0  0  0  0  0  0  0  0  0
   62.9233   32.9765   46.0237 H   0  0  0  0  0  0  0  0  0  0  0  0
   64.7221   32.4157   47.6677 H   0  0  0  0  0  0  0  0  0  0  0  0
   62.0162   32.9747   50.9139 H   0  0  0  0  0  0  0  0  0  0  0  0
   60.1731   33.5496   49.3276 H   0  0  0  0  0  0  0  0  0  0  0  0
   61.0446   35.6879   46.4464 H   0  0  0  0  0  0  0  0  0  0  0  0
   59.2182   36.3763   44.8973 H   0  0  0  0  0  0  0  0  0  0  0  0
   56.5820   32.6136   44.1612 H   0  0  0  0  0  0  0  0  0  0  0  0
  1  2  1  0
  2  3  1  0
  3  4  2  0
  4  5  1  0
  5  6  2  0
  6  7  1  0
  7  8  1  0
  8  9  2  0
  9 10  1  0
 10 11  2  0
 11 12  1  0
 12 13  2  0
  7 14  2  0
 14 15  1  0
 15 16  2  0
 16 17  1  0
 17 18  2  0
 18  3  1  0
 17  6  1  0
 13  8  1  0
  1 19  1  0
  1 20  1  0
  1 21  1  0
  4 22  1  0
  5 23  1  0
  9 24  1  0
 10 25  1  0
 12 26  1  0
 13 27  1  0
 14 28  1  0
 15 29  1  0
 18 30  1  0
M  END
>  <UniqueID>  (9) 
9

>  <SMILES>  (9) 
COc1ccc2c(-c3ccncc3)ccnc2c1

>  <Energy>  (9) 
45.023224116519565

>  <Genealogy>  (9) 
COc1ccc2c(-c3ccncc3)ccnc2c1 (3D coordinates assigned)
COc1ccc2c(-c3ccncc3)ccnc2c1 (optimized conformer: 45.023224116519565 kcal/mol)

>  <smiles>  (9) 
COc1ccc2c(-c3ccncc3)ccnc2c1

>  <score_type>  (9) 
oracle

>  <origin>  (9) 
adg

>  <m_score__min__energy>  (9) 
-6.5300000000000002

>  <m_primary>  (9) 
energy

$$$$
9:0
     RDKit          3D

 60 63  0  0  0  0  0  0  0  0999 V2000
   57.5410   25.1880   47.3130 C   0  0  0  0  0  0  0  0  0  0  0  0
   57.7230   26.5890   47.4820 O   0  0  0  0  0  0  0  0  0  0  0  0
   58.1060   27.4720   46.4610 C   0  0  0  0  0  0  0  0  0  0  0  0
   57.7080   27.2770   45.1220 C   0  0  0  0  0  0  0  0  0  0  0  0
   58.0840   28.1890   44.1330 C   0  0  0  0  0  0  0  0  0  0  0  0
   58.8590   29.3010   44.4630 C   0  0  0  0  0  0  0  0  0  0  0  0
   59.2640   29.5030   45.7830 C   0  0  0  0  0  0  0  0  0  0  0  0
   58.8960   28.5930   46.7890 C   0  0  0  0  0  0  0  0  0  0  0  0
   59.3400   28.8110   48.1400 N   0  0  0  0  0  0  0  0  0  0  0  0
   58.5580   29.6500   49.0530 C   0  0  0  0  0  0  0  0  0  0  0  0
   59.3990   30.8440   49.5430 C   0  0  0  0  0  0  0  0  0  0  0  0
   60.8550   30.5430   49.6400 N   0  0  0  0  0  0  0  0  0  0  0  0
   61.5580   31.3990   50.6350 C   0  0  0  0  0  0  0  0  0  0  0  0
   62.0180   32.7970   50.1430 C   0  0  0  0  0  0  0  0  0  0  0  0
   61.3230   33.2280   48.9190 N   0  0  0  0  0  0  0  0  0  0  0  0
   61.7910   32.8200   47.6170 C   0  0  0  0  0  0  0  0  0  0  0  0
   62.6690   31.9230   47.5010 O   0  0  0  0  0  0  0  0  0  0  0  0
   61.2610   33.4810   46.3770 C   0  0  0  0  0  0  0  0  0  0  0  0
   59.7570   33.8100   46.5200 C   0  0  0  0  0  0  0  0  0  0  0  0
   58.8880   32.5390   46.5550 C   0  0  0  0  0  0  0  0  0  0  0  0
   57.5420   32.9240   45.9490 C   0  0  0  0  0  0  0  0  0  0  0  0
   57.7590   34.2220   45.1750 C   0  0  0  0  0  0  0  0  0  0  0  0
   59.2430   34.5530   45.2790 C   0  0  0  0  0  0  0  0  0  0  0  0
   59.5370   34.6750   47.7890 C   0  0  0  0  0  0  0  0  0  0  0  0
   60.1280   34.0310   49.0130 C   0  0  0  0  0  0  0  0  0  0  0  0
   59.5850   34.2390   50.1320 O   0  0  0  0  0  0  0  0  0  0  0  0
   61.1480   29.1000   49.7960 C   0  0  0  0  0  0  0  0  0  0  0  0
   60.6580   28.3230   48.5660 C   0  0  0  0  0  0  0  0  0  0  0  0
   57.4782   24.7048   48.2992 H   0  0  0  0  0  0  0  0  0  0  0  0
   56.6114   25.0037   46.7546 H   0  0  0  0  0  0  0  0  0  0  0  0
   58.3927   24.7723   46.7546 H   0  0  0  0  0  0  0  0  0  0  0  0
   57.0979   26.4015   44.8549 H   0  0  0  0  0  0  0  0  0  0  0  0
   57.7682   28.0299   43.0914 H   0  0  0  0  0  0  0  0  0  0  0  0
   59.1510   30.0189   43.6824 H   0  0  0  0  0  0  0  0  0  0  0  0
   59.8758   30.3809   46.0381 H   0  0  0  0  0  0  0  0  0  0  0  0
   57.6682   30.0258   48.5267 H   0  0  0  0  0  0  0  0  0  0  0  0
   58.2579   29.0460   49.9220 H   0  0  0  0  0  0  0  0  0  0  0  0
   59.2618   31.6788   48.8400 H   0  0  0  0  0  0  0  0  0  0  0  0
   59.0508   31.0919   50.5565 H   0  0  0  0  0  0  0  0  0  0  0  0
   61.2650   30.8190   48.7140 H   0  0  0  0  0  0  0  0  0  0  0  0
   60.8770   31.5513   51.4853 H   0  0  0  0  0  0  0  0  0  0  0  0
   62.4834   30.8582   50.8822 H   0  0  0  0  0  0  0  0  0  0  0  0
   61.8196   33.5319   50.9371 H   0  0  0  0  0  0  0  0  0  0  0  0
   63.0906   32.7292   49.9085 H   0  0  0  0  0  0  0  0  0  0  0  0
   61.8174   34.4135   46.2013 H   0  0  0  0  0  0  0  0  0  0  0  0
   61.3881   32.7892   45.5312 H   0  0  0  0  0  0  0  0  0  0  0  0
   59.3578   31.7399   45.9627 H   0  0  0  0  0  0  0  0  0  0  0  0
   58.7712   32.1626   47.5820 H   0  0  0  0  0  0  0  0  0  0  0  0
   57.1927   32.1324   45.2697 H   0  0  0  0  0  0  0  0  0  0  0  0
   56.7807   33.0552   46.7321 H   0  0  0  0  0  0  0  0  0  0  0  0
   57.4740   34.0868   44.1212 H   0  0  0  0  0  0  0  0  0  0  0  0
   57.1431   35.0351   45.5868 H   0  0  0  0  0  0  0  0  0  0  0  0
   59.7752   34.2088   44.3799 H   0  0  0  0  0  0  0  0  0  0  0  0
   59.4088   35.6373   45.3615 H   0  0  0  0  0  0  0  0  0  0  0  0
   60.0118   35.6557   47.6382 H   0  0  0  0  0  0  0  0  0  0  0  0
   58.4536   34.7806   47.9474 H   0  0  0  0  0  0  0  0  0  0  0  0
   62.2335   28.9595   49.9057 H   0  0  0  0  0  0  0  0  0  0  0  0
   60.6281   28.7229   50.6890 H   0  0  0  0  0  0  0  0  0  0  0  0
   61.3764   28.4566   47.7438 H   0  0  0  0  0  0  0  0  0  0  0  0
   60.5750   27.2579   48.8282 H   0  0  0  0  0  0  0  0  0  0  0  0
  1  2  1  0
  2  3  1  0
  3  4  2  0
  4  5  1  0
  5  6  2  0
  6  7  1  0
  7  8  2  0
  8  9  1  0
  9 10  1  0
 10 11  1  0
 11 12  1  0
 12 13  1  0
 13 14  1  0
 14 15  1  0
 15 16  1  0
 16 17  2  0
 16 18  1  0
 18 19  1  0
 19 20  1  0
 20 21  1  0
 21 22  1  0
 22 23  1  0
 19 24  1  0
 24 25  1  0
 25 26  2  0
 12 27  1  0
 27 28  1  0
  8  3  1  0
 28  9  1  0
 25 15  1  0
 23 19  1  0
  1 29  1  0
  1 30  1  0
  1 31  1  0
  4 32  1  0
  5 33  1  0
  6 34  1  0
  7 35  1  0
 10 36  1  0
 10 37  1  0
 11 38  1  0
 11 39  1  0
 12 40  1  0
 13 41  1  0
 13 42  1  0
 14 43  1  0
 14 44  1  0
 18 45  1  0
 18 46  1  0
 20 47  1  0
 20 48  1  0
 21 49  1  0
 21 50  1  0
 22 51  1  0
 22 52  1  0
 23 53  1  0
 23 54  1  0
 24 55  1  0
 24 56  1  0
 27 57  1  0
 27 58  1  0
 28 59  1  0
 28 60  1  0
M  CHG  1  12   1
M  END
>  <UniqueID>  (10) 
10

>  <SMILES>  (10) 
COc1ccccc1N1CC[NH+](CCN2C(=O)CC3(CCCC3)CC2=O)CC1

>  <Energy>  (10) 
77.54414380253819

>  <Genealogy>  (10) 
COc1ccccc1N1CC[NH+](CCN2C(=O)CC3(CCCC3)CC2=O)CC1 (protonated)
COc1ccccc1N1CC[NH+](CCN2C(=O)CC3(CCCC3)CC2=O)CC1 (3D coordinates assigned)
COc1ccccc1N1CC[NH+](CCN2C(=O)CC3(CCCC3)CC2=O)CC1 (nonaromatic ring conformer: 77.54414380253819 kcal/mol)

>  <smiles>  (10) 
COc1ccccc1N1CCN(CCN2C(=O)CC3(CCCC3)CC2=O)CC1

>  <score_type>  (10) 
oracle

>  <origin>  (10) 
adg

>  <m_score__min__energy>  (10) 
-6.4000000000000004

>  <m_primary>  (10) 
energy

$$$$
10:0
     RDKit          3D

 53 56  0  0  0  0  0  0  0  0999 V2000
   56.2800   30.4760   43.6930 C   0  0  0  0  0  0  0  0  0  0  0  0
   56.9740   30.0680   44.9220 N   0  0  0  0  0  0  0  0  0  0  0  0
   57.1640   28.6060   44.9450 C   0  0  0  0  0  0  0  0  0  0  0  0
   57.8210   28.1650   46.2680 C   0  0  0  0  0  0  0  0  0  0  0  0
   58.2830   29.3280   47.0550 N   0  0  0  0  0  0  0  0  0  0  0  0
   59.0140   28.8880   48.2610 C   0  0  0  0  0  0  0  0  0  0  0  0
   59.6760   30.0930   48.9580 C   0  0  0  0  0  0  0  0  0  0  0  0
   58.7130   30.8600   49.8780 C   0  0  0  0  0  0  0  0  0  0  0  0
   59.0270   32.3690   50.0070 C   0  0  0  0  0  0  0  0  0  0  0  0
   59.9900   32.8390   48.9700 N   0  0  0  0  0  0  0  0  0  0  0  0
   59.5400   33.3210   47.7420 C   0  0  0  0  0  0  0  0  0  0  0  0
   58.1610   33.3580   47.3860 C   0  0  0  0  0  0  0  0  0  0  0  0
   57.7380   33.8260   46.1430 C   0  0  0  0  0  0  0  0  0  0  0  0
   58.6620   34.2860   45.2160 C   0  0  0  0  0  0  0  0  0  0  0  0
   60.0160   34.2740   45.5250 C   0  0  0  0  0  0  0  0  0  0  0  0
   60.4700   33.7920   46.7730 C   0  0  0  0  0  0  0  0  0  0  0  0
   61.8380   33.7720   47.0560 C   0  0  0  0  0  0  0  0  0  0  0  0
   62.6660   34.2010   46.2010 O   0  0  0  0  0  0  0  0  0  0  0  0
   62.2920   33.2720   48.2790 C   0  0  0  0  0  0  0  0  0  0  0  0
   63.6750   33.2410   48.5570 C   0  0  0  0  0  0  0  0  0  0  0  0
   64.1470   32.7370   49.7650 C   0  0  0  0  0  0  0  0  0  0  0  0
   66.0240   32.7010   50.1210 Br  0  0  0  0  0  0  0  0  0  0  0  0
   63.2510   32.2530   50.7080 C   0  0  0  0  0  0  0  0  0  0  0  0
   61.8800   32.2770   50.4560 C   0  0  0  0  0  0  0  0  0  0  0  0
   61.3560   32.7940   49.2360 C   0  0  0  0  0  0  0  0  0  0  0  0
   59.1070   30.2130   46.2100 C   0  0  0  0  0  0  0  0  0  0  0  0
   58.2790   30.7540   45.0260 C   0  0  0  0  0  0  0  0  0  0  0  0
   55.3589   31.0175   43.9546 H   0  0  0  0  0  0  0  0  0  0  0  0
   56.9359   31.1322   43.1021 H   0  0  0  0  0  0  0  0  0  0  0  0
   56.0256   29.5837   43.1021 H   0  0  0  0  0  0  0  0  0  0  0  0
   56.1859   28.1127   44.8451 H   0  0  0  0  0  0  0  0  0  0  0  0
   57.8212   28.3206   44.1103 H   0  0  0  0  0  0  0  0  0  0  0  0
   57.0868   27.6003   46.8613 H   0  0  0  0  0  0  0  0  0  0  0  0
   58.6940   27.5398   46.0293 H   0  0  0  0  0  0  0  0  0  0  0  0
   58.3097   28.4088   48.9570 H   0  0  0  0  0  0  0  0  0  0  0  0
   59.7962   28.1742   47.9634 H   0  0  0  0  0  0  0  0  0  0  0  0
   60.5206   29.7282   49.5610 H   0  0  0  0  0  0  0  0  0  0  0  0
   60.0025   30.7888   48.1711 H   0  0  0  0  0  0  0  0  0  0  0  0
   57.6941   30.7526   49.4775 H   0  0  0  0  0  0  0  0  0  0  0  0
   58.8235   30.4269   50.8831 H   0  0  0  0  0  0  0  0  0  0  0  0
   58.0899   32.9353   49.9016 H   0  0  0  0  0  0  0  0  0  0  0  0
   59.4879   32.5331   50.9922 H   0  0  0  0  0  0  0  0  0  0  0  0
   57.4109   33.0083   48.1106 H   0  0  0  0  0  0  0  0  0  0  0  0
   56.6661   33.8306   45.8958 H   0  0  0  0  0  0  0  0  0  0  0  0
   58.3230   34.6594   44.2384 H   0  0  0  0  0  0  0  0  0  0  0  0
   60.7443   34.6445   44.7886 H   0  0  0  0  0  0  0  0  0  0  0  0
   64.3883   33.6197   47.8101 H   0  0  0  0  0  0  0  0  0  0  0  0
   63.6248   31.8480   51.6600 H   0  0  0  0  0  0  0  0  0  0  0  0
   61.1869   31.8879   51.2164 H   0  0  0  0  0  0  0  0  0  0  0  0
   59.4683   31.0577   46.8150 H   0  0  0  0  0  0  0  0  0  0  0  0
   59.9577   29.6377   45.8158 H   0  0  0  0  0  0  0  0  0  0  0  0
   58.1067   31.8305   45.1722 H   0  0  0  0  0  0  0  0  0  0  0  0
   58.8411   30.5709   44.0984 H   0  0  0  0  0  0  0  0  0  0  0  0
  1  2  1  0
  2  3  1  0
  3  4  1  0
  4  5  1  0
  5  6  1  0
  6  7  1  0
  7  8  1  0
  8  9  1  0
  9 10  1  0
 10 11  1  0
 11 12  2  0
 12 13  1  0
 13 14  2  0
 14 15  1  0
 15 16  2  0
 16 17  1  0
 17 18  2  0
 17 19  1  0
 19 20  2  0
 20 21  1  0
 21 22  1  0
 21 23  2  0
 23 24  1  0
 24 25  2  0
  5 26  1  0
 26 27  1  0
 27  2  1  0
 25 10  1  0
 16 11  1  0
 25 19  1  0
  1 28  1  0
  1 29  1  0
  1 30  1  0
  3 31  1  0
  3 32  1  0
  4 33  1  0
  4 34  1  0
  6 35  1  0
  6 36  1  0
  7 37  1  0
  7 38  1  0
  8 39  1  0
  8 40  1  0
  9 41  1  0
  9 42  1  0
 12 43  1  0
 13 44  1  0
 14 45  1  0
 15 46  1  0
 20 47  1  0
 23 48  1  0
 24 49  1  0
 26 50  1  0
 26 51  1  0
 27 52  1  0
 27 53  1  0
M  END
>  <UniqueID>  (11) 
11

>  <SMILES>  (11) 
CN1CCN(CCCCn2c3ccccc3c(=O)c3cc(Br)ccc32)CC1

>  <Energy>  (11) 
83.08477289675331

>  <Genealogy>  (11) 
CN1CCN(CCCCn2c3ccccc3c(=O)c3cc(Br)ccc32)CC1 (3D coordinates assigned)
CN1CCN(CCCCn2c3ccccc3c(=O)c3cc(Br)ccc32)CC1 (nonaromatic ring conformer: 83.08477289675331 kcal/mol)

>  <smiles>  (11) 
CN1CCN(CCCCn2c3ccccc3c(=O)c3cc(Br)ccc32)CC1

>  <score_type>  (11) 
oracle

>  <origin>  (11) 
adg

>  <m_score__min__energy>  (11) 
-8.8300000000000001

>  <m_primary>  (11) 
energy

$$$$
11:0
     RDKit          3D

 49 50  0  0  0  0  0  0  0  0999 V2000
   59.2750   35.0410   47.4850 C   0  0  0  0  0  0  0  0  0  0  0  0
   59.9950   34.6300   46.1930 C   0  0  0  0  0  0  0  0  0  0  0  0
   60.7610   33.3190   46.4140 C   0  0  0  0  0  0  0  0  0  0  0  0
   59.0180   34.4770   45.0030 C   0  0  0  0  0  0  0  0  0  0  0  0
   57.5800   34.1090   45.4260 C   0  0  0  0  0  0  0  0  0  0  0  0
   57.4770   32.6730   45.9620 C   0  0  0  0  0  0  0  0  0  0  0  0
   56.6710   31.8470   45.0520 N   0  0  0  0  0  0  0  0  0  0  0  0
   57.4140   31.5180   43.8250 C   0  0  0  0  0  0  0  0  0  0  0  0
   56.6930   30.4140   43.0400 C   0  0  0  0  0  0  0  0  0  0  0  0
   55.9700   29.3940   43.9400 C   0  0  0  0  0  0  0  0  0  0  0  0
   56.5420   29.3400   45.2930 N   0  0  0  0  0  0  0  0  0  0  0  0
   56.8460   27.9760   45.6410 C   0  0  0  0  0  0  0  0  0  0  0  0
   58.1640   27.5880   45.9300 C   0  0  0  0  0  0  0  0  0  0  0  0
   58.4450   26.2530   46.2340 C   0  0  0  0  0  0  0  0  0  0  0  0
   59.6310   25.9160   46.4970 O   0  0  0  0  0  0  0  0  0  0  0  0
   57.4050   25.3060   46.2410 C   0  0  0  0  0  0  0  0  0  0  0  0
   57.6320   23.9500   46.5410 C   0  0  0  0  0  0  0  0  0  0  0  0
   56.5690   23.0410   46.5330 C   0  0  0  0  0  0  0  0  0  0  0  0
   55.2760   23.4730   46.2260 C   0  0  0  0  0  0  0  0  0  0  0  0
   55.0370   24.8170   45.9250 C   0  0  0  0  0  0  0  0  0  0  0  0
   56.0920   25.7360   45.9330 C   0  0  0  0  0  0  0  0  0  0  0  0
   55.8550   27.0430   45.6420 N   0  0  0  0  0  0  0  0  0  0  0  0
   59.8611   34.7065   48.3537 H   0  0  0  0  0  0  0  0  0  0  0  0
   59.1693   36.1355   47.5136 H   0  0  0  0  0  0  0  0  0  0  0  0
   58.2788   34.5755   47.5136 H   0  0  0  0  0  0  0  0  0  0  0  0
   60.7006   35.4346   45.9388 H   0  0  0  0  0  0  0  0  0  0  0  0
   60.8687   33.1347   47.4931 H   0  0  0  0  0  0  0  0  0  0  0  0
   60.2063   32.4881   45.9537 H   0  0  0  0  0  0  0  0  0  0  0  0
   61.7572   33.3943   45.9537 H   0  0  0  0  0  0  0  0  0  0  0  0
   58.9859   35.4302   44.4550 H   0  0  0  0  0  0  0  0  0  0  0  0
   59.3930   33.6495   44.3828 H   0  0  0  0  0  0  0  0  0  0  0  0
   57.2545   34.8044   46.2137 H   0  0  0  0  0  0  0  0  0  0  0  0
   56.9392   34.1813   44.5348 H   0  0  0  0  0  0  0  0  0  0  0  0
   58.4861   32.2431   46.0449 H   0  0  0  0  0  0  0  0  0  0  0  0
   56.9943   32.6930   46.9502 H   0  0  0  0  0  0  0  0  0  0  0  0
   55.8280   32.4030   44.7730 H   0  0  0  0  0  0  0  0  0  0  0  0
   57.4915   32.4175   43.1965 H   0  0  0  0  0  0  0  0  0  0  0  0
   58.4171   31.1610   44.1014 H   0  0  0  0  0  0  0  0  0  0  0  0
   55.9496   30.8846   42.3798 H   0  0  0  0  0  0  0  0  0  0  0  0
   57.4604   29.8627   42.4768 H   0  0  0  0  0  0  0  0  0  0  0  0
   54.9098   29.6775   44.0152 H   0  0  0  0  0  0  0  0  0  0  0  0
   56.0886   28.3998   43.4845 H   0  0  0  0  0  0  0  0  0  0  0  0
   55.8590   29.7260   45.9870 H   0  0  0  0  0  0  0  0  0  0  0  0
   57.4210   29.9050   45.3370 H   0  0  0  0  0  0  0  0  0  0  0  0
   58.9734   28.3328   45.9172 H   0  0  0  0  0  0  0  0  0  0  0  0
   58.6479   23.6041   46.7824 H   0  0  0  0  0  0  0  0  0  0  0  0
   56.7515   21.9823   46.7692 H   0  0  0  0  0  0  0  0  0  0  0  0
   54.4440   22.7535   46.2212 H   0  0  0  0  0  0  0  0  0  0  0  0
   54.0181   25.1526   45.6815 H   0  0  0  0  0  0  0  0  0  0  0  0
  1  2  1  0
  2  3  1  0
  2  4  1  0
  4  5  1  0
  5  6  1  0
  6  7  1  0
  7  8  1  0
  8  9  1  0
  9 10  1  0
 10 11  1  0
 11 12  1  0
 12 13  2  0
 13 14  1  0
 14 15  2  0
 14 16  1  0
 16 17  2  0
 17 18  1  0
 18 19  2  0
 19 20  1  0
 20 21  2  0
 21 22  1  0
 22 12  1  0
 21 16  1  0
  1 23  1  0
  1 24  1  0
  1 25  1  0
  2 26  1  0
  3 27  1  0
  3 28  1  0
  3 29  1  0
  4 30  1  0
  4 31  1  0
  5 32  1  0
  5 33  1  0
  6 34  1  0
  6 35  1  0
  7 36  1  0
  8 37  1  0
  8 38  1  0
  9 39  1  0
  9 40  1  0
 10 41  1  0
 10 42  1  0
 11 43  1  0
 11 44  1  0
 13 45  1  0
 17 46  1  0
 18 47  1  0
 19 48  1  0
 20 49  1  0
M  CHG  2  11   1  22  -1
M  END
>  <UniqueID>  (12) 
12

>  <SMILES>  (12) 
CC(C)CCCNCCC[NH2+]c1cc(=O)c2ccccc2[n-]1

>  <Energy>  (12) 
43.01613682889101

>  <Genealogy>  (12) 
CC(C)CCCNCCC[NH2+]c1cc(=O)c2ccccc2[n-]1 (protonated)
CC(C)CCCNCCC[NH2+]c1cc(=O)c2ccccc2[n-]1 (3D coordinates assigned)
CC(C)CCCNCCC[NH2+]c1cc(=O)c2ccccc2[n-]1 (optimized conformer: 43.01613682889101 kcal/mol)

>  <smiles>  (12) 
CC(C)CCCNCCCNc1cc(=O)c2ccccc2[nH]1

>  <score_type>  (12) 
oracle

>  <origin>  (12) 
adg

>  <m_score__min__energy>  (12) 
-7.1900000000000004

>  <m_primary>  (12) 
energy

$$$$
12:0
     RDKit          3D

 46 47  0  0  0  0  0  0  0  0999 V2000
   59.6470   22.2090   44.5870 C   0  0  0  0  0  0  0  0  0  0  0  0
   59.3180   23.1660   45.5880 O   0  0  0  0  0  0  0  0  0  0  0  0
   58.1350   23.9210   45.6200 C   0  0  0  0  0  0  0  0  0  0  0  0
   56.8780   23.3030   45.4600 C   0  0  0  0  0  0  0  0  0  0  0  0
   55.7050   24.0530   45.4880 C   0  0  0  0  0  0  0  0  0  0  0  0
   55.7600   25.4300   45.6730 C   0  0  0  0  0  0  0  0  0  0  0  0
   56.9940   26.0760   45.8350 C   0  0  0  0  0  0  0  0  0  0  0  0
   57.0260   27.5710   46.0400 C   0  0  0  0  0  0  0  0  0  0  0  0
   55.9760   28.2130   45.2590 N   0  0  0  0  0  0  0  0  0  0  0  0
   56.1400   29.4680   44.5930 C   0  0  0  0  0  0  0  0  0  0  0  0
   55.1540   30.2320   44.4130 O   0  0  0  0  0  0  0  0  0  0  0  0
   57.5050   29.9040   44.1690 C   0  0  0  0  0  0  0  0  0  0  0  0
   57.4880   31.3390   43.8670 N   0  0  0  0  0  0  0  0  0  0  0  0
   57.5490   31.7910   42.4730 C   0  0  0  0  0  0  0  0  0  0  0  0
   57.3960   32.3060   44.9330 C   0  0  0  0  0  0  0  0  0  0  0  0
   56.2690   32.7650   45.2650 O   0  0  0  0  0  0  0  0  0  0  0  0
   58.5990   32.7820   45.6430 C   0  0  0  0  0  0  0  0  0  0  0  0
   59.3970   31.8730   46.3580 C   0  0  0  0  0  0  0  0  0  0  0  0
   60.5390   32.3170   47.0320 C   0  0  0  0  0  0  0  0  0  0  0  0
   60.8990   33.6670   46.9870 C   0  0  0  0  0  0  0  0  0  0  0  0
   62.0060   34.0960   47.6410 F   0  0  0  0  0  0  0  0  0  0  0  0
   60.1240   34.5740   46.2570 C   0  0  0  0  0  0  0  0  0  0  0  0
   58.9820   34.1350   45.5800 C   0  0  0  0  0  0  0  0  0  0  0  0
   58.2740   35.0190   44.8340 F   0  0  0  0  0  0  0  0  0  0  0  0
   58.1930   25.3280   45.8170 C   0  0  0  0  0  0  0  0  0  0  0  0
   59.3960   26.0360   46.0130 O   0  0  0  0  0  0  0  0  0  0  0  0
   59.8640   26.6040   47.2310 C   0  0  0  0  0  0  0  0  0  0  0  0
   59.9689   21.2728   45.0665 H   0  0  0  0  0  0  0  0  0  0  0  0
   58.7638   22.0153   43.9605 H   0  0  0  0  0  0  0  0  0  0  0  0
   60.4626   22.5993   43.9605 H   0  0  0  0  0  0  0  0  0  0  0  0
   56.8231   22.2145   45.3111 H   0  0  0  0  0  0  0  0  0  0  0  0
   54.7323   23.5547   45.3634 H   0  0  0  0  0  0  0  0  0  0  0  0
   54.8295   26.0164   45.6924 H   0  0  0  0  0  0  0  0  0  0  0  0
   56.8727   27.7941   47.1062 H   0  0  0  0  0  0  0  0  0  0  0  0
   58.0023   27.9558   45.7102 H   0  0  0  0  0  0  0  0  0  0  0  0
   58.2210   29.7086   44.9809 H   0  0  0  0  0  0  0  0  0  0  0  0
   57.8065   29.3440   43.2715 H   0  0  0  0  0  0  0  0  0  0  0  0
   57.6961   32.8808   42.4470 H   0  0  0  0  0  0  0  0  0  0  0  0
   58.3884   31.2955   41.9633 H   0  0  0  0  0  0  0  0  0  0  0  0
   56.6083   31.5357   41.9633 H   0  0  0  0  0  0  0  0  0  0  0  0
   59.1224   30.8082   46.3877 H   0  0  0  0  0  0  0  0  0  0  0  0
   61.1549   31.6029   47.5984 H   0  0  0  0  0  0  0  0  0  0  0  0
   60.4133   35.6344   46.2154 H   0  0  0  0  0  0  0  0  0  0  0  0
   59.4201   26.0653   48.0812 H   0  0  0  0  0  0  0  0  0  0  0  0
   60.9600   26.5217   47.2767 H   0  0  0  0  0  0  0  0  0  0  0  0
   59.5736   27.6640   47.2767 H   0  0  0  0  0  0  0  0  0  0  0  0
  1  2  1  0
  2  3  1  0
  3  4  2  0
  4  5  1  0
  5  6  2  0
  6  7  1  0
  7  8  1  0
  8  9  1  0
  9 10  1  0
 10 11  2  0
 10 12  1  0
 12 13  1  0
 13 14  1  0
 13 15  1  0
 15 16  2  0
 15 17  1  0
 17 18  2  0
 18 19  1  0
 19 20  2  0
 20 21  1  0
 20 22  1  0
 22 23  2  0
 23 24  1  0
  7 25  2  0
 25 26  1  0
 26 27  1  0
 25  3  1  0
 23 17  1  0
  1 28  1  0
  1 29  1  0
  1 30  1  0
  4 31  1  0
  5 32  1  0
  6 33  1  0
  8 34  1  0
  8 35  1  0
 12 36  1  0
 12 37  1  0
 14 38  1  0
 14 39  1  0
 14 40  1  0
 18 41  1  0
 19 42  1  0
 22 43  1  0
 27 44  1  0
 27 45  1  0
 27 46  1  0
M  CHG  1   9  -1
M  END
>  <UniqueID>  (13) 
13

>  <SMILES>  (13) 
COc1cccc(C[N-]C(=O)CN(C)C(=O)c2ccc(F)cc2F)c1OC

>  <Energy>  (13) 
46.12048642009072

>  <Genealogy>  (13) 
COc1cccc(C[N-]C(=O)CN(C)C(=O)c2ccc(F)cc2F)c1OC (protonated)
COc1cccc(C[N-]C(=O)CN(C)C(=O)c2ccc(F)cc2F)c1OC (3D coordinates assigned)
COc1cccc(C[N-]C(=O)CN(C)C(=O)c2ccc(F)cc2F)c1OC (optimized conformer: 46.12048642009072 kcal/mol)

>  <smiles>  (13) 
COc1cccc(CNC(=O)CN(C)C(=O)c2ccc(F)cc2F)c1OC

>  <score_type>  (13) 
oracle

>  <origin>  (13) 
adg

>  <m_score__min__energy>  (13) 
-9.5700000000000003

>  <m_primary>  (13) 
energy

$$$$
13:0
     RDKit          3D

 36 39  0  0  0  0  0  0  0  0999 V2000
   65.7410   32.7790   49.8690 C   0  0  0  0  0  0  0  0  0  0  0  0
   64.3710   33.1190   49.3610 C   0  0  0  0  0  0  0  0  0  0  0  0
   64.1060   33.1040   47.9730 C   0  0  0  0  0  0  0  0  0  0  0  0
   62.8140   33.3890   47.5090 C   0  0  0  0  0  0  0  0  0  0  0  0
   61.8410   33.6470   48.4230 N   0  0  0  0  0  0  0  0  0  0  0  0
   60.5410   33.9700   48.2730 C   0  0  0  0  0  0  0  0  0  0  0  0
   59.7940   34.0540   46.9990 C   0  0  0  0  0  0  0  0  0  0  0  0
   59.8270   35.2170   46.2170 C   0  0  0  0  0  0  0  0  0  0  0  0
   59.1510   35.2720   45.0380 N   0  0  0  0  0  0  0  0  0  0  0  0
   58.4370   34.2110   44.5760 C   0  0  0  0  0  0  0  0  0  0  0  0
   58.3870   33.0170   45.3090 C   0  0  0  0  0  0  0  0  0  0  0  0
   57.6240   31.8540   44.8150 C   0  0  0  0  0  0  0  0  0  0  0  0
   57.4560   31.5530   43.5110 N   0  0  0  0  0  0  0  0  0  0  0  0
   56.7000   30.4390   43.5900 C   0  0  0  0  0  0  0  0  0  0  0  0
   56.2690   29.6480   42.4030 C   0  0  0  0  0  0  0  0  0  0  0  0
   56.4430   30.0760   44.8610 N   0  0  0  0  0  0  0  0  0  0  0  0
   57.0260   30.9790   45.5880 O   0  0  0  0  0  0  0  0  0  0  0  0
   59.0800   32.9460   46.5260 C   0  0  0  0  0  0  0  0  0  0  0  0
   60.0220   34.2020   49.5360 C   0  0  0  0  0  0  0  0  0  0  0  0
   60.9800   34.0130   50.4720 N   0  0  0  0  0  0  0  0  0  0  0  0
   62.0680   33.6780   49.7480 C   0  0  0  0  0  0  0  0  0  0  0  0
   63.3320   33.4040   50.2670 C   0  0  0  0  0  0  0  0  0  0  0  0
   65.7350   32.7805   50.9690 H   0  0  0  0  0  0  0  0  0  0  0  0
   66.0299   31.7819   49.5053 H   0  0  0  0  0  0  0  0  0  0  0  0
   66.4626   33.5253   49.5053 H   0  0  0  0  0  0  0  0  0  0  0  0
   64.9099   32.8697   47.2597 H   0  0  0  0  0  0  0  0  0  0  0  0
   62.5929   33.4035   46.4316 H   0  0  0  0  0  0  0  0  0  0  0  0
   60.4027   36.0898   46.5587 H   0  0  0  0  0  0  0  0  0  0  0  0
   59.1870   36.1480   44.4700 H   0  0  0  0  0  0  0  0  0  0  0  0
   57.8956   34.2900   43.6217 H   0  0  0  0  0  0  0  0  0  0  0  0
   55.7677   28.7279   42.7379 H   0  0  0  0  0  0  0  0  0  0  0  0
   55.5719   30.2458   41.7974 H   0  0  0  0  0  0  0  0  0  0  0  0
   57.1493   29.3863   41.7974 H   0  0  0  0  0  0  0  0  0  0  0  0
   59.0627   32.0153   47.1121 H   0  0  0  0  0  0  0  0  0  0  0  0
   58.9834   34.4966   49.7469 H   0  0  0  0  0  0  0  0  0  0  0  0
   63.5124   33.4102   51.3521 H   0  0  0  0  0  0  0  0  0  0  0  0
  1  2  1  0
  2  3  1  0
  3  4  2  0
  4  5  1  0
  5  6  1  0
  6  7  1  0
  7  8  2  0
  8  9  1  0
  9 10  2  0
 10 11  1  0
 11 12  1  0
 12 13  2  0
 13 14  1  0
 14 15  1  0
 14 16  2  0
 16 17  1  0
 11 18  2  0
  6 19  2  0
 19 20  1  0
 20 21  2  0
 21 22  1  0
 22  2  2  0
 21  5  1  0
 18  7  1  0
 17 12  1  0
  1 23  1  0
  1 24  1  0
  1 25  1  0
  3 26  1  0
  4 27  1  0
  8 28  1  0
  9 29  1  0
 10 30  1  0
 15 31  1  0
 15 32  1  0
 15 33  1  0
 18 34  1  0
 19 35  1  0
 22 36  1  0
M  CHG  1   9   1
M  END
>  <UniqueID>  (14) 
14

>  <SMILES>  (14) 
Cc1ccn2c(-c3c[nH+]cc(-c4nc(C)no4)c3)cnc2c1

>  <Energy>  (14) 
111.09346521671617

>  <Genealogy>  (14) 
Cc1ccn2c(-c3c[nH+]cc(-c4nc(C)no4)c3)cnc2c1 (protonated)
Cc1ccn2c(-c3c[nH+]cc(-c4nc(C)no4)c3)cnc2c1 (3D coordinates assigned)
Cc1ccn2c(-c3c[nH+]cc(-c4nc(C)no4)c3)cnc2c1 (optimized conformer: 111.09346521671617 kcal/mol)

>  <smiles>  (14) 
Cc1ccn2c(-c3cncc(-c4nc(C)no4)c3)cnc2c1

>  <score_type>  (14) 
oracle

>  <origin>  (14) 
adg

>  <m_score__min__energy>  (14) 
-6.8399999999999999

>  <m_primary>  (14) 
energy

$$$$
14:0
     RDKit          3D

 33 35  0  0  0  0  0  0  0  0999 V2000
   57.3620   32.3400   41.2980 C   0  0  0  0  0  0  0  0  0  0  0  0
   57.7520   32.0620   42.7120 C   0  0  0  0  0  0  0  0  0  0  0  0
   57.9270   33.0060   43.7070 C   0  0  0  0  0  0  0  0  0  0  0  0
   58.3650   32.2780   44.8020 C   0  0  0  0  0  0  0  0  0  0  0  0
   58.7770   32.8660   46.0950 C   0  0  0  0  0  0  0  0  0  0  0  0
   58.3770   32.2850   47.3120 C   0  0  0  0  0  0  0  0  0  0  0  0
   58.7810   32.8440   48.5280 C   0  0  0  0  0  0  0  0  0  0  0  0
   59.5960   33.9780   48.5420 C   0  0  0  0  0  0  0  0  0  0  0  0
   60.0140   34.5520   47.3380 C   0  0  0  0  0  0  0  0  0  0  0  0
   59.6120   33.9960   46.1190 C   0  0  0  0  0  0  0  0  0  0  0  0
   58.4400   30.9680   44.4540 N   0  0  0  0  0  0  0  0  0  0  0  0
   58.7600   29.8450   45.2950 C   0  0  0  0  0  0  0  0  0  0  0  0
   57.7580   29.1900   46.0310 C   0  0  0  0  0  0  0  0  0  0  0  0
   58.0780   28.0950   46.8380 C   0  0  0  0  0  0  0  0  0  0  0  0
   59.3980   27.6370   46.9070 C   0  0  0  0  0  0  0  0  0  0  0  0
   59.7060   26.5740   47.6890 F   0  0  0  0  0  0  0  0  0  0  0  0
   60.3960   28.2730   46.1650 C   0  0  0  0  0  0  0  0  0  0  0  0
   60.0800   29.3700   45.3570 C   0  0  0  0  0  0  0  0  0  0  0  0
   58.0810   30.8470   43.1850 N   0  0  0  0  0  0  0  0  0  0  0  0
   56.4664   32.9784   41.2834 H   0  0  0  0  0  0  0  0  0  0  0  0
   58.1875   32.8546   40.7844 H   0  0  0  0  0  0  0  0  0  0  0  0
   57.1448   31.3918   40.7844 H   0  0  0  0  0  0  0  0  0  0  0  0
   57.7568   34.0909   43.6437 H   0  0  0  0  0  0  0  0  0  0  0  0
   57.7430   31.3861   47.3069 H   0  0  0  0  0  0  0  0  0  0  0  0
   58.4563   32.3897   49.4757 H   0  0  0  0  0  0  0  0  0  0  0  0
   59.9088   34.4192   49.4999 H   0  0  0  0  0  0  0  0  0  0  0  0
   60.6600   35.4422   47.3491 H   0  0  0  0  0  0  0  0  0  0  0  0
   59.9513   34.4457   45.1742 H   0  0  0  0  0  0  0  0  0  0  0  0
   56.7171   29.5408   45.9716 H   0  0  0  0  0  0  0  0  0  0  0  0
   57.2911   27.5926   47.4197 H   0  0  0  0  0  0  0  0  0  0  0  0
   61.4332   27.9101   46.2163 H   0  0  0  0  0  0  0  0  0  0  0  0
   60.8680   29.8623   44.7682 H   0  0  0  0  0  0  0  0  0  0  0  0
   58.0400   29.9470   42.6560 H   0  0  0  0  0  0  0  0  0  0  0  0
  1  2  1  0
  2  3  1  0
  3  4  2  0
  4  5  1  0
  5  6  2  0
  6  7  1  0
  7  8  2  0
  8  9  1  0
  9 10  2  0
  4 11  1  0
 11 12  1  0
 12 13  2  0
 13 14  1  0
 14 15  2  0
 15 16  1  0
 15 17  1  0
 17 18  2  0
 11 19  1  0
 19  2  2  0
 10  5  1  0
 18 12  1  0
  1 20  1  0
  1 21  1  0
  1 22  1  0
  3 23  1  0
  6 24  1  0
  7 25  1  0
  8 26  1  0
  9 27  1  0
 10 28  1  0
 13 29  1  0
 14 30  1  0
 17 31  1  0
 18 32  1  0
 19 33  1  0
M  CHG  1  19   1
M  END
>  <UniqueID>  (15) 
15

>  <SMILES>  (15) 
Cc1cc(-c2ccccc2)n(-c2ccc(F)cc2)[nH+]1

>  <Energy>  (15) 
73.89962678399428

>  <Genealogy>  (15) 
Cc1cc(-c2ccccc2)n(-c2ccc(F)cc2)[nH+]1 (protonated)
Cc1cc(-c2ccccc2)n(-c2ccc(F)cc2)[nH+]1 (3D coordinates assigned)
Cc1cc(-c2ccccc2)n(-c2ccc(F)cc2)[nH+]1 (optimized conformer: 73.89962678399428 kcal/mol)

>  <smiles>  (15) 
Cc1cc(-c2ccccc2)n(-c2ccc(F)cc2)n1

>  <score_type>  (15) 
oracle

>  <origin>  (15) 
adg

>  <m_score__min__energy>  (15) 
-5.7199999999999998

>  <m_primary>  (15) 
energy

$$$$
15:0
     RDKit          3D

 33 35  0  0  0  0  0  0  0  0999 V2000
   57.6786   31.6577   42.8081 H   0  0  0  0  0  0  0  0  0  0  0  0
   58.1060   31.9090   43.7900 C   0  0  0  0  0  0  0  0  0  0  0  0
   58.2020   33.2460   44.1870 C   0  0  0  0  0  0  0  0  0  0  0  0
   57.8685   34.0422   43.5052 H   0  0  0  0  0  0  0  0  0  0  0  0
   58.7190   33.5810   45.4450 C   0  0  0  0  0  0  0  0  0  0  0  0
   58.7970   34.9360   45.7950 O   0  0  0  0  0  0  0  0  0  0  0  0
   59.6510   35.4570   46.8090 C   0  0  0  0  0  0  0  0  0  0  0  0
   59.2406   35.2066   47.7984 H   0  0  0  0  0  0  0  0  0  0  0  0
   60.6537   35.0166   46.7058 H   0  0  0  0  0  0  0  0  0  0  0  0
   59.7182   36.5501   46.7058 H   0  0  0  0  0  0  0  0  0  0  0  0
   59.1340   32.5510   46.3120 C   0  0  0  0  0  0  0  0  0  0  0  0
   59.5350   32.7995   47.3057 H   0  0  0  0  0  0  0  0  0  0  0  0
   59.0380   31.2140   45.9140 C   0  0  0  0  0  0  0  0  0  0  0  0
   59.3445   30.4135   46.6034 H   0  0  0  0  0  0  0  0  0  0  0  0
   58.5520   30.8900   44.6380 C   0  0  0  0  0  0  0  0  0  0  0  0
   58.3950   29.5230   44.2440 N   0  0  0  0  0  0  0  0  0  0  0  0
   57.6790   28.6150   44.8440 C   0  0  0  0  0  0  0  0  0  0  0  0
   58.0990   27.4540   45.4860 C   0  0  0  0  0  0  0  0  0  0  0  0
   59.3290   26.8050   45.6360 C   0  0  0  0  0  0  0  0  0  0  0  0
   60.2518   27.2339   45.2182 H   0  0  0  0  0  0  0  0  0  0  0  0
   59.3480   25.5850   46.3390 C   0  0  0  0  0  0  0  0  0  0  0  0
   60.3013   25.0580   46.4921 H   0  0  0  0  0  0  0  0  0  0  0  0
   58.1520   25.0330   46.8490 C   0  0  0  0  0  0  0  0  0  0  0  0
   58.1823   24.0850   47.4060 H   0  0  0  0  0  0  0  0  0  0  0  0
   56.9240   25.6860   46.6500 C   0  0  0  0  0  0  0  0  0  0  0  0
   55.9852   25.2576   47.0310 H   0  0  0  0  0  0  0  0  0  0  0  0
   56.9330   26.8930   45.9550 C   0  0  0  0  0  0  0  0  0  0  0  0
   55.8650   27.6390   45.6160 N   0  0  0  0  0  0  0  0  0  0  0  0
   56.3280   28.6750   44.9270 N   0  0  0  0  0  0  0  0  0  0  0  0
   55.4790   29.7450   44.4160 C   0  0  0  0  0  0  0  0  0  0  0  0
   55.0397   30.2987   45.2589 H   0  0  0  0  0  0  0  0  0  0  0  0
   56.0820   30.4299   43.8019 H   0  0  0  0  0  0  0  0  0  0  0  0
   54.6749   29.3134   43.8019 H   0  0  0  0  0  0  0  0  0  0  0  0
  1  2  1  0
  2  3  2  0
  3  4  1  0
  3  5  1  0
  5  6  1  0
  6  7  1  0
  7  8  1  0
  7  9  1  0
  7 10  1  0
  5 11  2  0
 11 12  1  0
 11 13  1  0
 13 14  1  0
 13 15  2  0
 15 16  1  0
 16 17  2  0
 17 18  1  0
 18 19  2  0
 19 20  1  0
 19 21  1  0
 21 22  1  0
 21 23  2  0
 23 24  1  0
 23 25  1  0
 25 26  1  0
 25 27  2  0
 27 28  1  0
 28 29  1  0
 29 30  1  0
 30 31  1  0
 30 32  1  0
 30 33  1  0
 15  2  1  0
 29 17  1  0
 27 18  1  0
M  CHG  1  28  -1
M  END
>  <UniqueID>  (16) 
16

>  <SMILES>  (16) 
COc1ccc(/N=c2\c3ccccc3[n-]n2C)cc1

>  <Energy>  (16) 
84.75264023643064

>  <Genealogy>  (16) 
COc1ccc(N=c2c3ccccc3[n-]n2C)cc1 (protonated)
COc1ccc(/N=c2\c3ccccc3[n-]n2C)cc1 (cis-trans isomerization)
COc1ccc(/N=c2\c3ccccc3[n-]n2C)cc1 (3D coordinates assigned)
COc1ccc(/N=c2\c3ccccc3[n-]n2C)cc1 (optimized conformer: 84.75264023643064 kcal/mol)

>  <smiles>  (16) 
COc1ccc(N=c2c3ccccc3[nH]n2C)cc1

>  <score_type>  (16) 
oracle

>  <origin>  (16) 
adg

>  <m_score__min__energy>  (16) 
-7.8099999999999996

>  <m_primary>  (16) 
energy

$$$$
16:0
     RDKit          3D

 50 52  0  0  0  0  0  0  0  0999 V2000
   62.6080   34.2010   49.9240 C   0  0  0  0  0  0  0  0  0  0  0  0
   61.4980   34.1970   48.8810 C   0  0  0  0  0  0  0  0  0  0  0  0
   61.3880   32.8750   48.2600 N   0  0  0  0  0  0  0  0  0  0  0  0
   62.3470   32.3400   47.5200 N   0  0  0  0  0  0  0  0  0  0  0  0
   61.9880   31.0940   47.1690 C   0  0  0  0  0  0  0  0  0  0  0  0
   60.7520   30.8100   47.7260 C   0  0  0  0  0  0  0  0  0  0  0  0
   60.0210   29.5300   47.5950 C   0  0  0  0  0  0  0  0  0  0  0  0
   60.3620   28.4170   48.3770 C   0  0  0  0  0  0  0  0  0  0  0  0
   59.6790   27.2070   48.2270 C   0  0  0  0  0  0  0  0  0  0  0  0
   58.6420   27.0800   47.2820 C   0  0  0  0  0  0  0  0  0  0  0  0
   57.9470   25.8710   47.1120 O   0  0  0  0  0  0  0  0  0  0  0  0
   58.1060   24.9900   46.0010 C   0  0  0  0  0  0  0  0  0  0  0  0
   58.3020   28.1970   46.4880 C   0  0  0  0  0  0  0  0  0  0  0  0
   56.9880   28.1600   45.3050 S   0  0  0  0  0  0  0  0  0  0  0  0
   55.9000   27.1890   45.6790 O   0  0  0  0  0  0  0  0  0  0  0  0
   57.5480   27.7480   43.9740 O   0  0  0  0  0  0  0  0  0  0  0  0
   56.3170   29.7540   45.1650 N   0  0  0  0  0  0  0  0  0  0  0  0
   56.9660   30.8740   44.5480 C   0  0  0  0  0  0  0  0  0  0  0  0
   56.9760   31.0550   43.1530 C   0  0  0  0  0  0  0  0  0  0  0  0
   57.6440   32.1420   42.5860 C   0  0  0  0  0  0  0  0  0  0  0  0
   57.6730   32.3410   40.8420 Cl  0  0  0  0  0  0  0  0  0  0  0  0
   58.3010   33.0610   43.4060 C   0  0  0  0  0  0  0  0  0  0  0  0
   58.2950   32.9030   44.8050 C   0  0  0  0  0  0  0  0  0  0  0  0
   58.9260   33.9560   45.6810 C   0  0  0  0  0  0  0  0  0  0  0  0
   60.2550   33.6690   45.9290 F   0  0  0  0  0  0  0  0  0  0  0  0
   58.8610   35.1970   45.0670 F   0  0  0  0  0  0  0  0  0  0  0  0
   58.2440   34.0110   46.8830 F   0  0  0  0  0  0  0  0  0  0  0  0
   57.6080   31.8100   45.3630 C   0  0  0  0  0  0  0  0  0  0  0  0
   58.9950   29.4060   46.6470 C   0  0  0  0  0  0  0  0  0  0  0  0
   60.3900   31.9720   48.4000 C   0  0  0  0  0  0  0  0  0  0  0  0
   59.1240   32.2010   49.1800 C   0  0  0  0  0  0  0  0  0  0  0  0
   62.1650   34.1994   50.9309 H   0  0  0  0  0  0  0  0  0  0  0  0
   63.2335   33.3051   49.7972 H   0  0  0  0  0  0  0  0  0  0  0  0
   63.2271   35.1014   49.7972 H   0  0  0  0  0  0  0  0  0  0  0  0
   60.5437   34.4506   49.3658 H   0  0  0  0  0  0  0  0  0  0  0  0
   61.7349   34.9385   48.1038 H   0  0  0  0  0  0  0  0  0  0  0  0
   63.2450   32.8130   47.2690 H   0  0  0  0  0  0  0  0  0  0  0  0
   62.5792   30.4107   46.5416 H   0  0  0  0  0  0  0  0  0  0  0  0
   61.1740   28.4970   49.1147 H   0  0  0  0  0  0  0  0  0  0  0  0
   59.9539   26.3453   48.8530 H   0  0  0  0  0  0  0  0  0  0  0  0
   58.2903   23.9689   46.3662 H   0  0  0  0  0  0  0  0  0  0  0  0
   57.1913   25.0014   45.3901 H   0  0  0  0  0  0  0  0  0  0  0  0
   58.9590   25.3205   45.3901 H   0  0  0  0  0  0  0  0  0  0  0  0
   56.4542   30.3356   42.5048 H   0  0  0  0  0  0  0  0  0  0  0  0
   58.8275   33.9153   42.9556 H   0  0  0  0  0  0  0  0  0  0  0  0
   57.5756   31.6903   46.4560 H   0  0  0  0  0  0  0  0  0  0  0  0
   58.7299   30.2694   46.0191 H   0  0  0  0  0  0  0  0  0  0  0  0
   59.3445   32.1611   50.2569 H   0  0  0  0  0  0  0  0  0  0  0  0
   58.7108   33.1885   48.9267 H   0  0  0  0  0  0  0  0  0  0  0  0
   58.3911   31.4209   48.9267 H   0  0  0  0  0  0  0  0  0  0  0  0
  1  2  1  0
  2  3  1  0
  3  4  1  0
  4  5  2  0
  5  6  1  0
  6  7  1  0
  7  8  2  0
  8  9  1  0
  9 10  2  0
 10 11  1  0
 11 12  1  0
 10 13  1  0
 13 14  1  0
 14 15  2  0
 14 16  2  0
 14 17  1  0
 17 18  1  0
 18 19  2  0
 19 20  1  0
 20 21  1  0
 20 22  2  0
 22 23  1  0
 23 24  1  0
 24 25  1  0
 24 26  1  0
 24 27  1  0
 23 28  2  0
 13 29  2  0
  6 30  2  0
 30 31  1  0
 30  3  1  0
 29  7  1  0
 28 18  1  0
  1 32  1  0
  1 33  1  0
  1 34  1  0
  2 35  1  0
  2 36  1  0
  4 37  1  0
  5 38  1  0
  8 39  1  0
  9 40  1  0
 12 41  1  0
 12 42  1  0
 12 43  1  0
 19 44  1  0
 22 45  1  0
 28 46  1  0
 29 47  1  0
 31 48  1  0
 31 49  1  0
 31 50  1  0
M  CHG  2   4   1  17  -1
M  END
>  <UniqueID>  (17) 
17

>  <SMILES>  (17) 
CCn1[nH+]cc(-c2ccc(OC)c(S(=O)(=O)[N-]c3cc(Cl)cc(C(F)(F)F)c3)c2)c1C

>  <Energy>  (17) 
87.64957832965952

>  <Genealogy>  (17) 
CCn1[nH+]cc(-c2ccc(OC)c(S(=O)(=O)[N-]c3cc(Cl)cc(C(F)(F)F)c3)c2)c1C (protonated)
CCn1[nH+]cc(-c2ccc(OC)c(S(=O)(=O)[N-]c3cc(Cl)cc(C(F)(F)F)c3)c2)c1C (3D coordinates assigned)
CCn1[nH+]cc(-c2ccc(OC)c(S(=O)(=O)[N-]c3cc(Cl)cc(C(F)(F)F)c3)c2)c1C (optimized conformer: 87.64957832965952 kcal/mol)

>  <smiles>  (17) 
CCn1ncc(-c2ccc(OC)c(S(=O)(=O)Nc3cc(Cl)cc(C(F)(F)F)c3)c2)c1C

>  <score_type>  (17) 
oracle

>  <origin>  (17) 
adg

>  <m_score__min__energy>  (17) 
-8.7100000000000009

>  <m_primary>  (17) 
energy

$$$$
17:0
     RDKit          3D

 44 47  0  0  0  0  0  0  0  0999 V2000
   57.7600   32.2150   42.8760 C   0  0  0  0  0  0  0  0  0  0  0  0
   57.9200   32.7870   44.2050 N   0  0  0  0  0  0  0  0  0  0  0  0
   57.0060   32.7580   45.1930 C   0  0  0  0  0  0  0  0  0  0  0  0
   57.5150   33.4380   46.2770 C   0  0  0  0  0  0  0  0  0  0  0  0
   58.7620   33.8780   45.8570 C   0  0  0  0  0  0  0  0  0  0  0  0
   59.7310   34.6440   46.6570 C   0  0  0  0  0  0  0  0  0  0  0  0
   59.6430   35.8990   46.7000 O   0  0  0  0  0  0  0  0  0  0  0  0
   60.7730   33.9850   47.3900 N   0  0  0  0  0  0  0  0  0  0  0  0
   61.5620   32.9540   46.7060 C   0  0  0  0  0  0  0  0  0  0  0  0
   61.7150   31.6720   47.5320 C   0  0  0  0  0  0  0  0  0  0  0  0
   60.4200   31.2500   48.1010 N   0  0  0  0  0  0  0  0  0  0  0  0
   59.7310   30.1170   47.4620 C   0  0  0  0  0  0  0  0  0  0  0  0
   59.5380   30.3970   45.9700 C   0  0  0  0  0  0  0  0  0  0  0  0
   59.8890   29.2470   45.0450 C   0  0  0  0  0  0  0  0  0  0  0  0
   58.4360   29.5950   45.3020 C   0  0  0  0  0  0  0  0  0  0  0  0
   59.7960   31.8940   49.2510 C   0  0  0  0  0  0  0  0  0  0  0  0
   58.9720   31.1410   50.0370 N   0  0  0  0  0  0  0  0  0  0  0  0
   58.3180   31.6290   51.1220 C   0  0  0  0  0  0  0  0  0  0  0  0
   58.4680   32.9610   51.4810 C   0  0  0  0  0  0  0  0  0  0  0  0
   59.2970   33.7760   50.7190 C   0  0  0  0  0  0  0  0  0  0  0  0
   59.9730   33.2690   49.5900 C   0  0  0  0  0  0  0  0  0  0  0  0
   60.8700   34.2140   48.8310 C   0  0  0  0  0  0  0  0  0  0  0  0
   58.9880   33.4680   44.5930 N   0  0  0  0  0  0  0  0  0  0  0  0
   57.4646   31.1591   42.9644 H   0  0  0  0  0  0  0  0  0  0  0  0
   56.9823   32.7688   42.3297 H   0  0  0  0  0  0  0  0  0  0  0  0
   58.7122   32.2849   42.3297 H   0  0  0  0  0  0  0  0  0  0  0  0
   56.0198   32.2733   45.1429 H   0  0  0  0  0  0  0  0  0  0  0  0
   57.0396   33.5967   47.2562 H   0  0  0  0  0  0  0  0  0  0  0  0
   61.0641   32.7029   45.7578 H   0  0  0  0  0  0  0  0  0  0  0  0
   62.5699   33.3638   46.5441 H   0  0  0  0  0  0  0  0  0  0  0  0
   62.1012   30.8711   46.8844 H   0  0  0  0  0  0  0  0  0  0  0  0
   62.4127   31.8699   48.3591 H   0  0  0  0  0  0  0  0  0  0  0  0
   60.3348   29.2060   47.5867 H   0  0  0  0  0  0  0  0  0  0  0  0
   58.7471   29.9795   47.9342 H   0  0  0  0  0  0  0  0  0  0  0  0
   59.8053   31.4627   46.0243 H   0  0  0  0  0  0  0  0  0  0  0  0
   60.3373   29.4498   44.0612 H   0  0  0  0  0  0  0  0  0  0  0  0
   60.4977   28.3351   45.1346 H   0  0  0  0  0  0  0  0  0  0  0  0
   57.8302   30.0505   44.5048 H   0  0  0  0  0  0  0  0  0  0  0  0
   57.5541   29.0405   45.6553 H   0  0  0  0  0  0  0  0  0  0  0  0
   57.6694   30.9687   51.7164 H   0  0  0  0  0  0  0  0  0  0  0  0
   57.9385   33.3661   52.3560 H   0  0  0  0  0  0  0  0  0  0  0  0
   59.4276   34.8313   51.0006 H   0  0  0  0  0  0  0  0  0  0  0  0
   60.5707   35.2493   49.0516 H   0  0  0  0  0  0  0  0  0  0  0  0
   61.9096   34.0382   49.1446 H   0  0  0  0  0  0  0  0  0  0  0  0
  1  2  1  0
  2  3  1  0
  3  4  2  0
  4  5  1  0
  5  6  1  0
  6  7  2  0
  6  8  1  0
  8  9  1  0
  9 10  1  0
 10 11  1  0
 11 12  1  0
 12 13  1  0
 13 14  1  0
 14 15  1  0
 11 16  1  0
 16 17  2  0
 17 18  1  0
 18 19  2  0
 19 20  1  0
 20 21  2  0
 21 22  1  0
  5 23  2  0
 23  2  1  0
 22  8  1  0
 15 13  1  0
 21 16  1  0
  1 24  1  0
  1 25  1  0
  1 26  1  0
  3 27  1  0
  4 28  1  0
  9 29  1  0
  9 30  1  0
 10 31  1  0
 10 32  1  0
 12 33  1  0
 12 34  1  0
 13 35  1  0
 14 36  1  0
 14 37  1  0
 15 38  1  0
 15 39  1  0
 18 40  1  0
 19 41  1  0
 20 42  1  0
 22 43  1  0
 22 44  1  0
M  END
>  <UniqueID>  (18) 
18

>  <SMILES>  (18) 
Cn1ccc(C(=O)N2CCN(CC3CC3)c3ncccc3C2)n1

>  <Energy>  (18) 
348.7387338682927

>  <Genealogy>  (18) 
Cn1ccc(C(=O)N2CCN(CC3CC3)c3ncccc3C2)n1 (3D coordinates assigned)
Cn1ccc(C(=O)N2CCN(CC3CC3)c3ncccc3C2)n1 (nonaromatic ring conformer: 348.7387338682927 kcal/mol)

>  <smiles>  (18) 
Cn1ccc(C(=O)N2CCN(CC3CC3)c3ncccc3C2)n1

>  <score_type>  (18) 
oracle

>  <origin>  (18) 
adg

>  <m_score__min__energy>  (18) 
-5.5999999999999996

>  <m_primary>  (18) 
energy

$$$$
18:0
     RDKit          3D

 52 55  0  0  0  0  0  0  0  0999 V2000
   61.7983   28.6566   46.3347 H   0  0  0  0  0  0  0  0  0  0  0  0
   60.7260   28.5440   46.1170 C   0  0  0  0  0  0  0  0  0  0  0  0
   60.2830   28.5010   44.7930 C   0  0  0  0  0  0  0  0  0  0  0  0
   61.0074   28.5797   43.9689 H   0  0  0  0  0  0  0  0  0  0  0  0
   58.9200   28.3580   44.5130 C   0  0  0  0  0  0  0  0  0  0  0  0
   58.5751   28.3269   43.4689 H   0  0  0  0  0  0  0  0  0  0  0  0
   57.9900   28.2540   45.5610 C   0  0  0  0  0  0  0  0  0  0  0  0
   56.5210   28.1270   45.2540 C   0  0  0  0  0  0  0  0  0  0  0  0
   55.9872   27.8104   46.1622 H   0  0  0  0  0  0  0  0  0  0  0  0
   56.3869   27.3812   44.4566 H   0  0  0  0  0  0  0  0  0  0  0  0
   55.9810   29.4080   44.8000 N   0  0  0  0  0  0  0  0  0  0  0  0
   56.6950   30.4570   44.5230 C   0  0  0  0  0  0  0  0  0  0  0  0
   57.0460   31.3100   45.5330 N   0  0  0  0  0  0  0  0  0  0  0  0
   57.7730   32.4110   45.2200 C   0  0  0  0  0  0  0  0  0  0  0  0
   58.1760   32.6770   43.9610 C   0  0  0  0  0  0  0  0  0  0  0  0
   58.9120   33.8000   43.9260 N   0  0  0  0  0  0  0  0  0  0  0  0
   58.9280   34.1900   45.2310 C   0  0  0  0  0  0  0  0  0  0  0  0
   59.6710   35.4140   45.6670 C   0  0  0  0  0  0  0  0  0  0  0  0
   59.6963   35.4556   46.7659 H   0  0  0  0  0  0  0  0  0  0  0  0
   60.6992   35.3769   45.2777 H   0  0  0  0  0  0  0  0  0  0  0  0
   59.1636   36.3090   45.2777 H   0  0  0  0  0  0  0  0  0  0  0  0
   58.2020   33.3720   46.0530 N   0  0  0  0  0  0  0  0  0  0  0  0
   58.0270   33.4070   47.5130 C   0  0  0  0  0  0  0  0  0  0  0  0
   58.0297   34.4589   47.8349 H   0  0  0  0  0  0  0  0  0  0  0  0
   57.0771   32.8957   47.7281 H   0  0  0  0  0  0  0  0  0  0  0  0
   59.1280   32.6520   48.3090 C   0  0  2  0  0  0  0  0  0  0  0  0
   58.5682   32.0978   49.0768 H   0  0  0  0  0  0  0  0  0  0  0  0
   60.0800   33.5710   49.1150 C   0  0  0  0  0  0  0  0  0  0  0  0
   59.4972   34.4326   49.4728 H   0  0  0  0  0  0  0  0  0  0  0  0
   60.4901   32.9474   49.9230 H   0  0  0  0  0  0  0  0  0  0  0  0
   61.2980   34.1110   48.3360 C   0  0  0  0  0  0  0  0  0  0  0  0
   61.0409   35.1044   47.9398 H   0  0  0  0  0  0  0  0  0  0  0  0
   62.1388   34.1384   49.0448 H   0  0  0  0  0  0  0  0  0  0  0  0
   61.7430   33.2190   47.1550 C   0  0  1  0  0  0  0  0  0  0  0  0
   61.1963   33.5487   46.2592 H   0  0  0  0  0  0  0  0  0  0  0  0
   63.2440   33.3790   46.8840 C   0  0  0  0  0  0  0  0  0  0  0  0
   63.7851   33.4367   47.8400 H   0  0  0  0  0  0  0  0  0  0  0  0
   63.6070   32.5145   46.3088 H   0  0  0  0  0  0  0  0  0  0  0  0
   63.4166   34.3006   46.3088 H   0  0  0  0  0  0  0  0  0  0  0  0
   61.3890   31.7500   47.4090 C   0  0  0  0  0  0  0  0  0  0  0  0
   61.7890   31.1355   46.5891 H   0  0  0  0  0  0  0  0  0  0  0  0
   61.8299   31.4414   48.3684 H   0  0  0  0  0  0  0  0  0  0  0  0
   59.8670   31.5620   47.4830 C   0  0  0  0  0  0  0  0  0  0  0  0
   59.4677   31.5764   46.4581 H   0  0  0  0  0  0  0  0  0  0  0  0
   59.6921   30.6049   47.9961 H   0  0  0  0  0  0  0  0  0  0  0  0
   57.8370   31.8230   42.9250 C   0  0  0  0  0  0  0  0  0  0  0  0
   58.1553   32.0256   41.8918 H   0  0  0  0  0  0  0  0  0  0  0  0
   57.0930   30.7200   43.2330 N   0  0  0  0  0  0  0  0  0  0  0  0
   58.4430   28.3000   46.8910 C   0  0  0  0  0  0  0  0  0  0  0  0
   57.7226   28.2225   47.7187 H   0  0  0  0  0  0  0  0  0  0  0  0
   59.8070   28.4440   47.1650 C   0  0  0  0  0  0  0  0  0  0  0  0
   60.1570   28.4786   48.2073 H   0  0  0  0  0  0  0  0  0  0  0  0
  1  2  1  0
  2  3  2  0
  3  4  1  0
  3  5  1  0
  5  6  1  0
  5  7  2  0
  7  8  1  0
  8  9  1  0
  8 10  1  0
  8 11  1  0
 11 12  2  0
 12 13  1  0
 13 14  2  0
 14 15  1  0
 15 16  1  0
 16 17  2  0
 17 18  1  0
 18 19  1  0
 18 20  1  0
 18 21  1  0
 17 22  1  0
 22 23  1  0
 23 24  1  0
 23 25  1  0
 23 26  1  0
 26 27  1  1
 26 28  1  0
 28 29  1  0
 28 30  1  0
 28 31  1  0
 31 32  1  0
 31 33  1  0
 31 34  1  0
 34 35  1  6
 34 36  1  0
 36 37  1  0
 36 38  1  0
 36 39  1  0
 34 40  1  0
 40 41  1  0
 40 42  1  0
 40 43  1  0
 43 44  1  0
 43 45  1  0
 15 46  2  0
 46 47  1  0
 46 48  1  0
  7 49  1  0
 49 50  1  0
 49 51  2  0
 51 52  1  0
 51  2  1  0
 48 12  1  0
 22 14  1  0
 43 26  1  0
M  CHG  1  48  -1
M  END
>  <UniqueID>  (19) 
19

>  <SMILES>  (19) 
Cc1nc2c[n-]/c(=N\Cc3ccccc3)nc2n1CC1CCC(C)CC1

>  <Energy>  (19) 
97.43285726242644

>  <Genealogy>  (19) 
Cc1nc2c[n-]c(=NCc3ccccc3)nc2n1CC1CCC(C)CC1 (protonated)
Cc1nc2c[n-]/c(=N\Cc3ccccc3)nc2n1CC1CCC(C)CC1 (cis-trans isomerization)
Cc1nc2c[n-]/c(=N\Cc3ccccc3)nc2n1CC1CCC(C)CC1 (3D coordinates assigned)
Cc1nc2c[n-]/c(=N\Cc3ccccc3)nc2n1CC1CCC(C)CC1 (nonaromatic ring conformer: 97.43285726242644 kcal/mol)

>  <smiles>  (19) 
Cc1nc2c[nH]c(=NCc3ccccc3)nc2n1CC1CCC(C)CC1

>  <score_type>  (19) 
oracle

>  <origin>  (19) 
adg

>  <m_score__min__energy>  (19) 
-10.42

>  <m_primary>  (19) 
energy

$$$$
19:0
     RDKit          3D

 40 42  0  0  0  0  0  0  0  0999 V2000
   54.6730   24.0950   46.1640 H   0  0  0  0  0  0  0  0  0  0  0  0
   54.7300   25.1230   45.9890 N   0  0  0  0  0  0  0  0  0  0  0  0
   55.8640   25.7500   46.0040 C   0  0  0  0  0  0  0  0  0  0  0  0
   55.9030   27.0880   45.7630 N   0  0  0  0  0  0  0  0  0  0  0  0
   57.0690   27.7910   45.7660 C   0  0  0  0  0  0  0  0  0  0  0  0
   57.0560   29.2110   45.4980 N   0  0  0  0  0  0  0  0  0  0  0  0
   57.7970   30.1470   46.3600 C   0  0  0  0  0  0  0  0  0  0  0  0
   58.7374   29.6684   46.6707 H   0  0  0  0  0  0  0  0  0  0  0  0
   57.1537   30.3829   47.2205 H   0  0  0  0  0  0  0  0  0  0  0  0
   58.1250   31.4510   45.6680 C   0  0  0  0  0  0  0  0  0  0  0  0
   58.8440   32.4290   46.3740 C   0  0  0  0  0  0  0  0  0  0  0  0
   59.1533   32.2368   47.4120 H   0  0  0  0  0  0  0  0  0  0  0  0
   59.1690   33.6440   45.7670 C   0  0  0  0  0  0  0  0  0  0  0  0
   59.7310   34.4049   46.3283 H   0  0  0  0  0  0  0  0  0  0  0  0
   58.7820   33.8950   44.4490 C   0  0  0  0  0  0  0  0  0  0  0  0
   59.0426   34.8515   43.9724 H   0  0  0  0  0  0  0  0  0  0  0  0
   58.0640   32.9320   43.7350 C   0  0  0  0  0  0  0  0  0  0  0  0
   57.7690   33.1301   42.6940 H   0  0  0  0  0  0  0  0  0  0  0  0
   57.7170   31.7130   44.3390 C   0  0  0  0  0  0  0  0  0  0  0  0
   56.9800   30.6720   43.5410 C   0  0  0  0  0  0  0  0  0  0  0  0
   57.7065   30.0695   42.9760 H   0  0  0  0  0  0  0  0  0  0  0  0
   56.2871   31.1795   42.8538 H   0  0  0  0  0  0  0  0  0  0  0  0
   56.1770   29.7570   44.4570 C   0  0  0  0  0  0  0  0  0  0  0  0
   55.7501   28.9319   43.8680 H   0  0  0  0  0  0  0  0  0  0  0  0
   55.3650   30.3309   44.9274 H   0  0  0  0  0  0  0  0  0  0  0  0
   58.2650   27.1020   46.0330 C   0  0  0  0  0  0  0  0  0  0  0  0
   59.2234   27.6417   46.0458 H   0  0  0  0  0  0  0  0  0  0  0  0
   58.2300   25.7660   46.2750 N   0  0  0  0  0  0  0  0  0  0  0  0
   57.0610   25.0660   46.2650 C   0  0  0  0  0  0  0  0  0  0  0  0
   57.0500   23.7850   46.4980 N   0  0  0  0  0  0  0  0  0  0  0  0
   56.8210   22.7480   45.4900 C   0  0  0  0  0  0  0  0  0  0  0  0
   57.3302   21.8249   45.8039 H   0  0  0  0  0  0  0  0  0  0  0  0
   55.7369   22.5843   45.4012 H   0  0  0  0  0  0  0  0  0  0  0  0
   57.3600   23.1740   44.1170 C   0  0  0  0  0  0  0  0  0  0  0  0
   57.8728   24.1416   44.2214 H   0  0  0  0  0  0  0  0  0  0  0  0
   58.0510   22.3934   43.7661 H   0  0  0  0  0  0  0  0  0  0  0  0
   56.2450   23.3160   43.0840 C   0  0  0  0  0  0  0  0  0  0  0  0
   55.2810   23.4388   43.5995 H   0  0  0  0  0  0  0  0  0  0  0  0
   56.4387   24.1967   42.4541 H   0  0  0  0  0  0  0  0  0  0  0  0
   56.2118   22.4148   42.4541 H   0  0  0  0  0  0  0  0  0  0  0  0
  1  2  1  0
  2  3  2  0
  3  4  1  0
  4  5  1  0
  5  6  1  0
  6  7  1  0
  7  8  1  0
  7  9  1  0
  7 10  1  0
 10 11  2  0
 11 12  1  0
 11 13  1  0
 13 14  1  0
 13 15  2  0
 15 16  1  0
 15 17  1  0
 17 18  1  0
 17 19  2  0
 19 20  1  0
 20 21  1  0
 20 22  1  0
 20 23  1  0
 23 24  1  0
 23 25  1  0
  5 26  2  0
 26 27  1  0
 26 28  1  0
 28 29  1  0
 29 30  2  0
 30 31  1  0
 31 32  1  0
 31 33  1  0
 31 34  1  0
 34 35  1  0
 34 36  1  0
 34 37  1  0
 37 38  1  0
 37 39  1  0
 37 40  1  0
 29  3  1  0
 23  6  1  0
 19 10  1  0
M  CHG  2   4  -1  28  -1
M  END
>  <UniqueID>  (20) 
20

>  <SMILES>  (20) 
[H]/N=c1\[n-]c(N2CCc3ccccc3C2)c[n-]\c1=N/CCC

>  <Energy>  (20) 
43.8031126760582

>  <Genealogy>  (20) 
CCCN=c1[n-]cc(N2CCc3ccccc3C2)[n-]c1=N (protonated)
[H]/N=c1\[n-]c(N2CCc3ccccc3C2)c[n-]\c1=N/CCC (cis-trans isomerization)
[H]/N=c1\[n-]c(N2CCc3ccccc3C2)c[n-]\c1=N/CCC (3D coordinates assigned)
[H]/N=c1\[n-]c(N2CCc3ccccc3C2)c[n-]\c1=N/CCC (nonaromatic ring conformer: 43.8031126760582 kcal/mol)

>  <smiles>  (20) 
CCCN=c1[nH]cc(N2CCc3ccccc3C2)[nH]c1=N

>  <score_type>  (20) 
oracle

>  <origin>  (20) 
adg

>  <m_score__min__energy>  (20) 
-10.640000000000001

>  <m_primary>  (20) 
energy

$$$$
20:0
     RDKit          3D

 39 39  0  0  0  0  0  0  0  0999 V2000
   59.0720   34.5500   45.4750 C   0  0  0  0  0  0  0  0  0  0  0  0
   58.1880   33.4230   46.0000 C   0  0  0  0  0  0  0  0  0  0  0  0
   57.0360   33.1250   45.0340 C   0  0  0  0  0  0  0  0  0  0  0  0
   57.4130   32.0490   44.1070 N   0  0  0  0  0  0  0  0  0  0  0  0
   58.1440   32.3960   42.8800 C   0  0  0  0  0  0  0  0  0  0  0  0
   57.3580   31.9610   41.6480 C   0  0  0  0  0  0  0  0  0  0  0  0
   57.0680   30.6700   44.3720 C   0  0  0  0  0  0  0  0  0  0  0  0
   55.9290   30.3910   44.8380 O   0  0  0  0  0  0  0  0  0  0  0  0
   57.9900   29.6050   44.0950 N   0  0  0  0  0  0  0  0  0  0  0  0
   57.9380   28.3380   44.7630 C   0  0  0  0  0  0  0  0  0  0  0  0
   57.7690   27.1160   44.1550 C   0  0  0  0  0  0  0  0  0  0  0  0
   57.8640   26.1670   45.1090 N   0  0  0  0  0  0  0  0  0  0  0  0
   57.7960   24.7260   44.8890 C   0  0  0  0  0  0  0  0  0  0  0  0
   57.0180   24.4230   43.6160 C   0  0  0  0  0  0  0  0  0  0  0  0
   58.1280   26.7220   46.2830 N   0  0  0  0  0  0  0  0  0  0  0  0
   58.1860   28.0560   46.1000 C   0  0  0  0  0  0  0  0  0  0  0  0
   58.5250   29.0220   47.1900 C   0  0  0  0  0  0  0  0  0  0  0  0
   59.5047   35.1017   46.3226 H   0  0  0  0  0  0  0  0  0  0  0  0
   59.8810   34.1262   44.8619 H   0  0  0  0  0  0  0  0  0  0  0  0
   58.4677   35.2348   44.8619 H   0  0  0  0  0  0  0  0  0  0  0  0
   58.7980   32.5157   46.1215 H   0  0  0  0  0  0  0  0  0  0  0  0
   57.7613   33.7360   46.9643 H   0  0  0  0  0  0  0  0  0  0  0  0
   56.1511   32.8149   45.6092 H   0  0  0  0  0  0  0  0  0  0  0  0
   56.8103   34.0329   44.4554 H   0  0  0  0  0  0  0  0  0  0  0  0
   58.2971   33.4847   42.8457 H   0  0  0  0  0  0  0  0  0  0  0  0
   59.1134   31.8762   42.8849 H   0  0  0  0  0  0  0  0  0  0  0  0
   56.4358   31.4506   41.9628 H   0  0  0  0  0  0  0  0  0  0  0  0
   57.1007   32.8451   41.0462 H   0  0  0  0  0  0  0  0  0  0  0  0
   57.9705   31.2734   41.0462 H   0  0  0  0  0  0  0  0  0  0  0  0
   58.6380   29.6900   43.2830 H   0  0  0  0  0  0  0  0  0  0  0  0
   57.5888   26.9435   43.0837 H   0  0  0  0  0  0  0  0  0  0  0  0
   58.8158   24.3245   44.7955 H   0  0  0  0  0  0  0  0  0  0  0  0
   57.2837   24.2572   45.7421 H   0  0  0  0  0  0  0  0  0  0  0  0
   56.0225   24.0353   43.8782 H   0  0  0  0  0  0  0  0  0  0  0  0
   56.9087   25.3443   43.0250 H   0  0  0  0  0  0  0  0  0  0  0  0
   57.5606   23.6705   43.0250 H   0  0  0  0  0  0  0  0  0  0  0  0
   58.3578   28.5456   48.1673 H   0  0  0  0  0  0  0  0  0  0  0  0
   59.5808   29.3181   47.1023 H   0  0  0  0  0  0  0  0  0  0  0  0
   57.8858   29.9129   47.1023 H   0  0  0  0  0  0  0  0  0  0  0  0
  1  2  1  0
  2  3  1  0
  3  4  1  0
  4  5  1  0
  5  6  1  0
  4  7  1  0
  7  8  2  0
  7  9  1  0
  9 10  1  0
 10 11  2  0
 11 12  1  0
 12 13  1  0
 13 14  1  0
 12 15  1  0
 15 16  2  0
 16 17  1  0
 16 10  1  0
  1 18  1  0
  1 19  1  0
  1 20  1  0
  2 21  1  0
  2 22  1  0
  3 23  1  0
  3 24  1  0
  5 25  1  0
  5 26  1  0
  6 27  1  0
  6 28  1  0
  6 29  1  0
  9 30  1  0
 11 31  1  0
 13 32  1  0
 13 33  1  0
 14 34  1  0
 14 35  1  0
 14 36  1  0
 17 37  1  0
 17 38  1  0
 17 39  1  0
M  END
>  <UniqueID>  (21) 
21

>  <SMILES>  (21) 
CCCN(CC)C(=O)Nc1cn(CC)nc1C

>  <Energy>  (21) 
57.41949076358855

>  <Genealogy>  (21) 
CCCN(CC)C(=O)Nc1cn(CC)nc1C (3D coordinates assigned)
CCCN(CC)C(=O)Nc1cn(CC)nc1C (optimized conformer: 57.41949076358855 kcal/mol)

>  <smiles>  (21) 
CCCN(CC)C(=O)Nc1cn(CC)nc1C

>  <score_type>  (21) 
oracle

>  <origin>  (21) 
adg

>  <m_score__min__energy>  (21) 
-6.0300000000000002

>  <m_primary>  (21) 
energy

$$$$
21:0
     RDKit          3D

 37 40  0  0  0  0  0  0  0  0999 V2000
   56.6580   31.1870   51.9870 C   0  0  0  0  0  0  0  0  0  0  0  0
   57.7850   32.0910   51.5810 C   0  0  0  0  0  0  0  0  0  0  0  0
   58.0850   33.2600   52.3130 C   0  0  0  0  0  0  0  0  0  0  0  0
   59.1650   34.0870   51.9360 C   0  0  0  0  0  0  0  0  0  0  0  0
   59.9570   33.7620   50.8220 C   0  0  0  0  0  0  0  0  0  0  0  0
   59.6300   32.6150   50.0990 C   0  0  0  0  0  0  0  0  0  0  0  0
   60.2330   32.0330   48.9990 C   0  0  0  0  0  0  0  0  0  0  0  0
   61.4590   32.4910   48.3230 C   0  0  0  0  0  0  0  0  0  0  0  0
   61.5300   33.3830   47.3340 C   0  0  0  0  0  0  0  0  0  0  0  0
   60.0620   34.2580   46.4720 Br  0  0  0  0  0  0  0  0  0  0  0  0
   62.9290   33.4790   46.9250 C   0  0  0  0  0  0  0  0  0  0  0  0
   63.3710   34.2140   46.0030 O   0  0  0  0  0  0  0  0  0  0  0  0
   63.7450   32.6110   47.6980 N   0  0  0  0  0  0  0  0  0  0  0  0
   62.8130   31.9920   48.5710 C   0  0  0  0  0  0  0  0  0  0  0  0
   63.1310   31.1370   49.4390 O   0  0  0  0  0  0  0  0  0  0  0  0
   59.5190   30.8510   48.7650 C   0  0  0  0  0  0  0  0  0  0  0  0
   59.7690   29.8670   47.6880 C   0  0  0  0  0  0  0  0  0  0  0  0
   60.0300   28.5180   47.9880 C   0  0  0  0  0  0  0  0  0  0  0  0
   60.2670   27.6000   46.9610 C   0  0  0  0  0  0  0  0  0  0  0  0
   60.2560   28.0190   45.6290 C   0  0  0  0  0  0  0  0  0  0  0  0
   60.0120   29.3600   45.3220 C   0  0  0  0  0  0  0  0  0  0  0  0
   59.7740   30.2820   46.3450 C   0  0  0  0  0  0  0  0  0  0  0  0
   58.5210   30.7190   49.6700 N   0  0  0  0  0  0  0  0  0  0  0  0
   58.5930   31.7960   50.4750 C   0  0  0  0  0  0  0  0  0  0  0  0
   56.6015   31.1417   53.0846 H   0  0  0  0  0  0  0  0  0  0  0  0
   55.7112   31.5790   51.5870 H   0  0  0  0  0  0  0  0  0  0  0  0
   56.8352   30.1777   51.5870 H   0  0  0  0  0  0  0  0  0  0  0  0
   57.4714   33.5291   53.1854 H   0  0  0  0  0  0  0  0  0  0  0  0
   59.3882   34.9928   52.5188 H   0  0  0  0  0  0  0  0  0  0  0  0
   60.8091   34.3930   50.5289 H   0  0  0  0  0  0  0  0  0  0  0  0
   64.7750   32.4550   47.6310 H   0  0  0  0  0  0  0  0  0  0  0  0
   60.0477   28.1838   49.0358 H   0  0  0  0  0  0  0  0  0  0  0  0
   60.4627   26.5449   47.2026 H   0  0  0  0  0  0  0  0  0  0  0  0
   60.4393   27.2940   44.8223 H   0  0  0  0  0  0  0  0  0  0  0  0
   60.0072   29.6908   44.2729 H   0  0  0  0  0  0  0  0  0  0  0  0
   59.5896   31.3379   46.0979 H   0  0  0  0  0  0  0  0  0  0  0  0
   57.8270   29.9400   49.7270 H   0  0  0  0  0  0  0  0  0  0  0  0
  1  2  1  0
  2  3  2  0
  3  4  1  0
  4  5  2  0
  5  6  1  0
  6  7  1  0
  7  8  1  0
  8  9  2  0
  9 10  1  0
  9 11  1  0
 11 12  2  0
 11 13  1  0
 13 14  1  0
 14 15  2  0
  7 16  2  0
 16 17  1  0
 17 18  2  0
 18 19  1  0
 19 20  2  0
 20 21  1  0
 21 22  2  0
 16 23  1  0
 23 24  1  0
 24  2  1  0
 24  6  2  0
 14  8  1  0
 22 17  1  0
  1 25  1  0
  1 26  1  0
  1 27  1  0
  3 28  1  0
  4 29  1  0
  5 30  1  0
 13 31  1  0
 18 32  1  0
 19 33  1  0
 20 34  1  0
 21 35  1  0
 22 36  1  0
 23 37  1  0
M  END
>  <UniqueID>  (22) 
22

>  <SMILES>  (22) 
Cc1cccc2c(C3=C(Br)C(=O)NC3=O)c(-c3ccccc3)[nH]c12

>  <Energy>  (22) 
108.60067736708447

>  <Genealogy>  (22) 
Cc1cccc2c(C3=C(Br)C(=O)NC3=O)c(-c3ccccc3)[nH]c12 (3D coordinates assigned)
Cc1cccc2c(C3=C(Br)C(=O)NC3=O)c(-c3ccccc3)[nH]c12 (nonaromatic ring conformer: 108.60067736708447 kcal/mol)

>  <smiles>  (22) 
Cc1cccc2c(C3=C(Br)C(=O)NC3=O)c(-c3ccccc3)[nH]c12

>  <score_type>  (22) 
oracle

>  <origin>  (22) 
adg

>  <m_score__min__energy>  (22) 
-8.3800000000000008

>  <m_primary>  (22) 
energy

$$$$
22:0
     RDKit          3D

 34 35  0  0  0  0  0  0  0  0999 V2000
   57.7090   32.3570   41.0280 C   0  0  0  0  0  0  0  0  0  0  0  0
   57.0320   31.4230   42.0250 C   0  0  0  0  0  0  0  0  0  0  0  0
   57.7600   31.3930   43.2930 N   0  0  0  0  0  0  0  0  0  0  0  0
   57.1160   30.9950   44.5130 C   0  0  0  0  0  0  0  0  0  0  0  0
   55.9110   30.6180   44.4900 O   0  0  0  0  0  0  0  0  0  0  0  0
   57.8590   30.9750   45.8310 C   0  0  1  0  0  0  0  0  0  0  0  0
   58.7340   29.7400   46.0000 C   0  0  0  0  0  0  0  0  0  0  0  0
   58.6850   29.0300   47.2140 C   0  0  0  0  0  0  0  0  0  0  0  0
   59.5010   27.9140   47.4190 C   0  0  0  0  0  0  0  0  0  0  0  0
   60.3830   27.4980   46.4200 C   0  0  0  0  0  0  0  0  0  0  0  0
   60.4570   28.2030   45.2170 C   0  0  0  0  0  0  0  0  0  0  0  0
   59.6440   29.3210   45.0070 C   0  0  0  0  0  0  0  0  0  0  0  0
   58.6150   32.2710   46.0740 C   0  0  0  0  0  0  0  0  0  0  0  0
   59.8810   32.3040   46.6900 C   0  0  0  0  0  0  0  0  0  0  0  0
   60.5480   33.5180   46.8610 C   0  0  0  0  0  0  0  0  0  0  0  0
   59.9560   34.6950   46.4070 C   0  0  0  0  0  0  0  0  0  0  0  0
   58.7420   34.6540   45.7970 N   0  0  0  0  0  0  0  0  0  0  0  0
   58.0690   33.4850   45.6190 C   0  0  0  0  0  0  0  0  0  0  0  0
   58.2698   33.1307   41.5729 H   0  0  0  0  0  0  0  0  0  0  0  0
   58.4000   31.7800   40.3959 H   0  0  0  0  0  0  0  0  0  0  0  0
   56.9456   32.8342   40.3959 H   0  0  0  0  0  0  0  0  0  0  0  0
   56.0058   31.7746   42.2076 H   0  0  0  0  0  0  0  0  0  0  0  0
   57.0220   30.4074   41.6026 H   0  0  0  0  0  0  0  0  0  0  0  0
   58.7730   31.6470   43.3090 H   0  0  0  0  0  0  0  0  0  0  0  0
   57.0956   30.9028   46.6197 H   0  0  0  0  0  0  0  0  0  0  0  0
   57.9982   29.3563   48.0089 H   0  0  0  0  0  0  0  0  0  0  0  0
   59.4482   27.3624   48.3692 H   0  0  0  0  0  0  0  0  0  0  0  0
   61.0194   26.6152   46.5805 H   0  0  0  0  0  0  0  0  0  0  0  0
   61.1565   27.8781   44.4327 H   0  0  0  0  0  0  0  0  0  0  0  0
   59.7145   29.8777   44.0609 H   0  0  0  0  0  0  0  0  0  0  0  0
   60.3458   31.3696   47.0376 H   0  0  0  0  0  0  0  0  0  0  0  0
   61.5329   33.5455   47.3501 H   0  0  0  0  0  0  0  0  0  0  0  0
   60.4712   35.6574   46.5423 H   0  0  0  0  0  0  0  0  0  0  0  0
   57.0909   33.4892   45.1157 H   0  0  0  0  0  0  0  0  0  0  0  0
  1  2  1  0
  2  3  1  0
  3  4  1  0
  4  5  2  0
  4  6  1  0
  6  7  1  0
  7  8  2  0
  8  9  1  0
  9 10  2  0
 10 11  1  0
 11 12  2  0
  6 13  1  0
 13 14  2  0
 14 15  1  0
 15 16  2  0
 16 17  1  0
 17 18  2  0
 12  7  1  0
 18 13  1  0
  1 19  1  0
  1 20  1  0
  1 21  1  0
  2 22  1  0
  2 23  1  0
  3 24  1  0
  6 25  1  1
  8 26  1  0
  9 27  1  0
 10 28  1  0
 11 29  1  0
 12 30  1  0
 14 31  1  0
 15 32  1  0
 16 33  1  0
 18 34  1  0
M  END
>  <UniqueID>  (23) 
23

>  <SMILES>  (23) 
CCNC(=O)[C@@H](c1ccccc1)c1cccnc1

>  <Energy>  (23) 
33.44158027160232

>  <Genealogy>  (23) 
CCNC(=O)[C@@H](c1ccccc1)c1cccnc1 (chirality)
CCNC(=O)[C@@H](c1ccccc1)c1cccnc1 (3D coordinates assigned)
CCNC(=O)[C@@H](c1ccccc1)c1cccnc1 (optimized conformer: 33.44158027160232 kcal/mol)

>  <smiles>  (23) 
CCNC(=O)C(c1ccccc1)c1cccnc1

>  <score_type>  (23) 
oracle

>  <origin>  (23) 
adg

>  <m_score__min__energy>  (23) 
-6.5

>  <m_primary>  (23) 
energy

$$$$
23:0
     RDKit          3D

 49 52  0  0  0  0  0  0  0  0999 V2000
   60.1630   33.8490   49.1440 C   0  0  0  0  0  0  0  0  0  0  0  0
   60.1600   32.4400   49.3480 O   0  0  0  0  0  0  0  0  0  0  0  0
   59.8460   31.4930   48.3610 C   0  0  0  0  0  0  0  0  0  0  0  0
   58.9870   31.7930   47.2870 C   0  0  0  0  0  0  0  0  0  0  0  0
   58.6800   30.8280   46.3160 C   0  0  0  0  0  0  0  0  0  0  0  0
   59.2720   29.5300   46.4090 C   0  0  0  0  0  0  0  0  0  0  0  0
   60.1250   29.2440   47.4830 C   0  0  0  0  0  0  0  0  0  0  0  0
   60.4110   30.2100   48.4510 C   0  0  0  0  0  0  0  0  0  0  0  0
   61.2640   29.8720   49.5030 O   0  0  0  0  0  0  0  0  0  0  0  0
   58.9650   28.4190   45.3980 C   0  0  1  0  0  0  0  0  0  0  0  0
   58.1020   27.3120   45.9980 C   0  0  0  0  0  0  0  0  0  0  0  0
   58.6920   26.3740   46.8580 C   0  0  0  0  0  0  0  0  0  0  0  0
   57.9370   25.3390   47.4110 C   0  0  0  0  0  0  0  0  0  0  0  0
   56.5670   25.2210   47.1160 C   0  0  0  0  0  0  0  0  0  0  0  0
   55.7750   24.1930   47.6520 O   0  0  0  0  0  0  0  0  0  0  0  0
   56.2180   22.8550   47.8530 C   0  0  0  0  0  0  0  0  0  0  0  0
   55.9600   26.1540   46.2620 C   0  0  0  0  0  0  0  0  0  0  0  0
   54.5900   26.0130   45.9880 O   0  0  0  0  0  0  0  0  0  0  0  0
   53.9770   24.8110   45.5320 C   0  0  0  0  0  0  0  0  0  0  0  0
   56.7290   27.1950   45.7090 C   0  0  0  0  0  0  0  0  0  0  0  0
   58.3680   29.0480   44.1250 C   0  0  1  0  0  0  0  0  0  0  0  0
   57.7310   28.2170   43.0780 C   0  0  0  0  0  0  0  0  0  0  0  0
   58.1720   27.1190   42.6500 O   0  0  0  0  0  0  0  0  0  0  0  0
   56.6540   28.8800   42.5140 O   0  0  0  0  0  0  0  0  0  0  0  0
   56.4540   30.1380   43.1560 C   0  0  0  0  0  0  0  0  0  0  0  0
   57.2180   29.9810   44.4780 C   0  0  2  0  0  0  0  0  0  0  0  0
   57.7760   31.2290   45.1560 C   0  0  0  0  0  0  0  0  0  0  0  0
   60.1641   34.3605   50.1179 H   0  0  0  0  0  0  0  0  0  0  0  0
   61.0618   34.1357   48.5783 H   0  0  0  0  0  0  0  0  0  0  0  0
   59.2655   34.1395   48.5783 H   0  0  0  0  0  0  0  0  0  0  0  0
   58.5498   32.7993   47.2078 H   0  0  0  0  0  0  0  0  0  0  0  0
   60.5762   28.2442   47.5653 H   0  0  0  0  0  0  0  0  0  0  0  0
   61.4920   30.5230   50.2450 H   0  0  0  0  0  0  0  0  0  0  0  0
   59.9001   27.9124   45.1172 H   0  0  0  0  0  0  0  0  0  0  0  0
   59.7621   26.4553   47.0992 H   0  0  0  0  0  0  0  0  0  0  0  0
   58.4164   24.6109   48.0818 H   0  0  0  0  0  0  0  0  0  0  0  0
   56.2861   22.6494   48.9315 H   0  0  0  0  0  0  0  0  0  0  0  0
   55.5025   22.1586   47.3914 H   0  0  0  0  0  0  0  0  0  0  0  0
   57.2077   22.7232   47.3914 H   0  0  0  0  0  0  0  0  0  0  0  0
   53.6683   24.2058   46.3971 H   0  0  0  0  0  0  0  0  0  0  0  0
   53.0945   25.0575   44.9234 H   0  0  0  0  0  0  0  0  0  0  0  0
   54.6947   24.2414   44.9234 H   0  0  0  0  0  0  0  0  0  0  0  0
   56.2508   27.9273   45.0418 H   0  0  0  0  0  0  0  0  0  0  0  0
   59.2998   29.4645   43.7149 H   0  0  0  0  0  0  0  0  0  0  0  0
   56.8711   30.9589   42.5542 H   0  0  0  0  0  0  0  0  0  0  0  0
   55.3919   30.3864   43.2979 H   0  0  0  0  0  0  0  0  0  0  0  0
   56.4968   29.6255   45.2287 H   0  0  0  0  0  0  0  0  0  0  0  0
   58.3563   31.8123   44.4259 H   0  0  0  0  0  0  0  0  0  0  0  0
   56.9429   31.8367   45.5390 H   0  0  0  0  0  0  0  0  0  0  0  0
  1  2  1  0
  2  3  1  0
  3  4  2  0
  4  5  1  0
  5  6  2  0
  6  7  1  0
  7  8  2  0
  8  9  1  0
  6 10  1  0
 10 11  1  0
 11 12  2  0
 12 13  1  0
 13 14  2  0
 14 15  1  0
 15 16  1  0
 14 17  1  0
 17 18  1  0
 18 19  1  0
 17 20  2  0
 10 21  1  0
 21 22  1  0
 22 23  2  0
 22 24  1  0
 24 25  1  0
 25 26  1  0
 26 27  1  0
  8  3  1  0
 20 11  1  0
 26 21  1  0
 27  5  1  0
  1 28  1  0
  1 29  1  0
  1 30  1  0
  4 31  1  0
  7 32  1  0
  9 33  1  0
 10 34  1  6
 12 35  1  0
 13 36  1  0
 16 37  1  0
 16 38  1  0
 16 39  1  0
 19 40  1  0
 19 41  1  0
 19 42  1  0
 20 43  1  0
 21 44  1  6
 25 45  1  0
 25 46  1  0
 26 47  1  1
 27 48  1  0
 27 49  1  0
M  END
>  <UniqueID>  (24) 
24

>  <SMILES>  (24) 
COc1cc2c(cc1O)[C@@H](c1ccc(OC)c(OC)c1)[C@H]1C(=O)OCC1C2

>  <Energy>  (24) 
73.7167366348597

>  <Genealogy>  (24) 
COc1cc2c(cc1O)[C@@H](c1ccc(OC)c(OC)c1)[C@H]1C(=O)OCC1C2 (chirality)
COc1cc2c(cc1O)[C@@H](c1ccc(OC)c(OC)c1)[C@H]1C(=O)OCC1C2 (3D coordinates assigned)
COc1cc2c(cc1O)[C@@H](c1ccc(OC)c(OC)c1)[C@H]1C(=O)OCC1C2 (nonaromatic ring conformer: 73.7167366348597 kcal/mol)

>  <smiles>  (24) 
COc1cc2c(cc1O)C(c1ccc(OC)c(OC)c1)C1C(=O)OCC1C2

>  <score_type>  (24) 
oracle

>  <origin>  (24) 
adg

>  <m_score__min__energy>  (24) 
-6.5800000000000001

>  <m_primary>  (24) 
energy

$$$$
24:0
     RDKit          3D

 44 47  0  0  1  0  0  0  0  0999 V2000
   64.9720   32.5170   49.9250 C   0  0  0  0  0  0  0  0  0  0  0  0
   63.6900   31.9610   49.4840 N   0  0  0  0  0  0  0  0  0  0  0  0
   63.1040   32.4660   48.4590 C   0  0  0  0  0  0  0  0  0  0  0  0
   63.8070   33.0280   47.4590 N   0  0  0  0  0  0  0  0  0  0  0  0
   63.2070   33.5560   46.3780 C   0  0  0  0  0  0  0  0  0  0  0  0
   61.8700   33.5400   46.2590 N   0  0  0  0  0  0  0  0  0  0  0  0
   61.1480   32.9830   47.2460 C   0  0  0  0  0  0  0  0  0  0  0  0
   59.7740   32.9450   47.1530 C   0  0  0  0  0  0  0  0  0  0  0  0
   59.1060   33.4170   46.1620 N   0  0  0  0  0  0  0  0  0  0  0  0
   58.5200   32.5010   45.2500 C   0  0  0  0  0  0  0  0  0  0  0  0
   58.1200   31.2420   45.7100 C   0  0  0  0  0  0  0  0  0  0  0  0
   57.5460   30.3130   44.8430 C   0  0  0  0  0  0  0  0  0  0  0  0
   57.0440   28.7240   45.4420 Cl  0  0  0  0  0  0  0  0  0  0  0  0
   57.3810   30.6630   43.5110 C   0  0  0  0  0  0  0  0  0  0  0  0
   57.7680   31.9050   43.0200 C   0  0  0  0  0  0  0  0  0  0  0  0
   57.5610   32.3470   41.3520 Cl  0  0  0  0  0  0  0  0  0  0  0  0
   58.3330   32.8050   43.9050 C   0  0  0  0  0  0  0  0  0  0  0  0
   59.0280   32.3790   48.1470 N   0  0  0  0  0  0  0  0  0  0  0  0
   59.6130   31.8430   49.2450 C   0  0  0  0  0  0  0  0  0  0  0  0
   58.8400   31.2440   50.2920 N   0  0  0  0  0  0  0  0  0  0  0  0
   58.8930   29.7920   50.5050 C   0  0  0  0  0  0  0  0  0  0  0  0
   58.3560   29.6070   51.9280 C   0  0  0  0  0  0  0  0  0  0  0  0
   57.0170   29.9640   51.9240 O   0  0  0  0  0  0  0  0  0  0  0  0
   56.7580   31.2760   51.6270 C   0  0  0  0  0  0  0  0  0  0  0  0
   57.9820   32.0040   51.1750 C   0  0  0  0  0  0  0  0  0  0  0  0
   60.9720   31.8720   49.3500 N   0  0  0  0  0  0  0  0  0  0  0  0
   61.7160   32.4310   48.3700 C   0  0  0  0  0  0  0  0  0  0  0  0
   65.0064   32.5319   51.0244 H   0  0  0  0  0  0  0  0  0  0  0  0
   65.7933   31.8942   49.5408 H   0  0  0  0  0  0  0  0  0  0  0  0
   65.0786   33.5422   49.5408 H   0  0  0  0  0  0  0  0  0  0  0  0
   64.8590   33.0860   47.4640 H   0  0  0  0  0  0  0  0  0  0  0  0
   63.8185   34.0062   45.5821 H   0  0  0  0  0  0  0  0  0  0  0  0
   58.2601   30.9815   46.7695 H   0  0  0  0  0  0  0  0  0  0  0  0
   56.9296   29.9348   42.8211 H   0  0  0  0  0  0  0  0  0  0  0  0
   58.6445   33.7926   43.5340 H   0  0  0  0  0  0  0  0  0  0  0  0
   57.9970   32.3350   48.1100 H   0  0  0  0  0  0  0  0  0  0  0  0
   58.2586   29.2664   49.7761 H   0  0  0  0  0  0  0  0  0  0  0  0
   59.9057   29.3818   50.3777 H   0  0  0  0  0  0  0  0  0  0  0  0
   58.4624   28.5560   52.2346 H   0  0  0  0  0  0  0  0  0  0  0  0
   58.9189   30.2329   52.6361 H   0  0  0  0  0  0  0  0  0  0  0  0
   56.0056   31.3160   50.8255 H   0  0  0  0  0  0  0  0  0  0  0  0
   56.3933   31.7642   52.5428 H   0  0  0  0  0  0  0  0  0  0  0  0
   57.6645   32.9146   50.6458 H   0  0  0  0  0  0  0  0  0  0  0  0
   58.5720   32.2157   52.0789 H   0  0  0  0  0  0  0  0  0  0  0  0
  1  2  1  0
  2  3  2  0
  3  4  1  0
  4  5  1  0
  5  6  2  0
  6  7  1  0
  7  8  1  0
  8  9  2  0
  9 10  1  0
 10 11  2  0
 11 12  1  0
 12 13  1  0
 12 14  2  0
 14 15  1  0
 15 16  1  0
 15 17  2  0
  8 18  1  0
 18 19  1  0
 19 20  1  0
 20 21  1  0
 21 22  1  0
 22 23  1  0
 23 24  1  0
 24 25  1  0
 19 26  2  0
 26 27  1  0
 27  3  1  0
 27  7  2  0
 17 10  1  0
 25 20  1  0
  1 28  1  0
  1 29  1  0
  1 30  1  0
  4 31  1  0
  5 32  1  0
 11 33  1  0
 14 34  1  0
 17 35  1  0
 18 36  1  0
 21 37  1  0
 21 38  1  0
 22 39  1  0
 22 40  1  0
 24 41  1  0
 24 42  1  0
 25 43  1  0
 25 44  1  0
M  END
>  <smiles>  (25) 
CN=c1[nH]cnc2c(=Nc3cc(Cl)cc(Cl)c3)[nH]c(N3CCOCC3)nc12

>  <score_type>  (25) 
oracle

>  <origin>  (25) 
adg

>  <m_score__min__energy>  (25) 
-8.1600000000000001

>  <m_primary>  (25) 
energy

$$$$
25:0
     RDKit          3D

 33 34  0  0  0  0  0  0  0  0999 V2000
   61.5296   29.8186   44.8382 H   0  0  0  0  0  0  0  0  0  0  0  0
   60.8730   29.4110   45.6210 C   0  0  0  0  0  0  0  0  0  0  0  0
   60.5580   30.2490   46.7910 C   0  0  0  0  0  0  0  0  0  0  0  0
   61.4360   30.4040   47.6820 O   0  0  0  0  0  0  0  0  0  0  0  0
   59.2930   30.9180   46.8920 N   0  0  0  0  0  0  0  0  0  0  0  0
   58.9090   32.1300   46.2260 C   0  0  0  0  0  0  0  0  0  0  0  0
   59.3870   33.3500   46.7230 C   0  0  0  0  0  0  0  0  0  0  0  0
   60.0298   33.3616   47.6155 H   0  0  0  0  0  0  0  0  0  0  0  0
   59.0530   34.5520   46.0930 C   0  0  0  0  0  0  0  0  0  0  0  0
   59.4225   35.5060   46.4972 H   0  0  0  0  0  0  0  0  0  0  0  0
   58.2500   34.5420   44.9500 C   0  0  0  0  0  0  0  0  0  0  0  0
   57.9816   35.4885   44.4580 H   0  0  0  0  0  0  0  0  0  0  0  0
   57.7880   33.3300   44.4320 C   0  0  0  0  0  0  0  0  0  0  0  0
   57.1615   33.3228   43.5279 H   0  0  0  0  0  0  0  0  0  0  0  0
   58.1200   32.1260   45.0600 C   0  0  0  0  0  0  0  0  0  0  0  0
   57.7638   31.1729   44.6420 H   0  0  0  0  0  0  0  0  0  0  0  0
   60.3880   28.1690   45.4760 C   0  0  0  0  0  0  0  0  0  0  0  0
   61.0958   27.3577   45.2505 H   0  0  0  0  0  0  0  0  0  0  0  0
   58.9490   27.8290   45.6030 C   0  0  0  0  0  0  0  0  0  0  0  0
   58.6020   26.5870   46.1570 C   0  0  0  0  0  0  0  0  0  0  0  0
   59.3922   25.8975   46.4889 H   0  0  0  0  0  0  0  0  0  0  0  0
   57.2610   26.2200   46.2900 C   0  0  0  0  0  0  0  0  0  0  0  0
   57.0004   25.2481   46.7344 H   0  0  0  0  0  0  0  0  0  0  0  0
   56.2500   27.0820   45.8610 C   0  0  0  0  0  0  0  0  0  0  0  0
   54.9200   26.7040   46.0020 O   0  0  0  0  0  0  0  0  0  0  0  0
   56.5710   28.3200   45.2890 C   0  0  0  0  0  0  0  0  0  0  0  0
   55.5220   29.1500   44.8620 O   0  0  0  0  0  0  0  0  0  0  0  0
   55.6060   30.0580   43.7680 C   0  0  0  0  0  0  0  0  0  0  0  0
   55.7010   31.0850   44.1504 H   0  0  0  0  0  0  0  0  0  0  0  0
   56.4853   29.8124   43.1543 H   0  0  0  0  0  0  0  0  0  0  0  0
   54.6966   29.9779   43.1543 H   0  0  0  0  0  0  0  0  0  0  0  0
   57.9250   28.6880   45.1560 C   0  0  0  0  0  0  0  0  0  0  0  0
   58.1849   29.6543   44.6992 H   0  0  0  0  0  0  0  0  0  0  0  0
  1  2  1  0
  2  3  1  0
  3  4  2  0
  3  5  1  0
  5  6  1  0
  6  7  2  0
  7  8  1  0
  7  9  1  0
  9 10  1  0
  9 11  2  0
 11 12  1  0
 11 13  1  0
 13 14  1  0
 13 15  2  0
 15 16  1  0
  2 17  2  0
 17 18  1  0
 17 19  1  0
 19 20  2  0
 20 21  1  0
 20 22  1  0
 22 23  1  0
 22 24  2  0
 24 25  1  0
 24 26  1  0
 26 27  1  0
 27 28  1  0
 28 29  1  0
 28 30  1  0
 28 31  1  0
 26 32  2  0
 32 33  1  0
 15  6  1  0
 32 19  1  0
M  CHG  2   5  -1  25  -1
M  END
>  <UniqueID>  (26) 
25

>  <SMILES>  (26) 
COc1cc(/C=C/C(=O)[N-]c2ccccc2)ccc1[O-]

>  <Energy>  (26) 
38.15541134806507

>  <Genealogy>  (26) 
COc1cc(C=CC(=O)[N-]c2ccccc2)ccc1[O-] (protonated)
COc1cc(/C=C/C(=O)[N-]c2ccccc2)ccc1[O-] (cis-trans isomerization)
COc1cc(/C=C/C(=O)[N-]c2ccccc2)ccc1[O-] (3D coordinates assigned)
COc1cc(/C=C/C(=O)[N-]c2ccccc2)ccc1[O-] (optimized conformer: 38.15541134806507 kcal/mol)

>  <smiles>  (26) 
COc1cc(C=CC(=O)Nc2ccccc2)ccc1O

>  <score_type>  (26) 
oracle

>  <origin>  (26) 
adg

>  <m_score__min__energy>  (26) 
-11.75

>  <m_primary>  (26) 
energy

$$$$
26:0
     RDKit          3D

 32 34  0  0  0  0  0  0  0  0999 V2000
   58.7304   34.1067   47.9131 H   0  0  0  0  0  0  0  0  0  0  0  0
   58.5670   33.8190   46.8640 C   0  0  0  0  0  0  0  0  0  0  0  0
   57.7660   32.7130   46.5590 C   0  0  0  0  0  0  0  0  0  0  0  0
   57.2867   32.1430   47.3685 H   0  0  0  0  0  0  0  0  0  0  0  0
   57.5720   32.3280   45.2200 C   0  0  0  0  0  0  0  0  0  0  0  0
   56.7160   31.2300   44.8710 N   0  0  0  0  0  0  0  0  0  0  0  0
   57.0290   30.1630   44.1900 C   0  0  0  0  0  0  0  0  0  0  0  0
   58.1480   29.3160   44.6660 C   0  0  0  0  0  0  0  0  0  0  0  0
   59.5090   29.6030   44.5450 C   0  0  0  0  0  0  0  0  0  0  0  0
   59.9178   30.4997   44.0564 H   0  0  0  0  0  0  0  0  0  0  0  0
   60.2550   28.6290   45.1100 N   0  0  0  0  0  0  0  0  0  0  0  0
   61.2970   28.5940   45.1630 H   0  0  0  0  0  0  0  0  0  0  0  0
   59.3860   27.7240   45.5890 C   0  0  0  0  0  0  0  0  0  0  0  0
   59.6940   26.5380   46.2530 C   0  0  0  0  0  0  0  0  0  0  0  0
   60.7382   26.2510   46.4463 H   0  0  0  0  0  0  0  0  0  0  0  0
   58.6290   25.7200   46.6680 C   0  0  0  0  0  0  0  0  0  0  0  0
   58.8369   24.7787   47.1979 H   0  0  0  0  0  0  0  0  0  0  0  0
   57.2950   26.0990   46.4090 C   0  0  0  0  0  0  0  0  0  0  0  0
   56.4698   25.4493   46.7360 H   0  0  0  0  0  0  0  0  0  0  0  0
   57.0120   27.3010   45.7360 C   0  0  0  0  0  0  0  0  0  0  0  0
   55.9751   27.6024   45.5264 H   0  0  0  0  0  0  0  0  0  0  0  0
   58.0890   28.1020   45.3410 C   0  0  0  0  0  0  0  0  0  0  0  0
   56.2950   29.7720   42.9310 C   0  0  0  0  0  0  0  0  0  0  0  0
   55.3529   29.2701   43.1967 H   0  0  0  0  0  0  0  0  0  0  0  0
   56.0762   30.6731   42.3392 H   0  0  0  0  0  0  0  0  0  0  0  0
   56.9208   29.0877   42.3392 H   0  0  0  0  0  0  0  0  0  0  0  0
   58.1410   33.0970   44.1960 C   0  0  0  0  0  0  0  0  0  0  0  0
   57.9564   32.8306   43.1448 H   0  0  0  0  0  0  0  0  0  0  0  0
   58.9420   34.2010   44.5030 C   0  0  0  0  0  0  0  0  0  0  0  0
   59.4011   34.7885   43.6943 H   0  0  0  0  0  0  0  0  0  0  0  0
   59.1600   34.5590   45.8360 C   0  0  0  0  0  0  0  0  0  0  0  0
   59.9330   35.6320   46.1330 F   0  0  0  0  0  0  0  0  0  0  0  0
  1  2  1  0
  2  3  2  0
  3  4  1  0
  3  5  1  0
  5  6  1  0
  6  7  2  0
  7  8  1  0
  8  9  2  0
  9 10  1  0
  9 11  1  0
 11 12  1  0
 11 13  1  0
 13 14  2  0
 14 15  1  0
 14 16  1  0
 16 17  1  0
 16 18  2  0
 18 19  1  0
 18 20  1  0
 20 21  1  0
 20 22  2  0
  7 23  1  0
 23 24  1  0
 23 25  1  0
 23 26  1  0
  5 27  2  0
 27 28  1  0
 27 29  1  0
 29 30  1  0
 29 31  2  0
 31 32  1  0
 31  2  1  0
 22  8  1  0
 22 13  1  0
M  END
>  <UniqueID>  (27) 
26

>  <SMILES>  (27) 
C/C(=N\c1ccc(F)cc1)c1c[nH]c2ccccc12

>  <Energy>  (27) 
75.94097374716256

>  <Genealogy>  (27) 
C/C(=N\c1ccc(F)cc1)c1c[nH]c2ccccc12 (cis-trans isomerization)
C/C(=N\c1ccc(F)cc1)c1c[nH]c2ccccc12 (3D coordinates assigned)
C/C(=N\c1ccc(F)cc1)c1c[nH]c2ccccc12 (optimized conformer: 75.94097374716256 kcal/mol)

>  <smiles>  (27) 
CC(=Nc1ccc(F)cc1)c1c[nH]c2ccccc12

>  <score_type>  (27) 
oracle

>  <origin>  (27) 
adg

>  <m_score__min__energy>  (27) 
-8.0099999999999998

>  <m_primary>  (27) 
energy

$$$$
27:0
     RDKit          3D

 23 24  0  0  0  0  0  0  0  0999 V2000
   59.6450   35.7090   45.9570 C   0  0  0  0  0  0  0  0  0  0  0  0
   59.7150   34.2270   46.1880 C   0  0  0  0  0  0  0  0  0  0  0  0
   60.8470   33.6620   46.7880 C   0  0  0  0  0  0  0  0  0  0  0  0
   60.9310   32.2770   46.9810 C   0  0  0  0  0  0  0  0  0  0  0  0
   62.1580   31.6730   47.5970 C   0  0  0  0  0  0  0  0  0  0  0  0
   59.8920   31.4510   46.5260 C   0  0  0  0  0  0  0  0  0  0  0  0
   58.7550   31.9990   45.9040 C   0  0  0  0  0  0  0  0  0  0  0  0
   57.6990   31.1310   45.4450 N   0  0  0  0  0  0  0  0  0  0  0  0
   57.5640   29.8000   45.6020 C   0  0  0  0  0  0  0  0  0  0  0  0
   56.4290   29.3840   45.0110 N   0  0  0  0  0  0  0  0  0  0  0  0
   55.8800   30.4760   44.4970 N   0  0  0  0  0  0  0  0  0  0  0  0
   56.6420   31.5280   44.7560 N   0  0  0  0  0  0  0  0  0  0  0  0
   58.6800   33.3950   45.7360 C   0  0  0  0  0  0  0  0  0  0  0  0
   59.6204   36.2303   46.9253 H   0  0  0  0  0  0  0  0  0  0  0  0
   60.5288   36.0336   45.3882 H   0  0  0  0  0  0  0  0  0  0  0  0
   58.7345   35.9488   45.3882 H   0  0  0  0  0  0  0  0  0  0  0  0
   61.6757   34.3098   47.1099 H   0  0  0  0  0  0  0  0  0  0  0  0
   62.0758   31.7135   48.6932 H   0  0  0  0  0  0  0  0  0  0  0  0
   62.2524   30.6255   47.2748 H   0  0  0  0  0  0  0  0  0  0  0  0
   63.0457   32.2371   47.2748 H   0  0  0  0  0  0  0  0  0  0  0  0
   59.9673   30.3614   46.6572 H   0  0  0  0  0  0  0  0  0  0  0  0
   58.2750   29.1505   46.1336 H   0  0  0  0  0  0  0  0  0  0  0  0
   57.8007   33.8377   45.2452 H   0  0  0  0  0  0  0  0  0  0  0  0
  1  2  1  0
  2  3  2  0
  3  4  1  0
  4  5  1  0
  4  6  2  0
  6  7  1  0
  7  8  1  0
  8  9  1  0
  9 10  2  0
 10 11  1  0
 11 12  2  0
  7 13  2  0
 13  2  1  0
 12  8  1  0
  1 14  1  0
  1 15  1  0
  1 16  1  0
  3 17  1  0
  5 18  1  0
  5 19  1  0
  5 20  1  0
  6 21  1  0
  9 22  1  0
 13 23  1  0
M  END
>  <UniqueID>  (28) 
27

>  <SMILES>  (28) 
Cc1cc(C)cc(-n2cnnn2)c1

>  <Energy>  (28) 
63.50860150656321

>  <Genealogy>  (28) 
Cc1cc(C)cc(-n2cnnn2)c1 (3D coordinates assigned)
Cc1cc(C)cc(-n2cnnn2)c1 (optimized conformer: 63.50860150656321 kcal/mol)

>  <smiles>  (28) 
Cc1cc(C)cc(-n2cnnn2)c1

>  <score_type>  (28) 
oracle

>  <origin>  (28) 
adg

>  <m_score__min__energy>  (28) 
-6.2199999999999998

>  <m_primary>  (28) 
energy

$$$$
28:0
     RDKit          3D

 48 50  0  0  0  0  0  0  0  0999 V2000
   56.5370   29.5920   42.6310 C   0  0  0  0  0  0  0  0  0  0  0  0
   55.3640   29.7350   43.5950 C   0  0  0  0  0  0  0  0  0  0  0  0
   55.8260   29.8080   44.9430 O   0  0  0  0  0  0  0  0  0  0  0  0
   57.1680   29.6430   45.3110 C   0  0  0  0  0  0  0  0  0  0  0  0
   57.5910   28.5090   45.6690 O   0  0  0  0  0  0  0  0  0  0  0  0
   58.0620   30.7690   45.2670 N   0  0  0  0  0  0  0  0  0  0  0  0
   57.6050   32.0080   44.6280 C   0  0  0  0  0  0  0  0  0  0  0  0
   58.6700   33.1000   44.7160 C   0  0  0  0  0  0  0  0  0  0  0  0
   59.2110   33.1210   46.0830 N   0  0  0  0  0  0  0  0  0  0  0  0
   60.0110   34.3410   46.3090 C   0  0  0  0  0  0  0  0  0  0  0  0
   61.0800   34.0840   47.3310 C   0  0  0  0  0  0  0  0  0  0  0  0
   62.3590   33.7720   47.0110 N   0  0  0  0  0  0  0  0  0  0  0  0
   62.9740   33.5350   48.1800 C   0  0  0  0  0  0  0  0  0  0  0  0
   64.2710   33.1660   48.3420 N   0  0  0  0  0  0  0  0  0  0  0  0
   64.7470   32.9290   49.6060 C   0  0  0  0  0  0  0  0  0  0  0  0
   66.1880   32.5670   49.8100 C   0  0  0  0  0  0  0  0  0  0  0  0
   63.8930   33.0870   50.7280 C   0  0  0  0  0  0  0  0  0  0  0  0
   62.5520   33.4610   50.5420 C   0  0  0  0  0  0  0  0  0  0  0  0
   62.1220   33.6830   49.2390 C   0  0  0  0  0  0  0  0  0  0  0  0
   60.8950   34.0470   48.7170 C   0  0  0  0  0  0  0  0  0  0  0  0
   59.6100   34.2140   49.4680 C   0  0  0  0  0  0  0  0  0  0  0  0
   59.9980   31.8960   46.3770 C   0  0  0  0  0  0  0  0  0  0  0  0
   59.4700   30.6290   45.6680 C   0  0  0  0  0  0  0  0  0  0  0  0
   57.4698   29.4783   43.2028 H   0  0  0  0  0  0  0  0  0  0  0  0
   56.3850   28.7057   41.9974 H   0  0  0  0  0  0  0  0  0  0  0  0
   56.6023   30.4888   41.9974 H   0  0  0  0  0  0  0  0  0  0  0  0
   54.8078   30.6528   43.3536 H   0  0  0  0  0  0  0  0  0  0  0  0
   54.7115   28.8555   43.4916 H   0  0  0  0  0  0  0  0  0  0  0  0
   57.3850   31.8058   43.5694 H   0  0  0  0  0  0  0  0  0  0  0  0
   56.7030   32.3579   45.1515 H   0  0  0  0  0  0  0  0  0  0  0  0
   59.4785   32.8872   44.0011 H   0  0  0  0  0  0  0  0  0  0  0  0
   58.2265   34.0769   44.4732 H   0  0  0  0  0  0  0  0  0  0  0  0
   60.4805   34.6470   45.3625 H   0  0  0  0  0  0  0  0  0  0  0  0
   59.3491   35.1384   46.6778 H   0  0  0  0  0  0  0  0  0  0  0  0
   62.7730   33.7030   46.0540 H   0  0  0  0  0  0  0  0  0  0  0  0
   64.8930   33.0660   47.5060 H   0  0  0  0  0  0  0  0  0  0  0  0
   66.4035   32.5129   50.8873 H   0  0  0  0  0  0  0  0  0  0  0  0
   66.3899   31.5902   49.3462 H   0  0  0  0  0  0  0  0  0  0  0  0
   66.8276   33.3324   49.3462 H   0  0  0  0  0  0  0  0  0  0  0  0
   64.2810   32.9167   51.7431 H   0  0  0  0  0  0  0  0  0  0  0  0
   61.8676   33.5740   51.3957 H   0  0  0  0  0  0  0  0  0  0  0  0
   59.8111   34.1879   50.5491 H   0  0  0  0  0  0  0  0  0  0  0  0
   59.1533   35.1791   49.2032 H   0  0  0  0  0  0  0  0  0  0  0  0
   58.9218   33.3977   49.2032 H   0  0  0  0  0  0  0  0  0  0  0  0
   61.0363   32.0657   46.0557 H   0  0  0  0  0  0  0  0  0  0  0  0
   59.9156   31.7149   47.4589 H   0  0  0  0  0  0  0  0  0  0  0  0
   60.0784   30.4447   44.7703 H   0  0  0  0  0  0  0  0  0  0  0  0
   59.5402   29.7894   46.3752 H   0  0  0  0  0  0  0  0  0  0  0  0
  1  2  1  0
  2  3  1  0
  3  4  1  0
  4  5  2  0
  4  6  1  0
  6  7  1  0
  7  8  1  0
  8  9  1  0
  9 10  1  0
 10 11  1  0
 11 12  1  0
 12 13  1  0
 13 14  2  0
 14 15  1  0
 15 16  1  0
 15 17  2  0
 17 18  1  0
 18 19  2  0
 19 20  1  0
 20 21  1  0
  9 22  1  0
 22 23  1  0
 23  6  1  0
 20 11  2  0
 19 13  1  0
  1 24  1  0
  1 25  1  0
  1 26  1  0
  2 27  1  0
  2 28  1  0
  7 29  1  0
  7 30  1  0
  8 31  1  0
  8 32  1  0
 10 33  1  0
 10 34  1  0
 12 35  1  0
 14 36  1  0
 16 37  1  0
 16 38  1  0
 16 39  1  0
 17 40  1  0
 18 41  1  0
 21 42  1  0
 21 43  1  0
 21 44  1  0
 22 45  1  0
 22 46  1  0
 23 47  1  0
 23 48  1  0
M  CHG  1  14   1
M  END
>  <UniqueID>  (29) 
28

>  <SMILES>  (29) 
CCOC(=O)N1CCN(Cc2[nH]c3[nH+]c(C)ccc3c2C)CC1

>  <Energy>  (29) 
80.67599349279811

>  <Genealogy>  (29) 
CCOC(=O)N1CCN(Cc2[nH]c3[nH+]c(C)ccc3c2C)CC1 (protonated)
CCOC(=O)N1CCN(Cc2[nH]c3[nH+]c(C)ccc3c2C)CC1 (3D coordinates assigned)
CCOC(=O)N1CCN(Cc2[nH]c3[nH+]c(C)ccc3c2C)CC1 (nonaromatic ring conformer: 80.67599349279811 kcal/mol)

>  <smiles>  (29) 
CCOC(=O)N1CCN(Cc2[nH]c3nc(C)ccc3c2C)CC1

>  <score_type>  (29) 
oracle

>  <origin>  (29) 
adg

>  <m_score__min__energy>  (29) 
-6.3899999999999997

>  <m_primary>  (29) 
energy

$$$$
29:0
     RDKit          3D

 33 35  0  0  0  0  0  0  0  0999 V2000
   60.0050   33.8760   49.4280 C   0  0  0  0  0  0  0  0  0  0  0  0
   60.1940   33.1170   48.2380 O   0  0  0  0  0  0  0  0  0  0  0  0
   59.6780   33.4480   46.9730 C   0  0  0  0  0  0  0  0  0  0  0  0
   59.8560   34.7480   46.4560 C   0  0  0  0  0  0  0  0  0  0  0  0
   59.2560   35.1310   45.2620 C   0  0  0  0  0  0  0  0  0  0  0  0
   58.4460   34.2390   44.5720 C   0  0  0  0  0  0  0  0  0  0  0  0
   58.2630   32.9350   45.0480 C   0  0  0  0  0  0  0  0  0  0  0  0
   57.3990   32.0750   44.3720 C   0  0  0  0  0  0  0  0  0  0  0  0
   57.1640   30.7910   44.8570 C   0  0  0  0  0  0  0  0  0  0  0  0
   56.1460   29.9080   44.1770 C   0  0  0  0  0  0  0  0  0  0  0  0
   55.1820   29.4840   45.1020 O   0  0  0  0  0  0  0  0  0  0  0  0
   57.8550   30.3580   46.0000 C   0  0  0  0  0  0  0  0  0  0  0  0
   57.6020   29.2110   46.4680 O   0  0  0  0  0  0  0  0  0  0  0  0
   58.7980   31.1600   46.6040 N   0  0  0  0  0  0  0  0  0  0  0  0
   59.6310   30.5640   47.6720 C   0  0  0  0  0  0  0  0  0  0  0  0
   60.3080   29.2430   47.2960 C   0  0  0  0  0  0  0  0  0  0  0  0
   61.1250   30.5140   47.3520 C   0  0  0  0  0  0  0  0  0  0  0  0
   58.9280   32.4890   46.2230 C   0  0  0  0  0  0  0  0  0  0  0  0
   60.1657   33.2305   50.3040 H   0  0  0  0  0  0  0  0  0  0  0  0
   60.7232   34.7089   49.4496 H   0  0  0  0  0  0  0  0  0  0  0  0
   58.9801   34.2749   49.4496 H   0  0  0  0  0  0  0  0  0  0  0  0
   60.4786   35.4693   47.0056 H   0  0  0  0  0  0  0  0  0  0  0  0
   59.4232   36.1424   44.8631 H   0  0  0  0  0  0  0  0  0  0  0  0
   57.9452   34.5586   43.6462 H   0  0  0  0  0  0  0  0  0  0  0  0
   56.9005   32.4122   43.4512 H   0  0  0  0  0  0  0  0  0  0  0  0
   55.6539   30.4734   43.3719 H   0  0  0  0  0  0  0  0  0  0  0  0
   56.6554   29.0274   43.7585 H   0  0  0  0  0  0  0  0  0  0  0  0
   55.5320   29.7160   46.0010 H   0  0  0  0  0  0  0  0  0  0  0  0
   59.0178   30.9167   48.5144 H   0  0  0  0  0  0  0  0  0  0  0  0
   60.4523   28.4634   48.0585 H   0  0  0  0  0  0  0  0  0  0  0  0
   60.1293   28.4682   46.5359 H   0  0  0  0  0  0  0  0  0  0  0  0
   61.8632   30.6568   48.1549 H   0  0  0  0  0  0  0  0  0  0  0  0
   61.7851   31.0427   46.6486 H   0  0  0  0  0  0  0  0  0  0  0  0
  1  2  1  0
  2  3  1  0
  3  4  2  0
  4  5  1  0
  5  6  2  0
  6  7  1  0
  7  8  1  0
  8  9  2  0
  9 10  1  0
 10 11  1  0
  9 12  1  0
 12 13  2  0
 12 14  1  0
 14 15  1  0
 15 16  1  0
 16 17  1  0
 14 18  1  0
 18  3  1  0
 18  7  2  0
 17 15  1  0
  1 19  1  0
  1 20  1  0
  1 21  1  0
  4 22  1  0
  5 23  1  0
  6 24  1  0
  8 25  1  0
 10 26  1  0
 10 27  1  0
 11 28  1  0
 15 29  1  0
 16 30  1  0
 16 31  1  0
 17 32  1  0
 17 33  1  0
M  END
>  <UniqueID>  (30) 
29

>  <SMILES>  (30) 
COc1cccc2cc(CO)c(=O)n(C3CC3)c12

>  <Energy>  (30) 
314.17107622437084

>  <Genealogy>  (30) 
COc1cccc2cc(CO)c(=O)n(C3CC3)c12 (3D coordinates assigned)
COc1cccc2cc(CO)c(=O)n(C3CC3)c12 (nonaromatic ring conformer: 314.17107622437084 kcal/mol)

>  <smiles>  (30) 
COc1cccc2cc(CO)c(=O)n(C3CC3)c12

>  <score_type>  (30) 
oracle

>  <origin>  (30) 
adg

>  <m_score__min__energy>  (30) 
-6.71

>  <m_primary>  (30) 
energy

$$$$
30:0
     RDKit          3D

 38 40  0  0  0  0  0  0  0  0999 V2000
   59.5610   21.8550   44.7870 C   0  0  0  0  0  0  0  0  0  0  0  0
   58.1730   22.0270   44.2590 C   0  0  0  0  0  0  0  0  0  0  0  0
   57.4810   21.0710   43.6130 N   0  0  0  0  0  0  0  0  0  0  0  0
   56.2900   21.5320   43.3610 O   0  0  0  0  0  0  0  0  0  0  0  0
   56.1620   22.7560   43.8210 C   0  0  0  0  0  0  0  0  0  0  0  0
   54.9170   23.5710   43.7040 C   0  0  0  0  0  0  0  0  0  0  0  0
   57.3520   23.1290   44.4240 C   0  0  0  0  0  0  0  0  0  0  0  0
   57.6790   24.4230   45.1140 C   0  0  0  0  0  0  0  0  0  0  0  0
   57.9260   25.4520   44.1570 O   0  0  0  0  0  0  0  0  0  0  0  0
   57.9230   26.8150   44.4730 C   0  0  0  0  0  0  0  0  0  0  0  0
   57.7790   27.7550   43.4520 C   0  0  0  0  0  0  0  0  0  0  0  0
   57.7830   29.1150   43.7630 C   0  0  0  0  0  0  0  0  0  0  0  0
   57.9270   29.5360   45.0960 C   0  0  0  0  0  0  0  0  0  0  0  0
   57.9330   30.9800   45.4440 C   0  0  0  0  0  0  0  0  0  0  0  0
   57.4070   31.9340   44.5520 C   0  0  0  0  0  0  0  0  0  0  0  0
   57.4150   33.2920   44.8820 C   0  0  0  0  0  0  0  0  0  0  0  0
   57.9460   33.7150   46.1040 C   0  0  0  0  0  0  0  0  0  0  0  0
   58.4700   32.7780   46.9970 C   0  0  0  0  0  0  0  0  0  0  0  0
   58.4660   31.4190   46.6720 C   0  0  0  0  0  0  0  0  0  0  0  0
   58.0670   28.5530   46.0920 C   0  0  0  0  0  0  0  0  0  0  0  0
   58.0620   27.2350   45.7600 N   0  0  0  0  0  0  0  0  0  0  0  0
   59.5379   21.8579   45.8868 H   0  0  0  0  0  0  0  0  0  0  0  0
   59.9727   20.8990   44.4314 H   0  0  0  0  0  0  0  0  0  0  0  0
   60.1936   22.6816   44.4314 H   0  0  0  0  0  0  0  0  0  0  0  0
   57.8160   20.1160   43.3600 H   0  0  0  0  0  0  0  0  0  0  0  0
   54.5432   23.8157   44.7092 H   0  0  0  0  0  0  0  0  0  0  0  0
   55.1371   24.5004   43.1583 H   0  0  0  0  0  0  0  0  0  0  0  0
   54.1533   22.9975   43.1583 H   0  0  0  0  0  0  0  0  0  0  0  0
   56.8321   24.7173   45.7513 H   0  0  0  0  0  0  0  0  0  0  0  0
   58.5827   24.2815   45.7250 H   0  0  0  0  0  0  0  0  0  0  0  0
   57.6631   27.4259   42.4088 H   0  0  0  0  0  0  0  0  0  0  0  0
   57.6730   29.8606   42.9618 H   0  0  0  0  0  0  0  0  0  0  0  0
   56.9870   31.6083   43.5889 H   0  0  0  0  0  0  0  0  0  0  0  0
   57.0024   34.0300   44.1783 H   0  0  0  0  0  0  0  0  0  0  0  0
   57.9511   34.7844   46.3617 H   0  0  0  0  0  0  0  0  0  0  0  0
   58.8871   33.1107   47.9590 H   0  0  0  0  0  0  0  0  0  0  0  0
   58.8819   30.6869   47.3799 H   0  0  0  0  0  0  0  0  0  0  0  0
   58.1811   28.8521   47.1444 H   0  0  0  0  0  0  0  0  0  0  0  0
  1  2  1  0
  2  3  2  0
  3  4  1  0
  4  5  1  0
  5  6  1  0
  5  7  2  0
  7  8  1  0
  8  9  1  0
  9 10  1  0
 10 11  2  0
 11 12  1  0
 12 13  2  0
 13 14  1  0
 14 15  2  0
 15 16  1  0
 16 17  2  0
 17 18  1  0
 18 19  2  0
 13 20  1  0
 20 21  2  0
  7  2  1  0
 21 10  1  0
 19 14  1  0
  1 22  1  0
  1 23  1  0
  1 24  1  0
  3 25  1  0
  6 26  1  0
  6 27  1  0
  6 28  1  0
  8 29  1  0
  8 30  1  0
 11 31  1  0
 12 32  1  0
 15 33  1  0
 16 34  1  0
 17 35  1  0
 18 36  1  0
 19 37  1  0
 20 38  1  0
M  CHG  1   3   1
M  END
>  <UniqueID>  (31) 
30

>  <SMILES>  (31) 
Cc1[nH+]oc(C)c1COc1ccc(-c2ccccc2)cn1

>  <Energy>  (31) 
72.3006682724206

>  <Genealogy>  (31) 
Cc1[nH+]oc(C)c1COc1ccc(-c2ccccc2)cn1 (protonated)
Cc1[nH+]oc(C)c1COc1ccc(-c2ccccc2)cn1 (3D coordinates assigned)
Cc1[nH+]oc(C)c1COc1ccc(-c2ccccc2)cn1 (optimized conformer: 72.3006682724206 kcal/mol)

>  <smiles>  (31) 
Cc1noc(C)c1COc1ccc(-c2ccccc2)cn1

>  <score_type>  (31) 
oracle

>  <origin>  (31) 
adg

>  <m_score__min__energy>  (31) 
-6.5199999999999996

>  <m_primary>  (31) 
energy

$$$$
31:0
     RDKit          3D

 65 69  0  0  0  0  0  0  0  0999 V2000
   65.6110   31.8690   50.6130 C   0  0  0  0  0  0  0  0  0  0  0  0
   65.4010   32.7820   49.5410 O   0  0  0  0  0  0  0  0  0  0  0  0
   64.1430   33.1030   49.0080 C   0  0  0  0  0  0  0  0  0  0  0  0
   63.2570   33.8450   49.7960 C   0  0  0  0  0  0  0  0  0  0  0  0
   61.9920   34.1880   49.3110 C   0  0  0  0  0  0  0  0  0  0  0  0
   61.5910   33.7980   48.0210 C   0  0  0  0  0  0  0  0  0  0  0  0
   60.2770   34.1310   47.5290 N   0  0  0  0  0  0  0  0  0  0  0  0
   60.0560   35.3270   46.7050 C   0  0  0  0  0  0  0  0  0  0  0  0
   59.2850   34.9670   45.4190 C   0  0  0  0  0  0  0  0  0  0  0  0
   58.4480   33.7550   45.5770 N   0  0  0  0  0  0  0  0  0  0  0  0
   57.4130   33.6120   44.5290 C   0  0  0  0  0  0  0  0  0  0  0  0
   57.7940   32.6470   43.3880 C   0  0  0  0  0  0  0  0  0  0  0  0
   57.6220   31.2180   43.8320 C   0  0  0  0  0  0  0  0  0  0  0  0
   57.0120   30.2830   42.9820 C   0  0  0  0  0  0  0  0  0  0  0  0
   56.8270   28.9660   43.4040 C   0  0  0  0  0  0  0  0  0  0  0  0
   57.2400   28.5740   44.6780 C   0  0  0  0  0  0  0  0  0  0  0  0
   57.8400   29.4940   45.5470 C   0  0  0  0  0  0  0  0  0  0  0  0
   58.2330   29.0440   46.8180 O   0  0  0  0  0  0  0  0  0  0  0  0
   59.5820   28.9160   47.2680 C   0  0  0  0  0  0  0  0  0  0  0  0
   59.8360   29.8140   48.4430 C   0  0  0  0  0  0  0  0  0  0  0  0
   61.1480   30.1070   48.8430 C   0  0  0  0  0  0  0  0  0  0  0  0
   61.3640   30.9500   49.9340 C   0  0  0  0  0  0  0  0  0  0  0  0
   60.2710   31.4930   50.6210 C   0  0  0  0  0  0  0  0  0  0  0  0
   60.4520   32.3440   51.7220 C   0  0  0  0  0  0  0  0  0  0  0  0
   59.3400   32.8710   52.3870 C   0  0  0  0  0  0  0  0  0  0  0  0
   58.0460   32.5540   51.9570 C   0  0  0  0  0  0  0  0  0  0  0  0
   57.8580   31.7080   50.8590 C   0  0  0  0  0  0  0  0  0  0  0  0
   58.9650   31.1740   50.1890 C   0  0  0  0  0  0  0  0  0  0  0  0
   58.7860   30.3500   49.1230 N   0  0  0  0  0  0  0  0  0  0  0  0
   58.0190   30.8240   45.1200 C   0  0  0  0  0  0  0  0  0  0  0  0
   57.9420   33.5710   46.9490 C   0  0  0  0  0  0  0  0  0  0  0  0
   59.1250   33.2870   47.8790 C   0  0  0  0  0  0  0  0  0  0  0  0
   62.4790   33.0460   47.2330 C   0  0  0  0  0  0  0  0  0  0  0  0
   63.7450   32.7040   47.7180 C   0  0  0  0  0  0  0  0  0  0  0  0
   65.4900   32.3949   51.5715 H   0  0  0  0  0  0  0  0  0  0  0  0
   64.8773   31.0520   50.5479 H   0  0  0  0  0  0  0  0  0  0  0  0
   66.6279   31.4547   50.5479 H   0  0  0  0  0  0  0  0  0  0  0  0
   63.5584   34.1611   50.8056 H   0  0  0  0  0  0  0  0  0  0  0  0
   61.3042   34.7680   49.9438 H   0  0  0  0  0  0  0  0  0  0  0  0
   59.4737   36.0606   47.2819 H   0  0  0  0  0  0  0  0  0  0  0  0
   61.0323   35.7499   46.4258 H   0  0  0  0  0  0  0  0  0  0  0  0
   58.6341   35.8121   45.1502 H   0  0  0  0  0  0  0  0  0  0  0  0
   60.0263   34.7598   44.6331 H   0  0  0  0  0  0  0  0  0  0  0  0
   56.4926   33.2394   45.0024 H   0  0  0  0  0  0  0  0  0  0  0  0
   57.2874   34.6050   44.0728 H   0  0  0  0  0  0  0  0  0  0  0  0
   57.1458   32.8377   42.5199 H   0  0  0  0  0  0  0  0  0  0  0  0
   58.8469   32.8127   43.1161 H   0  0  0  0  0  0  0  0  0  0  0  0
   56.6785   30.5893   41.9795 H   0  0  0  0  0  0  0  0  0  0  0  0
   56.3546   28.2352   42.7311 H   0  0  0  0  0  0  0  0  0  0  0  0
   57.0930   27.5333   45.0026 H   0  0  0  0  0  0  0  0  0  0  0  0
   59.7665   27.8728   47.5641 H   0  0  0  0  0  0  0  0  0  0  0  0
   60.2572   29.2051   46.4491 H   0  0  0  0  0  0  0  0  0  0  0  0
   62.0015   29.6749   48.3001 H   0  0  0  0  0  0  0  0  0  0  0  0
   62.3895   31.1872   50.2534 H   0  0  0  0  0  0  0  0  0  0  0  0
   61.4673   32.5964   52.0617 H   0  0  0  0  0  0  0  0  0  0  0  0
   59.4828   33.5368   53.2509 H   0  0  0  0  0  0  0  0  0  0  0  0
   57.1751   32.9712   52.4838 H   0  0  0  0  0  0  0  0  0  0  0  0
   56.8401   31.4623   50.5220 H   0  0  0  0  0  0  0  0  0  0  0  0
   58.4731   31.5595   45.8003 H   0  0  0  0  0  0  0  0  0  0  0  0
   57.4248   34.4845   47.2776 H   0  0  0  0  0  0  0  0  0  0  0  0
   57.2354   32.7284   46.9762 H   0  0  0  0  0  0  0  0  0  0  0  0
   58.8265   33.4962   48.9168 H   0  0  0  0  0  0  0  0  0  0  0  0
   59.4145   32.2314   47.7699 H   0  0  0  0  0  0  0  0  0  0  0  0
   62.1755   32.7237   46.2260 H   0  0  0  0  0  0  0  0  0  0  0  0
   64.4331   32.1205   47.0887 H   0  0  0  0  0  0  0  0  0  0  0  0
  1  2  1  0
  2  3  1  0
  3  4  2  0
  4  5  1  0
  5  6  2  0
  6  7  1  0
  7  8  1  0
  8  9  1  0
  9 10  1  0
 10 11  1  0
 11 12  1  0
 12 13  1  0
 13 14  2  0
 14 15  1  0
 15 16  2  0
 16 17  1  0
 17 18  1  0
 18 19  1  0
 19 20  1  0
 20 21  2  0
 21 22  1  0
 22 23  2  0
 23 24  1  0
 24 25  2  0
 25 26  1  0
 26 27  2  0
 27 28  1  0
 28 29  2  0
 17 30  2  0
 10 31  1  0
 31 32  1  0
  6 33  1  0
 33 34  2  0
 34  3  1  0
 32  7  1  0
 30 13  1  0
 29 20  1  0
 28 23  1  0
  1 35  1  0
  1 36  1  0
  1 37  1  0
  4 38  1  0
  5 39  1  0
  8 40  1  0
  8 41  1  0
  9 42  1  0
  9 43  1  0
 11 44  1  0
 11 45  1  0
 12 46  1  0
 12 47  1  0
 14 48  1  0
 15 49  1  0
 16 50  1  0
 19 51  1  0
 19 52  1  0
 21 53  1  0
 22 54  1  0
 24 55  1  0
 25 56  1  0
 26 57  1  0
 27 58  1  0
 30 59  1  0
 31 60  1  0
 31 61  1  0
 32 62  1  0
 32 63  1  0
 33 64  1  0
 34 65  1  0
M  END
>  <UniqueID>  (32) 
31

>  <SMILES>  (32) 
COc1ccc(N2CCN(CCc3cccc(OCc4ccc5ccccc5n4)c3)CC2)cc1

>  <Energy>  (32) 
82.38273650783427

>  <Genealogy>  (32) 
COc1ccc(N2CCN(CCc3cccc(OCc4ccc5ccccc5n4)c3)CC2)cc1 (3D coordinates assigned)
COc1ccc(N2CCN(CCc3cccc(OCc4ccc5ccccc5n4)c3)CC2)cc1 (nonaromatic ring conformer: 82.38273650783427 kcal/mol)

>  <smiles>  (32) 
COc1ccc(N2CCN(CCc3cccc(OCc4ccc5ccccc5n4)c3)CC2)cc1

>  <score_type>  (32) 
oracle

>  <origin>  (32) 
adg

>  <m_score__min__energy>  (32) 
-9.9000000000000004

>  <m_primary>  (32) 
energy

$$$$
32:0
     RDKit          3D

 38 39  0  0  0  0  0  0  0  0999 V2000
   54.7940   24.3670   45.3630 C   0  0  0  0  0  0  0  0  0  0  0  0
   55.1350   25.3600   46.3050 O   0  0  0  0  0  0  0  0  0  0  0  0
   56.5410   25.5050   46.3810 C   0  0  0  0  0  0  0  0  0  0  0  0
   56.9950   26.6960   45.5360 C   0  0  0  0  0  0  0  0  0  0  0  0
   56.0280   27.7850   45.6210 N   0  0  0  0  0  0  0  0  0  0  0  0
   56.1290   28.9940   44.8620 C   0  0  0  0  0  0  0  0  0  0  0  0
   55.1640   29.8040   44.8150 O   0  0  0  0  0  0  0  0  0  0  0  0
   57.4010   29.3100   44.1430 C   0  0  0  0  0  0  0  0  0  0  0  0
   58.6940   29.8120   45.3270 S   0  0  0  0  0  0  0  0  0  0  0  0
   58.1180   31.5090   45.4760 C   0  0  0  0  0  0  0  0  0  0  0  0
   56.8780   31.9000   45.1340 N   0  0  0  0  0  0  0  0  0  0  0  0
   56.8160   33.1820   45.4680 N   0  0  0  0  0  0  0  0  0  0  0  0
   57.9660   33.5690   45.9970 N   0  0  0  0  0  0  0  0  0  0  0  0
   58.8000   32.5440   46.0060 N   0  0  0  0  0  0  0  0  0  0  0  0
   60.1350   32.5940   46.5390 C   0  0  0  0  0  0  0  0  0  0  0  0
   60.6150   31.5280   47.3140 C   0  0  0  0  0  0  0  0  0  0  0  0
   61.9100   31.5600   47.8390 C   0  0  0  0  0  0  0  0  0  0  0  0
   62.7460   32.6570   47.6050 C   0  0  0  0  0  0  0  0  0  0  0  0
   64.0440   32.6320   48.1340 O   0  0  0  0  0  0  0  0  0  0  0  0
   64.3500   32.3690   49.4990 C   0  0  0  0  0  0  0  0  0  0  0  0
   62.2590   33.7400   46.8500 C   0  0  0  0  0  0  0  0  0  0  0  0
   60.9610   33.7120   46.3300 C   0  0  0  0  0  0  0  0  0  0  0  0
   54.4804   23.4538   45.8901 H   0  0  0  0  0  0  0  0  0  0  0  0
   53.9684   24.7281   44.7322 H   0  0  0  0  0  0  0  0  0  0  0  0
   55.6673   24.1447   44.7322 H   0  0  0  0  0  0  0  0  0  0  0  0
   56.8332   25.6701   47.4285 H   0  0  0  0  0  0  0  0  0  0  0  0
   57.0176   24.5905   45.9981 H   0  0  0  0  0  0  0  0  0  0  0  0
   57.9700   27.0489   45.9033 H   0  0  0  0  0  0  0  0  0  0  0  0
   57.0765   26.3756   44.4869 H   0  0  0  0  0  0  0  0  0  0  0  0
   57.7384   28.4181   43.5947 H   0  0  0  0  0  0  0  0  0  0  0  0
   57.2182   30.1382   43.4425 H   0  0  0  0  0  0  0  0  0  0  0  0
   59.9676   30.6606   47.5100 H   0  0  0  0  0  0  0  0  0  0  0  0
   62.2750   30.7151   48.4415 H   0  0  0  0  0  0  0  0  0  0  0  0
   63.6746   32.9495   50.1446 H   0  0  0  0  0  0  0  0  0  0  0  0
   64.2205   31.2960   49.7036 H   0  0  0  0  0  0  0  0  0  0  0  0
   65.3914   32.6583   49.7036 H   0  0  0  0  0  0  0  0  0  0  0  0
   62.9026   34.6133   46.6678 H   0  0  0  0  0  0  0  0  0  0  0  0
   60.5842   34.5700   45.7540 H   0  0  0  0  0  0  0  0  0  0  0  0
  1  2  1  0
  2  3  1  0
  3  4  1  0
  4  5  1  0
  5  6  1  0
  6  7  2  0
  6  8  1  0
  8  9  1  0
  9 10  1  0
 10 11  2  0
 11 12  1  0
 12 13  2  0
 13 14  1  0
 14 15  1  0
 15 16  2  0
 16 17  1  0
 17 18  2  0
 18 19  1  0
 19 20  1  0
 18 21  1  0
 21 22  2  0
 14 10  1  0
 22 15  1  0
  1 23  1  0
  1 24  1  0
  1 25  1  0
  3 26  1  0
  3 27  1  0
  4 28  1  0
  4 29  1  0
  8 30  1  0
  8 31  1  0
 16 32  1  0
 17 33  1  0
 20 34  1  0
 20 35  1  0
 20 36  1  0
 21 37  1  0
 22 38  1  0
M  CHG  1   5  -1
M  END
>  <UniqueID>  (33) 
32

>  <SMILES>  (33) 
COCC[N-]C(=O)CSc1nnnn1-c1ccc(OC)cc1

>  <Energy>  (33) 
72.25977298866867

>  <Genealogy>  (33) 
COCC[N-]C(=O)CSc1nnnn1-c1ccc(OC)cc1 (protonated)
COCC[N-]C(=O)CSc1nnnn1-c1ccc(OC)cc1 (3D coordinates assigned)
COCC[N-]C(=O)CSc1nnnn1-c1ccc(OC)cc1 (optimized conformer: 72.25977298866867 kcal/mol)

>  <smiles>  (33) 
COCCNC(=O)CSc1nnnn1-c1ccc(OC)cc1

>  <score_type>  (33) 
oracle

>  <origin>  (33) 
adg

>  <m_score__min__energy>  (33) 
-9.9900000000000002

>  <m_primary>  (33) 
energy

$$$$
33:0
     RDKit          3D

 42 43  0  0  0  0  0  0  0  0999 V2000
   57.8960   27.6160   45.5520 C   0  0  0  0  0  0  0  0  0  0  0  0
   58.8160   28.6150   44.8420 C   0  0  0  0  0  0  0  0  0  0  0  0
   58.0570   29.6060   44.0360 N   0  0  0  0  0  0  0  0  0  0  0  0
   57.0020   28.9590   43.2190 C   0  0  0  0  0  0  0  0  0  0  0  0
   56.2710   29.9600   42.3160 C   0  0  0  0  0  0  0  0  0  0  0  0
   57.5140   30.6490   44.8900 C   0  0  0  0  0  0  0  0  0  0  0  0
   56.2710   30.8660   44.8690 O   0  0  0  0  0  0  0  0  0  0  0  0
   58.3600   31.4910   45.7730 C   0  0  0  0  0  0  0  0  0  0  0  0
   59.9150   31.1120   46.2980 S   0  0  0  0  0  0  0  0  0  0  0  0
   60.2150   32.5380   47.1450 C   0  0  0  0  0  0  0  0  0  0  0  0
   61.4630   32.8560   47.8860 C   0  0  0  0  0  0  0  0  0  0  0  0
   62.6770   32.2150   47.5740 C   0  0  0  0  0  0  0  0  0  0  0  0
   63.8450   32.5220   48.2780 C   0  0  0  0  0  0  0  0  0  0  0  0
   63.8250   33.4760   49.3110 C   0  0  0  0  0  0  0  0  0  0  0  0
   64.9690   33.8170   50.0450 O   0  0  0  0  0  0  0  0  0  0  0  0
   66.1390   33.0090   50.1320 C   0  0  0  0  0  0  0  0  0  0  0  0
   62.6190   34.1120   49.6250 C   0  0  0  0  0  0  0  0  0  0  0  0
   61.4500   33.8070   48.9230 C   0  0  0  0  0  0  0  0  0  0  0  0
   59.0810   33.3430   47.0270 C   0  0  0  0  0  0  0  0  0  0  0  0
   58.0540   32.7630   46.2670 C   0  0  0  0  0  0  0  0  0  0  0  0
   56.7920   33.4110   46.0830 N   0  0  0  0  0  0  0  0  0  0  0  0
   58.0014   27.7304   46.6409 H   0  0  0  0  0  0  0  0  0  0  0  0
   56.8525   27.8087   45.2623 H   0  0  0  0  0  0  0  0  0  0  0  0
   58.1738   26.5918   45.2623 H   0  0  0  0  0  0  0  0  0  0  0  0
   59.4061   29.1523   45.5990 H   0  0  0  0  0  0  0  0  0  0  0  0
   59.4630   28.0482   44.1563 H   0  0  0  0  0  0  0  0  0  0  0  0
   58.7270   30.0660   43.3730 H   0  0  0  0  0  0  0  0  0  0  0  0
   57.4665   28.1869   42.5881 H   0  0  0  0  0  0  0  0  0  0  0  0
   56.2626   28.5234   43.9071 H   0  0  0  0  0  0  0  0  0  0  0  0
   55.7361   30.6925   42.9383 H   0  0  0  0  0  0  0  0  0  0  0  0
   57.0016   30.4824   41.6810 H   0  0  0  0  0  0  0  0  0  0  0  0
   55.5510   29.4231   41.6810 H   0  0  0  0  0  0  0  0  0  0  0  0
   62.7067   31.4659   46.7690 H   0  0  0  0  0  0  0  0  0  0  0  0
   64.7864   32.0138   48.0221 H   0  0  0  0  0  0  0  0  0  0  0  0
   66.3880   32.8370   51.1895 H   0  0  0  0  0  0  0  0  0  0  0  0
   65.9558   32.0440   49.6368 H   0  0  0  0  0  0  0  0  0  0  0  0
   66.9766   33.5221   49.6368 H   0  0  0  0  0  0  0  0  0  0  0  0
   62.5909   34.8590   50.4319 H   0  0  0  0  0  0  0  0  0  0  0  0
   60.5100   34.3155   49.1837 H   0  0  0  0  0  0  0  0  0  0  0  0
   59.0000   34.3390   47.4868 H   0  0  0  0  0  0  0  0  0  0  0  0
   56.0900   33.0620   45.3960 H   0  0  0  0  0  0  0  0  0  0  0  0
   56.5210   34.2140   46.6950 H   0  0  0  0  0  0  0  0  0  0  0  0
  1  2  1  0
  2  3  1  0
  3  4  1  0
  4  5  1  0
  3  6  1  0
  6  7  2  0
  6  8  1  0
  8  9  1  0
  9 10  1  0
 10 11  1  0
 11 12  2  0
 12 13  1  0
 13 14  2  0
 14 15  1  0
 15 16  1  0
 14 17  1  0
 17 18  2  0
 10 19  2  0
 19 20  1  0
 20 21  1  0
 20  8  2  0
 18 11  1  0
  1 22  1  0
  1 23  1  0
  1 24  1  0
  2 25  1  0
  2 26  1  0
  3 27  1  0
  4 28  1  0
  4 29  1  0
  5 30  1  0
  5 31  1  0
  5 32  1  0
 12 33  1  0
 13 34  1  0
 16 35  1  0
 16 36  1  0
 16 37  1  0
 17 38  1  0
 18 39  1  0
 19 40  1  0
 21 41  1  0
 21 42  1  0
M  CHG  1   3   1
M  END
>  <UniqueID>  (34) 
33

>  <SMILES>  (34) 
CC[NH+](CC)C(=O)c1sc(-c2ccc(OC)cc2)cc1N

>  <Energy>  (34) 
73.66973462057696

>  <Genealogy>  (34) 
CC[NH+](CC)C(=O)c1sc(-c2ccc(OC)cc2)cc1N (protonated)
CC[NH+](CC)C(=O)c1sc(-c2ccc(OC)cc2)cc1N (3D coordinates assigned)
CC[NH+](CC)C(=O)c1sc(-c2ccc(OC)cc2)cc1N (optimized conformer: 73.66973462057696 kcal/mol)

>  <smiles>  (34) 
CCN(CC)C(=O)c1sc(-c2ccc(OC)cc2)cc1N

>  <score_type>  (34) 
oracle

>  <origin>  (34) 
adg

>  <m_score__min__energy>  (34) 
-5.4800000000000004

>  <m_primary>  (34) 
energy

$$$$
34:0
     RDKit          3D

 41 44  0  0  1  0  0  0  0  0999 V2000
   59.3950   33.4590   50.8230 C   0  0  0  0  0  0  0  0  0  0  0  0
   59.7570   33.6170   49.4550 O   0  0  0  0  0  0  0  0  0  0  0  0
   61.0750   33.5850   49.0250 C   0  0  0  0  0  0  0  0  0  0  0  0
   62.0650   34.2620   49.6360 N   0  0  0  0  0  0  0  0  0  0  0  0
   63.3520   34.2140   49.1920 C   0  0  0  0  0  0  0  0  0  0  0  0
   63.6540   33.4490   48.0860 C   0  0  0  0  0  0  0  0  0  0  0  0
   62.6650   32.7410   47.4320 C   0  0  0  0  0  0  0  0  0  0  0  0
   61.3680   32.8180   47.9160 C   0  0  0  0  0  0  0  0  0  0  0  0
   60.3550   32.0510   47.1920 C   0  0  0  0  0  0  0  0  0  0  0  0
   60.2770   30.6820   47.0270 C   0  0  0  0  0  0  0  0  0  0  0  0
   59.1910   30.3560   46.2910 N   0  0  0  0  0  0  0  0  0  0  0  0
   58.7600   29.0350   45.9010 C   0  0  2  0  0  0  0  0  0  0  0  0
   59.2320   28.6760   44.4990 C   0  0  0  0  0  0  0  0  0  0  0  0
   58.3370   27.4740   44.2380 C   0  0  0  0  0  0  0  0  0  0  0  0
   57.0730   27.8040   44.8500 N   0  0  0  0  0  0  0  0  0  0  0  0
   57.2620   28.9760   45.6600 C   0  0  0  0  0  0  0  0  0  0  0  0
   58.5420   31.4780   45.9610 C   0  0  0  0  0  0  0  0  0  0  0  0
   57.4190   31.7390   45.2480 N   0  0  0  0  0  0  0  0  0  0  0  0
   57.0150   33.0130   45.0890 C   0  0  0  0  0  0  0  0  0  0  0  0
   57.6780   34.0590   45.6090 N   0  0  0  0  0  0  0  0  0  0  0  0
   58.7850   33.8430   46.3130 C   0  0  0  0  0  0  0  0  0  0  0  0
   59.4820   34.8050   46.8470 N   0  0  0  0  0  0  0  0  0  0  0  0
   59.2460   32.5460   46.5070 C   0  0  0  0  0  0  0  0  0  0  0  0
   60.2150   33.8169   51.4630 H   0  0  0  0  0  0  0  0  0  0  0  0
   58.4859   34.0422   51.0314 H   0  0  0  0  0  0  0  0  0  0  0  0
   59.2045   32.3959   51.0314 H   0  0  0  0  0  0  0  0  0  0  0  0
   64.1409   34.7791   49.7100 H   0  0  0  0  0  0  0  0  0  0  0  0
   64.6908   33.4020   47.7214 H   0  0  0  0  0  0  0  0  0  0  0  0
   62.9007   32.1304   46.5479 H   0  0  0  0  0  0  0  0  0  0  0  0
   60.9973   29.9587   47.4368 H   0  0  0  0  0  0  0  0  0  0  0  0
   59.1381   28.3940   46.7110 H   0  0  0  0  0  0  0  0  0  0  0  0
   59.0472   29.4896   43.7821 H   0  0  0  0  0  0  0  0  0  0  0  0
   60.3114   28.4885   44.4001 H   0  0  0  0  0  0  0  0  0  0  0  0
   58.2120   27.3136   43.1570 H   0  0  0  0  0  0  0  0  0  0  0  0
   58.7633   26.5469   44.6489 H   0  0  0  0  0  0  0  0  0  0  0  0
   56.2920   27.8670   44.1750 H   0  0  0  0  0  0  0  0  0  0  0  0
   56.9181   29.8755   45.1284 H   0  0  0  0  0  0  0  0  0  0  0  0
   56.6891   28.9326   46.5980 H   0  0  0  0  0  0  0  0  0  0  0  0
   56.1015   33.2061   44.5075 H   0  0  0  0  0  0  0  0  0  0  0  0
   57.3340   35.0250   45.4630 H   0  0  0  0  0  0  0  0  0  0  0  0
   59.4580   34.8720   47.8960 H   0  0  0  0  0  0  0  0  0  0  0  0
  1  2  1  0
  2  3  1  0
  3  4  2  0
  4  5  1  0
  5  6  2  0
  6  7  1  0
  7  8  2  0
  8  9  1  0
  9 10  2  0
 10 11  1  0
 11 12  1  0
 12 13  1  0
 13 14  1  0
 14 15  1  0
 15 16  1  0
 11 17  1  0
 17 18  1  0
 18 19  2  0
 19 20  1  0
 20 21  1  0
 21 22  2  3
 21 23  1  0
  8  3  1  0
 23  9  1  0
 16 12  1  0
 23 17  2  0
  1 24  1  0
  1 25  1  0
  1 26  1  0
  5 27  1  0
  6 28  1  0
  7 29  1  0
 10 30  1  0
 12 31  1  1
 13 32  1  0
 13 33  1  0
 14 34  1  0
 14 35  1  0
 15 36  1  0
 16 37  1  0
 16 38  1  0
 19 39  1  0
 20 40  1  0
 22 41  1  0
M  END
>  <smiles>  (35) 
COc1ncccc1-c1cn(C2CCNC2)c2nc[nH]c(=N)c12

>  <score_type>  (35) 
oracle

>  <origin>  (35) 
adg

>  <m_score__min__energy>  (35) 
-7.2199999999999998

>  <m_primary>  (35) 
energy

$$$$
35:0
     RDKit          3D

 20 20  0  0  0  0  0  0  0  0999 V2000
   57.0220   28.2490   45.4800 C   0  0  0  0  0  0  0  0  0  0  0  0
   56.0660   29.1080   44.8700 O   0  0  0  0  0  0  0  0  0  0  0  0
   56.3930   29.9870   43.8320 C   0  0  0  0  0  0  0  0  0  0  0  0
   56.0700   29.7090   42.6460 O   0  0  0  0  0  0  0  0  0  0  0  0
   57.1350   31.2200   44.1520 C   0  0  0  0  0  0  0  0  0  0  0  0
   57.2690   31.6160   45.4480 N   0  0  0  0  0  0  0  0  0  0  0  0
   57.9870   32.7540   45.5660 C   0  0  0  0  0  0  0  0  0  0  0  0
   58.3460   33.5340   47.1340 S   0  0  0  0  0  0  0  0  0  0  0  0
   59.4340   34.7880   46.3910 C   0  0  0  0  0  0  0  0  0  0  0  0
   58.5000   33.3340   44.0760 S   0  0  0  0  0  0  0  0  0  0  0  0
   57.7670   32.0750   43.2350 C   0  0  0  0  0  0  0  0  0  0  0  0
   57.7870   31.9670   41.8090 N   0  0  0  0  0  0  0  0  0  0  0  0
   56.9376   28.3248   46.5741 H   0  0  0  0  0  0  0  0  0  0  0  0
   56.8335   27.2109   45.1688 H   0  0  0  0  0  0  0  0  0  0  0  0
   58.0341   28.5471   45.1688 H   0  0  0  0  0  0  0  0  0  0  0  0
   59.9310   35.3608   47.1878 H   0  0  0  0  0  0  0  0  0  0  0  0
   60.1929   34.2922   45.7679 H   0  0  0  0  0  0  0  0  0  0  0  0
   58.8361   35.4694   45.7679 H   0  0  0  0  0  0  0  0  0  0  0  0
   58.2900   32.6460   41.1990 H   0  0  0  0  0  0  0  0  0  0  0  0
   57.3220   31.1530   41.3500 H   0  0  0  0  0  0  0  0  0  0  0  0
  1  2  1  0
  2  3  1  0
  3  4  2  0
  3  5  1  0
  5  6  1  0
  6  7  2  0
  7  8  1  0
  8  9  1  0
  7 10  1  0
 10 11  1  0
 11 12  1  0
 11  5  2  0
  1 13  1  0
  1 14  1  0
  1 15  1  0
  9 16  1  0
  9 17  1  0
  9 18  1  0
 12 19  1  0
 12 20  1  0
M  END
>  <UniqueID>  (36) 
34

>  <SMILES>  (36) 
COC(=O)c1nc(SC)sc1N

>  <Energy>  (36) 
43.11421707846735

>  <Genealogy>  (36) 
COC(=O)c1nc(SC)sc1N (3D coordinates assigned)
COC(=O)c1nc(SC)sc1N (optimized conformer: 43.11421707846735 kcal/mol)

>  <smiles>  (36) 
COC(=O)c1nc(SC)sc1N

>  <score_type>  (36) 
oracle

>  <origin>  (36) 
adg

>  <m_score__min__energy>  (36) 
-4.4299999999999997

>  <m_primary>  (36) 
energy

$$$$
36:0
     RDKit          3D

 36 37  0  0  0  0  0  0  0  0999 V2000
   57.3930   32.0760   41.5240 C   0  0  0  0  0  0  0  0  0  0  0  0
   57.5220   31.2610   42.8120 C   0  0  0  0  0  0  0  0  0  0  0  0
   56.6250   30.0130   42.8260 C   0  0  0  0  0  0  0  0  0  0  0  0
   55.4730   30.0990   43.8390 C   0  0  0  0  0  0  0  0  0  0  0  0
   55.8960   29.6610   45.1640 N   0  0  0  0  0  0  0  0  0  0  0  0
   56.8500   28.6330   45.4630 C   0  0  0  0  0  0  0  0  0  0  0  0
   56.4310   27.4710   45.6950 O   0  0  0  0  0  0  0  0  0  0  0  0
   58.3350   28.8830   45.4980 C   0  0  0  0  0  0  0  0  0  0  0  0
   58.6490   29.8300   46.5160 O   0  0  0  0  0  0  0  0  0  0  0  0
   58.6090   31.2110   46.2910 C   0  0  0  0  0  0  0  0  0  0  0  0
   57.4660   31.7660   45.8010 N   0  0  0  0  0  0  0  0  0  0  0  0
   57.3890   33.0930   45.5260 C   0  0  0  0  0  0  0  0  0  0  0  0
   58.4530   33.9030   45.7570 N   0  0  0  0  0  0  0  0  0  0  0  0
   59.6110   33.4060   46.2650 C   0  0  0  0  0  0  0  0  0  0  0  0
   60.6910   34.2620   46.5050 C   0  0  0  0  0  0  0  0  0  0  0  0
   61.8790   33.7580   47.0390 C   0  0  0  0  0  0  0  0  0  0  0  0
   61.9870   32.4010   47.3480 C   0  0  0  0  0  0  0  0  0  0  0  0
   60.9140   31.5370   47.1180 C   0  0  0  0  0  0  0  0  0  0  0  0
   59.7210   32.0310   46.5600 C   0  0  0  0  0  0  0  0  0  0  0  0
   57.2256   33.1339   41.7747 H   0  0  0  0  0  0  0  0  0  0  0  0
   58.3174   31.9805   40.9355 H   0  0  0  0  0  0  0  0  0  0  0  0
   56.5432   31.6997   40.9355 H   0  0  0  0  0  0  0  0  0  0  0  0
   58.5689   30.9414   42.9211 H   0  0  0  0  0  0  0  0  0  0  0  0
   57.2007   31.9062   43.6429 H   0  0  0  0  0  0  0  0  0  0  0  0
   56.1965   29.8806   41.8216 H   0  0  0  0  0  0  0  0  0  0  0  0
   57.2565   29.1634   43.1248 H   0  0  0  0  0  0  0  0  0  0  0  0
   55.1272   31.1414   43.9001 H   0  0  0  0  0  0  0  0  0  0  0  0
   54.6623   29.4382   43.4983 H   0  0  0  0  0  0  0  0  0  0  0  0
   58.8581   27.9381   45.7064 H   0  0  0  0  0  0  0  0  0  0  0  0
   58.6557   29.2818   44.5243 H   0  0  0  0  0  0  0  0  0  0  0  0
   56.6400   31.1560   45.6090 H   0  0  0  0  0  0  0  0  0  0  0  0
   56.4599   33.5137   45.1140 H   0  0  0  0  0  0  0  0  0  0  0  0
   60.6045   35.3337   46.2728 H   0  0  0  0  0  0  0  0  0  0  0  0
   62.7307   34.4312   47.2163 H   0  0  0  0  0  0  0  0  0  0  0  0
   62.9223   32.0100   47.7750 H   0  0  0  0  0  0  0  0  0  0  0  0
   61.0018   30.4706   47.3731 H   0  0  0  0  0  0  0  0  0  0  0  0
  1  2  1  0
  2  3  1  0
  3  4  1  0
  4  5  1  0
  5  6  1  0
  6  7  2  0
  6  8  1  0
  8  9  1  0
  9 10  1  0
 10 11  2  0
 11 12  1  0
 12 13  2  0
 13 14  1  0
 14 15  2  0
 15 16  1  0
 16 17  2  0
 17 18  1  0
 18 19  2  0
 19 10  1  0
 19 14  1  0
  1 20  1  0
  1 21  1  0
  1 22  1  0
  2 23  1  0
  2 24  1  0
  3 25  1  0
  3 26  1  0
  4 27  1  0
  4 28  1  0
  8 29  1  0
  8 30  1  0
 11 31  1  0
 12 32  1  0
 15 33  1  0
 16 34  1  0
 17 35  1  0
 18 36  1  0
M  CHG  2   5  -1  11   1
M  END
>  <UniqueID>  (37) 
35

>  <SMILES>  (37) 
CCCC[N-]C(=O)COc1[nH+]cnc2ccccc12

>  <Energy>  (37) 
40.68368489147694

>  <Genealogy>  (37) 
CCCC[N-]C(=O)COc1[nH+]cnc2ccccc12 (protonated)
CCCC[N-]C(=O)COc1[nH+]cnc2ccccc12 (3D coordinates assigned)
CCCC[N-]C(=O)COc1[nH+]cnc2ccccc12 (optimized conformer: 40.68368489147694 kcal/mol)

>  <smiles>  (37) 
CCCCNC(=O)COc1ncnc2ccccc12

>  <score_type>  (37) 
oracle

>  <origin>  (37) 
adg

>  <m_score__min__energy>  (37) 
-7.0199999999999996

>  <m_primary>  (37) 
energy

$$$$
37:0
     RDKit          3D

 30 32  0  0  0  0  0  0  0  0999 V2000
   57.7410   33.5500   45.0780 C   0  0  0  0  0  0  0  0  0  0  0  0
   58.6500   34.5930   44.8780 C   0  0  0  0  0  0  0  0  0  0  0  0
   59.5730   34.9200   45.8760 C   0  0  0  0  0  0  0  0  0  0  0  0
   59.5930   34.2010   47.0830 C   0  0  0  0  0  0  0  0  0  0  0  0
   60.5620   34.5610   48.1740 C   0  0  0  0  0  0  0  0  0  0  0  0
   61.8280   33.8580   47.9740 N   0  0  0  0  0  0  0  0  0  0  0  0
   62.4420   33.6180   46.7920 C   0  0  0  0  0  0  0  0  0  0  0  0
   63.7120   33.0930   47.0370 C   0  0  0  0  0  0  0  0  0  0  0  0
   63.7690   33.0180   48.4150 C   0  0  0  0  0  0  0  0  0  0  0  0
   62.6440   33.4560   48.9330 N   0  0  0  0  0  0  0  0  0  0  0  0
   62.7570   33.8510   50.3170 C   0  0  0  0  0  0  0  0  0  0  0  0
   64.2050   33.4400   50.6840 C   0  0  0  0  0  0  0  0  0  0  0  0
   64.8900   32.9710   49.3730 C   0  0  0  0  0  0  0  0  0  0  0  0
   58.6730   33.1580   47.2790 C   0  0  0  0  0  0  0  0  0  0  0  0
   57.7520   32.8340   46.2780 C   0  0  0  0  0  0  0  0  0  0  0  0
   57.0170   33.2929   44.2908 H   0  0  0  0  0  0  0  0  0  0  0  0
   58.6391   35.1574   43.9339 H   0  0  0  0  0  0  0  0  0  0  0  0
   60.2856   35.7425   45.7158 H   0  0  0  0  0  0  0  0  0  0  0  0
   60.7419   35.6461   48.1573 H   0  0  0  0  0  0  0  0  0  0  0  0
   60.1365   34.2669   49.1448 H   0  0  0  0  0  0  0  0  0  0  0  0
   62.0098   33.8063   45.7982 H   0  0  0  0  0  0  0  0  0  0  0  0
   64.4834   32.8072   46.3068 H   0  0  0  0  0  0  0  0  0  0  0  0
   62.6138   34.9357   50.4308 H   0  0  0  0  0  0  0  0  0  0  0  0
   61.9987   33.3840   50.9627 H   0  0  0  0  0  0  0  0  0  0  0  0
   64.7461   34.2996   51.1063 H   0  0  0  0  0  0  0  0  0  0  0  0
   64.2064   32.6375   51.4363 H   0  0  0  0  0  0  0  0  0  0  0  0
   65.6992   33.6547   49.0769 H   0  0  0  0  0  0  0  0  0  0  0  0
   65.3706   31.9845   49.4491 H   0  0  0  0  0  0  0  0  0  0  0  0
   58.6770   32.5940   48.2234 H   0  0  0  0  0  0  0  0  0  0  0  0
   57.0353   32.0145   46.4353 H   0  0  0  0  0  0  0  0  0  0  0  0
  1  2  2  0
  2  3  1  0
  3  4  2  0
  4  5  1  0
  5  6  1  0
  6  7  1  0
  7  8  2  0
  8  9  1  0
  9 10  2  0
 10 11  1  0
 11 12  1  0
 12 13  1  0
  4 14  1  0
 14 15  2  0
 15  1  1  0
 10  6  1  0
 13  9  1  0
  1 16  1  0
  2 17  1  0
  3 18  1  0
  5 19  1  0
  5 20  1  0
  7 21  1  0
  8 22  1  0
 11 23  1  0
 11 24  1  0
 12 25  1  0
 12 26  1  0
 13 27  1  0
 13 28  1  0
 14 29  1  0
 15 30  1  0
M  CHG  1  10   1
M  END
>  <UniqueID>  (38) 
36

>  <SMILES>  (38) 
c1ccc(Cn2ccc3[n+]2CCC3)cc1

>  <Energy>  (38) 
80.95319219339125

>  <Genealogy>  (38) 
c1ccc(Cn2ccc3[n+]2CCC3)cc1 (3D coordinates assigned)
c1ccc(Cn2ccc3[n+]2CCC3)cc1 (nonaromatic ring conformer: 80.95319219339125 kcal/mol)

>  <smiles>  (38) 
c1ccc(Cn2ccc3[n+]2CCC3)cc1

>  <score_type>  (38) 
oracle

>  <origin>  (38) 
adg

>  <m_score__min__energy>  (38) 
-4.9000000000000004

>  <m_primary>  (38) 
energy

$$$$
38:0
     RDKit          3D

 49 50  0  0  0  0  0  0  0  0999 V2000
   57.3350   27.7250   45.9300 C   0  0  0  0  0  0  0  0  0  0  0  0
   56.4390   28.5350   45.1050 N   0  0  0  0  0  0  0  0  0  0  0  0
   57.2170   29.4230   44.2290 C   0  0  0  0  0  0  0  0  0  0  0  0
   56.4830   30.7570   44.0150 C   0  0  0  0  0  0  0  0  0  0  0  0
   57.4080   31.9880   44.0690 C   0  0  0  0  0  0  0  0  0  0  0  0
   57.2500   32.8210   45.3540 C   0  0  0  0  0  0  0  0  0  0  0  0
   58.4850   32.8320   46.1610 N   0  0  0  0  0  0  0  0  0  0  0  0
   59.1590   34.0720   46.4590 C   0  0  0  0  0  0  0  0  0  0  0  0
   58.5500   34.9660   47.1100 O   0  0  0  0  0  0  0  0  0  0  0  0
   60.5630   34.3360   45.9910 C   0  0  0  0  0  0  0  0  0  0  0  0
   61.5670   33.8570   47.0080 C   0  0  0  0  0  0  0  0  0  0  0  0
   62.8610   33.4870   46.6110 C   0  0  0  0  0  0  0  0  0  0  0  0
   63.7990   33.0710   47.5610 C   0  0  0  0  0  0  0  0  0  0  0  0
   63.4660   33.0460   48.9270 C   0  0  0  0  0  0  0  0  0  0  0  0
   64.4630   32.5560   49.9480 C   0  0  0  0  0  0  0  0  0  0  0  0
   65.7420   32.7140   49.4470 F   0  0  0  0  0  0  0  0  0  0  0  0
   64.2530   31.2170   50.2290 F   0  0  0  0  0  0  0  0  0  0  0  0
   64.3490   33.2700   51.1280 F   0  0  0  0  0  0  0  0  0  0  0  0
   62.1640   33.4010   49.3190 C   0  0  0  0  0  0  0  0  0  0  0  0
   61.2260   33.8160   48.3680 C   0  0  0  0  0  0  0  0  0  0  0  0
   58.9530   31.6270   46.7980 C   0  0  0  0  0  0  0  0  0  0  0  0
   58.6990   31.3820   48.1600 C   0  0  0  0  0  0  0  0  0  0  0  0
   59.1500   30.2020   48.7600 C   0  0  0  0  0  0  0  0  0  0  0  0
   59.8520   29.2550   48.0080 C   0  0  0  0  0  0  0  0  0  0  0  0
   60.4080   27.7720   48.7610 Cl  0  0  0  0  0  0  0  0  0  0  0  0
   60.1120   29.4930   46.6520 C   0  0  0  0  0  0  0  0  0  0  0  0
   59.6680   30.6730   46.0510 C   0  0  0  0  0  0  0  0  0  0  0  0
   57.1257   27.9142   46.9932 H   0  0  0  0  0  0  0  0  0  0  0  0
   57.1743   26.6596   45.7086 H   0  0  0  0  0  0  0  0  0  0  0  0
   58.3789   27.9921   45.7086 H   0  0  0  0  0  0  0  0  0  0  0  0
   55.8960   27.8710   44.5050 H   0  0  0  0  0  0  0  0  0  0  0  0
   58.1954   29.6197   44.6917 H   0  0  0  0  0  0  0  0  0  0  0  0
   57.3472   28.9313   43.2537 H   0  0  0  0  0  0  0  0  0  0  0  0
   55.9962   30.7313   43.0289 H   0  0  0  0  0  0  0  0  0  0  0  0
   55.7599   30.8617   44.8372 H   0  0  0  0  0  0  0  0  0  0  0  0
   58.4505   31.6429   44.0041 H   0  0  0  0  0  0  0  0  0  0  0  0
   57.1297   32.6382   43.2265 H   0  0  0  0  0  0  0  0  0  0  0  0
   56.9970   33.8553   45.0779 H   0  0  0  0  0  0  0  0  0  0  0  0
   56.4529   32.3643   45.9590 H   0  0  0  0  0  0  0  0  0  0  0  0
   60.7317   33.8071   45.0414 H   0  0  0  0  0  0  0  0  0  0  0  0
   60.6904   35.4200   45.8544 H   0  0  0  0  0  0  0  0  0  0  0  0
   63.1389   33.5244   45.5473 H   0  0  0  0  0  0  0  0  0  0  0  0
   64.8038   32.7613   47.2377 H   0  0  0  0  0  0  0  0  0  0  0  0
   61.8807   33.3522   50.3808 H   0  0  0  0  0  0  0  0  0  0  0  0
   60.2160   34.1117   48.6882 H   0  0  0  0  0  0  0  0  0  0  0  0
   58.1434   32.1216   48.7553 H   0  0  0  0  0  0  0  0  0  0  0  0
   58.9520   30.0184   49.8263 H   0  0  0  0  0  0  0  0  0  0  0  0
   60.6664   28.7498   46.0601 H   0  0  0  0  0  0  0  0  0  0  0  0
   59.8786   30.8575   44.9872 H   0  0  0  0  0  0  0  0  0  0  0  0
  1  2  1  0
  2  3  1  0
  3  4  1  0
  4  5  1  0
  5  6  1  0
  6  7  1  0
  7  8  1  0
  8  9  2  0
  8 10  1  0
 10 11  1  0
 11 12  2  0
 12 13  1  0
 13 14  2  0
 14 15  1  0
 15 16  1  0
 15 17  1  0
 15 18  1  0
 14 19  1  0
 19 20  2  0
  7 21  1  0
 21 22  2  0
 22 23  1  0
 23 24  2  0
 24 25  1  0
 24 26  1  0
 26 27  2  0
 20 11  1  0
 27 21  1  0
  1 28  1  0
  1 29  1  0
  1 30  1  0
  2 31  1  0
  3 32  1  0
  3 33  1  0
  4 34  1  0
  4 35  1  0
  5 36  1  0
  5 37  1  0
  6 38  1  0
  6 39  1  0
 10 40  1  0
 10 41  1  0
 12 42  1  0
 13 43  1  0
 19 44  1  0
 20 45  1  0
 22 46  1  0
 23 47  1  0
 26 48  1  0
 27 49  1  0
M  END
>  <UniqueID>  (39) 
37

>  <SMILES>  (39) 
CNCCCCN(C(=O)Cc1ccc(C(F)(F)F)cc1)c1ccc(Cl)cc1

>  <Energy>  (39) 
49.42786847568376

>  <Genealogy>  (39) 
CNCCCCN(C(=O)Cc1ccc(C(F)(F)F)cc1)c1ccc(Cl)cc1 (3D coordinates assigned)
CNCCCCN(C(=O)Cc1ccc(C(F)(F)F)cc1)c1ccc(Cl)cc1 (optimized conformer: 49.42786847568376 kcal/mol)

>  <smiles>  (39) 
CNCCCCN(C(=O)Cc1ccc(C(F)(F)F)cc1)c1ccc(Cl)cc1

>  <score_type>  (39) 
oracle

>  <origin>  (39) 
adg

>  <m_score__min__energy>  (39) 
-8.0099999999999998

>  <m_primary>  (39) 
energy

$$$$
39:0
     RDKit          3D

 59 63  0  0  0  0  0  0  0  0999 V2000
   59.5000   28.7080   52.0500 C   0  0  0  0  0  0  0  0  0  0  0  0
   58.5120   29.8440   52.1400 C   0  0  0  0  0  0  0  0  0  0  0  0
   58.0280   30.2230   53.4050 C   0  0  0  0  0  0  0  0  0  0  0  0
   57.1210   31.2750   53.5330 C   0  0  0  0  0  0  0  0  0  0  0  0
   56.6900   31.9650   52.4030 C   0  0  0  0  0  0  0  0  0  0  0  0
   57.1600   31.6050   51.1400 C   0  0  0  0  0  0  0  0  0  0  0  0
   58.0720   30.5380   50.9830 C   0  0  0  0  0  0  0  0  0  0  0  0
   58.5930   30.1300   49.6080 C   0  0  0  0  0  0  0  0  0  0  0  0
   59.6030   31.0510   49.0550 N   0  0  0  0  0  0  0  0  0  0  0  0
   60.9540   30.9950   49.5860 C   0  0  0  0  0  0  0  0  0  0  0  0
   61.2730   30.0210   50.3240 O   0  0  0  0  0  0  0  0  0  0  0  0
   62.0120   32.0080   49.3120 C   0  0  0  0  0  0  0  0  0  0  0  0
   63.3350   31.5580   49.1360 C   0  0  0  0  0  0  0  0  0  0  0  0
   64.3850   32.4670   48.9820 C   0  0  0  0  0  0  0  0  0  0  0  0
   64.1320   33.8390   49.0160 C   0  0  0  0  0  0  0  0  0  0  0  0
   62.8280   34.3030   49.1940 C   0  0  0  0  0  0  0  0  0  0  0  0
   61.7700   33.3990   49.3540 C   0  0  0  0  0  0  0  0  0  0  0  0
   60.1500   34.0310   49.4820 S   0  0  0  0  0  0  0  0  0  0  0  0
   59.4310   33.7790   50.9820 O   0  0  0  0  0  0  0  0  0  0  0  0
   59.2720   33.3420   48.1440 C   0  0  0  0  0  0  0  0  0  0  0  0
   58.7550   34.1920   47.1630 C   0  0  0  0  0  0  0  0  0  0  0  0
   58.1240   33.6650   46.0350 C   0  0  0  0  0  0  0  0  0  0  0  0
   58.0050   32.2760   45.8720 C   0  0  0  0  0  0  0  0  0  0  0  0
   57.3200   31.7120   44.6850 C   0  0  0  0  0  0  0  0  0  0  0  0
   57.6290   32.1090   43.5290 O   0  0  0  0  0  0  0  0  0  0  0  0
   56.2950   30.7230   44.8450 N   0  0  0  0  0  0  0  0  0  0  0  0
   56.4460   29.3320   44.4390 C   0  0  0  0  0  0  0  0  0  0  0  0
   57.6250   28.7150   45.1390 C   0  0  0  0  0  0  0  0  0  0  0  0
   58.9240   28.8630   44.6230 C   0  0  0  0  0  0  0  0  0  0  0  0
   60.0160   28.3060   45.2970 C   0  0  0  0  0  0  0  0  0  0  0  0
   59.8210   27.6070   46.4920 C   0  0  0  0  0  0  0  0  0  0  0  0
   60.8810   27.0720   47.1480 F   0  0  0  0  0  0  0  0  0  0  0  0
   58.5320   27.4640   47.0150 C   0  0  0  0  0  0  0  0  0  0  0  0
   57.4380   28.0180   46.3440 C   0  0  0  0  0  0  0  0  0  0  0  0
   58.5330   31.4270   46.8610 C   0  0  0  0  0  0  0  0  0  0  0  0
   59.1850   31.9470   47.9960 C   0  0  0  0  0  0  0  0  0  0  0  0
   59.7808   28.3851   53.0634 H   0  0  0  0  0  0  0  0  0  0  0  0
   59.0422   27.8658   51.5105 H   0  0  0  0  0  0  0  0  0  0  0  0
   60.3976   29.0446   51.5105 H   0  0  0  0  0  0  0  0  0  0  0  0
   58.3680   29.6847   54.3020 H   0  0  0  0  0  0  0  0  0  0  0  0
   56.7460   31.5596   54.5272 H   0  0  0  0  0  0  0  0  0  0  0  0
   55.9770   32.7962   52.5066 H   0  0  0  0  0  0  0  0  0  0  0  0
   56.8158   32.1595   50.2545 H   0  0  0  0  0  0  0  0  0  0  0  0
   59.0443   29.1303   49.6912 H   0  0  0  0  0  0  0  0  0  0  0  0
   57.7334   30.1492   48.9220 H   0  0  0  0  0  0  0  0  0  0  0  0
   63.5441   30.4782   49.1196 H   0  0  0  0  0  0  0  0  0  0  0  0
   65.4117   32.1009   48.8339 H   0  0  0  0  0  0  0  0  0  0  0  0
   64.9600   34.5543   48.9026 H   0  0  0  0  0  0  0  0  0  0  0  0
   62.6298   35.3849   49.2088 H   0  0  0  0  0  0  0  0  0  0  0  0
   60.0060   33.1230   51.4470 H   0  0  0  0  0  0  0  0  0  0  0  0
   58.8457   35.2820   47.2802 H   0  0  0  0  0  0  0  0  0  0  0  0
   57.7176   34.3422   45.2693 H   0  0  0  0  0  0  0  0  0  0  0  0
   55.5345   28.7752   44.7018 H   0  0  0  0  0  0  0  0  0  0  0  0
   56.6098   29.2897   43.3521 H   0  0  0  0  0  0  0  0  0  0  0  0
   59.0824   29.4183   43.6867 H   0  0  0  0  0  0  0  0  0  0  0  0
   61.0301   28.4182   44.8859 H   0  0  0  0  0  0  0  0  0  0  0  0
   58.3787   26.9148   47.9557 H   0  0  0  0  0  0  0  0  0  0  0  0
   56.4263   27.9076   46.7615 H   0  0  0  0  0  0  0  0  0  0  0  0
   58.4350   30.3374   46.7461 H   0  0  0  0  0  0  0  0  0  0  0  0
  1  2  1  0
  2  3  2  0
  3  4  1  0
  4  5  2  0
  5  6  1  0
  6  7  2  0
  7  8  1  0
  8  9  1  0
  9 10  1  0
 10 11  2  0
 10 12  1  0
 12 13  2  0
 13 14  1  0
 14 15  2  0
 15 16  1  0
 16 17  2  0
 17 18  1  0
 18 19  1  1
 18 20  1  0
 20 21  2  0
 21 22  1  0
 22 23  2  0
 23 24  1  0
 24 25  2  0
 24 26  1  0
 26 27  1  0
 27 28  1  0
 28 29  2  0
 29 30  1  0
 30 31  2  0
 31 32  1  0
 31 33  1  0
 33 34  2  0
 23 35  1  0
 35 36  2  0
  7  2  1  0
 36  9  1  0
 17 12  1  0
 36 20  1  0
 34 28  1  0
  1 37  1  0
  1 38  1  0
  1 39  1  0
  3 40  1  0
  4 41  1  0
  5 42  1  0
  6 43  1  0
  8 44  1  0
  8 45  1  0
 13 46  1  0
 14 47  1  0
 15 48  1  0
 16 49  1  0
 19 50  1  0
 21 51  1  0
 22 52  1  0
 27 53  1  0
 27 54  1  0
 29 55  1  0
 30 56  1  0
 33 57  1  0
 34 58  1  0
 35 59  1  0
M  CHG  2  18   1  26  -1
M  END
>  <UniqueID>  (40) 
38

>  <SMILES>  (40) 
Cc1ccccc1CN1C(=O)c2ccccc2[S@+](O)c2ccc(C(=O)[N-]Cc3ccc(F)cc3)cc21

>  <Energy>  (40) 
84.03256763520312

>  <Genealogy>  (40) 
Cc1ccccc1CN1C(=O)c2ccccc2[S+](O)c2ccc(C(=O)[N-]Cc3ccc(F)cc3)cc21 (protonated)
Cc1ccccc1CN1C(=O)c2ccccc2[S@+](O)c2ccc(C(=O)[N-]Cc3ccc(F)cc3)cc21 (chirality)
Cc1ccccc1CN1C(=O)c2ccccc2[S@+](O)c2ccc(C(=O)[N-]Cc3ccc(F)cc3)cc21 (3D coordinates assigned)
Cc1ccccc1CN1C(=O)c2ccccc2[S@+](O)c2ccc(C(=O)[N-]Cc3ccc(F)cc3)cc21 (nonaromatic ring conformer: 84.03256763520312 kcal/mol)

>  <smiles>  (40) 
Cc1ccccc1CN1C(=O)c2ccccc2[S+]([O-])c2ccc(C(=O)NCc3ccc(F)cc3)cc21

>  <score_type>  (40) 
oracle

>  <origin>  (40) 
adg

>  <m_score__min__energy>  (40) 
-9.5299999999999994

>  <m_primary>  (40) 
energy

$$$$
40:0
     RDKit          3D

 41 42  0  0  0  0  0  0  0  0999 V2000
   54.8870   28.2990   44.4470 H   0  0  0  0  0  0  0  0  0  0  0  0
   55.2150   29.2900   44.4340 N   0  0  0  0  0  0  0  0  0  0  0  0
   56.3210   29.6480   45.0070 C   0  0  0  0  0  0  0  0  0  0  0  0
   56.7440   30.9330   44.8860 N   0  0  0  0  0  0  0  0  0  0  0  0
   57.8930   31.3640   45.4600 C   0  0  0  0  0  0  0  0  0  0  0  0
   58.2089   32.4115   45.3457 H   0  0  0  0  0  0  0  0  0  0  0  0
   58.6760   30.4700   46.1990 C   0  0  0  0  0  0  0  0  0  0  0  0
   59.9460   30.9160   46.8280 C   0  0  0  0  0  0  0  0  0  0  0  0
   60.6750   30.0510   47.6570 C   0  0  0  0  0  0  0  0  0  0  0  0
   60.3053   29.0321   47.8448 H   0  0  0  0  0  0  0  0  0  0  0  0
   61.8350   30.4650   48.2290 N   0  0  0  0  0  0  0  0  0  0  0  0
   62.3340   31.7170   48.0300 C   0  0  0  0  0  0  0  0  0  0  0  0
   63.5320   32.1090   48.6370 O   0  0  0  0  0  0  0  0  0  0  0  0
   63.5930   33.1040   49.6510 C   0  0  0  0  0  0  0  0  0  0  0  0
   63.5635   32.6224   50.6395 H   0  0  0  0  0  0  0  0  0  0  0  0
   64.5278   33.6747   49.5489 H   0  0  0  0  0  0  0  0  0  0  0  0
   62.7349   33.7846   49.5489 H   0  0  0  0  0  0  0  0  0  0  0  0
   61.6470   32.6220   47.2130 C   0  0  0  0  0  0  0  0  0  0  0  0
   62.1830   33.9050   47.0280 O   0  0  0  0  0  0  0  0  0  0  0  0
   63.3920   34.1780   46.3270 C   0  0  0  0  0  0  0  0  0  0  0  0
   64.2013   34.3608   47.0492 H   0  0  0  0  0  0  0  0  0  0  0  0
   63.6521   33.3160   45.6951 H   0  0  0  0  0  0  0  0  0  0  0  0
   63.2565   35.0682   45.6951 H   0  0  0  0  0  0  0  0  0  0  0  0
   60.4450   32.2110   46.6100 C   0  0  0  0  0  0  0  0  0  0  0  0
   59.8918   32.9080   45.9634 H   0  0  0  0  0  0  0  0  0  0  0  0
   58.2570   29.1760   46.3260 N   0  0  0  0  0  0  0  0  0  0  0  0
   58.8320   28.5200   46.9000 H   0  0  0  0  0  0  0  0  0  0  0  0
   57.0970   28.7300   45.7520 C   0  0  0  0  0  0  0  0  0  0  0  0
   56.6950   27.3050   45.9320 C   0  0  0  0  0  0  0  0  0  0  0  0
   55.5260   26.9250   45.6480 O   0  0  0  0  0  0  0  0  0  0  0  0
   57.6410   26.3560   46.4380 N   0  0  0  0  0  0  0  0  0  0  0  0
   58.8250   25.9120   45.7080 C   0  0  0  0  0  0  0  0  0  0  0  0
   58.8117   26.3318   44.6914 H   0  0  0  0  0  0  0  0  0  0  0  0
   60.0930   26.4040   46.4120 C   0  0  0  0  0  0  0  0  0  0  0  0
   59.9521   26.3493   47.5016 H   0  0  0  0  0  0  0  0  0  0  0  0
   60.9437   25.7707   46.1200 H   0  0  0  0  0  0  0  0  0  0  0  0
   60.2939   27.4453   46.1200 H   0  0  0  0  0  0  0  0  0  0  0  0
   58.8170   24.3870   45.6220 C   0  0  0  0  0  0  0  0  0  0  0  0
   58.8148   23.9625   46.6368 H   0  0  0  0  0  0  0  0  0  0  0  0
   57.9171   24.0548   45.0836 H   0  0  0  0  0  0  0  0  0  0  0  0
   59.7134   24.0454   45.0836 H   0  0  0  0  0  0  0  0  0  0  0  0
  1  2  1  0
  2  3  2  0
  3  4  1  0
  4  5  1  0
  5  6  1  0
  5  7  2  0
  7  8  1  0
  8  9  2  0
  9 10  1  0
  9 11  1  0
 11 12  2  0
 12 13  1  0
 13 14  1  0
 14 15  1  0
 14 16  1  0
 14 17  1  0
 12 18  1  0
 18 19  1  0
 19 20  1  0
 20 21  1  0
 20 22  1  0
 20 23  1  0
 18 24  2  0
 24 25  1  0
  7 26  1  0
 26 27  1  0
 26 28  2  0
 28 29  1  0
 29 30  2  0
 29 31  1  0
 31 32  1  0
 32 33  1  0
 32 34  1  0
 34 35  1  0
 34 36  1  0
 34 37  1  0
 32 38  1  0
 38 39  1  0
 38 40  1  0
 38 41  1  0
 28  3  1  0
 24  8  1  0
M  CHG  3   4  -1  26   1  31  -1
M  END
>  <UniqueID>  (41) 
39

>  <SMILES>  (41) 
[H]/N=c1\[n-]cc(-c2cnc(OC)c(OC)c2)[nH+]c1C(=O)[N-]C(C)C

>  <Energy>  (41) 
41.70172892780786

>  <Genealogy>  (41) 
COc1cc(-c2c[n-]c(=N)c(C(=O)[N-]C(C)C)[nH+]2)cnc1OC (protonated)
[H]/N=c1\[n-]cc(-c2cnc(OC)c(OC)c2)[nH+]c1C(=O)[N-]C(C)C (cis-trans isomerization)
[H]/N=c1\[n-]cc(-c2cnc(OC)c(OC)c2)[nH+]c1C(=O)[N-]C(C)C (3D coordinates assigned)
[H]/N=c1\[n-]cc(-c2cnc(OC)c(OC)c2)[nH+]c1C(=O)[N-]C(C)C (optimized conformer: 41.70172892780786 kcal/mol)

>  <smiles>  (41) 
COc1cc(-c2c[nH]c(=N)c(C(=O)NC(C)C)n2)cnc1OC

>  <score_type>  (41) 
oracle

>  <origin>  (41) 
adg

>  <m_score__min__energy>  (41) 
-7.5800000000000001

>  <m_primary>  (41) 
energy

$$$$
41:0
     RDKit          3D

 55 59  0  0  0  0  0  0  0  0999 V2000
   59.6500   33.1340   49.1590 C   0  0  0  0  0  0  0  0  0  0  0  0
   60.1470   34.2680   48.5110 C   0  0  0  0  0  0  0  0  0  0  0  0
   59.6510   34.6310   47.2550 C   0  0  0  0  0  0  0  0  0  0  0  0
   58.6600   33.8520   46.6320 C   0  0  0  0  0  0  0  0  0  0  0  0
   58.1640   34.2020   45.2530 C   0  0  0  0  0  0  0  0  0  0  0  0
   57.1260   33.2570   44.8050 N   0  0  0  0  0  0  0  0  0  0  0  0
   57.5840   32.3850   43.7100 C   0  0  0  0  0  0  0  0  0  0  0  0
   57.6590   30.9490   44.1600 C   0  0  0  0  0  0  0  0  0  0  0  0
   56.4900   30.2340   44.4610 C   0  0  0  0  0  0  0  0  0  0  0  0
   56.5560   28.8720   44.7640 C   0  0  0  0  0  0  0  0  0  0  0  0
   57.7920   28.2100   44.7890 C   0  0  0  0  0  0  0  0  0  0  0  0
   57.8460   26.7510   45.0390 C   0  0  0  0  0  0  0  0  0  0  0  0
   57.3070   25.9050   44.1120 N   0  0  0  0  0  0  0  0  0  0  0  0
   57.4090   24.5520   44.2390 C   0  0  0  0  0  0  0  0  0  0  0  0
   56.8680   23.6910   43.2710 C   0  0  0  0  0  0  0  0  0  0  0  0
   56.9950   22.3060   43.4210 C   0  0  0  0  0  0  0  0  0  0  0  0
   57.6600   21.7760   44.5300 C   0  0  0  0  0  0  0  0  0  0  0  0
   58.2030   22.6280   45.4980 C   0  0  0  0  0  0  0  0  0  0  0  0
   58.0800   24.0140   45.3540 C   0  0  0  0  0  0  0  0  0  0  0  0
   58.5970   24.8510   46.2870 N   0  0  0  0  0  0  0  0  0  0  0  0
   58.4930   26.2030   46.1770 C   0  0  0  0  0  0  0  0  0  0  0  0
   59.0410   27.0360   47.2710 C   0  0  0  0  0  0  0  0  0  0  0  0
   60.2630   26.7090   47.8890 C   0  0  0  0  0  0  0  0  0  0  0  0
   60.7710   27.5110   48.9150 C   0  0  0  0  0  0  0  0  0  0  0  0
   60.0740   28.6520   49.3220 C   0  0  0  0  0  0  0  0  0  0  0  0
   58.8720   28.9970   48.6990 C   0  0  0  0  0  0  0  0  0  0  0  0
   58.3600   28.1970   47.6730 C   0  0  0  0  0  0  0  0  0  0  0  0
   58.9640   28.9320   44.5140 C   0  0  0  0  0  0  0  0  0  0  0  0
   58.8990   30.2950   44.2130 C   0  0  0  0  0  0  0  0  0  0  0  0
   58.1470   32.7290   47.3040 C   0  0  0  0  0  0  0  0  0  0  0  0
   58.6480   32.3680   48.5590 C   0  0  0  0  0  0  0  0  0  0  0  0
   60.0483   32.8444   50.1426 H   0  0  0  0  0  0  0  0  0  0  0  0
   60.9292   34.8757   48.9895 H   0  0  0  0  0  0  0  0  0  0  0  0
   60.0377   35.5297   46.7523 H   0  0  0  0  0  0  0  0  0  0  0  0
   57.7415   35.2175   45.2705 H   0  0  0  0  0  0  0  0  0  0  0  0
   59.0111   34.1468   44.5534 H   0  0  0  0  0  0  0  0  0  0  0  0
   56.3280   33.8240   44.4320 H   0  0  0  0  0  0  0  0  0  0  0  0
   56.8788   32.4624   42.8693 H   0  0  0  0  0  0  0  0  0  0  0  0
   58.5887   32.7087   43.4005 H   0  0  0  0  0  0  0  0  0  0  0  0
   55.5175   30.7481   44.4584 H   0  0  0  0  0  0  0  0  0  0  0  0
   55.6331   28.3155   44.9843 H   0  0  0  0  0  0  0  0  0  0  0  0
   56.8340   26.3040   43.2690 H   0  0  0  0  0  0  0  0  0  0  0  0
   56.3452   24.1048   42.3961 H   0  0  0  0  0  0  0  0  0  0  0  0
   56.5698   21.6315   42.6632 H   0  0  0  0  0  0  0  0  0  0  0  0
   57.7568   20.6860   44.6422 H   0  0  0  0  0  0  0  0  0  0  0  0
   58.7255   22.2088   46.3705 H   0  0  0  0  0  0  0  0  0  0  0  0
   60.8204   25.8185   47.5630 H   0  0  0  0  0  0  0  0  0  0  0  0
   61.7202   27.2438   49.4025 H   0  0  0  0  0  0  0  0  0  0  0  0
   60.4721   29.2789   50.1335 H   0  0  0  0  0  0  0  0  0  0  0  0
   58.3279   29.8989   49.0160 H   0  0  0  0  0  0  0  0  0  0  0  0
   57.4188   28.4783   47.1779 H   0  0  0  0  0  0  0  0  0  0  0  0
   59.9385   28.4222   44.5356 H   0  0  0  0  0  0  0  0  0  0  0  0
   59.8238   30.8574   44.0168 H   0  0  0  0  0  0  0  0  0  0  0  0
   57.3480   32.1315   46.8408 H   0  0  0  0  0  0  0  0  0  0  0  0
   58.2525   31.4800   49.0739 H   0  0  0  0  0  0  0  0  0  0  0  0
  1  2  2  0
  2  3  1  0
  3  4  2  0
  4  5  1  0
  5  6  1  0
  6  7  1  0
  7  8  1  0
  8  9  2  0
  9 10  1  0
 10 11  2  0
 11 12  1  0
 12 13  2  0
 13 14  1  0
 14 15  2  0
 15 16  1  0
 16 17  2  0
 17 18  1  0
 18 19  2  0
 19 20  1  0
 20 21  2  0
 21 22  1  0
 22 23  2  0
 23 24  1  0
 24 25  2  0
 25 26  1  0
 26 27  2  0
 11 28  1  0
 28 29  2  0
  4 30  1  0
 30 31  2  0
 31  1  1  0
 29  8  1  0
 21 12  1  0
 27 22  1  0
 19 14  1  0
  1 32  1  0
  2 33  1  0
  3 34  1  0
  5 35  1  0
  5 36  1  0
  6 37  1  0
  7 38  1  0
  7 39  1  0
  9 40  1  0
 10 41  1  0
 13 42  1  0
 15 43  1  0
 16 44  1  0
 17 45  1  0
 18 46  1  0
 23 47  1  0
 24 48  1  0
 25 49  1  0
 26 50  1  0
 27 51  1  0
 28 52  1  0
 29 53  1  0
 30 54  1  0
 31 55  1  0
M  CHG  1  13   1
M  END
>  <UniqueID>  (42) 
40

>  <SMILES>  (42) 
c1ccc(CNCc2ccc(-c3[nH+]c4ccccc4nc3-c3ccccc3)cc2)cc1

>  <Energy>  (42) 
72.76039497919058

>  <Genealogy>  (42) 
c1ccc(CNCc2ccc(-c3[nH+]c4ccccc4nc3-c3ccccc3)cc2)cc1 (protonated)
c1ccc(CNCc2ccc(-c3[nH+]c4ccccc4nc3-c3ccccc3)cc2)cc1 (3D coordinates assigned)
c1ccc(CNCc2ccc(-c3[nH+]c4ccccc4nc3-c3ccccc3)cc2)cc1 (optimized conformer: 72.76039497919058 kcal/mol)

>  <smiles>  (42) 
c1ccc(CNCc2ccc(-c3nc4ccccc4nc3-c3ccccc3)cc2)cc1

>  <score_type>  (42) 
oracle

>  <origin>  (42) 
adg

>  <m_score__min__energy>  (42) 
-8.1699999999999999

>  <m_primary>  (42) 
energy

$$$$
42:0
     RDKit          3D

 43 45  0  0  0  0  0  0  0  0999 V2000
   64.5940   32.9740   50.2120 C   0  0  0  0  0  0  0  0  0  0  0  0
   63.5930   33.2190   49.1220 C   0  0  0  0  0  0  0  0  0  0  0  0
   62.2490   33.4700   49.4390 C   0  0  0  0  0  0  0  0  0  0  0  0
   61.3230   33.7330   48.4260 C   0  0  0  0  0  0  0  0  0  0  0  0
   61.7310   33.7630   47.0830 C   0  0  0  0  0  0  0  0  0  0  0  0
   60.7350   34.0250   45.9840 C   0  0  0  0  0  0  0  0  0  0  0  0
   59.7130   34.9790   46.4330 N   0  0  0  0  0  0  0  0  0  0  0  0
   58.4590   34.2940   46.7860 C   0  0  0  0  0  0  0  0  0  0  0  0
   58.3770   32.9170   46.0930 C   0  0  2  0  0  0  0  0  0  0  0  0
   57.1130   32.8110   45.1880 C   0  0  0  0  0  0  0  0  0  0  0  0
   56.6420   31.4860   45.0140 O   0  0  0  0  0  0  0  0  0  0  0  0
   57.5910   30.6830   44.3410 C   0  0  0  0  0  0  0  0  0  0  0  0
   58.4730   30.0020   45.3450 C   0  0  0  0  0  0  0  0  0  0  0  0
   59.1280   28.7950   45.2180 C   0  0  0  0  0  0  0  0  0  0  0  0
   59.0440   27.8340   44.0780 C   0  0  0  0  0  0  0  0  0  0  0  0
   59.8490   28.5920   46.3390 N   0  0  0  0  0  0  0  0  0  0  0  0
   59.6610   29.6510   47.1150 N   0  0  0  0  0  0  0  0  0  0  0  0
   58.8510   30.5190   46.5290 N   0  0  0  0  0  0  0  0  0  0  0  0
   58.4220   31.7800   47.1400 C   0  0  0  0  0  0  0  0  0  0  0  0
   63.0770   33.5260   46.7680 C   0  0  0  0  0  0  0  0  0  0  0  0
   64.0040   33.2630   47.7810 C   0  0  0  0  0  0  0  0  0  0  0  0
   64.1067   33.0933   51.1909 H   0  0  0  0  0  0  0  0  0  0  0  0
   64.9912   31.9521   50.1222 H   0  0  0  0  0  0  0  0  0  0  0  0
   65.4182   33.6969   50.1222 H   0  0  0  0  0  0  0  0  0  0  0  0
   61.9231   33.4597   50.4896 H   0  0  0  0  0  0  0  0  0  0  0  0
   60.2693   33.9174   48.6821 H   0  0  0  0  0  0  0  0  0  0  0  0
   61.2599   34.4408   45.1113 H   0  0  0  0  0  0  0  0  0  0  0  0
   60.2442   33.0779   45.7154 H   0  0  0  0  0  0  0  0  0  0  0  0
   60.0820   35.4400   47.2980 H   0  0  0  0  0  0  0  0  0  0  0  0
   58.4190   34.1528   47.8762 H   0  0  0  0  0  0  0  0  0  0  0  0
   57.6121   34.9104   46.4502 H   0  0  0  0  0  0  0  0  0  0  0  0
   59.2537   32.8104   45.4373 H   0  0  0  0  0  0  0  0  0  0  0  0
   56.3092   33.4074   45.6442 H   0  0  0  0  0  0  0  0  0  0  0  0
   57.4003   33.1814   44.1929 H   0  0  0  0  0  0  0  0  0  0  0  0
   57.0686   29.9253   43.7385 H   0  0  0  0  0  0  0  0  0  0  0  0
   58.2053   31.3155   43.6832 H   0  0  0  0  0  0  0  0  0  0  0  0
   58.9544   26.8094   44.4680 H   0  0  0  0  0  0  0  0  0  0  0  0
   58.1631   28.0706   43.4631 H   0  0  0  0  0  0  0  0  0  0  0  0
   59.9526   27.9142   43.4631 H   0  0  0  0  0  0  0  0  0  0  0  0
   57.4184   31.6478   47.5706 H   0  0  0  0  0  0  0  0  0  0  0  0
   59.1448   32.0534   47.9229 H   0  0  0  0  0  0  0  0  0  0  0  0
   63.4051   33.5472   45.7183 H   0  0  0  0  0  0  0  0  0  0  0  0
   65.0599   33.0899   47.5258 H   0  0  0  0  0  0  0  0  0  0  0  0
  1  2  1  0
  2  3  2  0
  3  4  1  0
  4  5  2  0
  5  6  1  0
  6  7  1  0
  7  8  1  0
  8  9  1  0
  9 10  1  0
 10 11  1  0
 11 12  1  0
 12 13  1  0
 13 14  2  0
 14 15  1  0
 14 16  1  0
 16 17  2  0
 17 18  1  0
 18 19  1  0
  5 20  1  0
 20 21  2  0
 21  2  1  0
 19  9  1  0
 18 13  1  0
  1 22  1  0
  1 23  1  0
  1 24  1  0
  3 25  1  0
  4 26  1  0
  6 27  1  0
  6 28  1  0
  7 29  1  0
  8 30  1  0
  8 31  1  0
  9 32  1  6
 10 33  1  0
 10 34  1  0
 12 35  1  0
 12 36  1  0
 15 37  1  0
 15 38  1  0
 15 39  1  0
 19 40  1  0
 19 41  1  0
 20 42  1  0
 21 43  1  0
M  END
>  <UniqueID>  (43) 
41

>  <SMILES>  (43) 
Cc1ccc(CNC[C@@H]2COCc3c(C)nnn3C2)cc1

>  <Energy>  (43) 
82.65405109799116

>  <Genealogy>  (43) 
Cc1ccc(CNC[C@@H]2COCc3c(C)nnn3C2)cc1 (chirality)
Cc1ccc(CNC[C@@H]2COCc3c(C)nnn3C2)cc1 (3D coordinates assigned)
Cc1ccc(CNC[C@@H]2COCc3c(C)nnn3C2)cc1 (nonaromatic ring conformer: 82.65405109799116 kcal/mol)

>  <smiles>  (43) 
Cc1ccc(CNCC2COCc3c(C)nnn3C2)cc1

>  <score_type>  (43) 
oracle

>  <origin>  (43) 
adg

>  <m_score__min__energy>  (43) 
-6

>  <m_primary>  (43) 
energy

$$$$
43:0
     RDKit          3D

 68 69  0  0  0  0  0  0  0  0999 V2000
   63.3600   33.8480   46.7850 C   0  0  0  0  0  0  0  0  0  0  0  0
   63.4440   32.5900   47.6450 C   0  0  0  0  0  0  0  0  0  0  0  0
   62.1000   31.8550   47.6860 C   0  0  0  0  0  0  0  0  0  0  0  0
   61.0200   32.6470   46.9340 C   0  0  0  0  0  0  0  0  0  0  0  0
   59.7820   32.9310   47.7990 C   0  0  0  0  0  0  0  0  0  0  0  0
   59.3220   34.3950   47.7120 C   0  0  0  0  0  0  0  0  0  0  0  0
   59.6680   34.9970   46.3420 C   0  0  0  0  0  0  0  0  0  0  0  0
   58.6100   34.6820   45.2720 C   0  0  0  0  0  0  0  0  0  0  0  0
   58.7540   33.2660   44.6940 C   0  0  0  0  0  0  0  0  0  0  0  0
   57.3960   32.7280   44.2160 C   0  0  0  0  0  0  0  0  0  0  0  0
   57.5440   31.5310   43.2680 C   0  0  0  0  0  0  0  0  0  0  0  0
   56.5720   30.4330   43.5830 C   0  0  0  0  0  0  0  0  0  0  0  0
   55.9160   29.8980   42.6480 O   0  0  0  0  0  0  0  0  0  0  0  0
   56.4300   29.9960   44.9060 O   0  0  0  0  0  0  0  0  0  0  0  0
   57.4350   29.3880   45.6710 C   0  0  0  0  0  0  0  0  0  0  0  0
   57.3870   28.0290   46.0300 C   0  0  0  0  0  0  0  0  0  0  0  0
   58.4060   27.4700   46.8090 C   0  0  0  0  0  0  0  0  0  0  0  0
   59.4790   28.2600   47.2470 C   0  0  0  0  0  0  0  0  0  0  0  0
   60.5620   27.6530   48.0970 C   0  0  0  0  0  0  0  0  0  0  0  0
   60.3720   27.9980   49.4680 O   0  0  0  0  0  0  0  0  0  0  0  0
   60.7610   29.2220   50.0220 C   0  0  0  0  0  0  0  0  0  0  0  0
   61.9900   29.5170   50.5080 N   0  0  0  0  0  0  0  0  0  0  0  0
   62.0590   30.8010   50.9730 C   0  0  0  0  0  0  0  0  0  0  0  0
   63.1270   31.2690   51.4520 O   0  0  0  0  0  0  0  0  0  0  0  0
   60.9180   31.5420   50.8850 N   0  0  0  0  0  0  0  0  0  0  0  0
   60.7440   32.9520   51.2540 C   0  0  0  0  0  0  0  0  0  0  0  0
   59.2770   33.3660   51.1080 C   0  0  0  0  0  0  0  0  0  0  0  0
   61.6530   33.8350   50.3960 C   0  0  0  0  0  0  0  0  0  0  0  0
   59.7770   30.5550   50.1810 S   0  0  0  0  0  0  0  0  0  0  0  0
   59.5230   29.6170   46.8920 C   0  0  0  0  0  0  0  0  0  0  0  0
   58.5010   30.1770   46.1190 C   0  0  0  0  0  0  0  0  0  0  0  0
   63.3009   34.7333   47.4351 H   0  0  0  0  0  0  0  0  0  0  0  0
   64.2554   33.9185   46.1500 H   0  0  0  0  0  0  0  0  0  0  0  0
   62.4631   33.7988   46.1500 H   0  0  0  0  0  0  0  0  0  0  0  0
   64.2073   31.9186   47.2248 H   0  0  0  0  0  0  0  0  0  0  0  0
   63.7098   32.8866   48.6704 H   0  0  0  0  0  0  0  0  0  0  0  0
   62.2151   30.8671   47.2161 H   0  0  0  0  0  0  0  0  0  0  0  0
   61.7900   31.7469   48.7359 H   0  0  0  0  0  0  0  0  0  0  0  0
   61.4494   33.6060   46.6087 H   0  0  0  0  0  0  0  0  0  0  0  0
   60.6947   32.0359   46.0792 H   0  0  0  0  0  0  0  0  0  0  0  0
   58.9600   32.2830   47.4608 H   0  0  0  0  0  0  0  0  0  0  0  0
   60.0541   32.7294   48.8456 H   0  0  0  0  0  0  0  0  0  0  0  0
   58.2330   34.4399   47.8606 H   0  0  0  0  0  0  0  0  0  0  0  0
   59.8399   34.9733   48.4913 H   0  0  0  0  0  0  0  0  0  0  0  0
   59.7479   36.0890   46.4474 H   0  0  0  0  0  0  0  0  0  0  0  0
   60.6175   34.5499   46.0125 H   0  0  0  0  0  0  0  0  0  0  0  0
   57.6122   34.7773   45.7251 H   0  0  0  0  0  0  0  0  0  0  0  0
   58.7514   35.3940   44.4455 H   0  0  0  0  0  0  0  0  0  0  0  0
   59.4503   33.2935   43.8429 H   0  0  0  0  0  0  0  0  0  0  0  0
   59.1373   32.6018   45.4826 H   0  0  0  0  0  0  0  0  0  0  0  0
   56.8114   32.4140   45.0933 H   0  0  0  0  0  0  0  0  0  0  0  0
   56.8908   33.5339   43.6635 H   0  0  0  0  0  0  0  0  0  0  0  0
   57.3702   31.8725   42.2369 H   0  0  0  0  0  0  0  0  0  0  0  0
   58.5598   31.1273   43.3911 H   0  0  0  0  0  0  0  0  0  0  0  0
   56.5456   27.4035   45.6972 H   0  0  0  0  0  0  0  0  0  0  0  0
   58.3654   26.4046   47.0795 H   0  0  0  0  0  0  0  0  0  0  0  0
   60.5343   26.5584   47.9918 H   0  0  0  0  0  0  0  0  0  0  0  0
   61.5359   28.0409   47.7637 H   0  0  0  0  0  0  0  0  0  0  0  0
   62.7940   28.8530   50.5340 H   0  0  0  0  0  0  0  0  0  0  0  0
   61.0292   33.0836   52.3082 H   0  0  0  0  0  0  0  0  0  0  0  0
   58.8306   33.4920   52.1054 H   0  0  0  0  0  0  0  0  0  0  0  0
   59.2172   34.3161   50.5569 H   0  0  0  0  0  0  0  0  0  0  0  0
   58.7294   32.5873   50.5569 H   0  0  0  0  0  0  0  0  0  0  0  0
   62.2878   34.4517   51.0492 H   0  0  0  0  0  0  0  0  0  0  0  0
   62.2881   33.1998   49.7610 H   0  0  0  0  0  0  0  0  0  0  0  0
   61.0365   34.4882   49.7610 H   0  0  0  0  0  0  0  0  0  0  0  0
   60.3649   30.2428   47.2231 H   0  0  0  0  0  0  0  0  0  0  0  0
   58.5350   31.2458   45.8610 H   0  0  0  0  0  0  0  0  0  0  0  0
  1  2  1  0
  2  3  1  0
  3  4  1  0
  4  5  1  0
  5  6  1  0
  6  7  1  0
  7  8  1  0
  8  9  1  0
  9 10  1  0
 10 11  1  0
 11 12  1  0
 12 13  2  0
 12 14  1  0
 14 15  1  0
 15 16  2  0
 16 17  1  0
 17 18  2  0
 18 19  1  0
 19 20  1  0
 20 21  1  0
 21 22  2  0
 22 23  1  0
 23 24  2  0
 23 25  1  0
 25 26  1  0
 26 27  1  0
 26 28  1  0
 25 29  1  0
 18 30  1  0
 30 31  2  0
 31 15  1  0
 29 21  1  0
  1 32  1  0
  1 33  1  0
  1 34  1  0
  2 35  1  0
  2 36  1  0
  3 37  1  0
  3 38  1  0
  4 39  1  0
  4 40  1  0
  5 41  1  0
  5 42  1  0
  6 43  1  0
  6 44  1  0
  7 45  1  0
  7 46  1  0
  8 47  1  0
  8 48  1  0
  9 49  1  0
  9 50  1  0
 10 51  1  0
 10 52  1  0
 11 53  1  0
 11 54  1  0
 16 55  1  0
 17 56  1  0
 19 57  1  0
 19 58  1  0
 22 59  1  0
 26 60  1  0
 27 61  1  0
 27 62  1  0
 27 63  1  0
 28 64  1  0
 28 65  1  0
 28 66  1  0
 30 67  1  0
 31 68  1  0
M  CHG  1  22   1
M  END
>  <UniqueID>  (44) 
42

>  <SMILES>  (44) 
CCCCCCCCCCCC(=O)Oc1ccc(COc2[nH+]c(=O)n(C(C)C)s2)cc1

>  <Energy>  (44) 
83.65521459113693

>  <Genealogy>  (44) 
CCCCCCCCCCCC(=O)Oc1ccc(COc2[nH+]c(=O)n(C(C)C)s2)cc1 (protonated)
CCCCCCCCCCCC(=O)Oc1ccc(COc2[nH+]c(=O)n(C(C)C)s2)cc1 (3D coordinates assigned)
CCCCCCCCCCCC(=O)Oc1ccc(COc2[nH+]c(=O)n(C(C)C)s2)cc1 (optimized conformer: 83.65521459113693 kcal/mol)

>  <smiles>  (44) 
CCCCCCCCCCCC(=O)Oc1ccc(COc2nc(=O)n(C(C)C)s2)cc1

>  <score_type>  (44) 
oracle

>  <origin>  (44) 
adg

>  <m_score__min__energy>  (44) 
-6.8499999999999996

>  <m_primary>  (44) 
energy

$$$$
44:0
     RDKit          3D

 54 56  0  0  0  0  0  0  0  0999 V2000
   54.1820   24.7760   45.6020 C   0  0  0  0  0  0  0  0  0  0  0  0
   54.8330   25.9810   45.9450 O   0  0  0  0  0  0  0  0  0  0  0  0
   56.2170   25.7540   46.1580 C   0  0  0  0  0  0  0  0  0  0  0  0
   57.0430   26.7020   45.2660 C   0  0  0  0  0  0  0  0  0  0  0  0
   57.6070   27.8660   45.9850 N   0  0  0  0  0  0  0  0  0  0  0  0
   59.0800   27.8230   46.1300 C   0  0  0  0  0  0  0  0  0  0  0  0
   59.6350   29.1780   46.5720 C   0  0  0  0  0  0  0  0  0  0  0  0
   59.3680   30.2380   45.4850 C   0  0  0  0  0  0  0  0  0  0  0  0
   59.5470   31.6400   46.0400 C   0  0  0  0  0  0  0  0  0  0  0  0
   60.4420   31.8670   47.0970 C   0  0  0  0  0  0  0  0  0  0  0  0
   60.6080   33.1630   47.5990 C   0  0  0  0  0  0  0  0  0  0  0  0
   61.5560   33.4160   48.7070 C   0  0  0  0  0  0  0  0  0  0  0  0
   61.0770   33.5570   50.0330 C   0  0  0  0  0  0  0  0  0  0  0  0
   59.6080   33.4360   50.3510 C   0  0  0  0  0  0  0  0  0  0  0  0
   61.9850   33.7970   51.0760 C   0  0  0  0  0  0  0  0  0  0  0  0
   63.3490   33.9190   50.8120 C   0  0  0  0  0  0  0  0  0  0  0  0
   63.8260   33.7890   49.5090 C   0  0  0  0  0  0  0  0  0  0  0  0
   62.9470   33.5210   48.4490 C   0  0  0  0  0  0  0  0  0  0  0  0
   63.5110   33.3880   47.0540 C   0  0  0  0  0  0  0  0  0  0  0  0
   63.8190   32.0490   46.7810 O   0  0  0  0  0  0  0  0  0  0  0  0
   59.8740   34.2150   47.0450 C   0  0  0  0  0  0  0  0  0  0  0  0
   58.9920   33.9570   45.9970 C   0  0  0  0  0  0  0  0  0  0  0  0
   58.8450   32.6910   45.5190 N   0  0  0  0  0  0  0  0  0  0  0  0
   57.9880   30.0560   44.7980 C   0  0  0  0  0  0  0  0  0  0  0  0
   57.0210   29.1770   45.6120 C   0  0  0  0  0  0  0  0  0  0  0  0
   53.8932   24.2414   46.5190 H   0  0  0  0  0  0  0  0  0  0  0  0
   53.2826   25.0008   45.0099 H   0  0  0  0  0  0  0  0  0  0  0  0
   54.8630   24.1470   45.0099 H   0  0  0  0  0  0  0  0  0  0  0  0
   56.4599   25.9418   47.2143 H   0  0  0  0  0  0  0  0  0  0  0  0
   56.4584   24.7116   45.9028 H   0  0  0  0  0  0  0  0  0  0  0  0
   57.8744   26.1292   44.8293 H   0  0  0  0  0  0  0  0  0  0  0  0
   56.3569   27.1005   44.5041 H   0  0  0  0  0  0  0  0  0  0  0  0
   59.3440   27.0651   46.8823 H   0  0  0  0  0  0  0  0  0  0  0  0
   59.5177   27.5707   45.1529 H   0  0  0  0  0  0  0  0  0  0  0  0
   59.1448   29.4846   47.5078 H   0  0  0  0  0  0  0  0  0  0  0  0
   60.7199   29.0891   46.7305 H   0  0  0  0  0  0  0  0  0  0  0  0
   60.1195   30.0891   44.6957 H   0  0  0  0  0  0  0  0  0  0  0  0
   61.0104   31.0302   47.5290 H   0  0  0  0  0  0  0  0  0  0  0  0
   59.4688   33.4245   51.4421 H   0  0  0  0  0  0  0  0  0  0  0  0
   59.0681   34.2927   49.9214 H   0  0  0  0  0  0  0  0  0  0  0  0
   59.2155   32.5025   49.9214 H   0  0  0  0  0  0  0  0  0  0  0  0
   61.6182   33.8895   52.1089 H   0  0  0  0  0  0  0  0  0  0  0  0
   64.0508   34.1185   51.6352 H   0  0  0  0  0  0  0  0  0  0  0  0
   64.9023   33.8976   49.3097 H   0  0  0  0  0  0  0  0  0  0  0  0
   62.7676   33.7453   46.3262 H   0  0  0  0  0  0  0  0  0  0  0  0
   64.4292   33.9892   46.9799 H   0  0  0  0  0  0  0  0  0  0  0  0
   64.8070   31.9890   46.7370 H   0  0  0  0  0  0  0  0  0  0  0  0
   59.9912   35.2378   47.4325 H   0  0  0  0  0  0  0  0  0  0  0  0
   58.4121   34.7802   45.5542 H   0  0  0  0  0  0  0  0  0  0  0  0
   58.1750   32.5390   44.7330 H   0  0  0  0  0  0  0  0  0  0  0  0
   57.5307   31.0472   44.6624 H   0  0  0  0  0  0  0  0  0  0  0  0
   58.1633   29.5493   43.8375 H   0  0  0  0  0  0  0  0  0  0  0  0
   56.7487   29.7143   46.5324 H   0  0  0  0  0  0  0  0  0  0  0  0
   56.1436   28.9782   44.9790 H   0  0  0  0  0  0  0  0  0  0  0  0
  1  2  1  0
  2  3  1  0
  3  4  1  0
  4  5  1  0
  5  6  1  0
  6  7  1  0
  7  8  1  0
  8  9  1  0
  9 10  2  0
 10 11  1  0
 11 12  1  0
 12 13  2  0
 13 14  1  0
 13 15  1  0
 15 16  2  0
 16 17  1  0
 17 18  2  0
 18 19  1  0
 19 20  1  0
 11 21  2  0
 21 22  1  0
 22 23  2  0
  8 24  1  0
 24 25  1  0
 25  5  1  0
 23  9  1  0
 18 12  1  0
  1 26  1  0
  1 27  1  0
  1 28  1  0
  3 29  1  0
  3 30  1  0
  4 31  1  0
  4 32  1  0
  6 33  1  0
  6 34  1  0
  7 35  1  0
  7 36  1  0
  8 37  1  0
 10 38  1  0
 14 39  1  0
 14 40  1  0
 14 41  1  0
 15 42  1  0
 16 43  1  0
 17 44  1  0
 19 45  1  0
 19 46  1  0
 20 47  1  0
 21 48  1  0
 22 49  1  0
 23 50  1  0
 24 51  1  0
 24 52  1  0
 25 53  1  0
 25 54  1  0
M  CHG  1  23   1
M  END
>  <UniqueID>  (45) 
43

>  <SMILES>  (45) 
COCCN1CCC(c2cc(-c3c(C)cccc3CO)cc[nH+]2)CC1

>  <Energy>  (45) 
75.79429414112232

>  <Genealogy>  (45) 
COCCN1CCC(c2cc(-c3c(C)cccc3CO)cc[nH+]2)CC1 (protonated)
COCCN1CCC(c2cc(-c3c(C)cccc3CO)cc[nH+]2)CC1 (3D coordinates assigned)
COCCN1CCC(c2cc(-c3c(C)cccc3CO)cc[nH+]2)CC1 (nonaromatic ring conformer: 75.79429414112232 kcal/mol)

>  <smiles>  (45) 
COCCN1CCC(c2cc(-c3c(C)cccc3CO)ccn2)CC1

>  <score_type>  (45) 
oracle

>  <origin>  (45) 
adg

>  <m_score__min__energy>  (45) 
-6.7000000000000002

>  <m_primary>  (45) 
energy

$$$$
45:0
     RDKit          3D

 31 33  0  0  0  0  0  0  0  0999 V2000
   63.0150   33.8350   46.3850 C   0  0  0  0  0  0  0  0  0  0  0  0
   61.9690   33.4310   47.4180 C   0  0  0  0  0  0  0  0  0  0  0  0
   60.6290   33.4030   46.8120 N   0  0  0  0  0  0  0  0  0  0  0  0
   60.0080   34.5810   46.4880 C   0  0  0  0  0  0  0  0  0  0  0  0
   58.7230   34.5900   45.9220 C   0  0  0  0  0  0  0  0  0  0  0  0
   58.0710   33.3760   45.6970 C   0  0  0  0  0  0  0  0  0  0  0  0
   56.8990   33.3660   45.2390 O   0  0  0  0  0  0  0  0  0  0  0  0
   58.7180   32.2260   46.0300 N   0  0  0  0  0  0  0  0  0  0  0  0
   59.9520   32.2310   46.6000 C   0  0  0  0  0  0  0  0  0  0  0  0
   60.4270   30.9290   46.8160 C   0  0  0  0  0  0  0  0  0  0  0  0
   59.3830   30.1440   46.3710 C   0  0  0  0  0  0  0  0  0  0  0  0
   59.2970   28.9550   45.6860 C   0  0  0  0  0  0  0  0  0  0  0  0
   60.3480   27.8970   45.6120 C   0  0  0  0  0  0  0  0  0  0  0  0
   58.2720   29.0640   44.8030 N   0  0  0  0  0  0  0  0  0  0  0  0
   57.7190   30.2690   44.9420 N   0  0  0  0  0  0  0  0  0  0  0  0
   56.7170   30.7860   44.0200 C   0  0  0  0  0  0  0  0  0  0  0  0
   58.3870   30.9210   45.9200 C   0  0  0  0  0  0  0  0  0  0  0  0
   63.9221   34.1853   46.8993 H   0  0  0  0  0  0  0  0  0  0  0  0
   63.2624   32.9678   45.7552 H   0  0  0  0  0  0  0  0  0  0  0  0
   62.6152   34.6434   45.7552 H   0  0  0  0  0  0  0  0  0  0  0  0
   62.2114   32.4308   47.8063 H   0  0  0  0  0  0  0  0  0  0  0  0
   61.9740   34.1671   48.2354 H   0  0  0  0  0  0  0  0  0  0  0  0
   60.5243   35.5343   46.6742 H   0  0  0  0  0  0  0  0  0  0  0  0
   58.2364   35.5409   45.6593 H   0  0  0  0  0  0  0  0  0  0  0  0
   61.3929   30.6121   47.2362 H   0  0  0  0  0  0  0  0  0  0  0  0
   60.6423   27.6007   46.6296 H   0  0  0  0  0  0  0  0  0  0  0  0
   59.9508   27.0224   45.0759 H   0  0  0  0  0  0  0  0  0  0  0  0
   61.2252   28.2884   45.0759 H   0  0  0  0  0  0  0  0  0  0  0  0
   55.8813   31.2172   44.5907 H   0  0  0  0  0  0  0  0  0  0  0  0
   57.1683   31.5638   43.3865 H   0  0  0  0  0  0  0  0  0  0  0  0
   56.3446   29.9675   43.3865 H   0  0  0  0  0  0  0  0  0  0  0  0
  1  2  1  0
  2  3  1  0
  3  4  1  0
  4  5  2  0
  5  6  1  0
  6  7  2  0
  6  8  1  0
  8  9  1  0
  9 10  2  0
 10 11  1  0
 11 12  1  0
 12 13  1  0
 12 14  2  0
 14 15  1  0
 15 16  1  0
 15 17  1  0
  9  3  1  0
 17 11  2  0
 17  8  1  0
  1 18  1  0
  1 19  1  0
  1 20  1  0
  2 21  1  0
  2 22  1  0
  4 23  1  0
  5 24  1  0
 10 25  1  0
 13 26  1  0
 13 27  1  0
 13 28  1  0
 16 29  1  0
 16 30  1  0
 16 31  1  0
M  END
>  <UniqueID>  (46) 
44

>  <SMILES>  (46) 
CCn1ccc(=O)n2c1cc1c(C)nn(C)c12

>  <Energy>  (46) 
129.69438093764714

>  <Genealogy>  (46) 
CCn1ccc(=O)n2c1cc1c(C)nn(C)c12 (3D coordinates assigned)
CCn1ccc(=O)n2c1cc1c(C)nn(C)c12 (optimized conformer: 129.69438093764714 kcal/mol)

>  <smiles>  (46) 
CCn1ccc(=O)n2c1cc1c(C)nn(C)c12

>  <score_type>  (46) 
oracle

>  <origin>  (46) 
adg

>  <m_score__min__energy>  (46) 
-5.75

>  <m_primary>  (46) 
energy

$$$$
46:0
     RDKit          3D

 15 16  0  0  0  0  0  0  0  0999 V2000
   58.9260   34.5500   45.3530 C   0  0  0  0  0  0  0  0  0  0  0  0
   58.1750   34.1100   46.4620 C   0  0  0  0  0  0  0  0  0  0  0  0
   57.3830   32.9580   46.3480 C   0  0  0  0  0  0  0  0  0  0  0  0
   57.3690   32.3030   45.1590 N   0  0  0  0  0  0  0  0  0  0  0  0
   56.6860   31.2100   44.8720 N   0  0  0  0  0  0  0  0  0  0  0  0
   56.9650   30.9060   43.5830 C   0  0  0  0  0  0  0  0  0  0  0  0
   57.8500   31.8370   43.0480 C   0  0  0  0  0  0  0  0  0  0  0  0
   58.0750   32.7050   44.0920 C   0  0  0  0  0  0  0  0  0  0  0  0
   58.8810   33.8410   44.1410 C   0  0  0  0  0  0  0  0  0  0  0  0
   59.5498   35.4521   45.4370 H   0  0  0  0  0  0  0  0  0  0  0  0
   58.2099   34.6664   47.4103 H   0  0  0  0  0  0  0  0  0  0  0  0
   56.7889   32.5949   47.1996 H   0  0  0  0  0  0  0  0  0  0  0  0
   56.5512   30.0458   43.0364 H   0  0  0  0  0  0  0  0  0  0  0  0
   58.2700   31.8711   42.0319 H   0  0  0  0  0  0  0  0  0  0  0  0
   59.4593   34.1696   43.2649 H   0  0  0  0  0  0  0  0  0  0  0  0
  1  2  1  0
  2  3  2  0
  3  4  1  0
  4  5  1  0
  5  6  2  0
  6  7  1  0
  7  8  2  0
  8  9  1  0
  9  1  2  0
  8  4  1  0
  1 10  1  0
  2 11  1  0
  3 12  1  0
  6 13  1  0
  7 14  1  0
  9 15  1  0
M  END
>  <UniqueID>  (47) 
45

>  <SMILES>  (47) 
c1ccn2nccc2c1

>  <Energy>  (47) 
50.44857180814143

>  <Genealogy>  (47) 
c1ccn2nccc2c1 (3D coordinates assigned)
c1ccn2nccc2c1 (optimized conformer: 50.44857180814143 kcal/mol)

>  <smiles>  (47) 
c1ccn2nccc2c1

>  <score_type>  (47) 
oracle

>  <origin>  (47) 
adg

>  <m_score__min__energy>  (47) 
-4.5899999999999999

>  <m_primary>  (47) 
energy

$$$$
47:0
     RDKit          3D

 33 35  0  0  0  0  0  0  0  0999 V2000
   59.6580   34.2070   49.1730 C   0  0  0  0  0  0  0  0  0  0  0  0
   60.9460   33.9480   48.4380 C   0  0  0  0  0  0  0  0  0  0  0  0
   62.1260   33.7330   49.1710 C   0  0  0  0  0  0  0  0  0  0  0  0
   63.3350   33.4940   48.5150 C   0  0  0  0  0  0  0  0  0  0  0  0
   63.3800   33.4530   47.1220 C   0  0  0  0  0  0  0  0  0  0  0  0
   62.2140   33.6490   46.3790 C   0  0  0  0  0  0  0  0  0  0  0  0
   60.9930   33.8990   47.0240 C   0  0  0  0  0  0  0  0  0  0  0  0
   59.7800   34.0880   46.2050 C   0  0  0  0  0  0  0  0  0  0  0  0
   59.5340   35.1620   45.4370 N   0  0  0  0  0  0  0  0  0  0  0  0
   58.3510   34.9550   44.8770 N   0  0  0  0  0  0  0  0  0  0  0  0
   57.8750   33.7850   45.2800 N   0  0  0  0  0  0  0  0  0  0  0  0
   58.7480   33.2270   46.1040 N   0  0  0  0  0  0  0  0  0  0  0  0
   58.5810   31.9170   46.7290 C   0  0  0  0  0  0  0  0  0  0  0  0
   58.1790   30.8940   45.7060 C   0  0  0  0  0  0  0  0  0  0  0  0
   59.0120   29.8020   45.4170 C   0  0  0  0  0  0  0  0  0  0  0  0
   58.6150   28.8750   44.4510 C   0  0  0  0  0  0  0  0  0  0  0  0
   57.4050   29.0490   43.7770 C   0  0  0  0  0  0  0  0  0  0  0  0
   56.6080   30.1550   44.0790 C   0  0  0  0  0  0  0  0  0  0  0  0
   57.0100   31.0470   45.0240 N   0  0  0  0  0  0  0  0  0  0  0  0
   59.8407   34.1703   50.2571 H   0  0  0  0  0  0  0  0  0  0  0  0
   59.2731   35.2005   48.8995 H   0  0  0  0  0  0  0  0  0  0  0  0
   58.9190   33.4395   48.8995 H   0  0  0  0  0  0  0  0  0  0  0  0
   62.0966   33.7532   50.2704 H   0  0  0  0  0  0  0  0  0  0  0  0
   64.2543   33.3377   49.0985 H   0  0  0  0  0  0  0  0  0  0  0  0
   64.3345   33.2662   46.6081 H   0  0  0  0  0  0  0  0  0  0  0  0
   62.2529   33.6071   45.2805 H   0  0  0  0  0  0  0  0  0  0  0  0
   60.1280   36.0090   45.3010 H   0  0  0  0  0  0  0  0  0  0  0  0
   59.5316   31.6126   47.1913 H   0  0  0  0  0  0  0  0  0  0  0  0
   57.7926   31.9851   47.4931 H   0  0  0  0  0  0  0  0  0  0  0  0
   59.9682   29.6776   45.9463 H   0  0  0  0  0  0  0  0  0  0  0  0
   59.2543   28.0097   44.2217 H   0  0  0  0  0  0  0  0  0  0  0  0
   57.0829   28.3227   43.0162 H   0  0  0  0  0  0  0  0  0  0  0  0
   55.6541   30.3051   43.5522 H   0  0  0  0  0  0  0  0  0  0  0  0
  1  2  1  0
  2  3  2  0
  3  4  1  0
  4  5  2  0
  5  6  1  0
  6  7  2  0
  7  8  1  0
  8  9  2  0
  9 10  1  0
 10 11  2  0
 11 12  1  0
 12 13  1  0
 13 14  1  0
 14 15  2  0
 15 16  1  0
 16 17  2  0
 17 18  1  0
 18 19  2  0
  7  2  1  0
 12  8  1  0
 19 14  1  0
  1 20  1  0
  1 21  1  0
  1 22  1  0
  3 23  1  0
  4 24  1  0
  5 25  1  0
  6 26  1  0
  9 27  1  0
 13 28  1  0
 13 29  1  0
 15 30  1  0
 16 31  1  0
 17 32  1  0
 18 33  1  0
M  CHG  1   9   1
M  END
>  <UniqueID>  (48) 
46

>  <SMILES>  (48) 
Cc1ccccc1-c1[nH+]nnn1Cc1ccccn1

>  <Energy>  (48) 
82.145305727531

>  <Genealogy>  (48) 
Cc1ccccc1-c1[nH+]nnn1Cc1ccccn1 (protonated)
Cc1ccccc1-c1[nH+]nnn1Cc1ccccn1 (3D coordinates assigned)
Cc1ccccc1-c1[nH+]nnn1Cc1ccccn1 (optimized conformer: 82.145305727531 kcal/mol)

>  <smiles>  (48) 
Cc1ccccc1-c1nnnn1Cc1ccccn1

>  <score_type>  (48) 
oracle

>  <origin>  (48) 
adg

>  <m_score__min__energy>  (48) 
-6.2000000000000002

>  <m_primary>  (48) 
energy

$$$$
