0:0
     RDKit          3D

 57 59  0  0  0  0  0  0  0  0999 V2000
   64.5860   32.6580   49.3710 C   0  0  0  0  0  0  0  0  0  0  0  0
   63.8260   31.9540   48.2550 C   0  0  0  0  0  0  0  0  0  0  0  0
   62.4040   32.3670   48.2700 N   0  0  0  0  0  0  0  0  0  0  0  0
   62.0720   33.2380   47.1200 C   0  0  0  0  0  0  0  0  0  0  0  0
   63.3260   33.8300   46.4800 C   0  0  0  0  0  0  0  0  0  0  0  0
   61.9970   32.9230   49.5850 C   0  0  0  0  0  0  0  0  0  0  0  0
   61.5980   31.8530   50.6240 C   0  0  0  0  0  0  0  0  0  0  0  0
   61.4580   30.5880   50.0010 O   0  0  0  0  0  0  0  0  0  0  0  0
   60.2490   29.9570   50.3880 C   0  0  0  0  0  0  0  0  0  0  0  0
   59.3070   29.8280   49.1880 C   0  0  0  0  0  0  0  0  0  0  0  0
   59.6820   30.7630   48.1270 N   0  0  0  0  0  0  0  0  0  0  0  0
   59.0590   30.7390   46.8330 C   0  0  0  0  0  0  0  0  0  0  0  0
   58.9550   29.5320   46.1520 C   0  0  0  0  0  0  0  0  0  0  0  0
   59.5650   28.0320   46.6030 S   0  0  0  0  0  0  0  0  0  0  0  0
   59.0680   27.2270   45.2110 C   0  0  0  0  0  0  0  0  0  0  0  0
   58.4240   28.1330   44.3730 C   0  0  0  0  0  0  0  0  0  0  0  0
   58.3510   29.4370   44.9120 C   0  0  0  0  0  0  0  0  0  0  0  0
   57.7840   30.5360   44.3140 N   0  0  0  0  0  0  0  0  0  0  0  0
   57.0020   30.3790   43.0690 C   0  0  0  0  0  0  0  0  0  0  0  0
   57.9650   31.7850   44.8940 C   0  0  0  0  0  0  0  0  0  0  0  0
   57.5540   32.9640   44.2290 C   0  0  0  0  0  0  0  0  0  0  0  0
   57.6980   34.2130   44.8190 C   0  0  0  0  0  0  0  0  0  0  0  0
   58.2700   34.3350   46.0750 C   0  0  0  0  0  0  0  0  0  0  0  0
   58.7360   33.2050   46.7690 C   0  0  0  0  0  0  0  0  0  0  0  0
   59.3460   33.3490   48.0280 O   0  0  0  0  0  0  0  0  0  0  0  0
   59.5900   34.5890   48.6880 C   0  0  0  0  0  0  0  0  0  0  0  0
   58.5950   31.9140   46.1830 C   0  0  0  0  0  0  0  0  0  0  0  0
   64.2114   32.3110   50.3453 H   0  0  0  0  0  0  0  0  0  0  0  0
   65.6582   32.4269   49.2869 H   0  0  0  0  0  0  0  0  0  0  0  0
   64.4375   33.7447   49.2869 H   0  0  0  0  0  0  0  0  0  0  0  0
   64.2724   32.2211   47.2858 H   0  0  0  0  0  0  0  0  0  0  0  0
   63.8871   30.8664   48.4076 H   0  0  0  0  0  0  0  0  0  0  0  0
   61.5336   32.6442   46.3667 H   0  0  0  0  0  0  0  0  0  0  0  0
   61.4494   34.0676   47.4863 H   0  0  0  0  0  0  0  0  0  0  0  0
   64.0201   34.1577   47.2680 H   0  0  0  0  0  0  0  0  0  0  0  0
   63.8140   33.0672   45.8555 H   0  0  0  0  0  0  0  0  0  0  0  0
   63.0471   34.6916   45.8555 H   0  0  0  0  0  0  0  0  0  0  0  0
   62.8394   33.5021   49.9912 H   0  0  0  0  0  0  0  0  0  0  0  0
   61.1046   33.5409   49.4064 H   0  0  0  0  0  0  0  0  0  0  0  0
   62.3768   31.7915   51.3984 H   0  0  0  0  0  0  0  0  0  0  0  0
   60.6364   32.1363   51.0769 H   0  0  0  0  0  0  0  0  0  0  0  0
   60.4732   28.9549   50.7823 H   0  0  0  0  0  0  0  0  0  0  0  0
   59.7599   30.5667   51.1619 H   0  0  0  0  0  0  0  0  0  0  0  0
   59.3593   28.8008   48.7979 H   0  0  0  0  0  0  0  0  0  0  0  0
   58.2840   30.0623   49.5175 H   0  0  0  0  0  0  0  0  0  0  0  0
   60.4480   31.4520   48.3050 H   0  0  0  0  0  0  0  0  0  0  0  0
   59.2262   26.1594   44.9982 H   0  0  0  0  0  0  0  0  0  0  0  0
   58.0131   27.8609   43.3896 H   0  0  0  0  0  0  0  0  0  0  0  0
   55.9519   30.1682   43.3197 H   0  0  0  0  0  0  0  0  0  0  0  0
   57.0594   31.3066   42.4805 H   0  0  0  0  0  0  0  0  0  0  0  0
   57.4129   29.5454   42.4805 H   0  0  0  0  0  0  0  0  0  0  0  0
   57.1116   32.8901   43.2246 H   0  0  0  0  0  0  0  0  0  0  0  0
   57.3555   35.1118   44.2853 H   0  0  0  0  0  0  0  0  0  0  0  0
   58.3607   35.3299   46.5354 H   0  0  0  0  0  0  0  0  0  0  0  0
   59.5601   34.4368   49.7770 H   0  0  0  0  0  0  0  0  0  0  0  0
   60.5803   34.9700   48.3981 H   0  0  0  0  0  0  0  0  0  0  0  0
   58.8179   35.3168   48.3981 H   0  0  0  0  0  0  0  0  0  0  0  0
  1  2  1  0
  2  3  1  0
  3  4  1  0
  4  5  1  0
  3  6  1  0
  6  7  1  0
  7  8  1  0
  8  9  1  0
  9 10  1  0
 10 11  1  0
 11 12  1  0
 12 13  2  0
 13 14  1  0
 14 15  1  0
 15 16  2  0
 16 17  1  0
 17 18  2  0
 18 19  1  0
 18 20  1  0
 20 21  2  0
 21 22  1  0
 22 23  2  0
 23 24  1  0
 24 25  1  0
 25 26  1  0
 24 27  2  0
 27 12  1  0
 17 13  1  0
 27 20  1  0
  1 28  1  0
  1 29  1  0
  1 30  1  0
  2 31  1  0
  2 32  1  0
  4 33  1  0
  4 34  1  0
  5 35  1  0
  5 36  1  0
  5 37  1  0
  6 38  1  0
  6 39  1  0
  7 40  1  0
  7 41  1  0
  9 42  1  0
  9 43  1  0
 10 44  1  0
 10 45  1  0
 11 46  1  0
 15 47  1  0
 16 48  1  0
 19 49  1  0
 19 50  1  0
 19 51  1  0
 21 52  1  0
 22 53  1  0
 23 54  1  0
 26 55  1  0
 26 56  1  0
 26 57  1  0
M  CHG  1  18   1
M  END
>  <UniqueID>  (1) 
1

>  <SMILES>  (1) 
CCN(CC)CCOCCNc1c2sccc2[n+](C)c2cccc(OC)c12

>  <Energy>  (1) 
108.95740492055023

>  <Genealogy>  (1) 
CCN(CC)CCOCCNc1c2sccc2[n+](C)c2cccc(OC)c12 (3D coordinates assigned)
CCN(CC)CCOCCNc1c2sccc2[n+](C)c2cccc(OC)c12 (optimized conformer: 108.95740492055023 kcal/mol)

>  <smiles>  (1) 
CCN(CC)CCOCCNc1c2sccc2[n+](C)c2cccc(OC)c12

>  <score_type>  (1) 
oracle

>  <origin>  (1) 
adg

>  <m_score__min__energy>  (1) 
-5.6799999999999997

>  <m_primary>  (1) 
energy

$$$$
1:0
     RDKit          3D

 41 43  0  0  0  0  0  0  0  0999 V2000
   60.3770   28.6820   44.9480 C   0  0  0  0  0  0  0  0  0  0  0  0
   60.7250   29.4370   46.2390 C   0  0  0  0  0  0  0  0  0  0  0  0
   59.8630   29.0860   47.3890 N   0  0  0  0  0  0  0  0  0  0  0  0
   60.1870   27.7660   47.9580 C   0  0  0  0  0  0  0  0  0  0  0  0
   59.8050   30.1410   48.4230 C   0  0  0  0  0  0  0  0  0  0  0  0
   58.5240   30.9720   48.2720 C   0  0  0  0  0  0  0  0  0  0  0  0
   58.4060   31.5190   46.8980 N   0  0  0  0  0  0  0  0  0  0  0  0
   57.8120   30.7250   45.9370 C   0  0  0  0  0  0  0  0  0  0  0  0
   57.3900   29.5700   46.2240 O   0  0  0  0  0  0  0  0  0  0  0  0
   57.6760   31.2000   44.6720 N   0  0  0  0  0  0  0  0  0  0  0  0
   57.1540   30.6730   43.5390 C   0  0  0  0  0  0  0  0  0  0  0  0
   56.5460   29.3080   43.4020 C   0  0  0  0  0  0  0  0  0  0  0  0
   55.3960   29.2280   44.1670 F   0  0  0  0  0  0  0  0  0  0  0  0
   57.4370   28.3450   43.8370 F   0  0  0  0  0  0  0  0  0  0  0  0
   56.2390   29.0650   42.0760 F   0  0  0  0  0  0  0  0  0  0  0  0
   57.2460   31.5510   42.5160 N   0  0  0  0  0  0  0  0  0  0  0  0
   57.8280   32.6390   43.0020 N   0  0  0  0  0  0  0  0  0  0  0  0
   58.0840   32.4160   44.3050 C   0  0  0  0  0  0  0  0  0  0  0  0
   58.6750   33.2810   45.2250 C   0  0  0  0  0  0  0  0  0  0  0  0
   59.1010   34.5720   44.8680 C   0  0  0  0  0  0  0  0  0  0  0  0
   59.6730   35.4080   45.8220 C   0  0  0  0  0  0  0  0  0  0  0  0
   59.8270   34.9690   47.1340 C   0  0  0  0  0  0  0  0  0  0  0  0
   59.4140   33.6880   47.5050 C   0  0  0  0  0  0  0  0  0  0  0  0
   58.8290   32.8050   46.5620 C   0  0  0  0  0  0  0  0  0  0  0  0
   59.9289   27.7098   45.2012 H   0  0  0  0  0  0  0  0  0  0  0  0
   59.6607   29.2736   44.3590 H   0  0  0  0  0  0  0  0  0  0  0  0
   61.2921   28.5217   44.3590 H   0  0  0  0  0  0  0  0  0  0  0  0
   61.7674   29.2071   46.5045 H   0  0  0  0  0  0  0  0  0  0  0  0
   60.5672   30.5065   46.0361 H   0  0  0  0  0  0  0  0  0  0  0  0
   60.1722   27.8265   49.0562 H   0  0  0  0  0  0  0  0  0  0  0  0
   59.4431   27.0290   47.6213 H   0  0  0  0  0  0  0  0  0  0  0  0
   61.1876   27.4572   47.6213 H   0  0  0  0  0  0  0  0  0  0  0  0
   59.8177   29.6732   49.4185 H   0  0  0  0  0  0  0  0  0  0  0  0
   60.6749   30.8037   48.3041 H   0  0  0  0  0  0  0  0  0  0  0  0
   57.6535   30.3329   48.4811 H   0  0  0  0  0  0  0  0  0  0  0  0
   58.5641   31.8113   48.9819 H   0  0  0  0  0  0  0  0  0  0  0  0
   58.0310   33.4940   42.4390 H   0  0  0  0  0  0  0  0  0  0  0  0
   58.9819   34.9223   43.8321 H   0  0  0  0  0  0  0  0  0  0  0  0
   60.0042   36.4180   45.5388 H   0  0  0  0  0  0  0  0  0  0  0  0
   60.2773   35.6361   47.8838 H   0  0  0  0  0  0  0  0  0  0  0  0
   59.5446   33.3581   48.5462 H   0  0  0  0  0  0  0  0  0  0  0  0
  1  2  1  0
  2  3  1  0
  3  4  1  0
  3  5  1  0
  5  6  1  0
  6  7  1  0
  7  8  1  0
  8  9  2  0
  8 10  1  0
 10 11  1  0
 11 12  1  0
 12 13  1  0
 12 14  1  0
 12 15  1  0
 11 16  2  0
 16 17  1  0
 17 18  2  0
 18 19  1  0
 19 20  2  0
 20 21  1  0
 21 22  2  0
 22 23  1  0
 23 24  2  0
 24  7  1  0
 18 10  1  0
 24 19  1  0
  1 25  1  0
  1 26  1  0
  1 27  1  0
  2 28  1  0
  2 29  1  0
  4 30  1  0
  4 31  1  0
  4 32  1  0
  5 33  1  0
  5 34  1  0
  6 35  1  0
  6 36  1  0
 17 37  1  0
 20 38  1  0
 21 39  1  0
 22 40  1  0
 23 41  1  0
M  CHG  1  17   1
M  END
>  <UniqueID>  (2) 
2

>  <SMILES>  (2) 
CCN(C)CCn1c(=O)n2c(C(F)(F)F)n[nH+]c2c2ccccc21

>  <Energy>  (2) 
96.92375084074004

>  <Genealogy>  (2) 
CCN(C)CCn1c(=O)n2c(C(F)(F)F)n[nH+]c2c2ccccc21 (protonated)
CCN(C)CCn1c(=O)n2c(C(F)(F)F)n[nH+]c2c2ccccc21 (3D coordinates assigned)
CCN(C)CCn1c(=O)n2c(C(F)(F)F)n[nH+]c2c2ccccc21 (optimized conformer: 96.92375084074004 kcal/mol)

>  <smiles>  (2) 
CCN(C)CCn1c(=O)n2c(C(F)(F)F)nnc2c2ccccc21

>  <score_type>  (2) 
oracle

>  <origin>  (2) 
adg

>  <m_score__min__energy>  (2) 
-4.8700000000000001

>  <m_primary>  (2) 
energy

$$$$
2:0
     RDKit          3D

 42 44  0  0  0  0  0  0  0  0999 V2000
   57.3690   26.2520   45.6300 C   0  0  0  0  0  0  0  0  0  0  0  0
   58.0180   26.4950   47.0020 C   0  0  0  0  0  0  0  0  0  0  0  0
   59.3490   27.1420   46.9360 N   0  0  0  0  0  0  0  0  0  0  0  0
   60.3810   26.2350   46.4010 C   0  0  0  0  0  0  0  0  0  0  0  0
   59.7440   27.7460   48.2280 C   0  0  0  0  0  0  0  0  0  0  0  0
   60.4440   29.1080   48.0470 C   0  0  0  0  0  0  0  0  0  0  0  0
   60.5750   29.5170   46.6350 N   0  0  0  0  0  0  0  0  0  0  0  0
   59.7260   30.6520   46.3120 C   0  0  0  0  0  0  0  0  0  0  0  0
   60.0130   31.9700   46.7660 C   0  0  0  0  0  0  0  0  0  0  0  0
   61.1790   32.2510   47.5170 C   0  0  0  0  0  0  0  0  0  0  0  0
   61.4540   33.5410   47.9620 C   0  0  0  0  0  0  0  0  0  0  0  0
   60.5830   34.5820   47.6690 C   0  0  0  0  0  0  0  0  0  0  0  0
   59.4290   34.3440   46.9270 C   0  0  0  0  0  0  0  0  0  0  0  0
   59.1130   33.0440   46.4570 C   0  0  0  0  0  0  0  0  0  0  0  0
   57.9680   32.8120   45.7140 N   0  0  0  0  0  0  0  0  0  0  0  0
   57.0320   33.9130   45.4060 C   0  0  0  0  0  0  0  0  0  0  0  0
   57.7060   31.5510   45.2500 C   0  0  0  0  0  0  0  0  0  0  0  0
   56.6150   31.2580   44.4910 N   0  0  0  0  0  0  0  0  0  0  0  0
   56.8300   29.6450   44.2320 S   0  0  0  0  0  0  0  0  0  0  0  0
   58.2260   29.2560   45.0170 N   0  0  0  0  0  0  0  0  0  0  0  0
   58.5750   30.4630   45.5360 C   0  0  0  0  0  0  0  0  0  0  0  0
   56.3473   25.8694   45.7703 H   0  0  0  0  0  0  0  0  0  0  0  0
   57.3327   27.1975   45.0689 H   0  0  0  0  0  0  0  0  0  0  0  0
   57.9626   25.5152   45.0689 H   0  0  0  0  0  0  0  0  0  0  0  0
   57.3493   27.1400   47.5910 H   0  0  0  0  0  0  0  0  0  0  0  0
   58.1684   25.5067   47.4610 H   0  0  0  0  0  0  0  0  0  0  0  0
   60.9203   25.7610   47.2344 H   0  0  0  0  0  0  0  0  0  0  0  0
   59.9034   25.4590   45.7847 H   0  0  0  0  0  0  0  0  0  0  0  0
   61.0892   26.8083   45.7847 H   0  0  0  0  0  0  0  0  0  0  0  0
   58.8424   27.8903   48.8415 H   0  0  0  0  0  0  0  0  0  0  0  0
   60.4560   27.0635   48.7151 H   0  0  0  0  0  0  0  0  0  0  0  0
   59.8600   29.8735   48.5789 H   0  0  0  0  0  0  0  0  0  0  0  0
   61.4620   29.0060   48.4512 H   0  0  0  0  0  0  0  0  0  0  0  0
   61.5710   29.7540   46.4310 H   0  0  0  0  0  0  0  0  0  0  0  0
   60.3730   28.6990   46.0160 H   0  0  0  0  0  0  0  0  0  0  0  0
   61.8797   31.4365   47.7530 H   0  0  0  0  0  0  0  0  0  0  0  0
   62.3644   33.7364   48.5477 H   0  0  0  0  0  0  0  0  0  0  0  0
   60.8056   35.5989   48.0245 H   0  0  0  0  0  0  0  0  0  0  0  0
   58.7502   35.1796   46.7013 H   0  0  0  0  0  0  0  0  0  0  0  0
   56.6597   34.3509   46.3439 H   0  0  0  0  0  0  0  0  0  0  0  0
   57.5540   34.6856   44.8224 H   0  0  0  0  0  0  0  0  0  0  0  0
   56.1855   33.5221   44.8224 H   0  0  0  0  0  0  0  0  0  0  0  0
  1  2  1  0
  2  3  1  0
  3  4  1  0
  3  5  1  0
  5  6  1  0
  6  7  1  0
  7  8  1  0
  8  9  2  0
  9 10  1  0
 10 11  2  0
 11 12  1  0
 12 13  2  0
 13 14  1  0
 14 15  2  0
 15 16  1  0
 15 17  1  0
 17 18  2  0
 18 19  1  0
 19 20  1  0
 20 21  2  0
 21  8  1  0
 14  9  1  0
 21 17  1  0
  1 22  1  0
  1 23  1  0
  1 24  1  0
  2 25  1  0
  2 26  1  0
  4 27  1  0
  4 28  1  0
  4 29  1  0
  5 30  1  0
  5 31  1  0
  6 32  1  0
  6 33  1  0
  7 34  1  0
  7 35  1  0
 10 36  1  0
 11 37  1  0
 12 38  1  0
 13 39  1  0
 16 40  1  0
 16 41  1  0
 16 42  1  0
M  CHG  2   7   1  15   1
M  END
>  <UniqueID>  (3) 
3

>  <SMILES>  (3) 
CCN(C)CC[NH2+]c1c2ccccc2[n+](C)c2nsnc12

>  <Energy>  (3) 
96.24583940885145

>  <Genealogy>  (3) 
CCN(C)CC[NH2+]c1c2ccccc2[n+](C)c2nsnc12 (protonated)
CCN(C)CC[NH2+]c1c2ccccc2[n+](C)c2nsnc12 (3D coordinates assigned)
CCN(C)CC[NH2+]c1c2ccccc2[n+](C)c2nsnc12 (optimized conformer: 96.24583940885145 kcal/mol)

>  <smiles>  (3) 
CCN(C)CCNc1c2ccccc2[n+](C)c2nsnc12

>  <score_type>  (3) 
oracle

>  <origin>  (3) 
adg

>  <m_score__min__energy>  (3) 
-3.3799999999999999

>  <m_primary>  (3) 
energy

$$$$
3:0
     RDKit          3D

 56 58  0  0  0  0  0  0  0  0999 V2000
   62.7710   33.6590   47.0230 C   0  0  0  0  0  0  0  0  0  0  0  0
   61.4170   33.2480   46.6140 N   0  0  0  0  0  0  0  0  0  0  0  0
   61.1470   31.8930   47.1230 C   0  0  0  0  0  0  0  0  0  0  0  0
   60.3920   34.1950   47.1110 C   0  0  0  0  0  0  0  0  0  0  0  0
   59.0640   33.4770   47.3980 C   0  0  0  0  0  0  0  0  0  0  0  0
   57.9780   34.1400   46.7820 O   0  0  0  0  0  0  0  0  0  0  0  0
   58.2740   34.4360   45.4320 C   0  0  0  0  0  0  0  0  0  0  0  0
   57.5680   33.4310   44.5330 C   0  0  0  0  0  0  0  0  0  0  0  0
   58.5150   32.8390   43.6680 O   0  0  0  0  0  0  0  0  0  0  0  0
   58.0290   31.5930   43.2160 C   0  0  0  0  0  0  0  0  0  0  0  0
   56.6620   31.3290   43.8450 C   0  0  0  0  0  0  0  0  0  0  0  0
   56.7970   30.8590   45.1870 O   0  0  0  0  0  0  0  0  0  0  0  0
   57.5270   29.7280   45.5880 C   0  0  0  0  0  0  0  0  0  0  0  0
   58.5570   29.7850   46.5470 C   0  0  0  0  0  0  0  0  0  0  0  0
   59.2580   28.6280   46.9030 C   0  0  0  0  0  0  0  0  0  0  0  0
   58.9390   27.3970   46.3070 C   0  0  0  0  0  0  0  0  0  0  0  0
   59.6130   26.2090   46.6290 C   0  0  0  0  0  0  0  0  0  0  0  0
   60.5420   26.1990   47.4820 O   0  0  0  0  0  0  0  0  0  0  0  0
   59.2440   25.0190   45.9980 C   0  0  0  0  0  0  0  0  0  0  0  0
   58.2060   25.0340   45.0490 C   0  0  0  0  0  0  0  0  0  0  0  0
   57.7710   23.8030   44.3440 C   0  0  0  0  0  0  0  0  0  0  0  0
   56.6470   23.7940   43.4920 C   0  0  0  0  0  0  0  0  0  0  0  0
   56.2550   22.6150   42.8510 C   0  0  0  0  0  0  0  0  0  0  0  0
   56.9710   21.4330   43.0540 C   0  0  0  0  0  0  0  0  0  0  0  0
   58.0770   21.4270   43.9060 C   0  0  0  0  0  0  0  0  0  0  0  0
   58.4740   22.6010   44.5510 C   0  0  0  0  0  0  0  0  0  0  0  0
   57.5830   26.1800   44.7780 O   0  0  0  0  0  0  0  0  0  0  0  0
   57.9010   27.3360   45.3540 C   0  0  0  0  0  0  0  0  0  0  0  0
   57.2010   28.4960   45.0080 C   0  0  0  0  0  0  0  0  0  0  0  0
   62.8325   33.6777   48.1211 H   0  0  0  0  0  0  0  0  0  0  0  0
   63.5067   32.9437   46.6267 H   0  0  0  0  0  0  0  0  0  0  0  0
   62.9850   34.6626   46.6267 H   0  0  0  0  0  0  0  0  0  0  0  0
   61.1498   31.9072   48.2229 H   0  0  0  0  0  0  0  0  0  0  0  0
   60.1639   31.5553   46.7632 H   0  0  0  0  0  0  0  0  0  0  0  0
   61.9256   31.2043   46.7632 H   0  0  0  0  0  0  0  0  0  0  0  0
   60.7549   34.6622   48.0384 H   0  0  0  0  0  0  0  0  0  0  0  0
   60.2161   34.9558   46.3362 H   0  0  0  0  0  0  0  0  0  0  0  0
   59.1218   32.4487   47.0116 H   0  0  0  0  0  0  0  0  0  0  0  0
   58.8981   33.4754   48.4854 H   0  0  0  0  0  0  0  0  0  0  0  0
   57.9256   35.4517   45.1931 H   0  0  0  0  0  0  0  0  0  0  0  0
   59.3605   34.3772   45.2703 H   0  0  0  0  0  0  0  0  0  0  0  0
   57.0960   32.6526   45.1504 H   0  0  0  0  0  0  0  0  0  0  0  0
   56.7947   33.9426   43.9412 H   0  0  0  0  0  0  0  0  0  0  0  0
   57.9326   31.6112   42.1204 H   0  0  0  0  0  0  0  0  0  0  0  0
   58.7294   30.7959   43.5059 H   0  0  0  0  0  0  0  0  0  0  0  0
   56.0812   32.2631   43.8480 H   0  0  0  0  0  0  0  0  0  0  0  0
   56.1480   30.5568   43.2538 H   0  0  0  0  0  0  0  0  0  0  0  0
   58.8118   30.7454   47.0190 H   0  0  0  0  0  0  0  0  0  0  0  0
   60.0616   28.6825   47.6521 H   0  0  0  0  0  0  0  0  0  0  0  0
   59.7604   24.0786   46.2410 H   0  0  0  0  0  0  0  0  0  0  0  0
   56.0755   24.7200   43.3309 H   0  0  0  0  0  0  0  0  0  0  0  0
   55.3798   22.6182   42.1846 H   0  0  0  0  0  0  0  0  0  0  0  0
   56.6639   20.5083   42.5434 H   0  0  0  0  0  0  0  0  0  0  0  0
   58.6377   20.4949   44.0700 H   0  0  0  0  0  0  0  0  0  0  0  0
   59.3426   22.5860   45.2258 H   0  0  0  0  0  0  0  0  0  0  0  0
   56.3853   28.4400   44.2721 H   0  0  0  0  0  0  0  0  0  0  0  0
  1  2  1  0
  2  3  1  0
  2  4  1  0
  4  5  1  0
  5  6  1  0
  6  7  1  0
  7  8  1  0
  8  9  1  0
  9 10  1  0
 10 11  1  0
 11 12  1  0
 12 13  1  0
 13 14  2  0
 14 15  1  0
 15 16  2  0
 16 17  1  0
 17 18  2  0
 17 19  1  0
 19 20  2  0
 20 21  1  0
 21 22  2  0
 22 23  1  0
 23 24  2  0
 24 25  1  0
 25 26  2  0
 20 27  1  0
 27 28  1  0
 28 29  2  0
 29 13  1  0
 28 16  1  0
 26 21  1  0
  1 30  1  0
  1 31  1  0
  1 32  1  0
  3 33  1  0
  3 34  1  0
  3 35  1  0
  4 36  1  0
  4 37  1  0
  5 38  1  0
  5 39  1  0
  7 40  1  0
  7 41  1  0
  8 42  1  0
  8 43  1  0
 10 44  1  0
 10 45  1  0
 11 46  1  0
 11 47  1  0
 14 48  1  0
 15 49  1  0
 19 50  1  0
 22 51  1  0
 23 52  1  0
 24 53  1  0
 25 54  1  0
 26 55  1  0
 29 56  1  0
M  END
>  <UniqueID>  (4) 
4

>  <SMILES>  (4) 
CN(C)CCOCCOCCOc1ccc2c(=O)cc(-c3ccccc3)oc2c1

>  <Energy>  (4) 
63.38608737555874

>  <Genealogy>  (4) 
CN(C)CCOCCOCCOc1ccc2c(=O)cc(-c3ccccc3)oc2c1 (3D coordinates assigned)
CN(C)CCOCCOCCOc1ccc2c(=O)cc(-c3ccccc3)oc2c1 (optimized conformer: 63.38608737555874 kcal/mol)

>  <smiles>  (4) 
CN(C)CCOCCOCCOc1ccc2c(=O)cc(-c3ccccc3)oc2c1

>  <score_type>  (4) 
oracle

>  <origin>  (4) 
adg

>  <m_score__min__energy>  (4) 
-7.54

>  <m_primary>  (4) 
energy

$$$$
4:0
     RDKit          3D

 43 44  0  0  0  0  0  0  0  0999 V2000
   62.4960   33.4590   46.7420 C   0  0  0  0  0  0  0  0  0  0  0  0
   62.1480   32.4480   47.8290 C   0  0  0  0  0  0  0  0  0  0  0  0
   61.2190   31.3930   47.3010 C   0  0  0  0  0  0  0  0  0  0  0  0
   61.6070   30.4010   46.4640 N   0  0  0  0  0  0  0  0  0  0  0  0
   60.4660   29.7650   46.1270 C   0  0  0  0  0  0  0  0  0  0  0  0
   60.3550   28.6640   45.2830 C   0  0  0  0  0  0  0  0  0  0  0  0
   59.0710   28.1460   45.0540 C   0  0  0  0  0  0  0  0  0  0  0  0
   57.9360   28.7380   45.6560 C   0  0  0  0  0  0  0  0  0  0  0  0
   56.5930   28.1800   45.4060 C   0  0  0  0  0  0  0  0  0  0  0  0
   56.3850   26.9630   45.6530 O   0  0  0  0  0  0  0  0  0  0  0  0
   55.5200   28.9680   44.8680 N   0  0  0  0  0  0  0  0  0  0  0  0
   55.5330   29.7090   43.6070 C   0  0  0  0  0  0  0  0  0  0  0  0
   56.6460   30.7560   43.5880 C   0  0  0  0  0  0  0  0  0  0  0  0
   56.6060   31.5090   44.7820 O   0  0  0  0  0  0  0  0  0  0  0  0
   57.4160   32.6540   44.6370 C   0  0  0  0  0  0  0  0  0  0  0  0
   58.1200   29.8330   46.5200 C   0  0  0  0  0  0  0  0  0  0  0  0
   59.3800   30.3110   46.6990 N   0  0  0  0  0  0  0  0  0  0  0  0
   59.8360   31.3380   47.4410 C   0  0  0  0  0  0  0  0  0  0  0  0
   59.0020   32.2580   48.1650 N   0  0  0  0  0  0  0  0  0  0  0  0
   58.6980   33.5730   47.6040 C   0  0  0  0  0  0  0  0  0  0  0  0
   58.5280   31.9350   49.5080 C   0  0  0  0  0  0  0  0  0  0  0  0
   62.8203   34.4012   47.2079 H   0  0  0  0  0  0  0  0  0  0  0  0
   63.3086   33.0603   46.1170 H   0  0  0  0  0  0  0  0  0  0  0  0
   61.6101   33.6449   46.1170 H   0  0  0  0  0  0  0  0  0  0  0  0
   63.0721   31.9690   48.1847 H   0  0  0  0  0  0  0  0  0  0  0  0
   61.6476   32.9765   48.6538 H   0  0  0  0  0  0  0  0  0  0  0  0
   62.5730   30.1890   46.1350 H   0  0  0  0  0  0  0  0  0  0  0  0
   61.2423   28.2157   44.8121 H   0  0  0  0  0  0  0  0  0  0  0  0
   58.9459   27.2707   44.3997 H   0  0  0  0  0  0  0  0  0  0  0  0
   55.6914   29.0030   42.7785 H   0  0  0  0  0  0  0  0  0  0  0  0
   54.5684   30.2266   43.4992 H   0  0  0  0  0  0  0  0  0  0  0  0
   57.6207   30.2531   43.5044 H   0  0  0  0  0  0  0  0  0  0  0  0
   56.5035   31.4263   42.7275 H   0  0  0  0  0  0  0  0  0  0  0  0
   57.6882   33.0388   45.6309 H   0  0  0  0  0  0  0  0  0  0  0  0
   58.3291   32.3895   44.0835 H   0  0  0  0  0  0  0  0  0  0  0  0
   56.8626   33.4269   44.0835 H   0  0  0  0  0  0  0  0  0  0  0  0
   57.2648   30.2914   47.0383 H   0  0  0  0  0  0  0  0  0  0  0  0
   58.5321   34.2907   48.4209 H   0  0  0  0  0  0  0  0  0  0  0  0
   59.5416   33.9113   46.9844 H   0  0  0  0  0  0  0  0  0  0  0  0
   57.7915   33.5067   46.9844 H   0  0  0  0  0  0  0  0  0  0  0  0
   59.1971   32.3910   50.2525 H   0  0  0  0  0  0  0  0  0  0  0  0
   57.5091   32.3276   49.6415 H   0  0  0  0  0  0  0  0  0  0  0  0
   58.5207   30.8432   49.6415 H   0  0  0  0  0  0  0  0  0  0  0  0
  1  2  1  0
  2  3  1  0
  3  4  1  0
  4  5  2  0
  5  6  1  0
  6  7  2  0
  7  8  1  0
  8  9  1  0
  9 10  2  0
  9 11  1  0
 11 12  1  0
 12 13  1  0
 13 14  1  0
 14 15  1  0
  8 16  2  0
 16 17  1  0
 17 18  1  0
 18 19  1  0
 19 20  1  0
 19 21  1  0
 18  3  2  0
 17  5  1  0
  1 22  1  0
  1 23  1  0
  1 24  1  0
  2 25  1  0
  2 26  1  0
  4 27  1  0
  6 28  1  0
  7 29  1  0
 12 30  1  0
 12 31  1  0
 13 32  1  0
 13 33  1  0
 15 34  1  0
 15 35  1  0
 15 36  1  0
 16 37  1  0
 20 38  1  0
 20 39  1  0
 20 40  1  0
 21 41  1  0
 21 42  1  0
 21 43  1  0
M  CHG  2   4   1  11  -1
M  END
>  <UniqueID>  (5) 
5

>  <SMILES>  (5) 
CCc1[nH+]c2ccc(C(=O)[N-]CCOC)cn2c1N(C)C

>  <Energy>  (5) 
80.39851957573643

>  <Genealogy>  (5) 
CCc1[nH+]c2ccc(C(=O)[N-]CCOC)cn2c1N(C)C (protonated)
CCc1[nH+]c2ccc(C(=O)[N-]CCOC)cn2c1N(C)C (3D coordinates assigned)
CCc1[nH+]c2ccc(C(=O)[N-]CCOC)cn2c1N(C)C (optimized conformer: 80.39851957573643 kcal/mol)

>  <smiles>  (5) 
CCc1nc2ccc(C(=O)NCCOC)cn2c1N(C)C

>  <score_type>  (5) 
oracle

>  <origin>  (5) 
adg

>  <m_score__min__energy>  (5) 
-7.5999999999999996

>  <m_primary>  (5) 
energy

$$$$
5:0
     RDKit          3D

 46 47  0  0  0  0  0  0  0  0999 V2000
   56.2860   30.1040   43.5550 C   0  0  0  0  0  0  0  0  0  0  0  0
   56.4880   30.5690   44.8690 O   0  0  0  0  0  0  0  0  0  0  0  0
   57.4590   29.7870   45.5490 C   0  0  0  0  0  0  0  0  0  0  0  0
   58.7800   30.5780   45.7760 C   0  0  1  0  0  0  0  0  0  0  0  0
   59.9720   29.7240   45.2680 C   0  0  0  0  0  0  0  0  0  0  0  0
   58.7010   31.9060   45.0920 N   0  0  0  0  0  0  0  0  0  0  0  0
   58.3030   33.1710   45.7710 C   0  0  2  0  0  0  0  0  0  0  0  0
   57.0040   33.8020   45.2510 C   0  0  0  0  0  0  0  0  0  0  0  0
   59.4590   34.1960   45.9060 C   0  0  0  0  0  0  0  0  0  0  0  0
   60.2020   33.9970   47.1650 N   0  0  0  0  0  0  0  0  0  0  0  0
   59.5390   34.1770   48.3470 C   0  0  0  0  0  0  0  0  0  0  0  0
   60.1960   34.0220   49.5650 C   0  0  0  0  0  0  0  0  0  0  0  0
   61.5440   33.6830   49.5810 C   0  0  0  0  0  0  0  0  0  0  0  0
   62.2380   33.5000   48.3750 C   0  0  0  0  0  0  0  0  0  0  0  0
   63.7070   33.1360   48.3720 C   0  0  0  0  0  0  0  0  0  0  0  0
   64.2950   33.6040   47.2110 F   0  0  0  0  0  0  0  0  0  0  0  0
   63.8420   31.7600   48.4250 F   0  0  0  0  0  0  0  0  0  0  0  0
   64.3750   33.6840   49.4540 F   0  0  0  0  0  0  0  0  0  0  0  0
   61.5380   33.6640   47.1610 C   0  0  0  0  0  0  0  0  0  0  0  0
   62.1490   33.5040   46.0680 O   0  0  0  0  0  0  0  0  0  0  0  0
   58.8660   30.8760   47.3210 C   0  0  0  0  0  0  0  0  0  0  0  0
   58.9490   29.6990   48.2900 C   0  0  0  0  0  0  0  0  0  0  0  0
   60.1510   30.6180   48.1080 C   0  0  0  0  0  0  0  0  0  0  0  0
   55.8479   29.0955   43.5862 H   0  0  0  0  0  0  0  0  0  0  0  0
   55.6024   30.7845   43.0263 H   0  0  0  0  0  0  0  0  0  0  0  0
   57.2499   30.0688   43.0263 H   0  0  0  0  0  0  0  0  0  0  0  0
   57.0526   29.4843   46.5253 H   0  0  0  0  0  0  0  0  0  0  0  0
   57.6880   28.9088   44.9275 H   0  0  0  0  0  0  0  0  0  0  0  0
   60.5296   29.3245   46.1279 H   0  0  0  0  0  0  0  0  0  0  0  0
   59.5926   28.8910   44.6580 H   0  0  0  0  0  0  0  0  0  0  0  0
   60.6387   30.3512   44.6580 H   0  0  0  0  0  0  0  0  0  0  0  0
   58.1210   31.8300   44.2220 H   0  0  0  0  0  0  0  0  0  0  0  0
   58.0625   32.8484   46.7948 H   0  0  0  0  0  0  0  0  0  0  0  0
   56.3777   34.1062   46.1025 H   0  0  0  0  0  0  0  0  0  0  0  0
   57.2441   34.6839   44.6389 H   0  0  0  0  0  0  0  0  0  0  0  0
   56.4593   33.0681   44.6389 H   0  0  0  0  0  0  0  0  0  0  0  0
   60.1492   34.0726   45.0584 H   0  0  0  0  0  0  0  0  0  0  0  0
   59.0290   35.2085   45.9108 H   0  0  0  0  0  0  0  0  0  0  0  0
   58.4729   34.4477   48.3358 H   0  0  0  0  0  0  0  0  0  0  0  0
   59.6511   34.1671   50.5095 H   0  0  0  0  0  0  0  0  0  0  0  0
   62.0675   33.5580   50.5403 H   0  0  0  0  0  0  0  0  0  0  0  0
   58.2138   31.7520   47.1898 H   0  0  0  0  0  0  0  0  0  0  0  0
   58.3785   29.7200   49.2303 H   0  0  0  0  0  0  0  0  0  0  0  0
   58.7810   28.6147   48.2116 H   0  0  0  0  0  0  0  0  0  0  0  0
   60.4475   31.3023   48.9166 H   0  0  0  0  0  0  0  0  0  0  0  0
   61.2087   30.4719   47.8438 H   0  0  0  0  0  0  0  0  0  0  0  0
  1  2  1  0
  2  3  1  0
  3  4  1  0
  4  5  1  0
  4  6  1  6
  6  7  1  0
  7  8  1  0
  7  9  1  0
  9 10  1  0
 10 11  1  0
 11 12  2  0
 12 13  1  0
 13 14  2  0
 14 15  1  0
 15 16  1  0
 15 17  1  0
 15 18  1  0
 14 19  1  0
 19 20  2  0
  4 21  1  0
 21 22  1  0
 22 23  1  0
 19 10  1  0
 23 21  1  0
  1 24  1  0
  1 25  1  0
  1 26  1  0
  3 27  1  0
  3 28  1  0
  5 29  1  0
  5 30  1  0
  5 31  1  0
  6 32  1  0
  7 33  1  1
  8 34  1  0
  8 35  1  0
  8 36  1  0
  9 37  1  0
  9 38  1  0
 11 39  1  0
 12 40  1  0
 13 41  1  0
 21 42  1  0
 22 43  1  0
 22 44  1  0
 23 45  1  0
 23 46  1  0
M  END
>  <UniqueID>  (6) 
6

>  <SMILES>  (6) 
COC[C@@](C)(N[C@H](C)Cn1cccc(C(F)(F)F)c1=O)C1CC1

>  <Energy>  (6) 
335.94448287286264

>  <Genealogy>  (6) 
COC[C@@](C)(N[C@H](C)Cn1cccc(C(F)(F)F)c1=O)C1CC1 (chirality)
COC[C@@](C)(N[C@H](C)Cn1cccc(C(F)(F)F)c1=O)C1CC1 (3D coordinates assigned)
COC[C@@](C)(N[C@H](C)Cn1cccc(C(F)(F)F)c1=O)C1CC1 (nonaromatic ring conformer: 335.94448287286264 kcal/mol)

>  <smiles>  (6) 
COCC(C)(NC(C)Cn1cccc(C(F)(F)F)c1=O)C1CC1

>  <score_type>  (6) 
oracle

>  <origin>  (6) 
adg

>  <m_score__min__energy>  (6) 
-6.8700000000000001

>  <m_primary>  (6) 
energy

$$$$
6:0
     RDKit          3D

 33 33  0  0  0  0  0  0  0  0999 V2000
   57.6970   32.3490   41.4830 C   0  0  0  0  0  0  0  0  0  0  0  0
   57.1120   31.3230   42.4540 C   0  0  0  0  0  0  0  0  0  0  0  0
   57.3740   31.6740   43.9320 C   0  0  0  0  0  0  0  0  0  0  0  0
   56.6990   30.7830   44.8880 N   0  0  0  0  0  0  0  0  0  0  0  0
   56.9080   29.3590   44.5900 C   0  0  0  0  0  0  0  0  0  0  0  0
   57.3890   28.6160   45.8430 C   0  0  0  0  0  0  0  0  0  0  0  0
   58.7850   29.0690   46.2990 C   0  0  0  0  0  0  0  0  0  0  0  0
   58.7980   30.4500   46.6610 O   0  0  0  0  0  0  0  0  0  0  0  0
   59.9450   31.2160   46.9290 C   0  0  0  0  0  0  0  0  0  0  0  0
   61.2140   30.6360   47.1230 C   0  0  0  0  0  0  0  0  0  0  0  0
   62.3270   31.4410   47.3840 C   0  0  0  0  0  0  0  0  0  0  0  0
   62.1870   32.8300   47.4560 C   0  0  0  0  0  0  0  0  0  0  0  0
   63.5850   33.8370   47.7820 Cl  0  0  0  0  0  0  0  0  0  0  0  0
   60.9310   33.4140   47.2680 C   0  0  0  0  0  0  0  0  0  0  0  0
   59.8140   32.6130   47.0080 C   0  0  0  0  0  0  0  0  0  0  0  0
   58.1120   33.4460   46.7430 Br  0  0  0  0  0  0  0  0  0  0  0  0
   58.1635   33.1672   42.0513 H   0  0  0  0  0  0  0  0  0  0  0  0
   58.4544   31.8641   40.8496 H   0  0  0  0  0  0  0  0  0  0  0  0
   56.8939   32.7538   40.8496 H   0  0  0  0  0  0  0  0  0  0  0  0
   56.0250   31.2691   42.2940 H   0  0  0  0  0  0  0  0  0  0  0  0
   57.6053   30.3607   42.2521 H   0  0  0  0  0  0  0  0  0  0  0  0
   58.4575   31.6188   44.1136 H   0  0  0  0  0  0  0  0  0  0  0  0
   56.9674   32.6828   44.0961 H   0  0  0  0  0  0  0  0  0  0  0  0
   57.0130   30.9900   45.8640 H   0  0  0  0  0  0  0  0  0  0  0  0
   55.9604   28.9173   44.2480 H   0  0  0  0  0  0  0  0  0  0  0  0
   57.6728   29.2670   43.8047 H   0  0  0  0  0  0  0  0  0  0  0  0
   56.6745   28.8014   46.6586 H   0  0  0  0  0  0  0  0  0  0  0  0
   57.4508   27.5465   45.5932 H   0  0  0  0  0  0  0  0  0  0  0  0
   59.0881   28.4690   47.1697 H   0  0  0  0  0  0  0  0  0  0  0  0
   59.4833   28.9267   45.4611 H   0  0  0  0  0  0  0  0  0  0  0  0
   61.3300   29.5435   47.0688 H   0  0  0  0  0  0  0  0  0  0  0  0
   63.3148   30.9804   47.5330 H   0  0  0  0  0  0  0  0  0  0  0  0
   60.8206   34.5070   47.3247 H   0  0  0  0  0  0  0  0  0  0  0  0
  1  2  1  0
  2  3  1  0
  3  4  1  0
  4  5  1  0
  5  6  1  0
  6  7  1  0
  7  8  1  0
  8  9  1  0
  9 10  2  0
 10 11  1  0
 11 12  2  0
 12 13  1  0
 12 14  1  0
 14 15  2  0
 15 16  1  0
 15  9  1  0
  1 17  1  0
  1 18  1  0
  1 19  1  0
  2 20  1  0
  2 21  1  0
  3 22  1  0
  3 23  1  0
  4 24  1  0
  5 25  1  0
  5 26  1  0
  6 27  1  0
  6 28  1  0
  7 29  1  0
  7 30  1  0
 10 31  1  0
 11 32  1  0
 14 33  1  0
M  END
>  <UniqueID>  (7) 
7

>  <SMILES>  (7) 
CCCNCCCOc1ccc(Cl)cc1Br

>  <Energy>  (7) 
23.852983994028957

>  <Genealogy>  (7) 
CCCNCCCOc1ccc(Cl)cc1Br (3D coordinates assigned)
CCCNCCCOc1ccc(Cl)cc1Br (optimized conformer: 23.852983994028957 kcal/mol)

>  <smiles>  (7) 
CCCNCCCOc1ccc(Cl)cc1Br

>  <score_type>  (7) 
oracle

>  <origin>  (7) 
adg

>  <m_score__min__energy>  (7) 
-5.6600000000000001

>  <m_primary>  (7) 
energy

$$$$
7:0
     RDKit          3D

 67 70  0  0  0  0  0  0  0  0999 V2000
   59.3280   22.2220   44.5210 C   0  0  0  0  0  0  0  0  0  0  0  0
   58.2670   22.0420   45.6130 C   0  0  0  0  0  0  0  0  0  0  0  0
   56.9030   22.4630   45.2060 N   0  0  0  0  0  0  0  0  0  0  0  0
   56.2680   21.5750   44.2040 C   0  0  0  0  0  0  0  0  0  0  0  0
   56.6760   21.9400   42.7760 C   0  0  0  0  0  0  0  0  0  0  0  0
   56.8510   23.8850   44.7930 C   0  0  0  0  0  0  0  0  0  0  0  0
   55.7110   24.6290   45.5110 C   0  0  0  0  0  0  0  0  0  0  0  0
   55.9870   26.0630   45.6180 N   0  0  0  0  0  0  0  0  0  0  0  0
   57.0650   26.5740   46.4150 C   0  0  0  0  0  0  0  0  0  0  0  0
   57.7750   25.6630   47.1900 C   0  0  0  0  0  0  0  0  0  0  0  0
   58.9150   26.0470   47.8720 C   0  0  0  0  0  0  0  0  0  0  0  0
   59.4200   27.3530   47.7800 C   0  0  0  0  0  0  0  0  0  0  0  0
   60.5640   27.7110   48.5980 N   0  0  0  0  0  0  0  0  0  0  0  0
   60.7790   27.1410   49.9350 C   0  0  0  0  0  0  0  0  0  0  0  0
   60.8120   28.2050   51.0570 C   0  0  0  0  0  0  0  0  0  0  0  0
   60.4740   29.5900   50.6610 N   0  0  0  0  0  0  0  0  0  0  0  0
   59.1210   29.7450   50.1070 C   0  0  0  0  0  0  0  0  0  0  0  0
   58.8820   31.2050   49.6680 C   0  0  0  0  0  0  0  0  0  0  0  0
   59.8210   32.0720   50.2740 O   0  0  0  0  0  0  0  0  0  0  0  0
   61.1310   31.7920   49.7980 C   0  0  0  0  0  0  0  0  0  0  0  0
   61.4730   30.2870   49.8380 C   0  0  0  0  0  0  0  0  0  0  0  0
   58.7450   28.2970   46.9370 C   0  0  0  0  0  0  0  0  0  0  0  0
   59.2730   29.5890   46.6670 C   0  0  0  0  0  0  0  0  0  0  0  0
   60.5160   29.9710   47.1530 O   0  0  0  0  0  0  0  0  0  0  0  0
   58.5720   30.5080   45.8640 C   0  0  0  0  0  0  0  0  0  0  0  0
   59.1000   31.7920   45.6070 C   0  0  0  0  0  0  0  0  0  0  0  0
   58.4100   32.6970   44.8010 C   0  0  0  0  0  0  0  0  0  0  0  0
   57.1770   32.3450   44.2560 C   0  0  0  0  0  0  0  0  0  0  0  0
   56.6320   31.0900   44.5110 C   0  0  0  0  0  0  0  0  0  0  0  0
   57.3280   30.1510   45.3030 C   0  0  0  0  0  0  0  0  0  0  0  0
   56.8020   28.8720   45.5300 C   0  0  0  0  0  0  0  0  0  0  0  0
   55.5370   28.5860   45.0280 O   0  0  0  0  0  0  0  0  0  0  0  0
   57.5190   27.9160   46.3000 C   0  0  0  0  0  0  0  0  0  0  0  0
   60.3100   22.3886   44.9878 H   0  0  0  0  0  0  0  0  0  0  0  0
   59.3678   21.3178   43.8959 H   0  0  0  0  0  0  0  0  0  0  0  0
   59.0674   23.0888   43.8959 H   0  0  0  0  0  0  0  0  0  0  0  0
   58.2323   20.9778   45.8893 H   0  0  0  0  0  0  0  0  0  0  0  0
   58.5620   22.6887   46.4525 H   0  0  0  0  0  0  0  0  0  0  0  0
   56.5715   20.5372   44.4060 H   0  0  0  0  0  0  0  0  0  0  0  0
   55.1776   21.6935   44.2870 H   0  0  0  0  0  0  0  0  0  0  0  0
   57.4955   22.6732   42.8049 H   0  0  0  0  0  0  0  0  0  0  0  0
   57.0118   21.0353   42.2480 H   0  0  0  0  0  0  0  0  0  0  0  0
   55.8141   22.3741   42.2480 H   0  0  0  0  0  0  0  0  0  0  0  0
   57.8078   24.3669   45.0427 H   0  0  0  0  0  0  0  0  0  0  0  0
   56.6680   23.9276   43.7092 H   0  0  0  0  0  0  0  0  0  0  0  0
   54.7790   24.4861   44.9445 H   0  0  0  0  0  0  0  0  0  0  0  0
   55.6193   24.2193   46.5277 H   0  0  0  0  0  0  0  0  0  0  0  0
   55.3490   26.7320   45.1240 H   0  0  0  0  0  0  0  0  0  0  0  0
   57.4248   24.6227   47.2614 H   0  0  0  0  0  0  0  0  0  0  0  0
   59.4380   25.3117   48.5011 H   0  0  0  0  0  0  0  0  0  0  0  0
   61.0840   28.5830   48.3590 H   0  0  0  0  0  0  0  0  0  0  0  0
   59.9635   26.4343   50.1482 H   0  0  0  0  0  0  0  0  0  0  0  0
   61.7627   26.6489   49.9244 H   0  0  0  0  0  0  0  0  0  0  0  0
   60.0969   27.8950   51.8332 H   0  0  0  0  0  0  0  0  0  0  0  0
   61.8592   28.2443   51.3915 H   0  0  0  0  0  0  0  0  0  0  0  0
   59.0078   29.0819   49.2366 H   0  0  0  0  0  0  0  0  0  0  0  0
   58.3863   29.4812   50.8820 H   0  0  0  0  0  0  0  0  0  0  0  0
   58.9811   31.2736   48.5746 H   0  0  0  0  0  0  0  0  0  0  0  0
   57.8712   31.5061   49.9806 H   0  0  0  0  0  0  0  0  0  0  0  0
   61.2097   32.1428   48.7584 H   0  0  0  0  0  0  0  0  0  0  0  0
   61.8413   32.3108   50.4585 H   0  0  0  0  0  0  0  0  0  0  0  0
   61.4591   29.8785   48.8167 H   0  0  0  0  0  0  0  0  0  0  0  0
   62.4745   30.1452   50.2704 H   0  0  0  0  0  0  0  0  0  0  0  0
   60.0657   32.0815   46.0471 H   0  0  0  0  0  0  0  0  0  0  0  0
   58.8392   33.6887   44.5955 H   0  0  0  0  0  0  0  0  0  0  0  0
   56.6328   33.0609   43.6225 H   0  0  0  0  0  0  0  0  0  0  0  0
   55.6497   30.8272   44.0915 H   0  0  0  0  0  0  0  0  0  0  0  0
  1  2  1  0
  2  3  1  0
  3  4  1  0
  4  5  1  0
  3  6  1  0
  6  7  1  0
  7  8  1  0
  8  9  1  0
  9 10  2  0
 10 11  1  0
 11 12  2  0
 12 13  1  0
 13 14  1  0
 14 15  1  0
 15 16  1  0
 16 17  1  0
 17 18  1  0
 18 19  1  0
 19 20  1  0
 20 21  1  0
 12 22  1  0
 22 23  2  0
 23 24  1  0
 23 25  1  0
 25 26  2  0
 26 27  1  0
 27 28  2  0
 28 29  1  0
 29 30  2  0
 30 31  1  0
 31 32  1  0
 31 33  2  0
 33  9  1  0
 21 16  1  0
 33 22  1  0
 30 25  1  0
  1 34  1  0
  1 35  1  0
  1 36  1  0
  2 37  1  0
  2 38  1  0
  4 39  1  0
  4 40  1  0
  5 41  1  0
  5 42  1  0
  5 43  1  0
  6 44  1  0
  6 45  1  0
  7 46  1  0
  7 47  1  0
  8 48  1  0
 10 49  1  0
 11 50  1  0
 13 51  1  0
 14 52  1  0
 14 53  1  0
 15 54  1  0
 15 55  1  0
 17 56  1  0
 17 57  1  0
 18 58  1  0
 18 59  1  0
 20 60  1  0
 20 61  1  0
 21 62  1  0
 21 63  1  0
 26 64  1  0
 27 65  1  0
 28 66  1  0
 29 67  1  0
M  CHG  2  24  -1  32  -1
M  END
>  <UniqueID>  (8) 
8

>  <SMILES>  (8) 
CCN(CC)CCNc1ccc(NCCN2CCOCC2)c2c([O-])c3ccccc3c([O-])c12

>  <Energy>  (8) 
109.13430884771572

>  <Genealogy>  (8) 
CCN(CC)CCNc1ccc(NCCN2CCOCC2)c2c([O-])c3ccccc3c([O-])c12 (protonated)
CCN(CC)CCNc1ccc(NCCN2CCOCC2)c2c([O-])c3ccccc3c([O-])c12 (3D coordinates assigned)
CCN(CC)CCNc1ccc(NCCN2CCOCC2)c2c([O-])c3ccccc3c([O-])c12 (nonaromatic ring conformer: 109.13430884771572 kcal/mol)

>  <smiles>  (8) 
CCN(CC)CCNc1ccc(NCCN2CCOCC2)c2c(O)c3ccccc3c(O)c12

>  <score_type>  (8) 
oracle

>  <origin>  (8) 
adg

>  <m_score__min__energy>  (8) 
-11.1

>  <m_primary>  (8) 
energy

$$$$
8:0
     RDKit          3D

 61 63  0  0  0  0  0  0  0  0999 V2000
   63.1270   34.4140   50.7080 C   0  0  0  0  0  0  0  0  0  0  0  0
   62.8260   34.1720   49.2230 C   0  0  0  0  0  0  0  0  0  0  0  0
   62.7420   32.7350   48.8270 N   0  0  0  0  0  0  0  0  0  0  0  0
   62.8880   32.5200   47.3630 C   0  0  0  0  0  0  0  0  0  0  0  0
   63.3610   33.7710   46.6100 C   0  0  0  0  0  0  0  0  0  0  0  0
   63.7050   31.8630   49.5550 C   0  0  0  0  0  0  0  0  0  0  0  0
   63.0350   30.8250   50.4740 C   0  0  0  0  0  0  0  0  0  0  0  0
   61.6360   30.8340   50.2630 O   0  0  0  0  0  0  0  0  0  0  0  0
   61.1590   29.5130   50.1180 C   0  0  0  0  0  0  0  0  0  0  0  0
   60.3940   29.4030   48.8020 C   0  0  0  0  0  0  0  0  0  0  0  0
   59.4040   30.4780   48.6820 N   0  0  0  0  0  0  0  0  0  0  0  0
   59.0220   30.9680   47.3900 C   0  0  0  0  0  0  0  0  0  0  0  0
   58.5920   30.0520   46.4110 C   0  0  0  0  0  0  0  0  0  0  0  0
   58.4890   28.6750   46.7110 C   0  0  0  0  0  0  0  0  0  0  0  0
   58.1440   27.7540   45.7250 C   0  0  0  0  0  0  0  0  0  0  0  0
   58.0430   26.0450   46.1130 Cl  0  0  0  0  0  0  0  0  0  0  0  0
   57.9010   28.1880   44.4270 C   0  0  0  0  0  0  0  0  0  0  0  0
   57.9760   29.5470   44.1140 C   0  0  0  0  0  0  0  0  0  0  0  0
   58.2840   30.5110   45.1070 C   0  0  0  0  0  0  0  0  0  0  0  0
   58.3200   31.8630   44.8220 N   0  0  0  0  0  0  0  0  0  0  0  0
   57.7230   32.3620   43.5640 C   0  0  0  0  0  0  0  0  0  0  0  0
   58.8790   32.7490   45.7270 C   0  0  0  0  0  0  0  0  0  0  0  0
   59.1880   34.0790   45.3510 C   0  0  0  0  0  0  0  0  0  0  0  0
   59.6770   34.9920   46.2750 C   0  0  0  0  0  0  0  0  0  0  0  0
   59.8670   34.6190   47.5970 C   0  0  0  0  0  0  0  0  0  0  0  0
   59.6120   33.3010   48.0130 C   0  0  0  0  0  0  0  0  0  0  0  0
   59.7720   32.9410   49.3640 O   0  0  0  0  0  0  0  0  0  0  0  0
   59.6420   33.8250   50.4720 C   0  0  0  0  0  0  0  0  0  0  0  0
   59.1740   32.3350   47.0590 C   0  0  0  0  0  0  0  0  0  0  0  0
   62.4167   33.8429   51.3239 H   0  0  0  0  0  0  0  0  0  0  0  0
   64.1528   34.0863   50.9323 H   0  0  0  0  0  0  0  0  0  0  0  0
   63.0273   35.4863   50.9323 H   0  0  0  0  0  0  0  0  0  0  0  0
   61.8632   34.6488   48.9869 H   0  0  0  0  0  0  0  0  0  0  0  0
   63.6708   34.5987   48.6624 H   0  0  0  0  0  0  0  0  0  0  0  0
   61.7760   32.4090   49.0760 H   0  0  0  0  0  0  0  0  0  0  0  0
   63.6208   31.7161   47.1995 H   0  0  0  0  0  0  0  0  0  0  0  0
   61.8936   32.2603   46.9710 H   0  0  0  0  0  0  0  0  0  0  0  0
   63.6539   34.5458   47.3338 H   0  0  0  0  0  0  0  0  0  0  0  0
   64.2241   33.5143   45.9783 H   0  0  0  0  0  0  0  0  0  0  0  0
   62.5439   34.1495   45.9783 H   0  0  0  0  0  0  0  0  0  0  0  0
   64.3153   31.3265   48.8136 H   0  0  0  0  0  0  0  0  0  0  0  0
   64.3060   32.5203   50.2005 H   0  0  0  0  0  0  0  0  0  0  0  0
   63.4326   29.8248   50.2469 H   0  0  0  0  0  0  0  0  0  0  0  0
   63.2468   31.0771   51.5236 H   0  0  0  0  0  0  0  0  0  0  0  0
   62.0076   28.8131   50.1110 H   0  0  0  0  0  0  0  0  0  0  0  0
   60.4929   29.2640   50.9572 H   0  0  0  0  0  0  0  0  0  0  0  0
   61.1046   29.4725   47.9652 H   0  0  0  0  0  0  0  0  0  0  0  0
   59.8687   28.4368   48.7800 H   0  0  0  0  0  0  0  0  0  0  0  0
   58.8330   30.7710   49.5080 H   0  0  0  0  0  0  0  0  0  0  0  0
   58.6837   28.3263   47.7359 H   0  0  0  0  0  0  0  0  0  0  0  0
   57.6487   27.4583   43.6435 H   0  0  0  0  0  0  0  0  0  0  0  0
   57.7931   29.8749   43.0801 H   0  0  0  0  0  0  0  0  0  0  0  0
   56.8983   33.0513   43.7977 H   0  0  0  0  0  0  0  0  0  0  0  0
   58.4894   32.8920   42.9794 H   0  0  0  0  0  0  0  0  0  0  0  0
   57.3374   31.5137   42.9794 H   0  0  0  0  0  0  0  0  0  0  0  0
   59.0377   34.3941   44.3079 H   0  0  0  0  0  0  0  0  0  0  0  0
   59.9153   36.0176   45.9567 H   0  0  0  0  0  0  0  0  0  0  0  0
   60.2207   35.3618   48.3271 H   0  0  0  0  0  0  0  0  0  0  0  0
   59.7260   33.2540   51.4084 H   0  0  0  0  0  0  0  0  0  0  0  0
   60.4384   34.5828   50.4319 H   0  0  0  0  0  0  0  0  0  0  0  0
   58.6612   34.3214   50.4319 H   0  0  0  0  0  0  0  0  0  0  0  0
  1  2  1  0
  2  3  1  0
  3  4  1  0
  4  5  1  0
  3  6  1  0
  6  7  1  0
  7  8  1  0
  8  9  1  0
  9 10  1  0
 10 11  1  0
 11 12  1  0
 12 13  2  0
 13 14  1  0
 14 15  2  0
 15 16  1  0
 15 17  1  0
 17 18  2  0
 18 19  1  0
 19 20  2  0
 20 21  1  0
 20 22  1  0
 22 23  2  0
 23 24  1  0
 24 25  2  0
 25 26  1  0
 26 27  1  0
 27 28  1  0
 26 29  2  0
 29 12  1  0
 19 13  1  0
 29 22  1  0
  1 30  1  0
  1 31  1  0
  1 32  1  0
  2 33  1  0
  2 34  1  0
  3 35  1  0
  4 36  1  0
  4 37  1  0
  5 38  1  0
  5 39  1  0
  5 40  1  0
  6 41  1  0
  6 42  1  0
  7 43  1  0
  7 44  1  0
  9 45  1  0
  9 46  1  0
 10 47  1  0
 10 48  1  0
 11 49  1  0
 14 50  1  0
 17 51  1  0
 18 52  1  0
 21 53  1  0
 21 54  1  0
 21 55  1  0
 23 56  1  0
 24 57  1  0
 25 58  1  0
 28 59  1  0
 28 60  1  0
 28 61  1  0
M  CHG  2   3   1  20   1
M  END
>  <UniqueID>  (9) 
9

>  <SMILES>  (9) 
CC[NH+](CC)CCOCCNc1c2cc(Cl)ccc2[n+](C)c2cccc(OC)c12

>  <Energy>  (9) 
92.7955313970162

>  <Genealogy>  (9) 
CC[NH+](CC)CCOCCNc1c2cc(Cl)ccc2[n+](C)c2cccc(OC)c12 (protonated)
CC[NH+](CC)CCOCCNc1c2cc(Cl)ccc2[n+](C)c2cccc(OC)c12 (3D coordinates assigned)
CC[NH+](CC)CCOCCNc1c2cc(Cl)ccc2[n+](C)c2cccc(OC)c12 (optimized conformer: 92.7955313970162 kcal/mol)

>  <smiles>  (9) 
CCN(CC)CCOCCNc1c2cc(Cl)ccc2[n+](C)c2cccc(OC)c12

>  <score_type>  (9) 
oracle

>  <origin>  (9) 
adg

>  <m_score__min__energy>  (9) 
-3.5099999999999998

>  <m_primary>  (9) 
energy

$$$$
9:0
     RDKit          3D

 42 43  0  0  0  0  0  0  0  0999 V2000
   63.7690   33.3600   50.5530 C   0  0  0  0  0  0  0  0  0  0  0  0
   64.2280   33.4260   49.0910 C   0  0  0  0  0  0  0  0  0  0  0  0
   63.7950   32.2530   48.2830 N   0  0  0  0  0  0  0  0  0  0  0  0
   63.7590   32.5010   46.8160 C   0  0  0  0  0  0  0  0  0  0  0  0
   63.3930   33.9340   46.4110 C   0  0  0  0  0  0  0  0  0  0  0  0
   62.5510   31.5930   48.7870 C   0  0  0  0  0  0  0  0  0  0  0  0
   61.2970   31.8960   47.9900 C   0  0  0  0  0  0  0  0  0  0  0  0
   60.6400   30.9330   47.2930 N   0  0  0  0  0  0  0  0  0  0  0  0
   59.6130   31.6020   46.7390 C   0  0  0  0  0  0  0  0  0  0  0  0
   59.6470   32.9070   47.0870 C   0  0  0  0  0  0  0  0  0  0  0  0
   58.6670   33.7810   46.6280 C   0  0  0  0  0  0  0  0  0  0  0  0
   58.6930   35.0010   46.9460 O   0  0  0  0  0  0  0  0  0  0  0  0
   57.6760   33.2790   45.8140 N   0  0  0  0  0  0  0  0  0  0  0  0
   56.6450   34.1820   45.2730 C   0  0  0  0  0  0  0  0  0  0  0  0
   57.6880   31.9460   45.4410 C   0  0  0  0  0  0  0  0  0  0  0  0
   56.8140   31.5100   44.6390 O   0  0  0  0  0  0  0  0  0  0  0  0
   58.6480   31.0860   45.9310 N   0  0  0  0  0  0  0  0  0  0  0  0
   58.6820   29.6740   45.5290 C   0  0  0  0  0  0  0  0  0  0  0  0
   60.7160   33.1270   47.8760 N   0  0  0  0  0  0  0  0  0  0  0  0
   61.0980   34.3900   48.5120 C   0  0  0  0  0  0  0  0  0  0  0  0
   64.6378   33.4849   51.2161 H   0  0  0  0  0  0  0  0  0  0  0  0
   63.0422   34.1629   50.7457 H   0  0  0  0  0  0  0  0  0  0  0  0
   63.2979   32.3849   50.7457 H   0  0  0  0  0  0  0  0  0  0  0  0
   63.8115   34.3364   48.6353 H   0  0  0  0  0  0  0  0  0  0  0  0
   65.3280   33.4297   49.0953 H   0  0  0  0  0  0  0  0  0  0  0  0
   64.5500   31.5350   48.4090 H   0  0  0  0  0  0  0  0  0  0  0  0
   64.7546   32.2742   46.4068 H   0  0  0  0  0  0  0  0  0  0  0  0
   62.9647   31.8549   46.4139 H   0  0  0  0  0  0  0  0  0  0  0  0
   63.2377   34.5420   47.3144 H   0  0  0  0  0  0  0  0  0  0  0  0
   64.2096   34.3662   45.8140 H   0  0  0  0  0  0  0  0  0  0  0  0
   62.4692   33.9217   45.8140 H   0  0  0  0  0  0  0  0  0  0  0  0
   62.7113   30.5049   48.7704 H   0  0  0  0  0  0  0  0  0  0  0  0
   62.3779   31.9936   49.7967 H   0  0  0  0  0  0  0  0  0  0  0  0
   56.1020   34.6576   46.1030 H   0  0  0  0  0  0  0  0  0  0  0  0
   57.1234   34.9569   44.6560 H   0  0  0  0  0  0  0  0  0  0  0  0
   55.9399   33.6056   44.6560 H   0  0  0  0  0  0  0  0  0  0  0  0
   58.6973   29.0376   46.4261 H   0  0  0  0  0  0  0  0  0  0  0  0
   57.7892   29.4417   44.9299 H   0  0  0  0  0  0  0  0  0  0  0  0
   59.5850   29.4850   44.9299 H   0  0  0  0  0  0  0  0  0  0  0  0
   61.0633   34.2751   49.6054 H   0  0  0  0  0  0  0  0  0  0  0  0
   62.1185   34.6617   48.2041 H   0  0  0  0  0  0  0  0  0  0  0  0
   60.3991   35.1817   48.2041 H   0  0  0  0  0  0  0  0  0  0  0  0
  1  2  1  0
  2  3  1  0
  3  4  1  0
  4  5  1  0
  3  6  1  0
  6  7  1  0
  7  8  2  0
  8  9  1  0
  9 10  2  0
 10 11  1  0
 11 12  2  0
 11 13  1  0
 13 14  1  0
 13 15  1  0
 15 16  2  0
 15 17  1  0
 17 18  1  0
 10 19  1  0
 19 20  1  0
 19  7  1  0
 17  9  1  0
  1 21  1  0
  1 22  1  0
  1 23  1  0
  2 24  1  0
  2 25  1  0
  3 26  1  0
  4 27  1  0
  4 28  1  0
  5 29  1  0
  5 30  1  0
  5 31  1  0
  6 32  1  0
  6 33  1  0
 14 34  1  0
 14 35  1  0
 14 36  1  0
 18 37  1  0
 18 38  1  0
 18 39  1  0
 20 40  1  0
 20 41  1  0
 20 42  1  0
M  CHG  1   3   1
M  END
>  <UniqueID>  (10) 
10

>  <SMILES>  (10) 
CC[NH+](CC)Cc1nc2c(c(=O)n(C)c(=O)n2C)n1C

>  <Energy>  (10) 
95.39739981637133

>  <Genealogy>  (10) 
CC[NH+](CC)Cc1nc2c(c(=O)n(C)c(=O)n2C)n1C (protonated)
CC[NH+](CC)Cc1nc2c(c(=O)n(C)c(=O)n2C)n1C (3D coordinates assigned)
CC[NH+](CC)Cc1nc2c(c(=O)n(C)c(=O)n2C)n1C (optimized conformer: 95.39739981637133 kcal/mol)

>  <smiles>  (10) 
CCN(CC)Cc1nc2c(c(=O)n(C)c(=O)n2C)n1C

>  <score_type>  (10) 
oracle

>  <origin>  (10) 
adg

>  <m_score__min__energy>  (10) 
-4.2800000000000002

>  <m_primary>  (10) 
energy

$$$$
10:0
     RDKit          3D

 40 40  0  0  0  0  0  0  0  0999 V2000
   60.4150   28.9760   45.1790 C   0  0  0  0  0  0  0  0  0  0  0  0
   60.2130   30.1000   46.0040 O   0  0  0  0  0  0  0  0  0  0  0  0
   59.1440   29.8480   46.8920 C   0  0  0  0  0  0  0  0  0  0  0  0
   58.5260   31.1760   47.3720 C   0  0  0  0  0  0  0  0  0  0  0  0
   58.8950   32.3560   46.5450 N   0  0  0  0  0  0  0  0  0  0  0  0
   59.4670   33.4370   47.3910 C   0  0  0  0  0  0  0  0  0  0  0  0
   60.9260   33.1780   47.6660 C   0  0  0  0  0  0  0  0  0  0  0  0
   61.6660   34.0810   48.4470 C   0  0  0  0  0  0  0  0  0  0  0  0
   63.0210   33.8390   48.6780 C   0  0  0  0  0  0  0  0  0  0  0  0
   63.6290   32.7140   48.1220 C   0  0  0  0  0  0  0  0  0  0  0  0
   62.8710   31.8460   47.3340 C   0  0  0  0  0  0  0  0  0  0  0  0
   61.5500   32.0940   47.1170 N   0  0  0  0  0  0  0  0  0  0  0  0
   57.8330   32.8260   45.5980 C   0  0  1  0  0  0  0  0  0  0  0  0
   58.2240   34.1750   44.9480 C   0  0  0  0  0  0  0  0  0  0  0  0
   57.5830   31.7990   44.4640 C   0  0  0  0  0  0  0  0  0  0  0  0
   56.6150   30.8520   44.8670 O   0  0  0  0  0  0  0  0  0  0  0  0
   56.3490   29.9660   43.8020 C   0  0  0  0  0  0  0  0  0  0  0  0
   60.5750   28.0857   45.8050 H   0  0  0  0  0  0  0  0  0  0  0  0
   59.5299   28.8235   44.5439 H   0  0  0  0  0  0  0  0  0  0  0  0
   61.2978   29.1412   44.5439 H   0  0  0  0  0  0  0  0  0  0  0  0
   58.3748   29.2550   46.3756 H   0  0  0  0  0  0  0  0  0  0  0  0
   59.5240   29.2936   47.7628 H   0  0  0  0  0  0  0  0  0  0  0  0
   57.4310   31.0724   47.3556 H   0  0  0  0  0  0  0  0  0  0  0  0
   58.9223   31.3618   48.3812 H   0  0  0  0  0  0  0  0  0  0  0  0
   59.3627   34.3991   46.8680 H   0  0  0  0  0  0  0  0  0  0  0  0
   58.9246   33.4638   48.3476 H   0  0  0  0  0  0  0  0  0  0  0  0
   61.1814   34.9718   48.8732 H   0  0  0  0  0  0  0  0  0  0  0  0
   63.6077   34.5338   49.2969 H   0  0  0  0  0  0  0  0  0  0  0  0
   64.6952   32.5125   48.3025 H   0  0  0  0  0  0  0  0  0  0  0  0
   63.3427   30.9586   46.8868 H   0  0  0  0  0  0  0  0  0  0  0  0
   61.0130   31.4300   46.5150 H   0  0  0  0  0  0  0  0  0  0  0  0
   56.9159   32.9458   46.1935 H   0  0  0  0  0  0  0  0  0  0  0  0
   58.4379   34.9130   45.7352 H   0  0  0  0  0  0  0  0  0  0  0  0
   59.1186   34.0354   44.3234 H   0  0  0  0  0  0  0  0  0  0  0  0
   57.3934   34.5355   44.3234 H   0  0  0  0  0  0  0  0  0  0  0  0
   57.2237   32.3271   43.5685 H   0  0  0  0  0  0  0  0  0  0  0  0
   58.5245   31.2762   44.2397 H   0  0  0  0  0  0  0  0  0  0  0  0
   56.0547   28.9858   44.2053 H   0  0  0  0  0  0  0  0  0  0  0  0
   55.5322   30.3689   43.1851 H   0  0  0  0  0  0  0  0  0  0  0  0
   57.2526   29.8524   43.1851 H   0  0  0  0  0  0  0  0  0  0  0  0
  1  2  1  0
  2  3  1  0
  3  4  1  0
  4  5  1  0
  5  6  1  0
  6  7  1  0
  7  8  2  0
  8  9  1  0
  9 10  2  0
 10 11  1  0
 11 12  2  0
  5 13  1  0
 13 14  1  0
 13 15  1  0
 15 16  1  0
 16 17  1  0
 12  7  1  0
  1 18  1  0
  1 19  1  0
  1 20  1  0
  3 21  1  0
  3 22  1  0
  4 23  1  0
  4 24  1  0
  6 25  1  0
  6 26  1  0
  8 27  1  0
  9 28  1  0
 10 29  1  0
 11 30  1  0
 12 31  1  0
 13 32  1  1
 14 33  1  0
 14 34  1  0
 14 35  1  0
 15 36  1  0
 15 37  1  0
 17 38  1  0
 17 39  1  0
 17 40  1  0
M  CHG  1  12   1
M  END
>  <UniqueID>  (11) 
11

>  <SMILES>  (11) 
COCCN(Cc1cccc[nH+]1)[C@@H](C)COC

>  <Energy>  (11) 
46.49903716258108

>  <Genealogy>  (11) 
COCCN(Cc1cccc[nH+]1)C(C)COC (protonated)
COCCN(Cc1cccc[nH+]1)[C@@H](C)COC (chirality)
COCCN(Cc1cccc[nH+]1)[C@@H](C)COC (3D coordinates assigned)
COCCN(Cc1cccc[nH+]1)[C@@H](C)COC (optimized conformer: 46.49903716258108 kcal/mol)

>  <smiles>  (11) 
COCCN(Cc1ccccn1)C(C)COC

>  <score_type>  (11) 
oracle

>  <origin>  (11) 
adg

>  <m_score__min__energy>  (11) 
-3.2200000000000002

>  <m_primary>  (11) 
energy

$$$$
11:0
     RDKit          3D

 25 25  0  0  0  0  0  0  0  0999 V2000
   57.5896   29.0690   42.9085 H   0  0  0  0  0  0  0  0  0  0  0  0
   57.1930   29.9010   43.5090 C   0  0  0  0  0  0  0  0  0  0  0  0
   56.0760   29.6470   44.4310 C   0  0  0  0  0  0  0  0  0  0  0  0
   55.1380   30.4870   44.5030 O   0  0  0  0  0  0  0  0  0  0  0  0
   56.0580   28.4920   45.2240 O   0  0  0  0  0  0  0  0  0  0  0  0
   57.1660   27.6000   45.3380 C   0  0  0  0  0  0  0  0  0  0  0  0
   57.7040   27.5685   44.3791 H   0  0  0  0  0  0  0  0  0  0  0  0
   56.7888   26.5999   45.5979 H   0  0  0  0  0  0  0  0  0  0  0  0
   58.1210   28.0620   46.4320 C   0  0  0  0  0  0  0  0  0  0  0  0
   57.6806   27.8489   47.4172 H   0  0  0  0  0  0  0  0  0  0  0  0
   59.0770   27.5268   46.3342 H   0  0  0  0  0  0  0  0  0  0  0  0
   58.2948   29.1438   46.3342 H   0  0  0  0  0  0  0  0  0  0  0  0
   57.7420   31.1170   43.3790 C   0  0  0  0  0  0  0  0  0  0  0  0
   57.8457   31.5338   42.3663 H   0  0  0  0  0  0  0  0  0  0  0  0
   58.2180   31.9330   44.5240 C   0  0  0  0  0  0  0  0  0  0  0  0
   58.8420   31.3660   45.6540 C   0  0  0  0  0  0  0  0  0  0  0  0
   58.9996   30.2785   45.7033 H   0  0  0  0  0  0  0  0  0  0  0  0
   59.2620   32.1780   46.7130 C   0  0  0  0  0  0  0  0  0  0  0  0
   59.7524   31.7277   47.5887 H   0  0  0  0  0  0  0  0  0  0  0  0
   59.0600   33.5600   46.6610 C   0  0  0  0  0  0  0  0  0  0  0  0
   59.5880   34.5750   47.9900 Cl  0  0  0  0  0  0  0  0  0  0  0  0
   58.4300   34.1300   45.5520 C   0  0  0  0  0  0  0  0  0  0  0  0
   58.2673   35.2172   45.5123 H   0  0  0  0  0  0  0  0  0  0  0  0
   58.0060   33.3230   44.4930 C   0  0  0  0  0  0  0  0  0  0  0  0
   57.5022   33.7787   43.6278 H   0  0  0  0  0  0  0  0  0  0  0  0
  1  2  1  0
  2  3  1  0
  3  4  2  0
  3  5  1  0
  5  6  1  0
  6  7  1  0
  6  8  1  0
  6  9  1  0
  9 10  1  0
  9 11  1  0
  9 12  1  0
  2 13  2  0
 13 14  1  0
 13 15  1  0
 15 16  2  0
 16 17  1  0
 16 18  1  0
 18 19  1  0
 18 20  2  0
 20 21  1  0
 20 22  1  0
 22 23  1  0
 22 24  2  0
 24 25  1  0
 24 15  1  0
M  END
>  <UniqueID>  (12) 
12

>  <SMILES>  (12) 
CCOC(=O)/C=C/c1ccc(Cl)cc1

>  <Energy>  (12) 
20.031420411984463

>  <Genealogy>  (12) 
CCOC(=O)/C=C/c1ccc(Cl)cc1 (cis-trans isomerization)
CCOC(=O)/C=C/c1ccc(Cl)cc1 (3D coordinates assigned)
CCOC(=O)/C=C/c1ccc(Cl)cc1 (optimized conformer: 20.031420411984463 kcal/mol)

>  <smiles>  (12) 
CCOC(=O)C=Cc1ccc(Cl)cc1

>  <score_type>  (12) 
oracle

>  <origin>  (12) 
adg

>  <m_score__min__energy>  (12) 
-5.8700000000000001

>  <m_primary>  (12) 
energy

$$$$
12:0
     RDKit          3D

 53 55  0  0  0  0  0  0  0  0999 V2000
   57.1573   32.2806   53.3153 H   0  0  0  0  0  0  0  0  0  0  0  0
   57.6580   32.2980   52.3360 C   0  0  0  0  0  0  0  0  0  0  0  0
   58.4660   33.3790   51.9650 C   0  0  0  0  0  0  0  0  0  0  0  0
   58.5920   34.5860   52.8420 C   0  0  0  0  0  0  0  0  0  0  0  0
   58.5598   34.2774   53.8973 H   0  0  0  0  0  0  0  0  0  0  0  0
   59.5477   35.0904   52.6365 H   0  0  0  0  0  0  0  0  0  0  0  0
   57.7611   35.2769   52.6365 H   0  0  0  0  0  0  0  0  0  0  0  0
   59.1300   33.3470   50.7770 N   0  0  0  0  0  0  0  0  0  0  0  0
   59.0150   32.2910   49.9350 C   0  0  0  0  0  0  0  0  0  0  0  0
   59.7230   32.2650   48.8440 N   0  0  0  0  0  0  0  0  0  0  0  0
   59.4610   33.1090   47.7160 C   0  0  0  0  0  0  0  0  0  0  0  0
   59.8570   34.4520   47.7560 C   0  0  0  0  0  0  0  0  0  0  0  0
   60.3425   34.8522   48.6583 H   0  0  0  0  0  0  0  0  0  0  0  0
   59.6390   35.2860   46.6570 C   0  0  0  0  0  0  0  0  0  0  0  0
   59.9708   36.3342   46.6925 H   0  0  0  0  0  0  0  0  0  0  0  0
   59.0020   34.7980   45.5120 C   0  0  0  0  0  0  0  0  0  0  0  0
   58.8236   35.4646   44.6554 H   0  0  0  0  0  0  0  0  0  0  0  0
   58.5910   33.4600   45.4560 C   0  0  0  0  0  0  0  0  0  0  0  0
   57.9540   32.9620   44.3080 C   0  0  0  0  0  0  0  0  0  0  0  0
   57.7666   33.6273   43.4523 H   0  0  0  0  0  0  0  0  0  0  0  0
   57.5580   31.6250   44.2500 C   0  0  0  0  0  0  0  0  0  0  0  0
   57.0574   31.2404   43.3492 H   0  0  0  0  0  0  0  0  0  0  0  0
   57.7950   30.7730   45.3320 C   0  0  0  0  0  0  0  0  0  0  0  0
   57.4868   29.7185   45.2763 H   0  0  0  0  0  0  0  0  0  0  0  0
   58.4210   31.2540   46.4830 C   0  0  0  0  0  0  0  0  0  0  0  0
   58.6017   30.5779   47.3317 H   0  0  0  0  0  0  0  0  0  0  0  0
   58.8220   32.6010   46.5620 C   0  0  0  0  0  0  0  0  0  0  0  0
   58.1950   31.2540   50.2630 N   0  0  0  0  0  0  0  0  0  0  0  0
   57.5000   31.2330   51.4280 C   0  0  0  0  0  0  0  0  0  0  0  0
   56.6660   30.1340   51.6700 O   0  0  0  0  0  0  0  0  0  0  0  0
   56.0600   29.7950   52.9140 C   0  0  0  0  0  0  0  0  0  0  0  0
   55.0026   29.5498   52.7359 H   0  0  0  0  0  0  0  0  0  0  0  0
   56.1675   30.6603   53.5846 H   0  0  0  0  0  0  0  0  0  0  0  0
   56.7400   28.5880   53.5940 C   0  0  0  0  0  0  0  0  0  0  0  0
   56.1027   27.7014   53.4604 H   0  0  0  0  0  0  0  0  0  0  0  0
   56.8715   28.8316   54.6586 H   0  0  0  0  0  0  0  0  0  0  0  0
   58.0210   28.3150   53.0500 O   0  0  0  0  0  0  0  0  0  0  0  0
   59.0620   28.9880   53.7470 C   0  0  0  0  0  0  0  0  0  0  0  0
   59.4769   28.3041   54.5021 H   0  0  0  0  0  0  0  0  0  0  0  0
   58.6231   29.8877   54.2031 H   0  0  0  0  0  0  0  0  0  0  0  0
   60.2060   29.4520   52.8240 C   0  0  0  0  0  0  0  0  0  0  0  0
   61.0190   28.7131   52.8800 H   0  0  0  0  0  0  0  0  0  0  0  0
   60.5186   30.4468   53.1742 H   0  0  0  0  0  0  0  0  0  0  0  0
   59.8050   29.5980   51.4100 N   0  0  0  0  0  0  0  0  0  0  0  0
   60.0390   30.5540   51.0530 H   0  0  0  0  0  0  0  0  0  0  0  0
   58.7630   29.4730   51.3680 H   0  0  0  0  0  0  0  0  0  0  0  0
   60.4330   28.5770   50.5530 C   0  0  0  0  0  0  0  0  0  0  0  0
   60.1308   27.5795   50.9047 H   0  0  0  0  0  0  0  0  0  0  0  0
   61.5246   28.6982   50.6135 H   0  0  0  0  0  0  0  0  0  0  0  0
   60.0120   28.7380   49.0950 C   0  0  0  0  0  0  0  0  0  0  0  0
   58.9854   29.1306   49.0510 H   0  0  0  0  0  0  0  0  0  0  0  0
   60.6944   29.4386   48.5915 H   0  0  0  0  0  0  0  0  0  0  0  0
   60.0528   27.7608   48.5915 H   0  0  0  0  0  0  0  0  0  0  0  0
  1  2  1  0
  2  3  1  0
  3  4  1  0
  4  5  1  0
  4  6  1  0
  4  7  1  0
  3  8  2  0
  8  9  1  0
  9 10  2  0
 10 11  1  0
 11 12  2  0
 12 13  1  0
 12 14  1  0
 14 15  1  0
 14 16  2  0
 16 17  1  0
 16 18  1  0
 18 19  2  0
 19 20  1  0
 19 21  1  0
 21 22  1  0
 21 23  2  0
 23 24  1  0
 23 25  1  0
 25 26  1  0
 25 27  2  0
  9 28  1  0
 28 29  1  0
 29 30  1  0
 30 31  1  0
 31 32  1  0
 31 33  1  0
 31 34  1  0
 34 35  1  0
 34 36  1  0
 34 37  1  0
 37 38  1  0
 38 39  1  0
 38 40  1  0
 38 41  1  0
 41 42  1  0
 41 43  1  0
 41 44  1  0
 44 45  1  0
 44 46  1  0
 44 47  1  0
 47 48  1  0
 47 49  1  0
 47 50  1  0
 50 51  1  0
 50 52  1  0
 50 53  1  0
 29  2  2  0
 27 11  1  0
 27 18  1  0
M  CHG  2  28  -1  44   1
M  END
>  <UniqueID>  (13) 
13

>  <SMILES>  (13) 
CC[NH2+]CCOCCOc1cc(C)n/c(=N/c2cccc3ccccc23)[n-]1

>  <Energy>  (13) 
71.04059898618814

>  <Genealogy>  (13) 
CC[NH2+]CCOCCOc1cc(C)nc(=Nc2cccc3ccccc23)[n-]1 (protonated)
CC[NH2+]CCOCCOc1cc(C)n/c(=N/c2cccc3ccccc23)[n-]1 (cis-trans isomerization)
CC[NH2+]CCOCCOc1cc(C)n/c(=N/c2cccc3ccccc23)[n-]1 (3D coordinates assigned)
CC[NH2+]CCOCCOc1cc(C)n/c(=N/c2cccc3ccccc23)[n-]1 (optimized conformer: 71.04059898618814 kcal/mol)

>  <smiles>  (13) 
CCNCCOCCOc1cc(C)nc(=Nc2cccc3ccccc23)[nH]1

>  <score_type>  (13) 
oracle

>  <origin>  (13) 
adg

>  <m_score__min__energy>  (13) 
-7.0599999999999996

>  <m_primary>  (13) 
energy

$$$$
13:0
     RDKit          3D

 36 38  0  0  0  0  0  0  0  0999 V2000
   59.9940   34.0800   49.2770 C   0  0  0  0  0  0  0  0  0  0  0  0
   61.0300   33.8810   48.2670 N   0  0  0  0  0  0  0  0  0  0  0  0
   62.3560   33.8360   48.5020 C   0  0  0  0  0  0  0  0  0  0  0  0
   63.0100   33.7880   47.2900 C   0  0  0  0  0  0  0  0  0  0  0  0
   62.0960   33.8170   46.3030 N   0  0  0  0  0  0  0  0  0  0  0  0
   60.8970   33.8720   46.9190 C   0  0  0  0  0  0  0  0  0  0  0  0
   59.5750   33.9600   46.1820 C   0  0  0  0  0  0  0  0  0  0  0  0
   58.6910   32.7840   46.3630 N   0  0  0  0  0  0  0  0  0  0  0  0
   59.3970   31.5080   46.6180 C   0  0  0  0  0  0  0  0  0  0  0  0
   58.6500   30.4460   45.8290 C   0  0  2  0  0  0  0  0  0  0  0  0
   59.4640   29.3380   45.4740 O   0  0  0  0  0  0  0  0  0  0  0  0
   58.9370   28.5530   44.3970 C   0  0  0  0  0  0  0  0  0  0  0  0
   57.4010   28.5900   44.1910 C   0  0  0  0  0  0  0  0  0  0  0  0
   56.8690   30.2670   43.8720 S   0  0  0  0  0  0  0  0  0  0  0  0
   56.8150   30.5410   42.3960 O   0  0  0  0  0  0  0  0  0  0  0  0
   55.5260   30.5200   44.4970 O   0  0  0  0  0  0  0  0  0  0  0  0
   58.1500   31.2280   44.6380 C   0  0  1  0  0  0  0  0  0  0  0  0
   57.7490   32.5550   45.2510 C   0  0  0  0  0  0  0  0  0  0  0  0
   60.4382   33.9947   50.2797 H   0  0  0  0  0  0  0  0  0  0  0  0
   59.5512   35.0796   49.1560 H   0  0  0  0  0  0  0  0  0  0  0  0
   59.2123   33.3156   49.1560 H   0  0  0  0  0  0  0  0  0  0  0  0
   62.8348   33.8373   49.4923 H   0  0  0  0  0  0  0  0  0  0  0  0
   64.1000   33.7347   47.1521 H   0  0  0  0  0  0  0  0  0  0  0  0
   62.2960   33.8390   45.2800 H   0  0  0  0  0  0  0  0  0  0  0  0
   59.0396   34.8509   46.5419 H   0  0  0  0  0  0  0  0  0  0  0  0
   59.8170   34.0075   45.1100 H   0  0  0  0  0  0  0  0  0  0  0  0
   60.4403   31.5743   46.2756 H   0  0  0  0  0  0  0  0  0  0  0  0
   59.4186   31.2691   47.6915 H   0  0  0  0  0  0  0  0  0  0  0  0
   57.8424   29.9655   46.4007 H   0  0  0  0  0  0  0  0  0  0  0  0
   59.4060   28.9067   43.4670 H   0  0  0  0  0  0  0  0  0  0  0  0
   59.1667   27.5103   44.6618 H   0  0  0  0  0  0  0  0  0  0  0  0
   57.1325   27.9533   43.3351 H   0  0  0  0  0  0  0  0  0  0  0  0
   56.9050   28.2199   45.1004 H   0  0  0  0  0  0  0  0  0  0  0  0
   58.8555   31.4259   43.8176 H   0  0  0  0  0  0  0  0  0  0  0  0
   57.8310   33.3612   44.5071 H   0  0  0  0  0  0  0  0  0  0  0  0
   56.7059   32.5415   45.5998 H   0  0  0  0  0  0  0  0  0  0  0  0
  1  2  1  0
  2  3  1  0
  3  4  2  0
  4  5  1  0
  5  6  2  0
  6  7  1  0
  7  8  1  0
  8  9  1  0
  9 10  1  0
 10 11  1  0
 11 12  1  0
 12 13  1  0
 13 14  1  0
 14 15  2  0
 14 16  2  0
 14 17  1  0
 17 18  1  0
  6  2  1  0
 18  8  1  0
 17 10  1  0
  1 19  1  0
  1 20  1  0
  1 21  1  0
  3 22  1  0
  4 23  1  0
  5 24  1  0
  7 25  1  0
  7 26  1  0
  9 27  1  0
  9 28  1  0
 10 29  1  1
 12 30  1  0
 12 31  1  0
 13 32  1  0
 13 33  1  0
 17 34  1  6
 18 35  1  0
 18 36  1  0
M  CHG  1   5   1
M  END
>  <UniqueID>  (14) 
14

>  <SMILES>  (14) 
Cn1cc[nH+]c1CN1C[C@@H]2OCCS(=O)(=O)[C@H]2C1

>  <Energy>  (14) 
83.90665539018354

>  <Genealogy>  (14) 
Cn1cc[nH+]c1CN1CC2OCCS(=O)(=O)C2C1 (protonated)
Cn1cc[nH+]c1CN1C[C@@H]2OCCS(=O)(=O)[C@H]2C1 (chirality)
Cn1cc[nH+]c1CN1C[C@@H]2OCCS(=O)(=O)[C@H]2C1 (3D coordinates assigned)
Cn1cc[nH+]c1CN1C[C@@H]2OCCS(=O)(=O)[C@H]2C1 (nonaromatic ring conformer: 83.90665539018354 kcal/mol)

>  <smiles>  (14) 
Cn1ccnc1CN1CC2OCCS(=O)(=O)C2C1

>  <score_type>  (14) 
oracle

>  <origin>  (14) 
adg

>  <m_score__min__energy>  (14) 
-5.2400000000000002

>  <m_primary>  (14) 
energy

$$$$
14:0
     RDKit          3D

 40 40  0  0  0  0  0  0  0  0999 V2000
   56.9960   22.2930   43.7410 C   0  0  0  0  0  0  0  0  0  0  0  0
   55.6300   22.3660   43.3980 O   0  0  0  0  0  0  0  0  0  0  0  0
   55.1490   23.6670   43.6660 C   0  0  0  0  0  0  0  0  0  0  0  0
   55.2330   23.9480   45.1670 C   0  0  0  0  0  0  0  0  0  0  0  0
   54.1710   24.9530   45.6170 C   0  0  0  0  0  0  0  0  0  0  0  0
   54.8070   26.2270   45.9290 N   0  0  0  0  0  0  0  0  0  0  0  0
   56.1460   26.3620   46.4170 C   0  0  0  0  0  0  0  0  0  0  0  0
   56.5900   25.5070   47.2270 O   0  0  0  0  0  0  0  0  0  0  0  0
   57.0380   27.4890   45.9760 C   0  0  0  0  0  0  0  0  0  0  0  0
   56.4420   28.2090   44.9000 O   0  0  0  0  0  0  0  0  0  0  0  0
   56.5500   29.5950   44.7490 C   0  0  0  0  0  0  0  0  0  0  0  0
   55.5380   30.3380   44.8670 O   0  0  0  0  0  0  0  0  0  0  0  0
   57.8820   30.1970   44.4200 C   0  0  0  0  0  0  0  0  0  0  0  0
   57.7390   31.6300   43.8920 C   0  0  0  0  0  0  0  0  0  0  0  0
   58.1830   32.6490   44.9110 C   0  0  0  0  0  0  0  0  0  0  0  0
   57.8550   32.4850   46.2660 C   0  0  0  0  0  0  0  0  0  0  0  0
   58.2420   33.4450   47.2070 C   0  0  0  0  0  0  0  0  0  0  0  0
   58.9530   34.5780   46.7990 C   0  0  0  0  0  0  0  0  0  0  0  0
   59.2720   34.7550   45.4500 C   0  0  0  0  0  0  0  0  0  0  0  0
   58.8870   33.7960   44.5070 C   0  0  0  0  0  0  0  0  0  0  0  0
   57.0993   22.2875   44.8361 H   0  0  0  0  0  0  0  0  0  0  0  0
   57.4292   21.3704   43.3272 H   0  0  0  0  0  0  0  0  0  0  0  0
   57.5250   23.1642   43.3272 H   0  0  0  0  0  0  0  0  0  0  0  0
   55.7598   24.4021   43.1215 H   0  0  0  0  0  0  0  0  0  0  0  0
   54.1015   23.7429   43.3390 H   0  0  0  0  0  0  0  0  0  0  0  0
   55.0859   23.0054   45.7145 H   0  0  0  0  0  0  0  0  0  0  0  0
   56.2228   24.3782   45.3795 H   0  0  0  0  0  0  0  0  0  0  0  0
   53.4378   25.0974   44.8098 H   0  0  0  0  0  0  0  0  0  0  0  0
   53.6604   24.5696   46.5127 H   0  0  0  0  0  0  0  0  0  0  0  0
   57.2014   28.1729   46.8219 H   0  0  0  0  0  0  0  0  0  0  0  0
   57.9961   27.0701   45.6347 H   0  0  0  0  0  0  0  0  0  0  0  0
   58.5015   30.2116   45.3289 H   0  0  0  0  0  0  0  0  0  0  0  0
   58.3511   29.5861   43.6346 H   0  0  0  0  0  0  0  0  0  0  0  0
   58.3551   31.7393   42.9873 H   0  0  0  0  0  0  0  0  0  0  0  0
   56.6764   31.8084   43.6705 H   0  0  0  0  0  0  0  0  0  0  0  0
   57.2911   31.5976   46.5893 H   0  0  0  0  0  0  0  0  0  0  0  0
   57.9870   33.3086   48.2683 H   0  0  0  0  0  0  0  0  0  0  0  0
   59.2613   35.3301   47.5402 H   0  0  0  0  0  0  0  0  0  0  0  0
   59.8264   35.6493   45.1293 H   0  0  0  0  0  0  0  0  0  0  0  0
   59.1363   33.9404   43.4454 H   0  0  0  0  0  0  0  0  0  0  0  0
  1  2  1  0
  2  3  1  0
  3  4  1  0
  4  5  1  0
  5  6  1  0
  6  7  1  0
  7  8  2  0
  7  9  1  0
  9 10  1  0
 10 11  1  0
 11 12  2  0
 11 13  1  0
 13 14  1  0
 14 15  1  0
 15 16  2  0
 16 17  1  0
 17 18  2  0
 18 19  1  0
 19 20  2  0
 20 15  1  0
  1 21  1  0
  1 22  1  0
  1 23  1  0
  3 24  1  0
  3 25  1  0
  4 26  1  0
  4 27  1  0
  5 28  1  0
  5 29  1  0
  9 30  1  0
  9 31  1  0
 13 32  1  0
 13 33  1  0
 14 34  1  0
 14 35  1  0
 16 36  1  0
 17 37  1  0
 18 38  1  0
 19 39  1  0
 20 40  1  0
M  CHG  1   6  -1
M  END
>  <UniqueID>  (15) 
15

>  <SMILES>  (15) 
COCCC[N-]C(=O)COC(=O)CCc1ccccc1

>  <Energy>  (15) 
25.284493345179733

>  <Genealogy>  (15) 
COCCC[N-]C(=O)COC(=O)CCc1ccccc1 (protonated)
COCCC[N-]C(=O)COC(=O)CCc1ccccc1 (3D coordinates assigned)
COCCC[N-]C(=O)COC(=O)CCc1ccccc1 (optimized conformer: 25.284493345179733 kcal/mol)

>  <smiles>  (15) 
COCCCNC(=O)COC(=O)CCc1ccccc1

>  <score_type>  (15) 
oracle

>  <origin>  (15) 
adg

>  <m_score__min__energy>  (15) 
-9.5700000000000003

>  <m_primary>  (15) 
energy

$$$$
15:0
     RDKit          3D

 45 48  0  0  0  0  0  0  0  0999 V2000
   63.5420   33.4450   47.6100 C   0  0  0  0  0  0  0  0  0  0  0  0
   62.6080   32.7810   48.5120 N   0  0  0  0  0  0  0  0  0  0  0  0
   62.7080   32.6640   49.8600 C   0  0  0  0  0  0  0  0  0  0  0  0
   61.5930   32.1210   50.4160 N   0  0  0  0  0  0  0  0  0  0  0  0
   60.7740   31.9060   49.3700 C   0  0  0  0  0  0  0  0  0  0  0  0
   59.4580   31.4550   49.3340 C   0  0  0  0  0  0  0  0  0  0  0  0
   58.7650   31.0230   50.5150 N   0  0  0  0  0  0  0  0  0  0  0  0
   57.8670   31.9450   51.2220 C   0  0  0  0  0  0  0  0  0  0  0  0
   56.7410   31.1740   51.9510 C   0  0  0  0  0  0  0  0  0  0  0  0
   56.9290   29.7680   51.9750 O   0  0  0  0  0  0  0  0  0  0  0  0
   58.2570   29.4580   52.3410 C   0  0  0  0  0  0  0  0  0  0  0  0
   59.1930   29.7870   51.1770 C   0  0  0  0  0  0  0  0  0  0  0  0
   58.8250   31.4680   48.1230 N   0  0  0  0  0  0  0  0  0  0  0  0
   59.4510   31.8940   46.9760 C   0  0  0  0  0  0  0  0  0  0  0  0
   58.7220   31.8890   45.6840 C   0  0  0  0  0  0  0  0  0  0  0  0
   58.8240   32.9820   44.8010 C   0  0  0  0  0  0  0  0  0  0  0  0
   58.1300   32.9800   43.5890 C   0  0  0  0  0  0  0  0  0  0  0  0
   57.3320   31.8910   43.2370 C   0  0  0  0  0  0  0  0  0  0  0  0
   57.2290   30.7860   44.0940 C   0  0  0  0  0  0  0  0  0  0  0  0
   56.3400   29.6270   43.7320 C   0  0  0  0  0  0  0  0  0  0  0  0
   55.3240   29.4390   44.7620 N   0  0  0  0  0  0  0  0  0  0  0  0
   57.9130   30.7950   45.3200 C   0  0  0  0  0  0  0  0  0  0  0  0
   60.7480   32.3340   47.0340 N   0  0  0  0  0  0  0  0  0  0  0  0
   61.3800   32.3190   48.2310 C   0  0  0  0  0  0  0  0  0  0  0  0
   64.2996   33.9836   48.1982 H   0  0  0  0  0  0  0  0  0  0  0  0
   64.0358   32.6941   46.9758 H   0  0  0  0  0  0  0  0  0  0  0  0
   62.9950   34.1581   46.9758 H   0  0  0  0  0  0  0  0  0  0  0  0
   63.5915   32.9736   50.4375 H   0  0  0  0  0  0  0  0  0  0  0  0
   61.4020   31.9720   51.4310 H   0  0  0  0  0  0  0  0  0  0  0  0
   58.4478   32.5168   51.9607 H   0  0  0  0  0  0  0  0  0  0  0  0
   57.4082   32.6207   50.4851 H   0  0  0  0  0  0  0  0  0  0  0  0
   56.6905   31.5344   52.9891 H   0  0  0  0  0  0  0  0  0  0  0  0
   55.8121   31.3623   51.3927 H   0  0  0  0  0  0  0  0  0  0  0  0
   58.5434   30.0516   53.2217 H   0  0  0  0  0  0  0  0  0  0  0  0
   58.3320   28.3874   52.5824 H   0  0  0  0  0  0  0  0  0  0  0  0
   60.2164   29.9155   51.5592 H   0  0  0  0  0  0  0  0  0  0  0  0
   59.1637   28.9623   50.4496 H   0  0  0  0  0  0  0  0  0  0  0  0
   59.4546   33.8429   45.0680 H   0  0  0  0  0  0  0  0  0  0  0  0
   58.2129   33.8407   42.9090 H   0  0  0  0  0  0  0  0  0  0  0  0
   56.7820   31.8993   42.2844 H   0  0  0  0  0  0  0  0  0  0  0  0
   55.8494   29.8308   42.7688 H   0  0  0  0  0  0  0  0  0  0  0  0
   56.9491   28.7144   43.6537 H   0  0  0  0  0  0  0  0  0  0  0  0
   54.6610   30.2480   44.7180 H   0  0  0  0  0  0  0  0  0  0  0  0
   54.7710   28.5890   44.5100 H   0  0  0  0  0  0  0  0  0  0  0  0
   57.8161   29.9386   46.0035 H   0  0  0  0  0  0  0  0  0  0  0  0
  1  2  1  0
  2  3  1  0
  3  4  2  0
  4  5  1  0
  5  6  2  0
  6  7  1  0
  7  8  1  0
  8  9  1  0
  9 10  1  0
 10 11  1  0
 11 12  1  0
  6 13  1  0
 13 14  2  0
 14 15  1  0
 15 16  2  0
 16 17  1  0
 17 18  2  0
 18 19  1  0
 19 20  1  0
 20 21  1  0
 19 22  2  0
 14 23  1  0
 23 24  2  0
 24  2  1  0
 24  5  1  0
 12  7  1  0
 22 15  1  0
  1 25  1  0
  1 26  1  0
  1 27  1  0
  3 28  1  0
  4 29  1  0
  8 30  1  0
  8 31  1  0
  9 32  1  0
  9 33  1  0
 11 34  1  0
 11 35  1  0
 12 36  1  0
 12 37  1  0
 16 38  1  0
 17 39  1  0
 18 40  1  0
 20 41  1  0
 20 42  1  0
 21 43  1  0
 21 44  1  0
 22 45  1  0
M  CHG  1   4   1
M  END
>  <UniqueID>  (16) 
16

>  <SMILES>  (16) 
Cn1c[nH+]c2c(N3CCOCC3)nc(-c3cccc(CN)c3)nc21

>  <Energy>  (16) 
98.6538518229268

>  <Genealogy>  (16) 
Cn1c[nH+]c2c(N3CCOCC3)nc(-c3cccc(CN)c3)nc21 (protonated)
Cn1c[nH+]c2c(N3CCOCC3)nc(-c3cccc(CN)c3)nc21 (3D coordinates assigned)
Cn1c[nH+]c2c(N3CCOCC3)nc(-c3cccc(CN)c3)nc21 (nonaromatic ring conformer: 98.6538518229268 kcal/mol)

>  <smiles>  (16) 
Cn1cnc2c(N3CCOCC3)nc(-c3cccc(CN)c3)nc21

>  <score_type>  (16) 
oracle

>  <origin>  (16) 
adg

>  <m_score__min__energy>  (16) 
-6.7199999999999998

>  <m_primary>  (16) 
energy

$$$$
16:0
     RDKit          3D

 61 64  0  0  0  0  0  0  0  0999 V2000
   63.4030   34.5890   50.9310 C   0  0  0  0  0  0  0  0  0  0  0  0
   62.8120   33.1840   50.9820 C   0  0  0  0  0  0  0  0  0  0  0  0
   61.7310   33.0380   49.9960 N   0  0  0  0  0  0  0  0  0  0  0  0
   61.8890   33.5880   48.6390 C   0  0  0  0  0  0  0  0  0  0  0  0
   63.0860   32.9480   47.9240 C   0  0  0  0  0  0  0  0  0  0  0  0
   62.9460   31.5410   47.8380 O   0  0  0  0  0  0  0  0  0  0  0  0
   61.7830   31.1770   47.1200 C   0  0  0  0  0  0  0  0  0  0  0  0
   61.0310   30.0740   47.8630 C   0  0  0  0  0  0  0  0  0  0  0  0
   59.5910   30.3040   47.7780 N   0  0  0  0  0  0  0  0  0  0  0  0
   58.9430   30.6000   46.5320 C   0  0  0  0  0  0  0  0  0  0  0  0
   58.7040   31.9260   46.1180 C   0  0  0  0  0  0  0  0  0  0  0  0
   59.0100   33.0100   46.9660 C   0  0  0  0  0  0  0  0  0  0  0  0
   58.7290   34.3160   46.5780 C   0  0  0  0  0  0  0  0  0  0  0  0
   58.1260   34.5670   45.3490 C   0  0  0  0  0  0  0  0  0  0  0  0
   57.8100   33.5140   44.4900 C   0  0  0  0  0  0  0  0  0  0  0  0
   58.1060   32.1730   44.8380 C   0  0  0  0  0  0  0  0  0  0  0  0
   57.8150   31.1170   43.9830 N   0  0  0  0  0  0  0  0  0  0  0  0
   57.3350   31.3670   42.6090 C   0  0  0  0  0  0  0  0  0  0  0  0
   57.9790   29.8280   44.4400 C   0  0  0  0  0  0  0  0  0  0  0  0
   57.6290   28.6420   43.7570 C   0  0  0  0  0  0  0  0  0  0  0  0
   57.9570   27.4870   44.4600 C   0  0  0  0  0  0  0  0  0  0  0  0
   58.6600   27.9170   45.9280 S   0  0  0  0  0  0  0  0  0  0  0  0
   58.5430   29.5760   45.6810 C   0  0  0  0  0  0  0  0  0  0  0  0
   60.5230   32.3350   50.3540 C   0  0  0  0  0  0  0  0  0  0  0  0
   59.2700   32.9470   50.1900 C   0  0  0  0  0  0  0  0  0  0  0  0
   58.0980   32.2660   50.5350 C   0  0  0  0  0  0  0  0  0  0  0  0
   58.1630   30.9580   51.0490 C   0  0  0  0  0  0  0  0  0  0  0  0
   57.0170   30.2350   51.4170 O   0  0  0  0  0  0  0  0  0  0  0  0
   55.9550   30.7580   52.2110 C   0  0  0  0  0  0  0  0  0  0  0  0
   59.4130   30.3500   51.2130 C   0  0  0  0  0  0  0  0  0  0  0  0
   60.5830   31.0310   50.8700 C   0  0  0  0  0  0  0  0  0  0  0  0
   63.5585   34.9588   51.9553 H   0  0  0  0  0  0  0  0  0  0  0  0
   64.3663   34.5626   50.4005 H   0  0  0  0  0  0  0  0  0  0  0  0
   62.7105   35.2591   50.4005 H   0  0  0  0  0  0  0  0  0  0  0  0
   63.6027   32.4516   50.7619 H   0  0  0  0  0  0  0  0  0  0  0  0
   62.3995   33.0104   51.9869 H   0  0  0  0  0  0  0  0  0  0  0  0
   60.9750   33.3876   48.0607 H   0  0  0  0  0  0  0  0  0  0  0  0
   62.0649   34.6710   48.7174 H   0  0  0  0  0  0  0  0  0  0  0  0
   63.1594   33.3629   46.9079 H   0  0  0  0  0  0  0  0  0  0  0  0
   63.9942   33.1703   48.5035 H   0  0  0  0  0  0  0  0  0  0  0  0
   61.1299   32.0559   47.0156 H   0  0  0  0  0  0  0  0  0  0  0  0
   62.0746   30.8072   46.1259 H   0  0  0  0  0  0  0  0  0  0  0  0
   61.2715   29.1009   47.4101 H   0  0  0  0  0  0  0  0  0  0  0  0
   61.3350   30.0798   48.9201 H   0  0  0  0  0  0  0  0  0  0  0  0
   58.9980   30.0670   48.6040 H   0  0  0  0  0  0  0  0  0  0  0  0
   59.4757   32.8211   47.9445 H   0  0  0  0  0  0  0  0  0  0  0  0
   58.9842   35.1530   47.2446 H   0  0  0  0  0  0  0  0  0  0  0  0
   57.8972   35.6015   45.0532 H   0  0  0  0  0  0  0  0  0  0  0  0
   57.3233   33.7284   43.5271 H   0  0  0  0  0  0  0  0  0  0  0  0
   56.3600   31.8748   42.6479 H   0  0  0  0  0  0  0  0  0  0  0  0
   58.0586   32.0028   42.0778 H   0  0  0  0  0  0  0  0  0  0  0  0
   57.2288   30.4096   42.0778 H   0  0  0  0  0  0  0  0  0  0  0  0
   57.1458   28.6326   42.7689 H   0  0  0  0  0  0  0  0  0  0  0  0
   57.7846   26.4577   44.1123 H   0  0  0  0  0  0  0  0  0  0  0  0
   59.2097   33.9689   49.7875 H   0  0  0  0  0  0  0  0  0  0  0  0
   57.1215   32.7551   50.4039 H   0  0  0  0  0  0  0  0  0  0  0  0
   56.2001   30.6373   53.2765 H   0  0  0  0  0  0  0  0  0  0  0  0
   55.8195   31.8259   51.9846 H   0  0  0  0  0  0  0  0  0  0  0  0
   55.0259   30.2144   51.9846 H   0  0  0  0  0  0  0  0  0  0  0  0
   59.4743   29.3280   51.6151 H   0  0  0  0  0  0  0  0  0  0  0  0
   61.5589   30.5418   51.0052 H   0  0  0  0  0  0  0  0  0  0  0  0
  1  2  1  0
  2  3  1  0
  3  4  1  0
  4  5  1  0
  5  6  1  0
  6  7  1  0
  7  8  1  0
  8  9  1  0
  9 10  1  0
 10 11  1  0
 11 12  2  0
 12 13  1  0
 13 14  2  0
 14 15  1  0
 15 16  2  0
 16 17  1  0
 17 18  1  0
 17 19  2  0
 19 20  1  0
 20 21  2  0
 21 22  1  0
 22 23  1  0
  3 24  1  0
 24 25  2  0
 25 26  1  0
 26 27  2  0
 27 28  1  0
 28 29  1  0
 27 30  1  0
 30 31  2  0
 23 10  2  0
 31 24  1  0
 16 11  1  0
 23 19  1  0
  1 32  1  0
  1 33  1  0
  1 34  1  0
  2 35  1  0
  2 36  1  0
  4 37  1  0
  4 38  1  0
  5 39  1  0
  5 40  1  0
  7 41  1  0
  7 42  1  0
  8 43  1  0
  8 44  1  0
  9 45  1  0
 12 46  1  0
 13 47  1  0
 14 48  1  0
 15 49  1  0
 18 50  1  0
 18 51  1  0
 18 52  1  0
 20 53  1  0
 21 54  1  0
 25 55  1  0
 26 56  1  0
 29 57  1  0
 29 58  1  0
 29 59  1  0
 30 60  1  0
 31 61  1  0
M  CHG  1  17   1
M  END
>  <UniqueID>  (17) 
17

>  <SMILES>  (17) 
CCN(CCOCCNc1c2ccccc2[n+](C)c2ccsc12)c1ccc(OC)cc1

>  <Energy>  (17) 
110.69253036153368

>  <Genealogy>  (17) 
CCN(CCOCCNc1c2ccccc2[n+](C)c2ccsc12)c1ccc(OC)cc1 (3D coordinates assigned)
CCN(CCOCCNc1c2ccccc2[n+](C)c2ccsc12)c1ccc(OC)cc1 (optimized conformer: 110.69253036153368 kcal/mol)

>  <smiles>  (17) 
CCN(CCOCCNc1c2ccccc2[n+](C)c2ccsc12)c1ccc(OC)cc1

>  <score_type>  (17) 
oracle

>  <origin>  (17) 
adg

>  <m_score__min__energy>  (17) 
-6.6900000000000004

>  <m_primary>  (17) 
energy

$$$$
17:0
     RDKit          3D

 60 62  0  0  0  0  0  0  0  0999 V2000
   60.7280   28.9670   44.9690 C   0  0  0  0  0  0  0  0  0  0  0  0
   60.2750   29.9800   46.0210 C   0  0  0  0  0  0  0  0  0  0  0  0
   58.8200   29.8890   46.2860 N   0  0  0  0  0  0  0  0  0  0  0  0
   58.5410   29.2080   47.5790 C   0  0  0  0  0  0  0  0  0  0  0  0
   59.8490   28.9120   48.3030 C   0  0  0  0  0  0  0  0  0  0  0  0
   58.1470   29.2010   45.1580 C   0  0  0  0  0  0  0  0  0  0  0  0
   57.2560   30.1630   44.3480 C   0  0  0  0  0  0  0  0  0  0  0  0
   57.7560   31.6130   44.3950 C   0  0  0  0  0  0  0  0  0  0  0  0
   56.9930   32.3930   45.3760 N   0  0  0  0  0  0  0  0  0  0  0  0
   57.5310   33.7550   45.5240 C   0  0  0  0  0  0  0  0  0  0  0  0
   58.2660   33.9020   46.8670 C   0  0  0  0  0  0  0  0  0  0  0  0
   58.7270   32.6080   47.3700 N   0  0  0  0  0  0  0  0  0  0  0  0
   59.7940   32.5020   48.3330 C   0  0  0  0  0  0  0  0  0  0  0  0
   61.1070   32.8700   47.9830 C   0  0  0  0  0  0  0  0  0  0  0  0
   61.3930   33.4460   46.7260 C   0  0  0  0  0  0  0  0  0  0  0  0
   62.6900   33.8290   46.3970 C   0  0  0  0  0  0  0  0  0  0  0  0
   63.7220   33.6540   47.3120 C   0  0  0  0  0  0  0  0  0  0  0  0
   63.4680   33.0660   48.5500 C   0  0  0  0  0  0  0  0  0  0  0  0
   62.1660   32.6250   48.8980 C   0  0  0  0  0  0  0  0  0  0  0  0
   61.9160   31.9740   50.0900 N   0  0  0  0  0  0  0  0  0  0  0  0
   63.0370   31.4290   50.8870 C   0  0  0  0  0  0  0  0  0  0  0  0
   60.6140   31.8100   50.5270 C   0  0  0  0  0  0  0  0  0  0  0  0
   60.3190   31.4060   51.8530 C   0  0  0  0  0  0  0  0  0  0  0  0
   59.0030   31.2180   52.2720 C   0  0  0  0  0  0  0  0  0  0  0  0
   57.9490   31.4520   51.3960 C   0  0  0  0  0  0  0  0  0  0  0  0
   56.2940   31.2280   51.9360 Cl  0  0  0  0  0  0  0  0  0  0  0  0
   58.2060   31.8850   50.0980 C   0  0  0  0  0  0  0  0  0  0  0  0
   59.5310   32.0600   49.6420 C   0  0  0  0  0  0  0  0  0  0  0  0
   61.1279   28.0727   45.4694 H   0  0  0  0  0  0  0  0  0  0  0  0
   59.8711   28.6831   44.3404 H   0  0  0  0  0  0  0  0  0  0  0  0
   61.5109   29.4164   44.3404 H   0  0  0  0  0  0  0  0  0  0  0  0
   60.8196   29.7879   46.9572 H   0  0  0  0  0  0  0  0  0  0  0  0
   60.4889   30.9884   45.6372 H   0  0  0  0  0  0  0  0  0  0  0  0
   57.9161   29.8599   48.2070 H   0  0  0  0  0  0  0  0  0  0  0  0
   58.0136   28.2627   47.3837 H   0  0  0  0  0  0  0  0  0  0  0  0
   59.6832   28.9495   49.3898 H   0  0  0  0  0  0  0  0  0  0  0  0
   60.2057   27.9104   48.0209 H   0  0  0  0  0  0  0  0  0  0  0  0
   60.6022   29.6624   48.0209 H   0  0  0  0  0  0  0  0  0  0  0  0
   58.9130   28.7788   44.4909 H   0  0  0  0  0  0  0  0  0  0  0  0
   57.5051   28.4108   45.5746 H   0  0  0  0  0  0  0  0  0  0  0  0
   57.2402   29.8298   43.2998 H   0  0  0  0  0  0  0  0  0  0  0  0
   56.2516   30.1428   44.7960 H   0  0  0  0  0  0  0  0  0  0  0  0
   58.8193   31.6194   44.6768 H   0  0  0  0  0  0  0  0  0  0  0  0
   57.6218   32.0658   43.4015 H   0  0  0  0  0  0  0  0  0  0  0  0
   56.0120   32.4700   45.0200 H   0  0  0  0  0  0  0  0  0  0  0  0
   58.2342   33.9575   44.7027 H   0  0  0  0  0  0  0  0  0  0  0  0
   56.6969   34.4716   45.4951 H   0  0  0  0  0  0  0  0  0  0  0  0
   59.1351   34.5619   46.7285 H   0  0  0  0  0  0  0  0  0  0  0  0
   57.5644   34.3272   47.5998 H   0  0  0  0  0  0  0  0  0  0  0  0
   58.1660   31.7590   47.1330 H   0  0  0  0  0  0  0  0  0  0  0  0
   60.5814   33.5937   45.9984 H   0  0  0  0  0  0  0  0  0  0  0  0
   62.8989   34.2708   45.4115 H   0  0  0  0  0  0  0  0  0  0  0  0
   64.7414   33.9803   47.0584 H   0  0  0  0  0  0  0  0  0  0  0  0
   64.2912   32.9420   49.2690 H   0  0  0  0  0  0  0  0  0  0  0  0
   62.8124   31.5382   51.9583 H   0  0  0  0  0  0  0  0  0  0  0  0
   63.1733   30.3640   50.6477 H   0  0  0  0  0  0  0  0  0  0  0  0
   63.9588   31.9795   50.6477 H   0  0  0  0  0  0  0  0  0  0  0  0
   61.1421   31.2380   52.5632 H   0  0  0  0  0  0  0  0  0  0  0  0
   58.7976   30.8833   53.2995 H   0  0  0  0  0  0  0  0  0  0  0  0
   57.3661   32.0935   49.4189 H   0  0  0  0  0  0  0  0  0  0  0  0
  1  2  1  0
  2  3  1  0
  3  4  1  0
  4  5  1  0
  3  6  1  0
  6  7  1  0
  7  8  1  0
  8  9  1  0
  9 10  1  0
 10 11  1  0
 11 12  1  0
 12 13  1  0
 13 14  2  0
 14 15  1  0
 15 16  2  0
 16 17  1  0
 17 18  2  0
 18 19  1  0
 19 20  2  0
 20 21  1  0
 20 22  1  0
 22 23  2  0
 23 24  1  0
 24 25  2  0
 25 26  1  0
 25 27  1  0
 27 28  2  0
 28 13  1  0
 19 14  1  0
 28 22  1  0
  1 29  1  0
  1 30  1  0
  1 31  1  0
  2 32  1  0
  2 33  1  0
  4 34  1  0
  4 35  1  0
  5 36  1  0
  5 37  1  0
  5 38  1  0
  6 39  1  0
  6 40  1  0
  7 41  1  0
  7 42  1  0
  8 43  1  0
  8 44  1  0
  9 45  1  0
 10 46  1  0
 10 47  1  0
 11 48  1  0
 11 49  1  0
 12 50  1  0
 15 51  1  0
 16 52  1  0
 17 53  1  0
 18 54  1  0
 21 55  1  0
 21 56  1  0
 21 57  1  0
 23 58  1  0
 24 59  1  0
 27 60  1  0
M  CHG  1  20   1
M  END
>  <UniqueID>  (18) 
18

>  <SMILES>  (18) 
CCN(CC)CCCNCCNc1c2ccccc2[n+](C)c2ccc(Cl)cc12

>  <Energy>  (18) 
77.94584904828504

>  <Genealogy>  (18) 
CCN(CC)CCCNCCNc1c2ccccc2[n+](C)c2ccc(Cl)cc12 (3D coordinates assigned)
CCN(CC)CCCNCCNc1c2ccccc2[n+](C)c2ccc(Cl)cc12 (optimized conformer: 77.94584904828504 kcal/mol)

>  <smiles>  (18) 
CCN(CC)CCCNCCNc1c2ccccc2[n+](C)c2ccc(Cl)cc12

>  <score_type>  (18) 
oracle

>  <origin>  (18) 
adg

>  <m_score__min__energy>  (18) 
-6.0300000000000002

>  <m_primary>  (18) 
energy

$$$$
18:0
     RDKit          3D

 49 51  0  0  0  0  0  0  0  0999 V2000
   62.9660   33.8530   46.3560 C   0  0  0  0  0  0  0  0  0  0  0  0
   62.8480   33.0130   47.5570 N   0  0  0  0  0  0  0  0  0  0  0  0
   63.2450   31.6320   47.2340 C   0  0  0  0  0  0  0  0  0  0  0  0
   63.6720   33.5670   48.6540 C   0  0  0  0  0  0  0  0  0  0  0  0
   62.9220   33.5750   50.0060 C   0  0  0  0  0  0  0  0  0  0  0  0
   61.7210   32.7200   50.0110 N   0  0  0  0  0  0  0  0  0  0  0  0
   60.4700   33.4970   50.1170 C   0  0  0  0  0  0  0  0  0  0  0  0
   59.2400   32.6430   49.7670 C   0  0  0  0  0  0  0  0  0  0  0  0
   59.0490   32.5540   48.2770 C   0  0  0  0  0  0  0  0  0  0  0  0
   58.5920   31.4420   47.5810 C   0  0  0  0  0  0  0  0  0  0  0  0
   58.4480   31.7330   46.2660 N   0  0  0  0  0  0  0  0  0  0  0  0
   57.9720   30.8220   45.2590 C   0  0  0  0  0  0  0  0  0  0  0  0
   58.5240   29.5330   45.1590 C   0  0  0  0  0  0  0  0  0  0  0  0
   58.0510   28.6340   44.1990 C   0  0  0  0  0  0  0  0  0  0  0  0
   57.0150   29.0090   43.3380 C   0  0  0  0  0  0  0  0  0  0  0  0
   56.4480   30.2820   43.4410 C   0  0  0  0  0  0  0  0  0  0  0  0
   56.9200   31.1840   44.4000 C   0  0  0  0  0  0  0  0  0  0  0  0
   58.8130   33.0270   46.1230 C   0  0  0  0  0  0  0  0  0  0  0  0
   58.8780   33.7870   44.9500 C   0  0  0  0  0  0  0  0  0  0  0  0
   59.2930   35.1270   45.0510 C   0  0  0  0  0  0  0  0  0  0  0  0
   59.6480   35.6740   46.3020 C   0  0  0  0  0  0  0  0  0  0  0  0
   59.6020   34.8840   47.4630 C   0  0  0  0  0  0  0  0  0  0  0  0
   59.1810   33.5590   47.3360 C   0  0  0  0  0  0  0  0  0  0  0  0
   63.1133   34.9013   46.6548 H   0  0  0  0  0  0  0  0  0  0  0  0
   63.8259   33.5181   45.7573 H   0  0  0  0  0  0  0  0  0  0  0  0
   62.0471   33.7680   45.7573 H   0  0  0  0  0  0  0  0  0  0  0  0
   63.4067   31.0696   48.1654 H   0  0  0  0  0  0  0  0  0  0  0  0
   62.4492   31.1493   46.6477 H   0  0  0  0  0  0  0  0  0  0  0  0
   64.1756   31.6456   46.6477 H   0  0  0  0  0  0  0  0  0  0  0  0
   64.5805   32.9555   48.7573 H   0  0  0  0  0  0  0  0  0  0  0  0
   63.9153   34.6089   48.3984 H   0  0  0  0  0  0  0  0  0  0  0  0
   63.6081   33.2180   50.7881 H   0  0  0  0  0  0  0  0  0  0  0  0
   62.5881   34.6073   50.1876 H   0  0  0  0  0  0  0  0  0  0  0  0
   61.7790   32.0860   50.8420 H   0  0  0  0  0  0  0  0  0  0  0  0
   61.7230   32.1040   49.1690 H   0  0  0  0  0  0  0  0  0  0  0  0
   60.3660   33.8667   51.1478 H   0  0  0  0  0  0  0  0  0  0  0  0
   60.5228   34.3320   49.4028 H   0  0  0  0  0  0  0  0  0  0  0  0
   59.3787   31.6300   50.1726 H   0  0  0  0  0  0  0  0  0  0  0  0
   58.3494   33.1164   50.2059 H   0  0  0  0  0  0  0  0  0  0  0  0
   58.3773   30.4629   48.0341 H   0  0  0  0  0  0  0  0  0  0  0  0
   59.3328   29.2302   45.8402 H   0  0  0  0  0  0  0  0  0  0  0  0
   58.4942   27.6303   44.1207 H   0  0  0  0  0  0  0  0  0  0  0  0
   56.6465   28.3022   42.5799 H   0  0  0  0  0  0  0  0  0  0  0  0
   55.6295   30.5750   42.7671 H   0  0  0  0  0  0  0  0  0  0  0  0
   56.4654   32.1823   44.4825 H   0  0  0  0  0  0  0  0  0  0  0  0
   58.6121   33.3490   43.9766 H   0  0  0  0  0  0  0  0  0  0  0  0
   59.3411   35.7532   44.1479 H   0  0  0  0  0  0  0  0  0  0  0  0
   59.9629   36.7258   46.3689 H   0  0  0  0  0  0  0  0  0  0  0  0
   59.8888   35.2967   48.4415 H   0  0  0  0  0  0  0  0  0  0  0  0
  1  2  1  0
  2  3  1  0
  2  4  1  0
  4  5  1  0
  5  6  1  0
  6  7  1  0
  7  8  1  0
  8  9  1  0
  9 10  2  0
 10 11  1  0
 11 12  1  0
 12 13  2  0
 13 14  1  0
 14 15  2  0
 15 16  1  0
 16 17  2  0
 11 18  1  0
 18 19  2  0
 19 20  1  0
 20 21  2  0
 21 22  1  0
 22 23  2  0
 23  9  1  0
 17 12  1  0
 23 18  1  0
  1 24  1  0
  1 25  1  0
  1 26  1  0
  3 27  1  0
  3 28  1  0
  3 29  1  0
  4 30  1  0
  4 31  1  0
  5 32  1  0
  5 33  1  0
  6 34  1  0
  6 35  1  0
  7 36  1  0
  7 37  1  0
  8 38  1  0
  8 39  1  0
 10 40  1  0
 13 41  1  0
 14 42  1  0
 15 43  1  0
 16 44  1  0
 17 45  1  0
 19 46  1  0
 20 47  1  0
 21 48  1  0
 22 49  1  0
M  CHG  1   6   1
M  END
>  <UniqueID>  (19) 
19

>  <SMILES>  (19) 
CN(C)CC[NH2+]CCc1cn(-c2ccccc2)c2ccccc12

>  <Energy>  (19) 
84.94278378522199

>  <Genealogy>  (19) 
CN(C)CC[NH2+]CCc1cn(-c2ccccc2)c2ccccc12 (protonated)
CN(C)CC[NH2+]CCc1cn(-c2ccccc2)c2ccccc12 (3D coordinates assigned)
CN(C)CC[NH2+]CCc1cn(-c2ccccc2)c2ccccc12 (optimized conformer: 84.94278378522199 kcal/mol)

>  <smiles>  (19) 
CN(C)CCNCCc1cn(-c2ccccc2)c2ccccc12

>  <score_type>  (19) 
oracle

>  <origin>  (19) 
adg

>  <m_score__min__energy>  (19) 
-5.5099999999999998

>  <m_primary>  (19) 
energy

$$$$
19:0
     RDKit          3D

 53 56  0  0  0  0  0  0  0  0999 V2000
   57.5020   32.0000   51.6220 C   0  0  0  0  0  0  0  0  0  0  0  0
   58.0460   30.6410   51.1910 C   0  0  0  0  0  0  0  0  0  0  0  0
   59.3740   30.7710   50.7250 O   0  0  0  0  0  0  0  0  0  0  0  0
   59.9950   29.5060   50.6340 C   0  0  0  0  0  0  0  0  0  0  0  0
   61.4310   29.6760   50.1370 C   0  0  0  0  0  0  0  0  0  0  0  0
   61.4690   30.4460   48.8890 N   0  0  0  0  0  0  0  0  0  0  0  0
   60.8450   30.1760   47.7100 C   0  0  0  0  0  0  0  0  0  0  0  0
   59.7670   28.7650   47.4280 S   0  0  0  0  0  0  0  0  0  0  0  0
   59.3860   29.1960   45.6940 C   0  0  0  0  0  0  0  0  0  0  0  0
   57.8840   29.3300   45.4920 C   0  0  0  0  0  0  0  0  0  0  0  0
   57.4540   30.5890   46.0010 O   0  0  0  0  0  0  0  0  0  0  0  0
   57.9720   31.8340   45.6040 C   0  0  0  0  0  0  0  0  0  0  0  0
   57.9630   32.2410   44.2560 C   0  0  0  0  0  0  0  0  0  0  0  0
   58.4840   33.4820   43.8860 C   0  0  0  0  0  0  0  0  0  0  0  0
   59.0220   34.3370   44.8480 C   0  0  0  0  0  0  0  0  0  0  0  0
   59.0420   33.9550   46.1960 C   0  0  0  0  0  0  0  0  0  0  0  0
   59.5830   34.8130   47.1670 C   0  0  0  0  0  0  0  0  0  0  0  0
   59.6050   34.4300   48.5100 C   0  0  0  0  0  0  0  0  0  0  0  0
   59.0880   33.1910   48.8940 C   0  0  0  0  0  0  0  0  0  0  0  0
   58.5460   32.3260   47.9390 C   0  0  0  0  0  0  0  0  0  0  0  0
   58.5150   32.6950   46.5820 C   0  0  0  0  0  0  0  0  0  0  0  0
   61.1390   31.0780   46.7430 N   0  0  0  0  0  0  0  0  0  0  0  0
   61.9660   31.9490   47.3430 C   0  0  0  0  0  0  0  0  0  0  0  0
   62.5750   33.0740   46.7940 C   0  0  0  0  0  0  0  0  0  0  0  0
   63.4240   33.8280   47.6260 C   0  0  0  0  0  0  0  0  0  0  0  0
   63.6420   33.4370   48.9670 C   0  0  0  0  0  0  0  0  0  0  0  0
   63.0140   32.2910   49.4900 C   0  0  0  0  0  0  0  0  0  0  0  0
   62.1710   31.5710   48.6400 C   0  0  0  0  0  0  0  0  0  0  0  0
   57.4801   32.0546   52.7204 H   0  0  0  0  0  0  0  0  0  0  0  0
   58.1507   32.7963   51.2281 H   0  0  0  0  0  0  0  0  0  0  0  0
   56.4830   32.1287   51.2281 H   0  0  0  0  0  0  0  0  0  0  0  0
   58.0281   29.9538   52.0497 H   0  0  0  0  0  0  0  0  0  0  0  0
   57.4184   30.2449   50.3791 H   0  0  0  0  0  0  0  0  0  0  0  0
   60.0044   29.0303   51.6258 H   0  0  0  0  0  0  0  0  0  0  0  0
   59.4360   28.8737   49.9285 H   0  0  0  0  0  0  0  0  0  0  0  0
   62.0165   30.2047   50.9036 H   0  0  0  0  0  0  0  0  0  0  0  0
   61.8555   28.6793   49.9463 H   0  0  0  0  0  0  0  0  0  0  0  0
   59.8708   30.1513   45.4443 H   0  0  0  0  0  0  0  0  0  0  0  0
   59.7614   28.3956   45.0394 H   0  0  0  0  0  0  0  0  0  0  0  0
   57.6499   29.2675   44.4190 H   0  0  0  0  0  0  0  0  0  0  0  0
   57.3654   28.5192   46.0246 H   0  0  0  0  0  0  0  0  0  0  0  0
   57.5419   31.5754   43.4881 H   0  0  0  0  0  0  0  0  0  0  0  0
   58.4702   33.7876   42.8294 H   0  0  0  0  0  0  0  0  0  0  0  0
   59.4313   35.3129   44.5478 H   0  0  0  0  0  0  0  0  0  0  0  0
   59.9909   35.7901   46.8689 H   0  0  0  0  0  0  0  0  0  0  0  0
   60.0304   35.1057   49.2666 H   0  0  0  0  0  0  0  0  0  0  0  0
   59.1073   32.8942   49.9530 H   0  0  0  0  0  0  0  0  0  0  0  0
   58.1416   31.3516   48.2503 H   0  0  0  0  0  0  0  0  0  0  0  0
   60.8080   31.0890   45.7530 H   0  0  0  0  0  0  0  0  0  0  0  0
   62.3991   33.3634   45.7474 H   0  0  0  0  0  0  0  0  0  0  0  0
   63.9206   34.7264   47.2306 H   0  0  0  0  0  0  0  0  0  0  0  0
   64.3083   34.0337   49.6073 H   0  0  0  0  0  0  0  0  0  0  0  0
   63.1809   31.9739   50.5300 H   0  0  0  0  0  0  0  0  0  0  0  0
  1  2  1  0
  2  3  1  0
  3  4  1  0
  4  5  1  0
  5  6  1  0
  6  7  1  0
  7  8  1  0
  8  9  1  0
  9 10  1  0
 10 11  1  0
 11 12  1  0
 12 13  2  0
 13 14  1  0
 14 15  2  0
 15 16  1  0
 16 17  2  0
 17 18  1  0
 18 19  2  0
 19 20  1  0
 20 21  2  0
  7 22  2  0
 22 23  1  0
 23 24  2  0
 24 25  1  0
 25 26  2  0
 26 27  1  0
 27 28  2  0
 28  6  1  0
 21 12  1  0
 28 23  1  0
 21 16  1  0
  1 29  1  0
  1 30  1  0
  1 31  1  0
  2 32  1  0
  2 33  1  0
  4 34  1  0
  4 35  1  0
  5 36  1  0
  5 37  1  0
  9 38  1  0
  9 39  1  0
 10 40  1  0
 10 41  1  0
 13 42  1  0
 14 43  1  0
 15 44  1  0
 17 45  1  0
 18 46  1  0
 19 47  1  0
 20 48  1  0
 22 49  1  0
 24 50  1  0
 25 51  1  0
 26 52  1  0
 27 53  1  0
M  CHG  1  22   1
M  END
>  <UniqueID>  (20) 
20

>  <SMILES>  (20) 
CCOCCn1c(SCCOc2cccc3ccccc23)[nH+]c2ccccc21

>  <Energy>  (20) 
89.34510570437298

>  <Genealogy>  (20) 
CCOCCn1c(SCCOc2cccc3ccccc23)[nH+]c2ccccc21 (protonated)
CCOCCn1c(SCCOc2cccc3ccccc23)[nH+]c2ccccc21 (3D coordinates assigned)
CCOCCn1c(SCCOc2cccc3ccccc23)[nH+]c2ccccc21 (optimized conformer: 89.34510570437298 kcal/mol)

>  <smiles>  (20) 
CCOCCn1c(SCCOc2cccc3ccccc23)nc2ccccc21

>  <score_type>  (20) 
oracle

>  <origin>  (20) 
adg

>  <m_score__min__energy>  (20) 
-6.6200000000000001

>  <m_primary>  (20) 
energy

$$$$
20:0
     RDKit          3D

 65 67  0  0  0  0  0  0  0  0999 V2000
   59.2640   34.5630   45.3300 C   0  0  0  0  0  0  0  0  0  0  0  0
   59.6720   33.7320   46.5450 C   0  0  0  0  0  0  0  0  0  0  0  0
   60.9220   34.2360   47.1560 N   0  0  0  0  0  0  0  0  0  0  0  0
   60.9910   34.1770   48.6370 C   0  0  0  0  0  0  0  0  0  0  0  0
   59.6990   33.7090   49.3110 C   0  0  0  0  0  0  0  0  0  0  0  0
   62.1730   33.8510   46.4570 C   0  0  0  0  0  0  0  0  0  0  0  0
   63.4240   33.7670   47.3700 C   0  0  0  0  0  0  0  0  0  0  0  0
   63.8950   32.3790   47.5420 N   0  0  0  0  0  0  0  0  0  0  0  0
   63.0810   31.6450   48.5070 C   0  0  0  0  0  0  0  0  0  0  0  0
   63.4630   31.6050   49.8790 C   0  0  0  0  0  0  0  0  0  0  0  0
   64.6520   32.2270   50.3440 C   0  0  0  0  0  0  0  0  0  0  0  0
   65.0470   32.1250   51.6750 C   0  0  0  0  0  0  0  0  0  0  0  0
   64.2800   31.4020   52.5760 C   0  0  0  0  0  0  0  0  0  0  0  0
   63.0940   30.8060   52.1600 C   0  0  0  0  0  0  0  0  0  0  0  0
   62.6380   30.9300   50.8210 C   0  0  0  0  0  0  0  0  0  0  0  0
   61.4250   30.4050   50.4320 N   0  0  0  0  0  0  0  0  0  0  0  0
   60.4230   30.0250   51.4580 C   0  0  0  0  0  0  0  0  0  0  0  0
   61.1220   30.2730   49.0930 C   0  0  0  0  0  0  0  0  0  0  0  0
   60.0320   29.4690   48.6690 C   0  0  0  0  0  0  0  0  0  0  0  0
   59.6470   29.4030   47.3220 C   0  0  0  0  0  0  0  0  0  0  0  0
   58.5550   28.6390   46.8750 O   0  0  0  0  0  0  0  0  0  0  0  0
   58.2100   28.4030   45.5080 C   0  0  0  0  0  0  0  0  0  0  0  0
   56.7230   28.7360   45.2620 C   0  0  0  0  0  0  0  0  0  0  0  0
   56.4830   30.1000   44.7390 N   0  0  0  0  0  0  0  0  0  0  0  0
   56.1000   30.1050   43.3180 C   0  0  0  0  0  0  0  0  0  0  0  0
   57.6020   31.0180   44.9920 C   0  0  0  0  0  0  0  0  0  0  0  0
   60.3730   30.1180   46.3800 C   0  0  0  0  0  0  0  0  0  0  0  0
   61.4840   30.8650   46.7550 C   0  0  0  0  0  0  0  0  0  0  0  0
   61.9070   30.9370   48.1070 C   0  0  0  0  0  0  0  0  0  0  0  0
   58.8025   35.5030   45.6669 H   0  0  0  0  0  0  0  0  0  0  0  0
   60.1541   34.7881   44.7241 H   0  0  0  0  0  0  0  0  0  0  0  0
   58.5416   33.9964   44.7241 H   0  0  0  0  0  0  0  0  0  0  0  0
   58.8667   33.7746   47.2931 H   0  0  0  0  0  0  0  0  0  0  0  0
   59.8450   32.6981   46.2118 H   0  0  0  0  0  0  0  0  0  0  0  0
   61.7964   33.4820   48.9167 H   0  0  0  0  0  0  0  0  0  0  0  0
   61.1724   35.2048   48.9845 H   0  0  0  0  0  0  0  0  0  0  0  0
   59.8189   33.7524   50.4036 H   0  0  0  0  0  0  0  0  0  0  0  0
   58.8689   34.3636   49.0069 H   0  0  0  0  0  0  0  0  0  0  0  0
   59.4807   32.6747   49.0069 H   0  0  0  0  0  0  0  0  0  0  0  0
   62.0184   32.8645   45.9955 H   0  0  0  0  0  0  0  0  0  0  0  0
   62.3762   34.6443   45.7226 H   0  0  0  0  0  0  0  0  0  0  0  0
   64.2320   34.3623   46.9198 H   0  0  0  0  0  0  0  0  0  0  0  0
   63.1461   34.1551   48.3610 H   0  0  0  0  0  0  0  0  0  0  0  0
   64.8910   32.3880   47.8520 H   0  0  0  0  0  0  0  0  0  0  0  0
   63.9730   31.9120   46.6170 H   0  0  0  0  0  0  0  0  0  0  0  0
   65.2724   32.8001   49.6393 H   0  0  0  0  0  0  0  0  0  0  0  0
   65.9699   32.6192   52.0128 H   0  0  0  0  0  0  0  0  0  0  0  0
   64.6097   31.2997   53.6204 H   0  0  0  0  0  0  0  0  0  0  0  0
   62.4983   30.2279   52.8817 H   0  0  0  0  0  0  0  0  0  0  0  0
   60.8460   30.1854   52.4607 H   0  0  0  0  0  0  0  0  0  0  0  0
   59.5216   30.6437   51.3370 H   0  0  0  0  0  0  0  0  0  0  0  0
   60.1585   28.9641   51.3370 H   0  0  0  0  0  0  0  0  0  0  0  0
   59.4754   28.8831   49.4153 H   0  0  0  0  0  0  0  0  0  0  0  0
   58.8349   29.0372   44.8620 H   0  0  0  0  0  0  0  0  0  0  0  0
   58.3807   27.3415   45.2755 H   0  0  0  0  0  0  0  0  0  0  0  0
   56.3236   28.0131   44.5354 H   0  0  0  0  0  0  0  0  0  0  0  0
   56.2217   28.6805   46.2396 H   0  0  0  0  0  0  0  0  0  0  0  0
   55.0033   30.1193   43.2339 H   0  0  0  0  0  0  0  0  0  0  0  0
   56.5169   30.9978   42.8290 H   0  0  0  0  0  0  0  0  0  0  0  0
   56.4935   29.2016   42.8290 H   0  0  0  0  0  0  0  0  0  0  0  0
   57.7432   31.1338   46.0767 H   0  0  0  0  0  0  0  0  0  0  0  0
   58.5199   30.6093   44.5443 H   0  0  0  0  0  0  0  0  0  0  0  0
   57.3806   31.9981   44.5443 H   0  0  0  0  0  0  0  0  0  0  0  0
   60.0658   30.0935   45.3240 H   0  0  0  0  0  0  0  0  0  0  0  0
   62.0479   31.4127   45.9856 H   0  0  0  0  0  0  0  0  0  0  0  0
  1  2  1  0
  2  3  1  0
  3  4  1  0
  4  5  1  0
  3  6  1  0
  6  7  1  0
  7  8  1  0
  8  9  1  0
  9 10  2  0
 10 11  1  0
 11 12  2  0
 12 13  1  0
 13 14  2  0
 14 15  1  0
 15 16  2  0
 16 17  1  0
 16 18  1  0
 18 19  2  0
 19 20  1  0
 20 21  1  0
 21 22  1  0
 22 23  1  0
 23 24  1  0
 24 25  1  0
 24 26  1  0
 20 27  2  0
 27 28  1  0
 28 29  2  0
 29  9  1  0
 15 10  1  0
 29 18  1  0
  1 30  1  0
  1 31  1  0
  1 32  1  0
  2 33  1  0
  2 34  1  0
  4 35  1  0
  4 36  1  0
  5 37  1  0
  5 38  1  0
  5 39  1  0
  6 40  1  0
  6 41  1  0
  7 42  1  0
  7 43  1  0
  8 44  1  0
  8 45  1  0
 11 46  1  0
 12 47  1  0
 13 48  1  0
 14 49  1  0
 17 50  1  0
 17 51  1  0
 17 52  1  0
 19 53  1  0
 22 54  1  0
 22 55  1  0
 23 56  1  0
 23 57  1  0
 25 58  1  0
 25 59  1  0
 25 60  1  0
 26 61  1  0
 26 62  1  0
 26 63  1  0
 27 64  1  0
 28 65  1  0
M  CHG  2   8   1  16   1
M  END
>  <UniqueID>  (21) 
21

>  <SMILES>  (21) 
CCN(CC)CC[NH2+]c1c2ccccc2[n+](C)c2cc(OCCN(C)C)ccc12

>  <Energy>  (21) 
103.13245488108727

>  <Genealogy>  (21) 
CCN(CC)CC[NH2+]c1c2ccccc2[n+](C)c2cc(OCCN(C)C)ccc12 (protonated)
CCN(CC)CC[NH2+]c1c2ccccc2[n+](C)c2cc(OCCN(C)C)ccc12 (3D coordinates assigned)
CCN(CC)CC[NH2+]c1c2ccccc2[n+](C)c2cc(OCCN(C)C)ccc12 (optimized conformer: 103.13245488108727 kcal/mol)

>  <smiles>  (21) 
CCN(CC)CCNc1c2ccccc2[n+](C)c2cc(OCCN(C)C)ccc12

>  <score_type>  (21) 
oracle

>  <origin>  (21) 
adg

>  <m_score__min__energy>  (21) 
-4.6799999999999997

>  <m_primary>  (21) 
energy

$$$$
21:0
     RDKit          3D

 37 39  0  0  0  0  0  0  0  0999 V2000
   63.3810   33.8480   46.3760 C   0  0  0  0  0  0  0  0  0  0  0  0
   63.2740   33.7220   47.8920 C   0  0  0  0  0  0  0  0  0  0  0  0
   61.8270   33.8250   48.4070 C   0  0  0  0  0  0  0  0  0  0  0  0
   60.9090   32.9360   47.6640 N   0  0  0  0  0  0  0  0  0  0  0  0
   61.2490   31.6010   47.6340 C   0  0  0  0  0  0  0  0  0  0  0  0
   60.4930   30.6670   46.9250 C   0  0  0  0  0  0  0  0  0  0  0  0
   59.4140   31.1420   46.2030 C   0  0  0  0  0  0  0  0  0  0  0  0
   58.5350   30.4750   45.3870 C   0  0  0  0  0  0  0  0  0  0  0  0
   58.4260   29.1240   45.0580 C   0  0  0  0  0  0  0  0  0  0  0  0
   57.4000   28.7460   44.1770 C   0  0  0  0  0  0  0  0  0  0  0  0
   56.5160   29.7130   43.6530 C   0  0  0  0  0  0  0  0  0  0  0  0
   56.6520   31.0690   43.9980 C   0  0  0  0  0  0  0  0  0  0  0  0
   57.6860   31.4300   44.8740 C   0  0  0  0  0  0  0  0  0  0  0  0
   58.0100   32.6700   45.3280 N   0  0  0  0  0  0  0  0  0  0  0  0
   57.3910   33.9230   44.8890 C   0  0  0  0  0  0  0  0  0  0  0  0
   59.0640   32.4760   46.1830 C   0  0  0  0  0  0  0  0  0  0  0  0
   59.7810   33.3990   46.9910 C   0  0  0  0  0  0  0  0  0  0  0  0
   59.3150   34.8310   47.1290 C   0  0  0  0  0  0  0  0  0  0  0  0
   64.0741   34.6641   46.1239 H   0  0  0  0  0  0  0  0  0  0  0  0
   63.7576   32.9040   45.9553 H   0  0  0  0  0  0  0  0  0  0  0  0
   62.3885   34.0667   45.9553 H   0  0  0  0  0  0  0  0  0  0  0  0
   63.6834   32.7460   48.1917 H   0  0  0  0  0  0  0  0  0  0  0  0
   63.8381   34.5582   48.3308 H   0  0  0  0  0  0  0  0  0  0  0  0
   61.8081   33.5456   49.4708 H   0  0  0  0  0  0  0  0  0  0  0  0
   61.4879   34.8612   48.2611 H   0  0  0  0  0  0  0  0  0  0  0  0
   62.1399   31.2628   48.1835 H   0  0  0  0  0  0  0  0  0  0  0  0
   60.7452   29.5964   46.9399 H   0  0  0  0  0  0  0  0  0  0  0  0
   59.1205   28.3796   45.4747 H   0  0  0  0  0  0  0  0  0  0  0  0
   57.2847   27.6894   43.8935 H   0  0  0  0  0  0  0  0  0  0  0  0
   55.7130   29.4029   42.9682 H   0  0  0  0  0  0  0  0  0  0  0  0
   55.9658   31.8266   43.5917 H   0  0  0  0  0  0  0  0  0  0  0  0
   57.0984   34.5153   45.7685 H   0  0  0  0  0  0  0  0  0  0  0  0
   58.1101   34.4951   44.2844 H   0  0  0  0  0  0  0  0  0  0  0  0
   56.4996   33.6995   44.2844 H   0  0  0  0  0  0  0  0  0  0  0  0
   59.2313   35.0882   48.1952 H   0  0  0  0  0  0  0  0  0  0  0  0
   60.0414   35.5011   46.6461 H   0  0  0  0  0  0  0  0  0  0  0  0
   58.3333   34.9453   46.6461 H   0  0  0  0  0  0  0  0  0  0  0  0
  1  2  1  0
  2  3  1  0
  3  4  1  0
  4  5  2  0
  5  6  1  0
  6  7  2  0
  7  8  1  0
  8  9  2  0
  9 10  1  0
 10 11  2  0
 11 12  1  0
 12 13  2  0
 13 14  1  0
 14 15  1  0
 14 16  1  0
 16 17  2  0
 17 18  1  0
 17  4  1  0
 16  7  1  0
 13  8  1  0
  1 19  1  0
  1 20  1  0
  1 21  1  0
  2 22  1  0
  2 23  1  0
  3 24  1  0
  3 25  1  0
  5 26  1  0
  6 27  1  0
  9 28  1  0
 10 29  1  0
 11 30  1  0
 12 31  1  0
 15 32  1  0
 15 33  1  0
 15 34  1  0
 18 35  1  0
 18 36  1  0
 18 37  1  0
M  CHG  1   4   1
M  END
>  <UniqueID>  (22) 
22

>  <SMILES>  (22) 
CCC[n+]1ccc2c3ccccc3n(C)c2c1C

>  <Energy>  (22) 
87.88352992966031

>  <Genealogy>  (22) 
CCC[n+]1ccc2c3ccccc3n(C)c2c1C (3D coordinates assigned)
CCC[n+]1ccc2c3ccccc3n(C)c2c1C (optimized conformer: 87.88352992966031 kcal/mol)

>  <smiles>  (22) 
CCC[n+]1ccc2c3ccccc3n(C)c2c1C

>  <score_type>  (22) 
oracle

>  <origin>  (22) 
adg

>  <m_score__min__energy>  (22) 
-5.4800000000000004

>  <m_primary>  (22) 
energy

$$$$
22:0
     RDKit          3D

 68 70  0  0  0  0  0  0  0  0999 V2000
   57.0810   30.6170   43.4250 C   0  0  0  0  0  0  0  0  0  0  0  0
   56.9860   29.3590   44.2910 C   0  0  0  0  0  0  0  0  0  0  0  0
   58.1560   29.1860   45.1860 N   0  0  0  0  0  0  0  0  0  0  0  0
   59.2310   28.4300   44.5050 C   0  0  0  0  0  0  0  0  0  0  0  0
   60.6180   28.9480   44.8860 C   0  0  0  0  0  0  0  0  0  0  0  0
   57.8380   28.6950   46.5550 C   0  0  0  0  0  0  0  0  0  0  0  0
   58.9010   28.9790   47.6400 C   0  0  0  0  0  0  0  0  0  0  0  0
   58.8030   30.3360   48.1740 N   0  0  0  0  0  0  0  0  0  0  0  0
   59.7630   31.3340   47.7880 C   0  0  0  0  0  0  0  0  0  0  0  0
   59.4240   32.3000   46.8260 C   0  0  0  0  0  0  0  0  0  0  0  0
   58.1390   32.3160   46.2400 C   0  0  0  0  0  0  0  0  0  0  0  0
   57.7860   33.3020   45.3240 C   0  0  0  0  0  0  0  0  0  0  0  0
   58.6950   34.2980   44.9890 C   0  0  0  0  0  0  0  0  0  0  0  0
   59.9720   34.3010   45.5490 C   0  0  0  0  0  0  0  0  0  0  0  0
   60.3790   33.2840   46.4550 C   0  0  0  0  0  0  0  0  0  0  0  0
   61.6540   33.2490   46.9850 N   0  0  0  0  0  0  0  0  0  0  0  0
   62.7200   34.0950   46.4020 C   0  0  0  0  0  0  0  0  0  0  0  0
   61.9440   32.3990   48.0370 C   0  0  0  0  0  0  0  0  0  0  0  0
   63.1500   32.5090   48.7770 C   0  0  0  0  0  0  0  0  0  0  0  0
   63.4750   31.6010   49.7870 C   0  0  0  0  0  0  0  0  0  0  0  0
   64.6900   31.7800   50.4690 O   0  0  0  0  0  0  0  0  0  0  0  0
   65.5760   32.8890   50.3130 C   0  0  0  0  0  0  0  0  0  0  0  0
   67.0280   32.4610   50.6270 C   0  0  0  0  0  0  0  0  0  0  0  0
   67.2020   31.6680   51.8820 N   0  0  0  0  0  0  0  0  0  0  0  0
   68.5560   31.9500   52.4180 C   0  0  0  0  0  0  0  0  0  0  0  0
   66.2060   32.0610   52.9090 C   0  0  0  0  0  0  0  0  0  0  0  0
   67.1000   30.2120   51.6200 C   0  0  0  0  0  0  0  0  0  0  0  0
   62.5920   30.5530   50.0760 C   0  0  0  0  0  0  0  0  0  0  0  0
   61.3780   30.4540   49.4040 C   0  0  0  0  0  0  0  0  0  0  0  0
   61.0200   31.3910   48.4130 C   0  0  0  0  0  0  0  0  0  0  0  0
   57.1480   31.5037   44.0725 H   0  0  0  0  0  0  0  0  0  0  0  0
   57.9773   30.5582   42.7900 H   0  0  0  0  0  0  0  0  0  0  0  0
   56.1861   30.6934   42.7900 H   0  0  0  0  0  0  0  0  0  0  0  0
   56.0782   29.4255   44.9086 H   0  0  0  0  0  0  0  0  0  0  0  0
   56.9570   28.4928   43.6136 H   0  0  0  0  0  0  0  0  0  0  0  0
   59.1562   27.3701   44.7895 H   0  0  0  0  0  0  0  0  0  0  0  0
   59.1044   28.5578   43.4198 H   0  0  0  0  0  0  0  0  0  0  0  0
   60.7085   28.9818   45.9817 H   0  0  0  0  0  0  0  0  0  0  0  0
   61.3859   28.2761   44.4752 H   0  0  0  0  0  0  0  0  0  0  0  0
   60.7575   29.9588   44.4752 H   0  0  0  0  0  0  0  0  0  0  0  0
   56.8977   29.1692   46.8727 H   0  0  0  0  0  0  0  0  0  0  0  0
   57.7839   27.5995   46.4722 H   0  0  0  0  0  0  0  0  0  0  0  0
   58.7639   28.2641   48.4647 H   0  0  0  0  0  0  0  0  0  0  0  0
   59.8921   28.8723   47.1748 H   0  0  0  0  0  0  0  0  0  0  0  0
   58.2490   30.5140   49.0420 H   0  0  0  0  0  0  0  0  0  0  0  0
   57.4085   31.5396   46.5111 H   0  0  0  0  0  0  0  0  0  0  0  0
   56.7865   33.2930   44.8647 H   0  0  0  0  0  0  0  0  0  0  0  0
   58.4061   35.0872   44.2793 H   0  0  0  0  0  0  0  0  0  0  0  0
   60.6763   35.1038   45.2853 H   0  0  0  0  0  0  0  0  0  0  0  0
   63.3039   34.5584   47.2109 H   0  0  0  0  0  0  0  0  0  0  0  0
   63.3824   33.4741   45.7810 H   0  0  0  0  0  0  0  0  0  0  0  0
   62.2657   34.8811   45.7810 H   0  0  0  0  0  0  0  0  0  0  0  0
   63.8460   33.3298   48.5494 H   0  0  0  0  0  0  0  0  0  0  0  0
   65.5211   33.2550   49.2771 H   0  0  0  0  0  0  0  0  0  0  0  0
   65.2785   33.6867   51.0095 H   0  0  0  0  0  0  0  0  0  0  0  0
   67.3922   31.8518   49.7866 H   0  0  0  0  0  0  0  0  0  0  0  0
   67.5950   33.3921   50.7740 H   0  0  0  0  0  0  0  0  0  0  0  0
   68.5238   31.9433   53.5175 H   0  0  0  0  0  0  0  0  0  0  0  0
   69.2573   31.1786   52.0670 H   0  0  0  0  0  0  0  0  0  0  0  0
   68.8910   32.9372   52.0670 H   0  0  0  0  0  0  0  0  0  0  0  0
   66.6276   31.8946   53.9113 H   0  0  0  0  0  0  0  0  0  0  0  0
   65.9556   33.1253   52.7886 H   0  0  0  0  0  0  0  0  0  0  0  0
   65.2963   31.4544   52.7886 H   0  0  0  0  0  0  0  0  0  0  0  0
   67.0620   29.6692   52.5760 H   0  0  0  0  0  0  0  0  0  0  0  0
   66.1852   30.0061   51.0448 H   0  0  0  0  0  0  0  0  0  0  0  0
   67.9771   29.8806   51.0448 H   0  0  0  0  0  0  0  0  0  0  0  0
   62.8594   29.8053   50.8372 H   0  0  0  0  0  0  0  0  0  0  0  0
   60.6877   29.6334   49.6491 H   0  0  0  0  0  0  0  0  0  0  0  0
  1  2  1  0
  2  3  1  0
  3  4  1  0
  4  5  1  0
  3  6  1  0
  6  7  1  0
  7  8  1  0
  8  9  1  0
  9 10  2  0
 10 11  1  0
 11 12  2  0
 12 13  1  0
 13 14  2  0
 14 15  1  0
 15 16  2  0
 16 17  1  0
 16 18  1  0
 18 19  2  0
 19 20  1  0
 20 21  1  0
 21 22  1  0
 22 23  1  0
 23 24  1  0
 24 25  1  0
 24 26  1  0
 24 27  1  0
 20 28  2  0
 28 29  1  0
 29 30  2  0
 30  9  1  0
 15 10  1  0
 30 18  1  0
  1 31  1  0
  1 32  1  0
  1 33  1  0
  2 34  1  0
  2 35  1  0
  4 36  1  0
  4 37  1  0
  5 38  1  0
  5 39  1  0
  5 40  1  0
  6 41  1  0
  6 42  1  0
  7 43  1  0
  7 44  1  0
  8 45  1  0
 11 46  1  0
 12 47  1  0
 13 48  1  0
 14 49  1  0
 17 50  1  0
 17 51  1  0
 17 52  1  0
 19 53  1  0
 22 54  1  0
 22 55  1  0
 23 56  1  0
 23 57  1  0
 25 58  1  0
 25 59  1  0
 25 60  1  0
 26 61  1  0
 26 62  1  0
 26 63  1  0
 27 64  1  0
 27 65  1  0
 27 66  1  0
 28 67  1  0
 29 68  1  0
M  CHG  2  16   1  24   1
M  END
>  <UniqueID>  (23) 
23

>  <SMILES>  (23) 
CCN(CC)CCNc1c2ccccc2[n+](C)c2cc(OCC[N+](C)(C)C)ccc12

>  <Energy>  (23) 
103.75137298539993

>  <Genealogy>  (23) 
CCN(CC)CCNc1c2ccccc2[n+](C)c2cc(OCC[N+](C)(C)C)ccc12 (3D coordinates assigned)
CCN(CC)CCNc1c2ccccc2[n+](C)c2cc(OCC[N+](C)(C)C)ccc12 (optimized conformer: 103.75137298539993 kcal/mol)

>  <smiles>  (23) 
CCN(CC)CCNc1c2ccccc2[n+](C)c2cc(OCC[N+](C)(C)C)ccc12

>  <score_type>  (23) 
oracle

>  <origin>  (23) 
adg

>  <m_score__min__energy>  (23) 
-4.0999999999999996

>  <m_primary>  (23) 
energy

$$$$
23:0
     RDKit          3D

 53 54  0  0  0  0  0  0  0  0999 V2000
   57.7050   27.6240   46.7710 C   0  0  0  0  0  0  0  0  0  0  0  0
   56.7750   27.2550   45.6190 C   0  0  0  0  0  0  0  0  0  0  0  0
   55.9240   28.3830   45.2470 N   0  0  0  0  0  0  0  0  0  0  0  0
   56.3380   29.7100   44.8840 C   0  0  0  0  0  0  0  0  0  0  0  0
   55.4460   30.5400   44.5870 O   0  0  0  0  0  0  0  0  0  0  0  0
   57.7990   30.1300   44.8400 C   0  0  1  0  0  0  0  0  0  0  0  0
   58.1350   30.8660   43.5230 C   0  0  0  0  0  0  0  0  0  0  0  0
   57.6450   32.3170   43.5090 C   0  0  0  0  0  0  0  0  0  0  0  0
   58.1910   33.0940   44.7110 C   0  0  0  0  0  0  0  0  0  0  0  0
   57.7610   32.4180   46.0300 C   0  0  2  0  0  0  0  0  0  0  0  0
   58.2400   33.1790   47.2680 C   0  0  0  0  0  0  0  0  0  0  0  0
   59.7690   33.1770   47.4170 C   0  0  0  0  0  0  0  0  0  0  0  0
   60.4440   31.8650   47.1730 N   0  0  1  0  0  0  0  0  0  0  0  0
   60.9820   31.2380   48.4070 C   0  0  0  0  0  0  0  0  0  0  0  0
   60.0710   30.1510   49.0360 C   0  0  0  0  0  0  0  0  0  0  0  0
   59.6260   30.4810   50.4690 C   0  0  0  0  0  0  0  0  0  0  0  0
   58.4550   31.3860   50.4610 N   0  0  0  0  0  0  0  0  0  0  0  0
   57.4470   30.9450   51.4400 C   0  0  0  0  0  0  0  0  0  0  0  0
   58.8620   32.7680   50.7610 C   0  0  0  0  0  0  0  0  0  0  0  0
   59.7400   30.8940   46.3470 C   0  0  0  0  0  0  0  0  0  0  0  0
   60.3810   29.9610   45.8800 O   0  0  0  0  0  0  0  0  0  0  0  0
   58.2350   30.9540   46.0990 C   0  0  2  0  0  0  0  0  0  0  0  0
   57.2007   27.4239   47.7279 H   0  0  0  0  0  0  0  0  0  0  0  0
   58.6236   27.0222   46.7078 H   0  0  0  0  0  0  0  0  0  0  0  0
   57.9611   28.6919   46.7078 H   0  0  0  0  0  0  0  0  0  0  0  0
   57.3803   26.9597   44.7493 H   0  0  0  0  0  0  0  0  0  0  0  0
   56.1312   26.4239   45.9426 H   0  0  0  0  0  0  0  0  0  0  0  0
   58.3921   29.2039   44.8648 H   0  0  0  0  0  0  0  0  0  0  0  0
   59.2267   30.8629   43.3880 H   0  0  0  0  0  0  0  0  0  0  0  0
   57.6201   30.3360   42.7082 H   0  0  0  0  0  0  0  0  0  0  0  0
   57.9854   32.8024   42.5825 H   0  0  0  0  0  0  0  0  0  0  0  0
   56.5463   32.3157   43.5631 H   0  0  0  0  0  0  0  0  0  0  0  0
   59.2894   33.1186   44.6578 H   0  0  0  0  0  0  0  0  0  0  0  0
   57.7879   34.1172   44.6869 H   0  0  0  0  0  0  0  0  0  0  0  0
   56.6612   32.4364   46.0310 H   0  0  0  0  0  0  0  0  0  0  0  0
   57.8960   34.2212   47.1942 H   0  0  0  0  0  0  0  0  0  0  0  0
   57.8219   32.6712   48.1497 H   0  0  0  0  0  0  0  0  0  0  0  0
   60.1789   33.9057   46.7022 H   0  0  0  0  0  0  0  0  0  0  0  0
   59.9673   33.4242   48.4704 H   0  0  0  0  0  0  0  0  0  0  0  0
   61.2980   32.1110   46.6140 H   0  0  0  0  0  0  0  0  0  0  0  0
   61.9486   30.7739   48.1614 H   0  0  0  0  0  0  0  0  0  0  0  0
   61.0633   32.0427   49.1526 H   0  0  0  0  0  0  0  0  0  0  0  0
   59.1739   30.0425   48.4088 H   0  0  0  0  0  0  0  0  0  0  0  0
   60.6596   29.2230   49.0848 H   0  0  0  0  0  0  0  0  0  0  0  0
   59.3574   29.5484   50.9869 H   0  0  0  0  0  0  0  0  0  0  0  0
   60.4555   30.9827   50.9888 H   0  0  0  0  0  0  0  0  0  0  0  0
   57.8276   31.1115   52.4585 H   0  0  0  0  0  0  0  0  0  0  0  0
   56.5202   31.5199   51.2963 H   0  0  0  0  0  0  0  0  0  0  0  0
   57.2402   29.8742   51.2963 H   0  0  0  0  0  0  0  0  0  0  0  0
   58.9037   32.9095   51.8511 H   0  0  0  0  0  0  0  0  0  0  0  0
   59.8548   32.9600   50.3281 H   0  0  0  0  0  0  0  0  0  0  0  0
   58.1317   33.4675   50.3281 H   0  0  0  0  0  0  0  0  0  0  0  0
   57.7366   30.4740   46.9540 H   0  0  0  0  0  0  0  0  0  0  0  0
  1  2  1  0
  2  3  1  0
  3  4  1  0
  4  5  2  0
  4  6  1  0
  6  7  1  0
  7  8  1  0
  8  9  1  0
  9 10  1  0
 10 11  1  0
 11 12  1  0
 12 13  1  0
 13 14  1  0
 14 15  1  0
 15 16  1  0
 16 17  1  0
 17 18  1  0
 17 19  1  0
 13 20  1  0
 20 21  2  0
 20 22  1  0
 22  6  1  0
 22 10  1  0
  1 23  1  0
  1 24  1  0
  1 25  1  0
  2 26  1  0
  2 27  1  0
  6 28  1  6
  7 29  1  0
  7 30  1  0
  8 31  1  0
  8 32  1  0
  9 33  1  0
  9 34  1  0
 10 35  1  6
 11 36  1  0
 11 37  1  0
 12 38  1  0
 12 39  1  0
 13 40  1  6
 14 41  1  0
 14 42  1  0
 15 43  1  0
 15 44  1  0
 16 45  1  0
 16 46  1  0
 18 47  1  0
 18 48  1  0
 18 49  1  0
 19 50  1  0
 19 51  1  0
 19 52  1  0
 22 53  1  1
M  CHG  2   3  -1  13   1
M  END
>  <UniqueID>  (24) 
24

>  <SMILES>  (24) 
CC[N-]C(=O)[C@H]1CCC[C@@H]2CC[NH+](CCCN(C)C)C(=O)C21

>  <Energy>  (24) 
59.187179252387764

>  <Genealogy>  (24) 
CC[N-]C(=O)C1CCCC2CC[NH+](CCCN(C)C)C(=O)C21 (protonated)
CC[N-]C(=O)[C@H]1CCC[C@@H]2CC[NH+](CCCN(C)C)C(=O)C21 (chirality)
CC[N-]C(=O)[C@H]1CCC[C@@H]2CC[NH+](CCCN(C)C)C(=O)C21 (3D coordinates assigned)
CC[N-]C(=O)[C@H]1CCC[C@@H]2CC[NH+](CCCN(C)C)C(=O)C21 (nonaromatic ring conformer: 59.187179252387764 kcal/mol)

>  <smiles>  (24) 
CCNC(=O)C1CCCC2CCN(CCCN(C)C)C(=O)C21

>  <score_type>  (24) 
oracle

>  <origin>  (24) 
adg

>  <m_score__min__energy>  (24) 
-8.1199999999999992

>  <m_primary>  (24) 
energy

$$$$
24:0
     RDKit          3D

 33 33  0  0  1  0  0  0  0  0999 V2000
   59.4690   34.6150   45.9950 C   0  0  0  0  0  0  0  0  0  0  0  0
   58.7260   34.4920   44.9120 C   0  0  0  0  0  0  0  0  0  0  0  0
   57.5470   33.5530   44.8180 C   0  0  0  0  0  0  0  0  0  0  0  0
   57.7620   32.7190   43.5840 C   0  0  0  0  0  0  0  0  0  0  0  0
   57.9660   31.2900   43.9420 C   0  0  1  0  0  0  0  0  0  0  0  0
   58.3590   31.2060   45.3940 C   0  0  0  0  0  0  0  0  0  0  0  0
   58.9250   29.8720   45.7450 C   0  0  0  0  0  0  0  0  0  0  0  0
   59.8130   29.1910   44.9430 C   0  0  0  0  0  0  0  0  0  0  0  0
   60.3360   27.9540   45.2790 C   0  0  0  0  0  0  0  0  0  0  0  0
   59.9660   27.3570   46.4640 C   0  0  0  0  0  0  0  0  0  0  0  0
   59.0730   28.0120   47.2990 C   0  0  0  0  0  0  0  0  0  0  0  0
   58.5680   29.2450   46.9380 C   0  0  0  0  0  0  0  0  0  0  0  0
   56.7560   30.4560   43.7280 C   0  0  0  0  0  0  0  0  0  0  0  0
   56.3970   30.1260   42.4270 O   0  0  0  0  0  0  0  0  0  0  0  0
   56.0370   30.0350   44.7340 N   0  0  0  0  0  0  0  0  0  0  0  0
   55.1440   28.9860   44.5150 O   0  0  0  0  0  0  0  0  0  0  0  0
   60.3162   35.3165   46.0040 H   0  0  0  0  0  0  0  0  0  0  0  0
   59.2414   34.0160   46.8891 H   0  0  0  0  0  0  0  0  0  0  0  0
   58.9778   35.1040   44.0334 H   0  0  0  0  0  0  0  0  0  0  0  0
   57.5021   32.9091   45.7087 H   0  0  0  0  0  0  0  0  0  0  0  0
   56.5994   34.1088   44.7622 H   0  0  0  0  0  0  0  0  0  0  0  0
   56.8802   32.8052   42.9322 H   0  0  0  0  0  0  0  0  0  0  0  0
   58.6597   33.0840   43.0635 H   0  0  0  0  0  0  0  0  0  0  0  0
   58.7540   30.8983   43.2819 H   0  0  0  0  0  0  0  0  0  0  0  0
   59.1145   31.9779   45.6023 H   0  0  0  0  0  0  0  0  0  0  0  0
   57.4538   31.3602   45.9997 H   0  0  0  0  0  0  0  0  0  0  0  0
   60.1209   29.6506   43.9922 H   0  0  0  0  0  0  0  0  0  0  0  0
   61.0432   27.4506   44.6034 H   0  0  0  0  0  0  0  0  0  0  0  0
   60.3732   26.3743   46.7442 H   0  0  0  0  0  0  0  0  0  0  0  0
   58.7672   27.5490   48.2488 H   0  0  0  0  0  0  0  0  0  0  0  0
   57.8611   29.7491   47.6134 H   0  0  0  0  0  0  0  0  0  0  0  0
   55.5420   29.6160   42.2170 H   0  0  0  0  0  0  0  0  0  0  0  0
   55.1930   28.5980   43.5660 H   0  0  0  0  0  0  0  0  0  0  0  0
  1  2  2  0
  2  3  1  0
  3  4  1  0
  4  5  1  0
  5  6  1  0
  6  7  1  0
  7  8  2  0
  8  9  1  0
  9 10  2  0
 10 11  1  0
 11 12  2  0
  5 13  1  0
 13 14  1  0
 13 15  2  0
 15 16  1  0
 12  7  1  0
  1 17  1  0
  1 18  1  0
  2 19  1  0
  3 20  1  0
  3 21  1  0
  4 22  1  0
  4 23  1  0
  5 24  1  6
  6 25  1  0
  6 26  1  0
  8 27  1  0
  9 28  1  0
 10 29  1  0
 11 30  1  0
 12 31  1  0
 14 32  1  0
 16 33  1  0
M  END
>  <smiles>  (25) 
C=CCCC(Cc1ccccc1)C(O)=NO

>  <score_type>  (25) 
oracle

>  <origin>  (25) 
adg

>  <m_score__min__energy>  (25) 
-7.8300000000000001

>  <m_primary>  (25) 
energy

$$$$
25:0
     RDKit          3D

 53 55  0  0  0  0  0  0  0  0999 V2000
   63.3580   33.5080   46.7610 C   0  0  0  0  0  0  0  0  0  0  0  0
   63.3150   32.4700   47.8880 C   0  0  0  0  0  0  0  0  0  0  0  0
   61.9850   32.4380   48.5720 N   0  0  0  0  0  0  0  0  0  0  0  0
   61.5500   33.8240   48.8920 C   0  0  0  0  0  0  0  0  0  0  0  0
   60.1970   33.8850   49.6200 C   0  0  0  0  0  0  0  0  0  0  0  0
   62.0320   31.6070   49.8080 C   0  0  0  0  0  0  0  0  0  0  0  0
   61.5200   30.1580   49.6280 C   0  0  0  0  0  0  0  0  0  0  0  0
   60.9760   29.8330   48.2270 C   0  0  0  0  0  0  0  0  0  0  0  0
   59.6020   30.3090   48.0470 N   0  0  0  0  0  0  0  0  0  0  0  0
   58.9230   30.2670   46.7750 C   0  0  0  0  0  0  0  0  0  0  0  0
   58.7420   31.4510   46.0300 C   0  0  0  0  0  0  0  0  0  0  0  0
   59.1700   32.7000   46.5370 C   0  0  0  0  0  0  0  0  0  0  0  0
   59.0790   33.8550   45.7630 C   0  0  0  0  0  0  0  0  0  0  0  0
   59.6460   35.3870   46.4020 Cl  0  0  0  0  0  0  0  0  0  0  0  0
   58.5720   33.7860   44.4710 C   0  0  0  0  0  0  0  0  0  0  0  0
   58.1250   32.5710   43.9570 C   0  0  0  0  0  0  0  0  0  0  0  0
   58.1590   31.3850   44.7360 C   0  0  0  0  0  0  0  0  0  0  0  0
   57.6750   30.1840   44.2490 N   0  0  0  0  0  0  0  0  0  0  0  0
   56.8410   30.1670   43.0250 C   0  0  0  0  0  0  0  0  0  0  0  0
   57.9250   29.0080   44.9300 C   0  0  0  0  0  0  0  0  0  0  0  0
   57.6440   27.7410   44.3570 C   0  0  0  0  0  0  0  0  0  0  0  0
   57.7860   26.5670   45.0980 C   0  0  0  0  0  0  0  0  0  0  0  0
   57.4120   25.0150   44.3680 Cl  0  0  0  0  0  0  0  0  0  0  0  0
   58.2090   26.6250   46.4210 C   0  0  0  0  0  0  0  0  0  0  0  0
   58.5500   27.8490   46.9890 C   0  0  0  0  0  0  0  0  0  0  0  0
   58.4800   29.0420   46.2370 C   0  0  0  0  0  0  0  0  0  0  0  0
   63.3999   34.5182   47.1943 H   0  0  0  0  0  0  0  0  0  0  0  0
   64.2499   33.3382   46.1399 H   0  0  0  0  0  0  0  0  0  0  0  0
   62.4551   33.4125   46.1399 H   0  0  0  0  0  0  0  0  0  0  0  0
   63.5195   31.4762   47.4631 H   0  0  0  0  0  0  0  0  0  0  0  0
   64.0736   32.7483   48.6344 H   0  0  0  0  0  0  0  0  0  0  0  0
   61.2610   32.0490   47.9260 H   0  0  0  0  0  0  0  0  0  0  0  0
   62.3127   34.2898   49.5334 H   0  0  0  0  0  0  0  0  0  0  0  0
   61.4298   34.3561   47.9368 H   0  0  0  0  0  0  0  0  0  0  0  0
   60.3649   33.8774   50.7071 H   0  0  0  0  0  0  0  0  0  0  0  0
   59.6695   34.8078   49.3369 H   0  0  0  0  0  0  0  0  0  0  0  0
   59.5886   33.0134   49.3369 H   0  0  0  0  0  0  0  0  0  0  0  0
   63.0758   31.5621   50.1521 H   0  0  0  0  0  0  0  0  0  0  0  0
   61.3597   32.0880   50.5336 H   0  0  0  0  0  0  0  0  0  0  0  0
   62.3540   29.4723   49.8383 H   0  0  0  0  0  0  0  0  0  0  0  0
   60.6746   30.0410   50.3220 H   0  0  0  0  0  0  0  0  0  0  0  0
   61.6197   30.3141   47.4758 H   0  0  0  0  0  0  0  0  0  0  0  0
   60.9747   28.7394   48.1086 H   0  0  0  0  0  0  0  0  0  0  0  0
   59.1690   30.8460   48.8310 H   0  0  0  0  0  0  0  0  0  0  0  0
   59.5802   32.7604   47.5559 H   0  0  0  0  0  0  0  0  0  0  0  0
   58.5235   34.6940   43.8520 H   0  0  0  0  0  0  0  0  0  0  0  0
   57.7384   32.5299   42.9280 H   0  0  0  0  0  0  0  0  0  0  0  0
   55.7777   30.1453   43.3061 H   0  0  0  0  0  0  0  0  0  0  0  0
   57.0447   31.0695   42.4300 H   0  0  0  0  0  0  0  0  0  0  0  0
   57.0813   29.2736   42.4300 H   0  0  0  0  0  0  0  0  0  0  0  0
   57.3085   27.6830   43.3110 H   0  0  0  0  0  0  0  0  0  0  0  0
   58.2742   25.7039   47.0187 H   0  0  0  0  0  0  0  0  0  0  0  0
   58.8785   27.8875   48.0381 H   0  0  0  0  0  0  0  0  0  0  0  0
  1  2  1  0
  2  3  1  0
  3  4  1  0
  4  5  1  0
  3  6  1  0
  6  7  1  0
  7  8  1  0
  8  9  1  0
  9 10  1  0
 10 11  2  0
 11 12  1  0
 12 13  2  0
 13 14  1  0
 13 15  1  0
 15 16  2  0
 16 17  1  0
 17 18  2  0
 18 19  1  0
 18 20  1  0
 20 21  2  0
 21 22  1  0
 22 23  1  0
 22 24  2  0
 24 25  1  0
 25 26  2  0
 26 10  1  0
 17 11  1  0
 26 20  1  0
  1 27  1  0
  1 28  1  0
  1 29  1  0
  2 30  1  0
  2 31  1  0
  3 32  1  0
  4 33  1  0
  4 34  1  0
  5 35  1  0
  5 36  1  0
  5 37  1  0
  6 38  1  0
  6 39  1  0
  7 40  1  0
  7 41  1  0
  8 42  1  0
  8 43  1  0
  9 44  1  0
 12 45  1  0
 15 46  1  0
 16 47  1  0
 19 48  1  0
 19 49  1  0
 19 50  1  0
 21 51  1  0
 24 52  1  0
 25 53  1  0
M  CHG  2   3   1  18   1
M  END
>  <UniqueID>  (26) 
25

>  <SMILES>  (26) 
CC[NH+](CC)CCCNc1c2cc(Cl)ccc2[n+](C)c2cc(Cl)ccc12

>  <Energy>  (26) 
80.65697342154024

>  <Genealogy>  (26) 
CC[NH+](CC)CCCNc1c2cc(Cl)ccc2[n+](C)c2cc(Cl)ccc12 (protonated)
CC[NH+](CC)CCCNc1c2cc(Cl)ccc2[n+](C)c2cc(Cl)ccc12 (3D coordinates assigned)
CC[NH+](CC)CCCNc1c2cc(Cl)ccc2[n+](C)c2cc(Cl)ccc12 (optimized conformer: 80.65697342154024 kcal/mol)

>  <smiles>  (26) 
CCN(CC)CCCNc1c2cc(Cl)ccc2[n+](C)c2cc(Cl)ccc12

>  <score_type>  (26) 
oracle

>  <origin>  (26) 
adg

>  <m_score__min__energy>  (26) 
-5.4199999999999999

>  <m_primary>  (26) 
energy

$$$$
26:0
     RDKit          3D

 37 39  0  0  0  0  0  0  0  0999 V2000
   63.3680   33.8420   46.3740 C   0  0  0  0  0  0  0  0  0  0  0  0
   63.7760   33.0180   47.5940 C   0  0  0  0  0  0  0  0  0  0  0  0
   63.3420   33.6630   48.9210 C   0  0  0  0  0  0  0  0  0  0  0  0
   62.0060   33.1310   49.4690 C   0  0  0  0  0  0  0  0  0  0  0  0
   60.9040   33.3410   48.5140 N   0  0  0  0  0  0  0  0  0  0  0  0
   60.3250   34.5850   48.4250 C   0  0  0  0  0  0  0  0  0  0  0  0
   59.2970   34.8180   47.5630 N   0  0  0  0  0  0  0  0  0  0  0  0
   58.8410   33.8050   46.7930 C   0  0  0  0  0  0  0  0  0  0  0  0
   57.6050   33.8860   45.6580 S   0  0  0  0  0  0  0  0  0  0  0  0
   57.7550   32.2650   45.2020 C   0  0  0  0  0  0  0  0  0  0  0  0
   58.7470   31.6390   45.9640 C   0  0  0  0  0  0  0  0  0  0  0  0
   59.3800   32.5360   46.8490 C   0  0  0  0  0  0  0  0  0  0  0  0
   60.4470   32.3070   47.7280 C   0  0  0  0  0  0  0  0  0  0  0  0
   60.9880   31.1690   47.7910 O   0  0  0  0  0  0  0  0  0  0  0  0
   59.1210   30.1930   45.7460 C   0  0  0  0  0  0  0  0  0  0  0  0
   58.0360   29.4330   44.9610 C   0  0  0  0  0  0  0  0  0  0  0  0
   57.5360   30.2440   43.7550 C   0  0  0  0  0  0  0  0  0  0  0  0
   56.8850   31.5590   44.2080 C   0  0  0  0  0  0  0  0  0  0  0  0
   62.9026   34.7820   46.7054 H   0  0  0  0  0  0  0  0  0  0  0  0
   64.2587   34.0672   45.7691 H   0  0  0  0  0  0  0  0  0  0  0  0
   62.6489   33.2701   45.7691 H   0  0  0  0  0  0  0  0  0  0  0  0
   63.3115   32.0238   47.5180 H   0  0  0  0  0  0  0  0  0  0  0  0
   64.8742   32.9559   47.5995 H   0  0  0  0  0  0  0  0  0  0  0  0
   64.1240   33.4715   49.6706 H   0  0  0  0  0  0  0  0  0  0  0  0
   63.1994   34.7353   48.7216 H   0  0  0  0  0  0  0  0  0  0  0  0
   62.1056   32.0536   49.6674 H   0  0  0  0  0  0  0  0  0  0  0  0
   61.7700   33.6811   50.3919 H   0  0  0  0  0  0  0  0  0  0  0  0
   60.6974   35.4032   49.0589 H   0  0  0  0  0  0  0  0  0  0  0  0
   58.8680   35.7680   47.4990 H   0  0  0  0  0  0  0  0  0  0  0  0
   60.0642   30.1505   45.1816 H   0  0  0  0  0  0  0  0  0  0  0  0
   59.2275   29.7155   46.7312 H   0  0  0  0  0  0  0  0  0  0  0  0
   58.4558   28.4817   44.6020 H   0  0  0  0  0  0  0  0  0  0  0  0
   57.1840   29.2578   45.6343 H   0  0  0  0  0  0  0  0  0  0  0  0
   58.3874   30.4721   43.0969 H   0  0  0  0  0  0  0  0  0  0  0  0
   56.7837   29.6470   43.2188 H   0  0  0  0  0  0  0  0  0  0  0  0
   56.7360   32.2085   43.3328 H   0  0  0  0  0  0  0  0  0  0  0  0
   55.9192   31.3307   44.6823 H   0  0  0  0  0  0  0  0  0  0  0  0
  1  2  1  0
  2  3  1  0
  3  4  1  0
  4  5  1  0
  5  6  1  0
  6  7  2  0
  7  8  1  0
  8  9  1  0
  9 10  1  0
 10 11  2  0
 11 12  1  0
 12 13  1  0
 13 14  2  0
 11 15  1  0
 15 16  1  0
 16 17  1  0
 17 18  1  0
 13  5  1  0
 12  8  2  0
 18 10  1  0
  1 19  1  0
  1 20  1  0
  1 21  1  0
  2 22  1  0
  2 23  1  0
  3 24  1  0
  3 25  1  0
  4 26  1  0
  4 27  1  0
  6 28  1  0
  7 29  1  0
 15 30  1  0
 15 31  1  0
 16 32  1  0
 16 33  1  0
 17 34  1  0
 17 35  1  0
 18 36  1  0
 18 37  1  0
M  CHG  1   7   1
M  END
>  <UniqueID>  (27) 
26

>  <SMILES>  (27) 
CCCCn1c[nH+]c2sc3c(c2c1=O)CCCC3

>  <Energy>  (27) 
66.24055983077697

>  <Genealogy>  (27) 
CCCCn1c[nH+]c2sc3c(c2c1=O)CCCC3 (protonated)
CCCCn1c[nH+]c2sc3c(c2c1=O)CCCC3 (3D coordinates assigned)
CCCCn1c[nH+]c2sc3c(c2c1=O)CCCC3 (nonaromatic ring conformer: 66.24055983077697 kcal/mol)

>  <smiles>  (27) 
CCCCn1cnc2sc3c(c2c1=O)CCCC3

>  <score_type>  (27) 
oracle

>  <origin>  (27) 
adg

>  <m_score__min__energy>  (27) 
-5.2400000000000002

>  <m_primary>  (27) 
energy

$$$$
27:0
     RDKit          3D

 44 46  0  0  0  0  0  0  0  0999 V2000
   64.3410   31.2080   51.5790 C   0  0  0  0  0  0  0  0  0  0  0  0
   63.9290   31.8420   50.2820 C   0  0  0  0  0  0  0  0  0  0  0  0
   64.8900   32.3580   49.4120 C   0  0  0  0  0  0  0  0  0  0  0  0
   64.5140   32.9610   48.2570 N   0  0  0  0  0  0  0  0  0  0  0  0
   63.2010   33.0990   47.9070 C   0  0  0  0  0  0  0  0  0  0  0  0
   62.8760   33.7310   46.7090 C   0  0  0  0  0  0  0  0  0  0  0  0
   61.5530   33.8880   46.3220 C   0  0  0  0  0  0  0  0  0  0  0  0
   60.4960   33.4060   47.1180 C   0  0  0  0  0  0  0  0  0  0  0  0
   59.1340   33.5380   46.7070 C   0  0  0  0  0  0  0  0  0  0  0  0
   58.7000   34.1030   45.3640 C   0  0  0  0  0  0  0  0  0  0  0  0
   57.5300   33.3060   44.7700 C   0  0  0  0  0  0  0  0  0  0  0  0
   57.9570   31.9790   44.3380 N   0  0  0  0  0  0  0  0  0  0  0  0
   57.4070   30.7600   44.8490 C   0  0  0  0  0  0  0  0  0  0  0  0
   56.1770   30.5170   44.7070 O   0  0  0  0  0  0  0  0  0  0  0  0
   58.2610   29.8030   45.5020 N   0  0  0  0  0  0  0  0  0  0  0  0
   57.6980   28.5420   45.9920 C   0  0  0  0  0  0  0  0  0  0  0  0
   59.6940   30.0840   45.6360 C   0  0  0  0  0  0  0  0  0  0  0  0
   58.1180   33.0510   47.5410 C   0  0  0  0  0  0  0  0  0  0  0  0
   58.4160   32.4550   48.7570 C   0  0  0  0  0  0  0  0  0  0  0  0
   59.7350   32.3100   49.1660 C   0  0  0  0  0  0  0  0  0  0  0  0
   60.8060   32.7690   48.3640 C   0  0  0  0  0  0  0  0  0  0  0  0
   62.1740   32.6120   48.7570 C   0  0  0  0  0  0  0  0  0  0  0  0
   62.5740   31.9850   49.9610 C   0  0  0  0  0  0  0  0  0  0  0  0
   63.9534   31.8044   52.4181 H   0  0  0  0  0  0  0  0  0  0  0  0
   63.9326   30.1881   51.6346 H   0  0  0  0  0  0  0  0  0  0  0  0
   65.4388   31.1669   51.6346 H   0  0  0  0  0  0  0  0  0  0  0  0
   65.9575   32.2753   49.6641 H   0  0  0  0  0  0  0  0  0  0  0  0
   65.2660   33.3290   47.6300 H   0  0  0  0  0  0  0  0  0  0  0  0
   63.6795   34.1109   46.0608 H   0  0  0  0  0  0  0  0  0  0  0  0
   61.3252   34.3990   45.3749 H   0  0  0  0  0  0  0  0  0  0  0  0
   58.3874   35.1488   45.5003 H   0  0  0  0  0  0  0  0  0  0  0  0
   59.5509   34.0360   44.6701 H   0  0  0  0  0  0  0  0  0  0  0  0
   56.7453   33.1990   45.5334 H   0  0  0  0  0  0  0  0  0  0  0  0
   57.1488   33.8504   43.8934 H   0  0  0  0  0  0  0  0  0  0  0  0
   57.6985   28.5431   47.0920 H   0  0  0  0  0  0  0  0  0  0  0  0
   56.6663   28.4343   45.6259 H   0  0  0  0  0  0  0  0  0  0  0  0
   58.3065   27.7020   45.6259 H   0  0  0  0  0  0  0  0  0  0  0  0
   59.9593   30.1360   46.7023 H   0  0  0  0  0  0  0  0  0  0  0  0
   60.2716   29.2820   45.1531 H   0  0  0  0  0  0  0  0  0  0  0  0
   59.9260   31.0447   45.1531 H   0  0  0  0  0  0  0  0  0  0  0  0
   57.0681   33.1431   47.2259 H   0  0  0  0  0  0  0  0  0  0  0  0
   57.6015   32.0944   49.4024 H   0  0  0  0  0  0  0  0  0  0  0  0
   59.9511   31.8293   50.1315 H   0  0  0  0  0  0  0  0  0  0  0  0
   61.8094   31.6047   50.6543 H   0  0  0  0  0  0  0  0  0  0  0  0
  1  2  1  0
  2  3  2  0
  3  4  1  0
  4  5  2  0
  5  6  1  0
  6  7  2  0
  7  8  1  0
  8  9  2  0
  9 10  1  0
 10 11  1  0
 11 12  1  0
 12 13  1  0
 13 14  2  0
 13 15  1  0
 15 16  1  0
 15 17  1  0
  9 18  1  0
 18 19  2  0
 19 20  1  0
 20 21  2  0
 21 22  1  0
 22 23  2  0
 23  2  1  0
 22  5  1  0
 21  8  1  0
  1 24  1  0
  1 25  1  0
  1 26  1  0
  3 27  1  0
  4 28  1  0
  6 29  1  0
  7 30  1  0
 10 31  1  0
 10 32  1  0
 11 33  1  0
 11 34  1  0
 16 35  1  0
 16 36  1  0
 16 37  1  0
 17 38  1  0
 17 39  1  0
 17 40  1  0
 18 41  1  0
 19 42  1  0
 20 43  1  0
 23 44  1  0
M  CHG  2   4   1  12  -1
M  END
>  <UniqueID>  (28) 
27

>  <SMILES>  (28) 
Cc1c[nH+]c2ccc3c(CC[N-]C(=O)N(C)C)cccc3c2c1

>  <Energy>  (28) 
51.68664624699375

>  <Genealogy>  (28) 
Cc1c[nH+]c2ccc3c(CC[N-]C(=O)N(C)C)cccc3c2c1 (protonated)
Cc1c[nH+]c2ccc3c(CC[N-]C(=O)N(C)C)cccc3c2c1 (3D coordinates assigned)
Cc1c[nH+]c2ccc3c(CC[N-]C(=O)N(C)C)cccc3c2c1 (optimized conformer: 51.68664624699375 kcal/mol)

>  <smiles>  (28) 
Cc1cnc2ccc3c(CCNC(=O)N(C)C)cccc3c2c1

>  <score_type>  (28) 
oracle

>  <origin>  (28) 
adg

>  <m_score__min__energy>  (28) 
-8.3800000000000008

>  <m_primary>  (28) 
energy

$$$$
28:0
     RDKit          3D

 64 66  0  0  0  0  0  0  0  0999 V2000
   58.9190   33.0290   51.5840 C   0  0  0  0  0  0  0  0  0  0  0  0
   60.3400   32.5180   51.8050 C   0  0  0  0  0  0  0  0  0  0  0  0
   60.6550   31.4360   50.8610 N   0  0  0  0  0  0  0  0  0  0  0  0
   59.6280   30.3780   50.8110 C   0  0  0  0  0  0  0  0  0  0  0  0
   58.9710   30.2240   49.4230 C   0  0  0  0  0  0  0  0  0  0  0  0
   59.7950   30.7880   48.3500 N   0  0  0  0  0  0  0  0  0  0  0  0
   59.2120   31.0500   47.0650 C   0  0  0  0  0  0  0  0  0  0  0  0
   58.6250   29.9870   46.3530 C   0  0  0  0  0  0  0  0  0  0  0  0
   58.4980   28.7060   46.9350 C   0  0  0  0  0  0  0  0  0  0  0  0
   57.8930   27.6630   46.2370 C   0  0  0  0  0  0  0  0  0  0  0  0
   57.3940   27.8790   44.9600 C   0  0  0  0  0  0  0  0  0  0  0  0
   57.5090   29.1340   44.3650 C   0  0  0  0  0  0  0  0  0  0  0  0
   58.1490   30.2070   45.0360 C   0  0  0  0  0  0  0  0  0  0  0  0
   58.2980   31.4460   44.4460 N   0  0  0  0  0  0  0  0  0  0  0  0
   58.1040   31.5950   42.9870 C   0  0  0  0  0  0  0  0  0  0  0  0
   58.6530   32.5400   45.2140 C   0  0  0  0  0  0  0  0  0  0  0  0
   58.4950   33.8550   44.7210 C   0  0  0  0  0  0  0  0  0  0  0  0
   58.8770   34.9560   45.4760 C   0  0  0  0  0  0  0  0  0  0  0  0
   59.4250   34.7820   46.7360 C   0  0  0  0  0  0  0  0  0  0  0  0
   59.5970   33.4990   47.2790 C   0  0  0  0  0  0  0  0  0  0  0  0
   60.1630   33.3390   48.5560 O   0  0  0  0  0  0  0  0  0  0  0  0
   61.0540   34.2490   49.2070 C   0  0  0  0  0  0  0  0  0  0  0  0
   62.5070   33.7690   49.0970 C   0  0  0  0  0  0  0  0  0  0  0  0
   62.5700   32.3310   48.7350 N   0  0  0  0  0  0  0  0  0  0  0  0
   63.5370   31.6120   49.5960 C   0  0  0  0  0  0  0  0  0  0  0  0
   64.8060   32.4430   49.7710 C   0  0  0  0  0  0  0  0  0  0  0  0
   62.8980   32.1700   47.2990 C   0  0  0  0  0  0  0  0  0  0  0  0
   63.3590   33.4930   46.6820 C   0  0  0  0  0  0  0  0  0  0  0  0
   59.1640   32.3610   46.5350 C   0  0  0  0  0  0  0  0  0  0  0  0
   58.4363   33.2026   52.5571 H   0  0  0  0  0  0  0  0  0  0  0  0
   58.9522   33.9715   51.0178 H   0  0  0  0  0  0  0  0  0  0  0  0
   58.3443   32.2812   51.0178 H   0  0  0  0  0  0  0  0  0  0  0  0
   61.0489   33.3457   51.6554 H   0  0  0  0  0  0  0  0  0  0  0  0
   60.4204   32.1278   52.8303 H   0  0  0  0  0  0  0  0  0  0  0  0
   60.8160   31.8400   49.9090 H   0  0  0  0  0  0  0  0  0  0  0  0
   60.0997   29.4217   51.0812 H   0  0  0  0  0  0  0  0  0  0  0  0
   58.8333   30.6645   51.5155 H   0  0  0  0  0  0  0  0  0  0  0  0
   58.8144   29.1538   49.2229 H   0  0  0  0  0  0  0  0  0  0  0  0
   58.0186   30.7742   49.4394 H   0  0  0  0  0  0  0  0  0  0  0  0
   60.7120   31.2400   48.5620 H   0  0  0  0  0  0  0  0  0  0  0  0
   58.8812   28.5300   47.9510 H   0  0  0  0  0  0  0  0  0  0  0  0
   57.8108   26.6678   46.6982 H   0  0  0  0  0  0  0  0  0  0  0  0
   56.9062   27.0569   44.4158 H   0  0  0  0  0  0  0  0  0  0  0  0
   57.0965   29.2950   43.3581 H   0  0  0  0  0  0  0  0  0  0  0  0
   57.2447   32.2549   42.7969 H   0  0  0  0  0  0  0  0  0  0  0  0
   59.0086   32.0327   42.5396 H   0  0  0  0  0  0  0  0  0  0  0  0
   57.9144   30.6081   42.5396 H   0  0  0  0  0  0  0  0  0  0  0  0
   58.0618   34.0090   43.7217 H   0  0  0  0  0  0  0  0  0  0  0  0
   58.7439   35.9703   45.0718 H   0  0  0  0  0  0  0  0  0  0  0  0
   59.7301   35.6627   47.3202 H   0  0  0  0  0  0  0  0  0  0  0  0
   60.9654   35.2387   48.7352 H   0  0  0  0  0  0  0  0  0  0  0  0
   60.7827   34.3040   50.2716 H   0  0  0  0  0  0  0  0  0  0  0  0
   63.0217   34.3570   48.3228 H   0  0  0  0  0  0  0  0  0  0  0  0
   62.9940   33.9045   50.0740 H   0  0  0  0  0  0  0  0  0  0  0  0
   63.0821   31.4313   50.5811 H   0  0  0  0  0  0  0  0  0  0  0  0
   63.7974   30.6544   49.1215 H   0  0  0  0  0  0  0  0  0  0  0  0
   65.0113   32.5774   50.8433 H   0  0  0  0  0  0  0  0  0  0  0  0
   65.6525   31.9237   49.2979 H   0  0  0  0  0  0  0  0  0  0  0  0
   64.6684   33.4265   49.2979 H   0  0  0  0  0  0  0  0  0  0  0  0
   63.7027   31.4271   47.1964 H   0  0  0  0  0  0  0  0  0  0  0  0
   61.9920   31.8378   46.7711 H   0  0  0  0  0  0  0  0  0  0  0  0
   63.6070   34.2046   47.4833 H   0  0  0  0  0  0  0  0  0  0  0  0
   64.2488   33.3170   46.0597 H   0  0  0  0  0  0  0  0  0  0  0  0
   62.5525   33.9081   46.0597 H   0  0  0  0  0  0  0  0  0  0  0  0
  1  2  1  0
  2  3  1  0
  3  4  1  0
  4  5  1  0
  5  6  1  0
  6  7  1  0
  7  8  2  0
  8  9  1  0
  9 10  2  0
 10 11  1  0
 11 12  2  0
 12 13  1  0
 13 14  2  0
 14 15  1  0
 14 16  1  0
 16 17  2  0
 17 18  1  0
 18 19  2  0
 19 20  1  0
 20 21  1  0
 21 22  1  0
 22 23  1  0
 23 24  1  0
 24 25  1  0
 25 26  1  0
 24 27  1  0
 27 28  1  0
 20 29  2  0
 29  7  1  0
 13  8  1  0
 29 16  1  0
  1 30  1  0
  1 31  1  0
  1 32  1  0
  2 33  1  0
  2 34  1  0
  3 35  1  0
  4 36  1  0
  4 37  1  0
  5 38  1  0
  5 39  1  0
  6 40  1  0
  9 41  1  0
 10 42  1  0
 11 43  1  0
 12 44  1  0
 15 45  1  0
 15 46  1  0
 15 47  1  0
 17 48  1  0
 18 49  1  0
 19 50  1  0
 22 51  1  0
 22 52  1  0
 23 53  1  0
 23 54  1  0
 25 55  1  0
 25 56  1  0
 26 57  1  0
 26 58  1  0
 26 59  1  0
 27 60  1  0
 27 61  1  0
 28 62  1  0
 28 63  1  0
 28 64  1  0
M  CHG  1  14   1
M  END
>  <UniqueID>  (29) 
28

>  <SMILES>  (29) 
CCNCCNc1c2ccccc2[n+](C)c2cccc(OCCN(CC)CC)c12

>  <Energy>  (29) 
89.46704432346382

>  <Genealogy>  (29) 
CCNCCNc1c2ccccc2[n+](C)c2cccc(OCCN(CC)CC)c12 (3D coordinates assigned)
CCNCCNc1c2ccccc2[n+](C)c2cccc(OCCN(CC)CC)c12 (optimized conformer: 89.46704432346382 kcal/mol)

>  <smiles>  (29) 
CCNCCNc1c2ccccc2[n+](C)c2cccc(OCCN(CC)CC)c12

>  <score_type>  (29) 
oracle

>  <origin>  (29) 
adg

>  <m_score__min__energy>  (29) 
-4.8600000000000003

>  <m_primary>  (29) 
energy

$$$$
29:0
     RDKit          3D

 64 65  0  0  0  0  0  0  0  0999 V2000
   61.2620   30.8720   47.1120 C   0  0  0  0  0  0  0  0  0  0  0  0
   61.1550   30.3920   48.5590 C   0  0  0  0  0  0  0  0  0  0  0  0
   59.7560   30.0690   48.9120 N   0  0  0  0  0  0  0  0  0  0  0  0
   59.1730   28.9780   48.0970 C   0  0  0  0  0  0  0  0  0  0  0  0
   58.2520   29.5810   47.0280 C   0  0  0  0  0  0  0  0  0  0  0  0
   57.8870   28.5750   45.9210 C   0  0  0  0  0  0  0  0  0  0  0  0
   56.8930   29.1390   44.8970 C   0  0  0  0  0  0  0  0  0  0  0  0
   56.9300   30.6090   44.9100 N   0  0  0  0  0  0  0  0  0  0  0  0
   58.0090   31.1620   44.0760 C   0  0  0  0  0  0  0  0  0  0  0  0
   57.7910   32.6350   43.6600 C   0  0  0  0  0  0  0  0  0  0  0  0
   57.2470   33.5390   44.7800 C   0  0  0  0  0  0  0  0  0  0  0  0
   58.2410   33.7220   45.8990 C   0  0  0  0  0  0  0  0  0  0  0  0
   58.0020   33.1460   47.1560 C   0  0  0  0  0  0  0  0  0  0  0  0
   58.9320   33.2930   48.1900 C   0  0  0  0  0  0  0  0  0  0  0  0
   60.1200   34.0190   47.9780 C   0  0  0  0  0  0  0  0  0  0  0  0
   61.0800   34.1980   48.9830 O   0  0  0  0  0  0  0  0  0  0  0  0
   62.4360   33.7750   48.8870 C   0  0  0  0  0  0  0  0  0  0  0  0
   60.3580   34.5860   46.7200 C   0  0  0  0  0  0  0  0  0  0  0  0
   59.4280   34.4400   45.6880 C   0  0  0  0  0  0  0  0  0  0  0  0
   59.5490   29.8970   50.3720 C   0  0  0  0  0  0  0  0  0  0  0  0
   58.9890   31.1320   51.0670 C   0  0  0  0  0  0  0  0  0  0  0  0
   59.7320   32.3290   51.0500 C   0  0  0  0  0  0  0  0  0  0  0  0
   59.2610   33.4670   51.7050 C   0  0  0  0  0  0  0  0  0  0  0  0
   58.0390   33.4340   52.3740 C   0  0  0  0  0  0  0  0  0  0  0  0
   57.2680   32.2710   52.3670 C   0  0  0  0  0  0  0  0  0  0  0  0
   57.7210   31.1150   51.6960 C   0  0  0  0  0  0  0  0  0  0  0  0
   56.9320   29.9560   51.6230 O   0  0  0  0  0  0  0  0  0  0  0  0
   56.2030   29.4030   52.7130 C   0  0  0  0  0  0  0  0  0  0  0  0
   61.5013   31.9456   47.0986 H   0  0  0  0  0  0  0  0  0  0  0  0
   62.0575   30.3125   46.5980 H   0  0  0  0  0  0  0  0  0  0  0  0
   60.3042   30.7034   46.5980 H   0  0  0  0  0  0  0  0  0  0  0  0
   61.7742   29.4916   48.6853 H   0  0  0  0  0  0  0  0  0  0  0  0
   61.5044   31.1983   49.2207 H   0  0  0  0  0  0  0  0  0  0  0  0
   59.9803   28.4116   47.6096 H   0  0  0  0  0  0  0  0  0  0  0  0
   58.5940   28.3031   48.7445 H   0  0  0  0  0  0  0  0  0  0  0  0
   57.3254   29.9215   47.5134 H   0  0  0  0  0  0  0  0  0  0  0  0
   58.7933   30.4134   46.5547 H   0  0  0  0  0  0  0  0  0  0  0  0
   58.8078   28.2869   45.3927 H   0  0  0  0  0  0  0  0  0  0  0  0
   57.4036   27.7146   46.4069 H   0  0  0  0  0  0  0  0  0  0  0  0
   57.1610   28.7776   43.8932 H   0  0  0  0  0  0  0  0  0  0  0  0
   55.8787   28.8031   45.1586 H   0  0  0  0  0  0  0  0  0  0  0  0
   57.0170   30.9490   45.8950 H   0  0  0  0  0  0  0  0  0  0  0  0
   58.9504   31.0981   44.6414 H   0  0  0  0  0  0  0  0  0  0  0  0
   58.0300   30.5697   43.1493 H   0  0  0  0  0  0  0  0  0  0  0  0
   58.7558   33.0443   43.3259 H   0  0  0  0  0  0  0  0  0  0  0  0
   57.0298   32.6271   42.8660 H   0  0  0  0  0  0  0  0  0  0  0  0
   57.0075   34.5247   44.3545 H   0  0  0  0  0  0  0  0  0  0  0  0
   56.3525   33.0553   45.1993 H   0  0  0  0  0  0  0  0  0  0  0  0
   57.0776   32.5754   47.3291 H   0  0  0  0  0  0  0  0  0  0  0  0
   58.7348   32.8398   49.1727 H   0  0  0  0  0  0  0  0  0  0  0  0
   62.8520   33.6452   49.8970 H   0  0  0  0  0  0  0  0  0  0  0  0
   62.4844   32.8191   48.3449 H   0  0  0  0  0  0  0  0  0  0  0  0
   63.0193   34.5339   48.3449 H   0  0  0  0  0  0  0  0  0  0  0  0
   61.2850   35.1511   46.5430 H   0  0  0  0  0  0  0  0  0  0  0  0
   59.6273   34.8904   44.7044 H   0  0  0  0  0  0  0  0  0  0  0  0
   58.8466   29.0646   50.5263 H   0  0  0  0  0  0  0  0  0  0  0  0
   60.5377   29.7035   50.8136 H   0  0  0  0  0  0  0  0  0  0  0  0
   60.6925   32.3665   50.5152 H   0  0  0  0  0  0  0  0  0  0  0  0
   59.8555   34.3924   51.6934 H   0  0  0  0  0  0  0  0  0  0  0  0
   57.6815   34.3264   52.9086 H   0  0  0  0  0  0  0  0  0  0  0  0
   56.2996   32.2551   52.8885 H   0  0  0  0  0  0  0  0  0  0  0  0
   56.6480   29.7406   53.6606 H   0  0  0  0  0  0  0  0  0  0  0  0
   55.1560   29.7361   52.6604 H   0  0  0  0  0  0  0  0  0  0  0  0
   56.2416   28.3049   52.6604 H   0  0  0  0  0  0  0  0  0  0  0  0
  1  2  1  0
  2  3  1  0
  3  4  1  0
  4  5  1  0
  5  6  1  0
  6  7  1  0
  7  8  1  0
  8  9  1  0
  9 10  1  0
 10 11  1  0
 11 12  1  0
 12 13  2  0
 13 14  1  0
 14 15  2  0
 15 16  1  0
 16 17  1  0
 15 18  1  0
 18 19  2  0
  3 20  1  0
 20 21  1  0
 21 22  2  0
 22 23  1  0
 23 24  2  0
 24 25  1  0
 25 26  2  0
 26 27  1  0
 27 28  1  0
 19 12  1  0
 26 21  1  0
  1 29  1  0
  1 30  1  0
  1 31  1  0
  2 32  1  0
  2 33  1  0
  4 34  1  0
  4 35  1  0
  5 36  1  0
  5 37  1  0
  6 38  1  0
  6 39  1  0
  7 40  1  0
  7 41  1  0
  8 42  1  0
  9 43  1  0
  9 44  1  0
 10 45  1  0
 10 46  1  0
 11 47  1  0
 11 48  1  0
 13 49  1  0
 14 50  1  0
 17 51  1  0
 17 52  1  0
 17 53  1  0
 18 54  1  0
 19 55  1  0
 20 56  1  0
 20 57  1  0
 22 58  1  0
 23 59  1  0
 24 60  1  0
 25 61  1  0
 28 62  1  0
 28 63  1  0
 28 64  1  0
M  END
>  <UniqueID>  (30) 
29

>  <SMILES>  (30) 
CCN(CCCCNCCCc1ccc(OC)cc1)Cc1ccccc1OC

>  <Energy>  (30) 
59.14666183836244

>  <Genealogy>  (30) 
CCN(CCCCNCCCc1ccc(OC)cc1)Cc1ccccc1OC (3D coordinates assigned)
CCN(CCCCNCCCc1ccc(OC)cc1)Cc1ccccc1OC (optimized conformer: 59.14666183836244 kcal/mol)

>  <smiles>  (30) 
CCN(CCCCNCCCc1ccc(OC)cc1)Cc1ccccc1OC

>  <score_type>  (30) 
oracle

>  <origin>  (30) 
adg

>  <m_score__min__energy>  (30) 
-7.21

>  <m_primary>  (30) 
energy

$$$$
30:0
     RDKit          3D

 36 37  0  0  0  0  0  0  0  0999 V2000
   55.8910   29.6910   44.9380 O   0  0  0  0  0  0  0  0  0  0  0  0
   57.3460   29.8000   45.2980 S   0  0  0  0  0  0  0  0  0  0  0  0
   57.5490   29.1320   46.6290 O   0  0  0  0  0  0  0  0  0  0  0  0
   58.2870   28.9730   44.0850 N   0  0  0  0  0  0  0  0  0  0  0  0
   59.6190   28.6020   44.5690 C   0  0  0  0  0  0  0  0  0  0  0  0
   59.5860   27.2490   45.3170 C   0  0  0  0  0  0  0  0  0  0  0  0
   58.2280   26.6980   45.5550 N   0  0  0  0  0  0  0  0  0  0  0  0
   57.7550   25.8390   44.4440 C   0  0  0  0  0  0  0  0  0  0  0  0
   56.4960   25.0440   44.8470 C   0  0  0  0  0  0  0  0  0  0  0  0
   55.8290   25.6730   45.9220 O   0  0  0  0  0  0  0  0  0  0  0  0
   56.6220   25.6000   47.0970 C   0  0  0  0  0  0  0  0  0  0  0  0
   58.0950   26.0070   46.8530 C   0  0  0  0  0  0  0  0  0  0  0  0
   57.7690   31.5100   45.4100 C   0  0  0  0  0  0  0  0  0  0  0  0
   57.3990   32.4030   44.3930 C   0  0  0  0  0  0  0  0  0  0  0  0
   57.7070   33.7630   44.5080 C   0  0  0  0  0  0  0  0  0  0  0  0
   58.3830   34.2350   45.6370 C   0  0  0  0  0  0  0  0  0  0  0  0
   58.7500   33.3490   46.6540 C   0  0  0  0  0  0  0  0  0  0  0  0
   59.6660   33.9960   48.2010 Br  0  0  0  0  0  0  0  0  0  0  0  0
   58.4420   31.9880   46.5420 C   0  0  0  0  0  0  0  0  0  0  0  0
   60.3027   28.5210   43.7111 H   0  0  0  0  0  0  0  0  0  0  0  0
   59.9639   29.3780   45.2682 H   0  0  0  0  0  0  0  0  0  0  0  0
   60.1524   26.5166   44.7231 H   0  0  0  0  0  0  0  0  0  0  0  0
   60.0212   27.4353   46.3099 H   0  0  0  0  0  0  0  0  0  0  0  0
   57.5880   27.5300   45.5860 H   0  0  0  0  0  0  0  0  0  0  0  0
   57.5162   26.4731   43.5775 H   0  0  0  0  0  0  0  0  0  0  0  0
   58.5524   25.1234   44.1947 H   0  0  0  0  0  0  0  0  0  0  0  0
   55.8153   24.9851   43.9850 H   0  0  0  0  0  0  0  0  0  0  0  0
   56.8015   24.0356   45.1628 H   0  0  0  0  0  0  0  0  0  0  0  0
   56.1921   26.2731   47.8534 H   0  0  0  0  0  0  0  0  0  0  0  0
   56.6193   24.5528   47.4337 H   0  0  0  0  0  0  0  0  0  0  0  0
   58.4233   26.6809   47.6580 H   0  0  0  0  0  0  0  0  0  0  0  0
   58.7190   25.1012   46.8415 H   0  0  0  0  0  0  0  0  0  0  0  0
   56.8662   32.0335   43.5044 H   0  0  0  0  0  0  0  0  0  0  0  0
   57.4170   34.4615   43.7093 H   0  0  0  0  0  0  0  0  0  0  0  0
   58.6262   35.3042   45.7251 H   0  0  0  0  0  0  0  0  0  0  0  0
   58.7290   31.2925   47.3444 H   0  0  0  0  0  0  0  0  0  0  0  0
  1  2  2  0
  2  3  2  0
  2  4  1  0
  4  5  1  0
  5  6  1  0
  6  7  1  0
  7  8  1  0
  8  9  1  0
  9 10  1  0
 10 11  1  0
 11 12  1  0
  2 13  1  0
 13 14  2  0
 14 15  1  0
 15 16  2  0
 16 17  1  0
 17 18  1  0
 17 19  2  0
 12  7  1  0
 19 13  1  0
  5 20  1  0
  5 21  1  0
  6 22  1  0
  6 23  1  0
  7 24  1  0
  8 25  1  0
  8 26  1  0
  9 27  1  0
  9 28  1  0
 11 29  1  0
 11 30  1  0
 12 31  1  0
 12 32  1  0
 14 33  1  0
 15 34  1  0
 16 35  1  0
 19 36  1  0
M  CHG  2   4  -1   7   1
M  END
>  <UniqueID>  (31) 
30

>  <SMILES>  (31) 
O=S(=O)([N-]CC[NH+]1CCOCC1)c1cccc(Br)c1

>  <Energy>  (31) 
46.95417221308102

>  <Genealogy>  (31) 
O=S(=O)([N-]CC[NH+]1CCOCC1)c1cccc(Br)c1 (protonated)
O=S(=O)([N-]CC[NH+]1CCOCC1)c1cccc(Br)c1 (3D coordinates assigned)
O=S(=O)([N-]CC[NH+]1CCOCC1)c1cccc(Br)c1 (nonaromatic ring conformer: 46.95417221308102 kcal/mol)

>  <smiles>  (31) 
O=S(=O)(NCCN1CCOCC1)c1cccc(Br)c1

>  <score_type>  (31) 
oracle

>  <origin>  (31) 
adg

>  <m_score__min__energy>  (31) 
-6.3499999999999996

>  <m_primary>  (31) 
energy

$$$$
31:0
     RDKit          3D

 53 56  0  0  0  0  0  0  0  0999 V2000
   60.0490   31.0790   49.9530 C   0  0  0  0  0  0  0  0  0  0  0  0
   60.6150   29.6640   50.0070 C   0  0  0  0  0  0  0  0  0  0  0  0
   59.9950   28.7980   48.9430 C   0  0  0  0  0  0  0  0  0  0  0  0
   60.6960   27.6940   48.4330 C   0  0  0  0  0  0  0  0  0  0  0  0
   60.1240   26.8920   47.4420 C   0  0  0  0  0  0  0  0  0  0  0  0
   58.8460   27.1840   46.9420 C   0  0  0  0  0  0  0  0  0  0  0  0
   58.2650   26.3670   45.9040 N   0  0  0  0  0  0  0  0  0  0  0  0
   58.1790   26.8270   44.6010 C   0  0  0  0  0  0  0  0  0  0  0  0
   58.7130   28.4860   44.1330 S   0  0  0  0  0  0  0  0  0  0  0  0
   57.1060   28.9830   43.4230 C   0  0  0  0  0  0  0  0  0  0  0  0
   56.2780   29.6870   44.4460 C   0  0  0  0  0  0  0  0  0  0  0  0
   55.5470   29.0140   45.2200 O   0  0  0  0  0  0  0  0  0  0  0  0
   56.4050   31.1070   44.5910 N   0  0  0  0  0  0  0  0  0  0  0  0
   57.5100   31.8270   45.1580 C   0  0  0  0  0  0  0  0  0  0  0  0
   57.6370   33.2240   45.0490 C   0  0  0  0  0  0  0  0  0  0  0  0
   58.7130   33.8810   45.6510 C   0  0  0  0  0  0  0  0  0  0  0  0
   59.6700   33.1600   46.3740 C   0  0  0  0  0  0  0  0  0  0  0  0
   60.7620   33.8650   46.9800 N   0  0  0  0  0  0  0  0  0  0  0  0
   62.1360   33.4560   46.9790 C   0  0  0  0  0  0  0  0  0  0  0  0
   62.5990   32.2280   47.7030 C   0  0  0  0  0  0  0  0  0  0  0  0
   62.9840   34.1690   46.3810 O   0  0  0  0  0  0  0  0  0  0  0  0
   59.5810   31.7610   46.4250 C   0  0  0  0  0  0  0  0  0  0  0  0
   58.5080   31.1020   45.8190 C   0  0  0  0  0  0  0  0  0  0  0  0
   57.6700   26.0280   43.6170 N   0  0  0  0  0  0  0  0  0  0  0  0
   57.2300   24.7850   43.9150 C   0  0  0  0  0  0  0  0  0  0  0  0
   56.6870   23.8810   43.0000 C   0  0  0  0  0  0  0  0  0  0  0  0
   56.3200   22.6770   43.6000 C   0  0  0  0  0  0  0  0  0  0  0  0
   56.6760   22.7510   45.2550 S   0  0  0  0  0  0  0  0  0  0  0  0
   57.2910   24.3130   45.2020 C   0  0  0  0  0  0  0  0  0  0  0  0
   57.8180   25.1030   46.2140 C   0  0  0  0  0  0  0  0  0  0  0  0
   57.8950   24.6510   47.3890 O   0  0  0  0  0  0  0  0  0  0  0  0
   58.1600   28.3090   47.4270 C   0  0  0  0  0  0  0  0  0  0  0  0
   58.7290   29.1090   48.4220 C   0  0  0  0  0  0  0  0  0  0  0  0
   59.8993   31.4533   50.9765 H   0  0  0  0  0  0  0  0  0  0  0  0
   60.7536   31.7357   49.4218 H   0  0  0  0  0  0  0  0  0  0  0  0
   59.0858   31.0686   49.4218 H   0  0  0  0  0  0  0  0  0  0  0  0
   61.7030   29.7048   49.8498 H   0  0  0  0  0  0  0  0  0  0  0  0
   60.3858   29.2304   50.9916 H   0  0  0  0  0  0  0  0  0  0  0  0
   61.7003   27.4591   48.8153 H   0  0  0  0  0  0  0  0  0  0  0  0
   60.6791   26.0264   47.0514 H   0  0  0  0  0  0  0  0  0  0  0  0
   57.2795   29.6572   42.5713 H   0  0  0  0  0  0  0  0  0  0  0  0
   56.5701   28.0819   43.0902 H   0  0  0  0  0  0  0  0  0  0  0  0
   56.8868   33.8007   44.4881 H   0  0  0  0  0  0  0  0  0  0  0  0
   58.8086   34.9727   45.5560 H   0  0  0  0  0  0  0  0  0  0  0  0
   62.5355   32.3963   48.7882 H   0  0  0  0  0  0  0  0  0  0  0  0
   61.9602   31.3764   47.4261 H   0  0  0  0  0  0  0  0  0  0  0  0
   63.6410   32.0101   47.4261 H   0  0  0  0  0  0  0  0  0  0  0  0
   60.3584   31.1808   46.9437 H   0  0  0  0  0  0  0  0  0  0  0  0
   58.4473   30.0045   45.8619 H   0  0  0  0  0  0  0  0  0  0  0  0
   56.5629   24.0943   41.9280 H   0  0  0  0  0  0  0  0  0  0  0  0
   55.8712   21.8167   43.0818 H   0  0  0  0  0  0  0  0  0  0  0  0
   57.1692   28.5622   47.0217 H   0  0  0  0  0  0  0  0  0  0  0  0
   58.1824   29.9862   48.7985 H   0  0  0  0  0  0  0  0  0  0  0  0
  1  2  1  0
  2  3  1  0
  3  4  2  0
  4  5  1  0
  5  6  2  0
  6  7  1  0
  7  8  1  0
  8  9  1  0
  9 10  1  0
 10 11  1  0
 11 12  2  0
 11 13  1  0
 13 14  1  0
 14 15  2  0
 15 16  1  0
 16 17  2  0
 17 18  1  0
 18 19  1  0
 19 20  1  0
 19 21  2  0
 17 22  1  0
 22 23  2  0
  8 24  2  0
 24 25  1  0
 25 26  1  0
 26 27  2  0
 27 28  1  0
 28 29  1  0
 29 30  1  0
 30 31  2  0
  6 32  1  0
 32 33  2  0
 33  3  1  0
 30  7  1  0
 23 14  1  0
 29 25  2  0
  1 34  1  0
  1 35  1  0
  1 36  1  0
  2 37  1  0
  2 38  1  0
  4 39  1  0
  5 40  1  0
 10 41  1  0
 10 42  1  0
 15 43  1  0
 16 44  1  0
 20 45  1  0
 20 46  1  0
 20 47  1  0
 22 48  1  0
 23 49  1  0
 26 50  1  0
 27 51  1  0
 32 52  1  0
 33 53  1  0
M  CHG  2  13  -1  18  -1
M  END
>  <UniqueID>  (32) 
31

>  <SMILES>  (32) 
CCc1ccc(-n2c(SCC(=O)[N-]c3ccc([N-]C(C)=O)cc3)nc3ccsc3c2=O)cc1

>  <Energy>  (32) 
92.64117221134195

>  <Genealogy>  (32) 
CCc1ccc(-n2c(SCC(=O)[N-]c3ccc([N-]C(C)=O)cc3)nc3ccsc3c2=O)cc1 (protonated)
CCc1ccc(-n2c(SCC(=O)[N-]c3ccc([N-]C(C)=O)cc3)nc3ccsc3c2=O)cc1 (3D coordinates assigned)
CCc1ccc(-n2c(SCC(=O)[N-]c3ccc([N-]C(C)=O)cc3)nc3ccsc3c2=O)cc1 (optimized conformer: 92.64117221134195 kcal/mol)

>  <smiles>  (32) 
CCc1ccc(-n2c(SCC(=O)Nc3ccc(NC(C)=O)cc3)nc3ccsc3c2=O)cc1

>  <score_type>  (32) 
oracle

>  <origin>  (32) 
adg

>  <m_score__min__energy>  (32) 
-11.619999999999999

>  <m_primary>  (32) 
energy

$$$$
