0:0
     RDKit          3D

 46 48  0  0  0  0  0  0  0  0999 V2000
   56.5660   30.1150   42.9360 C   0  0  0  0  0  0  0  0  0  0  0  0
   55.5480   30.0520   44.0680 C   0  0  0  0  0  0  0  0  0  0  0  0
   55.8790   28.9510   44.9800 N   0  0  0  0  0  0  0  0  0  0  0  0
   57.1740   28.3610   44.6260 C   0  0  0  0  0  0  0  0  0  0  0  0
   58.2530   28.8190   45.6120 C   0  0  0  0  0  0  0  0  0  0  0  0
   57.8420   30.0320   46.3220 N   0  0  0  0  0  0  0  0  0  0  0  0
   58.7850   31.0610   46.6740 C   0  0  0  0  0  0  0  0  0  0  0  0
   58.7110   32.3240   46.0610 C   0  0  0  0  0  0  0  0  0  0  0  0
   57.6380   32.6520   45.2060 C   0  0  0  0  0  0  0  0  0  0  0  0
   57.5590   33.9100   44.6140 C   0  0  0  0  0  0  0  0  0  0  0  0
   58.5310   34.8660   44.8790 C   0  0  0  0  0  0  0  0  0  0  0  0
   59.6020   34.5640   45.7190 C   0  0  0  0  0  0  0  0  0  0  0  0
   59.7340   33.2780   46.3050 C   0  0  0  0  0  0  0  0  0  0  0  0
   60.8140   32.9480   47.1020 N   0  0  0  0  0  0  0  0  0  0  0  0
   62.0120   33.8160   47.1230 C   0  0  0  0  0  0  0  0  0  0  0  0
   60.7780   31.7990   47.8710 C   0  0  0  0  0  0  0  0  0  0  0  0
   61.7100   31.5700   48.9120 C   0  0  0  0  0  0  0  0  0  0  0  0
   61.6800   30.3960   49.6640 C   0  0  0  0  0  0  0  0  0  0  0  0
   60.7190   29.4130   49.4110 C   0  0  0  0  0  0  0  0  0  0  0  0
   60.6510   28.1720   50.2660 C   0  0  0  0  0  0  0  0  0  0  0  0
   59.6770   28.3080   51.2420 F   0  0  0  0  0  0  0  0  0  0  0  0
   61.8750   27.9720   50.8770 F   0  0  0  0  0  0  0  0  0  0  0  0
   60.3420   27.0620   49.4990 F   0  0  0  0  0  0  0  0  0  0  0  0
   59.7470   29.6500   48.4300 C   0  0  0  0  0  0  0  0  0  0  0  0
   59.7720   30.8240   47.6470 C   0  0  0  0  0  0  0  0  0  0  0  0
   57.5800   30.1778   43.3578 H   0  0  0  0  0  0  0  0  0  0  0  0
   56.4819   29.2099   42.3165 H   0  0  0  0  0  0  0  0  0  0  0  0
   56.3710   31.0028   42.3165 H   0  0  0  0  0  0  0  0  0  0  0  0
   55.5614   31.0015   44.6232 H   0  0  0  0  0  0  0  0  0  0  0  0
   54.5472   29.8816   43.6445 H   0  0  0  0  0  0  0  0  0  0  0  0
   55.1470   28.2090   44.8720 H   0  0  0  0  0  0  0  0  0  0  0  0
   57.0944   27.2644   44.6585 H   0  0  0  0  0  0  0  0  0  0  0  0
   57.4520   28.6883   43.6133 H   0  0  0  0  0  0  0  0  0  0  0  0
   58.4328   28.0182   46.3444 H   0  0  0  0  0  0  0  0  0  0  0  0
   59.1699   29.0407   45.0462 H   0  0  0  0  0  0  0  0  0  0  0  0
   56.8270   30.1880   46.5150 H   0  0  0  0  0  0  0  0  0  0  0  0
   56.8552   31.9059   45.0047 H   0  0  0  0  0  0  0  0  0  0  0  0
   56.7259   34.1468   43.9358 H   0  0  0  0  0  0  0  0  0  0  0  0
   58.4556   35.8649   44.4246 H   0  0  0  0  0  0  0  0  0  0  0  0
   60.3572   35.3351   45.9311 H   0  0  0  0  0  0  0  0  0  0  0  0
   62.2970   34.0225   48.1652 H   0  0  0  0  0  0  0  0  0  0  0  0
   62.8418   33.3081   46.6097 H   0  0  0  0  0  0  0  0  0  0  0  0
   61.7879   34.7627   46.6097 H   0  0  0  0  0  0  0  0  0  0  0  0
   62.4719   32.3324   49.1317 H   0  0  0  0  0  0  0  0  0  0  0  0
   62.4195   30.2421   50.4637 H   0  0  0  0  0  0  0  0  0  0  0  0
   58.9509   28.9085   48.2674 H   0  0  0  0  0  0  0  0  0  0  0  0
  1  2  1  0
  2  3  1  0
  3  4  1  0
  4  5  1  0
  5  6  1  0
  6  7  1  0
  7  8  2  0
  8  9  1  0
  9 10  2  0
 10 11  1  0
 11 12  2  0
 12 13  1  0
 13 14  2  0
 14 15  1  0
 14 16  1  0
 16 17  2  0
 17 18  1  0
 18 19  2  0
 19 20  1  0
 20 21  1  0
 20 22  1  0
 20 23  1  0
 19 24  1  0
 24 25  2  0
 25  7  1  0
 13  8  1  0
 25 16  1  0
  1 26  1  0
  1 27  1  0
  1 28  1  0
  2 29  1  0
  2 30  1  0
  3 31  1  0
  4 32  1  0
  4 33  1  0
  5 34  1  0
  5 35  1  0
  6 36  1  0
  9 37  1  0
 10 38  1  0
 11 39  1  0
 12 40  1  0
 15 41  1  0
 15 42  1  0
 15 43  1  0
 17 44  1  0
 18 45  1  0
 24 46  1  0
M  CHG  1  14   1
M  END
>  <UniqueID>  (1) 
1

>  <SMILES>  (1) 
CCNCCNc1c2ccccc2[n+](C)c2ccc(C(F)(F)F)cc12

>  <Energy>  (1) 
66.45142824580073

>  <Genealogy>  (1) 
CCNCCNc1c2ccccc2[n+](C)c2ccc(C(F)(F)F)cc12 (3D coordinates assigned)
CCNCCNc1c2ccccc2[n+](C)c2ccc(C(F)(F)F)cc12 (optimized conformer: 66.45142824580073 kcal/mol)

>  <smiles>  (1) 
CCNCCNc1c2ccccc2[n+](C)c2ccc(C(F)(F)F)cc12

>  <score_type>  (1) 
oracle

>  <origin>  (1) 
adg

>  <m_score__min__energy>  (1) 
-5.7400000000000002

>  <m_primary>  (1) 
energy

$$$$
1:0
     RDKit          3D

 76 79  0  0  0  0  0  0  0  0999 V2000
   57.4640   32.3770   52.0720 C   0  0  0  0  0  0  0  0  0  0  0  0
   56.7590   31.0970   51.6390 C   0  0  0  0  0  0  0  0  0  0  0  0
   57.7440   30.1060   51.1910 N   0  0  0  0  0  0  0  0  0  0  0  0
   58.3270   29.4140   52.3460 C   0  0  0  0  0  0  0  0  0  0  0  0
   59.8010   29.1060   52.0820 C   0  0  0  0  0  0  0  0  0  0  0  0
   60.1480   29.4780   50.7620 O   0  0  0  0  0  0  0  0  0  0  0  0
   60.6290   28.3660   50.0360 C   0  0  0  0  0  0  0  0  0  0  0  0
   60.2060   28.4950   48.5730 C   0  0  0  0  0  0  0  0  0  0  0  0
   59.1480   29.4940   48.4230 N   0  0  0  0  0  0  0  0  0  0  0  0
   58.8220   30.0460   47.1400 C   0  0  0  0  0  0  0  0  0  0  0  0
   58.5050   29.1750   46.0820 C   0  0  0  0  0  0  0  0  0  0  0  0
   58.5080   27.7750   46.2730 C   0  0  0  0  0  0  0  0  0  0  0  0
   58.1690   26.9120   45.2340 C   0  0  0  0  0  0  0  0  0  0  0  0
   57.7980   27.4250   43.9980 C   0  0  0  0  0  0  0  0  0  0  0  0
   57.7750   28.8040   43.7890 C   0  0  0  0  0  0  0  0  0  0  0  0
   58.1540   29.7070   44.8160 C   0  0  0  0  0  0  0  0  0  0  0  0
   58.1540   31.0730   44.6170 N   0  0  0  0  0  0  0  0  0  0  0  0
   58.0650   31.6170   43.2420 C   0  0  0  0  0  0  0  0  0  0  0  0
   58.2560   31.9320   45.6960 C   0  0  0  0  0  0  0  0  0  0  0  0
   57.9370   33.3050   45.5700 C   0  0  0  0  0  0  0  0  0  0  0  0
   58.0920   34.1800   46.6360 C   0  0  0  0  0  0  0  0  0  0  0  0
   58.5850   33.7250   47.8500 C   0  0  0  0  0  0  0  0  0  0  0  0
   58.8980   32.3670   48.0340 C   0  0  0  0  0  0  0  0  0  0  0  0
   59.4630   31.9180   49.2430 O   0  0  0  0  0  0  0  0  0  0  0  0
   60.2130   32.6980   50.1760 C   0  0  0  0  0  0  0  0  0  0  0  0
   61.5810   32.0220   50.4350 C   0  0  0  0  0  0  0  0  0  0  0  0
   62.7330   32.5100   49.6040 N   0  0  0  0  0  0  0  0  0  0  0  0
   64.0010   32.3780   50.3710 C   0  0  0  0  0  0  0  0  0  0  0  0
   62.8210   31.6160   48.3950 C   0  0  0  0  0  0  0  0  0  0  0  0
   63.4420   32.3120   47.1710 C   0  0  0  0  0  0  0  0  0  0  0  0
   62.5850   33.5080   46.7250 C   0  0  0  0  0  0  0  0  0  0  0  0
   61.7930   34.1280   47.8870 C   0  0  0  0  0  0  0  0  0  0  0  0
   62.5460   33.9520   49.2150 C   0  0  0  0  0  0  0  0  0  0  0  0
   58.6680   31.4440   46.9700 C   0  0  0  0  0  0  0  0  0  0  0  0
   57.4915   32.4269   53.1705 H   0  0  0  0  0  0  0  0  0  0  0  0
   58.4914   32.3807   51.6790 H   0  0  0  0  0  0  0  0  0  0  0  0
   56.9180   33.2473   51.6790 H   0  0  0  0  0  0  0  0  0  0  0  0
   56.1923   30.6884   52.4887 H   0  0  0  0  0  0  0  0  0  0  0  0
   56.0750   31.3258   50.8085 H   0  0  0  0  0  0  0  0  0  0  0  0
   58.5170   30.6210   50.7040 H   0  0  0  0  0  0  0  0  0  0  0  0
   58.2426   30.0555   53.2356 H   0  0  0  0  0  0  0  0  0  0  0  0
   57.7855   28.4712   52.5130 H   0  0  0  0  0  0  0  0  0  0  0  0
   60.4231   29.6686   52.7937 H   0  0  0  0  0  0  0  0  0  0  0  0
   59.9706   28.0264   52.2075 H   0  0  0  0  0  0  0  0  0  0  0  0
   61.7267   28.3330   50.0993 H   0  0  0  0  0  0  0  0  0  0  0  0
   60.2108   27.4411   50.4598 H   0  0  0  0  0  0  0  0  0  0  0  0
   61.0758   28.7982   47.9718 H   0  0  0  0  0  0  0  0  0  0  0  0
   59.8230   27.5225   48.2302 H   0  0  0  0  0  0  0  0  0  0  0  0
   58.6210   29.8460   49.2550 H   0  0  0  0  0  0  0  0  0  0  0  0
   58.7816   27.3615   47.2549 H   0  0  0  0  0  0  0  0  0  0  0  0
   58.1951   25.8238   45.3923 H   0  0  0  0  0  0  0  0  0  0  0  0
   57.5215   26.7419   43.1814 H   0  0  0  0  0  0  0  0  0  0  0  0
   57.4579   29.1979   42.8121 H   0  0  0  0  0  0  0  0  0  0  0  0
   57.8875   32.7016   43.2876 H   0  0  0  0  0  0  0  0  0  0  0  0
   59.0070   31.4217   42.7087 H   0  0  0  0  0  0  0  0  0  0  0  0
   57.2343   31.1316   42.7087 H   0  0  0  0  0  0  0  0  0  0  0  0
   57.5593   33.6856   44.6096 H   0  0  0  0  0  0  0  0  0  0  0  0
   57.8225   35.2399   46.5175 H   0  0  0  0  0  0  0  0  0  0  0  0
   58.7326   34.4344   48.6776 H   0  0  0  0  0  0  0  0  0  0  0  0
   60.3743   33.7055   49.7650 H   0  0  0  0  0  0  0  0  0  0  0  0
   59.6565   32.7715   51.1220 H   0  0  0  0  0  0  0  0  0  0  0  0
   61.8390   32.1822   51.4923 H   0  0  0  0  0  0  0  0  0  0  0  0
   61.4441   30.9670   50.1553 H   0  0  0  0  0  0  0  0  0  0  0  0
   63.7817   32.4008   51.4487 H   0  0  0  0  0  0  0  0  0  0  0  0
   64.4864   31.4245   50.1157 H   0  0  0  0  0  0  0  0  0  0  0  0
   64.6724   33.2111   50.1157 H   0  0  0  0  0  0  0  0  0  0  0  0
   63.4379   30.7419   48.6506 H   0  0  0  0  0  0  0  0  0  0  0  0
   61.7938   31.3312   48.1232 H   0  0  0  0  0  0  0  0  0  0  0  0
   64.4493   32.6685   47.4323 H   0  0  0  0  0  0  0  0  0  0  0  0
   63.4924   31.5885   46.3439 H   0  0  0  0  0  0  0  0  0  0  0  0
   63.2462   34.2767   46.2985 H   0  0  0  0  0  0  0  0  0  0  0  0
   61.8601   33.1424   45.9828 H   0  0  0  0  0  0  0  0  0  0  0  0
   61.6491   35.2012   47.6934 H   0  0  0  0  0  0  0  0  0  0  0  0
   60.8207   33.6191   47.9625 H   0  0  0  0  0  0  0  0  0  0  0  0
   63.5370   34.4197   49.1196 H   0  0  0  0  0  0  0  0  0  0  0  0
   61.9391   34.4264   50.0003 H   0  0  0  0  0  0  0  0  0  0  0  0
  1  2  1  0
  2  3  1  0
  3  4  1  0
  4  5  1  0
  5  6  1  0
  6  7  1  0
  7  8  1  0
  8  9  1  0
  9 10  1  0
 10 11  2  0
 11 12  1  0
 12 13  2  0
 13 14  1  0
 14 15  2  0
 15 16  1  0
 16 17  2  0
 17 18  1  0
 17 19  1  0
 19 20  2  0
 20 21  1  0
 21 22  2  0
 22 23  1  0
 23 24  1  0
 24 25  1  0
 25 26  1  0
 26 27  1  0
 27 28  1  0
 27 29  1  0
 29 30  1  0
 30 31  1  0
 31 32  1  0
 32 33  1  0
 23 34  2  0
 34 10  1  0
 16 11  1  0
 34 19  1  0
 33 27  1  0
  1 35  1  0
  1 36  1  0
  1 37  1  0
  2 38  1  0
  2 39  1  0
  3 40  1  0
  4 41  1  0
  4 42  1  0
  5 43  1  0
  5 44  1  0
  7 45  1  0
  7 46  1  0
  8 47  1  0
  8 48  1  0
  9 49  1  0
 12 50  1  0
 13 51  1  0
 14 52  1  0
 15 53  1  0
 18 54  1  0
 18 55  1  0
 18 56  1  0
 20 57  1  0
 21 58  1  0
 22 59  1  0
 25 60  1  0
 25 61  1  0
 26 62  1  0
 26 63  1  0
 28 64  1  0
 28 65  1  0
 28 66  1  0
 29 67  1  0
 29 68  1  0
 30 69  1  0
 30 70  1  0
 31 71  1  0
 31 72  1  0
 32 73  1  0
 32 74  1  0
 33 75  1  0
 33 76  1  0
M  CHG  2  17   1  27   1
M  END
>  <UniqueID>  (2) 
2

>  <SMILES>  (2) 
CCNCCOCCNc1c2ccccc2[n+](C)c2cccc(OCC[N+]3(C)CCCCC3)c12

>  <Energy>  (2) 
115.00153563665008

>  <Genealogy>  (2) 
CCNCCOCCNc1c2ccccc2[n+](C)c2cccc(OCC[N+]3(C)CCCCC3)c12 (3D coordinates assigned)
CCNCCOCCNc1c2ccccc2[n+](C)c2cccc(OCC[N+]3(C)CCCCC3)c12 (nonaromatic ring conformer: 115.00153563665008 kcal/mol)

>  <smiles>  (2) 
CCNCCOCCNc1c2ccccc2[n+](C)c2cccc(OCC[N+]3(C)CCCCC3)c12

>  <score_type>  (2) 
oracle

>  <origin>  (2) 
adg

>  <m_score__min__energy>  (2) 
-4.4000000000000004

>  <m_primary>  (2) 
energy

$$$$
2:0
     RDKit          3D

 39 41  0  0  0  0  0  0  0  0999 V2000
   56.6270   29.6040   43.1740 C   0  0  0  0  0  0  0  0  0  0  0  0
   57.6580   29.8340   44.2000 N   0  0  0  0  0  0  0  0  0  0  0  0
   57.5900   30.9510   45.0000 C   0  0  0  0  0  0  0  0  0  0  0  0
   56.6630   31.7980   44.8630 O   0  0  0  0  0  0  0  0  0  0  0  0
   58.5620   31.1240   45.9760 C   0  0  0  0  0  0  0  0  0  0  0  0
   59.5340   30.1930   46.1410 C   0  0  0  0  0  0  0  0  0  0  0  0
   60.3300   30.5370   47.1710 N   0  0  0  0  0  0  0  0  0  0  0  0
   59.8020   31.7030   47.6160 C   0  0  0  0  0  0  0  0  0  0  0  0
   60.4700   32.5960   49.0250 S   0  0  0  0  0  0  0  0  0  0  0  0
   61.4490   33.7690   48.0080 C   0  0  0  0  0  0  0  0  0  0  0  0
   61.9540   33.0740   46.7520 C   0  0  0  0  0  0  0  0  0  0  0  0
   63.2930   32.4500   47.1270 C   0  0  0  0  0  0  0  0  0  0  0  0
   63.7840   33.1810   48.3750 C   0  0  0  0  0  0  0  0  0  0  0  0
   62.7140   34.2040   48.7380 C   0  0  0  0  0  0  0  0  0  0  0  0
   58.7200   32.1000   46.8940 N   0  0  0  0  0  0  0  0  0  0  0  0
   57.8690   33.2670   47.1180 C   0  0  0  0  0  0  0  0  0  0  0  0
   59.6120   29.0710   45.3740 N   0  0  0  0  0  0  0  0  0  0  0  0
   60.6680   28.0800   45.6270 C   0  0  0  0  0  0  0  0  0  0  0  0
   58.6470   28.8850   44.4060 C   0  0  0  0  0  0  0  0  0  0  0  0
   58.6590   27.8340   43.7060 O   0  0  0  0  0  0  0  0  0  0  0  0
   55.6651   29.3894   43.6625 H   0  0  0  0  0  0  0  0  0  0  0  0
   56.5273   30.5020   42.5466 H   0  0  0  0  0  0  0  0  0  0  0  0
   56.9185   28.7488   42.5466 H   0  0  0  0  0  0  0  0  0  0  0  0
   61.1530   30.0240   47.5570 H   0  0  0  0  0  0  0  0  0  0  0  0
   60.7882   34.6209   47.7896 H   0  0  0  0  0  0  0  0  0  0  0  0
   61.2449   32.2953   46.4347 H   0  0  0  0  0  0  0  0  0  0  0  0
   62.0587   33.7801   45.9151 H   0  0  0  0  0  0  0  0  0  0  0  0
   63.1653   31.3786   47.3409 H   0  0  0  0  0  0  0  0  0  0  0  0
   64.0169   32.5425   46.3039 H   0  0  0  0  0  0  0  0  0  0  0  0
   63.9218   32.4682   49.2014 H   0  0  0  0  0  0  0  0  0  0  0  0
   64.7510   33.6713   48.1895 H   0  0  0  0  0  0  0  0  0  0  0  0
   62.5447   34.2101   49.8249 H   0  0  0  0  0  0  0  0  0  0  0  0
   63.0157   35.2214   48.4482 H   0  0  0  0  0  0  0  0  0  0  0  0
   57.7492   33.4313   48.1990 H   0  0  0  0  0  0  0  0  0  0  0  0
   58.3344   34.1532   46.6618 H   0  0  0  0  0  0  0  0  0  0  0  0
   56.8830   33.0948   46.6618 H   0  0  0  0  0  0  0  0  0  0  0  0
   60.8012   27.9550   46.7117 H   0  0  0  0  0  0  0  0  0  0  0  0
   60.3818   27.1168   45.1793 H   0  0  0  0  0  0  0  0  0  0  0  0
   61.6111   28.4267   45.1793 H   0  0  0  0  0  0  0  0  0  0  0  0
  1  2  1  0
  2  3  1  0
  3  4  2  0
  3  5  1  0
  5  6  2  0
  6  7  1  0
  7  8  2  0
  8  9  1  0
  9 10  1  0
 10 11  1  0
 11 12  1  0
 12 13  1  0
 13 14  1  0
  8 15  1  0
 15 16  1  0
  6 17  1  0
 17 18  1  0
 17 19  1  0
 19 20  2  0
 19  2  1  0
 15  5  1  0
 14 10  1  0
  1 21  1  0
  1 22  1  0
  1 23  1  0
  7 24  1  0
 10 25  1  0
 11 26  1  0
 11 27  1  0
 12 28  1  0
 12 29  1  0
 13 30  1  0
 13 31  1  0
 14 32  1  0
 14 33  1  0
 16 34  1  0
 16 35  1  0
 16 36  1  0
 18 37  1  0
 18 38  1  0
 18 39  1  0
M  CHG  1   7   1
M  END
>  <UniqueID>  (3) 
3

>  <SMILES>  (3) 
Cn1c(=O)c2c([nH+]c(SC3CCCC3)n2C)n(C)c1=O

>  <Energy>  (3) 
83.53640425464692

>  <Genealogy>  (3) 
Cn1c(=O)c2c([nH+]c(SC3CCCC3)n2C)n(C)c1=O (protonated)
Cn1c(=O)c2c([nH+]c(SC3CCCC3)n2C)n(C)c1=O (3D coordinates assigned)
Cn1c(=O)c2c([nH+]c(SC3CCCC3)n2C)n(C)c1=O (nonaromatic ring conformer: 83.53640425464692 kcal/mol)

>  <smiles>  (3) 
Cn1c(=O)c2c(nc(SC3CCCC3)n2C)n(C)c1=O

>  <score_type>  (3) 
oracle

>  <origin>  (3) 
adg

>  <m_score__min__energy>  (3) 
-5.1699999999999999

>  <m_primary>  (3) 
energy

$$$$
3:0
     RDKit          3D

 50 51  0  0  0  0  0  0  0  0999 V2000
   63.4020   31.2000   50.3820 C   0  0  0  0  0  0  0  0  0  0  0  0
   62.1250   30.4340   50.7200 C   0  0  0  0  0  0  0  0  0  0  0  0
   61.0000   30.9040   49.9080 N   0  0  0  0  0  0  0  0  0  0  0  0
   60.5400   30.2130   48.7300 C   0  0  0  0  0  0  0  0  0  0  0  0
   61.1250   30.5080   47.4870 C   0  0  0  0  0  0  0  0  0  0  0  0
   60.6910   29.8650   46.3230 C   0  0  0  0  0  0  0  0  0  0  0  0
   59.6650   28.9070   46.3840 C   0  0  0  0  0  0  0  0  0  0  0  0
   59.1570   28.2460   45.1220 C   0  0  0  0  0  0  0  0  0  0  0  0
   58.5460   29.2120   44.1870 N   0  0  0  0  0  0  0  0  0  0  0  0
   57.1100   28.9560   43.9350 C   0  0  0  0  0  0  0  0  0  0  0  0
   56.4720   30.0540   43.0630 C   0  0  0  0  0  0  0  0  0  0  0  0
   57.0540   31.4430   43.3820 C   0  0  0  0  0  0  0  0  0  0  0  0
   57.0920   31.6570   44.8370 N   0  0  0  0  0  0  0  0  0  0  0  0
   57.1880   33.0910   45.1570 C   0  0  0  0  0  0  0  0  0  0  0  0
   58.3210   33.3330   46.1150 C   0  0  0  0  0  0  0  0  0  0  0  0
   58.1630   33.0700   47.4890 C   0  0  0  0  0  0  0  0  0  0  0  0
   59.2120   33.3290   48.3790 C   0  0  0  0  0  0  0  0  0  0  0  0
   60.4230   33.8540   47.9080 C   0  0  0  0  0  0  0  0  0  0  0  0
   61.8520   34.2030   49.1310 Br  0  0  0  0  0  0  0  0  0  0  0  0
   60.5810   34.1320   46.5470 C   0  0  0  0  0  0  0  0  0  0  0  0
   59.5320   33.8870   45.6550 C   0  0  0  0  0  0  0  0  0  0  0  0
   59.0850   28.5990   47.6250 C   0  0  0  0  0  0  0  0  0  0  0  0
   59.5150   29.2480   48.7870 C   0  0  0  0  0  0  0  0  0  0  0  0
   63.9055   31.5020   51.3122 H   0  0  0  0  0  0  0  0  0  0  0  0
   64.0722   30.5547   49.7952 H   0  0  0  0  0  0  0  0  0  0  0  0
   63.1482   32.0951   49.7952 H   0  0  0  0  0  0  0  0  0  0  0  0
   62.2859   29.3632   50.5261 H   0  0  0  0  0  0  0  0  0  0  0  0
   61.8860   30.6021   51.7805 H   0  0  0  0  0  0  0  0  0  0  0  0
   60.5000   31.7770   50.1950 H   0  0  0  0  0  0  0  0  0  0  0  0
   61.9327   31.2524   47.4286 H   0  0  0  0  0  0  0  0  0  0  0  0
   61.1548   30.1103   45.3562 H   0  0  0  0  0  0  0  0  0  0  0  0
   60.0006   27.7518   44.6180 H   0  0  0  0  0  0  0  0  0  0  0  0
   58.3805   27.5227   45.4116 H   0  0  0  0  0  0  0  0  0  0  0  0
   58.6320   30.1590   44.6250 H   0  0  0  0  0  0  0  0  0  0  0  0
   59.0920   29.2430   43.2920 H   0  0  0  0  0  0  0  0  0  0  0  0
   57.0066   27.9892   43.4205 H   0  0  0  0  0  0  0  0  0  0  0  0
   56.5911   28.9483   44.9049 H   0  0  0  0  0  0  0  0  0  0  0  0
   56.6604   29.8230   42.0042 H   0  0  0  0  0  0  0  0  0  0  0  0
   55.3929   30.0770   43.2750 H   0  0  0  0  0  0  0  0  0  0  0  0
   58.0750   31.5104   42.9782 H   0  0  0  0  0  0  0  0  0  0  0  0
   56.4165   32.2129   42.9229 H   0  0  0  0  0  0  0  0  0  0  0  0
   56.1950   31.3010   45.2440 H   0  0  0  0  0  0  0  0  0  0  0  0
   57.3664   33.6588   44.2319 H   0  0  0  0  0  0  0  0  0  0  0  0
   56.2471   33.4192   45.6227 H   0  0  0  0  0  0  0  0  0  0  0  0
   57.2135   32.6602   47.8639 H   0  0  0  0  0  0  0  0  0  0  0  0
   59.0854   33.1198   49.4515 H   0  0  0  0  0  0  0  0  0  0  0  0
   61.5316   34.5439   46.1772 H   0  0  0  0  0  0  0  0  0  0  0  0
   59.6531   34.1281   44.5886 H   0  0  0  0  0  0  0  0  0  0  0  0
   58.2880   27.8431   47.6837 H   0  0  0  0  0  0  0  0  0  0  0  0
   59.0493   29.0031   49.7530 H   0  0  0  0  0  0  0  0  0  0  0  0
  1  2  1  0
  2  3  1  0
  3  4  1  0
  4  5  2  0
  5  6  1  0
  6  7  2  0
  7  8  1  0
  8  9  1  0
  9 10  1  0
 10 11  1  0
 11 12  1  0
 12 13  1  0
 13 14  1  0
 14 15  1  0
 15 16  2  0
 16 17  1  0
 17 18  2  0
 18 19  1  0
 18 20  1  0
 20 21  2  0
  7 22  1  0
 22 23  2  0
 23  4  1  0
 21 15  1  0
  1 24  1  0
  1 25  1  0
  1 26  1  0
  2 27  1  0
  2 28  1  0
  3 29  1  0
  5 30  1  0
  6 31  1  0
  8 32  1  0
  8 33  1  0
  9 34  1  0
  9 35  1  0
 10 36  1  0
 10 37  1  0
 11 38  1  0
 11 39  1  0
 12 40  1  0
 12 41  1  0
 13 42  1  0
 14 43  1  0
 14 44  1  0
 16 45  1  0
 17 46  1  0
 20 47  1  0
 21 48  1  0
 22 49  1  0
 23 50  1  0
M  CHG  1   9   1
M  END
>  <UniqueID>  (4) 
4

>  <SMILES>  (4) 
CCNc1ccc(C[NH2+]CCCNCc2ccc(Br)cc2)cc1

>  <Energy>  (4) 
40.077756183998986

>  <Genealogy>  (4) 
CCNc1ccc(C[NH2+]CCCNCc2ccc(Br)cc2)cc1 (protonated)
CCNc1ccc(C[NH2+]CCCNCc2ccc(Br)cc2)cc1 (3D coordinates assigned)
CCNc1ccc(C[NH2+]CCCNCc2ccc(Br)cc2)cc1 (optimized conformer: 40.077756183998986 kcal/mol)

>  <smiles>  (4) 
CCNc1ccc(CNCCCNCc2ccc(Br)cc2)cc1

>  <score_type>  (4) 
oracle

>  <origin>  (4) 
adg

>  <m_score__min__energy>  (4) 
-5.7400000000000002

>  <m_primary>  (4) 
energy

$$$$
4:0
     RDKit          3D

 49 51  0  0  0  0  0  0  0  0999 V2000
   58.7090   22.1820   44.1150 C   0  0  0  0  0  0  0  0  0  0  0  0
   59.9880   22.4280   44.9010 C   0  0  0  0  0  0  0  0  0  0  0  0
   59.7620   23.4500   45.8720 O   0  0  0  0  0  0  0  0  0  0  0  0
   58.6340   24.2850   45.9080 C   0  0  0  0  0  0  0  0  0  0  0  0
   58.6700   25.6030   45.4220 C   0  0  0  0  0  0  0  0  0  0  0  0
   57.5290   26.4130   45.4600 C   0  0  0  0  0  0  0  0  0  0  0  0
   57.5970   27.8000   44.9340 C   0  0  0  0  0  0  0  0  0  0  0  0
   57.8970   28.8730   45.6960 N   0  0  0  0  0  0  0  0  0  0  0  0
   57.8460   29.8820   44.8000 C   0  0  0  0  0  0  0  0  0  0  0  0
   58.0930   31.3050   45.1230 C   0  0  0  0  0  0  0  0  0  0  0  0
   58.5360   31.6570   46.4100 C   0  0  0  0  0  0  0  0  0  0  0  0
   58.7820   32.9930   46.7330 C   0  0  0  0  0  0  0  0  0  0  0  0
   58.5900   33.9930   45.7780 C   0  0  0  0  0  0  0  0  0  0  0  0
   58.1470   33.6570   44.4960 C   0  0  0  0  0  0  0  0  0  0  0  0
   57.8970   32.3220   44.1650 C   0  0  0  0  0  0  0  0  0  0  0  0
   57.4700   32.0300   42.9100 F   0  0  0  0  0  0  0  0  0  0  0  0
   57.5450   29.4400   43.6010 O   0  0  0  0  0  0  0  0  0  0  0  0
   57.3830   28.1560   43.6510 N   0  0  0  0  0  0  0  0  0  0  0  0
   56.3480   25.9000   46.0140 C   0  0  0  0  0  0  0  0  0  0  0  0
   56.2890   24.5850   46.5170 C   0  0  0  0  0  0  0  0  0  0  0  0
   55.1250   24.0850   47.1220 O   0  0  0  0  0  0  0  0  0  0  0  0
   54.0790   23.3590   46.4750 C   0  0  0  0  0  0  0  0  0  0  0  0
   53.9870   23.7390   45.0030 C   0  0  0  0  0  0  0  0  0  0  0  0
   57.4430   23.7660   46.4400 C   0  0  0  0  0  0  0  0  0  0  0  0
   57.4850   22.4310   46.8900 O   0  0  0  0  0  0  0  0  0  0  0  0
   56.6380   21.3540   46.4840 C   0  0  0  0  0  0  0  0  0  0  0  0
   57.3920   20.0260   46.4950 C   0  0  0  0  0  0  0  0  0  0  0  0
   57.8745   22.0215   44.8135 H   0  0  0  0  0  0  0  0  0  0  0  0
   58.4942   23.0553   43.4816 H   0  0  0  0  0  0  0  0  0  0  0  0
   58.8335   21.2913   43.4816 H   0  0  0  0  0  0  0  0  0  0  0  0
   60.2902   21.5003   45.4090 H   0  0  0  0  0  0  0  0  0  0  0  0
   60.7851   22.7463   44.2130 H   0  0  0  0  0  0  0  0  0  0  0  0
   59.6066   26.0032   45.0065 H   0  0  0  0  0  0  0  0  0  0  0  0
   58.6899   30.8746   47.1677 H   0  0  0  0  0  0  0  0  0  0  0  0
   59.1281   33.2583   47.7429 H   0  0  0  0  0  0  0  0  0  0  0  0
   58.7872   35.0444   46.0344 H   0  0  0  0  0  0  0  0  0  0  0  0
   57.9944   34.4458   43.7446 H   0  0  0  0  0  0  0  0  0  0  0  0
   57.1540   27.5530   42.8320 H   0  0  0  0  0  0  0  0  0  0  0  0
   55.4511   26.5354   46.0569 H   0  0  0  0  0  0  0  0  0  0  0  0
   54.2838   22.2814   46.5571 H   0  0  0  0  0  0  0  0  0  0  0  0
   53.1246   23.6057   46.9631 H   0  0  0  0  0  0  0  0  0  0  0  0
   53.7290   24.8047   44.9149 H   0  0  0  0  0  0  0  0  0  0  0  0
   54.9557   23.5547   44.5155 H   0  0  0  0  0  0  0  0  0  0  0  0
   53.2099   23.1321   44.5155 H   0  0  0  0  0  0  0  0  0  0  0  0
   55.7847   21.2882   47.1750 H   0  0  0  0  0  0  0  0  0  0  0  0
   56.2915   21.5501   45.4586 H   0  0  0  0  0  0  0  0  0  0  0  0
   57.5693   19.7136   47.5347 H   0  0  0  0  0  0  0  0  0  0  0  0
   56.7938   19.2605   45.9791 H   0  0  0  0  0  0  0  0  0  0  0  0
   58.3559   20.1473   45.9791 H   0  0  0  0  0  0  0  0  0  0  0  0
  1  2  1  0
  2  3  1  0
  3  4  1  0
  4  5  2  0
  5  6  1  0
  6  7  1  0
  7  8  1  0
  8  9  2  0
  9 10  1  0
 10 11  2  0
 11 12  1  0
 12 13  2  0
 13 14  1  0
 14 15  2  0
 15 16  1  0
  9 17  1  0
 17 18  1  0
  6 19  2  0
 19 20  1  0
 20 21  1  0
 21 22  1  0
 22 23  1  0
 20 24  2  0
 24 25  1  0
 25 26  1  0
 26 27  1  0
 24  4  1  0
 18  7  2  0
 15 10  1  0
  1 28  1  0
  1 29  1  0
  1 30  1  0
  2 31  1  0
  2 32  1  0
  5 33  1  0
 11 34  1  0
 12 35  1  0
 13 36  1  0
 14 37  1  0
 18 38  1  0
 19 39  1  0
 22 40  1  0
 22 41  1  0
 23 42  1  0
 23 43  1  0
 23 44  1  0
 26 45  1  0
 26 46  1  0
 27 47  1  0
 27 48  1  0
 27 49  1  0
M  CHG  1  18   1
M  END
>  <UniqueID>  (5) 
5

>  <SMILES>  (5) 
CCOc1cc(-c2nc(-c3ccccc3F)o[nH+]2)cc(OCC)c1OCC

>  <Energy>  (5) 
83.7686752377165

>  <Genealogy>  (5) 
CCOc1cc(-c2nc(-c3ccccc3F)o[nH+]2)cc(OCC)c1OCC (protonated)
CCOc1cc(-c2nc(-c3ccccc3F)o[nH+]2)cc(OCC)c1OCC (3D coordinates assigned)
CCOc1cc(-c2nc(-c3ccccc3F)o[nH+]2)cc(OCC)c1OCC (optimized conformer: 83.7686752377165 kcal/mol)

>  <smiles>  (5) 
CCOc1cc(-c2noc(-c3ccccc3F)n2)cc(OCC)c1OCC

>  <score_type>  (5) 
oracle

>  <origin>  (5) 
adg

>  <m_score__min__energy>  (5) 
-5.5599999999999996

>  <m_primary>  (5) 
energy

$$$$
5:0
     RDKit          3D

 63 66  0  0  0  0  0  0  0  0999 V2000
   57.9610   32.1360   43.4770 C   0  0  0  0  0  0  0  0  0  0  0  0
   57.2390   31.8460   44.7900 C   0  0  0  0  0  0  0  0  0  0  0  0
   56.9630   30.3990   44.9010 N   0  0  0  0  0  0  0  0  0  0  0  0
   56.5680   29.7960   43.6080 C   0  0  0  0  0  0  0  0  0  0  0  0
   57.3890   28.5430   43.2970 C   0  0  0  0  0  0  0  0  0  0  0  0
   57.9580   29.6430   45.7010 C   0  0  0  0  0  0  0  0  0  0  0  0
   58.3000   30.2350   47.0860 C   0  0  0  0  0  0  0  0  0  0  0  0
   59.0040   29.2440   48.0160 C   0  0  0  0  0  0  0  0  0  0  0  0
   58.9050   29.6830   49.4820 C   0  0  0  0  0  0  0  0  0  0  0  0
   59.1380   31.1230   49.6220 N   0  0  0  0  0  0  0  0  0  0  0  0
   60.2460   31.7720   48.9800 C   0  0  0  0  0  0  0  0  0  0  0  0
   61.5580   31.4470   49.3620 C   0  0  0  0  0  0  0  0  0  0  0  0
   62.6290   32.2210   48.8900 C   0  0  0  0  0  0  0  0  0  0  0  0
   62.4330   33.0380   47.7940 N   0  0  0  0  0  0  0  0  0  0  0  0
   63.5260   33.2800   46.8320 C   0  0  0  0  0  0  0  0  0  0  0  0
   61.1560   33.4410   47.4610 C   0  0  0  0  0  0  0  0  0  0  0  0
   60.9320   34.4750   46.5220 C   0  0  0  0  0  0  0  0  0  0  0  0
   59.6360   34.8510   46.1670 C   0  0  0  0  0  0  0  0  0  0  0  0
   58.5390   34.1980   46.7240 C   0  0  0  0  0  0  0  0  0  0  0  0
   58.7330   33.1780   47.6510 C   0  0  0  0  0  0  0  0  0  0  0  0
   60.0330   32.8100   48.0550 C   0  0  0  0  0  0  0  0  0  0  0  0
   63.9340   32.1250   49.6410 C   0  0  0  0  0  0  0  0  0  0  0  0
   64.9370   33.1060   49.4930 C   0  0  0  0  0  0  0  0  0  0  0  0
   66.1560   32.9650   50.1510 C   0  0  0  0  0  0  0  0  0  0  0  0
   66.3590   31.8940   51.0120 C   0  0  0  0  0  0  0  0  0  0  0  0
   65.3110   31.0110   51.2510 C   0  0  0  0  0  0  0  0  0  0  0  0
   64.1120   31.1490   50.6020 N   0  0  0  0  0  0  0  0  0  0  0  0
   62.9780   30.3750   51.1340 C   0  0  0  0  0  0  0  0  0  0  0  0
   61.8670   30.1730   50.1100 C   0  0  0  0  0  0  0  0  0  0  0  0
   58.9624   32.5382   43.6903 H   0  0  0  0  0  0  0  0  0  0  0  0
   58.0553   31.2060   42.8972 H   0  0  0  0  0  0  0  0  0  0  0  0
   57.3857   32.8728   42.8972 H   0  0  0  0  0  0  0  0  0  0  0  0
   57.8718   32.1626   45.6322 H   0  0  0  0  0  0  0  0  0  0  0  0
   56.2886   32.3994   44.8115 H   0  0  0  0  0  0  0  0  0  0  0  0
   55.5032   29.5234   43.6517 H   0  0  0  0  0  0  0  0  0  0  0  0
   56.7522   30.5341   42.8135 H   0  0  0  0  0  0  0  0  0  0  0  0
   57.7013   28.0664   44.2379 H   0  0  0  0  0  0  0  0  0  0  0  0
   56.7767   27.8386   42.7147 H   0  0  0  0  0  0  0  0  0  0  0  0
   58.2792   28.8231   42.7147 H   0  0  0  0  0  0  0  0  0  0  0  0
   57.5643   28.6277   45.8563 H   0  0  0  0  0  0  0  0  0  0  0  0
   58.8933   29.6780   45.1230 H   0  0  0  0  0  0  0  0  0  0  0  0
   58.9585   31.1040   46.9403 H   0  0  0  0  0  0  0  0  0  0  0  0
   57.3484   30.5087   47.5651 H   0  0  0  0  0  0  0  0  0  0  0  0
   58.5346   28.2553   47.9063 H   0  0  0  0  0  0  0  0  0  0  0  0
   60.0676   29.2050   47.7380 H   0  0  0  0  0  0  0  0  0  0  0  0
   57.9004   29.4438   49.8609 H   0  0  0  0  0  0  0  0  0  0  0  0
   59.6748   29.1485   50.0579 H   0  0  0  0  0  0  0  0  0  0  0  0
   58.3970   31.7120   50.0640 H   0  0  0  0  0  0  0  0  0  0  0  0
   64.4575   33.4862   47.3796 H   0  0  0  0  0  0  0  0  0  0  0  0
   63.6617   32.3901   46.1997 H   0  0  0  0  0  0  0  0  0  0  0  0
   63.2734   34.1440   46.1997 H   0  0  0  0  0  0  0  0  0  0  0  0
   61.7907   34.9893   46.0657 H   0  0  0  0  0  0  0  0  0  0  0  0
   59.4801   35.6659   45.4448 H   0  0  0  0  0  0  0  0  0  0  0  0
   57.5192   34.4884   46.4312 H   0  0  0  0  0  0  0  0  0  0  0  0
   57.8631   32.6534   48.0729 H   0  0  0  0  0  0  0  0  0  0  0  0
   64.7556   33.9844   48.8562 H   0  0  0  0  0  0  0  0  0  0  0  0
   66.9574   33.7009   49.9892 H   0  0  0  0  0  0  0  0  0  0  0  0
   67.3347   31.7462   51.4980 H   0  0  0  0  0  0  0  0  0  0  0  0
   65.4466   30.1905   51.9710 H   0  0  0  0  0  0  0  0  0  0  0  0
   63.3451   29.3884   51.4532 H   0  0  0  0  0  0  0  0  0  0  0  0
   62.5539   30.9446   51.9740 H   0  0  0  0  0  0  0  0  0  0  0  0
   62.1821   29.4041   49.3893 H   0  0  0  0  0  0  0  0  0  0  0  0
   60.9587   29.8619   50.6468 H   0  0  0  0  0  0  0  0  0  0  0  0
  1  2  1  0
  2  3  1  0
  3  4  1  0
  4  5  1  0
  3  6  1  0
  6  7  1  0
  7  8  1  0
  8  9  1  0
  9 10  1  0
 10 11  1  0
 11 12  2  0
 12 13  1  0
 13 14  2  0
 14 15  1  0
 14 16  1  0
 16 17  2  0
 17 18  1  0
 18 19  2  0
 19 20  1  0
 20 21  2  0
 13 22  1  0
 22 23  2  0
 23 24  1  0
 24 25  2  0
 25 26  1  0
 26 27  2  0
 27 28  1  0
 28 29  1  0
 21 11  1  0
 27 22  1  0
 29 12  1  0
 21 16  1  0
  1 30  1  0
  1 31  1  0
  1 32  1  0
  2 33  1  0
  2 34  1  0
  4 35  1  0
  4 36  1  0
  5 37  1  0
  5 38  1  0
  5 39  1  0
  6 40  1  0
  6 41  1  0
  7 42  1  0
  7 43  1  0
  8 44  1  0
  8 45  1  0
  9 46  1  0
  9 47  1  0
 10 48  1  0
 15 49  1  0
 15 50  1  0
 15 51  1  0
 17 52  1  0
 18 53  1  0
 19 54  1  0
 20 55  1  0
 23 56  1  0
 24 57  1  0
 25 58  1  0
 26 59  1  0
 28 60  1  0
 28 61  1  0
 29 62  1  0
 29 63  1  0
M  CHG  2  14   1  27   1
M  END
>  <UniqueID>  (6) 
6

>  <SMILES>  (6) 
CCN(CC)CCCCNc1c2c([n+](C)c3ccccc13)-c1cccc[n+]1CC2

>  <Energy>  (6) 
103.3374344079033

>  <Genealogy>  (6) 
CCN(CC)CCCCNc1c2c([n+](C)c3ccccc13)-c1cccc[n+]1CC2 (3D coordinates assigned)
CCN(CC)CCCCNc1c2c([n+](C)c3ccccc13)-c1cccc[n+]1CC2 (nonaromatic ring conformer: 103.3374344079033 kcal/mol)

>  <smiles>  (6) 
CCN(CC)CCCCNc1c2c([n+](C)c3ccccc13)-c1cccc[n+]1CC2

>  <score_type>  (6) 
oracle

>  <origin>  (6) 
adg

>  <m_score__min__energy>  (6) 
-5.7000000000000002

>  <m_primary>  (6) 
energy

$$$$
6:0
     RDKit          3D

 81 83  0  0  0  0  0  0  0  0999 V2000
   57.4020   31.8560   41.9800 C   0  0  0  0  0  0  0  0  0  0  0  0
   58.1320   32.4430   43.1840 C   0  0  0  0  0  0  0  0  0  0  0  0
   57.6500   31.7890   44.4270 N   0  0  0  0  0  0  0  0  0  0  0  0
   56.6850   30.7220   44.1110 C   0  0  0  0  0  0  0  0  0  0  0  0
   57.0400   32.7510   45.3740 C   0  0  0  0  0  0  0  0  0  0  0  0
   57.5310   34.1810   45.1200 C   0  0  0  0  0  0  0  0  0  0  0  0
   58.7610   34.3930   45.7840 O   0  0  0  0  0  0  0  0  0  0  0  0
   58.7150   33.8910   47.1080 C   0  0  0  0  0  0  0  0  0  0  0  0
   60.0790   34.0460   47.7770 C   0  0  0  0  0  0  0  0  0  0  0  0
   61.0920   33.7350   46.8450 O   0  0  0  0  0  0  0  0  0  0  0  0
   62.3580   33.8670   47.4540 C   0  0  0  0  0  0  0  0  0  0  0  0
   63.3440   32.9010   46.7910 C   0  0  0  0  0  0  0  0  0  0  0  0
   63.5340   31.6570   47.5640 N   0  0  0  0  0  0  0  0  0  0  0  0
   63.1600   31.8210   48.9650 C   0  0  0  0  0  0  0  0  0  0  0  0
   64.0640   32.3860   49.9120 C   0  0  0  0  0  0  0  0  0  0  0  0
   65.3780   32.7950   49.5610 C   0  0  0  0  0  0  0  0  0  0  0  0
   66.2140   33.4170   50.4840 C   0  0  0  0  0  0  0  0  0  0  0  0
   65.7660   33.6660   51.7720 C   0  0  0  0  0  0  0  0  0  0  0  0
   64.5000   33.2450   52.1610 C   0  0  0  0  0  0  0  0  0  0  0  0
   63.6450   32.5530   51.2630 C   0  0  0  0  0  0  0  0  0  0  0  0
   62.4280   32.0610   51.6820 N   0  0  0  0  0  0  0  0  0  0  0  0
   62.1480   31.9220   53.1300 C   0  0  0  0  0  0  0  0  0  0  0  0
   61.4870   31.6510   50.7600 C   0  0  0  0  0  0  0  0  0  0  0  0
   60.1440   31.4210   51.1410 C   0  0  0  0  0  0  0  0  0  0  0  0
   59.1910   30.9270   50.2430 C   0  0  0  0  0  0  0  0  0  0  0  0
   57.8260   30.7080   50.6550 N   0  0  0  0  0  0  0  0  0  0  0  0
   57.0240   31.6760   51.4050 C   0  0  0  0  0  0  0  0  0  0  0  0
   56.2390   30.9760   52.5200 C   0  0  0  0  0  0  0  0  0  0  0  0
   56.2400   29.5100   52.3240 N   0  0  0  0  0  0  0  0  0  0  0  0
   57.2590   28.8750   53.1740 C   0  0  0  0  0  0  0  0  0  0  0  0
   54.9170   28.9360   52.6290 C   0  0  0  0  0  0  0  0  0  0  0  0
   59.5640   30.6770   48.9190 C   0  0  0  0  0  0  0  0  0  0  0  0
   58.6020   30.1550   48.0360 O   0  0  0  0  0  0  0  0  0  0  0  0
   58.8510   29.7870   46.6830 C   0  0  0  0  0  0  0  0  0  0  0  0
   60.8790   30.9470   48.5080 C   0  0  0  0  0  0  0  0  0  0  0  0
   61.8480   31.4700   49.3990 C   0  0  0  0  0  0  0  0  0  0  0  0
   56.5887   31.2020   42.3274 H   0  0  0  0  0  0  0  0  0  0  0  0
   56.9827   32.6713   41.3722 H   0  0  0  0  0  0  0  0  0  0  0  0
   58.1083   31.2714   41.3722 H   0  0  0  0  0  0  0  0  0  0  0  0
   59.2131   32.2715   43.0758 H   0  0  0  0  0  0  0  0  0  0  0  0
   57.9340   33.5236   43.2397 H   0  0  0  0  0  0  0  0  0  0  0  0
   56.2955   30.2914   45.0453 H   0  0  0  0  0  0  0  0  0  0  0  0
   55.8533   31.1413   43.5259 H   0  0  0  0  0  0  0  0  0  0  0  0
   57.1855   29.9364   43.5259 H   0  0  0  0  0  0  0  0  0  0  0  0
   55.9466   32.7228   45.2568 H   0  0  0  0  0  0  0  0  0  0  0  0
   57.3332   32.4626   46.3942 H   0  0  0  0  0  0  0  0  0  0  0  0
   57.6692   34.3325   44.0393 H   0  0  0  0  0  0  0  0  0  0  0  0
   56.7854   34.8931   45.5032 H   0  0  0  0  0  0  0  0  0  0  0  0
   57.9623   34.4504   47.6830 H   0  0  0  0  0  0  0  0  0  0  0  0
   58.4480   32.8243   47.0790 H   0  0  0  0  0  0  0  0  0  0  0  0
   60.2032   35.0828   48.1229 H   0  0  0  0  0  0  0  0  0  0  0  0
   60.1475   33.3646   48.6378 H   0  0  0  0  0  0  0  0  0  0  0  0
   62.7178   34.8994   47.3327 H   0  0  0  0  0  0  0  0  0  0  0  0
   62.2769   33.6316   48.5255 H   0  0  0  0  0  0  0  0  0  0  0  0
   62.9627   32.6397   45.7928 H   0  0  0  0  0  0  0  0  0  0  0  0
   64.3183   33.4086   46.7357 H   0  0  0  0  0  0  0  0  0  0  0  0
   63.0600   30.8580   47.0960 H   0  0  0  0  0  0  0  0  0  0  0  0
   64.5320   31.3610   47.5020 H   0  0  0  0  0  0  0  0  0  0  0  0
   65.7426   32.6166   48.5386 H   0  0  0  0  0  0  0  0  0  0  0  0
   67.2324   33.7116   50.1907 H   0  0  0  0  0  0  0  0  0  0  0  0
   66.4126   34.1969   52.4862 H   0  0  0  0  0  0  0  0  0  0  0  0
   64.1536   33.4518   53.1843 H   0  0  0  0  0  0  0  0  0  0  0  0
   62.9867   32.3384   53.7073 H   0  0  0  0  0  0  0  0  0  0  0  0
   61.2253   32.4667   53.3790 H   0  0  0  0  0  0  0  0  0  0  0  0
   62.0240   30.8577   53.3790 H   0  0  0  0  0  0  0  0  0  0  0  0
   59.8393   31.6373   52.1756 H   0  0  0  0  0  0  0  0  0  0  0  0
   57.3970   29.7690   50.4870 H   0  0  0  0  0  0  0  0  0  0  0  0
   57.6900   32.4300   51.8500 H   0  0  0  0  0  0  0  0  0  0  0  0
   56.3123   32.1561   50.7173 H   0  0  0  0  0  0  0  0  0  0  0  0
   56.7032   31.2103   53.4894 H   0  0  0  0  0  0  0  0  0  0  0  0
   55.1990   31.3336   52.4963 H   0  0  0  0  0  0  0  0  0  0  0  0
   57.0044   29.0337   54.2323 H   0  0  0  0  0  0  0  0  0  0  0  0
   57.2923   27.7960   52.9626 H   0  0  0  0  0  0  0  0  0  0  0  0
   58.2423   29.3205   52.9626 H   0  0  0  0  0  0  0  0  0  0  0  0
   54.7848   28.8786   53.7195 H   0  0  0  0  0  0  0  0  0  0  0  0
   54.1320   29.5745   52.1975 H   0  0  0  0  0  0  0  0  0  0  0  0
   54.8470   27.9266   52.1975 H   0  0  0  0  0  0  0  0  0  0  0  0
   59.4673   28.8762   46.6582 H   0  0  0  0  0  0  0  0  0  0  0  0
   57.8952   29.5970   46.1728 H   0  0  0  0  0  0  0  0  0  0  0  0
   59.3829   30.6036   46.1728 H   0  0  0  0  0  0  0  0  0  0  0  0
   61.1648   30.7468   47.4648 H   0  0  0  0  0  0  0  0  0  0  0  0
  1  2  1  0
  2  3  1  0
  3  4  1  0
  3  5  1  0
  5  6  1  0
  6  7  1  0
  7  8  1  0
  8  9  1  0
  9 10  1  0
 10 11  1  0
 11 12  1  0
 12 13  1  0
 13 14  1  0
 14 15  2  0
 15 16  1  0
 16 17  2  0
 17 18  1  0
 18 19  2  0
 19 20  1  0
 20 21  2  0
 21 22  1  0
 21 23  1  0
 23 24  2  0
 24 25  1  0
 25 26  1  0
 26 27  1  0
 27 28  1  0
 28 29  1  0
 29 30  1  0
 29 31  1  0
 25 32  2  0
 32 33  1  0
 33 34  1  0
 32 35  1  0
 35 36  2  0
 36 14  1  0
 20 15  1  0
 36 23  1  0
  1 37  1  0
  1 38  1  0
  1 39  1  0
  2 40  1  0
  2 41  1  0
  4 42  1  0
  4 43  1  0
  4 44  1  0
  5 45  1  0
  5 46  1  0
  6 47  1  0
  6 48  1  0
  8 49  1  0
  8 50  1  0
  9 51  1  0
  9 52  1  0
 11 53  1  0
 11 54  1  0
 12 55  1  0
 12 56  1  0
 13 57  1  0
 13 58  1  0
 16 59  1  0
 17 60  1  0
 18 61  1  0
 19 62  1  0
 22 63  1  0
 22 64  1  0
 22 65  1  0
 24 66  1  0
 26 67  1  0
 27 68  1  0
 27 69  1  0
 28 70  1  0
 28 71  1  0
 30 72  1  0
 30 73  1  0
 30 74  1  0
 31 75  1  0
 31 76  1  0
 31 77  1  0
 34 78  1  0
 34 79  1  0
 34 80  1  0
 35 81  1  0
M  CHG  2  13   1  21   1
M  END
>  <UniqueID>  (7) 
7

>  <SMILES>  (7) 
CCN(C)CCOCCOCC[NH2+]c1c2ccccc2[n+](C)c2cc(NCCN(C)C)c(OC)cc12

>  <Energy>  (7) 
108.20129651407503

>  <Genealogy>  (7) 
CCN(C)CCOCCOCC[NH2+]c1c2ccccc2[n+](C)c2cc(NCCN(C)C)c(OC)cc12 (protonated)
CCN(C)CCOCCOCC[NH2+]c1c2ccccc2[n+](C)c2cc(NCCN(C)C)c(OC)cc12 (3D coordinates assigned)
CCN(C)CCOCCOCC[NH2+]c1c2ccccc2[n+](C)c2cc(NCCN(C)C)c(OC)cc12 (optimized conformer: 108.20129651407503 kcal/mol)

>  <smiles>  (7) 
CCN(C)CCOCCOCCNc1c2ccccc2[n+](C)c2cc(NCCN(C)C)c(OC)cc12

>  <score_type>  (7) 
oracle

>  <origin>  (7) 
adg

>  <m_score__min__energy>  (7) 
-4.0899999999999999

>  <m_primary>  (7) 
energy

$$$$
7:0
     RDKit          3D

 50 52  0  0  0  0  0  0  0  0999 V2000
   60.3900   34.2450   48.9280 C   0  0  0  0  0  0  0  0  0  0  0  0
   59.4770   33.1070   48.4570 C   0  0  0  0  0  0  0  0  0  0  0  0
   59.0070   33.2080   47.0070 C   0  0  0  0  0  0  0  0  0  0  0  0
   58.6400   34.4670   46.4970 C   0  0  0  0  0  0  0  0  0  0  0  0
   57.9880   34.5820   45.2810 C   0  0  0  0  0  0  0  0  0  0  0  0
   57.7070   33.4540   44.5270 C   0  0  0  0  0  0  0  0  0  0  0  0
   58.1660   32.1750   44.9230 C   0  0  0  0  0  0  0  0  0  0  0  0
   58.8730   32.0570   46.1590 C   0  0  0  0  0  0  0  0  0  0  0  0
   59.4140   30.7890   46.4900 C   0  0  0  0  0  0  0  0  0  0  0  0
   60.4790   30.6620   47.4420 N   0  0  0  0  0  0  0  0  0  0  0  0
   61.8460   31.0080   47.0520 C   0  0  0  0  0  0  0  0  0  0  0  0
   62.6460   31.5840   48.2350 C   0  0  0  0  0  0  0  0  0  0  0  0
   63.7770   32.4470   47.8090 N   0  0  0  0  0  0  0  0  0  0  0  0
   64.3880   33.0900   48.9860 C   0  0  0  0  0  0  0  0  0  0  0  0
   63.3380   33.4850   46.8570 C   0  0  0  0  0  0  0  0  0  0  0  0
   58.9960   29.6480   45.7880 C   0  0  0  0  0  0  0  0  0  0  0  0
   59.3750   28.3560   46.2120 C   0  0  0  0  0  0  0  0  0  0  0  0
   58.9090   27.2240   45.5470 C   0  0  0  0  0  0  0  0  0  0  0  0
   58.0550   27.3600   44.4590 C   0  0  0  0  0  0  0  0  0  0  0  0
   57.6920   28.6270   44.0060 C   0  0  0  0  0  0  0  0  0  0  0  0
   58.1910   29.7970   44.6330 C   0  0  0  0  0  0  0  0  0  0  0  0
   57.9330   31.0580   44.1360 N   0  0  0  0  0  0  0  0  0  0  0  0
   57.4340   31.2140   42.7500 C   0  0  0  0  0  0  0  0  0  0  0  0
   60.4090   34.2686   50.0276 H   0  0  0  0  0  0  0  0  0  0  0  0
   61.4086   34.0794   48.5472 H   0  0  0  0  0  0  0  0  0  0  0  0
   60.0075   35.2035   48.5472 H   0  0  0  0  0  0  0  0  0  0  0  0
   60.0259   32.1607   48.5717 H   0  0  0  0  0  0  0  0  0  0  0  0
   58.5702   33.1668   49.0767 H   0  0  0  0  0  0  0  0  0  0  0  0
   58.8748   35.3740   47.0734 H   0  0  0  0  0  0  0  0  0  0  0  0
   57.6914   35.5747   44.9113 H   0  0  0  0  0  0  0  0  0  0  0  0
   57.1167   33.5543   43.6042 H   0  0  0  0  0  0  0  0  0  0  0  0
   60.2880   30.1730   48.3450 H   0  0  0  0  0  0  0  0  0  0  0  0
   62.3525   30.1027   46.6860 H   0  0  0  0  0  0  0  0  0  0  0  0
   61.7949   31.7756   46.2658 H   0  0  0  0  0  0  0  0  0  0  0  0
   61.9657   32.1816   48.8596 H   0  0  0  0  0  0  0  0  0  0  0  0
   63.0725   30.7336   48.7872 H   0  0  0  0  0  0  0  0  0  0  0  0
   64.5180   31.8710   47.3470 H   0  0  0  0  0  0  0  0  0  0  0  0
   63.9695   32.6496   49.9030 H   0  0  0  0  0  0  0  0  0  0  0  0
   65.4764   32.9315   48.9667 H   0  0  0  0  0  0  0  0  0  0  0  0
   64.1742   34.1688   48.9667 H   0  0  0  0  0  0  0  0  0  0  0  0
   62.9682   34.3594   47.4127 H   0  0  0  0  0  0  0  0  0  0  0  0
   64.1864   33.7846   46.2243 H   0  0  0  0  0  0  0  0  0  0  0  0
   62.5320   33.0850   46.2243 H   0  0  0  0  0  0  0  0  0  0  0  0
   60.0454   28.2418   47.0766 H   0  0  0  0  0  0  0  0  0  0  0  0
   59.2169   26.2228   45.8830 H   0  0  0  0  0  0  0  0  0  0  0  0
   57.6642   26.4645   43.9537 H   0  0  0  0  0  0  0  0  0  0  0  0
   57.0083   28.7209   43.1494 H   0  0  0  0  0  0  0  0  0  0  0  0
   56.3843   31.5422   42.7730 H   0  0  0  0  0  0  0  0  0  0  0  0
   58.0415   31.9651   42.2239 H   0  0  0  0  0  0  0  0  0  0  0  0
   57.5056   30.2506   42.2239 H   0  0  0  0  0  0  0  0  0  0  0  0
  1  2  1  0
  2  3  1  0
  3  4  2  0
  4  5  1  0
  5  6  2  0
  6  7  1  0
  7  8  2  0
  8  9  1  0
  9 10  1  0
 10 11  1  0
 11 12  1  0
 12 13  1  0
 13 14  1  0
 13 15  1  0
  9 16  2  0
 16 17  1  0
 17 18  2  0
 18 19  1  0
 19 20  2  0
 20 21  1  0
 21 22  2  0
 22 23  1  0
  8  3  1  0
 21 16  1  0
 22  7  1  0
  1 24  1  0
  1 25  1  0
  1 26  1  0
  2 27  1  0
  2 28  1  0
  4 29  1  0
  5 30  1  0
  6 31  1  0
 10 32  1  0
 11 33  1  0
 11 34  1  0
 12 35  1  0
 12 36  1  0
 13 37  1  0
 14 38  1  0
 14 39  1  0
 14 40  1  0
 15 41  1  0
 15 42  1  0
 15 43  1  0
 17 44  1  0
 18 45  1  0
 19 46  1  0
 20 47  1  0
 23 48  1  0
 23 49  1  0
 23 50  1  0
M  CHG  2  13   1  22   1
M  END
>  <UniqueID>  (8) 
8

>  <SMILES>  (8) 
CCc1cccc2c1c(NCC[NH+](C)C)c1ccccc1[n+]2C

>  <Energy>  (8) 
87.66389011089728

>  <Genealogy>  (8) 
CCc1cccc2c1c(NCC[NH+](C)C)c1ccccc1[n+]2C (protonated)
CCc1cccc2c1c(NCC[NH+](C)C)c1ccccc1[n+]2C (3D coordinates assigned)
CCc1cccc2c1c(NCC[NH+](C)C)c1ccccc1[n+]2C (optimized conformer: 87.66389011089728 kcal/mol)

>  <smiles>  (8) 
CCc1cccc2c1c(NCCN(C)C)c1ccccc1[n+]2C

>  <score_type>  (8) 
oracle

>  <origin>  (8) 
adg

>  <m_score__min__energy>  (8) 
-4.9100000000000001

>  <m_primary>  (8) 
energy

$$$$
8:0
     RDKit          3D

 53 53  0  0  0  0  0  0  0  0999 V2000
   58.9160   29.3580   49.7340 C   0  0  0  0  0  0  0  0  0  0  0  0
   58.5510   30.7790   50.1500 C   0  0  0  0  0  0  0  0  0  0  0  0
   59.2820   31.7660   49.3420 N   0  0  0  0  0  0  0  0  0  0  0  0
   59.3830   33.0760   50.0150 C   0  0  0  0  0  0  0  0  0  0  0  0
   59.6660   34.2330   49.0440 C   0  0  0  0  0  0  0  0  0  0  0  0
   59.4270   33.8300   47.7080 O   0  0  0  0  0  0  0  0  0  0  0  0
   60.5650   34.0000   46.8860 C   0  0  0  0  0  0  0  0  0  0  0  0
   61.3930   32.7140   46.8310 C   0  0  0  0  0  0  0  0  0  0  0  0
   60.5640   31.5390   47.1490 N   0  0  0  0  0  0  0  0  0  0  0  0
   60.9350   30.3460   46.3730 C   0  0  0  0  0  0  0  0  0  0  0  0
   59.7240   29.4970   46.0690 C   0  0  0  0  0  0  0  0  0  0  0  0
   59.8710   28.1020   46.0330 C   0  0  0  0  0  0  0  0  0  0  0  0
   58.7820   27.2850   45.7500 C   0  0  0  0  0  0  0  0  0  0  0  0
   57.5340   27.8450   45.4930 C   0  0  0  0  0  0  0  0  0  0  0  0
   57.3550   29.2430   45.5070 C   0  0  0  0  0  0  0  0  0  0  0  0
   56.0990   29.8100   45.2420 O   0  0  0  0  0  0  0  0  0  0  0  0
   55.5640   30.0510   43.9430 C   0  0  0  0  0  0  0  0  0  0  0  0
   56.6210   29.7230   42.8970 C   0  0  0  0  0  0  0  0  0  0  0  0
   58.4650   30.0810   45.7960 C   0  0  0  0  0  0  0  0  0  0  0  0
   58.3850   31.4870   45.8280 O   0  0  0  0  0  0  0  0  0  0  0  0
   58.0620   32.3480   44.7390 C   0  0  0  0  0  0  0  0  0  0  0  0
   57.4190   33.6200   45.2780 C   0  0  0  0  0  0  0  0  0  0  0  0
   59.0741   28.7423   50.6317 H   0  0  0  0  0  0  0  0  0  0  0  0
   58.0987   28.9299   49.1351 H   0  0  0  0  0  0  0  0  0  0  0  0
   59.8385   29.3768   49.1351 H   0  0  0  0  0  0  0  0  0  0  0  0
   57.4702   30.9288   50.0105 H   0  0  0  0  0  0  0  0  0  0  0  0
   58.8247   30.9174   51.2064 H   0  0  0  0  0  0  0  0  0  0  0  0
   58.8310   31.8690   48.4040 H   0  0  0  0  0  0  0  0  0  0  0  0
   60.2550   31.4120   49.1900 H   0  0  0  0  0  0  0  0  0  0  0  0
   58.4335   33.2777   50.5325 H   0  0  0  0  0  0  0  0  0  0  0  0
   60.2301   33.0206   50.7146 H   0  0  0  0  0  0  0  0  0  0  0  0
   59.0088   35.0803   49.2894 H   0  0  0  0  0  0  0  0  0  0  0  0
   60.7207   34.5296   49.1424 H   0  0  0  0  0  0  0  0  0  0  0  0
   60.2391   34.2628   45.8688 H   0  0  0  0  0  0  0  0  0  0  0  0
   61.1879   34.8025   47.3079 H   0  0  0  0  0  0  0  0  0  0  0  0
   61.8096   32.5973   45.8197 H   0  0  0  0  0  0  0  0  0  0  0  0
   62.2006   32.7849   47.5745 H   0  0  0  0  0  0  0  0  0  0  0  0
   59.5760   31.7730   46.8980 H   0  0  0  0  0  0  0  0  0  0  0  0
   61.3985   30.6626   45.4270 H   0  0  0  0  0  0  0  0  0  0  0  0
   61.6407   29.7477   46.9680 H   0  0  0  0  0  0  0  0  0  0  0  0
   60.8549   27.6514   46.2301 H   0  0  0  0  0  0  0  0  0  0  0  0
   58.9073   26.1924   45.7292 H   0  0  0  0  0  0  0  0  0  0  0  0
   56.6778   27.1892   45.2765 H   0  0  0  0  0  0  0  0  0  0  0  0
   54.6805   29.4149   43.7852 H   0  0  0  0  0  0  0  0  0  0  0  0
   55.2717   31.1077   43.8541 H   0  0  0  0  0  0  0  0  0  0  0  0
   57.5559   29.4329   43.3989 H   0  0  0  0  0  0  0  0  0  0  0  0
   56.2691   28.8918   42.2683 H   0  0  0  0  0  0  0  0  0  0  0  0
   56.8015   30.6074   42.2683 H   0  0  0  0  0  0  0  0  0  0  0  0
   58.9791   32.6044   44.1885 H   0  0  0  0  0  0  0  0  0  0  0  0
   57.3610   31.8388   44.0613 H   0  0  0  0  0  0  0  0  0  0  0  0
   57.4298   33.5987   46.3777 H   0  0  0  0  0  0  0  0  0  0  0  0
   57.9831   34.4950   44.9227 H   0  0  0  0  0  0  0  0  0  0  0  0
   56.3800   33.6846   44.9227 H   0  0  0  0  0  0  0  0  0  0  0  0
  1  2  1  0
  2  3  1  0
  3  4  1  0
  4  5  1  0
  5  6  1  0
  6  7  1  0
  7  8  1  0
  8  9  1  0
  9 10  1  0
 10 11  1  0
 11 12  2  0
 12 13  1  0
 13 14  2  0
 14 15  1  0
 15 16  1  0
 16 17  1  0
 17 18  1  0
 15 19  2  0
 19 20  1  0
 20 21  1  0
 21 22  1  0
 19 11  1  0
  1 23  1  0
  1 24  1  0
  1 25  1  0
  2 26  1  0
  2 27  1  0
  3 28  1  0
  3 29  1  0
  4 30  1  0
  4 31  1  0
  5 32  1  0
  5 33  1  0
  7 34  1  0
  7 35  1  0
  8 36  1  0
  8 37  1  0
  9 38  1  0
 10 39  1  0
 10 40  1  0
 12 41  1  0
 13 42  1  0
 14 43  1  0
 17 44  1  0
 17 45  1  0
 18 46  1  0
 18 47  1  0
 18 48  1  0
 21 49  1  0
 21 50  1  0
 22 51  1  0
 22 52  1  0
 22 53  1  0
M  CHG  1   3   1
M  END
>  <UniqueID>  (9) 
9

>  <SMILES>  (9) 
CC[NH2+]CCOCCNCc1cccc(OCC)c1OCC

>  <Energy>  (9) 
40.90959496264522

>  <Genealogy>  (9) 
CC[NH2+]CCOCCNCc1cccc(OCC)c1OCC (protonated)
CC[NH2+]CCOCCNCc1cccc(OCC)c1OCC (3D coordinates assigned)
CC[NH2+]CCOCCNCc1cccc(OCC)c1OCC (optimized conformer: 40.90959496264522 kcal/mol)

>  <smiles>  (9) 
CCNCCOCCNCc1cccc(OCC)c1OCC

>  <score_type>  (9) 
oracle

>  <origin>  (9) 
adg

>  <m_score__min__energy>  (9) 
-3.9399999999999999

>  <m_primary>  (9) 
energy

$$$$
9:0
     RDKit          3D

 53 55  0  0  0  0  0  0  0  0999 V2000
   63.2480   33.7660   47.5350 C   0  0  0  0  0  0  0  0  0  0  0  0
   63.4260   32.2620   47.3410 C   0  0  0  0  0  0  0  0  0  0  0  0
   62.3560   31.5410   48.0420 N   0  0  0  0  0  0  0  0  0  0  0  0
   62.3660   31.8320   49.4840 C   0  0  0  0  0  0  0  0  0  0  0  0
   61.9990   30.5880   50.3150 C   0  0  0  0  0  0  0  0  0  0  0  0
   61.4830   29.5300   49.5250 O   0  0  0  0  0  0  0  0  0  0  0  0
   60.1790   29.1720   49.9410 C   0  0  0  0  0  0  0  0  0  0  0  0
   59.1670   29.6030   48.8840 C   0  0  0  0  0  0  0  0  0  0  0  0
   59.8290   30.2740   47.7640 N   0  0  0  0  0  0  0  0  0  0  0  0
   59.1920   30.3850   46.4790 C   0  0  0  0  0  0  0  0  0  0  0  0
   58.8600   29.2320   45.7440 C   0  0  0  0  0  0  0  0  0  0  0  0
   59.3000   27.9560   46.1580 C   0  0  0  0  0  0  0  0  0  0  0  0
   58.9960   26.8200   45.4110 C   0  0  0  0  0  0  0  0  0  0  0  0
   58.2730   26.9360   44.2300 C   0  0  0  0  0  0  0  0  0  0  0  0
   57.8390   28.1880   43.7930 C   0  0  0  0  0  0  0  0  0  0  0  0
   58.1020   29.3590   44.5490 C   0  0  0  0  0  0  0  0  0  0  0  0
   57.6600   30.6020   44.1380 N   0  0  0  0  0  0  0  0  0  0  0  0
   56.6330   30.7090   43.0770 C   0  0  0  0  0  0  0  0  0  0  0  0
   58.1650   31.7440   44.7310 C   0  0  0  0  0  0  0  0  0  0  0  0
   57.9660   33.0250   44.1610 C   0  0  0  0  0  0  0  0  0  0  0  0
   58.4400   34.1740   44.7890 C   0  0  0  0  0  0  0  0  0  0  0  0
   59.1320   34.0850   46.0000 C   0  0  0  0  0  0  0  0  0  0  0  0
   59.6550   35.3210   46.6700 C   0  0  0  0  0  0  0  0  0  0  0  0
   59.3710   32.8290   46.5660 C   0  0  0  0  0  0  0  0  0  0  0  0
   58.9150   31.6520   45.9340 C   0  0  0  0  0  0  0  0  0  0  0  0
   63.2207   33.9963   48.6103 H   0  0  0  0  0  0  0  0  0  0  0  0
   64.0894   34.2982   47.0672 H   0  0  0  0  0  0  0  0  0  0  0  0
   62.3056   34.0870   47.0672 H   0  0  0  0  0  0  0  0  0  0  0  0
   63.3842   32.0246   46.2677 H   0  0  0  0  0  0  0  0  0  0  0  0
   64.3998   31.9553   47.7503 H   0  0  0  0  0  0  0  0  0  0  0  0
   62.5420   30.5140   47.9290 H   0  0  0  0  0  0  0  0  0  0  0  0
   63.3719   32.1706   49.7731 H   0  0  0  0  0  0  0  0  0  0  0  0
   61.6170   32.6126   49.6831 H   0  0  0  0  0  0  0  0  0  0  0  0
   62.9024   30.2319   50.8318 H   0  0  0  0  0  0  0  0  0  0  0  0
   61.2122   30.8848   51.0242 H   0  0  0  0  0  0  0  0  0  0  0  0
   60.1246   28.0817   50.0766 H   0  0  0  0  0  0  0  0  0  0  0  0
   59.9489   29.6739   50.8924 H   0  0  0  0  0  0  0  0  0  0  0  0
   58.6386   28.7142   48.5088 H   0  0  0  0  0  0  0  0  0  0  0  0
   58.4590   30.3076   49.3446 H   0  0  0  0  0  0  0  0  0  0  0  0
   60.7870   30.6700   47.8930 H   0  0  0  0  0  0  0  0  0  0  0  0
   59.8898   27.8576   47.0813 H   0  0  0  0  0  0  0  0  0  0  0  0
   59.3287   25.8301   45.7565 H   0  0  0  0  0  0  0  0  0  0  0  0
   58.0421   26.0382   43.6379 H   0  0  0  0  0  0  0  0  0  0  0  0
   57.2838   28.2682   42.8468 H   0  0  0  0  0  0  0  0  0  0  0  0
   55.6394   30.8125   43.5375 H   0  0  0  0  0  0  0  0  0  0  0  0
   56.8413   31.5903   42.4526 H   0  0  0  0  0  0  0  0  0  0  0  0
   56.6552   29.8037   42.4526 H   0  0  0  0  0  0  0  0  0  0  0  0
   57.4278   33.1140   43.2058 H   0  0  0  0  0  0  0  0  0  0  0  0
   58.2686   35.1583   44.3288 H   0  0  0  0  0  0  0  0  0  0  0  0
   59.6023   35.1965   47.7617 H   0  0  0  0  0  0  0  0  0  0  0  0
   60.7002   35.4864   46.3698 H   0  0  0  0  0  0  0  0  0  0  0  0
   59.0460   36.1864   46.3698 H   0  0  0  0  0  0  0  0  0  0  0  0
   59.9213   32.7571   47.5157 H   0  0  0  0  0  0  0  0  0  0  0  0
  1  2  1  0
  2  3  1  0
  3  4  1  0
  4  5  1  0
  5  6  1  0
  6  7  1  0
  7  8  1  0
  8  9  1  0
  9 10  1  0
 10 11  2  0
 11 12  1  0
 12 13  2  0
 13 14  1  0
 14 15  2  0
 15 16  1  0
 16 17  2  0
 17 18  1  0
 17 19  1  0
 19 20  2  0
 20 21  1  0
 21 22  2  0
 22 23  1  0
 22 24  1  0
 24 25  2  0
 25 10  1  0
 16 11  1  0
 25 19  1  0
  1 26  1  0
  1 27  1  0
  1 28  1  0
  2 29  1  0
  2 30  1  0
  3 31  1  0
  4 32  1  0
  4 33  1  0
  5 34  1  0
  5 35  1  0
  7 36  1  0
  7 37  1  0
  8 38  1  0
  8 39  1  0
  9 40  1  0
 12 41  1  0
 13 42  1  0
 14 43  1  0
 15 44  1  0
 18 45  1  0
 18 46  1  0
 18 47  1  0
 20 48  1  0
 21 49  1  0
 23 50  1  0
 23 51  1  0
 23 52  1  0
 24 53  1  0
M  CHG  1  17   1
M  END
>  <UniqueID>  (10) 
10

>  <SMILES>  (10) 
CCNCCOCCNc1c2ccccc2[n+](C)c2ccc(C)cc12

>  <Energy>  (10) 
74.71186940818959

>  <Genealogy>  (10) 
CCNCCOCCNc1c2ccccc2[n+](C)c2ccc(C)cc12 (3D coordinates assigned)
CCNCCOCCNc1c2ccccc2[n+](C)c2ccc(C)cc12 (optimized conformer: 74.71186940818959 kcal/mol)

>  <smiles>  (10) 
CCNCCOCCNc1c2ccccc2[n+](C)c2ccc(C)cc12

>  <score_type>  (10) 
oracle

>  <origin>  (10) 
adg

>  <m_score__min__energy>  (10) 
-5.96

>  <m_primary>  (10) 
energy

$$$$
10:0
     RDKit          3D

 49 49  0  0  0  0  0  0  0  0999 V2000
   57.7630   26.5670   46.5620 C   0  0  0  0  0  0  0  0  0  0  0  0
   57.0070   27.4940   45.5980 C   0  0  0  0  0  0  0  0  0  0  0  0
   57.8600   28.4390   44.8330 N   0  0  0  0  0  0  0  0  0  0  0  0
   59.1410   27.9140   44.3090 C   0  0  0  0  0  0  0  0  0  0  0  0
   60.3260   28.6440   44.9380 C   0  0  0  0  0  0  0  0  0  0  0  0
   57.1290   29.3080   43.8830 C   0  0  0  0  0  0  0  0  0  0  0  0
   57.0250   30.7730   44.3440 C   0  0  0  0  0  0  0  0  0  0  0  0
   57.7160   30.9640   45.6280 N   0  0  0  0  0  0  0  0  0  0  0  0
   58.3710   32.2480   45.6470 C   0  0  0  0  0  0  0  0  0  0  0  0
   57.8170   33.3400   44.9590 C   0  0  0  0  0  0  0  0  0  0  0  0
   58.4310   34.5910   45.0130 C   0  0  0  0  0  0  0  0  0  0  0  0
   59.5980   34.7710   45.7600 C   0  0  0  0  0  0  0  0  0  0  0  0
   60.1620   33.6970   46.4710 C   0  0  0  0  0  0  0  0  0  0  0  0
   61.3580   33.8830   47.2630 N   0  0  0  0  0  0  0  0  0  0  0  0
   61.2660   34.1470   48.7080 C   0  0  0  0  0  0  0  0  0  0  0  0
   59.8090   34.1800   49.1610 C   0  0  0  0  0  0  0  0  0  0  0  0
   62.6830   33.8110   46.6290 C   0  0  0  0  0  0  0  0  0  0  0  0
   63.6530   32.9930   47.4780 C   0  0  0  0  0  0  0  0  0  0  0  0
   59.5390   32.4370   46.4080 C   0  0  0  0  0  0  0  0  0  0  0  0
   57.5321   26.8501   47.5996 H   0  0  0  0  0  0  0  0  0  0  0  0
   57.4531   25.5260   46.3883 H   0  0  0  0  0  0  0  0  0  0  0  0
   58.8451   26.6612   46.3883 H   0  0  0  0  0  0  0  0  0  0  0  0
   56.4635   26.8656   44.8771 H   0  0  0  0  0  0  0  0  0  0  0  0
   56.3479   28.1141   46.2233 H   0  0  0  0  0  0  0  0  0  0  0  0
   59.2133   26.8415   44.5424 H   0  0  0  0  0  0  0  0  0  0  0  0
   59.1674   28.0724   43.2208 H   0  0  0  0  0  0  0  0  0  0  0  0
   60.2468   28.5952   46.0341 H   0  0  0  0  0  0  0  0  0  0  0  0
   61.2634   28.1666   44.6165 H   0  0  0  0  0  0  0  0  0  0  0  0
   60.3212   29.6959   44.6165 H   0  0  0  0  0  0  0  0  0  0  0  0
   57.6526   29.2839   42.9159 H   0  0  0  0  0  0  0  0  0  0  0  0
   56.1029   28.9180   43.8125 H   0  0  0  0  0  0  0  0  0  0  0  0
   57.4853   31.4237   43.5859 H   0  0  0  0  0  0  0  0  0  0  0  0
   55.9629   31.0289   44.4724 H   0  0  0  0  0  0  0  0  0  0  0  0
   57.0260   30.9090   46.4130 H   0  0  0  0  0  0  0  0  0  0  0  0
   58.4230   30.2050   45.7650 H   0  0  0  0  0  0  0  0  0  0  0  0
   56.8944   33.2079   44.3748 H   0  0  0  0  0  0  0  0  0  0  0  0
   57.9948   35.4394   44.4653 H   0  0  0  0  0  0  0  0  0  0  0  0
   60.0789   35.7598   45.7921 H   0  0  0  0  0  0  0  0  0  0  0  0
   61.7956   33.3526   49.2542 H   0  0  0  0  0  0  0  0  0  0  0  0
   61.7227   35.1255   48.9175 H   0  0  0  0  0  0  0  0  0  0  0  0
   59.7667   34.1810   50.2602 H   0  0  0  0  0  0  0  0  0  0  0  0
   59.3254   35.0893   48.7747 H   0  0  0  0  0  0  0  0  0  0  0  0
   59.2847   33.2935   48.7747 H   0  0  0  0  0  0  0  0  0  0  0  0
   62.5835   33.3384   45.6407 H   0  0  0  0  0  0  0  0  0  0  0  0
   63.0797   34.8322   46.5301 H   0  0  0  0  0  0  0  0  0  0  0  0
   63.4451   33.1683   48.5438 H   0  0  0  0  0  0  0  0  0  0  0  0
   63.5274   31.9240   47.2509 H   0  0  0  0  0  0  0  0  0  0  0  0
   64.6854   33.2972   47.2509 H   0  0  0  0  0  0  0  0  0  0  0  0
   59.9705   31.5894   46.9605 H   0  0  0  0  0  0  0  0  0  0  0  0
  1  2  1  0
  2  3  1  0
  3  4  1  0
  4  5  1  0
  3  6  1  0
  6  7  1  0
  7  8  1  0
  8  9  1  0
  9 10  2  0
 10 11  1  0
 11 12  2  0
 12 13  1  0
 13 14  1  0
 14 15  1  0
 15 16  1  0
 14 17  1  0
 17 18  1  0
 13 19  2  0
 19  9  1  0
  1 20  1  0
  1 21  1  0
  1 22  1  0
  2 23  1  0
  2 24  1  0
  4 25  1  0
  4 26  1  0
  5 27  1  0
  5 28  1  0
  5 29  1  0
  6 30  1  0
  6 31  1  0
  7 32  1  0
  7 33  1  0
  8 34  1  0
  8 35  1  0
 10 36  1  0
 11 37  1  0
 12 38  1  0
 15 39  1  0
 15 40  1  0
 16 41  1  0
 16 42  1  0
 16 43  1  0
 17 44  1  0
 17 45  1  0
 18 46  1  0
 18 47  1  0
 18 48  1  0
 19 49  1  0
M  CHG  1   8   1
M  END
>  <UniqueID>  (11) 
11

>  <SMILES>  (11) 
CCN(CC)CC[NH2+]c1cccc(N(CC)CC)c1

>  <Energy>  (11) 
47.85443791004183

>  <Genealogy>  (11) 
CCN(CC)CC[NH2+]c1cccc(N(CC)CC)c1 (protonated)
CCN(CC)CC[NH2+]c1cccc(N(CC)CC)c1 (3D coordinates assigned)
CCN(CC)CC[NH2+]c1cccc(N(CC)CC)c1 (optimized conformer: 47.85443791004183 kcal/mol)

>  <smiles>  (11) 
CCN(CC)CCNc1cccc(N(CC)CC)c1

>  <score_type>  (11) 
oracle

>  <origin>  (11) 
adg

>  <m_score__min__energy>  (11) 
-3.8399999999999999

>  <m_primary>  (11) 
energy

$$$$
11:0
     RDKit          3D

 39 41  0  0  0  0  0  0  0  0999 V2000
   55.5310   26.5310   45.9840 O   0  0  0  0  0  0  0  0  0  0  0  0
   56.2770   27.4770   45.6250 C   0  0  0  0  0  0  0  0  0  0  0  0
   57.7010   27.3060   45.6910 N   0  0  0  0  0  0  0  0  0  0  0  0
   58.6420   28.3040   46.1090 C   0  0  0  0  0  0  0  0  0  0  0  0
   59.7160   28.6900   45.2900 C   0  0  0  0  0  0  0  0  0  0  0  0
   60.5830   29.7070   45.6970 C   0  0  0  0  0  0  0  0  0  0  0  0
   60.4050   30.3410   46.9400 C   0  0  0  0  0  0  0  0  0  0  0  0
   61.3080   31.4430   47.3590 C   0  0  0  0  0  0  0  0  0  0  0  0
   60.7880   32.6090   47.9520 C   0  0  0  0  0  0  0  0  0  0  0  0
   61.6420   33.6450   48.3420 C   0  0  0  0  0  0  0  0  0  0  0  0
   63.0200   33.5310   48.1440 C   0  0  0  0  0  0  0  0  0  0  0  0
   63.5470   32.3790   47.5550 C   0  0  0  0  0  0  0  0  0  0  0  0
   62.6990   31.3400   47.1640 C   0  0  0  0  0  0  0  0  0  0  0  0
   59.3550   29.9180   47.7750 C   0  0  0  0  0  0  0  0  0  0  0  0
   58.4870   28.9020   47.3640 C   0  0  0  0  0  0  0  0  0  0  0  0
   55.6810   28.6970   45.1620 N   0  0  0  0  0  0  0  0  0  0  0  0
   56.3640   29.7400   44.4520 C   0  0  0  0  0  0  0  0  0  0  0  0
   56.3850   29.7780   43.0490 C   0  0  0  0  0  0  0  0  0  0  0  0
   57.0090   30.8360   42.3850 C   0  0  0  0  0  0  0  0  0  0  0  0
   57.6320   31.8520   43.1130 C   0  0  0  0  0  0  0  0  0  0  0  0
   57.6640   31.8020   44.5180 C   0  0  0  0  0  0  0  0  0  0  0  0
   58.2850   32.9270   45.3060 C   0  0  0  0  0  0  0  0  0  0  0  0
   57.8540   32.9000   46.6220 F   0  0  0  0  0  0  0  0  0  0  0  0
   59.6610   32.7950   45.2800 F   0  0  0  0  0  0  0  0  0  0  0  0
   57.9400   34.1530   44.7630 F   0  0  0  0  0  0  0  0  0  0  0  0
   57.0180   30.7430   45.1790 C   0  0  0  0  0  0  0  0  0  0  0  0
   59.8751   28.1891   44.3237 H   0  0  0  0  0  0  0  0  0  0  0  0
   61.4107   30.0142   45.0408 H   0  0  0  0  0  0  0  0  0  0  0  0
   59.7036   32.7056   48.1094 H   0  0  0  0  0  0  0  0  0  0  0  0
   61.2276   34.5522   48.8060 H   0  0  0  0  0  0  0  0  0  0  0  0
   63.6897   34.3476   48.4516 H   0  0  0  0  0  0  0  0  0  0  0  0
   64.6322   32.2899   47.3988 H   0  0  0  0  0  0  0  0  0  0  0  0
   63.1204   30.4356   46.7008 H   0  0  0  0  0  0  0  0  0  0  0  0
   59.2158   30.3901   48.7587 H   0  0  0  0  0  0  0  0  0  0  0  0
   57.6776   28.5710   48.0313 H   0  0  0  0  0  0  0  0  0  0  0  0
   55.9087   28.9723   42.4712 H   0  0  0  0  0  0  0  0  0  0  0  0
   57.0099   30.8693   41.2855 H   0  0  0  0  0  0  0  0  0  0  0  0
   58.1001   32.6957   42.5847 H   0  0  0  0  0  0  0  0  0  0  0  0
   57.0261   30.7014   46.2782 H   0  0  0  0  0  0  0  0  0  0  0  0
  1  2  2  0
  2  3  1  0
  3  4  1  0
  4  5  2  0
  5  6  1  0
  6  7  2  0
  7  8  1  0
  8  9  2  0
  9 10  1  0
 10 11  2  0
 11 12  1  0
 12 13  2  0
  7 14  1  0
 14 15  2  0
  2 16  1  0
 16 17  1  0
 17 18  2  0
 18 19  1  0
 19 20  2  0
 20 21  1  0
 21 22  1  0
 22 23  1  0
 22 24  1  0
 22 25  1  0
 21 26  2  0
 15  4  1  0
 26 17  1  0
 13  8  1  0
  5 27  1  0
  6 28  1  0
  9 29  1  0
 10 30  1  0
 11 31  1  0
 12 32  1  0
 13 33  1  0
 14 34  1  0
 15 35  1  0
 18 36  1  0
 19 37  1  0
 20 38  1  0
 26 39  1  0
M  CHG  2   3  -1  16  -1
M  END
>  <UniqueID>  (12) 
12

>  <SMILES>  (12) 
O=C([N-]c1ccc(-c2ccccc2)cc1)[N-]c1cccc(C(F)(F)F)c1

>  <Energy>  (12) 
54.23005687009385

>  <Genealogy>  (12) 
O=C([N-]c1ccc(-c2ccccc2)cc1)[N-]c1cccc(C(F)(F)F)c1 (protonated)
O=C([N-]c1ccc(-c2ccccc2)cc1)[N-]c1cccc(C(F)(F)F)c1 (3D coordinates assigned)
O=C([N-]c1ccc(-c2ccccc2)cc1)[N-]c1cccc(C(F)(F)F)c1 (optimized conformer: 54.23005687009385 kcal/mol)

>  <smiles>  (12) 
O=C(Nc1ccc(-c2ccccc2)cc1)Nc1cccc(C(F)(F)F)c1

>  <score_type>  (12) 
oracle

>  <origin>  (12) 
adg

>  <m_score__min__energy>  (12) 
-10.93

>  <m_primary>  (12) 
energy

$$$$
12:0
     RDKit          3D

 63 65  0  0  0  0  0  0  0  0999 V2000
   58.8690   32.4050   50.3270 C   0  0  0  0  0  0  0  0  0  0  0  0
   59.8520   33.5740   50.2860 C   0  0  0  0  0  0  0  0  0  0  0  0
   61.2480   33.0830   50.2390 N   0  0  0  0  0  0  0  0  0  0  0  0
   61.5870   32.2780   51.4420 C   0  0  0  0  0  0  0  0  0  0  0  0
   62.4290   31.0740   51.0310 C   0  0  0  0  0  0  0  0  0  0  0  0
   62.1880   34.2100   50.0410 C   0  0  0  0  0  0  0  0  0  0  0  0
   63.3750   33.8000   49.1640 C   0  0  0  0  0  0  0  0  0  0  0  0
   62.9260   33.6100   47.8370 O   0  0  0  0  0  0  0  0  0  0  0  0
   63.4390   32.4030   47.3060 C   0  0  0  0  0  0  0  0  0  0  0  0
   62.4250   31.2620   47.4790 C   0  0  0  0  0  0  0  0  0  0  0  0
   61.1580   31.7560   48.0640 N   0  0  0  0  0  0  0  0  0  0  0  0
   60.0230   31.5360   47.1780 C   0  0  0  0  0  0  0  0  0  0  0  0
   59.5180   32.6240   46.4020 C   0  0  0  0  0  0  0  0  0  0  0  0
   60.0280   33.9420   46.5360 C   0  0  0  0  0  0  0  0  0  0  0  0
   59.5150   34.9990   45.7900 C   0  0  0  0  0  0  0  0  0  0  0  0
   58.5070   34.7750   44.8680 C   0  0  0  0  0  0  0  0  0  0  0  0
   58.0060   33.4900   44.6840 C   0  0  0  0  0  0  0  0  0  0  0  0
   58.4850   32.3940   45.4500 C   0  0  0  0  0  0  0  0  0  0  0  0
   58.0080   31.1200   45.2400 N   0  0  0  0  0  0  0  0  0  0  0  0
   56.7900   30.9090   44.4220 C   0  0  0  0  0  0  0  0  0  0  0  0
   58.6470   30.0400   45.8050 C   0  0  0  0  0  0  0  0  0  0  0  0
   58.4680   28.7420   45.2700 C   0  0  0  0  0  0  0  0  0  0  0  0
   59.0270   27.6240   45.8800 C   0  0  0  0  0  0  0  0  0  0  0  0
   58.8140   26.2560   45.2980 C   0  0  0  0  0  0  0  0  0  0  0  0
   59.6620   27.7700   47.1060 C   0  0  0  0  0  0  0  0  0  0  0  0
   59.8580   29.0370   47.6750 C   0  0  0  0  0  0  0  0  0  0  0  0
   60.2770   29.0270   49.1250 C   0  0  0  0  0  0  0  0  0  0  0  0
   59.5170   30.2150   46.9210 C   0  0  0  0  0  0  0  0  0  0  0  0
   58.6510   32.1458   51.3736 H   0  0  0  0  0  0  0  0  0  0  0  0
   57.9367   32.6919   49.8185 H   0  0  0  0  0  0  0  0  0  0  0  0
   59.3116   31.5358   49.8185 H   0  0  0  0  0  0  0  0  0  0  0  0
   59.6528   34.1820   49.3912 H   0  0  0  0  0  0  0  0  0  0  0  0
   59.7204   34.1786   51.1955 H   0  0  0  0  0  0  0  0  0  0  0  0
   62.1565   32.8987   52.1494 H   0  0  0  0  0  0  0  0  0  0  0  0
   60.6604   31.9294   51.9215 H   0  0  0  0  0  0  0  0  0  0  0  0
   62.7915   30.5557   51.9310 H   0  0  0  0  0  0  0  0  0  0  0  0
   61.8153   30.3844   50.4328 H   0  0  0  0  0  0  0  0  0  0  0  0
   63.2873   31.4138   50.4328 H   0  0  0  0  0  0  0  0  0  0  0  0
   61.6542   35.0402   49.5555 H   0  0  0  0  0  0  0  0  0  0  0  0
   62.5737   34.5161   51.0246 H   0  0  0  0  0  0  0  0  0  0  0  0
   64.1389   34.5913   49.1847 H   0  0  0  0  0  0  0  0  0  0  0  0
   63.8116   32.8650   49.5449 H   0  0  0  0  0  0  0  0  0  0  0  0
   63.6498   32.5400   46.2351 H   0  0  0  0  0  0  0  0  0  0  0  0
   64.3616   32.1422   47.8452 H   0  0  0  0  0  0  0  0  0  0  0  0
   62.2161   30.8154   46.4957 H   0  0  0  0  0  0  0  0  0  0  0  0
   62.8553   30.5140   48.1611 H   0  0  0  0  0  0  0  0  0  0  0  0
   61.2210   32.7540   48.3450 H   0  0  0  0  0  0  0  0  0  0  0  0
   60.9910   31.2850   48.9810 H   0  0  0  0  0  0  0  0  0  0  0  0
   60.8470   34.1321   47.2453 H   0  0  0  0  0  0  0  0  0  0  0  0
   59.9115   36.0150   45.9334 H   0  0  0  0  0  0  0  0  0  0  0  0
   58.1022   35.6126   44.2810 H   0  0  0  0  0  0  0  0  0  0  0  0
   57.2233   33.3195   43.9302 H   0  0  0  0  0  0  0  0  0  0  0  0
   55.9248   30.7591   45.0845 H   0  0  0  0  0  0  0  0  0  0  0  0
   56.6174   31.7906   43.7872 H   0  0  0  0  0  0  0  0  0  0  0  0
   56.9240   30.0207   43.7872 H   0  0  0  0  0  0  0  0  0  0  0  0
   57.8744   28.6147   44.3527 H   0  0  0  0  0  0  0  0  0  0  0  0
   58.7002   25.5249   46.1120 H   0  0  0  0  0  0  0  0  0  0  0  0
   57.9055   26.2587   44.6779 H   0  0  0  0  0  0  0  0  0  0  0  0
   59.6804   25.9824   44.6779 H   0  0  0  0  0  0  0  0  0  0  0  0
   60.0175   26.8766   47.6403 H   0  0  0  0  0  0  0  0  0  0  0  0
   59.3828   29.0483   49.7652 H   0  0  0  0  0  0  0  0  0  0  0  0
   60.8554   28.1148   49.3333 H   0  0  0  0  0  0  0  0  0  0  0  0
   60.8982   29.9106   49.3333 H   0  0  0  0  0  0  0  0  0  0  0  0
  1  2  1  0
  2  3  1  0
  3  4  1  0
  4  5  1  0
  3  6  1  0
  6  7  1  0
  7  8  1  0
  8  9  1  0
  9 10  1  0
 10 11  1  0
 11 12  1  0
 12 13  2  0
 13 14  1  0
 14 15  2  0
 15 16  1  0
 16 17  2  0
 17 18  1  0
 18 19  2  0
 19 20  1  0
 19 21  1  0
 21 22  2  0
 22 23  1  0
 23 24  1  0
 23 25  2  0
 25 26  1  0
 26 27  1  0
 26 28  2  0
 28 12  1  0
 18 13  1  0
 28 21  1  0
  1 29  1  0
  1 30  1  0
  1 31  1  0
  2 32  1  0
  2 33  1  0
  4 34  1  0
  4 35  1  0
  5 36  1  0
  5 37  1  0
  5 38  1  0
  6 39  1  0
  6 40  1  0
  7 41  1  0
  7 42  1  0
  9 43  1  0
  9 44  1  0
 10 45  1  0
 10 46  1  0
 11 47  1  0
 11 48  1  0
 14 49  1  0
 15 50  1  0
 16 51  1  0
 17 52  1  0
 20 53  1  0
 20 54  1  0
 20 55  1  0
 22 56  1  0
 24 57  1  0
 24 58  1  0
 24 59  1  0
 25 60  1  0
 27 61  1  0
 27 62  1  0
 27 63  1  0
M  CHG  2  11   1  19   1
M  END
>  <UniqueID>  (13) 
13

>  <SMILES>  (13) 
CCN(CC)CCOCC[NH2+]c1c2ccccc2[n+](C)c2cc(C)cc(C)c12

>  <Energy>  (13) 
106.33758087895852

>  <Genealogy>  (13) 
CCN(CC)CCOCC[NH2+]c1c2ccccc2[n+](C)c2cc(C)cc(C)c12 (protonated)
CCN(CC)CCOCC[NH2+]c1c2ccccc2[n+](C)c2cc(C)cc(C)c12 (3D coordinates assigned)
CCN(CC)CCOCC[NH2+]c1c2ccccc2[n+](C)c2cc(C)cc(C)c12 (optimized conformer: 106.33758087895852 kcal/mol)

>  <smiles>  (13) 
CCN(CC)CCOCCNc1c2ccccc2[n+](C)c2cc(C)cc(C)c12

>  <score_type>  (13) 
oracle

>  <origin>  (13) 
adg

>  <m_score__min__energy>  (13) 
-4.0099999999999998

>  <m_primary>  (13) 
energy

$$$$
13:0
     RDKit          3D

 50 53  0  0  1  0  0  0  0  0999 V2000
   58.3130   25.3860   45.5420 C   0  0  0  0  0  0  0  0  0  0  0  0
   58.0420   26.8490   45.5210 C   0  0  0  0  0  0  0  0  0  0  0  0
   58.4010   27.6040   46.6160 C   0  0  0  0  0  0  0  0  0  0  0  0
   58.1290   28.9550   46.5520 C   0  0  0  0  0  0  0  0  0  0  0  0
   58.4410   29.6800   47.5420 N   0  0  0  0  0  0  0  0  0  0  0  0
   59.5820   30.5160   47.7070 C   0  0  0  0  0  0  0  0  0  0  0  0
   60.5060   30.7110   46.5600 C   0  0  0  0  0  0  0  0  0  0  0  0
   61.8910   30.8830   47.1500 C   0  0  0  0  0  0  0  0  0  0  0  0
   61.9190   31.9890   48.0740 N   0  0  0  0  0  0  0  0  0  0  0  0
   61.7400   33.2710   47.4350 C   0  0  0  0  0  0  0  0  0  0  0  0
   60.5150   33.9170   48.0360 C   0  0  0  0  0  0  0  0  0  0  0  0
   59.3770   33.9530   47.0810 C   0  0  0  0  0  0  0  0  0  0  0  0
   58.1300   33.4600   47.3510 C   0  0  0  0  0  0  0  0  0  0  0  0
   57.1170   33.5370   46.3930 C   0  0  0  0  0  0  0  0  0  0  0  0
   57.3450   34.1110   45.1520 C   0  0  0  0  0  0  0  0  0  0  0  0
   58.6140   34.6070   44.8930 C   0  0  0  0  0  0  0  0  0  0  0  0
   59.6320   34.5360   45.8380 C   0  0  0  0  0  0  0  0  0  0  0  0
   60.9390   31.8660   49.1290 C   0  0  0  0  0  0  0  0  0  0  0  0
   60.2560   30.4880   49.0430 C   0  0  0  0  0  0  0  0  0  0  0  0
   57.5420   29.5320   45.4800 N   0  0  0  0  0  0  0  0  0  0  0  0
   57.2120   30.8020   45.2550 N   0  0  0  0  0  0  0  0  0  0  0  0
   56.6440   30.9080   44.0390 C   0  0  0  0  0  0  0  0  0  0  0  0
   56.6310   29.6260   43.5010 C   0  0  0  0  0  0  0  0  0  0  0  0
   57.2050   28.7720   44.4320 C   0  0  0  0  0  0  0  0  0  0  0  0
   57.4620   27.4590   44.4780 N   0  0  0  0  0  0  0  0  0  0  0  0
   58.3771   25.0399   46.5842 H   0  0  0  0  0  0  0  0  0  0  0  0
   57.4980   24.8547   45.0287 H   0  0  0  0  0  0  0  0  0  0  0  0
   59.2642   25.1819   45.0287 H   0  0  0  0  0  0  0  0  0  0  0  0
   58.8804   27.1524   47.4970 H   0  0  0  0  0  0  0  0  0  0  0  0
   59.0364   31.4711   47.6974 H   0  0  0  0  0  0  0  0  0  0  0  0
   60.4810   29.8329   45.8979 H   0  0  0  0  0  0  0  0  0  0  0  0
   60.2170   31.5863   45.9598 H   0  0  0  0  0  0  0  0  0  0  0  0
   62.1740   29.9621   47.6809 H   0  0  0  0  0  0  0  0  0  0  0  0
   62.5996   31.0869   46.3337 H   0  0  0  0  0  0  0  0  0  0  0  0
   62.6221   33.9040   47.6117 H   0  0  0  0  0  0  0  0  0  0  0  0
   61.6159   33.1460   46.3492 H   0  0  0  0  0  0  0  0  0  0  0  0
   60.2132   33.3456   48.9262 H   0  0  0  0  0  0  0  0  0  0  0  0
   60.7721   34.9544   48.2962 H   0  0  0  0  0  0  0  0  0  0  0  0
   57.9239   33.0001   48.3288 H   0  0  0  0  0  0  0  0  0  0  0  0
   56.1203   33.1350   46.6273 H   0  0  0  0  0  0  0  0  0  0  0  0
   56.5463   34.1711   44.3980 H   0  0  0  0  0  0  0  0  0  0  0  0
   58.8205   35.0680   43.9159 H   0  0  0  0  0  0  0  0  0  0  0  0
   60.6305   34.9361   45.6080 H   0  0  0  0  0  0  0  0  0  0  0  0
   61.4369   31.9674   50.1046 H   0  0  0  0  0  0  0  0  0  0  0  0
   60.1818   32.6561   49.0177 H   0  0  0  0  0  0  0  0  0  0  0  0
   60.9980   29.6775   49.0923 H   0  0  0  0  0  0  0  0  0  0  0  0
   59.5571   30.3033   49.8721 H   0  0  0  0  0  0  0  0  0  0  0  0
   56.2656   31.8259   43.5655 H   0  0  0  0  0  0  0  0  0  0  0  0
   56.2366   29.3401   42.5147 H   0  0  0  0  0  0  0  0  0  0  0  0
   57.1970   26.8870   43.6610 H   0  0  0  0  0  0  0  0  0  0  0  0
  1  2  1  0
  2  3  2  0
  3  4  1  0
  4  5  2  0
  5  6  1  0
  6  7  1  0
  7  8  1  0
  8  9  1  0
  9 10  1  0
 10 11  1  0
 11 12  1  0
 12 13  2  0
 13 14  1  0
 14 15  2  0
 15 16  1  0
 16 17  2  0
  9 18  1  0
 18 19  1  0
  4 20  1  0
 20 21  1  0
 21 22  2  0
 22 23  1  0
 23 24  2  0
 24 25  1  0
 25  2  1  0
 19  6  1  0
 24 20  1  0
 17 12  1  0
  1 26  1  0
  1 27  1  0
  1 28  1  0
  3 29  1  0
  6 30  1  0
  7 31  1  0
  7 32  1  0
  8 33  1  0
  8 34  1  0
 10 35  1  0
 10 36  1  0
 11 37  1  0
 11 38  1  0
 13 39  1  0
 14 40  1  0
 15 41  1  0
 16 42  1  0
 17 43  1  0
 18 44  1  0
 18 45  1  0
 19 46  1  0
 19 47  1  0
 22 48  1  0
 23 49  1  0
 25 50  1  0
M  END
>  <smiles>  (14) 
Cc1cc(=NC2CCN(CCc3ccccc3)CC2)n2nccc2[nH]1

>  <score_type>  (14) 
oracle

>  <origin>  (14) 
adg

>  <m_score__min__energy>  (14) 
-8.5600000000000005

>  <m_primary>  (14) 
energy

$$$$
14:0
     RDKit          3D

 62 64  0  0  0  0  0  0  0  0999 V2000
   62.3390   28.3830   51.9810 C   0  0  0  0  0  0  0  0  0  0  0  0
   62.7610   29.7210   51.3780 C   0  0  0  0  0  0  0  0  0  0  0  0
   61.7140   30.7380   51.5610 N   0  0  0  0  0  0  0  0  0  0  0  0
   62.2620   32.0810   51.8210 C   0  0  0  0  0  0  0  0  0  0  0  0
   61.1110   33.0760   51.9980 C   0  0  0  0  0  0  0  0  0  0  0  0
   60.1780   33.0960   50.7820 C   0  0  0  0  0  0  0  0  0  0  0  0
   59.3040   31.9140   50.7850 N   0  0  0  0  0  0  0  0  0  0  0  0
   58.8750   31.5570   49.4250 C   0  0  0  0  0  0  0  0  0  0  0  0
   58.5830   30.0570   49.3300 C   0  0  0  0  0  0  0  0  0  0  0  0
   59.6580   29.2930   49.9740 N   0  0  0  0  0  0  0  0  0  0  0  0
   60.7230   29.0010   49.0100 C   0  0  0  0  0  0  0  0  0  0  0  0
   60.1280   28.8210   47.6130 C   0  0  0  0  0  0  0  0  0  0  0  0
   60.8010   29.6900   46.6460 N   0  0  0  0  0  0  0  0  0  0  0  0
   60.5470   31.1020   46.6420 C   0  0  0  0  0  0  0  0  0  0  0  0
   61.4200   31.9750   47.3100 C   0  0  0  0  0  0  0  0  0  0  0  0
   62.5480   31.4770   47.9970 C   0  0  0  0  0  0  0  0  0  0  0  0
   63.3780   32.3330   48.7140 C   0  0  0  0  0  0  0  0  0  0  0  0
   63.0940   33.6930   48.7690 C   0  0  0  0  0  0  0  0  0  0  0  0
   61.9930   34.2090   48.0860 C   0  0  0  0  0  0  0  0  0  0  0  0
   61.1510   33.3700   47.3130 C   0  0  0  0  0  0  0  0  0  0  0  0
   60.0800   33.8720   46.5920 N   0  0  0  0  0  0  0  0  0  0  0  0
   59.9590   35.3310   46.3700 C   0  0  0  0  0  0  0  0  0  0  0  0
   59.1420   33.0100   46.0540 C   0  0  0  0  0  0  0  0  0  0  0  0
   57.9110   33.4780   45.5280 C   0  0  0  0  0  0  0  0  0  0  0  0
   57.0010   32.6040   44.9340 C   0  0  0  0  0  0  0  0  0  0  0  0
   57.2870   31.2440   44.8540 C   0  0  0  0  0  0  0  0  0  0  0  0
   56.1430   30.1510   44.0970 Cl  0  0  0  0  0  0  0  0  0  0  0  0
   58.4700   30.7480   45.3980 C   0  0  0  0  0  0  0  0  0  0  0  0
   59.3890   31.6110   46.0300 C   0  0  0  0  0  0  0  0  0  0  0  0
   62.3609   28.4523   53.0786 H   0  0  0  0  0  0  0  0  0  0  0  0
   61.3195   28.1366   51.6494 H   0  0  0  0  0  0  0  0  0  0  0  0
   63.0326   27.5963   51.6494 H   0  0  0  0  0  0  0  0  0  0  0  0
   63.6834   30.0622   51.8708 H   0  0  0  0  0  0  0  0  0  0  0  0
   62.9277   29.5813   50.2997 H   0  0  0  0  0  0  0  0  0  0  0  0
   61.1560   30.7750   50.6760 H   0  0  0  0  0  0  0  0  0  0  0  0
   62.8708   32.0577   52.7369 H   0  0  0  0  0  0  0  0  0  0  0  0
   62.8887   32.3922   50.9722 H   0  0  0  0  0  0  0  0  0  0  0  0
   60.5294   32.7919   52.8874 H   0  0  0  0  0  0  0  0  0  0  0  0
   61.5444   34.0807   52.1107 H   0  0  0  0  0  0  0  0  0  0  0  0
   59.5586   34.0044   50.8157 H   0  0  0  0  0  0  0  0  0  0  0  0
   60.7868   33.0863   49.8659 H   0  0  0  0  0  0  0  0  0  0  0  0
   59.8610   31.1120   51.1650 H   0  0  0  0  0  0  0  0  0  0  0  0
   57.9638   32.1196   49.1737 H   0  0  0  0  0  0  0  0  0  0  0  0
   59.6821   31.8071   48.7207 H   0  0  0  0  0  0  0  0  0  0  0  0
   57.6296   29.8392   49.8336 H   0  0  0  0  0  0  0  0  0  0  0  0
   58.5206   29.7684   48.2704 H   0  0  0  0  0  0  0  0  0  0  0  0
   60.0680   29.8910   50.7270 H   0  0  0  0  0  0  0  0  0  0  0  0
   61.4404   29.8348   48.9959 H   0  0  0  0  0  0  0  0  0  0  0  0
   61.2350   28.0738   49.3069 H   0  0  0  0  0  0  0  0  0  0  0  0
   60.2491   27.7730   47.3016 H   0  0  0  0  0  0  0  0  0  0  0  0
   59.0618   29.0894   47.6463 H   0  0  0  0  0  0  0  0  0  0  0  0
   61.5800   29.3270   46.0530 H   0  0  0  0  0  0  0  0  0  0  0  0
   62.7732   30.4008   47.9652 H   0  0  0  0  0  0  0  0  0  0  0  0
   64.2592   31.9337   49.2375 H   0  0  0  0  0  0  0  0  0  0  0  0
   63.7402   34.3645   49.3534 H   0  0  0  0  0  0  0  0  0  0  0  0
   61.7741   35.2852   48.1480 H   0  0  0  0  0  0  0  0  0  0  0  0
   59.9162   35.8472   47.3404 H   0  0  0  0  0  0  0  0  0  0  0  0
   60.8305   35.6890   45.8023 H   0  0  0  0  0  0  0  0  0  0  0  0
   59.0404   35.5406   45.8023 H   0  0  0  0  0  0  0  0  0  0  0  0
   57.6696   34.5494   45.5896 H   0  0  0  0  0  0  0  0  0  0  0  0
   56.0547   32.9903   44.5276 H   0  0  0  0  0  0  0  0  0  0  0  0
   58.6894   29.6720   45.3338 H   0  0  0  0  0  0  0  0  0  0  0  0
  1  2  1  0
  2  3  1  0
  3  4  1  0
  4  5  1  0
  5  6  1  0
  6  7  1  0
  7  8  1  0
  8  9  1  0
  9 10  1  0
 10 11  1  0
 11 12  1  0
 12 13  1  0
 13 14  1  0
 14 15  2  0
 15 16  1  0
 16 17  2  0
 17 18  1  0
 18 19  2  0
 19 20  1  0
 20 21  2  0
 21 22  1  0
 21 23  1  0
 23 24  2  0
 24 25  1  0
 25 26  2  0
 26 27  1  0
 26 28  1  0
 28 29  2  0
 29 14  1  0
 20 15  1  0
 29 23  1  0
  1 30  1  0
  1 31  1  0
  1 32  1  0
  2 33  1  0
  2 34  1  0
  3 35  1  0
  4 36  1  0
  4 37  1  0
  5 38  1  0
  5 39  1  0
  6 40  1  0
  6 41  1  0
  7 42  1  0
  8 43  1  0
  8 44  1  0
  9 45  1  0
  9 46  1  0
 10 47  1  0
 11 48  1  0
 11 49  1  0
 12 50  1  0
 12 51  1  0
 13 52  1  0
 16 53  1  0
 17 54  1  0
 18 55  1  0
 19 56  1  0
 22 57  1  0
 22 58  1  0
 22 59  1  0
 24 60  1  0
 25 61  1  0
 28 62  1  0
M  CHG  1  21   1
M  END
>  <UniqueID>  (15) 
14

>  <SMILES>  (15) 
CCNCCCNCCNCCNc1c2ccccc2[n+](C)c2ccc(Cl)cc12

>  <Energy>  (15) 
77.89416773941826

>  <Genealogy>  (15) 
CCNCCCNCCNCCNc1c2ccccc2[n+](C)c2ccc(Cl)cc12 (3D coordinates assigned)
CCNCCCNCCNCCNc1c2ccccc2[n+](C)c2ccc(Cl)cc12 (optimized conformer: 77.89416773941826 kcal/mol)

>  <smiles>  (15) 
CCNCCCNCCNCCNc1c2ccccc2[n+](C)c2ccc(Cl)cc12

>  <score_type>  (15) 
oracle

>  <origin>  (15) 
adg

>  <m_score__min__energy>  (15) 
-5.6900000000000004

>  <m_primary>  (15) 
energy

$$$$
15:0
     RDKit          3D

 42 45  0  0  0  0  0  0  0  0999 V2000
   60.2930   29.7530   45.7070 C   0  0  0  0  0  0  0  0  0  0  0  0
   58.8730   29.8180   45.3630 N   0  0  0  0  0  0  0  0  0  0  0  0
   58.0620   28.8200   44.9520 C   0  0  0  0  0  0  0  0  0  0  0  0
   58.4340   27.3630   44.8920 C   0  0  0  0  0  0  0  0  0  0  0  0
   57.4720   26.5840   44.0940 N   0  0  0  0  0  0  0  0  0  0  0  0
   57.0160   25.4120   44.8070 C   0  0  0  0  0  0  0  0  0  0  0  0
   57.6140   24.1610   44.5630 C   0  0  0  0  0  0  0  0  0  0  0  0
   57.1600   23.0190   45.2260 C   0  0  0  0  0  0  0  0  0  0  0  0
   56.1030   23.1090   46.1340 C   0  0  0  0  0  0  0  0  0  0  0  0
   55.4980   24.3430   46.3810 C   0  0  0  0  0  0  0  0  0  0  0  0
   55.9480   25.4920   45.7240 C   0  0  0  0  0  0  0  0  0  0  0  0
   55.3360   26.6780   45.9730 F   0  0  0  0  0  0  0  0  0  0  0  0
   56.8210   29.2730   44.6900 N   0  0  0  0  0  0  0  0  0  0  0  0
   56.8290   30.5800   44.9090 N   0  0  0  0  0  0  0  0  0  0  0  0
   58.0720   30.9040   45.3140 C   0  0  0  0  0  0  0  0  0  0  0  0
   58.4890   32.2850   45.6350 C   0  0  0  0  0  0  0  0  0  0  0  0
   58.4790   33.2450   44.6090 C   0  0  0  0  0  0  0  0  0  0  0  0
   58.8230   34.5730   44.8720 C   0  0  0  0  0  0  0  0  0  0  0  0
   59.1800   34.9640   46.1630 C   0  0  0  0  0  0  0  0  0  0  0  0
   59.2030   34.0270   47.1990 C   0  0  0  0  0  0  0  0  0  0  0  0
   59.5650   34.4190   48.4510 N   0  0  0  0  0  0  0  0  0  0  0  0
   59.6190   33.5450   49.4900 C   0  0  0  0  0  0  0  0  0  0  0  0
   59.3090   32.2000   49.2890 C   0  0  0  0  0  0  0  0  0  0  0  0
   58.9340   31.7620   48.0190 C   0  0  0  0  0  0  0  0  0  0  0  0
   58.8610   32.6740   46.9470 C   0  0  0  0  0  0  0  0  0  0  0  0
   60.4053   29.7479   46.8012 H   0  0  0  0  0  0  0  0  0  0  0  0
   60.7298   28.8339   45.2892 H   0  0  0  0  0  0  0  0  0  0  0  0
   60.8119   30.6283   45.2892 H   0  0  0  0  0  0  0  0  0  0  0  0
   59.4315   27.2689   44.4380 H   0  0  0  0  0  0  0  0  0  0  0  0
   58.4267   26.9663   45.9180 H   0  0  0  0  0  0  0  0  0  0  0  0
   57.8980   26.3150   43.1770 H   0  0  0  0  0  0  0  0  0  0  0  0
   56.6480   27.1930   43.8780 H   0  0  0  0  0  0  0  0  0  0  0  0
   58.4441   24.0827   43.8455 H   0  0  0  0  0  0  0  0  0  0  0  0
   57.6361   22.0464   45.0326 H   0  0  0  0  0  0  0  0  0  0  0  0
   55.7469   22.2078   46.6547 H   0  0  0  0  0  0  0  0  0  0  0  0
   54.6642   24.4113   47.0952 H   0  0  0  0  0  0  0  0  0  0  0  0
   58.1973   32.9476   43.5881 H   0  0  0  0  0  0  0  0  0  0  0  0
   58.8124   35.3133   44.0584 H   0  0  0  0  0  0  0  0  0  0  0  0
   59.4440   36.0125   46.3655 H   0  0  0  0  0  0  0  0  0  0  0  0
   59.9075   33.8986   50.4909 H   0  0  0  0  0  0  0  0  0  0  0  0
   59.3600   31.4891   50.1269 H   0  0  0  0  0  0  0  0  0  0  0  0
   58.6944   30.7012   47.8536 H   0  0  0  0  0  0  0  0  0  0  0  0
  1  2  1  0
  2  3  1  0
  3  4  1  0
  4  5  1  0
  5  6  1  0
  6  7  2  0
  7  8  1  0
  8  9  2  0
  9 10  1  0
 10 11  2  0
 11 12  1  0
  3 13  2  0
 13 14  1  0
 14 15  2  0
 15 16  1  0
 16 17  2  0
 17 18  1  0
 18 19  2  0
 19 20  1  0
 20 21  2  0
 21 22  1  0
 22 23  2  0
 23 24  1  0
 24 25  2  0
 15  2  1  0
 25 16  1  0
 11  6  1  0
 25 20  1  0
  1 26  1  0
  1 27  1  0
  1 28  1  0
  4 29  1  0
  4 30  1  0
  5 31  1  0
  5 32  1  0
  7 33  1  0
  8 34  1  0
  9 35  1  0
 10 36  1  0
 17 37  1  0
 18 38  1  0
 19 39  1  0
 22 40  1  0
 23 41  1  0
 24 42  1  0
M  CHG  1   5   1
M  END
>  <UniqueID>  (16) 
15

>  <SMILES>  (16) 
Cn1c(C[NH2+]c2ccccc2F)nnc1-c1cccc2ncccc12

>  <Energy>  (16) 
92.01530090553494

>  <Genealogy>  (16) 
Cn1c(C[NH2+]c2ccccc2F)nnc1-c1cccc2ncccc12 (protonated)
Cn1c(C[NH2+]c2ccccc2F)nnc1-c1cccc2ncccc12 (3D coordinates assigned)
Cn1c(C[NH2+]c2ccccc2F)nnc1-c1cccc2ncccc12 (optimized conformer: 92.01530090553494 kcal/mol)

>  <smiles>  (16) 
Cn1c(CNc2ccccc2F)nnc1-c1cccc2ncccc12

>  <score_type>  (16) 
oracle

>  <origin>  (16) 
adg

>  <m_score__min__energy>  (16) 
-7.5099999999999998

>  <m_primary>  (16) 
energy

$$$$
16:0
     RDKit          3D

 63 65  0  0  0  0  0  0  0  0999 V2000
   57.5630   26.0630   46.2580 C   0  0  0  0  0  0  0  0  0  0  0  0
   58.8350   26.3670   45.4730 C   0  0  0  0  0  0  0  0  0  0  0  0
   58.5920   27.4610   44.5060 N   0  0  0  0  0  0  0  0  0  0  0  0
   59.7150   28.4160   44.5140 C   0  0  0  0  0  0  0  0  0  0  0  0
   57.3240   28.1650   44.7940 C   0  0  0  0  0  0  0  0  0  0  0  0
   57.0150   29.1740   43.6780 C   0  0  0  0  0  0  0  0  0  0  0  0
   55.9440   30.1790   44.1040 C   0  0  0  0  0  0  0  0  0  0  0  0
   56.5400   31.2070   44.8710 O   0  0  0  0  0  0  0  0  0  0  0  0
   57.8580   31.4400   44.4160 C   0  0  0  0  0  0  0  0  0  0  0  0
   58.4880   32.5690   45.2120 C   0  0  0  0  0  0  0  0  0  0  0  0
   58.1920   33.8800   44.7990 C   0  0  0  0  0  0  0  0  0  0  0  0
   58.9480   34.9540   45.2450 C   0  0  0  0  0  0  0  0  0  0  0  0
   60.0390   34.7370   46.0770 C   0  0  0  0  0  0  0  0  0  0  0  0
   60.3210   33.4470   46.5680 C   0  0  0  0  0  0  0  0  0  0  0  0
   61.4620   33.2270   47.3620 C   0  0  0  0  0  0  0  0  0  0  0  0
   62.2570   34.1880   47.5680 O   0  0  0  0  0  0  0  0  0  0  0  0
   61.7310   31.9860   47.8900 N   0  0  0  0  0  0  0  0  0  0  0  0
   62.9760   31.8100   48.6820 C   0  0  0  0  0  0  0  0  0  0  0  0
   62.7180   32.1250   50.1680 C   0  0  0  0  0  0  0  0  0  0  0  0
   62.3220   33.5370   50.3880 N   0  0  0  0  0  0  0  0  0  0  0  0
   63.2310   34.2180   51.3280 C   0  0  0  0  0  0  0  0  0  0  0  0
   60.9430   33.5930   50.9070 C   0  0  0  0  0  0  0  0  0  0  0  0
   60.8410   30.9450   47.7050 C   0  0  0  0  0  0  0  0  0  0  0  0
   61.0710   29.6590   48.2650 C   0  0  0  0  0  0  0  0  0  0  0  0
   60.0880   28.6740   48.2320 C   0  0  0  0  0  0  0  0  0  0  0  0
   58.8500   28.9470   47.6700 C   0  0  0  0  0  0  0  0  0  0  0  0
   58.6180   30.1770   47.0600 C   0  0  0  0  0  0  0  0  0  0  0  0
   59.6390   31.1510   46.9650 C   0  0  0  0  0  0  0  0  0  0  0  0
   59.4600   32.3680   46.2500 C   0  0  0  0  0  0  0  0  0  0  0  0
   57.7763   26.1140   47.3359 H   0  0  0  0  0  0  0  0  0  0  0  0
   56.7889   26.8014   46.0021 H   0  0  0  0  0  0  0  0  0  0  0  0
   57.2064   25.0543   46.0021 H   0  0  0  0  0  0  0  0  0  0  0  0
   59.6290   26.6697   46.1715 H   0  0  0  0  0  0  0  0  0  0  0  0
   59.1409   25.4646   44.9234 H   0  0  0  0  0  0  0  0  0  0  0  0
   59.9900   28.6499   45.5531 H   0  0  0  0  0  0  0  0  0  0  0  0
   60.5783   27.9712   43.9975 H   0  0  0  0  0  0  0  0  0  0  0  0
   59.4146   29.3396   43.9975 H   0  0  0  0  0  0  0  0  0  0  0  0
   56.5069   27.4313   44.8576 H   0  0  0  0  0  0  0  0  0  0  0  0
   57.4196   28.7026   45.7489 H   0  0  0  0  0  0  0  0  0  0  0  0
   57.9361   29.7201   43.4262 H   0  0  0  0  0  0  0  0  0  0  0  0
   56.6360   28.6175   42.8082 H   0  0  0  0  0  0  0  0  0  0  0  0
   55.4735   30.6144   43.2101 H   0  0  0  0  0  0  0  0  0  0  0  0
   55.1804   29.6669   44.7079 H   0  0  0  0  0  0  0  0  0  0  0  0
   58.4553   30.5254   44.5450 H   0  0  0  0  0  0  0  0  0  0  0  0
   57.8297   31.7190   43.3523 H   0  0  0  0  0  0  0  0  0  0  0  0
   57.3501   34.0562   44.1134 H   0  0  0  0  0  0  0  0  0  0  0  0
   58.6837   35.9773   44.9399 H   0  0  0  0  0  0  0  0  0  0  0  0
   60.6886   35.5800   46.3550 H   0  0  0  0  0  0  0  0  0  0  0  0
   63.3218   30.7701   48.5869 H   0  0  0  0  0  0  0  0  0  0  0  0
   63.7422   32.5003   48.2993 H   0  0  0  0  0  0  0  0  0  0  0  0
   61.9117   31.4715   50.5324 H   0  0  0  0  0  0  0  0  0  0  0  0
   63.6567   31.9518   50.7146 H   0  0  0  0  0  0  0  0  0  0  0  0
   62.3370   34.0500   49.4750 H   0  0  0  0  0  0  0  0  0  0  0  0
   62.9279   33.9909   52.3607 H   0  0  0  0  0  0  0  0  0  0  0  0
   64.2602   33.8668   51.1623 H   0  0  0  0  0  0  0  0  0  0  0  0
   63.1832   35.3044   51.1623 H   0  0  0  0  0  0  0  0  0  0  0  0
   60.9648   33.5921   52.0068 H   0  0  0  0  0  0  0  0  0  0  0  0
   60.4542   34.5117   50.5507 H   0  0  0  0  0  0  0  0  0  0  0  0
   60.3813   32.7169   50.5507 H   0  0  0  0  0  0  0  0  0  0  0  0
   62.0421   29.4385   48.7323 H   0  0  0  0  0  0  0  0  0  0  0  0
   60.2934   27.6783   48.6520 H   0  0  0  0  0  0  0  0  0  0  0  0
   58.0511   28.1917   47.7061 H   0  0  0  0  0  0  0  0  0  0  0  0
   57.6230   30.3950   46.6447 H   0  0  0  0  0  0  0  0  0  0  0  0
  1  2  1  0
  2  3  1  0
  3  4  1  0
  3  5  1  0
  5  6  1  0
  6  7  1  0
  7  8  1  0
  8  9  1  0
  9 10  1  0
 10 11  2  0
 11 12  1  0
 12 13  2  0
 13 14  1  0
 14 15  1  0
 15 16  2  0
 15 17  1  0
 17 18  1  0
 18 19  1  0
 19 20  1  0
 20 21  1  0
 20 22  1  0
 17 23  1  0
 23 24  2  0
 24 25  1  0
 25 26  2  0
 26 27  1  0
 27 28  2  0
 28 29  1  0
 29 10  1  0
 29 14  2  0
 28 23  1  0
  1 30  1  0
  1 31  1  0
  1 32  1  0
  2 33  1  0
  2 34  1  0
  4 35  1  0
  4 36  1  0
  4 37  1  0
  5 38  1  0
  5 39  1  0
  6 40  1  0
  6 41  1  0
  7 42  1  0
  7 43  1  0
  9 44  1  0
  9 45  1  0
 11 46  1  0
 12 47  1  0
 13 48  1  0
 18 49  1  0
 18 50  1  0
 19 51  1  0
 19 52  1  0
 20 53  1  0
 21 54  1  0
 21 55  1  0
 21 56  1  0
 22 57  1  0
 22 58  1  0
 22 59  1  0
 24 60  1  0
 25 61  1  0
 26 62  1  0
 27 63  1  0
M  CHG  1  20   1
M  END
>  <UniqueID>  (17) 
16

>  <SMILES>  (17) 
CCN(C)CCCOCc1cccc2c(=O)n(CC[NH+](C)C)c3ccccc3c12

>  <Energy>  (17) 
95.41997969388424

>  <Genealogy>  (17) 
CCN(C)CCCOCc1cccc2c(=O)n(CC[NH+](C)C)c3ccccc3c12 (protonated)
CCN(C)CCCOCc1cccc2c(=O)n(CC[NH+](C)C)c3ccccc3c12 (3D coordinates assigned)
CCN(C)CCCOCc1cccc2c(=O)n(CC[NH+](C)C)c3ccccc3c12 (optimized conformer: 95.41997969388424 kcal/mol)

>  <smiles>  (17) 
CCN(C)CCCOCc1cccc2c(=O)n(CCN(C)C)c3ccccc3c12

>  <score_type>  (17) 
oracle

>  <origin>  (17) 
adg

>  <m_score__min__energy>  (17) 
-6.0899999999999999

>  <m_primary>  (17) 
energy

$$$$
17:0
     RDKit          3D

 24 24  0  0  0  0  0  0  0  0999 V2000
   58.4732   27.5943   43.2607 H   0  0  0  0  0  0  0  0  0  0  0  0
   57.8090   28.1620   43.9290 C   0  0  0  0  0  0  0  0  0  0  0  0
   57.7945   27.9422   45.0067 H   0  0  0  0  0  0  0  0  0  0  0  0
   57.0220   29.1160   43.4330 C   0  0  0  0  0  0  0  0  0  0  0  0
   57.0553   29.3164   42.3519 H   0  0  0  0  0  0  0  0  0  0  0  0
   56.1070   29.9160   44.2720 C   0  0  0  0  0  0  0  0  0  0  0  0
   55.1520   29.3330   44.8480 O   0  0  0  0  0  0  0  0  0  0  0  0
   56.2950   31.3220   44.4980 N   0  0  0  0  0  0  0  0  0  0  0  0
   57.3880   32.0080   44.3060 C   0  0  0  0  0  0  0  0  0  0  0  0
   58.2220   32.5190   45.4230 C   0  0  0  0  0  0  0  0  0  0  0  0
   58.9040   31.6300   46.2740 C   0  0  0  0  0  0  0  0  0  0  0  0
   58.8149   30.5449   46.1171 H   0  0  0  0  0  0  0  0  0  0  0  0
   59.6950   32.1200   47.3190 C   0  0  0  0  0  0  0  0  0  0  0  0
   60.2193   31.4196   47.9858 H   0  0  0  0  0  0  0  0  0  0  0  0
   59.8200   33.4980   47.5170 C   0  0  0  0  0  0  0  0  0  0  0  0
   60.8990   34.1640   48.9470 Br  0  0  0  0  0  0  0  0  0  0  0  0
   59.1600   34.3880   46.6650 C   0  0  0  0  0  0  0  0  0  0  0  0
   59.2623   35.4725   46.8177 H   0  0  0  0  0  0  0  0  0  0  0  0
   58.3700   33.9020   45.6190 C   0  0  0  0  0  0  0  0  0  0  0  0
   57.8611   34.6071   44.9453 H   0  0  0  0  0  0  0  0  0  0  0  0
   57.7950   32.3090   42.8960 C   0  0  0  0  0  0  0  0  0  0  0  0
   58.6794   32.9631   42.9013 H   0  0  0  0  0  0  0  0  0  0  0  0
   58.0363   31.3704   42.3757 H   0  0  0  0  0  0  0  0  0  0  0  0
   56.9682   32.8146   42.3757 H   0  0  0  0  0  0  0  0  0  0  0  0
  1  2  1  0
  2  3  1  0
  2  4  2  0
  4  5  1  0
  4  6  1  0
  6  7  2  0
  6  8  1  0
  8  9  2  0
  9 10  1  0
 10 11  2  0
 11 12  1  0
 11 13  1  0
 13 14  1  0
 13 15  2  0
 15 16  1  0
 15 17  1  0
 17 18  1  0
 17 19  2  0
 19 20  1  0
  9 21  1  0
 21 22  1  0
 21 23  1  0
 21 24  1  0
 19 10  1  0
M  END
>  <UniqueID>  (18) 
17

>  <SMILES>  (18) 
C=CC(=O)/N=C(/C)c1ccc(Br)cc1

>  <Energy>  (18) 
31.617300295461085

>  <Genealogy>  (18) 
C=CC(=O)/N=C(/C)c1ccc(Br)cc1 (cis-trans isomerization)
C=CC(=O)/N=C(/C)c1ccc(Br)cc1 (3D coordinates assigned)
C=CC(=O)/N=C(/C)c1ccc(Br)cc1 (optimized conformer: 31.617300295461085 kcal/mol)

>  <smiles>  (18) 
C=CC(=O)N=C(C)c1ccc(Br)cc1

>  <score_type>  (18) 
oracle

>  <origin>  (18) 
adg

>  <m_score__min__energy>  (18) 
-6.8600000000000003

>  <m_primary>  (18) 
energy

$$$$
18:0
     RDKit          3D

 48 49  0  0  0  0  0  0  0  0999 V2000
   56.6520   30.4730   43.1570 C   0  0  0  0  0  0  0  0  0  0  0  0
   57.3810   31.5850   43.9120 C   0  0  0  0  0  0  0  0  0  0  0  0
   57.4030   31.3390   45.3710 N   0  0  0  0  0  0  0  0  0  0  0  0
   58.1760   30.1290   45.7310 C   0  0  0  0  0  0  0  0  0  0  0  0
   59.4270   30.5270   46.5070 C   0  0  0  0  0  0  0  0  0  0  0  0
   57.7640   32.5170   46.1990 C   0  0  0  0  0  0  0  0  0  0  0  0
   57.6720   33.8740   45.4640 C   0  0  0  0  0  0  0  0  0  0  0  0
   59.0020   34.6400   45.5330 C   0  0  0  0  0  0  0  0  0  0  0  0
   59.4950   34.7350   46.9090 N   0  0  0  0  0  0  0  0  0  0  0  0
   60.7760   34.2180   47.3190 C   0  0  0  0  0  0  0  0  0  0  0  0
   61.7340   33.8300   46.3630 C   0  0  0  0  0  0  0  0  0  0  0  0
   63.0050   33.4100   46.7640 C   0  0  0  0  0  0  0  0  0  0  0  0
   63.3370   33.3810   48.1200 C   0  0  0  0  0  0  0  0  0  0  0  0
   62.3930   33.7540   49.0780 C   0  0  0  0  0  0  0  0  0  0  0  0
   61.1080   34.1480   48.6920 C   0  0  0  0  0  0  0  0  0  0  0  0
   60.1790   34.4710   49.6890 O   0  0  0  0  0  0  0  0  0  0  0  0
   59.3690   33.5320   50.3460 C   0  0  0  0  0  0  0  0  0  0  0  0
   58.9890   32.3190   49.7380 C   0  0  0  0  0  0  0  0  0  0  0  0
   58.1810   31.4100   50.4280 C   0  0  0  0  0  0  0  0  0  0  0  0
   57.7470   31.7010   51.7240 C   0  0  0  0  0  0  0  0  0  0  0  0
   58.1280   32.8990   52.3350 C   0  0  0  0  0  0  0  0  0  0  0  0
   58.9430   33.8070   51.6520 C   0  0  0  0  0  0  0  0  0  0  0  0
   56.1964   29.7781   43.8778 H   0  0  0  0  0  0  0  0  0  0  0  0
   55.8664   30.9129   42.5250 H   0  0  0  0  0  0  0  0  0  0  0  0
   57.3687   29.9281   42.5250 H   0  0  0  0  0  0  0  0  0  0  0  0
   58.4165   31.6438   43.5457 H   0  0  0  0  0  0  0  0  0  0  0  0
   56.8429   32.5276   43.7334 H   0  0  0  0  0  0  0  0  0  0  0  0
   57.5537   29.4702   46.3545 H   0  0  0  0  0  0  0  0  0  0  0  0
   58.4712   29.6001   44.8128 H   0  0  0  0  0  0  0  0  0  0  0  0
   59.2249   30.4627   47.5864 H   0  0  0  0  0  0  0  0  0  0  0  0
   60.2515   29.8468   46.2472 H   0  0  0  0  0  0  0  0  0  0  0  0
   59.7069   31.5586   46.2472 H   0  0  0  0  0  0  0  0  0  0  0  0
   57.0855   32.5489   47.0642 H   0  0  0  0  0  0  0  0  0  0  0  0
   58.8190   32.3871   46.4820 H   0  0  0  0  0  0  0  0  0  0  0  0
   57.4174   33.6932   44.4093 H   0  0  0  0  0  0  0  0  0  0  0  0
   56.8968   34.4814   45.9541 H   0  0  0  0  0  0  0  0  0  0  0  0
   59.7496   34.1144   44.9208 H   0  0  0  0  0  0  0  0  0  0  0  0
   58.8337   35.6593   45.1551 H   0  0  0  0  0  0  0  0  0  0  0  0
   58.8840   35.1770   47.6330 H   0  0  0  0  0  0  0  0  0  0  0  0
   61.4802   33.8577   45.2930 H   0  0  0  0  0  0  0  0  0  0  0  0
   63.7449   33.1019   46.0106 H   0  0  0  0  0  0  0  0  0  0  0  0
   64.3427   33.0641   48.4332 H   0  0  0  0  0  0  0  0  0  0  0  0
   62.6618   33.7379   50.1445 H   0  0  0  0  0  0  0  0  0  0  0  0
   59.3288   32.0865   48.7180 H   0  0  0  0  0  0  0  0  0  0  0  0
   57.8865   30.4642   49.9498 H   0  0  0  0  0  0  0  0  0  0  0  0
   57.1060   30.9878   52.2629 H   0  0  0  0  0  0  0  0  0  0  0  0
   57.7860   33.1279   53.3551 H   0  0  0  0  0  0  0  0  0  0  0  0
   59.2512   34.7420   52.1426 H   0  0  0  0  0  0  0  0  0  0  0  0
  1  2  1  0
  2  3  1  0
  3  4  1  0
  4  5  1  0
  3  6  1  0
  6  7  1  0
  7  8  1  0
  8  9  1  0
  9 10  1  0
 10 11  2  0
 11 12  1  0
 12 13  2  0
 13 14  1  0
 14 15  2  0
 15 16  1  0
 16 17  1  0
 17 18  2  0
 18 19  1  0
 19 20  2  0
 20 21  1  0
 21 22  2  0
 15 10  1  0
 22 17  1  0
  1 23  1  0
  1 24  1  0
  1 25  1  0
  2 26  1  0
  2 27  1  0
  4 28  1  0
  4 29  1  0
  5 30  1  0
  5 31  1  0
  5 32  1  0
  6 33  1  0
  6 34  1  0
  7 35  1  0
  7 36  1  0
  8 37  1  0
  8 38  1  0
  9 39  1  0
 11 40  1  0
 12 41  1  0
 13 42  1  0
 14 43  1  0
 18 44  1  0
 19 45  1  0
 20 46  1  0
 21 47  1  0
 22 48  1  0
M  END
>  <UniqueID>  (19) 
18

>  <SMILES>  (19) 
CCN(CC)CCCNc1ccccc1Oc1ccccc1

>  <Energy>  (19) 
52.20909319960082

>  <Genealogy>  (19) 
CCN(CC)CCCNc1ccccc1Oc1ccccc1 (3D coordinates assigned)
CCN(CC)CCCNc1ccccc1Oc1ccccc1 (optimized conformer: 52.20909319960082 kcal/mol)

>  <smiles>  (19) 
CCN(CC)CCCNc1ccccc1Oc1ccccc1

>  <score_type>  (19) 
oracle

>  <origin>  (19) 
adg

>  <m_score__min__energy>  (19) 
-6.3399999999999999

>  <m_primary>  (19) 
energy

$$$$
19:0
     RDKit          3D

 44 45  0  0  0  0  0  0  0  0999 V2000
   59.2700   35.0070   46.5280 C   0  0  0  0  0  0  0  0  0  0  0  0
   58.8540   34.0230   45.4340 C   0  0  0  0  0  0  0  0  0  0  0  0
   58.0030   32.8580   45.9710 C   0  0  0  0  0  0  0  0  0  0  0  0
   58.0080   31.6160   45.0630 C   0  0  0  0  0  0  0  0  0  0  0  0
   56.6590   31.1000   44.8610 N   0  0  0  0  0  0  0  0  0  0  0  0
   56.3440   29.7040   44.8560 C   0  0  0  0  0  0  0  0  0  0  0  0
   55.1420   29.3180   44.8290 O   0  0  0  0  0  0  0  0  0  0  0  0
   57.4460   28.6940   44.9410 C   0  0  0  0  0  0  0  0  0  0  0  0
   57.1210   27.6130   45.9720 C   0  0  0  0  0  0  0  0  0  0  0  0
   58.3520   26.9950   46.4600 N   0  0  0  0  0  0  0  0  0  0  0  0
   59.5640   27.7040   46.7310 C   0  0  0  0  0  0  0  0  0  0  0  0
   60.3490   27.9370   45.7730 O   0  0  0  0  0  0  0  0  0  0  0  0
   59.9520   28.1010   48.1330 C   0  0  0  0  0  0  0  0  0  0  0  0
   59.9400   29.5980   48.3090 C   0  0  0  0  0  0  0  0  0  0  0  0
   58.9200   30.2160   49.0470 C   0  0  0  0  0  0  0  0  0  0  0  0
   58.9390   31.5960   49.2520 C   0  0  0  0  0  0  0  0  0  0  0  0
   59.9810   32.3700   48.7360 C   0  0  0  0  0  0  0  0  0  0  0  0
   61.0220   31.7690   48.0040 C   0  0  0  0  0  0  0  0  0  0  0  0
   62.1060   32.5730   47.5030 N   0  0  0  0  0  0  0  0  0  0  0  0
   63.3850   32.6260   47.9240 C   0  0  0  0  0  0  0  0  0  0  0  0
   64.0750   33.5020   47.1710 N   0  0  0  0  0  0  0  0  0  0  0  0
   63.2010   33.9790   46.2960 N   0  0  0  0  0  0  0  0  0  0  0  0
   62.0180   33.4180   46.4890 N   0  0  0  0  0  0  0  0  0  0  0  0
   60.9920   30.3760   47.7970 C   0  0  0  0  0  0  0  0  0  0  0  0
   59.0808   34.5595   47.5149 H   0  0  0  0  0  0  0  0  0  0  0  0
   60.3415   35.2349   46.4280 H   0  0  0  0  0  0  0  0  0  0  0  0
   58.6870   35.9344   46.4280 H   0  0  0  0  0  0  0  0  0  0  0  0
   58.2688   34.5659   44.6771 H   0  0  0  0  0  0  0  0  0  0  0  0
   59.7728   33.5931   45.0087 H   0  0  0  0  0  0  0  0  0  0  0  0
   58.3945   32.5683   46.9573 H   0  0  0  0  0  0  0  0  0  0  0  0
   56.9639   33.2157   46.0193 H   0  0  0  0  0  0  0  0  0  0  0  0
   58.4373   31.8875   44.0873 H   0  0  0  0  0  0  0  0  0  0  0  0
   58.6091   30.8336   45.5494 H   0  0  0  0  0  0  0  0  0  0  0  0
   57.5789   28.2230   43.9559 H   0  0  0  0  0  0  0  0  0  0  0  0
   58.3683   29.2073   45.2507 H   0  0  0  0  0  0  0  0  0  0  0  0
   56.5825   28.0669   46.8170 H   0  0  0  0  0  0  0  0  0  0  0  0
   56.4953   26.8419   45.4987 H   0  0  0  0  0  0  0  0  0  0  0  0
   59.2396   27.6526   48.8411 H   0  0  0  0  0  0  0  0  0  0  0  0
   60.9738   27.7404   48.3225 H   0  0  0  0  0  0  0  0  0  0  0  0
   58.1024   29.6108   49.4656 H   0  0  0  0  0  0  0  0  0  0  0  0
   58.1302   32.0763   49.8222 H   0  0  0  0  0  0  0  0  0  0  0  0
   59.9880   33.4572   48.9030 H   0  0  0  0  0  0  0  0  0  0  0  0
   63.8020   32.0414   48.7573 H   0  0  0  0  0  0  0  0  0  0  0  0
   61.8003   29.8924   47.2288 H   0  0  0  0  0  0  0  0  0  0  0  0
  1  2  1  0
  2  3  1  0
  3  4  1  0
  4  5  1  0
  5  6  1  0
  6  7  2  0
  6  8  1  0
  8  9  1  0
  9 10  1  0
 10 11  1  0
 11 12  2  0
 11 13  1  0
 13 14  1  0
 14 15  2  0
 15 16  1  0
 16 17  2  0
 17 18  1  0
 18 19  1  0
 19 20  1  0
 20 21  2  0
 21 22  1  0
 22 23  2  0
 18 24  2  0
 24 14  1  0
 23 19  1  0
  1 25  1  0
  1 26  1  0
  1 27  1  0
  2 28  1  0
  2 29  1  0
  3 30  1  0
  3 31  1  0
  4 32  1  0
  4 33  1  0
  8 34  1  0
  8 35  1  0
  9 36  1  0
  9 37  1  0
 13 38  1  0
 13 39  1  0
 15 40  1  0
 16 41  1  0
 17 42  1  0
 20 43  1  0
 24 44  1  0
M  CHG  2   5  -1  10  -1
M  END
>  <UniqueID>  (20) 
19

>  <SMILES>  (20) 
CCCC[N-]C(=O)CC[N-]C(=O)Cc1cccc(-n2cnnn2)c1

>  <Energy>  (20) 
71.81883470047129

>  <Genealogy>  (20) 
CCCC[N-]C(=O)CC[N-]C(=O)Cc1cccc(-n2cnnn2)c1 (protonated)
CCCC[N-]C(=O)CC[N-]C(=O)Cc1cccc(-n2cnnn2)c1 (3D coordinates assigned)
CCCC[N-]C(=O)CC[N-]C(=O)Cc1cccc(-n2cnnn2)c1 (optimized conformer: 71.81883470047129 kcal/mol)

>  <smiles>  (20) 
CCCCNC(=O)CCNC(=O)Cc1cccc(-n2cnnn2)c1

>  <score_type>  (20) 
oracle

>  <origin>  (20) 
adg

>  <m_score__min__energy>  (20) 
-11.859999999999999

>  <m_primary>  (20) 
energy

$$$$
20:0
     RDKit          3D

 52 54  0  0  0  0  0  0  0  0999 V2000
   58.4480   34.2110   46.3450 C   0  0  0  0  0  0  0  0  0  0  0  0
   59.9350   33.9330   46.1430 C   0  0  0  0  0  0  0  0  0  0  0  0
   60.6210   33.7470   47.4400 N   0  0  0  0  0  0  0  0  0  0  0  0
   60.1520   34.5810   48.5770 C   0  0  0  0  0  0  0  0  0  0  0  0
   60.0270   33.8430   49.9170 C   0  0  0  0  0  0  0  0  0  0  0  0
   62.0890   33.6090   47.3340 C   0  0  0  0  0  0  0  0  0  0  0  0
   62.5740   32.1470   47.3550 C   0  0  0  0  0  0  0  0  0  0  0  0
   62.0730   31.3920   48.5970 C   0  0  0  0  0  0  0  0  0  0  0  0
   60.6280   31.1540   48.5430 N   0  0  0  0  0  0  0  0  0  0  0  0
   60.0480   29.9150   48.0970 C   0  0  0  0  0  0  0  0  0  0  0  0
   60.2370   28.6770   48.7260 C   0  0  0  0  0  0  0  0  0  0  0  0
   61.0000   28.4040   49.9800 C   0  0  0  0  0  0  0  0  0  0  0  0
   59.4590   27.4830   47.8210 S   0  0  0  0  0  0  0  0  0  0  0  0
   58.8550   28.5240   46.6400 C   0  0  0  0  0  0  0  0  0  0  0  0
   59.2550   29.8180   46.9370 C   0  0  0  0  0  0  0  0  0  0  0  0
   58.9040   30.8600   46.0830 C   0  0  0  0  0  0  0  0  0  0  0  0
   58.1560   30.5710   44.9350 C   0  0  0  0  0  0  0  0  0  0  0  0
   57.8040   31.6050   44.0540 C   0  0  0  0  0  0  0  0  0  0  0  0
   57.0680   31.3290   42.9020 C   0  0  0  0  0  0  0  0  0  0  0  0
   56.6750   30.0220   42.6190 C   0  0  0  0  0  0  0  0  0  0  0  0
   57.0150   28.9790   43.4830 C   0  0  0  0  0  0  0  0  0  0  0  0
   57.7610   29.2260   44.6610 C   0  0  0  0  0  0  0  0  0  0  0  0
   58.1150   28.2070   45.5300 N   0  0  0  0  0  0  0  0  0  0  0  0
   57.7200   26.8110   45.2680 C   0  0  0  0  0  0  0  0  0  0  0  0
   58.2257   34.2526   47.4215 H   0  0  0  0  0  0  0  0  0  0  0  0
   58.1883   35.1732   45.8795 H   0  0  0  0  0  0  0  0  0  0  0  0
   57.8582   33.4076   45.8795 H   0  0  0  0  0  0  0  0  0  0  0  0
   60.0516   33.0202   45.5404 H   0  0  0  0  0  0  0  0  0  0  0  0
   60.3857   34.7947   45.6289 H   0  0  0  0  0  0  0  0  0  0  0  0
   60.8641   35.4089   48.7090 H   0  0  0  0  0  0  0  0  0  0  0  0
   59.1370   34.9142   48.3146 H   0  0  0  0  0  0  0  0  0  0  0  0
   60.1483   34.5594   50.7429 H   0  0  0  0  0  0  0  0  0  0  0  0
   59.0360   33.3703   49.9842 H   0  0  0  0  0  0  0  0  0  0  0  0
   60.8071   33.0704   49.9842 H   0  0  0  0  0  0  0  0  0  0  0  0
   62.4143   34.0698   46.3896 H   0  0  0  0  0  0  0  0  0  0  0  0
   62.5241   34.1059   48.2136 H   0  0  0  0  0  0  0  0  0  0  0  0
   62.2016   31.6363   46.4547 H   0  0  0  0  0  0  0  0  0  0  0  0
   63.6736   32.1541   47.3822 H   0  0  0  0  0  0  0  0  0  0  0  0
   62.5913   30.4237   48.6582 H   0  0  0  0  0  0  0  0  0  0  0  0
   62.2849   32.0104   49.4817 H   0  0  0  0  0  0  0  0  0  0  0  0
   60.0020   31.9840   48.6440 H   0  0  0  0  0  0  0  0  0  0  0  0
   60.3673   28.6304   50.8508 H   0  0  0  0  0  0  0  0  0  0  0  0
   61.2949   27.3446   50.0065 H   0  0  0  0  0  0  0  0  0  0  0  0
   61.9000   29.0359   50.0065 H   0  0  0  0  0  0  0  0  0  0  0  0
   59.2091   31.8930   46.3063 H   0  0  0  0  0  0  0  0  0  0  0  0
   58.1102   32.6385   44.2732 H   0  0  0  0  0  0  0  0  0  0  0  0
   56.7971   32.1445   42.2153 H   0  0  0  0  0  0  0  0  0  0  0  0
   56.0935   29.8108   41.7095 H   0  0  0  0  0  0  0  0  0  0  0  0
   56.6993   27.9524   43.2455 H   0  0  0  0  0  0  0  0  0  0  0  0
   57.5716   26.2865   46.2234 H   0  0  0  0  0  0  0  0  0  0  0  0
   56.7826   26.7970   44.6925 H   0  0  0  0  0  0  0  0  0  0  0  0
   58.5111   26.3079   44.6925 H   0  0  0  0  0  0  0  0  0  0  0  0
  1  2  1  0
  2  3  1  0
  3  4  1  0
  4  5  1  0
  3  6  1  0
  6  7  1  0
  7  8  1  0
  8  9  1  0
  9 10  1  0
 10 11  2  0
 11 12  1  0
 11 13  1  0
 13 14  1  0
 14 15  2  0
 15 16  1  0
 16 17  2  0
 17 18  1  0
 18 19  2  0
 19 20  1  0
 20 21  2  0
 21 22  1  0
 22 23  2  0
 23 24  1  0
 15 10  1  0
 22 17  1  0
 23 14  1  0
  1 25  1  0
  1 26  1  0
  1 27  1  0
  2 28  1  0
  2 29  1  0
  4 30  1  0
  4 31  1  0
  5 32  1  0
  5 33  1  0
  5 34  1  0
  6 35  1  0
  6 36  1  0
  7 37  1  0
  7 38  1  0
  8 39  1  0
  8 40  1  0
  9 41  1  0
 12 42  1  0
 12 43  1  0
 12 44  1  0
 16 45  1  0
 18 46  1  0
 19 47  1  0
 20 48  1  0
 21 49  1  0
 24 50  1  0
 24 51  1  0
 24 52  1  0
M  CHG  1  23   1
M  END
>  <UniqueID>  (21) 
20

>  <SMILES>  (21) 
CCN(CC)CCCNc1c(C)sc2c1cc1ccccc1[n+]2C

>  <Energy>  (21) 
95.00351112304803

>  <Genealogy>  (21) 
CCN(CC)CCCNc1c(C)sc2c1cc1ccccc1[n+]2C (3D coordinates assigned)
CCN(CC)CCCNc1c(C)sc2c1cc1ccccc1[n+]2C (optimized conformer: 95.00351112304803 kcal/mol)

>  <smiles>  (21) 
CCN(CC)CCCNc1c(C)sc2c1cc1ccccc1[n+]2C

>  <score_type>  (21) 
oracle

>  <origin>  (21) 
adg

>  <m_score__min__energy>  (21) 
-5.5999999999999996

>  <m_primary>  (21) 
energy

$$$$
21:0
     RDKit          3D

 46 48  0  0  0  0  0  0  0  0999 V2000
   57.0460   31.0060   43.0210 C   0  0  0  0  0  0  0  0  0  0  0  0
   57.8480   30.9700   44.2650 N   0  0  0  0  0  0  0  0  0  0  0  0
   58.2100   29.7570   44.8190 C   0  0  0  0  0  0  0  0  0  0  0  0
   58.1010   28.5420   44.0940 C   0  0  0  0  0  0  0  0  0  0  0  0
   58.4480   27.3220   44.6760 C   0  0  0  0  0  0  0  0  0  0  0  0
   58.9310   27.2800   45.9790 C   0  0  0  0  0  0  0  0  0  0  0  0
   59.0830   28.4590   46.7040 C   0  0  0  0  0  0  0  0  0  0  0  0
   58.7310   29.7030   46.1400 C   0  0  0  0  0  0  0  0  0  0  0  0
   58.9210   30.8980   46.8560 C   0  0  0  0  0  0  0  0  0  0  0  0
   59.3570   30.8650   48.2260 N   0  0  0  0  0  0  0  0  0  0  0  0
   60.7670   31.0060   48.5860 C   0  0  0  0  0  0  0  0  0  0  0  0
   61.6550   30.9340   47.3370 C   0  0  0  0  0  0  0  0  0  0  0  0
   62.4470   32.2280   47.1270 C   0  0  0  0  0  0  0  0  0  0  0  0
   63.7870   32.1140   47.7180 N   0  0  0  0  0  0  0  0  0  0  0  0
   64.1090   33.2740   48.5630 C   0  0  0  0  0  0  0  0  0  0  0  0
   64.8010   32.8230   49.8480 C   0  0  0  0  0  0  0  0  0  0  0  0
   66.1740   32.8270   49.6710 F   0  0  0  0  0  0  0  0  0  0  0  0
   64.4790   33.6930   50.8740 F   0  0  0  0  0  0  0  0  0  0  0  0
   64.3930   31.5490   50.1970 F   0  0  0  0  0  0  0  0  0  0  0  0
   58.7360   32.1290   46.2050 C   0  0  0  0  0  0  0  0  0  0  0  0
   59.0520   33.3420   46.8530 C   0  0  0  0  0  0  0  0  0  0  0  0
   58.9010   34.5600   46.1940 C   0  0  0  0  0  0  0  0  0  0  0  0
   58.4470   34.5890   44.8810 C   0  0  0  0  0  0  0  0  0  0  0  0
   58.1160   33.4030   44.2250 C   0  0  0  0  0  0  0  0  0  0  0  0
   58.2200   32.1500   44.8820 C   0  0  0  0  0  0  0  0  0  0  0  0
   55.9769   31.0540   43.2753 H   0  0  0  0  0  0  0  0  0  0  0  0
   57.3229   31.8926   42.4317 H   0  0  0  0  0  0  0  0  0  0  0  0
   57.2424   30.0981   42.4317 H   0  0  0  0  0  0  0  0  0  0  0  0
   57.7370   28.5621   43.0562 H   0  0  0  0  0  0  0  0  0  0  0  0
   58.3390   26.3902   44.1017 H   0  0  0  0  0  0  0  0  0  0  0  0
   59.1932   26.3150   46.4374 H   0  0  0  0  0  0  0  0  0  0  0  0
   59.4821   28.4198   47.7283 H   0  0  0  0  0  0  0  0  0  0  0  0
   58.6530   30.6840   48.9770 H   0  0  0  0  0  0  0  0  0  0  0  0
   60.9180   31.9766   49.0810 H   0  0  0  0  0  0  0  0  0  0  0  0
   61.0429   30.1849   49.2641 H   0  0  0  0  0  0  0  0  0  0  0  0
   62.3615   30.0985   47.4501 H   0  0  0  0  0  0  0  0  0  0  0  0
   61.0041   30.7857   46.4627 H   0  0  0  0  0  0  0  0  0  0  0  0
   62.5426   32.4227   46.0486 H   0  0  0  0  0  0  0  0  0  0  0  0
   61.9121   33.0553   47.6163 H   0  0  0  0  0  0  0  0  0  0  0  0
   64.4770   32.0810   46.9310 H   0  0  0  0  0  0  0  0  0  0  0  0
   64.7773   33.9505   48.0100 H   0  0  0  0  0  0  0  0  0  0  0  0
   63.1757   33.7940   48.8247 H   0  0  0  0  0  0  0  0  0  0  0  0
   59.4213   33.3257   47.8890 H   0  0  0  0  0  0  0  0  0  0  0  0
   59.1413   35.4994   46.7134 H   0  0  0  0  0  0  0  0  0  0  0  0
   58.3482   35.5510   44.3567 H   0  0  0  0  0  0  0  0  0  0  0  0
   57.7689   33.4401   43.1819 H   0  0  0  0  0  0  0  0  0  0  0  0
  1  2  1  0
  2  3  2  0
  3  4  1  0
  4  5  2  0
  5  6  1  0
  6  7  2  0
  7  8  1  0
  8  9  2  0
  9 10  1  0
 10 11  1  0
 11 12  1  0
 12 13  1  0
 13 14  1  0
 14 15  1  0
 15 16  1  0
 16 17  1  0
 16 18  1  0
 16 19  1  0
  9 20  1  0
 20 21  2  0
 21 22  1  0
 22 23  2  0
 23 24  1  0
 24 25  2  0
 25  2  1  0
  8  3  1  0
 25 20  1  0
  1 26  1  0
  1 27  1  0
  1 28  1  0
  4 29  1  0
  5 30  1  0
  6 31  1  0
  7 32  1  0
 10 33  1  0
 11 34  1  0
 11 35  1  0
 12 36  1  0
 12 37  1  0
 13 38  1  0
 13 39  1  0
 14 40  1  0
 15 41  1  0
 15 42  1  0
 21 43  1  0
 22 44  1  0
 23 45  1  0
 24 46  1  0
M  CHG  1   2   1
M  END
>  <UniqueID>  (22) 
21

>  <SMILES>  (22) 
C[n+]1c2ccccc2c(NCCCNCC(F)(F)F)c2ccccc21

>  <Energy>  (22) 
67.30091127884924

>  <Genealogy>  (22) 
C[n+]1c2ccccc2c(NCCCNCC(F)(F)F)c2ccccc21 (3D coordinates assigned)
C[n+]1c2ccccc2c(NCCCNCC(F)(F)F)c2ccccc21 (optimized conformer: 67.30091127884924 kcal/mol)

>  <smiles>  (22) 
C[n+]1c2ccccc2c(NCCCNCC(F)(F)F)c2ccccc21

>  <score_type>  (22) 
oracle

>  <origin>  (22) 
adg

>  <m_score__min__energy>  (22) 
-5.7999999999999998

>  <m_primary>  (22) 
energy

$$$$
22:0
     RDKit          3D

 54 55  0  0  0  0  0  0  0  0999 V2000
   58.8910   30.8570   49.4380 C   0  0  0  0  0  0  0  0  0  0  0  0
   59.9320   30.0270   48.8050 N   0  0  0  0  0  0  0  0  0  0  0  0
   61.0710   29.8870   49.7320 C   0  0  0  0  0  0  0  0  0  0  0  0
   59.3640   28.7090   48.4400 C   0  0  0  0  0  0  0  0  0  0  0  0
   60.0380   28.1320   47.1760 C   0  0  0  0  0  0  0  0  0  0  0  0
   60.6000   29.1750   46.3000 N   0  0  0  0  0  0  0  0  0  0  0  0
   60.2140   28.9880   44.8940 C   0  0  0  0  0  0  0  0  0  0  0  0
   59.0810   27.9650   44.7750 C   0  0  0  0  0  0  0  0  0  0  0  0
   57.5170   28.7370   44.2200 S   0  0  0  0  0  0  0  0  0  0  0  0
   57.8810   30.3660   44.8840 C   0  0  0  0  0  0  0  0  0  0  0  0
   58.1900   30.5820   46.1780 N   0  0  0  0  0  0  0  0  0  0  0  0
   58.3330   31.8920   46.3080 N   0  0  0  0  0  0  0  0  0  0  0  0
   58.0980   32.4610   45.1110 C   0  0  0  0  0  0  0  0  0  0  0  0
   58.1670   33.9430   44.8630 C   0  0  0  0  0  0  0  0  0  0  0  0
   59.5720   34.4960   45.1320 C   0  0  0  0  0  0  0  0  0  0  0  0
   59.6380   35.3160   46.4310 C   0  0  0  0  0  0  0  0  0  0  0  0
   59.7350   34.4000   47.6540 C   0  0  0  0  0  0  0  0  0  0  0  0
   60.8990   33.4660   47.5180 C   0  0  0  0  0  0  0  0  0  0  0  0
   62.2150   33.7660   47.8190 C   0  0  0  0  0  0  0  0  0  0  0  0
   62.9240   32.6110   47.5600 C   0  0  0  0  0  0  0  0  0  0  0  0
   61.9970   31.6770   47.1300 C   0  0  0  0  0  0  0  0  0  0  0  0
   60.7980   32.2170   47.1180 O   0  0  0  0  0  0  0  0  0  0  0  0
   57.8210   31.5200   44.1830 N   0  0  0  0  0  0  0  0  0  0  0  0
   57.4070   31.7190   42.7960 C   0  0  0  0  0  0  0  0  0  0  0  0
   58.9803   30.7858   50.5321 H   0  0  0  0  0  0  0  0  0  0  0  0
   59.0179   31.9045   49.1271 H   0  0  0  0  0  0  0  0  0  0  0  0
   57.8981   30.5000   49.1271 H   0  0  0  0  0  0  0  0  0  0  0  0
   60.7073   29.9317   50.7692 H   0  0  0  0  0  0  0  0  0  0  0  0
   61.5679   28.9210   49.5590 H   0  0  0  0  0  0  0  0  0  0  0  0
   61.7871   30.7039   49.5590 H   0  0  0  0  0  0  0  0  0  0  0  0
   59.5156   28.0106   49.2762 H   0  0  0  0  0  0  0  0  0  0  0  0
   58.2925   28.8416   48.2295 H   0  0  0  0  0  0  0  0  0  0  0  0
   60.8509   27.4595   47.4874 H   0  0  0  0  0  0  0  0  0  0  0  0
   59.2644   27.6003   46.6025 H   0  0  0  0  0  0  0  0  0  0  0  0
   60.2630   30.1130   46.6230 H   0  0  0  0  0  0  0  0  0  0  0  0
   59.8765   29.9501   44.4812 H   0  0  0  0  0  0  0  0  0  0  0  0
   61.0854   28.6171   44.3345 H   0  0  0  0  0  0  0  0  0  0  0  0
   59.3740   27.1934   44.0478 H   0  0  0  0  0  0  0  0  0  0  0  0
   58.9106   27.5289   45.7704 H   0  0  0  0  0  0  0  0  0  0  0  0
   58.5760   32.3780   47.2000 H   0  0  0  0  0  0  0  0  0  0  0  0
   57.8997   34.1423   43.8148 H   0  0  0  0  0  0  0  0  0  0  0  0
   57.4649   34.4395   45.5489 H   0  0  0  0  0  0  0  0  0  0  0  0
   60.2748   33.6534   45.2096 H   0  0  0  0  0  0  0  0  0  0  0  0
   59.8357   35.1640   44.2988 H   0  0  0  0  0  0  0  0  0  0  0  0
   60.5227   35.9690   46.3996 H   0  0  0  0  0  0  0  0  0  0  0  0
   58.7193   35.9153   46.5141 H   0  0  0  0  0  0  0  0  0  0  0  0
   59.8671   35.0142   48.5569 H   0  0  0  0  0  0  0  0  0  0  0  0
   58.8107   33.8085   47.7302 H   0  0  0  0  0  0  0  0  0  0  0  0
   62.6126   34.7233   48.1872 H   0  0  0  0  0  0  0  0  0  0  0  0
   64.0081   32.4622   47.6726 H   0  0  0  0  0  0  0  0  0  0  0  0
   62.2282   30.6408   46.8422 H   0  0  0  0  0  0  0  0  0  0  0  0
   56.4158   32.1955   42.7740 H   0  0  0  0  0  0  0  0  0  0  0  0
   58.1359   32.3652   42.2849 H   0  0  0  0  0  0  0  0  0  0  0  0
   57.3577   30.7462   42.2849 H   0  0  0  0  0  0  0  0  0  0  0  0
  1  2  1  0
  2  3  1  0
  2  4  1  0
  4  5  1  0
  5  6  1  0
  6  7  1  0
  7  8  1  0
  8  9  1  0
  9 10  1  0
 10 11  2  0
 11 12  1  0
 12 13  2  0
 13 14  1  0
 14 15  1  0
 15 16  1  0
 16 17  1  0
 17 18  1  0
 18 19  2  0
 19 20  1  0
 20 21  2  0
 21 22  1  0
 13 23  1  0
 23 24  1  0
 23 10  1  0
 22 18  1  0
  1 25  1  0
  1 26  1  0
  1 27  1  0
  3 28  1  0
  3 29  1  0
  3 30  1  0
  4 31  1  0
  4 32  1  0
  5 33  1  0
  5 34  1  0
  6 35  1  0
  7 36  1  0
  7 37  1  0
  8 38  1  0
  8 39  1  0
 12 40  1  0
 14 41  1  0
 14 42  1  0
 15 43  1  0
 15 44  1  0
 16 45  1  0
 16 46  1  0
 17 47  1  0
 17 48  1  0
 19 49  1  0
 20 50  1  0
 21 51  1  0
 24 52  1  0
 24 53  1  0
 24 54  1  0
M  CHG  1  12   1
M  END
>  <UniqueID>  (23) 
22

>  <SMILES>  (23) 
CN(C)CCNCCSc1n[nH+]c(CCCCc2ccco2)n1C

>  <Energy>  (23) 
94.22081350109183

>  <Genealogy>  (23) 
CN(C)CCNCCSc1n[nH+]c(CCCCc2ccco2)n1C (protonated)
CN(C)CCNCCSc1n[nH+]c(CCCCc2ccco2)n1C (3D coordinates assigned)
CN(C)CCNCCSc1n[nH+]c(CCCCc2ccco2)n1C (optimized conformer: 94.22081350109183 kcal/mol)

>  <smiles>  (23) 
CN(C)CCNCCSc1nnc(CCCCc2ccco2)n1C

>  <score_type>  (23) 
oracle

>  <origin>  (23) 
adg

>  <m_score__min__energy>  (23) 
-4.4800000000000004

>  <m_primary>  (23) 
energy

$$$$
23:0
     RDKit          3D

 63 65  0  0  0  0  0  0  0  0999 V2000
   58.1610   33.4110   52.7730 C   0  0  0  0  0  0  0  0  0  0  0  0
   57.0750   32.3550   52.5850 C   0  0  0  0  0  0  0  0  0  0  0  0
   57.1180   31.8020   51.2230 N   0  0  0  0  0  0  0  0  0  0  0  0
   57.7900   30.4940   51.1940 C   0  0  0  0  0  0  0  0  0  0  0  0
   59.1460   30.5980   50.4830 C   0  0  0  0  0  0  0  0  0  0  0  0
   59.5680   31.9930   50.3180 N   0  0  0  0  0  0  0  0  0  0  0  0
   60.6040   32.3810   49.3980 C   0  0  0  0  0  0  0  0  0  0  0  0
   61.9540   32.1940   49.7440 C   0  0  0  0  0  0  0  0  0  0  0  0
   62.3110   31.5400   50.9420 C   0  0  0  0  0  0  0  0  0  0  0  0
   63.6480   31.3310   51.2660 C   0  0  0  0  0  0  0  0  0  0  0  0
   64.6500   31.7580   50.4020 C   0  0  0  0  0  0  0  0  0  0  0  0
   64.3200   32.4210   49.2200 C   0  0  0  0  0  0  0  0  0  0  0  0
   62.9680   32.6860   48.8820 C   0  0  0  0  0  0  0  0  0  0  0  0
   62.6290   33.4000   47.7480 N   0  0  0  0  0  0  0  0  0  0  0  0
   63.6610   34.1760   47.0260 C   0  0  0  0  0  0  0  0  0  0  0  0
   61.3200   33.4050   47.3030 C   0  0  0  0  0  0  0  0  0  0  0  0
   60.9760   33.8700   46.0100 C   0  0  0  0  0  0  0  0  0  0  0  0
   59.6530   33.8790   45.5740 C   0  0  0  0  0  0  0  0  0  0  0  0
   58.6320   33.4040   46.4000 C   0  0  0  0  0  0  0  0  0  0  0  0
   57.2110   33.3530   45.9030 C   0  0  0  0  0  0  0  0  0  0  0  0
   57.0260   32.4420   44.6650 C   0  0  0  0  0  0  0  0  0  0  0  0
   56.9420   30.9890   44.9540 N   0  0  0  0  0  0  0  0  0  0  0  0
   58.2530   30.3010   44.9830 C   0  0  0  0  0  0  0  0  0  0  0  0
   58.5200   29.7650   46.3840 C   0  0  0  0  0  0  0  0  0  0  0  0
   55.9100   30.2870   44.1620 C   0  0  0  0  0  0  0  0  0  0  0  0
   56.4920   29.7520   42.8560 C   0  0  0  0  0  0  0  0  0  0  0  0
   58.9500   32.9230   47.6750 C   0  0  0  0  0  0  0  0  0  0  0  0
   60.2820   32.9130   48.1370 C   0  0  0  0  0  0  0  0  0  0  0  0
   58.3303   33.5756   53.8474 H   0  0  0  0  0  0  0  0  0  0  0  0
   59.0938   33.0653   52.3036 H   0  0  0  0  0  0  0  0  0  0  0  0
   57.8415   34.3531   52.3036 H   0  0  0  0  0  0  0  0  0  0  0  0
   57.2320   31.5425   53.3097 H   0  0  0  0  0  0  0  0  0  0  0  0
   56.0933   32.8248   52.7451 H   0  0  0  0  0  0  0  0  0  0  0  0
   56.1290   31.6560   50.9080 H   0  0  0  0  0  0  0  0  0  0  0  0
   57.9486   30.1463   52.2255 H   0  0  0  0  0  0  0  0  0  0  0  0
   57.1560   29.7821   50.6452 H   0  0  0  0  0  0  0  0  0  0  0  0
   59.9021   30.0651   51.0783 H   0  0  0  0  0  0  0  0  0  0  0  0
   59.0434   30.1509   49.4832 H   0  0  0  0  0  0  0  0  0  0  0  0
   59.0210   32.7410   50.7990 H   0  0  0  0  0  0  0  0  0  0  0  0
   61.5241   31.1916   51.6272 H   0  0  0  0  0  0  0  0  0  0  0  0
   63.9126   30.8271   52.2073 H   0  0  0  0  0  0  0  0  0  0  0  0
   65.7053   31.5726   50.6511 H   0  0  0  0  0  0  0  0  0  0  0  0
   65.1212   32.7436   48.5388 H   0  0  0  0  0  0  0  0  0  0  0  0
   64.3213   34.6725   47.7522 H   0  0  0  0  0  0  0  0  0  0  0  0
   64.2543   33.4984   46.3945 H   0  0  0  0  0  0  0  0  0  0  0  0
   63.1747   34.9341   46.3945 H   0  0  0  0  0  0  0  0  0  0  0  0
   61.7683   34.2307   45.3376 H   0  0  0  0  0  0  0  0  0  0  0  0
   59.4108   34.2630   44.5720 H   0  0  0  0  0  0  0  0  0  0  0  0
   56.5713   32.9741   46.7137 H   0  0  0  0  0  0  0  0  0  0  0  0
   56.9358   34.3739   45.5995 H   0  0  0  0  0  0  0  0  0  0  0  0
   56.0970   32.7420   44.1581 H   0  0  0  0  0  0  0  0  0  0  0  0
   57.9275   32.5782   44.0496 H   0  0  0  0  0  0  0  0  0  0  0  0
   58.2436   29.4656   44.2674 H   0  0  0  0  0  0  0  0  0  0  0  0
   59.0448   31.0135   44.7082 H   0  0  0  0  0  0  0  0  0  0  0  0
   58.1591   30.4896   47.1288 H   0  0  0  0  0  0  0  0  0  0  0  0
   57.9929   28.8087   46.5174 H   0  0  0  0  0  0  0  0  0  0  0  0
   59.6008   29.6097   46.5174 H   0  0  0  0  0  0  0  0  0  0  0  0
   55.5150   29.4460   44.7509 H   0  0  0  0  0  0  0  0  0  0  0  0
   55.1076   31.0000   43.9218 H   0  0  0  0  0  0  0  0  0  0  0  0
   57.2850   29.0231   43.0794 H   0  0  0  0  0  0  0  0  0  0  0  0
   55.6974   29.2625   42.2738 H   0  0  0  0  0  0  0  0  0  0  0  0
   56.9130   30.5849   42.2738 H   0  0  0  0  0  0  0  0  0  0  0  0
   58.1480   32.5467   48.3271 H   0  0  0  0  0  0  0  0  0  0  0  0
  1  2  1  0
  2  3  1  0
  3  4  1  0
  4  5  1  0
  5  6  1  0
  6  7  1  0
  7  8  2  0
  8  9  1  0
  9 10  2  0
 10 11  1  0
 11 12  2  0
 12 13  1  0
 13 14  2  0
 14 15  1  0
 14 16  1  0
 16 17  2  0
 17 18  1  0
 18 19  2  0
 19 20  1  0
 20 21  1  0
 21 22  1  0
 22 23  1  0
 23 24  1  0
 22 25  1  0
 25 26  1  0
 19 27  1  0
 27 28  2  0
 28  7  1  0
 13  8  1  0
 28 16  1  0
  1 29  1  0
  1 30  1  0
  1 31  1  0
  2 32  1  0
  2 33  1  0
  3 34  1  0
  4 35  1  0
  4 36  1  0
  5 37  1  0
  5 38  1  0
  6 39  1  0
  9 40  1  0
 10 41  1  0
 11 42  1  0
 12 43  1  0
 15 44  1  0
 15 45  1  0
 15 46  1  0
 17 47  1  0
 18 48  1  0
 20 49  1  0
 20 50  1  0
 21 51  1  0
 21 52  1  0
 23 53  1  0
 23 54  1  0
 24 55  1  0
 24 56  1  0
 24 57  1  0
 25 58  1  0
 25 59  1  0
 26 60  1  0
 26 61  1  0
 26 62  1  0
 27 63  1  0
M  CHG  1  14   1
M  END
>  <UniqueID>  (24) 
23

>  <SMILES>  (24) 
CCNCCNc1c2ccccc2[n+](C)c2ccc(CCN(CC)CC)cc12

>  <Energy>  (24) 
82.65033055147518

>  <Genealogy>  (24) 
CCNCCNc1c2ccccc2[n+](C)c2ccc(CCN(CC)CC)cc12 (3D coordinates assigned)
CCNCCNc1c2ccccc2[n+](C)c2ccc(CCN(CC)CC)cc12 (optimized conformer: 82.65033055147518 kcal/mol)

>  <smiles>  (24) 
CCNCCNc1c2ccccc2[n+](C)c2ccc(CCN(CC)CC)cc12

>  <score_type>  (24) 
oracle

>  <origin>  (24) 
adg

>  <m_score__min__energy>  (24) 
-6.0700000000000003

>  <m_primary>  (24) 
energy

$$$$
24:0
     RDKit          3D

 41 42  0  0  0  0  0  0  0  0999 V2000
   59.2510   34.9700   44.9350 C   0  0  0  0  0  0  0  0  0  0  0  0
   58.9610   34.2490   46.2100 C   0  0  0  0  0  0  0  0  0  0  0  0
   59.6830   34.4000   47.3380 N   0  0  0  0  0  0  0  0  0  0  0  0
   59.1750   33.5790   48.2450 N   0  0  0  0  0  0  0  0  0  0  0  0
   59.7380   33.3920   49.5750 C   0  0  0  0  0  0  0  0  0  0  0  0
   58.1560   32.8750   47.7170 C   0  0  0  0  0  0  0  0  0  0  0  0
   57.9820   33.2890   46.4140 C   0  0  0  0  0  0  0  0  0  0  0  0
   57.0140   32.7180   45.4180 C   0  0  0  0  0  0  0  0  0  0  0  0
   57.3130   31.2940   45.1710 N   0  0  0  0  0  0  0  0  0  0  0  0
   58.7700   31.0600   45.0750 C   0  0  0  0  0  0  0  0  0  0  0  0
   59.0870   29.6340   44.5740 C   0  0  0  0  0  0  0  0  0  0  0  0
   57.9080   28.7380   44.6270 N   0  0  0  0  0  0  0  0  0  0  0  0
   57.4300   28.3360   45.9870 C   0  0  0  0  0  0  0  0  0  0  0  0
   58.5140   28.4210   47.0830 C   0  0  0  0  0  0  0  0  0  0  0  0
   56.9250   26.8820   45.9440 C   0  0  0  0  0  0  0  0  0  0  0  0
   56.8190   29.2970   43.7830 C   0  0  0  0  0  0  0  0  0  0  0  0
   56.6480   30.8250   43.9430 C   0  0  0  0  0  0  0  0  0  0  0  0
   59.6527   35.9686   45.1617 H   0  0  0  0  0  0  0  0  0  0  0  0
   59.9903   34.4011   44.3520 H   0  0  0  0  0  0  0  0  0  0  0  0
   58.3237   35.0714   44.3520 H   0  0  0  0  0  0  0  0  0  0  0  0
   58.9809   33.6435   50.3323 H   0  0  0  0  0  0  0  0  0  0  0  0
   60.0461   32.3433   49.6986 H   0  0  0  0  0  0  0  0  0  0  0  0
   60.6123   34.0480   49.6986 H   0  0  0  0  0  0  0  0  0  0  0  0
   57.5658   32.1045   48.2348 H   0  0  0  0  0  0  0  0  0  0  0  0
   55.9911   32.8109   45.8118 H   0  0  0  0  0  0  0  0  0  0  0  0
   57.1056   33.2720   44.4721 H   0  0  0  0  0  0  0  0  0  0  0  0
   59.2028   31.7887   44.3738 H   0  0  0  0  0  0  0  0  0  0  0  0
   59.2030   31.1750   46.0796 H   0  0  0  0  0  0  0  0  0  0  0  0
   59.4366   29.6956   43.5328 H   0  0  0  0  0  0  0  0  0  0  0  0
   59.8576   29.2113   45.2354 H   0  0  0  0  0  0  0  0  0  0  0  0
   56.6336   29.0487   46.2474 H   0  0  0  0  0  0  0  0  0  0  0  0
   58.0375   28.3836   48.0737 H   0  0  0  0  0  0  0  0  0  0  0  0
   59.2087   27.5746   46.9781 H   0  0  0  0  0  0  0  0  0  0  0  0
   59.0682   29.3654   46.9781 H   0  0  0  0  0  0  0  0  0  0  0  0
   56.7952   26.5084   46.9704 H   0  0  0  0  0  0  0  0  0  0  0  0
   55.9611   26.8441   45.4154 H   0  0  0  0  0  0  0  0  0  0  0  0
   57.6579   26.2548   45.4154 H   0  0  0  0  0  0  0  0  0  0  0  0
   57.0466   29.0791   42.7291 H   0  0  0  0  0  0  0  0  0  0  0  0
   55.8792   28.8270   44.1084 H   0  0  0  0  0  0  0  0  0  0  0  0
   57.0934   31.3318   43.0742 H   0  0  0  0  0  0  0  0  0  0  0  0
   55.5749   31.0573   44.0093 H   0  0  0  0  0  0  0  0  0  0  0  0
  1  2  1  0
  2  3  2  0
  3  4  1  0
  4  5  1  0
  4  6  1  0
  6  7  2  0
  7  8  1  0
  8  9  1  0
  9 10  1  0
 10 11  1  0
 11 12  1  0
 12 13  1  0
 13 14  1  0
 13 15  1  0
 12 16  1  0
 16 17  1  0
  7  2  1  0
 17  9  1  0
  1 18  1  0
  1 19  1  0
  1 20  1  0
  5 21  1  0
  5 22  1  0
  5 23  1  0
  6 24  1  0
  8 25  1  0
  8 26  1  0
 10 27  1  0
 10 28  1  0
 11 29  1  0
 11 30  1  0
 13 31  1  0
 14 32  1  0
 14 33  1  0
 14 34  1  0
 15 35  1  0
 15 36  1  0
 15 37  1  0
 16 38  1  0
 16 39  1  0
 17 40  1  0
 17 41  1  0
M  END
>  <UniqueID>  (25) 
24

>  <SMILES>  (25) 
Cc1nn(C)cc1CN1CCN(C(C)C)CC1

>  <Energy>  (25) 
80.11395508633852

>  <Genealogy>  (25) 
Cc1nn(C)cc1CN1CCN(C(C)C)CC1 (3D coordinates assigned)
Cc1nn(C)cc1CN1CCN(C(C)C)CC1 (nonaromatic ring conformer: 80.11395508633852 kcal/mol)

>  <smiles>  (25) 
Cc1nn(C)cc1CN1CCN(C(C)C)CC1

>  <score_type>  (25) 
oracle

>  <origin>  (25) 
adg

>  <m_score__min__energy>  (25) 
-6.0999999999999996

>  <m_primary>  (25) 
energy

$$$$
25:0
     RDKit          3D

 43 45  0  0  0  0  0  0  0  0999 V2000
   58.4120   27.9550   46.6200 C   0  0  0  0  0  0  0  0  0  0  0  0
   58.4840   27.7630   45.1050 C   0  0  0  0  0  0  0  0  0  0  0  0
   59.8340   28.2700   44.5690 C   0  0  0  0  0  0  0  0  0  0  0  0
   57.3490   28.4680   44.4790 N   0  0  0  0  0  0  0  0  0  0  0  0
   57.0250   29.7340   45.1530 C   0  0  0  0  0  0  0  0  0  0  0  0
   57.1550   30.9020   44.1720 C   0  0  0  0  0  0  0  0  0  0  0  0
   57.6360   32.0950   44.8680 N   0  0  0  0  0  0  0  0  0  0  0  0
   57.0240   33.3030   44.8940 C   0  0  0  0  0  0  0  0  0  0  0  0
   57.7250   34.1880   45.7060 C   0  0  0  0  0  0  0  0  0  0  0  0
   58.7960   33.4660   46.1910 C   0  0  0  0  0  0  0  0  0  0  0  0
   59.8130   33.8420   47.0640 C   0  0  0  0  0  0  0  0  0  0  0  0
   60.7870   32.8780   47.4190 C   0  0  0  0  0  0  0  0  0  0  0  0
   61.8910   33.2310   48.3470 C   0  0  0  0  0  0  0  0  0  0  0  0
   61.8820   34.1900   49.3500 C   0  0  0  0  0  0  0  0  0  0  0  0
   63.0820   34.2150   49.9610 N   0  0  0  0  0  0  0  0  0  0  0  0
   63.8410   33.2950   49.3870 N   0  0  0  0  0  0  0  0  0  0  0  0
   65.2360   33.0610   49.7320 C   0  0  0  0  0  0  0  0  0  0  0  0
   63.1640   32.6870   48.3970 C   0  0  0  0  0  0  0  0  0  0  0  0
   60.6900   31.5660   46.8770 C   0  0  0  0  0  0  0  0  0  0  0  0
   59.6480   31.2200   45.9990 C   0  0  0  0  0  0  0  0  0  0  0  0
   58.7140   32.2020   45.6720 C   0  0  0  0  0  0  0  0  0  0  0  0
   58.7556   27.0388   47.1225 H   0  0  0  0  0  0  0  0  0  0  0  0
   59.0553   28.7976   46.9138 H   0  0  0  0  0  0  0  0  0  0  0  0
   57.3733   28.1668   46.9138 H   0  0  0  0  0  0  0  0  0  0  0  0
   58.4139   26.6941   44.8549 H   0  0  0  0  0  0  0  0  0  0  0  0
   60.4940   28.5179   45.4134 H   0  0  0  0  0  0  0  0  0  0  0  0
   60.3024   27.4865   43.9552 H   0  0  0  0  0  0  0  0  0  0  0  0
   59.6709   29.1681   43.9552 H   0  0  0  0  0  0  0  0  0  0  0  0
   56.5010   27.8520   44.4840 H   0  0  0  0  0  0  0  0  0  0  0  0
   55.9932   29.6905   45.5319 H   0  0  0  0  0  0  0  0  0  0  0  0
   57.7249   29.8862   45.9879 H   0  0  0  0  0  0  0  0  0  0  0  0
   57.8673   30.6324   43.3784 H   0  0  0  0  0  0  0  0  0  0  0  0
   56.1684   31.1149   43.7347 H   0  0  0  0  0  0  0  0  0  0  0  0
   56.1010   33.5497   44.3488 H   0  0  0  0  0  0  0  0  0  0  0  0
   57.4783   35.2391   45.9166 H   0  0  0  0  0  0  0  0  0  0  0  0
   59.8587   34.8639   47.4684 H   0  0  0  0  0  0  0  0  0  0  0  0
   61.0260   34.8314   49.6067 H   0  0  0  0  0  0  0  0  0  0  0  0
   65.3450   33.0427   50.8264 H   0  0  0  0  0  0  0  0  0  0  0  0
   65.5599   32.0960   49.3151 H   0  0  0  0  0  0  0  0  0  0  0  0
   65.8571   33.8675   49.3151 H   0  0  0  0  0  0  0  0  0  0  0  0
   63.5535   31.8949   47.7406 H   0  0  0  0  0  0  0  0  0  0  0  0
   61.4420   30.8107   47.1492 H   0  0  0  0  0  0  0  0  0  0  0  0
   59.5719   30.2048   45.5825 H   0  0  0  0  0  0  0  0  0  0  0  0
  1  2  1  0
  2  3  1  0
  2  4  1  0
  4  5  1  0
  5  6  1  0
  6  7  1  0
  7  8  1  0
  8  9  2  0
  9 10  1  0
 10 11  2  0
 11 12  1  0
 12 13  1  0
 13 14  1  0
 14 15  2  0
 15 16  1  0
 16 17  1  0
 16 18  1  0
 12 19  2  0
 19 20  1  0
 20 21  2  0
 21  7  1  0
 21 10  1  0
 18 13  2  0
  1 22  1  0
  1 23  1  0
  1 24  1  0
  2 25  1  0
  3 26  1  0
  3 27  1  0
  3 28  1  0
  4 29  1  0
  5 30  1  0
  5 31  1  0
  6 32  1  0
  6 33  1  0
  8 34  1  0
  9 35  1  0
 11 36  1  0
 14 37  1  0
 17 38  1  0
 17 39  1  0
 17 40  1  0
 18 41  1  0
 19 42  1  0
 20 43  1  0
M  END
>  <UniqueID>  (26) 
25

>  <SMILES>  (26) 
CC(C)NCCn1ccc2cc(-c3cnn(C)c3)ccc21

>  <Energy>  (26) 
102.66906872399593

>  <Genealogy>  (26) 
CC(C)NCCn1ccc2cc(-c3cnn(C)c3)ccc21 (3D coordinates assigned)
CC(C)NCCn1ccc2cc(-c3cnn(C)c3)ccc21 (optimized conformer: 102.66906872399593 kcal/mol)

>  <smiles>  (26) 
CC(C)NCCn1ccc2cc(-c3cnn(C)c3)ccc21

>  <score_type>  (26) 
oracle

>  <origin>  (26) 
adg

>  <m_score__min__energy>  (26) 
-7

>  <m_primary>  (26) 
energy

$$$$
26:0
     RDKit          3D

 53 55  0  0  0  0  0  0  0  0999 V2000
   61.6520   30.9330   47.1220 C   0  0  0  0  0  0  0  0  0  0  0  0
   61.8050   31.7690   48.4040 C   0  0  0  0  0  0  0  0  0  0  0  0
   62.4110   33.1250   48.2110 N   0  0  0  0  0  0  0  0  0  0  0  0
   63.8210   33.1210   48.6810 C   0  0  0  0  0  0  0  0  0  0  0  0
   62.4350   33.4190   46.7550 C   0  0  0  0  0  0  0  0  0  0  0  0
   61.6810   34.2130   48.9380 C   0  0  0  0  0  0  0  0  0  0  0  0
   60.2490   33.8530   49.3960 C   0  0  0  0  0  0  0  0  0  0  0  0
   59.2890   34.4060   48.4940 O   0  0  0  0  0  0  0  0  0  0  0  0
   58.9380   33.8670   47.2460 C   0  0  0  0  0  0  0  0  0  0  0  0
   58.7810   34.6590   46.0900 C   0  0  0  0  0  0  0  0  0  0  0  0
   58.4300   34.0710   44.8710 C   0  0  0  0  0  0  0  0  0  0  0  0
   58.2330   32.6820   44.7870 C   0  0  0  0  0  0  0  0  0  0  0  0
   57.8750   32.0460   43.5890 C   0  0  0  0  0  0  0  0  0  0  0  0
   57.7080   32.7060   42.5260 O   0  0  0  0  0  0  0  0  0  0  0  0
   57.6970   30.6620   43.5750 C   0  0  0  0  0  0  0  0  0  0  0  0
   57.8820   29.9300   44.7620 C   0  0  0  0  0  0  0  0  0  0  0  0
   57.7050   28.4570   44.8100 C   0  0  0  0  0  0  0  0  0  0  0  0
   57.3250   27.8450   46.0160 C   0  0  0  0  0  0  0  0  0  0  0  0
   57.1570   26.4600   46.0890 C   0  0  0  0  0  0  0  0  0  0  0  0
   57.3750   25.6550   44.9650 C   0  0  0  0  0  0  0  0  0  0  0  0
   57.1930   24.2700   45.0910 O   0  0  0  0  0  0  0  0  0  0  0  0
   57.0020   23.3830   43.9940 C   0  0  0  0  0  0  0  0  0  0  0  0
   57.7710   26.2590   43.7580 C   0  0  0  0  0  0  0  0  0  0  0  0
   57.9360   27.6460   43.6830 C   0  0  0  0  0  0  0  0  0  0  0  0
   58.2140   30.5710   45.8820 O   0  0  0  0  0  0  0  0  0  0  0  0
   58.3940   31.8870   45.9410 C   0  0  0  0  0  0  0  0  0  0  0  0
   58.7450   32.4840   47.1570 C   0  0  0  0  0  0  0  0  0  0  0  0
   61.4599   29.8834   47.3894 H   0  0  0  0  0  0  0  0  0  0  0  0
   60.8099   31.3205   46.5299 H   0  0  0  0  0  0  0  0  0  0  0  0
   62.5768   30.9972   46.5299 H   0  0  0  0  0  0  0  0  0  0  0  0
   60.8061   31.9020   48.8450 H   0  0  0  0  0  0  0  0  0  0  0  0
   62.4996   31.2128   49.0507 H   0  0  0  0  0  0  0  0  0  0  0  0
   63.8409   33.1209   49.7808 H   0  0  0  0  0  0  0  0  0  0  0  0
   64.3303   32.2214   48.3050 H   0  0  0  0  0  0  0  0  0  0  0  0
   64.3354   34.0177   48.3050 H   0  0  0  0  0  0  0  0  0  0  0  0
   62.5236   34.5046   46.6016 H   0  0  0  0  0  0  0  0  0  0  0  0
   63.2947   32.9119   46.2927 H   0  0  0  0  0  0  0  0  0  0  0  0
   61.5044   33.0581   46.2927 H   0  0  0  0  0  0  0  0  0  0  0  0
   62.2670   34.4785   49.8303 H   0  0  0  0  0  0  0  0  0  0  0  0
   61.5731   35.0401   48.2208 H   0  0  0  0  0  0  0  0  0  0  0  0
   60.1388   32.7588   49.4179 H   0  0  0  0  0  0  0  0  0  0  0  0
   60.0784   34.2678   50.4004 H   0  0  0  0  0  0  0  0  0  0  0  0
   58.9357   35.7465   46.1476 H   0  0  0  0  0  0  0  0  0  0  0  0
   58.3077   34.6974   43.9751 H   0  0  0  0  0  0  0  0  0  0  0  0
   57.4146   30.1481   42.6443 H   0  0  0  0  0  0  0  0  0  0  0  0
   57.1582   28.4620   46.9112 H   0  0  0  0  0  0  0  0  0  0  0  0
   56.8505   25.9978   47.0389 H   0  0  0  0  0  0  0  0  0  0  0  0
   56.7846   22.3733   44.3724 H   0  0  0  0  0  0  0  0  0  0  0  0
   56.1589   23.7342   43.3810 H   0  0  0  0  0  0  0  0  0  0  0  0
   57.9149   23.3561   43.3810 H   0  0  0  0  0  0  0  0  0  0  0  0
   57.9518   25.6375   42.8686 H   0  0  0  0  0  0  0  0  0  0  0  0
   58.2491   28.1071   42.7347 H   0  0  0  0  0  0  0  0  0  0  0  0
   58.8706   31.8588   48.0533 H   0  0  0  0  0  0  0  0  0  0  0  0
  1  2  1  0
  2  3  1  0
  3  4  1  0
  3  5  1  0
  3  6  1  0
  6  7  1  0
  7  8  1  0
  8  9  1  0
  9 10  2  0
 10 11  1  0
 11 12  2  0
 12 13  1  0
 13 14  2  0
 13 15  1  0
 15 16  2  0
 16 17  1  0
 17 18  2  0
 18 19  1  0
 19 20  2  0
 20 21  1  0
 21 22  1  0
 20 23  1  0
 23 24  2  0
 16 25  1  0
 25 26  1  0
 26 27  2  0
 27  9  1  0
 26 12  1  0
 24 17  1  0
  1 28  1  0
  1 29  1  0
  1 30  1  0
  2 31  1  0
  2 32  1  0
  4 33  1  0
  4 34  1  0
  4 35  1  0
  5 36  1  0
  5 37  1  0
  5 38  1  0
  6 39  1  0
  6 40  1  0
  7 41  1  0
  7 42  1  0
 10 43  1  0
 11 44  1  0
 15 45  1  0
 18 46  1  0
 19 47  1  0
 22 48  1  0
 22 49  1  0
 22 50  1  0
 23 51  1  0
 24 52  1  0
 27 53  1  0
M  CHG  1   3   1
M  END
>  <UniqueID>  (27) 
26

>  <SMILES>  (27) 
CC[N+](C)(C)CCOc1ccc2c(=O)cc(-c3ccc(OC)cc3)oc2c1

>  <Energy>  (27) 
71.07739592338297

>  <Genealogy>  (27) 
CC[N+](C)(C)CCOc1ccc2c(=O)cc(-c3ccc(OC)cc3)oc2c1 (3D coordinates assigned)
CC[N+](C)(C)CCOc1ccc2c(=O)cc(-c3ccc(OC)cc3)oc2c1 (optimized conformer: 71.07739592338297 kcal/mol)

>  <smiles>  (27) 
CC[N+](C)(C)CCOc1ccc2c(=O)cc(-c3ccc(OC)cc3)oc2c1

>  <score_type>  (27) 
oracle

>  <origin>  (27) 
adg

>  <m_score__min__energy>  (27) 
-5.9000000000000004

>  <m_primary>  (27) 
energy

$$$$
