0:0
     RDKit          3D

 39 41  0  0  0  0  0  0  0  0999 V2000
   56.4750   30.0900   43.6520 C   0  0  0  0  0  0  0  0  0  0  0  0
   56.4720   30.8550   44.8530 O   0  0  0  0  0  0  0  0  0  0  0  0
   57.4790   31.7590   45.2180 C   0  0  0  0  0  0  0  0  0  0  0  0
   57.4290   33.1250   44.8780 C   0  0  0  0  0  0  0  0  0  0  0  0
   58.4600   33.9870   45.2650 C   0  0  0  0  0  0  0  0  0  0  0  0
   59.5540   33.5010   45.9980 C   0  0  0  0  0  0  0  0  0  0  0  0
   60.6770   34.4190   46.3950 C   0  0  0  0  0  0  0  0  0  0  0  0
   61.4310   33.8560   47.5640 C   0  0  0  0  0  0  0  0  0  0  0  0
   63.0230   33.3160   47.4980 S   0  0  0  0  0  0  0  0  0  0  0  0
   63.1120   32.9750   49.1470 C   0  0  0  0  0  0  0  0  0  0  0  0
   64.3070   32.4340   49.8410 C   0  0  0  0  0  0  0  0  0  0  0  0
   64.2240   31.2650   50.6230 C   0  0  0  0  0  0  0  0  0  0  0  0
   65.3560   30.7660   51.2740 C   0  0  0  0  0  0  0  0  0  0  0  0
   66.5810   31.4250   51.1570 C   0  0  0  0  0  0  0  0  0  0  0  0
   66.6770   32.5880   50.3890 C   0  0  0  0  0  0  0  0  0  0  0  0
   65.5480   33.0920   49.7370 C   0  0  0  0  0  0  0  0  0  0  0  0
   61.9370   33.2750   49.7530 N   0  0  0  0  0  0  0  0  0  0  0  0
   61.0000   33.7610   48.8900 C   0  0  0  0  0  0  0  0  0  0  0  0
   59.6500   34.2070   49.3640 C   0  0  0  0  0  0  0  0  0  0  0  0
   59.6040   32.1390   46.3350 C   0  0  0  0  0  0  0  0  0  0  0  0
   58.5730   31.2780   45.9480 C   0  0  0  0  0  0  0  0  0  0  0  0
   56.4792   29.0183   43.8999 H   0  0  0  0  0  0  0  0  0  0  0  0
   55.5759   30.3268   43.0642 H   0  0  0  0  0  0  0  0  0  0  0  0
   57.3722   30.3339   43.0642 H   0  0  0  0  0  0  0  0  0  0  0  0
   56.5749   33.5156   44.3053 H   0  0  0  0  0  0  0  0  0  0  0  0
   58.4134   35.0519   44.9934 H   0  0  0  0  0  0  0  0  0  0  0  0
   61.3646   34.5379   45.5446 H   0  0  0  0  0  0  0  0  0  0  0  0
   60.2543   35.3933   46.6815 H   0  0  0  0  0  0  0  0  0  0  0  0
   63.2617   30.7413   50.7220 H   0  0  0  0  0  0  0  0  0  0  0  0
   65.2812   29.8512   51.8803 H   0  0  0  0  0  0  0  0  0  0  0  0
   67.4702   31.0288   51.6692 H   0  0  0  0  0  0  0  0  0  0  0  0
   67.6421   33.1077   50.2973 H   0  0  0  0  0  0  0  0  0  0  0  0
   65.6294   34.0106   49.1374 H   0  0  0  0  0  0  0  0  0  0  0  0
   61.7490   33.1420   50.7710 H   0  0  0  0  0  0  0  0  0  0  0  0
   59.6312   34.2132   50.4638 H   0  0  0  0  0  0  0  0  0  0  0  0
   59.4457   35.2204   48.9880 H   0  0  0  0  0  0  0  0  0  0  0  0
   58.8822   33.5148   48.9880 H   0  0  0  0  0  0  0  0  0  0  0  0
   60.4586   31.7475   46.9063 H   0  0  0  0  0  0  0  0  0  0  0  0
   58.6215   30.2131   46.2193 H   0  0  0  0  0  0  0  0  0  0  0  0
  1  2  1  0
  2  3  1  0
  3  4  2  0
  4  5  1  0
  5  6  2  0
  6  7  1  0
  7  8  1  0
  8  9  1  0
  9 10  1  0
 10 11  1  0
 11 12  2  0
 12 13  1  0
 13 14  2  0
 14 15  1  0
 15 16  2  0
 10 17  2  0
 17 18  1  0
 18 19  1  0
  6 20  1  0
 20 21  2  0
 21  3  1  0
 18  8  2  0
 16 11  1  0
  1 22  1  0
  1 23  1  0
  1 24  1  0
  4 25  1  0
  5 26  1  0
  7 27  1  0
  7 28  1  0
 12 29  1  0
 13 30  1  0
 14 31  1  0
 15 32  1  0
 16 33  1  0
 17 34  1  0
 19 35  1  0
 19 36  1  0
 19 37  1  0
 20 38  1  0
 21 39  1  0
M  CHG  1  17   1
M  END
>  <UniqueID>  (1) 
1

>  <SMILES>  (1) 
COc1ccc(Cc2sc(-c3ccccc3)[nH+]c2C)cc1

>  <Energy>  (1) 
69.25625564726496

>  <Genealogy>  (1) 
COc1ccc(Cc2sc(-c3ccccc3)[nH+]c2C)cc1 (protonated)
COc1ccc(Cc2sc(-c3ccccc3)[nH+]c2C)cc1 (3D coordinates assigned)
COc1ccc(Cc2sc(-c3ccccc3)[nH+]c2C)cc1 (optimized conformer: 69.25625564726496 kcal/mol)

>  <smiles>  (1) 
COc1ccc(Cc2sc(-c3ccccc3)nc2C)cc1

>  <score_type>  (1) 
oracle

>  <origin>  (1) 
adg

>  <m_score__min__energy>  (1) 
-6.1500000000000004

>  <m_primary>  (1) 
energy

$$$$
1:0
     RDKit          3D

 55 58  0  0  0  0  0  0  0  0999 V2000
   61.4040   27.8540   51.7910 C   0  0  0  0  0  0  0  0  0  0  0  0
   60.5390   28.6450   50.9850 O   0  0  0  0  0  0  0  0  0  0  0  0
   60.9700   29.6060   50.0560 C   0  0  0  0  0  0  0  0  0  0  0  0
   61.6270   30.7850   50.4520 C   0  0  0  0  0  0  0  0  0  0  0  0
   62.0140   31.7430   49.5030 C   0  0  0  0  0  0  0  0  0  0  0  0
   61.7420   31.5160   48.1420 C   0  0  0  0  0  0  0  0  0  0  0  0
   61.1230   30.3240   47.7430 C   0  0  0  0  0  0  0  0  0  0  0  0
   60.7210   29.3720   48.6970 C   0  0  0  0  0  0  0  0  0  0  0  0
   60.0580   28.1880   48.3370 O   0  0  0  0  0  0  0  0  0  0  0  0
   60.5980   26.8810   48.4920 C   0  0  0  0  0  0  0  0  0  0  0  0
   62.0930   32.5600   47.1140 C   0  0  0  0  0  0  0  0  0  0  0  0
   62.0500   33.9160   47.6890 N   0  0  0  0  0  0  0  0  0  0  0  0
   60.7140   34.5700   47.7740 C   0  0  0  0  0  0  0  0  0  0  0  0
   59.6370   33.9060   46.9400 C   0  0  0  0  0  0  0  0  0  0  0  0
   58.8790   32.8450   47.4630 C   0  0  0  0  0  0  0  0  0  0  0  0
   58.0220   32.1140   46.6360 C   0  0  0  0  0  0  0  0  0  0  0  0
   57.8510   32.4770   45.2870 C   0  0  0  0  0  0  0  0  0  0  0  0
   57.0300   31.6470   44.3770 C   0  0  0  0  0  0  0  0  0  0  0  0
   57.2520   31.6920   43.1330 O   0  0  0  0  0  0  0  0  0  0  0  0
   56.0410   30.7350   44.8670 N   0  0  0  0  0  0  0  0  0  0  0  0
   55.9080   29.3510   44.4300 C   0  0  0  0  0  0  0  0  0  0  0  0
   57.1150   28.5850   44.8550 C   0  0  0  0  0  0  0  0  0  0  0  0
   57.1220   27.4840   45.7010 C   0  0  0  0  0  0  0  0  0  0  0  0
   58.4120   27.0300   46.0050 C   0  0  0  0  0  0  0  0  0  0  0  0
   59.4200   27.7770   45.4050 C   0  0  0  0  0  0  0  0  0  0  0  0
   58.7050   29.0030   44.5020 S   0  0  0  0  0  0  0  0  0  0  0  0
   58.5510   33.5880   44.7850 C   0  0  0  0  0  0  0  0  0  0  0  0
   59.4290   34.3010   45.6070 C   0  0  0  0  0  0  0  0  0  0  0  0
   62.9250   34.0580   48.8690 C   0  0  0  0  0  0  0  0  0  0  0  0
   62.6310   33.0340   49.9830 C   0  0  0  0  0  0  0  0  0  0  0  0
   61.1933   28.0467   52.8533 H   0  0  0  0  0  0  0  0  0  0  0  0
   61.2377   26.7890   51.5715 H   0  0  0  0  0  0  0  0  0  0  0  0
   62.4499   28.1146   51.5715 H   0  0  0  0  0  0  0  0  0  0  0  0
   61.8397   30.9577   51.5173 H   0  0  0  0  0  0  0  0  0  0  0  0
   60.9499   30.1310   46.6740 H   0  0  0  0  0  0  0  0  0  0  0  0
   60.6940   26.6486   49.5629 H   0  0  0  0  0  0  0  0  0  0  0  0
   59.9287   26.1490   48.0165 H   0  0  0  0  0  0  0  0  0  0  0  0
   61.5888   26.8349   48.0165 H   0  0  0  0  0  0  0  0  0  0  0  0
   63.1072   32.3635   46.7360 H   0  0  0  0  0  0  0  0  0  0  0  0
   61.3557   32.5057   46.2995 H   0  0  0  0  0  0  0  0  0  0  0  0
   60.3913   34.5575   48.8255 H   0  0  0  0  0  0  0  0  0  0  0  0
   60.8370   35.5876   47.3748 H   0  0  0  0  0  0  0  0  0  0  0  0
   58.9606   32.5883   48.5295 H   0  0  0  0  0  0  0  0  0  0  0  0
   57.4773   31.2489   47.0421 H   0  0  0  0  0  0  0  0  0  0  0  0
   55.0107   28.9061   44.8849 H   0  0  0  0  0  0  0  0  0  0  0  0
   55.8149   29.3164   43.3345 H   0  0  0  0  0  0  0  0  0  0  0  0
   56.2071   27.0156   46.0929 H   0  0  0  0  0  0  0  0  0  0  0  0
   58.6088   26.1654   46.6560 H   0  0  0  0  0  0  0  0  0  0  0  0
   60.5006   27.5969   45.5040 H   0  0  0  0  0  0  0  0  0  0  0  0
   58.4071   33.8982   43.7395 H   0  0  0  0  0  0  0  0  0  0  0  0
   59.9608   35.1773   45.2078 H   0  0  0  0  0  0  0  0  0  0  0  0
   63.9685   33.9297   48.5454 H   0  0  0  0  0  0  0  0  0  0  0  0
   62.7372   35.0563   49.2912 H   0  0  0  0  0  0  0  0  0  0  0  0
   63.5786   32.7945   50.4877 H   0  0  0  0  0  0  0  0  0  0  0  0
   61.8930   33.5029   50.6505 H   0  0  0  0  0  0  0  0  0  0  0  0
  1  2  1  0
  2  3  1  0
  3  4  2  0
  4  5  1  0
  5  6  2  0
  6  7  1  0
  7  8  2  0
  8  9  1  0
  9 10  1  0
  6 11  1  0
 11 12  1  0
 12 13  1  0
 13 14  1  0
 14 15  2  0
 15 16  1  0
 16 17  2  0
 17 18  1  0
 18 19  2  0
 18 20  1  0
 20 21  1  0
 21 22  1  0
 22 23  2  0
 23 24  1  0
 24 25  2  0
 25 26  1  0
 17 27  1  0
 27 28  2  0
 12 29  1  0
 29 30  1  0
  8  3  1  0
 28 14  1  0
 30  5  1  0
 26 22  1  0
  1 31  1  0
  1 32  1  0
  1 33  1  0
  4 34  1  0
  7 35  1  0
 10 36  1  0
 10 37  1  0
 10 38  1  0
 11 39  1  0
 11 40  1  0
 13 41  1  0
 13 42  1  0
 15 43  1  0
 16 44  1  0
 21 45  1  0
 21 46  1  0
 23 47  1  0
 24 48  1  0
 25 49  1  0
 27 50  1  0
 28 51  1  0
 29 52  1  0
 29 53  1  0
 30 54  1  0
 30 55  1  0
M  CHG  1  20  -1
M  END
>  <UniqueID>  (2) 
2

>  <SMILES>  (2) 
COc1cc2c(cc1OC)CN(Cc1ccc(C(=O)[N-]Cc3cccs3)cc1)CC2

>  <Energy>  (2) 
96.96293387968701

>  <Genealogy>  (2) 
COc1cc2c(cc1OC)CN(Cc1ccc(C(=O)[N-]Cc3cccs3)cc1)CC2 (protonated)
COc1cc2c(cc1OC)CN(Cc1ccc(C(=O)[N-]Cc3cccs3)cc1)CC2 (3D coordinates assigned)
COc1cc2c(cc1OC)CN(Cc1ccc(C(=O)[N-]Cc3cccs3)cc1)CC2 (nonaromatic ring conformer: 96.96293387968701 kcal/mol)

>  <smiles>  (2) 
COc1cc2c(cc1OC)CN(Cc1ccc(C(=O)NCc3cccs3)cc1)CC2

>  <score_type>  (2) 
oracle

>  <origin>  (2) 
adg

>  <m_score__min__energy>  (2) 
-10.69

>  <m_primary>  (2) 
energy

$$$$
2:0
     RDKit          3D

 52 55  0  0  0  0  0  0  0  0999 V2000
   59.5850   27.8460   44.5550 C   0  0  0  0  0  0  0  0  0  0  0  0
   58.5520   28.9340   44.6900 C   0  0  0  0  0  0  0  0  0  0  0  0
   57.3560   28.8380   43.9640 C   0  0  0  0  0  0  0  0  0  0  0  0
   56.3960   29.8430   44.0840 C   0  0  0  0  0  0  0  0  0  0  0  0
   55.3190   29.7650   43.4380 O   0  0  0  0  0  0  0  0  0  0  0  0
   56.6100   30.8860   44.8780 O   0  0  0  0  0  0  0  0  0  0  0  0
   57.7240   31.0310   45.5890 C   0  0  0  0  0  0  0  0  0  0  0  0
   57.8750   32.1570   46.4010 C   0  0  0  0  0  0  0  0  0  0  0  0
   59.0370   32.3410   47.1660 C   0  0  0  0  0  0  0  0  0  0  0  0
   60.0660   31.3770   47.1110 C   0  0  0  0  0  0  0  0  0  0  0  0
   59.9140   30.2440   46.2910 C   0  0  0  0  0  0  0  0  0  0  0  0
   58.7480   30.0580   45.5260 C   0  0  0  0  0  0  0  0  0  0  0  0
   61.3360   31.5490   47.9110 C   0  0  0  0  0  0  0  0  0  0  0  0
   62.1390   32.7800   47.4470 C   0  0  0  0  0  0  0  0  0  0  0  0
   61.6590   34.0720   47.9910 N   0  0  0  0  0  0  0  0  0  0  0  0
   61.8680   34.2790   49.4430 C   0  0  0  0  0  0  0  0  0  0  0  0
   61.3040   33.1020   50.2740 C   0  0  0  0  0  0  0  0  0  0  0  0
   60.0560   33.4630   50.9960 N   0  0  0  0  0  0  0  0  0  0  0  0
   60.3300   33.7820   52.4150 C   0  0  0  0  0  0  0  0  0  0  0  0
   59.0230   34.1590   53.1510 C   0  0  0  0  0  0  0  0  0  0  0  0
   57.8650   33.8750   52.3850 O   0  0  0  0  0  0  0  0  0  0  0  0
   57.9180   32.5440   51.9150 C   0  0  0  0  0  0  0  0  0  0  0  0
   59.0760   32.3570   50.9130 C   0  0  0  0  0  0  0  0  0  0  0  0
   60.3220   34.4790   47.5080 C   0  0  0  0  0  0  0  0  0  0  0  0
   59.1780   33.5820   48.0140 C   0  0  0  0  0  0  0  0  0  0  0  0
   59.9004   27.5138   45.5551 H   0  0  0  0  0  0  0  0  0  0  0  0
   59.1531   26.9965   44.0057 H   0  0  0  0  0  0  0  0  0  0  0  0
   60.4558   28.2333   44.0057 H   0  0  0  0  0  0  0  0  0  0  0  0
   57.1761   27.9762   43.3045 H   0  0  0  0  0  0  0  0  0  0  0  0
   57.0732   32.9090   46.4415 H   0  0  0  0  0  0  0  0  0  0  0  0
   60.7173   29.4938   46.2474 H   0  0  0  0  0  0  0  0  0  0  0  0
   61.0748   31.6729   48.9723 H   0  0  0  0  0  0  0  0  0  0  0  0
   61.9599   30.6557   47.7606 H   0  0  0  0  0  0  0  0  0  0  0  0
   63.1852   32.6443   47.7586 H   0  0  0  0  0  0  0  0  0  0  0  0
   62.0172   32.8375   46.3553 H   0  0  0  0  0  0  0  0  0  0  0  0
   62.9466   34.3695   49.6389 H   0  0  0  0  0  0  0  0  0  0  0  0
   61.3362   35.1951   49.7396 H   0  0  0  0  0  0  0  0  0  0  0  0
   61.0895   32.2624   49.5965 H   0  0  0  0  0  0  0  0  0  0  0  0
   62.0595   32.8311   51.0262 H   0  0  0  0  0  0  0  0  0  0  0  0
   59.6290   34.3050   50.5440 H   0  0  0  0  0  0  0  0  0  0  0  0
   60.7790   32.9041   52.9026 H   0  0  0  0  0  0  0  0  0  0  0  0
   61.0208   34.6369   52.4590 H   0  0  0  0  0  0  0  0  0  0  0  0
   58.9716   33.5905   54.0913 H   0  0  0  0  0  0  0  0  0  0  0  0
   59.0442   35.2436   53.3333 H   0  0  0  0  0  0  0  0  0  0  0  0
   58.0682   31.8668   52.7687 H   0  0  0  0  0  0  0  0  0  0  0  0
   56.9715   32.3152   51.4033 H   0  0  0  0  0  0  0  0  0  0  0  0
   59.5887   31.4091   51.1337 H   0  0  0  0  0  0  0  0  0  0  0  0
   58.6529   32.3494   49.8977 H   0  0  0  0  0  0  0  0  0  0  0  0
   60.1303   35.5084   47.8450 H   0  0  0  0  0  0  0  0  0  0  0  0
   60.3372   34.3903   46.4117 H   0  0  0  0  0  0  0  0  0  0  0  0
   59.3883   33.2846   49.0519 H   0  0  0  0  0  0  0  0  0  0  0  0
   58.2386   34.1513   47.9546 H   0  0  0  0  0  0  0  0  0  0  0  0
  1  2  1  0
  2  3  2  0
  3  4  1  0
  4  5  2  0
  4  6  1  0
  6  7  1  0
  7  8  2  0
  8  9  1  0
  9 10  2  0
 10 11  1  0
 11 12  2  0
 10 13  1  0
 13 14  1  0
 14 15  1  0
 15 16  1  0
 16 17  1  0
 17 18  1  0
 18 19  1  0
 19 20  1  0
 20 21  1  0
 21 22  1  0
 22 23  1  0
 15 24  1  0
 24 25  1  0
 12  2  1  0
 23 18  1  0
 12  7  1  0
 25  9  1  0
  1 26  1  0
  1 27  1  0
  1 28  1  0
  3 29  1  0
  8 30  1  0
 11 31  1  0
 13 32  1  0
 13 33  1  0
 14 34  1  0
 14 35  1  0
 16 36  1  0
 16 37  1  0
 17 38  1  0
 17 39  1  0
 18 40  1  0
 19 41  1  0
 19 42  1  0
 20 43  1  0
 20 44  1  0
 22 45  1  0
 22 46  1  0
 23 47  1  0
 23 48  1  0
 24 49  1  0
 24 50  1  0
 25 51  1  0
 25 52  1  0
M  CHG  1  18   1
M  END
>  <UniqueID>  (3) 
3

>  <SMILES>  (3) 
Cc1cc(=O)oc2cc3c(cc12)CCN(CC[NH+]1CCOCC1)CC3

>  <Energy>  (3) 
82.47160594114685

>  <Genealogy>  (3) 
Cc1cc(=O)oc2cc3c(cc12)CCN(CC[NH+]1CCOCC1)CC3 (protonated)
Cc1cc(=O)oc2cc3c(cc12)CCN(CC[NH+]1CCOCC1)CC3 (3D coordinates assigned)
Cc1cc(=O)oc2cc3c(cc12)CCN(CC[NH+]1CCOCC1)CC3 (nonaromatic ring conformer: 82.47160594114685 kcal/mol)

>  <smiles>  (3) 
Cc1cc(=O)oc2cc3c(cc12)CCN(CCN1CCOCC1)CC3

>  <score_type>  (3) 
oracle

>  <origin>  (3) 
adg

>  <m_score__min__energy>  (3) 
-4.8099999999999996

>  <m_primary>  (3) 
energy

$$$$
3:0
     RDKit          3D

 32 33  0  0  0  0  0  0  0  0999 V2000
   58.8840   30.1500   47.4970 C   0  0  0  0  0  0  0  0  0  0  0  0
   59.3840   30.7770   46.3210 O   0  0  0  0  0  0  0  0  0  0  0  0
   59.1360   32.1120   45.9600 C   0  0  0  0  0  0  0  0  0  0  0  0
   59.8200   33.1800   46.5740 C   0  0  0  0  0  0  0  0  0  0  0  0
   59.5460   34.5000   46.2090 C   0  0  0  0  0  0  0  0  0  0  0  0
   58.5880   34.7730   45.2340 C   0  0  0  0  0  0  0  0  0  0  0  0
   57.9050   33.7260   44.6150 C   0  0  0  0  0  0  0  0  0  0  0  0
   58.1770   32.3910   44.9610 C   0  0  0  0  0  0  0  0  0  0  0  0
   57.4340   31.2860   44.2450 C   0  0  0  0  0  0  0  0  0  0  0  0
   56.6470   30.4970   45.1900 N   0  0  0  0  0  0  0  0  0  0  0  0
   55.9040   29.3210   44.8470 C   0  0  0  0  0  0  0  0  0  0  0  0
   54.8670   29.4330   44.1440 O   0  0  0  0  0  0  0  0  0  0  0  0
   56.3450   28.0210   45.2470 N   0  0  0  0  0  0  0  0  0  0  0  0
   55.5320   27.0750   45.6910 N   0  0  0  0  0  0  0  0  0  0  0  0
   56.2930   26.0000   45.9890 C   0  0  0  0  0  0  0  0  0  0  0  0
   55.7380   24.6890   46.4350 C   0  0  0  0  0  0  0  0  0  0  0  0
   57.6270   26.2630   45.7230 C   0  0  0  0  0  0  0  0  0  0  0  0
   57.6080   27.5600   45.2660 C   0  0  0  0  0  0  0  0  0  0  0  0
   58.6200   28.2320   44.9310 O   0  0  0  0  0  0  0  0  0  0  0  0
   59.2894   30.6584   48.3842 H   0  0  0  0  0  0  0  0  0  0  0  0
   57.7859   30.2135   47.5078 H   0  0  0  0  0  0  0  0  0  0  0  0
   59.1903   29.0936   47.5078 H   0  0  0  0  0  0  0  0  0  0  0  0
   60.5752   32.9726   47.3464 H   0  0  0  0  0  0  0  0  0  0  0  0
   60.0877   35.3264   46.6923 H   0  0  0  0  0  0  0  0  0  0  0  0
   58.3706   35.8140   44.9527 H   0  0  0  0  0  0  0  0  0  0  0  0
   57.1468   33.9470   43.8493 H   0  0  0  0  0  0  0  0  0  0  0  0
   56.7611   31.7294   43.4963 H   0  0  0  0  0  0  0  0  0  0  0  0
   58.1660   30.6261   43.7565 H   0  0  0  0  0  0  0  0  0  0  0  0
   55.7225   24.6523   47.5343 H   0  0  0  0  0  0  0  0  0  0  0  0
   54.7141   24.5742   46.0498 H   0  0  0  0  0  0  0  0  0  0  0  0
   56.3682   23.8739   46.0498 H   0  0  0  0  0  0  0  0  0  0  0  0
   58.4925   25.5955   45.8473 H   0  0  0  0  0  0  0  0  0  0  0  0
  1  2  1  0
  2  3  1  0
  3  4  2  0
  4  5  1  0
  5  6  2  0
  6  7  1  0
  7  8  2  0
  8  9  1  0
  9 10  1  0
 10 11  1  0
 11 12  2  0
 11 13  1  0
 13 14  1  0
 14 15  1  0
 15 16  1  0
 15 17  2  0
 17 18  1  0
 18 19  2  0
  8  3  1  0
 18 13  1  0
  1 20  1  0
  1 21  1  0
  1 22  1  0
  4 23  1  0
  5 24  1  0
  6 25  1  0
  7 26  1  0
  9 27  1  0
  9 28  1  0
 16 29  1  0
 16 30  1  0
 16 31  1  0
 17 32  1  0
M  CHG  2  10  -1  14  -1
M  END
>  <UniqueID>  (4) 
4

>  <SMILES>  (4) 
COc1ccccc1C[N-]C(=O)n1[n-]c(C)cc1=O

>  <Energy>  (4) 
64.24358503878464

>  <Genealogy>  (4) 
COc1ccccc1C[N-]C(=O)n1[n-]c(C)cc1=O (protonated)
COc1ccccc1C[N-]C(=O)n1[n-]c(C)cc1=O (3D coordinates assigned)
COc1ccccc1C[N-]C(=O)n1[n-]c(C)cc1=O (optimized conformer: 64.24358503878464 kcal/mol)

>  <smiles>  (4) 
COc1ccccc1CNC(=O)n1[nH]c(C)cc1=O

>  <score_type>  (4) 
oracle

>  <origin>  (4) 
adg

>  <m_score__min__energy>  (4) 
-10.51

>  <m_primary>  (4) 
energy

$$$$
4:0
     RDKit          3D

 40 41  0  0  0  0  0  0  0  0999 V2000
   62.7930   31.6350   47.1840 C   0  0  0  0  0  0  0  0  0  0  0  0
   61.5260   30.8660   46.8000 C   0  0  0  0  0  0  0  0  0  0  0  0
   60.2440   31.3290   47.5270 C   0  0  2  0  0  0  0  0  0  0  0  0
   60.1640   30.8230   48.9550 C   0  0  0  0  0  0  0  0  0  0  0  0
   61.1540   30.2410   49.4770 O   0  0  0  0  0  0  0  0  0  0  0  0
   58.9560   30.9730   49.7250 N   0  0  0  0  0  0  0  0  0  0  0  0
   58.4800   29.8440   50.5330 C   0  0  0  0  0  0  0  0  0  0  0  0
   58.5130   30.2040   52.0240 C   0  0  0  0  0  0  0  0  0  0  0  0
   57.5800   31.3660   52.4120 C   0  0  0  0  0  0  0  0  0  0  0  0
   58.1830   32.7820   52.3340 C   0  0  0  0  0  0  0  0  0  0  0  0
   58.8680   33.1070   50.9960 C   0  0  0  0  0  0  0  0  0  0  0  0
   58.2970   32.2820   49.8330 C   0  0  0  0  0  0  0  0  0  0  0  0
   59.0310   31.0150   46.7510 N   0  0  0  0  0  0  0  0  0  0  0  0
   58.4200   29.8230   46.5990 C   0  0  0  0  0  0  0  0  0  0  0  0
   57.3740   29.9970   45.7220 C   0  0  0  0  0  0  0  0  0  0  0  0
   56.4740   28.9770   45.2800 N   0  0  0  0  0  0  0  0  0  0  0  0
   56.8370   27.7840   45.2420 O   0  0  0  0  0  0  0  0  0  0  0  0
   55.1980   29.3100   44.8890 O   0  0  0  0  0  0  0  0  0  0  0  0
   57.3170   31.2740   45.3020 N   0  0  0  0  0  0  0  0  0  0  0  0
   58.3460   31.8650   45.9460 C   0  0  0  0  0  0  0  0  0  0  0  0
   58.7780   33.7120   45.6910 Br  0  0  0  0  0  0  0  0  0  0  0  0
   62.8741   31.6842   48.2799 H   0  0  0  0  0  0  0  0  0  0  0  0
   63.6736   31.1189   46.7740 H   0  0  0  0  0  0  0  0  0  0  0  0
   62.7416   32.6544   46.7740 H   0  0  0  0  0  0  0  0  0  0  0  0
   61.3680   30.9847   45.7179 H   0  0  0  0  0  0  0  0  0  0  0  0
   61.6936   29.8214   47.1011 H   0  0  0  0  0  0  0  0  0  0  0  0
   60.3034   32.4250   47.5994 H   0  0  0  0  0  0  0  0  0  0  0  0
   57.4479   29.5991   50.2417 H   0  0  0  0  0  0  0  0  0  0  0  0
   59.1363   28.9785   50.3596 H   0  0  0  0  0  0  0  0  0  0  0  0
   58.2159   29.3155   52.6004 H   0  0  0  0  0  0  0  0  0  0  0  0
   59.5385   30.5329   52.2478 H   0  0  0  0  0  0  0  0  0  0  0  0
   56.7094   31.3352   51.7404 H   0  0  0  0  0  0  0  0  0  0  0  0
   57.3408   31.2076   53.4739 H   0  0  0  0  0  0  0  0  0  0  0  0
   57.3736   33.5100   52.4921 H   0  0  0  0  0  0  0  0  0  0  0  0
   58.9633   32.8344   53.1075 H   0  0  0  0  0  0  0  0  0  0  0  0
   58.7249   34.1752   50.7757 H   0  0  0  0  0  0  0  0  0  0  0  0
   59.9345   32.8564   51.0945 H   0  0  0  0  0  0  0  0  0  0  0  0
   57.2207   32.1274   49.9994 H   0  0  0  0  0  0  0  0  0  0  0  0
   58.4741   32.8350   48.8987 H   0  0  0  0  0  0  0  0  0  0  0  0
   58.7063   28.8803   47.0883 H   0  0  0  0  0  0  0  0  0  0  0  0
  1  2  1  0
  2  3  1  0
  3  4  1  0
  4  5  2  0
  4  6  1  0
  6  7  1  0
  7  8  1  0
  8  9  1  0
  9 10  1  0
 10 11  1  0
 11 12  1  0
  3 13  1  0
 13 14  1  0
 14 15  2  0
 15 16  1  0
 16 17  2  0
 16 18  1  0
 15 19  1  0
 19 20  2  0
 20 21  1  0
 12  6  1  0
 20 13  1  0
  1 22  1  0
  1 23  1  0
  1 24  1  0
  2 25  1  0
  2 26  1  0
  3 27  1  1
  7 28  1  0
  7 29  1  0
  8 30  1  0
  8 31  1  0
  9 32  1  0
  9 33  1  0
 10 34  1  0
 10 35  1  0
 11 36  1  0
 11 37  1  0
 12 38  1  0
 12 39  1  0
 14 40  1  0
M  CHG  2  16   1  18  -1
M  END
>  <UniqueID>  (5) 
5

>  <SMILES>  (5) 
CC[C@H](C(=O)N1CCCCCC1)n1cc([N+](=O)[O-])nc1Br

>  <Energy>  (5) 
72.01741516160554

>  <Genealogy>  (5) 
CC[C@H](C(=O)N1CCCCCC1)n1cc([N+](=O)[O-])nc1Br (chirality)
CC[C@H](C(=O)N1CCCCCC1)n1cc([N+](=O)[O-])nc1Br (3D coordinates assigned)
CC[C@H](C(=O)N1CCCCCC1)n1cc([N+](=O)[O-])nc1Br (nonaromatic ring conformer: 72.01741516160554 kcal/mol)

>  <smiles>  (5) 
CCC(C(=O)N1CCCCCC1)n1cc([N+](=O)[O-])nc1Br

>  <score_type>  (5) 
oracle

>  <origin>  (5) 
adg

>  <m_score__min__energy>  (5) 
-6.1799999999999997

>  <m_primary>  (5) 
energy

$$$$
5:0
     RDKit          3D

 57 60  0  0  1  0  0  0  0  0999 V2000
   63.3690   33.8700   46.4240 C   0  0  0  0  0  0  0  0  0  0  0  0
   62.8560   33.5040   47.7700 C   0  0  0  0  0  0  0  0  0  0  0  0
   61.5780   32.8560   47.8090 N   0  0  0  0  0  0  0  0  0  0  0  0
   61.5770   31.5300   47.2980 C   0  0  0  0  0  0  0  0  0  0  0  0
   60.6090   30.6740   48.0890 C   0  0  0  0  0  0  0  0  0  0  0  0
   60.7750   33.1060   48.9630 C   0  0  0  0  0  0  0  0  0  0  0  0
   60.4060   34.5820   48.9720 C   0  0  0  0  0  0  0  0  0  0  0  0
   59.3160   34.8740   48.0950 N   0  0  0  0  0  0  0  0  0  0  0  0
   58.9920   34.1650   46.9120 C   0  0  0  0  0  0  0  0  0  0  0  0
   59.2620   34.6670   45.6590 C   0  0  0  0  0  0  0  0  0  0  0  0
   58.9390   34.0260   44.4830 C   0  0  0  0  0  0  0  0  0  0  0  0
   58.3060   32.8090   44.5610 C   0  0  0  0  0  0  0  0  0  0  0  0
   57.8760   31.9700   43.6060 N   0  0  0  0  0  0  0  0  0  0  0  0
   57.3100   30.8960   44.1970 C   0  0  0  0  0  0  0  0  0  0  0  0
   56.6850   29.6990   43.5290 C   0  0  0  0  0  0  0  0  0  0  0  0
   57.6620   28.6450   43.4210 N   0  0  0  0  0  0  0  0  0  0  0  0
   58.4940   28.3230   44.3420 C   0  0  0  0  0  0  0  0  0  0  0  0
   59.7110   28.9390   44.4930 C   0  0  0  0  0  0  0  0  0  0  0  0
   60.5800   28.5940   45.4770 C   0  0  0  0  0  0  0  0  0  0  0  0
   60.2810   27.6110   46.3660 N   0  0  0  0  0  0  0  0  0  0  0  0
   59.1090   26.9860   46.2560 C   0  0  0  0  0  0  0  0  0  0  0  0
   58.7950   25.9940   47.1400 C   0  0  0  0  0  0  0  0  0  0  0  0
   57.5970   25.3070   47.0780 C   0  0  0  0  0  0  0  0  0  0  0  0
   57.2850   24.0400   48.2700 Cl  0  0  0  0  0  0  0  0  0  0  0  0
   56.6790   25.6220   46.0950 C   0  0  0  0  0  0  0  0  0  0  0  0
   56.9970   26.6200   45.2060 C   0  0  0  0  0  0  0  0  0  0  0  0
   58.1890   27.3150   45.2580 C   0  0  0  0  0  0  0  0  0  0  0  0
   57.3940   31.0740   45.5480 N   0  0  0  0  0  0  0  0  0  0  0  0
   58.0090   32.2550   45.7760 C   0  0  0  0  0  0  0  0  0  0  0  0
   58.3470   32.9250   46.9390 C   0  0  0  0  0  0  0  0  0  0  0  0
   64.2602   34.5058   46.5317 H   0  0  0  0  0  0  0  0  0  0  0  0
   63.6349   32.9564   45.8721 H   0  0  0  0  0  0  0  0  0  0  0  0
   62.5916   34.4187   45.8721 H   0  0  0  0  0  0  0  0  0  0  0  0
   63.5886   32.8281   48.2353 H   0  0  0  0  0  0  0  0  0  0  0  0
   62.7169   34.4580   48.2997 H   0  0  0  0  0  0  0  0  0  0  0  0
   61.2705   31.5463   46.2417 H   0  0  0  0  0  0  0  0  0  0  0  0
   62.5889   31.1074   47.3847 H   0  0  0  0  0  0  0  0  0  0  0  0
   60.7803   30.8255   49.1650 H   0  0  0  0  0  0  0  0  0  0  0  0
   59.5770   30.9603   47.8382 H   0  0  0  0  0  0  0  0  0  0  0  0
   60.7669   29.6147   47.8382 H   0  0  0  0  0  0  0  0  0  0  0  0
   59.8621   32.4938   48.9216 H   0  0  0  0  0  0  0  0  0  0  0  0
   61.3299   32.8466   49.8766 H   0  0  0  0  0  0  0  0  0  0  0  0
   60.1234   34.8697   49.9954 H   0  0  0  0  0  0  0  0  0  0  0  0
   61.2808   35.1497   48.6221 H   0  0  0  0  0  0  0  0  0  0  0  0
   58.6840   35.6870   48.3310 H   0  0  0  0  0  0  0  0  0  0  0  0
   59.7677   35.6416   45.5924 H   0  0  0  0  0  0  0  0  0  0  0  0
   59.1811   34.4760   43.5089 H   0  0  0  0  0  0  0  0  0  0  0  0
   57.9420   32.0830   42.5840 H   0  0  0  0  0  0  0  0  0  0  0  0
   55.8319   29.3483   44.1284 H   0  0  0  0  0  0  0  0  0  0  0  0
   56.3361   29.9801   42.5244 H   0  0  0  0  0  0  0  0  0  0  0  0
   59.9918   29.7396   43.7928 H   0  0  0  0  0  0  0  0  0  0  0  0
   61.5431   29.1194   45.5561 H   0  0  0  0  0  0  0  0  0  0  0  0
   60.9490   27.3460   47.1210 H   0  0  0  0  0  0  0  0  0  0  0  0
   59.5183   25.7331   47.9266 H   0  0  0  0  0  0  0  0  0  0  0  0
   55.7196   25.0883   46.0259 H   0  0  0  0  0  0  0  0  0  0  0  0
   56.2716   26.8762   44.4198 H   0  0  0  0  0  0  0  0  0  0  0  0
   58.1017   32.4699   47.9099 H   0  0  0  0  0  0  0  0  0  0  0  0
  1  2  1  0
  2  3  1  0
  3  4  1  0
  4  5  1  0
  3  6  1  0
  6  7  1  0
  7  8  1  0
  8  9  1  0
  9 10  2  0
 10 11  1  0
 11 12  2  0
 12 13  1  0
 13 14  1  0
 14 15  1  0
 15 16  1  0
 16 17  2  0
 17 18  1  0
 18 19  2  0
 19 20  1  0
 20 21  1  0
 21 22  2  0
 22 23  1  0
 23 24  1  0
 23 25  2  0
 25 26  1  0
 26 27  2  0
 14 28  2  0
 28 29  1  0
 29 30  2  0
 30  9  1  0
 29 12  1  0
 27 17  1  0
 27 21  1  0
  1 31  1  0
  1 32  1  0
  1 33  1  0
  2 34  1  0
  2 35  1  0
  4 36  1  0
  4 37  1  0
  5 38  1  0
  5 39  1  0
  5 40  1  0
  6 41  1  0
  6 42  1  0
  7 43  1  0
  7 44  1  0
  8 45  1  0
 10 46  1  0
 11 47  1  0
 13 48  1  0
 15 49  1  0
 15 50  1  0
 18 51  1  0
 19 52  1  0
 20 53  1  0
 22 54  1  0
 25 55  1  0
 26 56  1  0
 30 57  1  0
M  END
>  <smiles>  (6) 
CCN(CC)CCNc1ccc2[nH]c(CN=c3cc[nH]c4cc(Cl)ccc34)nc2c1

>  <score_type>  (6) 
oracle

>  <origin>  (6) 
adg

>  <m_score__min__energy>  (6) 
-8.5299999999999994

>  <m_primary>  (6) 
energy

$$$$
6:0
     RDKit          3D

 26 27  0  0  0  0  0  0  0  0999 V2000
   58.5071   26.0206   42.2014 H   0  0  0  0  0  0  0  0  0  0  0  0
   58.1330   26.9730   42.6050 C   0  0  0  0  0  0  0  0  0  0  0  0
   57.9177   27.8113   41.9261 H   0  0  0  0  0  0  0  0  0  0  0  0
   57.9410   27.1110   43.9140 C   0  0  0  0  0  0  0  0  0  0  0  0
   58.1594   26.2665   44.5841 H   0  0  0  0  0  0  0  0  0  0  0  0
   57.4410   28.3750   44.4820 C   0  0  0  0  0  0  0  0  0  0  0  0
   57.4220   28.5108   45.5734 H   0  0  0  0  0  0  0  0  0  0  0  0
   57.0100   29.3590   43.6860 C   0  0  0  0  0  0  0  0  0  0  0  0
   56.2179   29.1380   42.9555 H   0  0  0  0  0  0  0  0  0  0  0  0
   57.5400   30.6950   43.7460 N   0  0  0  0  0  0  0  0  0  0  0  0
   57.8990   31.4300   44.8200 C   0  0  0  0  0  0  0  0  0  0  0  0
   57.8240   31.0830   46.1240 N   0  0  0  0  0  0  0  0  0  0  0  0
   58.1970   31.9990   47.0650 C   0  0  0  0  0  0  0  0  0  0  0  0
   58.1526   31.7286   48.1303 H   0  0  0  0  0  0  0  0  0  0  0  0
   58.6290   33.2590   46.7020 N   0  0  0  0  0  0  0  0  0  0  0  0
   59.0150   34.2070   47.7580 C   0  0  0  0  0  0  0  0  0  0  0  0
   58.8304   33.7537   48.7431 H   0  0  0  0  0  0  0  0  0  0  0  0
   60.0835   34.4495   47.6604 H   0  0  0  0  0  0  0  0  0  0  0  0
   58.4198   35.1269   47.6604 H   0  0  0  0  0  0  0  0  0  0  0  0
   58.6770   33.6180   45.3690 C   0  0  0  0  0  0  0  0  0  0  0  0
   59.1500   35.1170   44.8770 S   0  0  0  0  0  0  0  0  0  0  0  0
   58.2980   32.6670   44.4270 C   0  0  0  0  0  0  0  0  0  0  0  0
   58.1680   32.6780   43.0500 C   0  0  0  0  0  0  0  0  0  0  0  0
   58.4042   33.5191   42.3816 H   0  0  0  0  0  0  0  0  0  0  0  0
   57.6970   31.4650   42.6740 N   0  0  0  0  0  0  0  0  0  0  0  0
   57.4810   31.1730   41.6940 H   0  0  0  0  0  0  0  0  0  0  0  0
  1  2  1  0
  2  3  1  0
  2  4  2  0
  4  5  1  0
  4  6  1  0
  6  7  1  0
  6  8  2  0
  8  9  1  0
  8 10  1  0
 10 11  1  0
 11 12  1  0
 12 13  2  0
 13 14  1  0
 13 15  1  0
 15 16  1  0
 16 17  1  0
 16 18  1  0
 16 19  1  0
 15 20  1  0
 20 21  2  0
 20 22  1  0
 22 23  1  0
 23 24  1  0
 23 25  2  0
 25 26  1  0
 25 10  1  0
 22 11  2  0
M  CHG  1  25   1
M  END
>  <UniqueID>  (7) 
6

>  <SMILES>  (7) 
C=C/C=C/n1[nH+]cc2c(=S)n(C)cnc21

>  <Energy>  (7) 
71.50333391708818

>  <Genealogy>  (7) 
C=CC=Cn1[nH+]cc2c(=S)n(C)cnc21 (protonated)
C=C/C=C/n1[nH+]cc2c(=S)n(C)cnc21 (cis-trans isomerization)
C=C/C=C/n1[nH+]cc2c(=S)n(C)cnc21 (3D coordinates assigned)
C=C/C=C/n1[nH+]cc2c(=S)n(C)cnc21 (optimized conformer: 71.50333391708818 kcal/mol)

>  <smiles>  (7) 
C=CC=Cn1ncc2c(=S)n(C)cnc21

>  <score_type>  (7) 
oracle

>  <origin>  (7) 
adg

>  <m_score__min__energy>  (7) 
-4.0499999999999998

>  <m_primary>  (7) 
energy

$$$$
7:0
     RDKit          3D

 43 43  0  0  0  0  0  0  0  0999 V2000
   58.8790   30.2010   50.0260 C   0  0  0  0  0  0  0  0  0  0  0  0
   59.6770   29.2640   49.1150 C   0  0  0  0  0  0  0  0  0  0  0  0
   59.2030   29.3100   47.6400 C   0  0  0  0  0  0  0  0  0  0  0  0
   60.3850   29.6350   46.6920 C   0  0  0  0  0  0  0  0  0  0  0  0
   61.1580   30.8880   47.1120 C   0  0  0  0  0  0  0  0  0  0  0  0
   58.5540   27.9580   47.2380 C   0  0  0  0  0  0  0  0  0  0  0  0
   57.3870   28.1310   46.3550 N   0  0  0  0  0  0  0  0  0  0  0  0
   57.3880   27.2690   45.1590 C   0  0  0  0  0  0  0  0  0  0  0  0
   57.7660   28.0180   43.8560 C   0  0  0  0  0  0  0  0  0  0  0  0
   58.3410   29.3490   44.1120 N   0  0  0  0  0  0  0  0  0  0  0  0
   57.1090   30.5790   44.1350 S   0  0  0  0  0  0  0  0  0  0  0  0
   56.7190   30.9400   42.7290 O   0  0  0  0  0  0  0  0  0  0  0  0
   55.9040   30.0670   44.8710 O   0  0  0  0  0  0  0  0  0  0  0  0
   57.7220   32.0140   44.9530 C   0  0  0  0  0  0  0  0  0  0  0  0
   58.1630   33.1200   44.2110 C   0  0  0  0  0  0  0  0  0  0  0  0
   58.6410   34.2590   44.8660 C   0  0  0  0  0  0  0  0  0  0  0  0
   58.6860   34.2970   46.2630 C   0  0  0  0  0  0  0  0  0  0  0  0
   59.1460   35.4040   46.8970 F   0  0  0  0  0  0  0  0  0  0  0  0
   58.2560   33.1940   47.0060 C   0  0  0  0  0  0  0  0  0  0  0  0
   57.7770   32.0530   46.3530 C   0  0  0  0  0  0  0  0  0  0  0  0
   59.0880   29.9556   51.0777 H   0  0  0  0  0  0  0  0  0  0  0  0
   59.1717   31.2426   49.8274 H   0  0  0  0  0  0  0  0  0  0  0  0
   57.8041   30.0779   49.8274 H   0  0  0  0  0  0  0  0  0  0  0  0
   60.7368   29.5563   49.1525 H   0  0  0  0  0  0  0  0  0  0  0  0
   59.5226   28.2378   49.4798 H   0  0  0  0  0  0  0  0  0  0  0  0
   58.4515   30.1078   47.5465 H   0  0  0  0  0  0  0  0  0  0  0  0
   61.0773   28.7802   46.6883 H   0  0  0  0  0  0  0  0  0  0  0  0
   59.9647   29.8255   45.6935 H   0  0  0  0  0  0  0  0  0  0  0  0
   61.1938   30.9460   48.2099 H   0  0  0  0  0  0  0  0  0  0  0  0
   62.1822   30.8376   46.7139 H   0  0  0  0  0  0  0  0  0  0  0  0
   60.6534   31.7807   46.7139 H   0  0  0  0  0  0  0  0  0  0  0  0
   59.3050   27.3484   46.7142 H   0  0  0  0  0  0  0  0  0  0  0  0
   58.2055   27.4683   48.1593 H   0  0  0  0  0  0  0  0  0  0  0  0
   57.3520   29.1310   46.0440 H   0  0  0  0  0  0  0  0  0  0  0  0
   58.1129   26.4567   45.3162 H   0  0  0  0  0  0  0  0  0  0  0  0
   56.3619   26.8942   45.0301 H   0  0  0  0  0  0  0  0  0  0  0  0
   58.5038   27.4159   43.3054 H   0  0  0  0  0  0  0  0  0  0  0  0
   56.8428   28.1610   43.2753 H   0  0  0  0  0  0  0  0  0  0  0  0
   59.0250   29.6050   43.3670 H   0  0  0  0  0  0  0  0  0  0  0  0
   58.1326   33.0910   43.1118 H   0  0  0  0  0  0  0  0  0  0  0  0
   58.9821   35.1263   44.2816 H   0  0  0  0  0  0  0  0  0  0  0  0
   58.2942   33.2230   48.1050 H   0  0  0  0  0  0  0  0  0  0  0  0
   57.4428   31.1846   46.9397 H   0  0  0  0  0  0  0  0  0  0  0  0
  1  2  1  0
  2  3  1  0
  3  4  1  0
  4  5  1  0
  3  6  1  0
  6  7  1  0
  7  8  1  0
  8  9  1  0
  9 10  1  0
 10 11  1  0
 11 12  2  0
 11 13  2  0
 11 14  1  0
 14 15  2  0
 15 16  1  0
 16 17  2  0
 17 18  1  0
 17 19  1  0
 19 20  2  0
 20 14  1  0
  1 21  1  0
  1 22  1  0
  1 23  1  0
  2 24  1  0
  2 25  1  0
  3 26  1  0
  4 27  1  0
  4 28  1  0
  5 29  1  0
  5 30  1  0
  5 31  1  0
  6 32  1  0
  6 33  1  0
  7 34  1  0
  8 35  1  0
  8 36  1  0
  9 37  1  0
  9 38  1  0
 10 39  1  0
 15 40  1  0
 16 41  1  0
 19 42  1  0
 20 43  1  0
M  END
>  <UniqueID>  (8) 
7

>  <SMILES>  (8) 
CCC(CC)CNCCNS(=O)(=O)c1ccc(F)cc1

>  <Energy>  (8) 
36.37051515092218

>  <Genealogy>  (8) 
CCC(CC)CNCCNS(=O)(=O)c1ccc(F)cc1 (3D coordinates assigned)
CCC(CC)CNCCNS(=O)(=O)c1ccc(F)cc1 (optimized conformer: 36.37051515092218 kcal/mol)

>  <smiles>  (8) 
CCC(CC)CNCCNS(=O)(=O)c1ccc(F)cc1

>  <score_type>  (8) 
oracle

>  <origin>  (8) 
adg

>  <m_score__min__energy>  (8) 
-7.1200000000000001

>  <m_primary>  (8) 
energy

$$$$
8:0
     RDKit          3D

 27 28  0  0  0  0  0  0  0  0999 V2000
   55.8990   29.4550   42.6970 O   0  0  0  0  0  0  0  0  0  0  0  0
   56.1680   29.7240   43.8970 C   0  0  0  0  0  0  0  0  0  0  0  0
   55.7650   28.8020   44.9200 N   0  0  0  0  0  0  0  0  0  0  0  0
   56.6310   27.8200   45.5730 C   0  0  0  0  0  0  0  0  0  0  0  0
   58.0490   28.3210   45.6450 C   0  0  0  0  0  0  0  0  0  0  0  0
   58.9200   28.1290   44.5600 C   0  0  0  0  0  0  0  0  0  0  0  0
   60.2290   28.6170   44.6120 C   0  0  0  0  0  0  0  0  0  0  0  0
   60.6780   29.2980   45.7470 C   0  0  0  0  0  0  0  0  0  0  0  0
   59.8200   29.4890   46.8330 C   0  0  0  0  0  0  0  0  0  0  0  0
   58.5110   29.0000   46.7860 C   0  0  0  0  0  0  0  0  0  0  0  0
   56.9270   30.9470   44.2000 C   0  0  0  0  0  0  0  0  0  0  0  0
   57.0420   31.3550   45.4930 N   0  0  0  0  0  0  0  0  0  0  0  0
   57.7190   32.4870   45.8140 C   0  0  0  0  0  0  0  0  0  0  0  0
   58.3160   33.2470   44.8100 C   0  0  0  0  0  0  0  0  0  0  0  0
   59.2670   34.8490   45.2310 Br  0  0  0  0  0  0  0  0  0  0  0  0
   58.2110   32.8060   43.4910 C   0  0  0  0  0  0  0  0  0  0  0  0
   57.5270   31.6650   43.2080 N   0  0  0  0  0  0  0  0  0  0  0  0
   56.2617   27.6351   46.5925 H   0  0  0  0  0  0  0  0  0  0  0  0
   56.6152   26.8903   44.9853 H   0  0  0  0  0  0  0  0  0  0  0  0
   58.5707   27.5924   43.6656 H   0  0  0  0  0  0  0  0  0  0  0  0
   60.9064   28.4649   43.7587 H   0  0  0  0  0  0  0  0  0  0  0  0
   61.7074   29.6838   45.7852 H   0  0  0  0  0  0  0  0  0  0  0  0
   60.1747   30.0246   47.7259 H   0  0  0  0  0  0  0  0  0  0  0  0
   57.8400   29.1471   47.6451 H   0  0  0  0  0  0  0  0  0  0  0  0
   57.7962   32.8038   46.8646 H   0  0  0  0  0  0  0  0  0  0  0  0
   58.6813   33.3809   42.6797 H   0  0  0  0  0  0  0  0  0  0  0  0
   57.4900   31.3330   42.2190 H   0  0  0  0  0  0  0  0  0  0  0  0
  1  2  2  0
  2  3  1  0
  3  4  1  0
  4  5  1  0
  5  6  2  0
  6  7  1  0
  7  8  2  0
  8  9  1  0
  9 10  2  0
  2 11  1  0
 11 12  2  0
 12 13  1  0
 13 14  2  0
 14 15  1  0
 14 16  1  0
 16 17  2  0
 10  5  1  0
 17 11  1  0
  4 18  1  0
  4 19  1  0
  6 20  1  0
  7 21  1  0
  8 22  1  0
  9 23  1  0
 10 24  1  0
 13 25  1  0
 16 26  1  0
 17 27  1  0
M  CHG  2   3  -1  17   1
M  END
>  <UniqueID>  (9) 
8

>  <SMILES>  (9) 
O=C([N-]Cc1ccccc1)c1ncc(Br)c[nH+]1

>  <Energy>  (9) 
29.726500055491538

>  <Genealogy>  (9) 
O=C([N-]Cc1ccccc1)c1ncc(Br)c[nH+]1 (protonated)
O=C([N-]Cc1ccccc1)c1ncc(Br)c[nH+]1 (3D coordinates assigned)
O=C([N-]Cc1ccccc1)c1ncc(Br)c[nH+]1 (optimized conformer: 29.726500055491538 kcal/mol)

>  <smiles>  (9) 
O=C(NCc1ccccc1)c1ncc(Br)cn1

>  <score_type>  (9) 
oracle

>  <origin>  (9) 
adg

>  <m_score__min__energy>  (9) 
-6.9100000000000001

>  <m_primary>  (9) 
energy

$$$$
9:0
     RDKit          3D

 52 56  0  0  0  0  0  0  0  0999 V2000
   64.0630   33.3150   48.0490 C   0  0  0  0  0  0  0  0  0  0  0  0
   62.7740   33.7330   47.6140 O   0  0  0  0  0  0  0  0  0  0  0  0
   61.7230   32.8590   47.3000 C   0  0  0  0  0  0  0  0  0  0  0  0
   60.3910   33.2970   47.1600 C   0  0  0  0  0  0  0  0  0  0  0  0
   59.3770   32.3840   46.8510 C   0  0  0  0  0  0  0  0  0  0  0  0
   59.6790   31.0260   46.6700 C   0  0  0  0  0  0  0  0  0  0  0  0
   58.6020   30.0510   46.3960 C   0  0  0  0  0  0  0  0  0  0  0  0
   57.5790   30.2000   45.4530 C   0  0  0  0  0  0  0  0  0  0  0  0
   57.3690   31.3240   44.5110 C   0  0  0  0  0  0  0  0  0  0  0  0
   56.6450   32.3000   44.8490 O   0  0  0  0  0  0  0  0  0  0  0  0
   58.0000   31.3020   43.1430 C   0  0  0  0  0  0  0  0  0  0  0  0
   57.1080   31.6460   41.9560 C   0  0  0  0  0  0  0  0  0  0  0  0
   58.0870   32.6730   42.4910 C   0  0  0  0  0  0  0  0  0  0  0  0
   56.8200   29.0440   45.5440 C   0  0  0  0  0  0  0  0  0  0  0  0
   55.6910   28.7280   44.7910 O   0  0  0  0  0  0  0  0  0  0  0  0
   57.3920   28.2530   46.5120 C   0  0  0  0  0  0  0  0  0  0  0  0
   56.9080   27.0160   46.9220 O   0  0  0  0  0  0  0  0  0  0  0  0
   58.4780   28.8580   47.0340 N   0  0  0  0  0  0  0  0  0  0  0  0
   59.2790   28.3540   48.1190 C   0  0  0  0  0  0  0  0  0  0  0  0
   59.3770   29.0700   49.3200 C   0  0  0  0  0  0  0  0  0  0  0  0
   60.1590   28.5850   50.3730 C   0  0  0  0  0  0  0  0  0  0  0  0
   60.8570   27.3740   50.2410 C   0  0  0  0  0  0  0  0  0  0  0  0
   61.6920   26.8640   51.3500 C   0  0  0  0  0  0  0  0  0  0  0  0
   61.9260   25.5550   51.5750 N   0  0  0  0  0  0  0  0  0  0  0  0
   62.7030   25.5250   52.6130 O   0  0  0  0  0  0  0  0  0  0  0  0
   62.9450   26.7470   53.0150 C   0  0  0  0  0  0  0  0  0  0  0  0
   63.7840   27.0900   54.1970 C   0  0  0  0  0  0  0  0  0  0  0  0
   62.3180   27.6580   52.2460 N   0  0  0  0  0  0  0  0  0  0  0  0
   60.7600   26.6590   49.0370 C   0  0  0  0  0  0  0  0  0  0  0  0
   59.9840   27.1490   47.9830 C   0  0  0  0  0  0  0  0  0  0  0  0
   61.0050   30.5910   46.8090 C   0  0  0  0  0  0  0  0  0  0  0  0
   62.0170   31.5020   47.1220 C   0  0  0  0  0  0  0  0  0  0  0  0
   64.0936   33.3051   49.1485 H   0  0  0  0  0  0  0  0  0  0  0  0
   64.2688   32.3041   47.6673 H   0  0  0  0  0  0  0  0  0  0  0  0
   64.8229   34.0128   47.6673 H   0  0  0  0  0  0  0  0  0  0  0  0
   60.1475   34.3613   47.2942 H   0  0  0  0  0  0  0  0  0  0  0  0
   58.3386   32.7324   46.7495 H   0  0  0  0  0  0  0  0  0  0  0  0
   58.6882   30.4720   43.3608 H   0  0  0  0  0  0  0  0  0  0  0  0
   57.2862   31.1731   40.9789 H   0  0  0  0  0  0  0  0  0  0  0  0
   56.0245   31.6291   41.7667 H   0  0  0  0  0  0  0  0  0  0  0  0
   58.9745   32.9454   41.9010 H   0  0  0  0  0  0  0  0  0  0  0  0
   58.0060   33.7098   42.8496 H   0  0  0  0  0  0  0  0  0  0  0  0
   55.1470   27.8960   44.9890 H   0  0  0  0  0  0  0  0  0  0  0  0
   58.8349   30.0202   49.4350 H   0  0  0  0  0  0  0  0  0  0  0  0
   60.2277   29.1559   51.3107 H   0  0  0  0  0  0  0  0  0  0  0  0
   63.2288   26.8630   55.1190 H   0  0  0  0  0  0  0  0  0  0  0  0
   64.7113   26.4988   54.1724 H   0  0  0  0  0  0  0  0  0  0  0  0
   64.0315   28.1615   54.1724 H   0  0  0  0  0  0  0  0  0  0  0  0
   61.2984   25.7066   48.9223 H   0  0  0  0  0  0  0  0  0  0  0  0
   59.9257   26.5857   47.0400 H   0  0  0  0  0  0  0  0  0  0  0  0
   61.2495   29.5274   46.6709 H   0  0  0  0  0  0  0  0  0  0  0  0
   63.0536   31.1499   47.2295 H   0  0  0  0  0  0  0  0  0  0  0  0
  1  2  1  0
  2  3  1  0
  3  4  2  0
  4  5  1  0
  5  6  2  0
  6  7  1  0
  7  8  2  0
  8  9  1  0
  9 10  2  0
  9 11  1  0
 11 12  1  0
 12 13  1  0
  8 14  1  0
 14 15  1  0
 14 16  2  0
 16 17  1  0
 16 18  1  0
 18 19  1  0
 19 20  2  0
 20 21  1  0
 21 22  2  0
 22 23  1  0
 23 24  2  0
 24 25  1  0
 25 26  1  0
 26 27  1  0
 26 28  2  0
 22 29  1  0
 29 30  2  0
  6 31  1  0
 31 32  2  0
 32  3  1  0
 18  7  1  0
 30 19  1  0
 13 11  1  0
 28 23  1  0
  1 33  1  0
  1 34  1  0
  1 35  1  0
  4 36  1  0
  5 37  1  0
 11 38  1  0
 12 39  1  0
 12 40  1  0
 13 41  1  0
 13 42  1  0
 15 43  1  0
 20 44  1  0
 21 45  1  0
 27 46  1  0
 27 47  1  0
 27 48  1  0
 29 49  1  0
 30 50  1  0
 31 51  1  0
 32 52  1  0
M  CHG  1  17  -1
M  END
>  <UniqueID>  (10) 
9

>  <SMILES>  (10) 
COc1ccc(-c2c(C(=O)C3CC3)c(O)c([O-])n2-c2ccc(-c3noc(C)n3)cc2)cc1

>  <Energy>  (10) 
393.1689311077651

>  <Genealogy>  (10) 
COc1ccc(-c2c(C(=O)C3CC3)c(O)c([O-])n2-c2ccc(-c3noc(C)n3)cc2)cc1 (protonated)
COc1ccc(-c2c(C(=O)C3CC3)c(O)c([O-])n2-c2ccc(-c3noc(C)n3)cc2)cc1 (3D coordinates assigned)
COc1ccc(-c2c(C(=O)C3CC3)c(O)c([O-])n2-c2ccc(-c3noc(C)n3)cc2)cc1 (nonaromatic ring conformer: 393.1689311077651 kcal/mol)

>  <smiles>  (10) 
COc1ccc(-c2c(C(=O)C3CC3)c(O)c(O)n2-c2ccc(-c3noc(C)n3)cc2)cc1

>  <score_type>  (10) 
oracle

>  <origin>  (10) 
adg

>  <m_score__min__energy>  (10) 
-9.3699999999999992

>  <m_primary>  (10) 
energy

$$$$
10:0
     RDKit          3D

 47 48  0  0  0  0  0  0  0  0999 V2000
   58.1160   27.1970   43.3500 C   0  0  0  0  0  0  0  0  0  0  0  0
   58.3170   27.7580   44.7300 C   0  0  0  0  0  0  0  0  0  0  0  0
   59.1250   27.0770   45.6560 C   0  0  0  0  0  0  0  0  0  0  0  0
   59.3160   27.5930   46.9400 C   0  0  0  0  0  0  0  0  0  0  0  0
   60.3270   26.7350   48.0900 Cl  0  0  0  0  0  0  0  0  0  0  0  0
   58.7030   28.7920   47.3090 C   0  0  0  0  0  0  0  0  0  0  0  0
   57.8980   29.4790   46.3970 C   0  0  0  0  0  0  0  0  0  0  0  0
   57.6970   28.9690   45.0990 C   0  0  0  0  0  0  0  0  0  0  0  0
   56.8930   29.6320   44.1570 O   0  0  0  0  0  0  0  0  0  0  0  0
   56.6840   31.0420   44.1210 C   0  0  0  0  0  0  0  0  0  0  0  0
   57.8570   31.7070   43.3930 C   0  0  0  0  0  0  0  0  0  0  0  0
   58.2380   32.9940   43.9960 N   0  0  0  0  0  0  0  0  0  0  0  0
   58.2290   32.9480   45.4640 C   0  0  0  0  0  0  0  0  0  0  0  0
   59.1350   34.0410   46.0330 C   0  0  0  0  0  0  0  0  0  0  0  0
   59.8670   33.5510   47.2100 N   0  0  0  0  0  0  0  0  0  0  0  0
   61.0230   34.3110   47.7160 C   0  0  0  0  0  0  0  0  0  0  0  0
   62.3710   33.7780   47.1830 C   0  0  0  0  0  0  0  0  0  0  0  0
   62.7050   32.3180   47.5440 C   0  0  0  0  0  0  0  0  0  0  0  0
   61.6400   31.2930   47.1060 C   0  0  0  0  0  0  0  0  0  0  0  0
   60.4050   31.1820   48.0240 C   0  0  0  0  0  0  0  0  0  0  0  0
   59.4540   32.3400   47.8840 C   0  0  0  0  0  0  0  0  0  0  0  0
   58.2850   32.2310   48.3410 O   0  0  0  0  0  0  0  0  0  0  0  0
   57.7458   26.1638   43.4245 H   0  0  0  0  0  0  0  0  0  0  0  0
   57.3820   27.8113   42.8078 H   0  0  0  0  0  0  0  0  0  0  0  0
   59.0731   27.2054   42.8078 H   0  0  0  0  0  0  0  0  0  0  0  0
   59.6098   26.1324   45.3683 H   0  0  0  0  0  0  0  0  0  0  0  0
   58.8543   29.1968   48.3206 H   0  0  0  0  0  0  0  0  0  0  0  0
   57.4184   30.4234   46.6939 H   0  0  0  0  0  0  0  0  0  0  0  0
   55.7476   31.2616   43.5872 H   0  0  0  0  0  0  0  0  0  0  0  0
   56.6173   31.4320   45.1474 H   0  0  0  0  0  0  0  0  0  0  0  0
   58.7236   31.0304   43.4288 H   0  0  0  0  0  0  0  0  0  0  0  0
   57.5398   31.9037   42.3583 H   0  0  0  0  0  0  0  0  0  0  0  0
   59.1960   33.2620   43.6670 H   0  0  0  0  0  0  0  0  0  0  0  0
   57.2018   33.1027   45.8260 H   0  0  0  0  0  0  0  0  0  0  0  0
   58.6001   31.9666   45.7943 H   0  0  0  0  0  0  0  0  0  0  0  0
   59.8565   34.3492   45.2620 H   0  0  0  0  0  0  0  0  0  0  0  0
   58.5108   34.8946   46.3358 H   0  0  0  0  0  0  0  0  0  0  0  0
   60.9144   35.3616   47.4086 H   0  0  0  0  0  0  0  0  0  0  0  0
   61.0350   34.2047   48.8108 H   0  0  0  0  0  0  0  0  0  0  0  0
   62.3561   33.8594   46.0861 H   0  0  0  0  0  0  0  0  0  0  0  0
   63.1464   34.3901   47.6668 H   0  0  0  0  0  0  0  0  0  0  0  0
   63.6566   32.0532   47.0600 H   0  0  0  0  0  0  0  0  0  0  0  0
   62.7537   32.2698   48.6419 H   0  0  0  0  0  0  0  0  0  0  0  0
   61.2911   31.5755   46.1018 H   0  0  0  0  0  0  0  0  0  0  0  0
   62.1335   30.3107   47.1450 H   0  0  0  0  0  0  0  0  0  0  0  0
   59.8666   30.2558   47.7746 H   0  0  0  0  0  0  0  0  0  0  0  0
   60.7691   31.1827   49.0620 H   0  0  0  0  0  0  0  0  0  0  0  0
  1  2  1  0
  2  3  2  0
  3  4  1  0
  4  5  1  0
  4  6  2  0
  6  7  1  0
  7  8  2  0
  8  9  1  0
  9 10  1  0
 10 11  1  0
 11 12  1  0
 12 13  1  0
 13 14  1  0
 14 15  1  0
 15 16  1  0
 16 17  1  0
 17 18  1  0
 18 19  1  0
 19 20  1  0
 20 21  1  0
 21 22  2  0
  8  2  1  0
 21 15  1  0
  1 23  1  0
  1 24  1  0
  1 25  1  0
  3 26  1  0
  6 27  1  0
  7 28  1  0
 10 29  1  0
 10 30  1  0
 11 31  1  0
 11 32  1  0
 12 33  1  0
 13 34  1  0
 13 35  1  0
 14 36  1  0
 14 37  1  0
 16 38  1  0
 16 39  1  0
 17 40  1  0
 17 41  1  0
 18 42  1  0
 18 43  1  0
 19 44  1  0
 19 45  1  0
 20 46  1  0
 20 47  1  0
M  END
>  <UniqueID>  (11) 
10

>  <SMILES>  (11) 
Cc1cc(Cl)ccc1OCCNCCN1CCCCCC1=O

>  <Energy>  (11) 
43.075782486938046

>  <Genealogy>  (11) 
Cc1cc(Cl)ccc1OCCNCCN1CCCCCC1=O (3D coordinates assigned)
Cc1cc(Cl)ccc1OCCNCCN1CCCCCC1=O (nonaromatic ring conformer: 43.075782486938046 kcal/mol)

>  <smiles>  (11) 
Cc1cc(Cl)ccc1OCCNCCN1CCCCCC1=O

>  <score_type>  (11) 
oracle

>  <origin>  (11) 
adg

>  <m_score__min__energy>  (11) 
-4.7000000000000002

>  <m_primary>  (11) 
energy

$$$$
11:0
     RDKit          3D

 58 61  0  0  0  0  0  0  0  0999 V2000
   57.1800   32.6510   40.4880 C   0  0  0  0  0  0  0  0  0  0  0  0
   56.9840   31.5770   41.4050 O   0  0  0  0  0  0  0  0  0  0  0  0
   57.3980   31.5910   42.7470 C   0  0  0  0  0  0  0  0  0  0  0  0
   57.0650   30.5640   43.6540 C   0  0  0  0  0  0  0  0  0  0  0  0
   57.5270   30.6110   44.9740 C   0  0  0  0  0  0  0  0  0  0  0  0
   58.3230   31.6800   45.4090 C   0  0  0  0  0  0  0  0  0  0  0  0
   58.8610   31.6890   46.7410 N   0  0  0  0  0  0  0  0  0  0  0  0
   59.2810   30.6140   47.4530 C   0  0  0  0  0  0  0  0  0  0  0  0
   59.3100   29.2100   46.9750 C   0  0  0  0  0  0  0  0  0  0  0  0
   60.3120   28.7980   46.0780 C   0  0  0  0  0  0  0  0  0  0  0  0
   60.3630   27.4750   45.6290 C   0  0  0  0  0  0  0  0  0  0  0  0
   59.4120   26.5550   46.0600 C   0  0  0  0  0  0  0  0  0  0  0  0
   59.4670   25.2730   45.6230 F   0  0  0  0  0  0  0  0  0  0  0  0
   58.4020   26.9590   46.9350 C   0  0  0  0  0  0  0  0  0  0  0  0
   58.3440   28.2820   47.3860 C   0  0  0  0  0  0  0  0  0  0  0  0
   59.6510   31.0070   48.7250 C   0  0  0  0  0  0  0  0  0  0  0  0
   59.4380   32.3680   48.7960 C   0  0  0  0  0  0  0  0  0  0  0  0
   59.6510   33.2150   50.0260 C   0  0  0  0  0  0  0  0  0  0  0  0
   61.0390   33.7340   50.1320 N   0  0  0  0  0  0  0  0  0  0  0  0
   61.9650   32.7580   50.7770 C   0  0  0  0  0  0  0  0  0  0  0  0
   62.6130   31.8120   49.7550 C   0  0  0  0  0  0  0  0  0  0  0  0
   63.4100   32.5430   48.7400 N   0  0  0  0  0  0  0  0  0  0  0  0
   63.3640   31.8380   47.4490 C   0  0  0  0  0  0  0  0  0  0  0  0
   63.0230   33.9660   48.5960 C   0  0  0  0  0  0  0  0  0  0  0  0
   61.5120   34.1750   48.7880 C   0  0  0  0  0  0  0  0  0  0  0  0
   58.9460   32.7630   47.5600 C   0  0  0  0  0  0  0  0  0  0  0  0
   58.5470   34.1590   47.1690 C   0  0  0  0  0  0  0  0  0  0  0  0
   58.6390   32.7140   44.5140 C   0  0  0  0  0  0  0  0  0  0  0  0
   58.1780   32.6670   43.1920 C   0  0  0  0  0  0  0  0  0  0  0  0
   57.3502   33.5834   41.0463 H   0  0  0  0  0  0  0  0  0  0  0  0
   58.0541   32.4379   39.8551 H   0  0  0  0  0  0  0  0  0  0  0  0
   56.2870   32.7604   39.8551 H   0  0  0  0  0  0  0  0  0  0  0  0
   56.4393   29.7222   43.3225 H   0  0  0  0  0  0  0  0  0  0  0  0
   57.2641   29.8046   45.6744 H   0  0  0  0  0  0  0  0  0  0  0  0
   61.0615   29.5226   45.7269 H   0  0  0  0  0  0  0  0  0  0  0  0
   61.1558   27.1609   44.9342 H   0  0  0  0  0  0  0  0  0  0  0  0
   57.6474   26.2329   47.2718 H   0  0  0  0  0  0  0  0  0  0  0  0
   57.5374   28.5947   48.0655 H   0  0  0  0  0  0  0  0  0  0  0  0
   60.0398   30.3603   49.5254 H   0  0  0  0  0  0  0  0  0  0  0  0
   58.9581   34.0685   49.9897 H   0  0  0  0  0  0  0  0  0  0  0  0
   59.4667   32.5781   50.9037 H   0  0  0  0  0  0  0  0  0  0  0  0
   61.0170   34.5840   50.7480 H   0  0  0  0  0  0  0  0  0  0  0  0
   62.7584   33.3135   51.2985 H   0  0  0  0  0  0  0  0  0  0  0  0
   61.3775   32.1471   51.4782 H   0  0  0  0  0  0  0  0  0  0  0  0
   63.2744   31.1136   50.2887 H   0  0  0  0  0  0  0  0  0  0  0  0
   61.8065   31.2788   49.2304 H   0  0  0  0  0  0  0  0  0  0  0  0
   63.2933   30.7545   47.6252 H   0  0  0  0  0  0  0  0  0  0  0  0
   62.4859   32.1747   46.8784 H   0  0  0  0  0  0  0  0  0  0  0  0
   64.2784   32.0578   46.8784 H   0  0  0  0  0  0  0  0  0  0  0  0
   63.5620   34.5585   49.3500 H   0  0  0  0  0  0  0  0  0  0  0  0
   63.2832   34.2870   47.5766 H   0  0  0  0  0  0  0  0  0  0  0  0
   61.2862   35.2449   48.6685 H   0  0  0  0  0  0  0  0  0  0  0  0
   60.9925   33.5645   48.0347 H   0  0  0  0  0  0  0  0  0  0  0  0
   58.3756   34.7587   48.0751 H   0  0  0  0  0  0  0  0  0  0  0  0
   59.3503   34.6166   46.5729 H   0  0  0  0  0  0  0  0  0  0  0  0
   57.6232   34.1230   46.5729 H   0  0  0  0  0  0  0  0  0  0  0  0
   59.2504   33.5638   44.8517 H   0  0  0  0  0  0  0  0  0  0  0  0
   58.4304   33.4816   42.4972 H   0  0  0  0  0  0  0  0  0  0  0  0
  1  2  1  0
  2  3  1  0
  3  4  2  0
  4  5  1  0
  5  6  2  0
  6  7  1  0
  7  8  1  0
  8  9  1  0
  9 10  2  0
 10 11  1  0
 11 12  2  0
 12 13  1  0
 12 14  1  0
 14 15  2  0
  8 16  2  0
 16 17  1  0
 17 18  1  0
 18 19  1  0
 19 20  1  0
 20 21  1  0
 21 22  1  0
 22 23  1  0
 22 24  1  0
 24 25  1  0
 17 26  2  0
 26 27  1  0
  6 28  1  0
 28 29  2  0
 29  3  1  0
 26  7  1  0
 15  9  1  0
 25 19  1  0
  1 30  1  0
  1 31  1  0
  1 32  1  0
  4 33  1  0
  5 34  1  0
 10 35  1  0
 11 36  1  0
 14 37  1  0
 15 38  1  0
 16 39  1  0
 18 40  1  0
 18 41  1  0
 19 42  1  0
 20 43  1  0
 20 44  1  0
 21 45  1  0
 21 46  1  0
 23 47  1  0
 23 48  1  0
 23 49  1  0
 24 50  1  0
 24 51  1  0
 25 52  1  0
 25 53  1  0
 27 54  1  0
 27 55  1  0
 27 56  1  0
 28 57  1  0
 29 58  1  0
M  CHG  1  19   1
M  END
>  <UniqueID>  (12) 
11

>  <SMILES>  (12) 
COc1ccc(-n2c(-c3ccc(F)cc3)cc(C[NH+]3CCN(C)CC3)c2C)cc1

>  <Energy>  (12) 
110.08150574345376

>  <Genealogy>  (12) 
COc1ccc(-n2c(-c3ccc(F)cc3)cc(C[NH+]3CCN(C)CC3)c2C)cc1 (protonated)
COc1ccc(-n2c(-c3ccc(F)cc3)cc(C[NH+]3CCN(C)CC3)c2C)cc1 (3D coordinates assigned)
COc1ccc(-n2c(-c3ccc(F)cc3)cc(C[NH+]3CCN(C)CC3)c2C)cc1 (nonaromatic ring conformer: 110.08150574345376 kcal/mol)

>  <smiles>  (12) 
COc1ccc(-n2c(-c3ccc(F)cc3)cc(CN3CCN(C)CC3)c2C)cc1

>  <score_type>  (12) 
oracle

>  <origin>  (12) 
adg

>  <m_score__min__energy>  (12) 
-6.1200000000000001

>  <m_primary>  (12) 
energy

$$$$
12:0
     RDKit          3D

 47 49  0  0  0  0  0  0  0  0999 V2000
   60.8440   29.1770   50.6470 C   0  0  0  0  0  0  0  0  0  0  0  0
   61.1310   28.3500   49.5240 O   0  0  0  0  0  0  0  0  0  0  0  0
   60.4110   28.2980   48.3160 C   0  0  0  0  0  0  0  0  0  0  0  0
   59.9740   27.0360   47.9040 C   0  0  0  0  0  0  0  0  0  0  0  0
   59.2540   26.8690   46.7150 C   0  0  0  0  0  0  0  0  0  0  0  0
   58.8090   25.5920   46.3440 C   0  0  0  0  0  0  0  0  0  0  0  0
   58.0810   25.4180   45.1700 C   0  0  0  0  0  0  0  0  0  0  0  0
   57.8010   26.5080   44.3470 C   0  0  0  0  0  0  0  0  0  0  0  0
   58.2420   27.8000   44.6880 C   0  0  0  0  0  0  0  0  0  0  0  0
   57.9960   28.8940   43.7860 N   0  0  0  0  0  0  0  0  0  0  0  0
   56.8350   30.1420   44.1180 S   0  0  0  0  0  0  0  0  0  0  0  0
   56.0170   30.3800   42.8810 O   0  0  0  0  0  0  0  0  0  0  0  0
   55.9310   29.6720   45.2210 O   0  0  0  0  0  0  0  0  0  0  0  0
   57.6460   31.6380   44.6170 C   0  0  0  0  0  0  0  0  0  0  0  0
   57.7820   31.9090   45.9880 C   0  0  0  0  0  0  0  0  0  0  0  0
   58.4190   33.0750   46.4310 C   0  0  0  0  0  0  0  0  0  0  0  0
   58.5980   33.3260   47.8990 C   0  0  0  0  0  0  0  0  0  0  0  0
   58.9510   33.9670   45.4920 C   0  0  0  0  0  0  0  0  0  0  0  0
   58.8140   33.7160   44.1260 C   0  0  0  0  0  0  0  0  0  0  0  0
   58.1500   32.5650   43.6720 C   0  0  0  0  0  0  0  0  0  0  0  0
   58.0330   32.3300   42.1890 C   0  0  0  0  0  0  0  0  0  0  0  0
   58.9680   27.9870   45.8950 C   0  0  0  0  0  0  0  0  0  0  0  0
   59.3900   29.2620   46.3210 C   0  0  0  0  0  0  0  0  0  0  0  0
   60.1120   29.4320   47.5210 C   0  0  0  0  0  0  0  0  0  0  0  0
   60.5320   30.7070   47.9360 O   0  0  0  0  0  0  0  0  0  0  0  0
   61.7370   31.3480   47.5270 C   0  0  0  0  0  0  0  0  0  0  0  0
   61.0383   28.6172   51.5738 H   0  0  0  0  0  0  0  0  0  0  0  0
   61.4845   30.0708   50.6174 H   0  0  0  0  0  0  0  0  0  0  0  0
   59.7875   29.4819   50.6174 H   0  0  0  0  0  0  0  0  0  0  0  0
   60.2001   26.1572   48.5258 H   0  0  0  0  0  0  0  0  0  0  0  0
   59.0357   24.7253   46.9823 H   0  0  0  0  0  0  0  0  0  0  0  0
   57.7250   24.4155   44.8904 H   0  0  0  0  0  0  0  0  0  0  0  0
   57.2285   26.3562   43.4201 H   0  0  0  0  0  0  0  0  0  0  0  0
   58.5110   28.9550   42.8810 H   0  0  0  0  0  0  0  0  0  0  0  0
   57.3828   31.1958   46.7242 H   0  0  0  0  0  0  0  0  0  0  0  0
   58.0524   32.5610   48.4710 H   0  0  0  0  0  0  0  0  0  0  0  0
   59.6677   33.2790   48.1513 H   0  0  0  0  0  0  0  0  0  0  0  0
   58.2052   34.3220   48.1513 H   0  0  0  0  0  0  0  0  0  0  0  0
   59.4793   34.8697   45.8325 H   0  0  0  0  0  0  0  0  0  0  0  0
   59.2305   34.4272   43.3974 H   0  0  0  0  0  0  0  0  0  0  0  0
   57.5494   31.3586   42.0087 H   0  0  0  0  0  0  0  0  0  0  0  0
   57.4281   33.1302   41.7376 H   0  0  0  0  0  0  0  0  0  0  0  0
   59.0361   32.3296   41.7376 H   0  0  0  0  0  0  0  0  0  0  0  0
   59.1518   30.1422   45.7058 H   0  0  0  0  0  0  0  0  0  0  0  0
   62.3099   31.6528   48.4152 H   0  0  0  0  0  0  0  0  0  0  0  0
   62.3375   30.6501   46.9250 H   0  0  0  0  0  0  0  0  0  0  0  0
   61.4939   32.2360   46.9250 H   0  0  0  0  0  0  0  0  0  0  0  0
  1  2  1  0
  2  3  1  0
  3  4  2  0
  4  5  1  0
  5  6  2  0
  6  7  1  0
  7  8  2  0
  8  9  1  0
  9 10  1  0
 10 11  1  0
 11 12  2  0
 11 13  2  0
 11 14  1  0
 14 15  2  0
 15 16  1  0
 16 17  1  0
 16 18  2  0
 18 19  1  0
 19 20  2  0
 20 21  1  0
  9 22  2  0
 22 23  1  0
 23 24  2  0
 24 25  1  0
 25 26  1  0
 24  3  1  0
 22  5  1  0
 20 14  1  0
  1 27  1  0
  1 28  1  0
  1 29  1  0
  4 30  1  0
  6 31  1  0
  7 32  1  0
  8 33  1  0
 10 34  1  0
 15 35  1  0
 17 36  1  0
 17 37  1  0
 17 38  1  0
 18 39  1  0
 19 40  1  0
 21 41  1  0
 21 42  1  0
 21 43  1  0
 23 44  1  0
 26 45  1  0
 26 46  1  0
 26 47  1  0
M  END
>  <UniqueID>  (13) 
12

>  <SMILES>  (13) 
COc1cc2cccc(NS(=O)(=O)c3cc(C)ccc3C)c2cc1OC

>  <Energy>  (13) 
61.41655923125459

>  <Genealogy>  (13) 
COc1cc2cccc(NS(=O)(=O)c3cc(C)ccc3C)c2cc1OC (3D coordinates assigned)
COc1cc2cccc(NS(=O)(=O)c3cc(C)ccc3C)c2cc1OC (optimized conformer: 61.41655923125459 kcal/mol)

>  <smiles>  (13) 
COc1cc2cccc(NS(=O)(=O)c3cc(C)ccc3C)c2cc1OC

>  <score_type>  (13) 
oracle

>  <origin>  (13) 
adg

>  <m_score__min__energy>  (13) 
-9.5099999999999998

>  <m_primary>  (13) 
energy

$$$$
13:0
     RDKit          3D

 44 46  0  0  0  0  0  0  0  0999 V2000
   58.1260   27.4120   43.6080 C   0  0  0  0  0  0  0  0  0  0  0  0
   57.3920   27.9510   44.8290 C   0  0  0  0  0  0  0  0  0  0  0  0
   57.3320   29.4080   44.7800 N   0  0  0  0  0  0  0  0  0  0  0  0
   58.2570   30.2520   45.2730 C   0  0  0  0  0  0  0  0  0  0  0  0
   57.7990   31.5390   45.0810 C   0  0  0  0  0  0  0  0  0  0  0  0
   58.4350   32.7810   45.5630 C   0  0  0  0  0  0  0  0  0  0  0  0
   58.6280   33.7930   44.6680 N   0  0  0  0  0  0  0  0  0  0  0  0
   59.2210   34.9570   45.0360 C   0  0  0  0  0  0  0  0  0  0  0  0
   59.6200   35.1420   46.3160 N   0  0  0  0  0  0  0  0  0  0  0  0
   59.4390   34.1830   47.2580 C   0  0  0  0  0  0  0  0  0  0  0  0
   59.9640   34.5330   48.9010 Cl  0  0  0  0  0  0  0  0  0  0  0  0
   58.8310   32.9580   46.9130 C   0  0  0  0  0  0  0  0  0  0  0  0
   58.5240   31.9400   47.9970 C   0  0  0  0  0  0  0  0  0  0  0  0
   59.7510   31.2140   48.3930 N   0  0  0  0  0  0  0  0  0  0  0  0
   59.4290   29.8150   48.7420 C   0  0  0  0  0  0  0  0  0  0  0  0
   60.7460   31.2530   47.2990 C   0  0  0  0  0  0  0  0  0  0  0  0
   62.0120   31.9310   47.7540 C   0  0  0  0  0  0  0  0  0  0  0  0
   62.5850   32.9670   47.0040 C   0  0  0  0  0  0  0  0  0  0  0  0
   63.7660   33.5710   47.4380 C   0  0  0  0  0  0  0  0  0  0  0  0
   64.3670   33.1300   48.6190 C   0  0  0  0  0  0  0  0  0  0  0  0
   63.8020   32.1220   49.3350 N   0  0  0  0  0  0  0  0  0  0  0  0
   62.6510   31.5190   48.9330 C   0  0  0  0  0  0  0  0  0  0  0  0
   56.5540   31.3980   44.4960 C   0  0  0  0  0  0  0  0  0  0  0  0
   56.2930   30.0880   44.3220 N   0  0  0  0  0  0  0  0  0  0  0  0
   58.9728   26.7902   43.9341 H   0  0  0  0  0  0  0  0  0  0  0  0
   57.4361   26.8044   43.0041 H   0  0  0  0  0  0  0  0  0  0  0  0
   58.4993   28.2522   43.0041 H   0  0  0  0  0  0  0  0  0  0  0  0
   56.3695   27.5459   44.8461 H   0  0  0  0  0  0  0  0  0  0  0  0
   57.9332   27.6450   45.7364 H   0  0  0  0  0  0  0  0  0  0  0  0
   59.2087   29.9665   45.7450 H   0  0  0  0  0  0  0  0  0  0  0  0
   58.3340   33.6760   43.6720 H   0  0  0  0  0  0  0  0  0  0  0  0
   59.3777   35.7520   44.2921 H   0  0  0  0  0  0  0  0  0  0  0  0
   58.1124   32.4597   48.8748 H   0  0  0  0  0  0  0  0  0  0  0  0
   57.7941   31.2156   47.6064 H   0  0  0  0  0  0  0  0  0  0  0  0
   59.4040   29.7065   49.8364 H   0  0  0  0  0  0  0  0  0  0  0  0
   58.4463   29.5499   48.3247 H   0  0  0  0  0  0  0  0  0  0  0  0
   60.1969   29.1470   48.3247 H   0  0  0  0  0  0  0  0  0  0  0  0
   60.9795   30.2245   46.9866 H   0  0  0  0  0  0  0  0  0  0  0  0
   60.3236   31.8212   46.4572 H   0  0  0  0  0  0  0  0  0  0  0  0
   62.1042   33.3039   46.0738 H   0  0  0  0  0  0  0  0  0  0  0  0
   64.2191   34.3866   46.8554 H   0  0  0  0  0  0  0  0  0  0  0  0
   65.2982   33.5986   48.9701 H   0  0  0  0  0  0  0  0  0  0  0  0
   62.2196   30.7053   49.5345 H   0  0  0  0  0  0  0  0  0  0  0  0
   55.8834   32.2242   44.2171 H   0  0  0  0  0  0  0  0  0  0  0  0
  1  2  1  0
  2  3  1  0
  3  4  1  0
  4  5  2  0
  5  6  1  0
  6  7  2  0
  7  8  1  0
  8  9  2  0
  9 10  1  0
 10 11  1  0
 10 12  2  0
 12 13  1  0
 13 14  1  0
 14 15  1  0
 14 16  1  0
 16 17  1  0
 17 18  2  0
 18 19  1  0
 19 20  2  0
 20 21  1  0
 21 22  2  0
  5 23  1  0
 23 24  2  0
 24  3  1  0
 12  6  1  0
 22 17  1  0
  1 25  1  0
  1 26  1  0
  1 27  1  0
  2 28  1  0
  2 29  1  0
  4 30  1  0
  7 31  1  0
  8 32  1  0
 13 33  1  0
 13 34  1  0
 15 35  1  0
 15 36  1  0
 15 37  1  0
 16 38  1  0
 16 39  1  0
 18 40  1  0
 19 41  1  0
 20 42  1  0
 22 43  1  0
 23 44  1  0
M  CHG  1   7   1
M  END
>  <UniqueID>  (14) 
13

>  <SMILES>  (14) 
CCn1cc(-c2[nH+]cnc(Cl)c2CN(C)Cc2cccnc2)cn1

>  <Energy>  (14) 
82.63339839104563

>  <Genealogy>  (14) 
CCn1cc(-c2[nH+]cnc(Cl)c2CN(C)Cc2cccnc2)cn1 (protonated)
CCn1cc(-c2[nH+]cnc(Cl)c2CN(C)Cc2cccnc2)cn1 (3D coordinates assigned)
CCn1cc(-c2[nH+]cnc(Cl)c2CN(C)Cc2cccnc2)cn1 (optimized conformer: 82.63339839104563 kcal/mol)

>  <smiles>  (14) 
CCn1cc(-c2ncnc(Cl)c2CN(C)Cc2cccnc2)cn1

>  <score_type>  (14) 
oracle

>  <origin>  (14) 
adg

>  <m_score__min__energy>  (14) 
-5.7599999999999998

>  <m_primary>  (14) 
energy

$$$$
14:0
     RDKit          3D

 52 56  0  0  1  0  0  0  0  0999 V2000
   58.4730   33.6810   47.0640 C   0  0  0  0  0  0  0  0  0  0  0  0
   58.1430   32.6940   47.9910 C   0  0  0  0  0  0  0  0  0  0  0  0
   58.8310   32.6520   49.1980 C   0  0  0  0  0  0  0  0  0  0  0  0
   59.8320   33.5610   49.5020 C   0  0  0  0  0  0  0  0  0  0  0  0
   60.5290   33.4490   50.8260 C   0  0  0  0  0  0  0  0  0  0  0  0
   61.9230   33.7530   50.7130 N   0  0  0  0  0  0  0  0  0  0  0  0
   62.7700   33.1350   51.6830 C   0  0  0  0  0  0  0  0  0  0  0  0
   64.2130   33.1540   51.3480 C   0  0  0  0  0  0  0  0  0  0  0  0
   65.1180   33.3900   52.3910 C   0  0  0  0  0  0  0  0  0  0  0  0
   66.4720   33.4620   52.1940 C   0  0  0  0  0  0  0  0  0  0  0  0
   66.9350   33.2910   50.9100 C   0  0  0  0  0  0  0  0  0  0  0  0
   66.0490   33.0570   49.8760 C   0  0  0  0  0  0  0  0  0  0  0  0
   64.6820   32.9800   50.0450 C   0  0  0  0  0  0  0  0  0  0  0  0
   63.7840   32.7220   48.9300 C   0  0  0  0  0  0  0  0  0  0  0  0
   63.7810   33.5580   47.8270 C   0  0  0  0  0  0  0  0  0  0  0  0
   62.9160   33.3210   46.7500 C   0  0  0  0  0  0  0  0  0  0  0  0
   62.0690   32.2790   46.7610 N   0  0  0  0  0  0  0  0  0  0  0  0
   62.1030   31.4890   47.8550 C   0  0  0  0  0  0  0  0  0  0  0  0
   61.2680   30.4870   47.8410 N   0  0  0  0  0  0  0  0  0  0  0  0
   60.2160   30.4130   46.9080 C   0  0  0  0  0  0  0  0  0  0  0  0
   59.7400   31.0220   45.9540 N   0  0  0  0  0  0  0  0  0  0  0  0
   58.6990   30.6950   45.2420 C   0  0  0  0  0  0  0  0  0  0  0  0
   58.1430   31.3850   44.1470 C   0  0  0  0  0  0  0  0  0  0  0  0
   57.0420   30.8780   43.5290 C   0  0  0  0  0  0  0  0  0  0  0  0
   56.3940   29.7140   43.8840 C   0  0  0  0  0  0  0  0  0  0  0  0
   56.9480   29.0300   44.9720 C   0  0  0  0  0  0  0  0  0  0  0  0
   58.0520   29.5390   45.5900 C   0  0  0  0  0  0  0  0  0  0  0  0
   59.0050   28.9490   46.9800 S   0  0  0  0  0  0  0  0  0  0  0  0
   62.9130   31.6980   48.8810 N   0  0  0  0  0  0  0  0  0  0  0  0
   60.1560   34.5370   48.5810 C   0  0  0  0  0  0  0  0  0  0  0  0
   59.4770   34.5870   47.3770 C   0  0  0  0  0  0  0  0  0  0  0  0
   57.9465   33.7411   46.1001 H   0  0  0  0  0  0  0  0  0  0  0  0
   57.3523   31.9615   47.7714 H   0  0  0  0  0  0  0  0  0  0  0  0
   58.5736   31.8751   49.9329 H   0  0  0  0  0  0  0  0  0  0  0  0
   60.0662   34.1522   51.5340 H   0  0  0  0  0  0  0  0  0  0  0  0
   60.4297   32.4127   51.1814 H   0  0  0  0  0  0  0  0  0  0  0  0
   62.3000   33.7550   49.7810 H   0  0  0  0  0  0  0  0  0  0  0  0
   62.6338   33.6594   52.6403 H   0  0  0  0  0  0  0  0  0  0  0  0
   62.4747   32.0761   51.7231 H   0  0  0  0  0  0  0  0  0  0  0  0
   64.7255   33.5230   53.4099 H   0  0  0  0  0  0  0  0  0  0  0  0
   67.1619   33.6493   53.0300 H   0  0  0  0  0  0  0  0  0  0  0  0
   68.0147   33.3407   50.7057 H   0  0  0  0  0  0  0  0  0  0  0  0
   66.4559   32.9249   48.8626 H   0  0  0  0  0  0  0  0  0  0  0  0
   64.4655   34.4185   47.7953 H   0  0  0  0  0  0  0  0  0  0  0  0
   62.9311   33.9982   45.8833 H   0  0  0  0  0  0  0  0  0  0  0  0
   61.4210   32.1020   45.9550 H   0  0  0  0  0  0  0  0  0  0  0  0
   58.5944   32.3243   43.7951 H   0  0  0  0  0  0  0  0  0  0  0  0
   56.6359   31.4427   42.6769 H   0  0  0  0  0  0  0  0  0  0  0  0
   55.5045   29.3488   43.3498 H   0  0  0  0  0  0  0  0  0  0  0  0
   56.4973   28.0908   45.3253 H   0  0  0  0  0  0  0  0  0  0  0  0
   60.9471   35.2684   48.8027 H   0  0  0  0  0  0  0  0  0  0  0  0
   59.7400   35.3667   46.6470 H   0  0  0  0  0  0  0  0  0  0  0  0
  1  2  2  0
  2  3  1  0
  3  4  2  0
  4  5  1  0
  5  6  1  0
  6  7  1  0
  7  8  1  0
  8  9  2  0
  9 10  1  0
 10 11  2  0
 11 12  1  0
 12 13  2  0
 13 14  1  0
 14 15  1  0
 15 16  2  0
 16 17  1  0
 17 18  1  0
 18 19  2  0
 19 20  1  0
 20 21  2  0
 21 22  1  0
 22 23  2  0
 23 24  1  0
 24 25  2  0
 25 26  1  0
 26 27  2  0
 27 28  1  0
 18 29  1  0
  4 30  1  0
 30 31  2  0
 31  1  1  0
 13  8  1  0
 29 14  2  0
 28 20  1  0
 27 22  1  0
  1 32  1  0
  2 33  1  0
  3 34  1  0
  5 35  1  0
  5 36  1  0
  6 37  1  0
  7 38  1  0
  7 39  1  0
  9 40  1  0
 10 41  1  0
 11 42  1  0
 12 43  1  0
 15 44  1  0
 16 45  1  0
 17 46  1  0
 23 47  1  0
 24 48  1  0
 25 49  1  0
 26 50  1  0
 30 51  1  0
 31 52  1  0
M  END
>  <smiles>  (15) 
c1ccc(CNCc2ccccc2-c2cc[nH]c(=Nc3nc4ccccc4s3)n2)cc1

>  <score_type>  (15) 
oracle

>  <origin>  (15) 
adg

>  <m_score__min__energy>  (15) 
-9.8699999999999992

>  <m_primary>  (15) 
energy

$$$$
15:0
     RDKit          3D

 63 63  0  0  0  0  0  0  0  0999 V2000
   56.9365   34.7476   45.9884 H   0  0  0  0  0  0  0  0  0  0  0  0
   57.7280   34.1810   45.4760 C   0  0  0  0  0  0  0  0  0  0  0  0
   57.4120   33.0320   44.8620 C   0  0  0  0  0  0  0  0  0  0  0  0
   56.6519   32.3759   45.3113 H   0  0  0  0  0  0  0  0  0  0  0  0
   58.0690   32.6170   43.5760 C   0  0  0  0  0  0  0  0  0  0  0  0
   57.9385   33.4154   42.8307 H   0  0  0  0  0  0  0  0  0  0  0  0
   59.1379   32.4419   43.7675 H   0  0  0  0  0  0  0  0  0  0  0  0
   57.4580   31.3420   43.0470 C   0  0  0  0  0  0  0  0  0  0  0  0
   57.6491   31.0883   41.9939 H   0  0  0  0  0  0  0  0  0  0  0  0
   56.7000   30.4930   43.7590 C   0  0  0  0  0  0  0  0  0  0  0  0
   55.6804   30.8170   44.0149 H   0  0  0  0  0  0  0  0  0  0  0  0
   57.1260   29.1610   44.2250 C   0  0  0  0  0  0  0  0  0  0  0  0
   57.7140   28.2540   43.4650 C   0  0  0  0  0  0  0  0  0  0  0  0
   57.8692   28.3719   42.3824 H   0  0  0  0  0  0  0  0  0  0  0  0
   58.1410   27.0610   44.2320 C   0  0  0  0  0  0  0  0  0  0  0  0
   57.6487   26.1551   43.8486 H   0  0  0  0  0  0  0  0  0  0  0  0
   59.2233   26.8793   44.1565 H   0  0  0  0  0  0  0  0  0  0  0  0
   57.6960   27.3530   45.6710 C   0  0  0  0  0  0  0  0  0  0  0  0
   56.9338   26.6266   45.9896 H   0  0  0  0  0  0  0  0  0  0  0  0
   58.5375   27.2750   46.3752 H   0  0  0  0  0  0  0  0  0  0  0  0
   57.1080   28.7690   45.6560 C   0  0  0  0  0  0  0  0  0  0  0  0
   56.0796   28.7675   46.0463 H   0  0  0  0  0  0  0  0  0  0  0  0
   57.6770   29.4660   46.2888 H   0  0  0  0  0  0  0  0  0  0  0  0
   59.1320   34.7180   45.4850 C   0  0  0  0  0  0  0  0  0  0  0  0
   59.1434   35.7002   44.9899 H   0  0  0  0  0  0  0  0  0  0  0  0
   59.7798   34.0066   44.9518 H   0  0  0  0  0  0  0  0  0  0  0  0
   59.6490   34.8710   46.8910 C   0  0  0  0  0  0  0  0  0  0  0  0
   59.1230   35.5455   47.5826 H   0  0  0  0  0  0  0  0  0  0  0  0
   60.7320   34.2090   47.3250 C   0  0  0  0  0  0  0  0  0  0  0  0
   60.8432   34.0169   48.4024 H   0  0  0  0  0  0  0  0  0  0  0  0
   61.8020   33.7200   46.3810 C   0  0  0  0  0  0  0  0  0  0  0  0
   61.7483   34.3029   45.4497 H   0  0  0  0  0  0  0  0  0  0  0  0
   61.6260   32.6511   46.1901 H   0  0  0  0  0  0  0  0  0  0  0  0
   63.2110   33.8720   46.9830 C   0  0  0  0  0  0  0  0  0  0  0  0
   63.6300   34.8331   46.6501 H   0  0  0  0  0  0  0  0  0  0  0  0
   63.8057   33.0146   46.6349 H   0  0  0  0  0  0  0  0  0  0  0  0
   63.2280   33.8400   48.5190 C   0  0  0  0  0  0  0  0  0  0  0  0
   62.2566   34.1949   48.8937 H   0  0  0  0  0  0  0  0  0  0  0  0
   64.0456   34.4888   48.8663 H   0  0  0  0  0  0  0  0  0  0  0  0
   63.4740   32.4610   49.0410 C   0  0  0  0  0  0  0  0  0  0  0  0
   64.6420   32.1120   49.3630 O   0  0  0  0  0  0  0  0  0  0  0  0
   62.4000   31.5760   49.1800 O   0  0  0  0  0  0  0  0  0  0  0  0
   61.8240   30.8720   48.0810 C   0  0  0  0  0  0  0  0  0  0  0  0
   62.4934   30.0504   47.7862 H   0  0  0  0  0  0  0  0  0  0  0  0
   61.6894   31.5701   47.2416 H   0  0  0  0  0  0  0  0  0  0  0  0
   60.4600   30.2960   48.4710 C   0  0  0  0  0  0  0  0  0  0  0  0
   60.1226   30.7784   49.4002 H   0  0  0  0  0  0  0  0  0  0  0  0
   60.5741   29.2105   48.6072 H   0  0  0  0  0  0  0  0  0  0  0  0
   59.4430   30.5230   47.4160 N   0  0  0  0  0  0  0  0  0  0  0  0
   58.5780   31.6830   47.7260 C   0  0  0  0  0  0  0  0  0  0  0  0
   57.5255   31.4044   47.5692 H   0  0  0  0  0  0  0  0  0  0  0  0
   58.8459   32.5196   47.0639 H   0  0  0  0  0  0  0  0  0  0  0  0
   58.7760   32.1100   49.1750 C   0  0  0  0  0  0  0  0  0  0  0  0
   58.4087   31.3179   49.8441 H   0  0  0  0  0  0  0  0  0  0  0  0
   59.8459   32.2824   49.3635 H   0  0  0  0  0  0  0  0  0  0  0  0
   58.2163   33.0380   49.3635 H   0  0  0  0  0  0  0  0  0  0  0  0
   59.9890   30.5670   46.0370 C   0  0  0  0  0  0  0  0  0  0  0  0
   59.1851   30.8842   45.3565 H   0  0  0  0  0  0  0  0  0  0  0  0
   60.8339   31.2712   46.0513 H   0  0  0  0  0  0  0  0  0  0  0  0
   60.5390   29.2230   45.5410 C   0  0  0  0  0  0  0  0  0  0  0  0
   60.7974   28.5916   46.4039 H   0  0  0  0  0  0  0  0  0  0  0  0
   59.7757   28.7168   44.9318 H   0  0  0  0  0  0  0  0  0  0  0  0
   61.4382   29.3971   44.9318 H   0  0  0  0  0  0  0  0  0  0  0  0
  1  2  1  0
  2  3  2  3
  3  4  1  0
  3  5  1  0
  5  6  1  0
  5  7  1  0
  5  8  1  0
  8  9  1  0
  8 10  2  0
 10 11  1  0
 10 12  1  0
 12 13  2  0
 13 14  1  0
 13 15  1  0
 15 16  1  0
 15 17  1  0
 15 18  1  0
 18 19  1  0
 18 20  1  0
 18 21  1  0
 21 22  1  0
 21 23  1  0
  2 24  1  0
 24 25  1  0
 24 26  1  0
 24 27  1  0
 27 28  1  0
 27 29  2  3
 29 30  1  0
 29 31  1  0
 31 32  1  0
 31 33  1  0
 31 34  1  0
 34 35  1  0
 34 36  1  0
 34 37  1  0
 37 38  1  0
 37 39  1  0
 37 40  1  0
 40 41  2  0
 40 42  1  0
 42 43  1  0
 43 44  1  0
 43 45  1  0
 43 46  1  0
 46 47  1  0
 46 48  1  0
 46 49  1  0
 49 50  1  0
 50 51  1  0
 50 52  1  0
 50 53  1  0
 53 54  1  0
 53 55  1  0
 53 56  1  0
 49 57  1  0
 57 58  1  0
 57 59  1  0
 57 60  1  0
 60 61  1  0
 60 62  1  0
 60 63  1  0
 21 12  1  0
M  END
>  <UniqueID>  (16) 
14

>  <SMILES>  (16) 
CCN(CC)CCOC(=O)CCCC=CCC=CC/C=C\C1=CCCC1

>  <Energy>  (16) 
49.645390336815346

>  <Genealogy>  (16) 
CCN(CC)CCOC(=O)CCCC=CCC=CC/C=C\C1=CCCC1 (cis-trans isomerization)
CCN(CC)CCOC(=O)CCCC=CCC=CC/C=C\C1=CCCC1 (3D coordinates assigned)
CCN(CC)CCOC(=O)CCCC=CCC=CC/C=C\C1=CCCC1 (nonaromatic ring conformer: 49.645390336815346 kcal/mol)

>  <smiles>  (16) 
CCN(CC)CCOC(=O)CCCC=CCC=CCC=CC1=CCCC1

>  <score_type>  (16) 
oracle

>  <origin>  (16) 
adg

>  <m_score__min__energy>  (16) 
-6.79

>  <m_primary>  (16) 
energy

$$$$
16:0
     RDKit          3D

 60 64  0  0  0  0  0  0  0  0999 V2000
   58.4330   30.8000   44.0820 C   0  0  0  0  0  0  0  0  0  0  0  0
   58.5790   31.2670   45.4610 N   0  0  0  0  0  0  0  0  0  0  0  0
   58.6020   30.5040   46.5880 C   0  0  0  0  0  0  0  0  0  0  0  0
   58.4820   29.0330   46.5980 C   0  0  0  0  0  0  0  0  0  0  0  0
   57.3950   28.4070   45.9650 C   0  0  0  0  0  0  0  0  0  0  0  0
   57.2800   27.0140   45.9810 C   0  0  0  0  0  0  0  0  0  0  0  0
   58.2470   26.2380   46.6280 C   0  0  0  0  0  0  0  0  0  0  0  0
   58.1300   24.8860   46.6480 F   0  0  0  0  0  0  0  0  0  0  0  0
   59.3290   26.8540   47.2600 C   0  0  0  0  0  0  0  0  0  0  0  0
   59.4480   28.2480   47.2480 C   0  0  0  0  0  0  0  0  0  0  0  0
   58.8070   31.3080   47.7130 C   0  0  0  0  0  0  0  0  0  0  0  0
   59.0440   30.8610   49.1320 C   0  0  0  0  0  0  0  0  0  0  0  0
   58.3300   31.7560   50.1660 C   0  0  0  0  0  0  0  0  0  0  0  0
   59.0100   31.7760   51.4970 N   0  0  0  0  0  0  0  0  0  0  0  0
   59.5390   33.1150   51.8350 C   0  0  0  0  0  0  0  0  0  0  0  0
   60.5810   33.5930   50.8130 C   0  0  0  0  0  0  0  0  0  0  0  0
   61.3280   32.4640   50.2490 N   0  0  0  0  0  0  0  0  0  0  0  0
   62.1590   32.6790   49.0910 C   0  0  0  0  0  0  0  0  0  0  0  0
   62.6130   33.9710   48.7640 C   0  0  0  0  0  0  0  0  0  0  0  0
   63.4050   34.1760   47.6270 C   0  0  0  0  0  0  0  0  0  0  0  0
   63.7560   33.0950   46.8110 C   0  0  0  0  0  0  0  0  0  0  0  0
   63.3200   31.8070   47.1330 C   0  0  0  0  0  0  0  0  0  0  0  0
   62.5290   31.5970   48.2690 C   0  0  0  0  0  0  0  0  0  0  0  0
   61.4470   31.2170   51.0130 C   0  0  0  0  0  0  0  0  0  0  0  0
   60.0870   30.7580   51.5970 C   0  0  0  0  0  0  0  0  0  0  0  0
   58.9340   32.5980   47.2280 C   0  0  0  0  0  0  0  0  0  0  0  0
   59.2120   33.7970   47.8880 C   0  0  0  0  0  0  0  0  0  0  0  0
   59.3460   34.9610   47.1110 C   0  0  0  0  0  0  0  0  0  0  0  0
   59.2100   34.9030   45.7070 C   0  0  0  0  0  0  0  0  0  0  0  0
   58.9370   33.6810   45.0670 C   0  0  0  0  0  0  0  0  0  0  0  0
   58.7990   32.5370   45.8630 C   0  0  0  0  0  0  0  0  0  0  0  0
   58.1048   29.7501   44.0832 H   0  0  0  0  0  0  0  0  0  0  0  0
   57.6850   31.4174   43.5630 H   0  0  0  0  0  0  0  0  0  0  0  0
   59.3995   30.8814   43.5630 H   0  0  0  0  0  0  0  0  0  0  0  0
   56.6326   29.0146   45.4556 H   0  0  0  0  0  0  0  0  0  0  0  0
   56.4278   26.5275   45.4840 H   0  0  0  0  0  0  0  0  0  0  0  0
   60.0890   26.2423   47.7681 H   0  0  0  0  0  0  0  0  0  0  0  0
   60.3004   28.7302   47.7490 H   0  0  0  0  0  0  0  0  0  0  0  0
   58.6737   29.8311   49.2429 H   0  0  0  0  0  0  0  0  0  0  0  0
   60.1249   30.9281   49.3250 H   0  0  0  0  0  0  0  0  0  0  0  0
   58.2966   32.7836   49.7750 H   0  0  0  0  0  0  0  0  0  0  0  0
   57.3236   31.3393   50.3194 H   0  0  0  0  0  0  0  0  0  0  0  0
   58.3040   31.5550   52.2400 H   0  0  0  0  0  0  0  0  0  0  0  0
   58.7052   33.8323   51.8550 H   0  0  0  0  0  0  0  0  0  0  0  0
   60.0295   33.0501   52.8175 H   0  0  0  0  0  0  0  0  0  0  0  0
   60.0672   34.1256   49.9991 H   0  0  0  0  0  0  0  0  0  0  0  0
   61.2909   34.2591   51.3252 H   0  0  0  0  0  0  0  0  0  0  0  0
   62.3444   34.8238   49.4047 H   0  0  0  0  0  0  0  0  0  0  0  0
   63.7518   35.1891   47.3751 H   0  0  0  0  0  0  0  0  0  0  0  0
   64.3748   33.2589   45.9165 H   0  0  0  0  0  0  0  0  0  0  0  0
   63.5987   30.9568   46.4930 H   0  0  0  0  0  0  0  0  0  0  0  0
   62.1943   30.5800   48.5212 H   0  0  0  0  0  0  0  0  0  0  0  0
   61.8314   30.4293   50.3483 H   0  0  0  0  0  0  0  0  0  0  0  0
   62.1320   31.3996   51.8541 H   0  0  0  0  0  0  0  0  0  0  0  0
   59.7635   29.8582   51.0533 H   0  0  0  0  0  0  0  0  0  0  0  0
   60.2487   30.5712   52.6689 H   0  0  0  0  0  0  0  0  0  0  0  0
   59.3227   33.8296   48.9819 H   0  0  0  0  0  0  0  0  0  0  0  0
   59.5582   35.9231   47.6002 H   0  0  0  0  0  0  0  0  0  0  0  0
   59.3183   35.8202   45.1095 H   0  0  0  0  0  0  0  0  0  0  0  0
   58.8348   33.6253   43.9732 H   0  0  0  0  0  0  0  0  0  0  0  0
  1  2  1  0
  2  3  1  0
  3  4  1  0
  4  5  2  0
  5  6  1  0
  6  7  2  0
  7  8  1  0
  7  9  1  0
  9 10  2  0
  3 11  2  0
 11 12  1  0
 12 13  1  0
 13 14  1  0
 14 15  1  0
 15 16  1  0
 16 17  1  0
 17 18  1  0
 18 19  2  0
 19 20  1  0
 20 21  2  0
 21 22  1  0
 22 23  2  0
 17 24  1  0
 24 25  1  0
 11 26  1  0
 26 27  2  0
 27 28  1  0
 28 29  2  0
 29 30  1  0
 30 31  2  0
 31  2  1  0
 10  4  1  0
 25 14  1  0
 31 26  1  0
 23 18  1  0
  1 32  1  0
  1 33  1  0
  1 34  1  0
  5 35  1  0
  6 36  1  0
  9 37  1  0
 10 38  1  0
 12 39  1  0
 12 40  1  0
 13 41  1  0
 13 42  1  0
 14 43  1  0
 15 44  1  0
 15 45  1  0
 16 46  1  0
 16 47  1  0
 19 48  1  0
 20 49  1  0
 21 50  1  0
 22 51  1  0
 23 52  1  0
 24 53  1  0
 24 54  1  0
 25 55  1  0
 25 56  1  0
 27 57  1  0
 28 58  1  0
 29 59  1  0
 30 60  1  0
M  CHG  1  14   1
M  END
>  <UniqueID>  (17) 
15

>  <SMILES>  (17) 
Cn1c(-c2ccc(F)cc2)c(CC[NH+]2CCN(c3ccccc3)CC2)c2ccccc21

>  <Energy>  (17) 
115.6444477267227

>  <Genealogy>  (17) 
Cn1c(-c2ccc(F)cc2)c(CC[NH+]2CCN(c3ccccc3)CC2)c2ccccc21 (protonated)
Cn1c(-c2ccc(F)cc2)c(CC[NH+]2CCN(c3ccccc3)CC2)c2ccccc21 (3D coordinates assigned)
Cn1c(-c2ccc(F)cc2)c(CC[NH+]2CCN(c3ccccc3)CC2)c2ccccc21 (nonaromatic ring conformer: 115.6444477267227 kcal/mol)

>  <smiles>  (17) 
Cn1c(-c2ccc(F)cc2)c(CCN2CCN(c3ccccc3)CC2)c2ccccc21

>  <score_type>  (17) 
oracle

>  <origin>  (17) 
adg

>  <m_score__min__energy>  (17) 
-7.4900000000000002

>  <m_primary>  (17) 
energy

$$$$
17:0
     RDKit          3D

 49 51  0  0  0  0  0  0  0  0999 V2000
   60.5847   26.5008   46.8076 H   0  0  0  0  0  0  0  0  0  0  0  0
   59.8540   27.2630   47.1160 C   0  0  0  0  0  0  0  0  0  0  0  0
   60.3080   28.3310   47.8040 C   0  0  0  0  0  0  0  0  0  0  0  0
   60.5080   29.6300   47.1240 C   0  0  0  0  0  0  0  0  0  0  0  0
   60.0960   29.8100   45.9440 O   0  0  0  0  0  0  0  0  0  0  0  0
   61.2070   30.7110   47.8550 C   0  0  0  0  0  0  0  0  0  0  0  0
   61.4490   31.8980   47.2620 C   0  0  0  0  0  0  0  0  0  0  0  0
   62.4985   32.1825   47.0958 H   0  0  0  0  0  0  0  0  0  0  0  0
   60.4000   32.8450   46.8190 C   0  0  0  0  0  0  0  0  0  0  0  0
   59.4690   32.4660   45.8380 C   0  0  0  0  0  0  0  0  0  0  0  0
   59.5333   31.4669   45.3824 H   0  0  0  0  0  0  0  0  0  0  0  0
   58.4550   33.3530   45.4330 C   0  0  0  0  0  0  0  0  0  0  0  0
   57.5160   33.0220   44.4440 O   0  0  0  0  0  0  0  0  0  0  0  0
   57.8370   32.3960   43.2060 C   0  0  0  0  0  0  0  0  0  0  0  0
   58.3311   31.4325   43.3996 H   0  0  0  0  0  0  0  0  0  0  0  0
   56.9148   32.2262   42.6310 H   0  0  0  0  0  0  0  0  0  0  0  0
   58.5131   33.0458   42.6310 H   0  0  0  0  0  0  0  0  0  0  0  0
   58.3680   34.6100   46.0350 C   0  0  0  0  0  0  0  0  0  0  0  0
   57.5809   35.3113   45.7209 H   0  0  0  0  0  0  0  0  0  0  0  0
   59.2710   34.9850   47.0320 C   0  0  0  0  0  0  0  0  0  0  0  0
   59.1847   35.9752   47.5031 H   0  0  0  0  0  0  0  0  0  0  0  0
   60.2910   34.1040   47.4380 C   0  0  0  0  0  0  0  0  0  0  0  0
   61.2140   34.4510   48.4410 O   0  0  0  0  0  0  0  0  0  0  0  0
   61.1750   33.9620   49.7780 C   0  0  0  0  0  0  0  0  0  0  0  0
   61.2424   34.8066   50.4795 H   0  0  0  0  0  0  0  0  0  0  0  0
   60.2310   33.4222   49.9436 H   0  0  0  0  0  0  0  0  0  0  0  0
   62.0216   33.2794   49.9436 H   0  0  0  0  0  0  0  0  0  0  0  0
   61.6480   30.3960   49.2690 C   0  0  0  0  0  0  0  0  0  0  0  0
   62.6542   29.9523   49.2425 H   0  0  0  0  0  0  0  0  0  0  0  0
   61.6561   31.3288   49.8519 H   0  0  0  0  0  0  0  0  0  0  0  0
   60.7550   29.4850   49.8830 O   0  0  0  0  0  0  0  0  0  0  0  0
   60.8030   28.2280   49.2340 C   0  0  0  0  0  0  0  0  0  0  0  0
   61.8417   27.8659   49.2292 H   0  0  0  0  0  0  0  0  0  0  0  0
   60.1517   27.5289   49.7791 H   0  0  0  0  0  0  0  0  0  0  0  0
   58.4410   27.0520   46.7510 C   0  0  0  0  0  0  0  0  0  0  0  0
   57.8160   25.8450   47.0870 C   0  0  0  0  0  0  0  0  0  0  0  0
   58.3708   25.0763   47.6449 H   0  0  0  0  0  0  0  0  0  0  0  0
   56.4890   25.6150   46.7150 C   0  0  0  0  0  0  0  0  0  0  0  0
   55.9967   24.6721   46.9952 H   0  0  0  0  0  0  0  0  0  0  0  0
   55.7850   26.5790   45.9880 C   0  0  0  0  0  0  0  0  0  0  0  0
   54.4640   26.3370   45.6270 O   0  0  0  0  0  0  0  0  0  0  0  0
   56.4050   27.7810   45.6200 C   0  0  0  0  0  0  0  0  0  0  0  0
   55.6640   28.7190   44.8820 O   0  0  0  0  0  0  0  0  0  0  0  0
   56.2360   29.6900   44.0110 C   0  0  0  0  0  0  0  0  0  0  0  0
   56.7051   30.4864   44.6074 H   0  0  0  0  0  0  0  0  0  0  0  0
   56.9962   29.2109   43.3765 H   0  0  0  0  0  0  0  0  0  0  0  0
   55.4484   30.1226   43.3765 H   0  0  0  0  0  0  0  0  0  0  0  0
   57.7430   28.0080   45.9960 C   0  0  0  0  0  0  0  0  0  0  0  0
   58.2444   28.9401   45.6963 H   0  0  0  0  0  0  0  0  0  0  0  0
  1  2  1  0
  2  3  2  0
  3  4  1  0
  4  5  2  0
  4  6  1  0
  6  7  2  0
  7  8  1  0
  7  9  1  0
  9 10  2  0
 10 11  1  0
 10 12  1  0
 12 13  1  0
 13 14  1  0
 14 15  1  0
 14 16  1  0
 14 17  1  0
 12 18  2  0
 18 19  1  0
 18 20  1  0
 20 21  1  0
 20 22  2  0
 22 23  1  0
 23 24  1  0
 24 25  1  0
 24 26  1  0
 24 27  1  0
  6 28  1  0
 28 29  1  0
 28 30  1  0
 28 31  1  0
 31 32  1  0
 32 33  1  0
 32 34  1  0
  2 35  1  0
 35 36  2  0
 36 37  1  0
 36 38  1  0
 38 39  1  0
 38 40  2  0
 40 41  1  0
 40 42  1  0
 42 43  1  0
 43 44  1  0
 44 45  1  0
 44 46  1  0
 44 47  1  0
 42 48  2  0
 48 49  1  0
 32  3  1  0
 48 35  1  0
 22  9  1  0
M  CHG  1  41  -1
M  END
>  <UniqueID>  (18) 
16

>  <SMILES>  (18) 
COc1ccc(OC)c(/C=C2\COC/C(=C\c3ccc([O-])c(OC)c3)C2=O)c1

>  <Energy>  (18) 
69.56062500977403

>  <Genealogy>  (18) 
COc1ccc(OC)c(C=C2COCC(=Cc3ccc([O-])c(OC)c3)C2=O)c1 (protonated)
COc1ccc(OC)c(/C=C2\COC/C(=C\c3ccc([O-])c(OC)c3)C2=O)c1 (cis-trans isomerization)
COc1ccc(OC)c(/C=C2\COC/C(=C\c3ccc([O-])c(OC)c3)C2=O)c1 (3D coordinates assigned)
COc1ccc(OC)c(/C=C2\COC/C(=C\c3ccc([O-])c(OC)c3)C2=O)c1 (nonaromatic ring conformer: 69.56062500977403 kcal/mol)

>  <smiles>  (18) 
COc1ccc(OC)c(C=C2COCC(=Cc3ccc(O)c(OC)c3)C2=O)c1

>  <score_type>  (18) 
oracle

>  <origin>  (18) 
adg

>  <m_score__min__energy>  (18) 
-11.59

>  <m_primary>  (18) 
energy

$$$$
18:0
     RDKit          3D

 33 34  0  0  0  0  0  0  0  0999 V2000
   59.7630   33.8340   49.8760 C   0  0  0  0  0  0  0  0  0  0  0  0
   61.0760   33.1360   49.5030 C   0  0  0  0  0  0  0  0  0  0  0  0
   61.2810   33.0320   48.0330 N   0  0  0  0  0  0  0  0  0  0  0  0
   62.7220   32.8590   47.7060 C   0  0  0  0  0  0  0  0  0  0  0  0
   63.1920   33.8000   46.5890 C   0  0  0  0  0  0  0  0  0  0  0  0
   60.7040   34.1850   47.2900 C   0  0  0  0  0  0  0  0  0  0  0  0
   59.7580   33.7800   46.1890 C   0  0  0  0  0  0  0  0  0  0  0  0
   59.2110   34.6160   45.2390 C   0  0  0  0  0  0  0  0  0  0  0  0
   58.4600   33.8800   44.4580 O   0  0  0  0  0  0  0  0  0  0  0  0
   58.5360   32.6430   44.8990 C   0  0  0  0  0  0  0  0  0  0  0  0
   57.8320   31.5150   44.2810 C   0  0  0  0  0  0  0  0  0  0  0  0
   57.3710   31.4630   42.9730 C   0  0  0  0  0  0  0  0  0  0  0  0
   56.7370   30.2550   42.6610 C   0  0  0  0  0  0  0  0  0  0  0  0
   56.6970   29.3560   43.7190 C   0  0  0  0  0  0  0  0  0  0  0  0
   57.4530   30.0660   45.0440 S   0  0  0  0  0  0  0  0  0  0  0  0
   59.3340   32.5200   45.9810 N   0  0  0  0  0  0  0  0  0  0  0  0
   59.6718   33.8825   50.9711 H   0  0  0  0  0  0  0  0  0  0  0  0
   59.7592   34.8532   49.4622 H   0  0  0  0  0  0  0  0  0  0  0  0
   58.9160   33.2671   49.4622 H   0  0  0  0  0  0  0  0  0  0  0  0
   61.9115   33.7071   49.9340 H   0  0  0  0  0  0  0  0  0  0  0  0
   61.0297   32.1121   49.9024 H   0  0  0  0  0  0  0  0  0  0  0  0
   60.7690   32.1830   47.6960 H   0  0  0  0  0  0  0  0  0  0  0  0
   63.3150   33.0619   48.6100 H   0  0  0  0  0  0  0  0  0  0  0  0
   62.8611   31.8269   47.3519 H   0  0  0  0  0  0  0  0  0  0  0  0
   63.6417   34.7003   47.0330 H   0  0  0  0  0  0  0  0  0  0  0  0
   63.9391   33.2858   45.9666 H   0  0  0  0  0  0  0  0  0  0  0  0
   62.3321   34.0885   45.9666 H   0  0  0  0  0  0  0  0  0  0  0  0
   60.1569   34.8195   48.0028 H   0  0  0  0  0  0  0  0  0  0  0  0
   61.5427   34.7159   46.8160 H   0  0  0  0  0  0  0  0  0  0  0  0
   59.3749   35.7003   45.1528 H   0  0  0  0  0  0  0  0  0  0  0  0
   57.4916   32.2873   42.2547 H   0  0  0  0  0  0  0  0  0  0  0  0
   56.3103   30.0378   41.6706 H   0  0  0  0  0  0  0  0  0  0  0  0
   56.2481   28.3521   43.6948 H   0  0  0  0  0  0  0  0  0  0  0  0
  1  2  1  0
  2  3  1  0
  3  4  1  0
  4  5  1  0
  3  6  1  0
  6  7  1  0
  7  8  2  0
  8  9  1  0
  9 10  1  0
 10 11  1  0
 11 12  2  0
 12 13  1  0
 13 14  2  0
 14 15  1  0
 10 16  2  0
 16  7  1  0
 15 11  1  0
  1 17  1  0
  1 18  1  0
  1 19  1  0
  2 20  1  0
  2 21  1  0
  3 22  1  0
  4 23  1  0
  4 24  1  0
  5 25  1  0
  5 26  1  0
  5 27  1  0
  6 28  1  0
  6 29  1  0
  8 30  1  0
 12 31  1  0
 13 32  1  0
 14 33  1  0
M  CHG  1   3   1
M  END
>  <UniqueID>  (19) 
17

>  <SMILES>  (19) 
CC[NH+](CC)Cc1coc(-c2cccs2)n1

>  <Energy>  (19) 
88.42405705578817

>  <Genealogy>  (19) 
CC[NH+](CC)Cc1coc(-c2cccs2)n1 (protonated)
CC[NH+](CC)Cc1coc(-c2cccs2)n1 (3D coordinates assigned)
CC[NH+](CC)Cc1coc(-c2cccs2)n1 (optimized conformer: 88.42405705578817 kcal/mol)

>  <smiles>  (19) 
CCN(CC)Cc1coc(-c2cccs2)n1

>  <score_type>  (19) 
oracle

>  <origin>  (19) 
adg

>  <m_score__min__energy>  (19) 
-4.0199999999999996

>  <m_primary>  (19) 
energy

$$$$
19:0
     RDKit          3D

 33 35  0  0  0  0  0  0  0  0999 V2000
   61.9450   34.1030   46.3610 O   0  0  0  0  0  0  0  0  0  0  0  0
   60.9140   33.5500   46.8270 C   0  0  0  0  0  0  0  0  0  0  0  0
   61.0490   32.4030   47.7820 C   0  0  0  0  0  0  0  0  0  0  0  0
   59.7370   31.5950   47.8810 C   0  0  2  0  0  0  0  0  0  0  0  0
   59.4650   30.7610   46.6970 N   0  0  0  0  0  0  0  0  0  0  0  0
   58.2800   30.4030   46.1600 C   0  0  0  0  0  0  0  0  0  0  0  0
   58.5660   29.5600   45.1090 C   0  0  0  0  0  0  0  0  0  0  0  0
   57.5780   28.8190   44.2710 C   0  0  0  0  0  0  0  0  0  0  0  0
   56.3700   30.0780   43.4340 Br  0  0  0  0  0  0  0  0  0  0  0  0
   59.9030   29.4090   45.0280 N   0  0  0  0  0  0  0  0  0  0  0  0
   60.4120   30.1560   45.9940 N   0  0  0  0  0  0  0  0  0  0  0  0
   58.5490   32.5320   48.1740 C   0  0  0  0  0  0  0  0  0  0  0  0
   58.3950   33.6900   47.1570 C   0  0  2  0  0  0  0  0  0  0  0  0
   57.3430   33.4320   46.0810 C   0  0  0  0  0  0  0  0  0  0  0  0
   57.8200   34.2390   44.8770 C   0  0  0  0  0  0  0  0  0  0  0  0
   59.3340   34.3590   45.0370 C   0  0  0  0  0  0  0  0  0  0  0  0
   59.6130   33.9900   46.4150 N   0  0  0  0  0  0  0  0  0  0  0  0
   61.8529   31.7387   47.4321 H   0  0  0  0  0  0  0  0  0  0  0  0
   61.2825   32.8074   48.7780 H   0  0  0  0  0  0  0  0  0  0  0  0
   59.8678   30.8953   48.7196 H   0  0  0  0  0  0  0  0  0  0  0  0
   57.2821   30.7217   46.4955 H   0  0  0  0  0  0  0  0  0  0  0  0
   58.1097   28.2494   43.4946 H   0  0  0  0  0  0  0  0  0  0  0  0
   57.0048   28.1269   44.9054 H   0  0  0  0  0  0  0  0  0  0  0  0
   61.4360   30.2380   46.1860 H   0  0  0  0  0  0  0  0  0  0  0  0
   57.6255   31.9345   48.1604 H   0  0  0  0  0  0  0  0  0  0  0  0
   58.7408   32.9925   49.1544 H   0  0  0  0  0  0  0  0  0  0  0  0
   58.1058   34.5252   47.8118 H   0  0  0  0  0  0  0  0  0  0  0  0
   57.2927   32.3609   45.8356 H   0  0  0  0  0  0  0  0  0  0  0  0
   56.3332   33.7234   46.4057 H   0  0  0  0  0  0  0  0  0  0  0  0
   57.5730   33.7155   43.9416 H   0  0  0  0  0  0  0  0  0  0  0  0
   57.3361   35.2257   44.8307 H   0  0  0  0  0  0  0  0  0  0  0  0
   59.8484   33.6759   44.3451 H   0  0  0  0  0  0  0  0  0  0  0  0
   59.6877   35.3753   44.8087 H   0  0  0  0  0  0  0  0  0  0  0  0
  1  2  2  0
  2  3  1  0
  3  4  1  0
  4  5  1  0
  5  6  1  0
  6  7  2  0
  7  8  1  0
  8  9  1  0
  7 10  1  0
 10 11  2  0
  4 12  1  0
 12 13  1  0
 13 14  1  0
 14 15  1  0
 15 16  1  0
 16 17  1  0
 17  2  1  0
 11  5  1  0
 17 13  1  0
  3 18  1  0
  3 19  1  0
  4 20  1  1
  6 21  1  0
  8 22  1  0
  8 23  1  0
 11 24  1  0
 12 25  1  0
 12 26  1  0
 13 27  1  1
 14 28  1  0
 14 29  1  0
 15 30  1  0
 15 31  1  0
 16 32  1  0
 16 33  1  0
M  CHG  1  11   1
M  END
>  <UniqueID>  (20) 
18

>  <SMILES>  (20) 
O=C1C[C@H](n2cc(CBr)n[nH+]2)C[C@@H]2CCCN12

>  <Energy>  (20) 
71.78518883318478

>  <Genealogy>  (20) 
O=C1CC(n2cc(CBr)n[nH+]2)CC2CCCN12 (protonated)
O=C1C[C@H](n2cc(CBr)n[nH+]2)C[C@@H]2CCCN12 (chirality)
O=C1C[C@H](n2cc(CBr)n[nH+]2)C[C@@H]2CCCN12 (3D coordinates assigned)
O=C1C[C@H](n2cc(CBr)n[nH+]2)C[C@@H]2CCCN12 (nonaromatic ring conformer: 71.78518883318478 kcal/mol)

>  <smiles>  (20) 
O=C1CC(n2cc(CBr)nn2)CC2CCCN12

>  <score_type>  (20) 
oracle

>  <origin>  (20) 
adg

>  <m_score__min__energy>  (20) 
-5.2800000000000002

>  <m_primary>  (20) 
energy

$$$$
20:0
     RDKit          3D

 36 38  0  0  0  0  0  0  0  0999 V2000
   58.1440   26.7270   42.2990 C   0  0  0  0  0  0  0  0  0  0  0  0
   57.7720   26.3370   43.6610 N   0  0  0  0  0  0  0  0  0  0  0  0
   58.2250   27.3280   44.6490 C   0  0  0  0  0  0  0  0  0  0  0  0
   57.0380   28.0360   45.3120 C   0  0  0  0  0  0  0  0  0  0  0  0
   57.1580   29.4850   45.1740 N   0  0  0  0  0  0  0  0  0  0  0  0
   58.1650   30.2420   45.6460 C   0  0  0  0  0  0  0  0  0  0  0  0
   57.9370   31.5530   45.2620 C   0  0  0  0  0  0  0  0  0  0  0  0
   58.7770   32.7430   45.5490 C   0  0  0  0  0  0  0  0  0  0  0  0
   58.4510   33.9950   45.0020 C   0  0  0  0  0  0  0  0  0  0  0  0
   59.2510   35.1020   45.2830 C   0  0  0  0  0  0  0  0  0  0  0  0
   60.3410   34.9720   46.0810 N   0  0  0  0  0  0  0  0  0  0  0  0
   60.7010   33.7820   46.6340 C   0  0  0  0  0  0  0  0  0  0  0  0
   61.9420   33.7720   47.5040 C   0  0  0  0  0  0  0  0  0  0  0  0
   63.2920   33.8120   46.8000 C   0  0  0  0  0  0  0  0  0  0  0  0
   62.8170   32.5260   47.4650 C   0  0  0  0  0  0  0  0  0  0  0  0
   59.9130   32.6410   46.3710 C   0  0  0  0  0  0  0  0  0  0  0  0
   56.7520   31.5030   44.5390 C   0  0  0  0  0  0  0  0  0  0  0  0
   56.3040   30.2340   44.4950 N   0  0  0  0  0  0  0  0  0  0  0  0
   58.9027   27.5224   42.3397 H   0  0  0  0  0  0  0  0  0  0  0  0
   58.5542   25.8558   41.7673 H   0  0  0  0  0  0  0  0  0  0  0  0
   57.2544   27.0956   41.7673 H   0  0  0  0  0  0  0  0  0  0  0  0
   56.7260   26.3050   43.6970 H   0  0  0  0  0  0  0  0  0  0  0  0
   58.8159   26.8174   45.4237 H   0  0  0  0  0  0  0  0  0  0  0  0
   58.8337   28.0829   44.1297 H   0  0  0  0  0  0  0  0  0  0  0  0
   56.1056   27.7037   44.8323 H   0  0  0  0  0  0  0  0  0  0  0  0
   57.0281   27.7825   46.3823 H   0  0  0  0  0  0  0  0  0  0  0  0
   59.0214   29.8820   46.2351 H   0  0  0  0  0  0  0  0  0  0  0  0
   57.5682   34.1018   44.3546 H   0  0  0  0  0  0  0  0  0  0  0  0
   58.9978   36.0838   44.8565 H   0  0  0  0  0  0  0  0  0  0  0  0
   61.4610   34.3602   48.2994 H   0  0  0  0  0  0  0  0  0  0  0  0
   63.3385   33.8793   45.7030 H   0  0  0  0  0  0  0  0  0  0  0  0
   64.1910   34.4413   46.8767 H   0  0  0  0  0  0  0  0  0  0  0  0
   62.5206   31.6648   46.8482 H   0  0  0  0  0  0  0  0  0  0  0  0
   63.2310   31.8422   48.2207 H   0  0  0  0  0  0  0  0  0  0  0  0
   60.1881   31.6705   46.8098 H   0  0  0  0  0  0  0  0  0  0  0  0
   56.2557   32.3675   44.0738 H   0  0  0  0  0  0  0  0  0  0  0  0
  1  2  1  0
  2  3  1  0
  3  4  1  0
  4  5  1  0
  5  6  1  0
  6  7  2  0
  7  8  1  0
  8  9  2  0
  9 10  1  0
 10 11  2  0
 11 12  1  0
 12 13  1  0
 13 14  1  0
 14 15  1  0
 12 16  2  0
  7 17  1  0
 17 18  2  0
 18  5  1  0
 16  8  1  0
 15 13  1  0
  1 19  1  0
  1 20  1  0
  1 21  1  0
  2 22  1  0
  3 23  1  0
  3 24  1  0
  4 25  1  0
  4 26  1  0
  6 27  1  0
  9 28  1  0
 10 29  1  0
 13 30  1  0
 14 31  1  0
 14 32  1  0
 15 33  1  0
 15 34  1  0
 16 35  1  0
 17 36  1  0
M  END
>  <UniqueID>  (21) 
19

>  <SMILES>  (21) 
CNCCn1cc(-c2ccnc(C3CC3)c2)cn1

>  <Energy>  (21) 
333.11473627713303

>  <Genealogy>  (21) 
CNCCn1cc(-c2ccnc(C3CC3)c2)cn1 (3D coordinates assigned)
CNCCn1cc(-c2ccnc(C3CC3)c2)cn1 (nonaromatic ring conformer: 333.11473627713303 kcal/mol)

>  <smiles>  (21) 
CNCCn1cc(-c2ccnc(C3CC3)c2)cn1

>  <score_type>  (21) 
oracle

>  <origin>  (21) 
adg

>  <m_score__min__energy>  (21) 
-6.6900000000000004

>  <m_primary>  (21) 
energy

$$$$
21:0
     RDKit          3D

 44 45  0  0  0  0  0  0  0  0999 V2000
   54.4880   25.0230   45.5980 C   0  0  0  0  0  0  0  0  0  0  0  0
   54.9390   26.3150   45.9910 O   0  0  0  0  0  0  0  0  0  0  0  0
   56.2870   26.6940   46.0800 C   0  0  0  0  0  0  0  0  0  0  0  0
   57.2640   25.8540   46.6490 C   0  0  0  0  0  0  0  0  0  0  0  0
   58.5960   26.2700   46.7230 C   0  0  0  0  0  0  0  0  0  0  0  0
   58.9660   27.5230   46.2330 C   0  0  0  0  0  0  0  0  0  0  0  0
   58.0060   28.3640   45.6660 C   0  0  0  0  0  0  0  0  0  0  0  0
   56.6610   27.9540   45.5840 C   0  0  0  0  0  0  0  0  0  0  0  0
   55.6670   28.7670   45.0180 O   0  0  0  0  0  0  0  0  0  0  0  0
   55.8230   29.5210   43.8170 C   0  0  0  0  0  0  0  0  0  0  0  0
   56.3020   30.9340   44.1480 C   0  0  0  0  0  0  0  0  0  0  0  0
   57.8160   31.0800   43.9360 C   0  0  0  0  0  0  0  0  0  0  0  0
   58.5150   31.7070   45.1470 C   0  0  0  0  0  0  0  0  0  0  0  0
   57.8040   32.9380   45.5720 N   0  0  0  0  0  0  0  0  0  0  0  0
   57.7630   33.1050   47.0380 C   0  0  0  0  0  0  0  0  0  0  0  0
   59.1540   33.4060   47.6350 C   0  0  0  0  0  0  0  0  0  0  0  0
   60.0780   34.1410   46.6530 C   0  0  0  0  0  0  0  0  0  0  0  0
   59.2770   35.0050   45.6780 C   0  0  0  0  0  0  0  0  0  0  0  0
   58.2630   34.1650   44.8720 C   0  0  0  0  0  0  0  0  0  0  0  0
   54.2775   24.4200   46.4936 H   0  0  0  0  0  0  0  0  0  0  0  0
   53.5711   25.1214   44.9984 H   0  0  0  0  0  0  0  0  0  0  0  0
   55.2670   24.5294   44.9984 H   0  0  0  0  0  0  0  0  0  0  0  0
   56.9771   24.8655   47.0371 H   0  0  0  0  0  0  0  0  0  0  0  0
   59.3540   25.6087   47.1682 H   0  0  0  0  0  0  0  0  0  0  0  0
   60.0149   27.8487   46.2934 H   0  0  0  0  0  0  0  0  0  0  0  0
   58.3017   29.3513   45.2816 H   0  0  0  0  0  0  0  0  0  0  0  0
   56.5630   29.0273   43.1700 H   0  0  0  0  0  0  0  0  0  0  0  0
   54.8550   29.5793   43.2978 H   0  0  0  0  0  0  0  0  0  0  0  0
   55.7793   31.6501   43.4969 H   0  0  0  0  0  0  0  0  0  0  0  0
   56.0813   31.1337   45.2070 H   0  0  0  0  0  0  0  0  0  0  0  0
   58.2457   30.0835   43.7563 H   0  0  0  0  0  0  0  0  0  0  0  0
   57.9725   31.7463   43.0749 H   0  0  0  0  0  0  0  0  0  0  0  0
   58.5192   30.9855   45.9773 H   0  0  0  0  0  0  0  0  0  0  0  0
   59.5468   31.9678   44.8690 H   0  0  0  0  0  0  0  0  0  0  0  0
   57.0869   33.9383   47.2798 H   0  0  0  0  0  0  0  0  0  0  0  0
   57.4087   32.1591   47.4735 H   0  0  0  0  0  0  0  0  0  0  0  0
   59.0240   34.0317   48.5303 H   0  0  0  0  0  0  0  0  0  0  0  0
   59.6264   32.4421   47.8751 H   0  0  0  0  0  0  0  0  0  0  0  0
   60.7653   34.7850   47.2212 H   0  0  0  0  0  0  0  0  0  0  0  0
   60.6369   33.3910   46.0742 H   0  0  0  0  0  0  0  0  0  0  0  0
   58.7319   35.7727   46.2468 H   0  0  0  0  0  0  0  0  0  0  0  0
   59.9811   35.4656   44.9694 H   0  0  0  0  0  0  0  0  0  0  0  0
   57.3843   34.7922   44.6611 H   0  0  0  0  0  0  0  0  0  0  0  0
   58.7777   33.8361   43.9572 H   0  0  0  0  0  0  0  0  0  0  0  0
  1  2  1  0
  2  3  1  0
  3  4  2  0
  4  5  1  0
  5  6  2  0
  6  7  1  0
  7  8  2  0
  8  9  1  0
  9 10  1  0
 10 11  1  0
 11 12  1  0
 12 13  1  0
 13 14  1  0
 14 15  1  0
 15 16  1  0
 16 17  1  0
 17 18  1  0
 18 19  1  0
  8  3  1  0
 19 14  1  0
  1 20  1  0
  1 21  1  0
  1 22  1  0
  4 23  1  0
  5 24  1  0
  6 25  1  0
  7 26  1  0
 10 27  1  0
 10 28  1  0
 11 29  1  0
 11 30  1  0
 12 31  1  0
 12 32  1  0
 13 33  1  0
 13 34  1  0
 15 35  1  0
 15 36  1  0
 16 37  1  0
 16 38  1  0
 17 39  1  0
 17 40  1  0
 18 41  1  0
 18 42  1  0
 19 43  1  0
 19 44  1  0
M  END
>  <UniqueID>  (22) 
20

>  <SMILES>  (22) 
COc1ccccc1OCCCCN1CCCCC1

>  <Energy>  (22) 
45.30313576521877

>  <Genealogy>  (22) 
COc1ccccc1OCCCCN1CCCCC1 (3D coordinates assigned)
COc1ccccc1OCCCCN1CCCCC1 (nonaromatic ring conformer: 45.30313576521877 kcal/mol)

>  <smiles>  (22) 
COc1ccccc1OCCCCN1CCCCC1

>  <score_type>  (22) 
oracle

>  <origin>  (22) 
adg

>  <m_score__min__energy>  (22) 
-7.9100000000000001

>  <m_primary>  (22) 
energy

$$$$
22:0
     RDKit          3D

 34 36  0  0  0  0  0  0  0  0999 V2000
   59.8838   33.2560   49.6841 H   0  0  0  0  0  0  0  0  0  0  0  0
   59.7830   33.5280   48.6230 C   0  0  0  0  0  0  0  0  0  0  0  0
   58.4390   33.2350   47.6550 S   0  0  0  0  0  0  0  0  0  0  0  0
   59.0700   33.9250   46.2560 C   0  0  0  0  0  0  0  0  0  0  0  0
   58.3490   34.0610   44.9490 C   0  0  0  0  0  0  0  0  0  0  0  0
   58.9902   33.6633   44.1485 H   0  0  0  0  0  0  0  0  0  0  0  0
   58.1293   35.1279   44.7960 H   0  0  0  0  0  0  0  0  0  0  0  0
   57.0150   33.3010   44.9360 C   0  0  0  0  0  0  0  0  0  0  0  0
   56.2709   33.9002   44.3908 H   0  0  0  0  0  0  0  0  0  0  0  0
   56.7088   33.1369   45.9797 H   0  0  0  0  0  0  0  0  0  0  0  0
   57.1360   31.9500   44.2690 C   0  0  0  0  0  0  0  0  0  0  0  0
   58.0210   31.8130   43.3830 O   0  0  0  0  0  0  0  0  0  0  0  0
   56.3690   30.7880   44.6340 N   0  0  0  0  0  0  0  0  0  0  0  0
   56.7710   29.6160   45.0300 C   0  0  0  0  0  0  0  0  0  0  0  0
   55.9570   28.5560   45.2500 N   0  0  0  0  0  0  0  0  0  0  0  0
   56.6650   27.4820   45.6810 C   0  0  0  0  0  0  0  0  0  0  0  0
   56.0980   26.2500   46.0220 C   0  0  0  0  0  0  0  0  0  0  0  0
   54.7090   26.0850   45.9140 O   0  0  0  0  0  0  0  0  0  0  0  0
   54.0720   24.8510   45.6010 C   0  0  0  0  0  0  0  0  0  0  0  0
   53.8033   24.3305   46.5321 H   0  0  0  0  0  0  0  0  0  0  0  0
   53.1621   25.0464   45.0145 H   0  0  0  0  0  0  0  0  0  0  0  0
   54.7583   24.2225   45.0145 H   0  0  0  0  0  0  0  0  0  0  0  0
   56.9600   25.2230   46.4730 C   0  0  0  0  0  0  0  0  0  0  0  0
   56.5432   24.2421   46.7451 H   0  0  0  0  0  0  0  0  0  0  0  0
   58.3480   25.4450   46.5770 C   0  0  0  0  0  0  0  0  0  0  0  0
   59.0058   24.6362   46.9280 H   0  0  0  0  0  0  0  0  0  0  0  0
   58.8960   26.6900   46.2360 C   0  0  0  0  0  0  0  0  0  0  0  0
   59.9777   26.8731   46.3157 H   0  0  0  0  0  0  0  0  0  0  0  0
   58.0320   27.6870   45.7940 C   0  0  0  0  0  0  0  0  0  0  0  0
   58.3950   29.2630   45.3440 S   0  0  0  0  0  0  0  0  0  0  0  0
   60.3480   34.3970   46.5310 C   0  0  0  0  0  0  0  0  0  0  0  0
   60.9833   34.8965   45.7847 H   0  0  0  0  0  0  0  0  0  0  0  0
   60.7440   34.1720   47.8540 C   0  0  0  0  0  0  0  0  0  0  0  0
   61.7247   34.4766   48.2483 H   0  0  0  0  0  0  0  0  0  0  0  0
  1  2  1  0
  2  3  1  0
  3  4  1  0
  4  5  1  0
  5  6  1  0
  5  7  1  0
  5  8  1  0
  8  9  1  0
  8 10  1  0
  8 11  1  0
 11 12  2  0
 11 13  1  0
 13 14  2  0
 14 15  1  0
 15 16  1  0
 16 17  2  0
 17 18  1  0
 18 19  1  0
 19 20  1  0
 19 21  1  0
 19 22  1  0
 17 23  1  0
 23 24  1  0
 23 25  2  0
 25 26  1  0
 25 27  1  0
 27 28  1  0
 27 29  2  0
 29 30  1  0
  4 31  2  0
 31 32  1  0
 31 33  1  0
 33 34  1  0
 33  2  2  0
 30 14  1  0
 29 16  1  0
M  CHG  1  15  -1
M  END
>  <UniqueID>  (23) 
21

>  <SMILES>  (23) 
COc1cccc2s/c(=N/C(=O)CCc3cccs3)[n-]c12

>  <Energy>  (23) 
94.2374008931603

>  <Genealogy>  (23) 
COc1cccc2sc(=NC(=O)CCc3cccs3)[n-]c12 (protonated)
COc1cccc2s/c(=N/C(=O)CCc3cccs3)[n-]c12 (cis-trans isomerization)
COc1cccc2s/c(=N/C(=O)CCc3cccs3)[n-]c12 (3D coordinates assigned)
COc1cccc2s/c(=N/C(=O)CCc3cccs3)[n-]c12 (optimized conformer: 94.2374008931603 kcal/mol)

>  <smiles>  (23) 
COc1cccc2sc(=NC(=O)CCc3cccs3)[nH]c12

>  <score_type>  (23) 
oracle

>  <origin>  (23) 
adg

>  <m_score__min__energy>  (23) 
-10.25

>  <m_primary>  (23) 
energy

$$$$
23:0
     RDKit          3D

 40 42  0  0  0  0  0  0  0  0999 V2000
   61.6273   34.7017   50.4534 H   0  0  0  0  0  0  0  0  0  0  0  0
   62.5550   34.1980   50.1440 C   0  0  0  0  0  0  0  0  0  0  0  0
   63.6870   34.3570   50.8790 N   0  0  0  0  0  0  0  0  0  0  0  0
   64.8580   33.7520   50.5380 C   0  0  0  0  0  0  0  0  0  0  0  0
   66.0100   33.9290   51.3110 O   0  0  0  0  0  0  0  0  0  0  0  0
   67.2290   33.2500   51.0370 C   0  0  0  0  0  0  0  0  0  0  0  0
   67.7179   32.9777   51.9840 H   0  0  0  0  0  0  0  0  0  0  0  0
   67.0190   32.3389   50.4575 H   0  0  0  0  0  0  0  0  0  0  0  0
   67.8931   33.9082   50.4575 H   0  0  0  0  0  0  0  0  0  0  0  0
   64.9130   32.9430   49.4000 C   0  0  0  0  0  0  0  0  0  0  0  0
   65.8546   32.4509   49.1150 H   0  0  0  0  0  0  0  0  0  0  0  0
   63.7650   32.7640   48.6280 C   0  0  0  0  0  0  0  0  0  0  0  0
   63.8013   32.1274   47.7317 H   0  0  0  0  0  0  0  0  0  0  0  0
   62.5620   33.3940   48.9910 C   0  0  0  0  0  0  0  0  0  0  0  0
   61.3320   33.2130   48.1790 C   0  0  0  0  0  0  0  0  0  0  0  0
   60.4160   34.2700   48.0260 C   0  0  0  0  0  0  0  0  0  0  0  0
   60.6154   35.2370   48.5109 H   0  0  0  0  0  0  0  0  0  0  0  0
   59.2560   34.1050   47.2650 C   0  0  0  0  0  0  0  0  0  0  0  0
   58.5483   34.9399   47.1553 H   0  0  0  0  0  0  0  0  0  0  0  0
   58.9920   32.8780   46.6410 C   0  0  0  0  0  0  0  0  0  0  0  0
   57.8330   32.6980   45.8730 C   0  0  0  0  0  0  0  0  0  0  0  0
   57.1157   33.5233   45.7532 H   0  0  0  0  0  0  0  0  0  0  0  0
   57.5930   31.4620   45.2590 C   0  0  0  0  0  0  0  0  0  0  0  0
   56.5140   31.3070   44.5480 N   0  0  0  0  0  0  0  0  0  0  0  0
   55.9860   30.0810   44.0170 C   0  0  0  0  0  0  0  0  0  0  0  0
   55.7900   29.9930   42.7770 O   0  0  0  0  0  0  0  0  0  0  0  0
   55.6730   28.9720   44.8700 N   0  0  0  0  0  0  0  0  0  0  0  0
   56.6470   27.9690   45.2870 C   0  0  0  0  0  0  0  0  0  0  0  0
   56.1345   27.0072   45.4358 H   0  0  0  0  0  0  0  0  0  0  0  0
   57.1165   28.2989   46.2255 H   0  0  0  0  0  0  0  0  0  0  0  0
   57.7300   27.8010   44.2280 C   0  0  0  0  0  0  0  0  0  0  0  0
   58.7027   27.6501   44.7190 H   0  0  0  0  0  0  0  0  0  0  0  0
   57.4968   26.9283   43.6003 H   0  0  0  0  0  0  0  0  0  0  0  0
   57.7722   28.7033   43.6003 H   0  0  0  0  0  0  0  0  0  0  0  0
   58.4930   30.4500   45.4170 N   0  0  0  0  0  0  0  0  0  0  0  0
   59.6250   30.5920   46.1540 C   0  0  0  0  0  0  0  0  0  0  0  0
   60.3247   29.7492   46.2546 H   0  0  0  0  0  0  0  0  0  0  0  0
   59.9020   31.8110   46.7860 C   0  0  0  0  0  0  0  0  0  0  0  0
   61.0650   31.9810   47.5520 C   0  0  0  0  0  0  0  0  0  0  0  0
   61.7728   31.1464   47.6634 H   0  0  0  0  0  0  0  0  0  0  0  0
  1  2  1  0
  2  3  2  0
  3  4  1  0
  4  5  1  0
  5  6  1  0
  6  7  1  0
  6  8  1  0
  6  9  1  0
  4 10  2  0
 10 11  1  0
 10 12  1  0
 12 13  1  0
 12 14  2  0
 14 15  1  0
 15 16  1  0
 16 17  1  0
 16 18  2  0
 18 19  1  0
 18 20  1  0
 20 21  2  0
 21 22  1  0
 21 23  1  0
 23 24  2  0
 24 25  1  0
 25 26  2  0
 25 27  1  0
 27 28  1  0
 28 29  1  0
 28 30  1  0
 28 31  1  0
 31 32  1  0
 31 33  1  0
 31 34  1  0
 23 35  1  0
 35 36  1  0
 36 37  1  0
 36 38  2  0
 38 39  1  0
 39 40  1  0
 14  2  1  0
 39 15  2  0
 38 20  1  0
M  CHG  2  27  -1  35  -1
M  END
>  <UniqueID>  (24) 
22

>  <SMILES>  (24) 
CC[N-]C(=O)/N=c1/cc2ccc(-c3ccc(OC)nc3)cc2c[n-]1

>  <Energy>  (24) 
47.93356192058397

>  <Genealogy>  (24) 
CC[N-]C(=O)N=c1cc2ccc(-c3ccc(OC)nc3)cc2c[n-]1 (protonated)
CC[N-]C(=O)/N=c1/cc2ccc(-c3ccc(OC)nc3)cc2c[n-]1 (cis-trans isomerization)
CC[N-]C(=O)/N=c1/cc2ccc(-c3ccc(OC)nc3)cc2c[n-]1 (3D coordinates assigned)
CC[N-]C(=O)/N=c1/cc2ccc(-c3ccc(OC)nc3)cc2c[n-]1 (optimized conformer: 47.93356192058397 kcal/mol)

>  <smiles>  (24) 
CCNC(=O)N=c1cc2ccc(-c3ccc(OC)nc3)cc2c[nH]1

>  <score_type>  (24) 
oracle

>  <origin>  (24) 
adg

>  <m_score__min__energy>  (24) 
-9.3000000000000007

>  <m_primary>  (24) 
energy

$$$$
24:0
     RDKit          3D

 60 64  0  0  0  0  0  0  0  0999 V2000
   54.0310   30.1070   51.6180 C   0  0  0  0  0  0  0  0  0  0  0  0
   55.4510   30.0940   52.0000 N   0  0  0  0  0  0  0  0  0  0  0  0
   55.7290   29.0570   53.0080 C   0  0  0  0  0  0  0  0  0  0  0  0
   55.9790   31.4310   52.3670 C   0  0  0  0  0  0  0  0  0  0  0  0
   57.1600   31.9450   51.4860 C   0  0  0  0  0  0  0  0  0  0  0  0
   58.0340   30.7820   50.9200 C   0  0  0  0  0  0  0  0  0  0  0  0
   59.4810   30.7920   51.4280 C   0  0  0  0  0  0  0  0  0  0  0  0
   60.0790   32.1230   51.2490 N   0  0  0  0  0  0  0  0  0  0  0  0
   61.4280   32.2640   50.7570 C   0  0  0  0  0  0  0  0  0  0  0  0
   62.4480   32.4600   51.6440 N   0  0  0  0  0  0  0  0  0  0  0  0
   63.7280   32.6610   51.2230 C   0  0  0  0  0  0  0  0  0  0  0  0
   64.7670   32.8760   52.1420 C   0  0  0  0  0  0  0  0  0  0  0  0
   66.0720   33.0890   51.6840 C   0  0  0  0  0  0  0  0  0  0  0  0
   66.3450   33.0890   50.3120 C   0  0  0  0  0  0  0  0  0  0  0  0
   65.3150   32.8760   49.3900 C   0  0  0  0  0  0  0  0  0  0  0  0
   64.0080   32.6650   49.8420 C   0  0  0  0  0  0  0  0  0  0  0  0
   62.9990   32.4600   48.9590 N   0  0  0  0  0  0  0  0  0  0  0  0
   61.7210   32.2490   49.3700 C   0  0  0  0  0  0  0  0  0  0  0  0
   60.6860   32.0200   48.3450 C   0  0  0  0  0  0  0  0  0  0  0  0
   60.3220   30.7060   47.9850 C   0  0  0  0  0  0  0  0  0  0  0  0
   59.3690   30.4750   46.9710 C   0  0  0  0  0  0  0  0  0  0  0  0
   58.7610   31.5540   46.3060 C   0  0  0  0  0  0  0  0  0  0  0  0
   59.1200   32.8470   46.6910 C   0  0  0  0  0  0  0  0  0  0  0  0
   60.0380   33.0740   47.6870 C   0  0  0  0  0  0  0  0  0  0  0  0
   60.1330   34.4420   47.8500 C   0  0  0  0  0  0  0  0  0  0  0  0
   59.2660   34.9920   46.9130 C   0  0  0  0  0  0  0  0  0  0  0  0
   58.6560   34.0140   46.2040 N   0  0  0  0  0  0  0  0  0  0  0  0
   57.6590   34.1990   45.1510 C   0  0  0  0  0  0  0  0  0  0  0  0
   59.2870   33.3270   51.5380 C   0  0  0  0  0  0  0  0  0  0  0  0
   57.9980   32.9740   52.2810 C   0  0  0  0  0  0  0  0  0  0  0  0
   53.4075   30.1127   52.5242 H   0  0  0  0  0  0  0  0  0  0  0  0
   53.8199   31.0071   51.0220 H   0  0  0  0  0  0  0  0  0  0  0  0
   53.8034   29.2109   51.0220 H   0  0  0  0  0  0  0  0  0  0  0  0
   55.6144   29.4845   54.0150 H   0  0  0  0  0  0  0  0  0  0  0  0
   55.0226   28.2234   52.8809 H   0  0  0  0  0  0  0  0  0  0  0  0
   56.7576   28.6885   52.8809 H   0  0  0  0  0  0  0  0  0  0  0  0
   55.1551   32.1555   52.2876 H   0  0  0  0  0  0  0  0  0  0  0  0
   56.3803   31.3309   53.3863 H   0  0  0  0  0  0  0  0  0  0  0  0
   56.7357   32.4487   50.6049 H   0  0  0  0  0  0  0  0  0  0  0  0
   57.5711   29.8273   51.2102 H   0  0  0  0  0  0  0  0  0  0  0  0
   58.0764   30.9146   49.8288 H   0  0  0  0  0  0  0  0  0  0  0  0
   59.4916   30.5308   52.4965 H   0  0  0  0  0  0  0  0  0  0  0  0
   60.0655   30.0585   50.8532 H   0  0  0  0  0  0  0  0  0  0  0  0
   62.2380   32.4900   52.6670 H   0  0  0  0  0  0  0  0  0  0  0  0
   64.5555   32.8770   53.2215 H   0  0  0  0  0  0  0  0  0  0  0  0
   66.8856   33.2569   52.4050 H   0  0  0  0  0  0  0  0  0  0  0  0
   67.3726   33.2570   49.9573 H   0  0  0  0  0  0  0  0  0  0  0  0
   65.5322   32.8744   48.3117 H   0  0  0  0  0  0  0  0  0  0  0  0
   60.7861   29.8522   48.5004 H   0  0  0  0  0  0  0  0  0  0  0  0
   59.0998   29.4438   46.6988 H   0  0  0  0  0  0  0  0  0  0  0  0
   58.0247   31.3847   45.5065 H   0  0  0  0  0  0  0  0  0  0  0  0
   60.7632   34.9834   48.5709 H   0  0  0  0  0  0  0  0  0  0  0  0
   59.0993   36.0696   46.7683 H   0  0  0  0  0  0  0  0  0  0  0  0
   56.6744   34.3817   45.6063 H   0  0  0  0  0  0  0  0  0  0  0  0
   57.9400   35.0603   44.5272 H   0  0  0  0  0  0  0  0  0  0  0  0
   57.6123   33.2942   44.5272 H   0  0  0  0  0  0  0  0  0  0  0  0
   59.8848   34.0092   52.1602 H   0  0  0  0  0  0  0  0  0  0  0  0
   59.0201   33.8063   50.5846 H   0  0  0  0  0  0  0  0  0  0  0  0
   58.2543   32.5473   53.2619 H   0  0  0  0  0  0  0  0  0  0  0  0
   57.4023   33.8908   52.4015 H   0  0  0  0  0  0  0  0  0  0  0  0
  1  2  1  0
  2  3  1  0
  2  4  1  0
  4  5  1  0
  5  6  1  0
  6  7  1  0
  7  8  1  0
  8  9  1  0
  9 10  2  0
 10 11  1  0
 11 12  2  0
 12 13  1  0
 13 14  2  0
 14 15  1  0
 15 16  2  0
 16 17  1  0
 17 18  2  0
 18 19  1  0
 19 20  2  0
 20 21  1  0
 21 22  2  0
 22 23  1  0
 23 24  2  0
 24 25  1  0
 25 26  2  0
 26 27  1  0
 27 28  1  0
  8 29  1  0
 29 30  1  0
 30  5  1  0
 18  9  1  0
 24 19  1  0
 16 11  1  0
 27 23  1  0
  1 31  1  0
  1 32  1  0
  1 33  1  0
  3 34  1  0
  3 35  1  0
  3 36  1  0
  4 37  1  0
  4 38  1  0
  5 39  1  0
  6 40  1  0
  6 41  1  0
  7 42  1  0
  7 43  1  0
 10 44  1  0
 12 45  1  0
 13 46  1  0
 14 47  1  0
 15 48  1  0
 20 49  1  0
 21 50  1  0
 22 51  1  0
 25 52  1  0
 26 53  1  0
 28 54  1  0
 28 55  1  0
 28 56  1  0
 29 57  1  0
 29 58  1  0
 30 59  1  0
 30 60  1  0
M  CHG  1  10   1
M  END
>  <UniqueID>  (25) 
23

>  <SMILES>  (25) 
CN(C)CC1CCN(c2[nH+]c3ccccc3nc2-c2cccc3c2ccn3C)CC1

>  <Energy>  (25) 
117.42159707011199

>  <Genealogy>  (25) 
CN(C)CC1CCN(c2[nH+]c3ccccc3nc2-c2cccc3c2ccn3C)CC1 (protonated)
CN(C)CC1CCN(c2[nH+]c3ccccc3nc2-c2cccc3c2ccn3C)CC1 (3D coordinates assigned)
CN(C)CC1CCN(c2[nH+]c3ccccc3nc2-c2cccc3c2ccn3C)CC1 (nonaromatic ring conformer: 117.42159707011199 kcal/mol)

>  <smiles>  (25) 
CN(C)CC1CCN(c2nc3ccccc3nc2-c2cccc3c2ccn3C)CC1

>  <score_type>  (25) 
oracle

>  <origin>  (25) 
adg

>  <m_score__min__energy>  (25) 
-6.5899999999999999

>  <m_primary>  (25) 
energy

$$$$
25:0
     RDKit          3D

 48 50  0  0  0  0  0  0  0  0999 V2000
   64.5920   31.1710   50.7060 C   0  0  0  0  0  0  0  0  0  0  0  0
   65.4080   32.2020   49.9310 C   0  0  0  0  0  0  0  0  0  0  0  0
   64.5520   32.9610   49.0200 N   0  0  0  0  0  0  0  0  0  0  0  0
   63.2280   33.3900   49.3880 C   0  0  0  0  0  0  0  0  0  0  0  0
   62.8660   33.3110   50.5950 O   0  0  0  0  0  0  0  0  0  0  0  0
   62.3050   33.8860   48.3920 N   0  0  0  0  0  0  0  0  0  0  0  0
   62.5180   33.5680   46.9710 C   0  0  0  0  0  0  0  0  0  0  0  0
   61.2610   33.8490   46.1390 C   0  0  0  0  0  0  0  0  0  0  0  0
   60.0730   33.3880   46.8710 N   0  0  0  0  0  0  0  0  0  0  0  0
   59.1270   32.4810   46.2810 C   0  0  0  0  0  0  0  0  0  0  0  0
   58.2920   32.8870   45.2290 C   0  0  0  0  0  0  0  0  0  0  0  0
   57.4190   31.9670   44.6460 C   0  0  0  0  0  0  0  0  0  0  0  0
   57.3880   30.6420   45.1000 C   0  0  0  0  0  0  0  0  0  0  0  0
   56.4910   29.6420   44.4770 C   0  0  0  0  0  0  0  0  0  0  0  0
   56.2330   29.7240   43.2480 O   0  0  0  0  0  0  0  0  0  0  0  0
   55.9190   28.5620   45.2310 N   0  0  0  0  0  0  0  0  0  0  0  0
   56.5970   27.3610   45.6270 C   0  0  0  0  0  0  0  0  0  0  0  0
   58.0010   27.2990   45.6960 C   0  0  0  0  0  0  0  0  0  0  0  0
   58.6350   26.1130   46.0790 C   0  0  0  0  0  0  0  0  0  0  0  0
   57.8740   24.9900   46.4140 C   0  0  0  0  0  0  0  0  0  0  0  0
   56.4780   25.0550   46.3780 C   0  0  0  0  0  0  0  0  0  0  0  0
   55.8400   26.2380   45.9980 C   0  0  0  0  0  0  0  0  0  0  0  0
   54.4870   26.2870   45.9700 F   0  0  0  0  0  0  0  0  0  0  0  0
   58.2290   30.2790   46.1620 C   0  0  0  0  0  0  0  0  0  0  0  0
   59.0760   31.1900   46.7090 N   0  0  0  0  0  0  0  0  0  0  0  0
   59.8570   33.8370   48.2560 C   0  0  0  0  0  0  0  0  0  0  0  0
   61.0760   34.5890   48.7930 C   0  0  0  0  0  0  0  0  0  0  0  0
   64.7228   31.3362   51.7856 H   0  0  0  0  0  0  0  0  0  0  0  0
   63.5283   31.2742   50.4455 H   0  0  0  0  0  0  0  0  0  0  0  0
   64.9368   30.1595   50.4455 H   0  0  0  0  0  0  0  0  0  0  0  0
   65.8827   32.8947   50.6415 H   0  0  0  0  0  0  0  0  0  0  0  0
   66.1731   31.6761   49.3411 H   0  0  0  0  0  0  0  0  0  0  0  0
   64.8880   33.0880   48.0440 H   0  0  0  0  0  0  0  0  0  0  0  0
   63.3457   34.1824   46.5872 H   0  0  0  0  0  0  0  0  0  0  0  0
   62.7550   32.4970   46.8882 H   0  0  0  0  0  0  0  0  0  0  0  0
   61.1795   34.9300   45.9523 H   0  0  0  0  0  0  0  0  0  0  0  0
   61.3300   33.3142   45.1802 H   0  0  0  0  0  0  0  0  0  0  0  0
   58.3252   33.9247   44.8657 H   0  0  0  0  0  0  0  0  0  0  0  0
   56.7541   32.2829   43.8286 H   0  0  0  0  0  0  0  0  0  0  0  0
   58.6018   28.1864   45.4478 H   0  0  0  0  0  0  0  0  0  0  0  0
   59.7333   26.0640   46.1166 H   0  0  0  0  0  0  0  0  0  0  0  0
   58.3735   24.0545   46.7061 H   0  0  0  0  0  0  0  0  0  0  0  0
   55.8805   24.1723   46.6496 H   0  0  0  0  0  0  0  0  0  0  0  0
   58.2029   29.2516   46.5542 H   0  0  0  0  0  0  0  0  0  0  0  0
   58.9832   34.5046   48.2841 H   0  0  0  0  0  0  0  0  0  0  0  0
   59.6903   32.9510   48.8862 H   0  0  0  0  0  0  0  0  0  0  0  0
   61.0871   35.6093   48.3821 H   0  0  0  0  0  0  0  0  0  0  0  0
   61.0228   34.6350   49.8907 H   0  0  0  0  0  0  0  0  0  0  0  0
  1  2  1  0
  2  3  1  0
  3  4  1  0
  4  5  2  0
  4  6  1  0
  6  7  1  0
  7  8  1  0
  8  9  1  0
  9 10  1  0
 10 11  2  0
 11 12  1  0
 12 13  2  0
 13 14  1  0
 14 15  2  0
 14 16  1  0
 16 17  1  0
 17 18  2  0
 18 19  1  0
 19 20  2  0
 20 21  1  0
 21 22  2  0
 22 23  1  0
 13 24  1  0
 24 25  2  0
  9 26  1  0
 26 27  1  0
 27  6  1  0
 25 10  1  0
 22 17  1  0
  1 28  1  0
  1 29  1  0
  1 30  1  0
  2 31  1  0
  2 32  1  0
  3 33  1  0
  7 34  1  0
  7 35  1  0
  8 36  1  0
  8 37  1  0
 11 38  1  0
 12 39  1  0
 18 40  1  0
 19 41  1  0
 20 42  1  0
 21 43  1  0
 24 44  1  0
 26 45  1  0
 26 46  1  0
 27 47  1  0
 27 48  1  0
M  CHG  1  16  -1
M  END
>  <UniqueID>  (26) 
24

>  <SMILES>  (26) 
CCNC(=O)N1CCN(c2ccc(C(=O)[N-]c3ccccc3F)cn2)CC1

>  <Energy>  (26) 
57.78674473613539

>  <Genealogy>  (26) 
CCNC(=O)N1CCN(c2ccc(C(=O)[N-]c3ccccc3F)cn2)CC1 (protonated)
CCNC(=O)N1CCN(c2ccc(C(=O)[N-]c3ccccc3F)cn2)CC1 (3D coordinates assigned)
CCNC(=O)N1CCN(c2ccc(C(=O)[N-]c3ccccc3F)cn2)CC1 (nonaromatic ring conformer: 57.78674473613539 kcal/mol)

>  <smiles>  (26) 
CCNC(=O)N1CCN(c2ccc(C(=O)Nc3ccccc3F)cn2)CC1

>  <score_type>  (26) 
oracle

>  <origin>  (26) 
adg

>  <m_score__min__energy>  (26) 
-10.140000000000001

>  <m_primary>  (26) 
energy

$$$$
26:0
     RDKit          3D

 50 52  0  0  0  0  0  0  0  0999 V2000
   57.0340   30.7040   43.2480 C   0  0  0  0  0  0  0  0  0  0  0  0
   57.2450   31.6800   44.1350 C   0  0  0  0  0  0  0  0  0  0  0  0
   58.4480   32.5820   44.0570 C   0  0  0  0  0  0  0  0  0  0  0  0
   58.0930   33.9580   44.4680 N   0  0  0  0  0  0  0  0  0  0  0  0
   59.2720   34.7470   44.9050 C   0  0  0  0  0  0  0  0  0  0  0  0
   59.5120   34.6970   46.4270 C   0  0  0  0  0  0  0  0  0  0  0  0
   58.9380   33.4630   46.9920 N   0  0  0  0  0  0  0  0  0  0  0  0
   59.3300   33.2810   48.4040 C   0  0  0  0  0  0  0  0  0  0  0  0
   59.4490   31.8160   48.7280 C   0  0  0  0  0  0  0  0  0  0  0  0
   59.7100   31.4110   50.0460 C   0  0  0  0  0  0  0  0  0  0  0  0
   59.7830   30.0530   50.3630 C   0  0  0  0  0  0  0  0  0  0  0  0
   59.6010   29.0890   49.3680 C   0  0  0  0  0  0  0  0  0  0  0  0
   59.3560   29.4740   48.0410 C   0  0  0  0  0  0  0  0  0  0  0  0
   59.1450   28.4630   47.0400 N   0  0  0  0  0  0  0  0  0  0  0  0
   57.9630   28.3820   46.2250 C   0  0  0  0  0  0  0  0  0  0  0  0
   57.2570   29.4120   46.0460 O   0  0  0  0  0  0  0  0  0  0  0  0
   57.5930   27.1160   45.5480 C   0  0  0  0  0  0  0  0  0  0  0  0
   56.6940   26.2120   46.1460 C   0  0  0  0  0  0  0  0  0  0  0  0
   56.3450   25.0240   45.4950 C   0  0  0  0  0  0  0  0  0  0  0  0
   56.8840   24.7270   44.2410 C   0  0  0  0  0  0  0  0  0  0  0  0
   56.4050   23.1040   43.3550 Br  0  0  0  0  0  0  0  0  0  0  0  0
   57.7690   25.6200   43.6330 C   0  0  0  0  0  0  0  0  0  0  0  0
   58.1190   26.8100   44.2790 C   0  0  0  0  0  0  0  0  0  0  0  0
   59.2620   30.8440   47.7310 C   0  0  0  0  0  0  0  0  0  0  0  0
   57.4670   33.4740   46.8570 C   0  0  0  0  0  0  0  0  0  0  0  0
   57.0120   33.9990   45.4770 C   0  0  0  0  0  0  0  0  0  0  0  0
   56.1437   30.0639   43.3359 H   0  0  0  0  0  0  0  0  0  0  0  0
   57.7505   30.5403   42.4296 H   0  0  0  0  0  0  0  0  0  0  0  0
   56.5180   31.8293   44.9469 H   0  0  0  0  0  0  0  0  0  0  0  0
   59.2331   32.1964   44.7240 H   0  0  0  0  0  0  0  0  0  0  0  0
   58.8090   32.6036   43.0181 H   0  0  0  0  0  0  0  0  0  0  0  0
   60.1642   34.3507   44.3981 H   0  0  0  0  0  0  0  0  0  0  0  0
   59.0761   35.7968   44.6414 H   0  0  0  0  0  0  0  0  0  0  0  0
   60.5938   34.7186   46.6252 H   0  0  0  0  0  0  0  0  0  0  0  0
   59.0271   35.5660   46.8957 H   0  0  0  0  0  0  0  0  0  0  0  0
   60.2994   33.7710   48.5776 H   0  0  0  0  0  0  0  0  0  0  0  0
   58.5605   33.7291   49.0498 H   0  0  0  0  0  0  0  0  0  0  0  0
   59.8576   32.1660   50.8323 H   0  0  0  0  0  0  0  0  0  0  0  0
   59.9843   29.7414   51.3986 H   0  0  0  0  0  0  0  0  0  0  0  0
   59.6501   28.0210   49.6267 H   0  0  0  0  0  0  0  0  0  0  0  0
   59.9390   27.8220   46.8200 H   0  0  0  0  0  0  0  0  0  0  0  0
   56.2632   26.4416   47.1318 H   0  0  0  0  0  0  0  0  0  0  0  0
   55.6447   24.3223   45.9716 H   0  0  0  0  0  0  0  0  0  0  0  0
   58.1915   25.3870   42.6444 H   0  0  0  0  0  0  0  0  0  0  0  0
   58.8109   27.5124   43.7913 H   0  0  0  0  0  0  0  0  0  0  0  0
   59.0403   31.1560   46.6997 H   0  0  0  0  0  0  0  0  0  0  0  0
   57.0915   32.4483   46.9873 H   0  0  0  0  0  0  0  0  0  0  0  0
   57.0622   34.1489   47.6255 H   0  0  0  0  0  0  0  0  0  0  0  0
   56.1755   33.3789   45.1225 H   0  0  0  0  0  0  0  0  0  0  0  0
   56.7131   35.0502   45.6025 H   0  0  0  0  0  0  0  0  0  0  0  0
  1  2  2  0
  2  3  1  0
  3  4  1  0
  4  5  1  0
  5  6  1  0
  6  7  1  0
  7  8  1  0
  8  9  1  0
  9 10  2  0
 10 11  1  0
 11 12  2  0
 12 13  1  0
 13 14  1  0
 14 15  1  0
 15 16  2  0
 15 17  1  0
 17 18  2  0
 18 19  1  0
 19 20  2  0
 20 21  1  0
 20 22  1  0
 22 23  2  0
 13 24  2  0
  7 25  1  0
 25 26  1  0
 26  4  1  0
 24  9  1  0
 23 17  1  0
  1 27  1  0
  1 28  1  0
  2 29  1  0
  3 30  1  0
  3 31  1  0
  5 32  1  0
  5 33  1  0
  6 34  1  0
  6 35  1  0
  8 36  1  0
  8 37  1  0
 10 38  1  0
 11 39  1  0
 12 40  1  0
 14 41  1  0
 18 42  1  0
 19 43  1  0
 22 44  1  0
 23 45  1  0
 24 46  1  0
 25 47  1  0
 25 48  1  0
 26 49  1  0
 26 50  1  0
M  END
>  <UniqueID>  (27) 
25

>  <SMILES>  (27) 
C=CCN1CCN(Cc2cccc(NC(=O)c3ccc(Br)cc3)c2)CC1

>  <Energy>  (27) 
66.04495884047766

>  <Genealogy>  (27) 
C=CCN1CCN(Cc2cccc(NC(=O)c3ccc(Br)cc3)c2)CC1 (3D coordinates assigned)
C=CCN1CCN(Cc2cccc(NC(=O)c3ccc(Br)cc3)c2)CC1 (nonaromatic ring conformer: 66.04495884047766 kcal/mol)

>  <smiles>  (27) 
C=CCN1CCN(Cc2cccc(NC(=O)c3ccc(Br)cc3)c2)CC1

>  <score_type>  (27) 
oracle

>  <origin>  (27) 
adg

>  <m_score__min__energy>  (27) 
-9.2400000000000002

>  <m_primary>  (27) 
energy

$$$$
27:0
     RDKit          3D

 43 44  0  0  0  0  0  0  0  0999 V2000
   63.8040   33.4360   48.0520 C   0  0  0  0  0  0  0  0  0  0  0  0
   62.3710   33.8600   48.3640 C   0  0  0  0  0  0  0  0  0  0  0  0
   61.4460   32.7100   48.2590 N   0  0  0  0  0  0  0  0  0  0  0  0
   61.7390   31.7950   47.1330 C   0  0  0  0  0  0  0  0  0  0  0  0
   60.7060   30.6790   46.9600 C   0  0  0  0  0  0  0  0  0  0  0  0
   60.0030   32.9810   48.4860 C   0  0  0  0  0  0  0  0  0  0  0  0
   59.6310   34.4810   48.6020 C   0  0  0  0  0  0  0  0  0  0  0  0
   58.9800   34.9770   47.3680 N   0  0  1  0  0  0  0  0  0  0  0  0
   59.9560   35.3090   46.3000 C   0  0  0  0  0  0  0  0  0  0  0  0
   59.8530   34.2320   45.2040 C   0  0  0  0  0  0  0  0  0  0  0  0
   58.6410   33.5020   45.5100 N   0  0  0  0  0  0  0  0  0  0  0  0
   58.0350   32.5030   44.6650 C   0  0  0  0  0  0  0  0  0  0  0  0
   57.9270   32.7010   43.2760 C   0  0  0  0  0  0  0  0  0  0  0  0
   57.3460   31.7200   42.4650 C   0  0  0  0  0  0  0  0  0  0  0  0
   56.8770   30.5310   43.0280 C   0  0  0  0  0  0  0  0  0  0  0  0
   56.9920   30.3180   44.4040 C   0  0  0  0  0  0  0  0  0  0  0  0
   57.5720   31.2950   45.2190 C   0  0  0  0  0  0  0  0  0  0  0  0
   58.1890   33.9440   46.7760 C   0  0  0  0  0  0  0  0  0  0  0  0
   57.1790   33.4550   47.3520 O   0  0  0  0  0  0  0  0  0  0  0  0
   64.3514   33.2740   48.9923 H   0  0  0  0  0  0  0  0  0  0  0  0
   63.7917   32.5030   47.4695 H   0  0  0  0  0  0  0  0  0  0  0  0
   64.3014   34.2255   47.4695 H   0  0  0  0  0  0  0  0  0  0  0  0
   62.3293   34.2637   49.3864 H   0  0  0  0  0  0  0  0  0  0  0  0
   62.0644   34.6256   47.6361 H   0  0  0  0  0  0  0  0  0  0  0  0
   61.7706   32.3854   46.2054 H   0  0  0  0  0  0  0  0  0  0  0  0
   62.7008   31.3100   47.3559 H   0  0  0  0  0  0  0  0  0  0  0  0
   60.3789   30.3256   47.9490 H   0  0  0  0  0  0  0  0  0  0  0  0
   59.8392   31.0648   46.4033 H   0  0  0  0  0  0  0  0  0  0  0  0
   61.1575   29.8446   46.4033 H   0  0  0  0  0  0  0  0  0  0  0  0
   59.4385   32.5531   47.6445 H   0  0  0  0  0  0  0  0  0  0  0  0
   59.7523   32.5252   49.4552 H   0  0  0  0  0  0  0  0  0  0  0  0
   58.9406   34.6134   49.4481 H   0  0  0  0  0  0  0  0  0  0  0  0
   60.5567   35.0545   48.7576 H   0  0  0  0  0  0  0  0  0  0  0  0
   58.3590   35.7960   47.5730 H   0  0  0  0  0  0  0  0  0  0  0  0
   59.7220   36.2964   45.8753 H   0  0  0  0  0  0  0  0  0  0  0  0
   60.9757   35.3366   46.7116 H   0  0  0  0  0  0  0  0  0  0  0  0
   59.7836   34.6974   44.2097 H   0  0  0  0  0  0  0  0  0  0  0  0
   60.7364   33.5769   45.1837 H   0  0  0  0  0  0  0  0  0  0  0  0
   58.3014   33.6320   42.8254 H   0  0  0  0  0  0  0  0  0  0  0  0
   57.2584   31.8856   41.3811 H   0  0  0  0  0  0  0  0  0  0  0  0
   56.4175   29.7629   42.3886 H   0  0  0  0  0  0  0  0  0  0  0  0
   56.6257   29.3801   44.8470 H   0  0  0  0  0  0  0  0  0  0  0  0
   57.6670   31.1182   46.3005 H   0  0  0  0  0  0  0  0  0  0  0  0
  1  2  1  0
  2  3  1  0
  3  4  1  0
  4  5  1  0
  3  6  1  0
  6  7  1  0
  7  8  1  0
  8  9  1  0
  9 10  1  0
 10 11  1  0
 11 12  1  0
 12 13  2  0
 13 14  1  0
 14 15  2  0
 15 16  1  0
 16 17  2  0
 11 18  1  0
 18 19  2  0
 18  8  1  0
 17 12  1  0
  1 20  1  0
  1 21  1  0
  1 22  1  0
  2 23  1  0
  2 24  1  0
  4 25  1  0
  4 26  1  0
  5 27  1  0
  5 28  1  0
  5 29  1  0
  6 30  1  0
  6 31  1  0
  7 32  1  0
  7 33  1  0
  8 34  1  1
  9 35  1  0
  9 36  1  0
 10 37  1  0
 10 38  1  0
 13 39  1  0
 14 40  1  0
 15 41  1  0
 16 42  1  0
 17 43  1  0
M  CHG  1   8   1
M  END
>  <UniqueID>  (28) 
26

>  <SMILES>  (28) 
CCN(CC)CC[N@H+]1CCN(c2ccccc2)C1=O

>  <Energy>  (28) 
61.39981591469588

>  <Genealogy>  (28) 
CCN(CC)CC[NH+]1CCN(c2ccccc2)C1=O (protonated)
CCN(CC)CC[N@H+]1CCN(c2ccccc2)C1=O (chirality)
CCN(CC)CC[N@H+]1CCN(c2ccccc2)C1=O (3D coordinates assigned)
CCN(CC)CC[N@H+]1CCN(c2ccccc2)C1=O (nonaromatic ring conformer: 61.39981591469588 kcal/mol)

>  <smiles>  (28) 
CCN(CC)CCN1CCN(c2ccccc2)C1=O

>  <score_type>  (28) 
oracle

>  <origin>  (28) 
adg

>  <m_score__min__energy>  (28) 
-5.0599999999999996

>  <m_primary>  (28) 
energy

$$$$
28:0
     RDKit          3D

 42 46  0  0  0  0  0  0  0  0999 V2000
   56.8790   22.0570   43.8400 C   0  0  0  0  0  0  0  0  0  0  0  0
   56.6120   23.1600   43.0270 C   0  0  0  0  0  0  0  0  0  0  0  0
   56.9250   24.4500   43.4670 C   0  0  0  0  0  0  0  0  0  0  0  0
   57.5090   24.6490   44.7320 C   0  0  0  0  0  0  0  0  0  0  0  0
   57.8430   26.0180   45.1960 C   0  0  0  0  0  0  0  0  0  0  0  0
   58.5090   26.2120   46.4300 C   0  0  0  0  0  0  0  0  0  0  0  0
   58.8220   27.5110   46.8770 C   0  0  0  0  0  0  0  0  0  0  0  0
   59.5410   27.7080   48.1540 C   0  0  0  0  0  0  0  0  0  0  0  0
   59.3410   28.8680   48.9190 C   0  0  0  0  0  0  0  0  0  0  0  0
   60.0280   29.0250   50.1260 C   0  0  0  0  0  0  0  0  0  0  0  0
   60.8790   28.0560   50.5560 N   0  0  0  0  0  0  0  0  0  0  0  0
   61.0850   26.9180   49.8420 C   0  0  0  0  0  0  0  0  0  0  0  0
   60.4170   26.7220   48.6310 C   0  0  0  0  0  0  0  0  0  0  0  0
   58.4530   28.5880   46.0610 C   0  0  0  0  0  0  0  0  0  0  0  0
   57.8120   28.3540   44.8620 C   0  0  0  0  0  0  0  0  0  0  0  0
   57.5090   27.1040   44.4290 N   0  0  0  0  0  0  0  0  0  0  0  0
   57.6250   29.6090   44.1720 C   0  0  0  0  0  0  0  0  0  0  0  0
   57.0390   29.8830   42.9350 C   0  0  0  0  0  0  0  0  0  0  0  0
   57.0040   31.2180   42.5000 C   0  0  0  0  0  0  0  0  0  0  0  0
   57.5500   32.2420   43.2990 C   0  0  0  0  0  0  0  0  0  0  0  0
   58.1380   31.9400   44.5400 C   0  0  0  0  0  0  0  0  0  0  0  0
   58.1650   30.6080   44.9590 C   0  0  0  0  0  0  0  0  0  0  0  0
   58.7390   30.0580   46.2330 C   0  0  0  0  0  0  0  0  0  0  0  0
   57.7740   23.5290   45.5440 C   0  0  0  0  0  0  0  0  0  0  0  0
   57.4590   22.2410   45.0970 C   0  0  0  0  0  0  0  0  0  0  0  0
   56.6327   21.0434   43.4907 H   0  0  0  0  0  0  0  0  0  0  0  0
   56.1541   23.0140   42.0375 H   0  0  0  0  0  0  0  0  0  0  0  0
   56.7135   25.3144   42.8205 H   0  0  0  0  0  0  0  0  0  0  0  0
   58.7842   25.3421   47.0445 H   0  0  0  0  0  0  0  0  0  0  0  0
   58.6482   29.6482   48.5708 H   0  0  0  0  0  0  0  0  0  0  0  0
   59.8800   29.9334   50.7285 H   0  0  0  0  0  0  0  0  0  0  0  0
   61.7781   26.1510   50.2180 H   0  0  0  0  0  0  0  0  0  0  0  0
   60.5772   25.7990   48.0544 H   0  0  0  0  0  0  0  0  0  0  0  0
   57.0530   26.9790   43.4980 H   0  0  0  0  0  0  0  0  0  0  0  0
   56.6165   29.0761   42.3183 H   0  0  0  0  0  0  0  0  0  0  0  0
   56.5478   31.4655   41.5301 H   0  0  0  0  0  0  0  0  0  0  0  0
   57.5161   33.2845   42.9497 H   0  0  0  0  0  0  0  0  0  0  0  0
   58.5673   32.7353   45.1670 H   0  0  0  0  0  0  0  0  0  0  0  0
   59.8188   30.2541   46.3082 H   0  0  0  0  0  0  0  0  0  0  0  0
   58.3193   30.4992   47.1491 H   0  0  0  0  0  0  0  0  0  0  0  0
   58.2311   23.6676   46.5349 H   0  0  0  0  0  0  0  0  0  0  0  0
   57.6687   21.3714   45.7372 H   0  0  0  0  0  0  0  0  0  0  0  0
  1  2  2  0
  2  3  1  0
  3  4  2  0
  4  5  1  0
  5  6  2  0
  6  7  1  0
  7  8  1  0
  8  9  2  0
  9 10  1  0
 10 11  2  0
 11 12  1  0
 12 13  2  0
  7 14  2  0
 14 15  1  0
 15 16  2  0
 15 17  1  0
 17 18  2  0
 18 19  1  0
 19 20  2  0
 20 21  1  0
 21 22  2  0
 22 23  1  0
  4 24  1  0
 24 25  2  0
 25  1  1  0
 16  5  1  0
 22 17  1  0
 13  8  1  0
 23 14  1  0
  1 26  1  0
  2 27  1  0
  3 28  1  0
  6 29  1  0
  9 30  1  0
 10 31  1  0
 12 32  1  0
 13 33  1  0
 16 34  1  0
 18 35  1  0
 19 36  1  0
 20 37  1  0
 21 38  1  0
 23 39  1  0
 23 40  1  0
 24 41  1  0
 25 42  1  0
M  CHG  1  16   1
M  END
>  <UniqueID>  (29) 
27

>  <SMILES>  (29) 
c1ccc(-c2cc(-c3ccncc3)c3c([nH+]2)-c2ccccc2C3)cc1

>  <Energy>  (29) 
83.71793834145663

>  <Genealogy>  (29) 
c1ccc(-c2cc(-c3ccncc3)c3c([nH+]2)-c2ccccc2C3)cc1 (protonated)
c1ccc(-c2cc(-c3ccncc3)c3c([nH+]2)-c2ccccc2C3)cc1 (3D coordinates assigned)
c1ccc(-c2cc(-c3ccncc3)c3c([nH+]2)-c2ccccc2C3)cc1 (nonaromatic ring conformer: 83.71793834145663 kcal/mol)

>  <smiles>  (29) 
c1ccc(-c2cc(-c3ccncc3)c3c(n2)-c2ccccc2C3)cc1

>  <score_type>  (29) 
oracle

>  <origin>  (29) 
adg

>  <m_score__min__energy>  (29) 
-6.6299999999999999

>  <m_primary>  (29) 
energy

$$$$
29:0
     RDKit          3D

 32 34  0  0  0  0  0  0  0  0999 V2000
   59.7810   35.6040   47.0900 O   0  0  0  0  0  0  0  0  0  0  0  0
   59.4120   34.5530   46.4950 C   0  0  0  0  0  0  0  0  0  0  0  0
   58.2600   34.5830   45.7140 C   0  0  0  0  0  0  0  0  0  0  0  0
   57.8310   33.4230   45.0840 C   0  0  0  0  0  0  0  0  0  0  0  0
   58.5640   32.2430   45.2450 C   0  0  0  0  0  0  0  0  0  0  0  0
   58.1220   30.9840   44.5950 C   0  0  0  0  0  0  0  0  0  0  0  0
   58.8000   29.7770   44.8490 C   0  0  0  0  0  0  0  0  0  0  0  0
   58.3860   28.5900   44.2360 C   0  0  0  0  0  0  0  0  0  0  0  0
   57.2950   28.5940   43.3660 C   0  0  0  0  0  0  0  0  0  0  0  0
   56.6130   29.7850   43.1050 C   0  0  0  0  0  0  0  0  0  0  0  0
   57.0220   30.9750   43.7150 C   0  0  0  0  0  0  0  0  0  0  0  0
   59.6920   32.2650   46.0170 N   0  0  0  0  0  0  0  0  0  0  0  0
   60.1180   33.3840   46.6230 N   0  0  0  0  0  0  0  0  0  0  0  0
   61.3190   33.3310   47.4180 C   0  0  0  0  0  0  0  0  0  0  0  0
   61.2360   33.1070   48.8020 C   0  0  0  0  0  0  0  0  0  0  0  0
   62.3980   33.0370   49.5770 C   0  0  0  0  0  0  0  0  0  0  0  0
   63.6520   33.1870   48.9750 C   0  0  0  0  0  0  0  0  0  0  0  0
   65.2390   33.0910   50.0340 Br  0  0  0  0  0  0  0  0  0  0  0  0
   63.7430   33.4010   47.5960 C   0  0  0  0  0  0  0  0  0  0  0  0
   62.5830   33.4700   46.8190 C   0  0  0  0  0  0  0  0  0  0  0  0
   57.6940   35.5189   45.5970 H   0  0  0  0  0  0  0  0  0  0  0  0
   56.9226   33.4318   44.4637 H   0  0  0  0  0  0  0  0  0  0  0  0
   59.6608   29.7672   45.5338 H   0  0  0  0  0  0  0  0  0  0  0  0
   58.9216   27.6512   44.4402 H   0  0  0  0  0  0  0  0  0  0  0  0
   56.9718   27.6588   42.8854 H   0  0  0  0  0  0  0  0  0  0  0  0
   55.7532   29.7867   42.4188 H   0  0  0  0  0  0  0  0  0  0  0  0
   56.4814   31.9100   43.5064 H   0  0  0  0  0  0  0  0  0  0  0  0
   60.2590   31.3910   46.1060 H   0  0  0  0  0  0  0  0  0  0  0  0
   60.2521   32.9860   49.2788 H   0  0  0  0  0  0  0  0  0  0  0  0
   62.3260   32.8638   50.6609 H   0  0  0  0  0  0  0  0  0  0  0  0
   64.7290   33.5152   47.1220 H   0  0  0  0  0  0  0  0  0  0  0  0
   62.6597   33.6338   45.7340 H   0  0  0  0  0  0  0  0  0  0  0  0
  1  2  2  0
  2  3  1  0
  3  4  2  0
  4  5  1  0
  5  6  1  0
  6  7  2  0
  7  8  1  0
  8  9  2  0
  9 10  1  0
 10 11  2  0
  5 12  2  0
 12 13  1  0
 13 14  1  0
 14 15  2  0
 15 16  1  0
 16 17  2  0
 17 18  1  0
 17 19  1  0
 19 20  2  0
 13  2  1  0
 20 14  1  0
 11  6  1  0
  3 21  1  0
  4 22  1  0
  7 23  1  0
  8 24  1  0
  9 25  1  0
 10 26  1  0
 11 27  1  0
 12 28  1  0
 15 29  1  0
 16 30  1  0
 19 31  1  0
 20 32  1  0
M  CHG  1  12   1
M  END
>  <UniqueID>  (30) 
28

>  <SMILES>  (30) 
O=c1ccc(-c2ccccc2)[nH+]n1-c1ccc(Br)cc1

>  <Energy>  (30) 
47.95789650634033

>  <Genealogy>  (30) 
O=c1ccc(-c2ccccc2)[nH+]n1-c1ccc(Br)cc1 (protonated)
O=c1ccc(-c2ccccc2)[nH+]n1-c1ccc(Br)cc1 (3D coordinates assigned)
O=c1ccc(-c2ccccc2)[nH+]n1-c1ccc(Br)cc1 (optimized conformer: 47.95789650634033 kcal/mol)

>  <smiles>  (30) 
O=c1ccc(-c2ccccc2)nn1-c1ccc(Br)cc1

>  <score_type>  (30) 
oracle

>  <origin>  (30) 
adg

>  <m_score__min__energy>  (30) 
-6.4100000000000001

>  <m_primary>  (30) 
energy

$$$$
30:0
     RDKit          3D

 61 63  0  0  0  0  0  0  0  0999 V2000
   58.0790   32.1580   43.1250 C   0  0  0  0  0  0  0  0  0  0  0  0
   57.4240   32.4530   44.4720 C   0  0  0  0  0  0  0  0  0  0  0  0
   57.3920   31.2220   45.3080 N   0  0  0  0  0  0  0  0  0  0  0  0
   58.3110   31.3160   46.4670 C   0  0  0  0  0  0  0  0  0  0  0  0
   58.2490   32.6860   47.1450 C   0  0  0  0  0  0  0  0  0  0  0  0
   57.7280   30.0240   44.4980 C   0  0  0  0  0  0  0  0  0  0  0  0
   56.4550   29.2560   44.0840 C   0  0  0  0  0  0  0  0  0  0  0  0
   55.8490   28.5710   45.2240 N   0  0  0  0  0  0  0  0  0  0  0  0
   56.2670   27.3170   45.7820 C   0  0  0  0  0  0  0  0  0  0  0  0
   55.4050   26.4130   45.9450 O   0  0  0  0  0  0  0  0  0  0  0  0
   57.6670   27.0410   46.1520 C   0  0  0  0  0  0  0  0  0  0  0  0
   58.3190   25.9160   45.6280 C   0  0  0  0  0  0  0  0  0  0  0  0
   59.6350   25.6310   45.9940 C   0  0  0  0  0  0  0  0  0  0  0  0
   60.3120   26.4620   46.8900 C   0  0  0  0  0  0  0  0  0  0  0  0
   59.6680   27.5830   47.4440 C   0  0  0  0  0  0  0  0  0  0  0  0
   60.3860   28.4760   48.3880 C   0  0  0  0  0  0  0  0  0  0  0  0
   60.4310   28.1670   49.7740 C   0  0  0  0  0  0  0  0  0  0  0  0
   61.0700   29.0270   50.6830 C   0  0  0  0  0  0  0  0  0  0  0  0
   61.6420   30.1910   50.1790 C   0  0  0  0  0  0  0  0  0  0  0  0
   62.2850   31.1530   50.8560 N   0  0  0  0  0  0  0  0  0  0  0  0
   62.6430   32.0600   49.9120 C   0  0  0  0  0  0  0  0  0  0  0  0
   63.3850   33.3290   50.2830 C   0  0  0  0  0  0  0  0  0  0  0  0
   62.6490   34.5780   49.7870 C   0  0  0  0  0  0  0  0  0  0  0  0
   64.8570   33.3200   49.8490 C   0  0  0  0  0  0  0  0  0  0  0  0
   62.2150   31.6980   48.6630 N   0  0  0  0  0  0  0  0  0  0  0  0
   62.4370   32.3690   47.3810 C   0  0  0  0  0  0  0  0  0  0  0  0
   61.6060   30.5060   48.8530 C   0  0  0  0  0  0  0  0  0  0  0  0
   61.0000   29.6620   47.9180 C   0  0  0  0  0  0  0  0  0  0  0  0
   58.3380   27.8580   47.0760 C   0  0  0  0  0  0  0  0  0  0  0  0
   59.0707   31.7114   43.2895 H   0  0  0  0  0  0  0  0  0  0  0  0
   57.4503   31.4561   42.5575 H   0  0  0  0  0  0  0  0  0  0  0  0
   58.1880   33.0940   42.5575 H   0  0  0  0  0  0  0  0  0  0  0  0
   58.0000   33.2316   44.9935 H   0  0  0  0  0  0  0  0  0  0  0  0
   56.3936   32.7988   44.3023 H   0  0  0  0  0  0  0  0  0  0  0  0
   58.0351   30.5447   47.2012 H   0  0  0  0  0  0  0  0  0  0  0  0
   59.3365   31.1687   46.0973 H   0  0  0  0  0  0  0  0  0  0  0  0
   58.2549   32.5552   48.2372 H   0  0  0  0  0  0  0  0  0  0  0  0
   59.1210   33.2845   46.8427 H   0  0  0  0  0  0  0  0  0  0  0  0
   57.3265   33.2033   46.8427 H   0  0  0  0  0  0  0  0  0  0  0  0
   58.2656   30.3422   43.5926 H   0  0  0  0  0  0  0  0  0  0  0  0
   58.3554   29.3564   45.1068 H   0  0  0  0  0  0  0  0  0  0  0  0
   55.7277   29.9680   43.6668 H   0  0  0  0  0  0  0  0  0  0  0  0
   56.7356   28.4999   43.3360 H   0  0  0  0  0  0  0  0  0  0  0  0
   57.7908   25.2550   44.9251 H   0  0  0  0  0  0  0  0  0  0  0  0
   60.1413   24.7487   45.5755 H   0  0  0  0  0  0  0  0  0  0  0  0
   61.3537   26.2385   47.1635 H   0  0  0  0  0  0  0  0  0  0  0  0
   59.9597   27.2429   50.1400 H   0  0  0  0  0  0  0  0  0  0  0  0
   61.1165   28.7884   51.7558 H   0  0  0  0  0  0  0  0  0  0  0  0
   62.4650   31.1920   51.8850 H   0  0  0  0  0  0  0  0  0  0  0  0
   63.3987   33.3648   51.3823 H   0  0  0  0  0  0  0  0  0  0  0  0
   62.3024   35.1661   50.6496 H   0  0  0  0  0  0  0  0  0  0  0  0
   63.3319   35.1882   49.1777 H   0  0  0  0  0  0  0  0  0  0  0  0
   61.7843   34.2763   49.1777 H   0  0  0  0  0  0  0  0  0  0  0  0
   65.5020   33.3161   50.7401 H   0  0  0  0  0  0  0  0  0  0  0  0
   65.0566   32.4206   49.2479 H   0  0  0  0  0  0  0  0  0  0  0  0
   65.0675   34.2169   49.2479 H   0  0  0  0  0  0  0  0  0  0  0  0
   62.7779   33.3993   47.5606 H   0  0  0  0  0  0  0  0  0  0  0  0
   63.2027   31.8238   46.8095 H   0  0  0  0  0  0  0  0  0  0  0  0
   61.4973   32.3881   46.8095 H   0  0  0  0  0  0  0  0  0  0  0  0
   61.0001   29.9123   46.8469 H   0  0  0  0  0  0  0  0  0  0  0  0
   57.8187   28.7218   47.5167 H   0  0  0  0  0  0  0  0  0  0  0  0
  1  2  1  0
  2  3  1  0
  3  4  1  0
  4  5  1  0
  3  6  1  0
  6  7  1  0
  7  8  1  0
  8  9  1  0
  9 10  2  0
  9 11  1  0
 11 12  2  0
 12 13  1  0
 13 14  2  0
 14 15  1  0
 15 16  1  0
 16 17  2  0
 17 18  1  0
 18 19  2  0
 19 20  1  0
 20 21  2  0
 21 22  1  0
 22 23  1  0
 22 24  1  0
 21 25  1  0
 25 26  1  0
 25 27  1  0
 27 28  2  0
 15 29  2  0
 29 11  1  0
 28 16  1  0
 27 19  1  0
  1 30  1  0
  1 31  1  0
  1 32  1  0
  2 33  1  0
  2 34  1  0
  4 35  1  0
  4 36  1  0
  5 37  1  0
  5 38  1  0
  5 39  1  0
  6 40  1  0
  6 41  1  0
  7 42  1  0
  7 43  1  0
 12 44  1  0
 13 45  1  0
 14 46  1  0
 17 47  1  0
 18 48  1  0
 20 49  1  0
 22 50  1  0
 23 51  1  0
 23 52  1  0
 23 53  1  0
 24 54  1  0
 24 55  1  0
 24 56  1  0
 26 57  1  0
 26 58  1  0
 26 59  1  0
 28 60  1  0
 29 61  1  0
M  CHG  2   8  -1  20   1
M  END
>  <UniqueID>  (31) 
29

>  <SMILES>  (31) 
CCN(CC)CC[N-]C(=O)c1cccc(-c2ccc3[nH+]c(C(C)C)n(C)c3c2)c1

>  <Energy>  (31) 
104.07718396034942

>  <Genealogy>  (31) 
CCN(CC)CC[N-]C(=O)c1cccc(-c2ccc3[nH+]c(C(C)C)n(C)c3c2)c1 (protonated)
CCN(CC)CC[N-]C(=O)c1cccc(-c2ccc3[nH+]c(C(C)C)n(C)c3c2)c1 (3D coordinates assigned)
CCN(CC)CC[N-]C(=O)c1cccc(-c2ccc3[nH+]c(C(C)C)n(C)c3c2)c1 (optimized conformer: 104.07718396034942 kcal/mol)

>  <smiles>  (31) 
CCN(CC)CCNC(=O)c1cccc(-c2ccc3nc(C(C)C)n(C)c3c2)c1

>  <score_type>  (31) 
oracle

>  <origin>  (31) 
adg

>  <m_score__min__energy>  (31) 
-9.1999999999999993

>  <m_primary>  (31) 
energy

$$$$
31:0
     RDKit          3D

 41 43  0  0  0  0  0  0  0  0999 V2000
   56.3220   22.2330   48.3750 C   0  0  0  0  0  0  0  0  0  0  0  0
   57.3440   22.3040   47.3860 O   0  0  0  0  0  0  0  0  0  0  0  0
   57.1110   22.4710   46.0110 C   0  0  0  0  0  0  0  0  0  0  0  0
   57.4440   21.4760   45.0710 C   0  0  0  0  0  0  0  0  0  0  0  0
   57.2080   21.6820   43.7100 C   0  0  0  0  0  0  0  0  0  0  0  0
   56.6470   22.8830   43.2720 C   0  0  0  0  0  0  0  0  0  0  0  0
   56.3060   23.8740   44.1940 C   0  0  0  0  0  0  0  0  0  0  0  0
   56.5190   23.6680   45.5710 C   0  0  0  0  0  0  0  0  0  0  0  0
   56.2040   24.6840   46.5350 N   0  0  0  0  0  0  0  0  0  0  0  0
   56.2100   26.0970   46.2960 C   0  0  0  0  0  0  0  0  0  0  0  0
   55.1430   26.7080   46.0210 O   0  0  0  0  0  0  0  0  0  0  0  0
   57.4930   26.8600   46.4030 C   0  0  0  0  0  0  0  0  0  0  0  0
   58.2080   27.1800   44.7520 S   0  0  0  0  0  0  0  0  0  0  0  0
   57.5560   28.8440   44.6300 C   0  0  0  0  0  0  0  0  0  0  0  0
   56.3070   29.1970   44.9860 N   0  0  0  0  0  0  0  0  0  0  0  0
   56.2030   30.4900   44.7260 N   0  0  0  0  0  0  0  0  0  0  0  0
   57.3960   30.8720   44.2280 C   0  0  0  0  0  0  0  0  0  0  0  0
   57.7240   32.2660   43.8000 C   0  0  0  0  0  0  0  0  0  0  0  0
   58.2560   33.0540   44.9650 C   0  0  0  0  0  0  0  0  0  0  0  0
   57.9170   32.6970   46.2810 C   0  0  0  0  0  0  0  0  0  0  0  0
   58.3630   33.4690   47.3580 C   0  0  0  0  0  0  0  0  0  0  0  0
   59.1470   34.6040   47.1290 C   0  0  0  0  0  0  0  0  0  0  0  0
   59.4840   34.9700   45.8230 C   0  0  0  0  0  0  0  0  0  0  0  0
   59.0360   34.2030   44.7420 C   0  0  0  0  0  0  0  0  0  0  0  0
   58.2320   29.8650   44.1680 O   0  0  0  0  0  0  0  0  0  0  0  0
   56.7774   22.2646   49.3758 H   0  0  0  0  0  0  0  0  0  0  0  0
   55.6373   23.0857   48.2566 H   0  0  0  0  0  0  0  0  0  0  0  0
   55.7618   21.2938   48.2566 H   0  0  0  0  0  0  0  0  0  0  0  0
   57.8927   20.5310   45.4111 H   0  0  0  0  0  0  0  0  0  0  0  0
   57.4643   20.8975   42.9827 H   0  0  0  0  0  0  0  0  0  0  0  0
   56.4734   23.0486   42.1985 H   0  0  0  0  0  0  0  0  0  0  0  0
   55.8688   24.8205   43.8434 H   0  0  0  0  0  0  0  0  0  0  0  0
   57.2991   27.8205   46.9028 H   0  0  0  0  0  0  0  0  0  0  0  0
   58.2091   26.2597   46.9834 H   0  0  0  0  0  0  0  0  0  0  0  0
   58.4843   32.2331   43.0058 H   0  0  0  0  0  0  0  0  0  0  0  0
   56.8108   32.7511   43.4249 H   0  0  0  0  0  0  0  0  0  0  0  0
   57.2981   31.8064   46.4647 H   0  0  0  0  0  0  0  0  0  0  0  0
   58.0969   33.1833   48.3864 H   0  0  0  0  0  0  0  0  0  0  0  0
   59.4988   35.2093   47.9775 H   0  0  0  0  0  0  0  0  0  0  0  0
   60.1022   35.8622   45.6447 H   0  0  0  0  0  0  0  0  0  0  0  0
   59.2945   34.4994   43.7147 H   0  0  0  0  0  0  0  0  0  0  0  0
  1  2  1  0
  2  3  1  0
  3  4  2  0
  4  5  1  0
  5  6  2  0
  6  7  1  0
  7  8  2  0
  8  9  1  0
  9 10  1  0
 10 11  2  0
 10 12  1  0
 12 13  1  0
 13 14  1  0
 14 15  2  0
 15 16  1  0
 16 17  2  0
 17 18  1  0
 18 19  1  0
 19 20  2  0
 20 21  1  0
 21 22  2  0
 22 23  1  0
 23 24  2  0
 17 25  1  0
  8  3  1  0
 25 14  1  0
 24 19  1  0
  1 26  1  0
  1 27  1  0
  1 28  1  0
  4 29  1  0
  5 30  1  0
  6 31  1  0
  7 32  1  0
 12 33  1  0
 12 34  1  0
 18 35  1  0
 18 36  1  0
 20 37  1  0
 21 38  1  0
 22 39  1  0
 23 40  1  0
 24 41  1  0
M  CHG  1   9  -1
M  END
>  <UniqueID>  (32) 
30

>  <SMILES>  (32) 
COc1ccccc1[N-]C(=O)CSc1nnc(Cc2ccccc2)o1

>  <Energy>  (32) 
73.92310111660898

>  <Genealogy>  (32) 
COc1ccccc1[N-]C(=O)CSc1nnc(Cc2ccccc2)o1 (protonated)
COc1ccccc1[N-]C(=O)CSc1nnc(Cc2ccccc2)o1 (3D coordinates assigned)
COc1ccccc1[N-]C(=O)CSc1nnc(Cc2ccccc2)o1 (optimized conformer: 73.92310111660898 kcal/mol)

>  <smiles>  (32) 
COc1ccccc1NC(=O)CSc1nnc(Cc2ccccc2)o1

>  <score_type>  (32) 
oracle

>  <origin>  (32) 
adg

>  <m_score__min__energy>  (32) 
-11.35

>  <m_primary>  (32) 
energy

$$$$
32:0
     RDKit          3D

 38 39  0  0  0  0  0  0  0  0999 V2000
   60.1330   34.1790   46.0600 C   0  0  0  0  0  0  0  0  0  0  0  0
   59.1860   34.8430   45.0670 C   0  0  0  0  0  0  0  0  0  0  0  0
   58.9350   33.9850   43.9550 O   0  0  0  0  0  0  0  0  0  0  0  0
   58.1250   32.8350   43.9710 C   0  0  0  0  0  0  0  0  0  0  0  0
   57.5710   32.3170   45.1580 C   0  0  0  0  0  0  0  0  0  0  0  0
   56.7700   31.2230   45.1180 N   0  0  0  0  0  0  0  0  0  0  0  0
   56.4860   30.5760   43.9570 C   0  0  0  0  0  0  0  0  0  0  0  0
   55.5060   29.4390   43.9640 C   0  0  0  0  0  0  0  0  0  0  0  0
   55.5280   28.7470   45.2490 N   0  0  0  0  0  0  0  0  0  0  0  0
   56.5950   27.8690   45.6200 C   0  0  0  0  0  0  0  0  0  0  0  0
   56.3210   26.7240   46.0650 O   0  0  0  0  0  0  0  0  0  0  0  0
   58.0050   28.2710   45.4290 C   0  0  0  0  0  0  0  0  0  0  0  0
   58.6480   29.0130   46.4290 C   0  0  0  0  0  0  0  0  0  0  0  0
   59.9620   29.3290   46.3090 N   0  0  0  0  0  0  0  0  0  0  0  0
   60.6750   28.9470   45.2210 C   0  0  0  0  0  0  0  0  0  0  0  0
   60.0720   28.2530   44.2230 N   0  0  0  0  0  0  0  0  0  0  0  0
   58.7570   27.9130   44.2870 C   0  0  0  0  0  0  0  0  0  0  0  0
   58.1480   27.1950   43.1180 C   0  0  0  0  0  0  0  0  0  0  0  0
   57.0320   31.0400   42.7550 C   0  0  0  0  0  0  0  0  0  0  0  0
   57.8600   32.1720   42.7590 C   0  0  0  0  0  0  0  0  0  0  0  0
   58.4090   32.7060   41.4670 C   0  0  0  0  0  0  0  0  0  0  0  0
   59.8076   34.4071   47.0857 H   0  0  0  0  0  0  0  0  0  0  0  0
   60.1217   33.0900   45.9054 H   0  0  0  0  0  0  0  0  0  0  0  0
   61.1530   34.5608   45.9054 H   0  0  0  0  0  0  0  0  0  0  0  0
   58.2345   35.0678   45.5711 H   0  0  0  0  0  0  0  0  0  0  0  0
   59.6527   35.7689   44.6997 H   0  0  0  0  0  0  0  0  0  0  0  0
   57.7888   32.8016   46.1212 H   0  0  0  0  0  0  0  0  0  0  0  0
   54.4949   29.8326   43.7831 H   0  0  0  0  0  0  0  0  0  0  0  0
   55.7852   28.7265   43.1738 H   0  0  0  0  0  0  0  0  0  0  0  0
   58.0848   29.3407   47.3152 H   0  0  0  0  0  0  0  0  0  0  0  0
   61.7430   29.1998   45.1472 H   0  0  0  0  0  0  0  0  0  0  0  0
   57.4768   26.4036   43.4829 H   0  0  0  0  0  0  0  0  0  0  0  0
   57.5755   27.9086   42.5072 H   0  0  0  0  0  0  0  0  0  0  0  0
   58.9454   26.7466   42.5072 H   0  0  0  0  0  0  0  0  0  0  0  0
   56.8128   30.5192   41.8112 H   0  0  0  0  0  0  0  0  0  0  0  0
   59.1825   33.4584   41.6804 H   0  0  0  0  0  0  0  0  0  0  0  0
   58.8495   31.8815   40.8872 H   0  0  0  0  0  0  0  0  0  0  0  0
   57.5970   33.1692   40.8872 H   0  0  0  0  0  0  0  0  0  0  0  0
  1  2  1  0
  2  3  1  0
  3  4  1  0
  4  5  2  0
  5  6  1  0
  6  7  2  0
  7  8  1  0
  8  9  1  0
  9 10  1  0
 10 11  2  0
 10 12  1  0
 12 13  2  0
 13 14  1  0
 14 15  2  0
 15 16  1  0
 16 17  2  0
 17 18  1  0
  7 19  1  0
 19 20  2  0
 20 21  1  0
 20  4  1  0
 17 12  1  0
  1 22  1  0
  1 23  1  0
  1 24  1  0
  2 25  1  0
  2 26  1  0
  5 27  1  0
  8 28  1  0
  8 29  1  0
 13 30  1  0
 15 31  1  0
 18 32  1  0
 18 33  1  0
 18 34  1  0
 19 35  1  0
 21 36  1  0
 21 37  1  0
 21 38  1  0
M  CHG  1   9  -1
M  END
>  <UniqueID>  (33) 
31

>  <SMILES>  (33) 
CCOc1cnc(C[N-]C(=O)c2cncnc2C)cc1C

>  <Energy>  (33) 
43.794844971729745

>  <Genealogy>  (33) 
CCOc1cnc(C[N-]C(=O)c2cncnc2C)cc1C (protonated)
CCOc1cnc(C[N-]C(=O)c2cncnc2C)cc1C (3D coordinates assigned)
CCOc1cnc(C[N-]C(=O)c2cncnc2C)cc1C (optimized conformer: 43.794844971729745 kcal/mol)

>  <smiles>  (33) 
CCOc1cnc(CNC(=O)c2cncnc2C)cc1C

>  <score_type>  (33) 
oracle

>  <origin>  (33) 
adg

>  <m_score__min__energy>  (33) 
-9.0399999999999991

>  <m_primary>  (33) 
energy

$$$$
33:0
     RDKit          3D

 46 47  0  0  0  0  0  0  0  0999 V2000
   59.6590   33.5340   49.6840 C   0  0  0  0  0  0  0  0  0  0  0  0
   60.7590   34.1520   48.8240 C   0  0  0  0  0  0  0  0  0  0  0  0
   60.9910   33.3580   47.5920 N   0  0  0  0  0  0  0  0  0  0  0  0
   62.3230   32.7070   47.6750 C   0  0  0  0  0  0  0  0  0  0  0  0
   63.3970   33.4750   46.9080 C   0  0  0  0  0  0  0  0  0  0  0  0
   60.8650   34.2090   46.3760 C   0  0  0  0  0  0  0  0  0  0  0  0
   59.5940   35.0800   46.4150 C   0  0  0  0  0  0  0  0  0  0  0  0
   58.2910   34.2660   46.3650 C   0  0  0  0  0  0  0  0  0  0  0  0
   58.5360   32.8330   46.5490 N   0  0  0  0  0  0  0  0  0  0  0  0
   58.1660   31.8360   45.5720 C   0  0  0  0  0  0  0  0  0  0  0  0
   57.7210   32.2070   44.2870 C   0  0  0  0  0  0  0  0  0  0  0  0
   57.3540   31.2320   43.3390 C   0  0  0  0  0  0  0  0  0  0  0  0
   56.9070   31.5670   42.0520 O   0  0  0  0  0  0  0  0  0  0  0  0
   57.6480   32.3440   41.1160 C   0  0  0  0  0  0  0  0  0  0  0  0
   57.4330   29.8800   43.6780 C   0  0  0  0  0  0  0  0  0  0  0  0
   57.8730   29.4890   44.9490 C   0  0  0  0  0  0  0  0  0  0  0  0
   57.9480   28.1340   45.2970 C   0  0  0  0  0  0  0  0  0  0  0  0
   58.3810   27.7690   46.5730 C   0  0  0  0  0  0  0  0  0  0  0  0
   58.7350   28.7610   47.4870 C   0  0  0  0  0  0  0  0  0  0  0  0
   58.6580   30.0720   47.1360 N   0  0  0  0  0  0  0  0  0  0  0  0
   58.2420   30.4660   45.9000 C   0  0  0  0  0  0  0  0  0  0  0  0
   59.9041   33.6717   50.7475 H   0  0  0  0  0  0  0  0  0  0  0  0
   58.7003   34.0256   49.4620 H   0  0  0  0  0  0  0  0  0  0  0  0
   59.5802   32.4595   49.4620 H   0  0  0  0  0  0  0  0  0  0  0  0
   60.4620   35.1728   48.5417 H   0  0  0  0  0  0  0  0  0  0  0  0
   61.6905   34.1651   49.4089 H   0  0  0  0  0  0  0  0  0  0  0  0
   62.6204   32.6453   48.7322 H   0  0  0  0  0  0  0  0  0  0  0  0
   62.2365   31.7089   47.2207 H   0  0  0  0  0  0  0  0  0  0  0  0
   64.0786   33.9624   47.6206 H   0  0  0  0  0  0  0  0  0  0  0  0
   63.9654   32.7773   46.2754 H   0  0  0  0  0  0  0  0  0  0  0  0
   62.9206   34.2385   46.2754 H   0  0  0  0  0  0  0  0  0  0  0  0
   61.7447   34.8659   46.3087 H   0  0  0  0  0  0  0  0  0  0  0  0
   60.7981   33.5461   45.5007 H   0  0  0  0  0  0  0  0  0  0  0  0
   59.6025   35.6668   47.3454 H   0  0  0  0  0  0  0  0  0  0  0  0
   59.6114   35.7181   45.5191 H   0  0  0  0  0  0  0  0  0  0  0  0
   57.6208   34.6178   47.1631 H   0  0  0  0  0  0  0  0  0  0  0  0
   57.8361   34.4102   45.3739 H   0  0  0  0  0  0  0  0  0  0  0  0
   58.9860   32.5170   47.4370 H   0  0  0  0  0  0  0  0  0  0  0  0
   57.6595   33.2726   44.0209 H   0  0  0  0  0  0  0  0  0  0  0  0
   58.3091   33.0372   41.6568 H   0  0  0  0  0  0  0  0  0  0  0  0
   58.2535   31.6776   40.4842 H   0  0  0  0  0  0  0  0  0  0  0  0
   56.9536   32.9173   40.4842 H   0  0  0  0  0  0  0  0  0  0  0  0
   57.1473   29.1153   42.9407 H   0  0  0  0  0  0  0  0  0  0  0  0
   57.6667   27.3604   44.5673 H   0  0  0  0  0  0  0  0  0  0  0  0
   58.4425   26.7076   46.8552 H   0  0  0  0  0  0  0  0  0  0  0  0
   59.0774   28.4819   48.4944 H   0  0  0  0  0  0  0  0  0  0  0  0
  1  2  1  0
  2  3  1  0
  3  4  1  0
  4  5  1  0
  3  6  1  0
  6  7  1  0
  7  8  1  0
  8  9  1  0
  9 10  1  0
 10 11  2  0
 11 12  1  0
 12 13  1  0
 13 14  1  0
 12 15  2  0
 15 16  1  0
 16 17  2  0
 17 18  1  0
 18 19  2  0
 19 20  1  0
 20 21  2  0
 21 10  1  0
 21 16  1  0
  1 22  1  0
  1 23  1  0
  1 24  1  0
  2 25  1  0
  2 26  1  0
  4 27  1  0
  4 28  1  0
  5 29  1  0
  5 30  1  0
  5 31  1  0
  6 32  1  0
  6 33  1  0
  7 34  1  0
  7 35  1  0
  8 36  1  0
  8 37  1  0
  9 38  1  0
 11 39  1  0
 14 40  1  0
 14 41  1  0
 14 42  1  0
 15 43  1  0
 17 44  1  0
 18 45  1  0
 19 46  1  0
M  END
>  <UniqueID>  (34) 
32

>  <SMILES>  (34) 
CCN(CC)CCCNc1cc(OC)cc2cccnc12

>  <Energy>  (34) 
44.92090083359005

>  <Genealogy>  (34) 
CCN(CC)CCCNc1cc(OC)cc2cccnc12 (3D coordinates assigned)
CCN(CC)CCCNc1cc(OC)cc2cccnc12 (optimized conformer: 44.92090083359005 kcal/mol)

>  <smiles>  (34) 
CCN(CC)CCCNc1cc(OC)cc2cccnc12

>  <score_type>  (34) 
oracle

>  <origin>  (34) 
adg

>  <m_score__min__energy>  (34) 
-6.2000000000000002

>  <m_primary>  (34) 
energy

$$$$
34:0
     RDKit          3D

 55 54  0  0  0  0  0  0  0  0999 V2000
   63.6070   33.4700   48.4880 C   0  0  0  0  0  0  0  0  0  0  0  0
   63.1750   32.9460   47.1190 C   0  0  0  0  0  0  0  0  0  0  0  0
   62.1350   33.8470   46.4380 C   0  0  0  0  0  0  0  0  0  0  0  0
   60.7600   33.7740   47.1210 C   0  0  0  0  0  0  0  0  0  0  0  0
   59.6620   34.5120   46.3370 C   0  0  0  0  0  0  0  0  0  0  0  0
   58.2350   34.0190   46.6600 C   0  0  0  0  0  0  0  0  0  0  0  0
   57.3420   33.9720   45.4060 C   0  0  0  0  0  0  0  0  0  0  0  0
   57.8950   33.0250   44.3330 C   0  0  0  0  0  0  0  0  0  0  0  0
   57.7020   31.5830   44.7000 C   0  0  0  0  0  0  0  0  0  0  0  0
   56.5970   31.0210   44.4660 O   0  0  0  0  0  0  0  0  0  0  0  0
   58.7420   30.8830   45.3260 O   0  0  0  0  0  0  0  0  0  0  0  0
   58.8530   30.7380   46.7410 C   0  0  0  0  0  0  0  0  0  0  0  0
   58.7940   29.2580   47.1360 C   0  0  0  0  0  0  0  0  0  0  0  0
   59.0270   28.3840   45.9620 N   0  0  0  0  0  0  0  0  0  0  0  0
   60.4180   27.8840   45.9040 C   0  0  0  0  0  0  0  0  0  0  0  0
   61.2000   28.6300   44.8280 C   0  0  0  0  0  0  0  0  0  0  0  0
   58.0260   27.2990   45.8100 C   0  0  0  0  0  0  0  0  0  0  0  0
   58.0250   26.6260   44.4180 C   0  0  0  0  0  0  0  0  0  0  0  0
   57.9190   27.6470   43.2730 C   0  0  0  0  0  0  0  0  0  0  0  0
   58.1060   29.0210   43.7450 N   0  0  0  0  0  0  0  0  0  0  0  0
   63.1197   32.8789   49.2773 H   0  0  0  0  0  0  0  0  0  0  0  0
   64.6991   33.3828   48.5860 H   0  0  0  0  0  0  0  0  0  0  0  0
   63.3131   34.5255   48.5860 H   0  0  0  0  0  0  0  0  0  0  0  0
   64.0619   32.8815   46.4715 H   0  0  0  0  0  0  0  0  0  0  0  0
   62.7097   31.9612   47.2731 H   0  0  0  0  0  0  0  0  0  0  0  0
   62.4918   34.8869   46.4724 H   0  0  0  0  0  0  0  0  0  0  0  0
   62.0142   33.4965   45.4023 H   0  0  0  0  0  0  0  0  0  0  0  0
   60.4719   32.7168   47.2177 H   0  0  0  0  0  0  0  0  0  0  0  0
   60.8520   34.2647   48.1012 H   0  0  0  0  0  0  0  0  0  0  0  0
   59.7228   35.5835   46.5782 H   0  0  0  0  0  0  0  0  0  0  0  0
   59.8384   34.3131   45.2696 H   0  0  0  0  0  0  0  0  0  0  0  0
   58.2974   33.0082   47.0894 H   0  0  0  0  0  0  0  0  0  0  0  0
   57.7843   34.7269   47.3712 H   0  0  0  0  0  0  0  0  0  0  0  0
   56.3390   33.6280   45.6986 H   0  0  0  0  0  0  0  0  0  0  0  0
   57.3100   34.9845   44.9773 H   0  0  0  0  0  0  0  0  0  0  0  0
   57.3753   33.2222   43.3838 H   0  0  0  0  0  0  0  0  0  0  0  0
   58.9755   33.2099   44.2419 H   0  0  0  0  0  0  0  0  0  0  0  0
   59.8110   31.1636   47.0743 H   0  0  0  0  0  0  0  0  0  0  0  0
   58.0157   31.2672   47.2193 H   0  0  0  0  0  0  0  0  0  0  0  0
   59.5665   29.0569   47.8929 H   0  0  0  0  0  0  0  0  0  0  0  0
   57.7934   29.0431   47.5391 H   0  0  0  0  0  0  0  0  0  0  0  0
   60.9017   28.0407   46.8795 H   0  0  0  0  0  0  0  0  0  0  0  0
   60.4046   26.8115   45.6601 H   0  0  0  0  0  0  0  0  0  0  0  0
   61.9175   29.3144   45.3043 H   0  0  0  0  0  0  0  0  0  0  0  0
   61.7432   27.9070   44.2018 H   0  0  0  0  0  0  0  0  0  0  0  0
   60.5033   29.2067   44.2018 H   0  0  0  0  0  0  0  0  0  0  0  0
   58.2363   26.5277   46.5656 H   0  0  0  0  0  0  0  0  0  0  0  0
   57.0366   27.7626   45.9369 H   0  0  0  0  0  0  0  0  0  0  0  0
   58.9597   26.0582   44.2995 H   0  0  0  0  0  0  0  0  0  0  0  0
   57.1444   25.9690   44.3639 H   0  0  0  0  0  0  0  0  0  0  0  0
   58.6910   27.4209   42.5227 H   0  0  0  0  0  0  0  0  0  0  0  0
   56.9103   27.5701   42.8410 H   0  0  0  0  0  0  0  0  0  0  0  0
   57.7760   29.6820   43.0040 H   0  0  0  0  0  0  0  0  0  0  0  0
   59.1170   29.2070   43.9310 H   0  0  0  0  0  0  0  0  0  0  0  0
   57.5460   29.1870   44.6140 H   0  0  0  0  0  0  0  0  0  0  0  0
  1  2  1  0
  2  3  1  0
  3  4  1  0
  4  5  1  0
  5  6  1  0
  6  7  1  0
  7  8  1  0
  8  9  1  0
  9 10  2  0
  9 11  1  0
 11 12  1  0
 12 13  1  0
 13 14  1  0
 14 15  1  0
 15 16  1  0
 14 17  1  0
 17 18  1  0
 18 19  1  0
 19 20  1  0
  1 21  1  0
  1 22  1  0
  1 23  1  0
  2 24  1  0
  2 25  1  0
  3 26  1  0
  3 27  1  0
  4 28  1  0
  4 29  1  0
  5 30  1  0
  5 31  1  0
  6 32  1  0
  6 33  1  0
  7 34  1  0
  7 35  1  0
  8 36  1  0
  8 37  1  0
 12 38  1  0
 12 39  1  0
 13 40  1  0
 13 41  1  0
 15 42  1  0
 15 43  1  0
 16 44  1  0
 16 45  1  0
 16 46  1  0
 17 47  1  0
 17 48  1  0
 18 49  1  0
 18 50  1  0
 19 51  1  0
 19 52  1  0
 20 53  1  0
 20 54  1  0
 20 55  1  0
M  CHG  1  20   1
M  END
>  <UniqueID>  (35) 
33

>  <SMILES>  (35) 
CCCCCCCCC(=O)OCCN(CC)CCC[NH3+]

>  <Energy>  (35) 
31.999751098663523

>  <Genealogy>  (35) 
CCCCCCCCC(=O)OCCN(CC)CCC[NH3+] (protonated)
CCCCCCCCC(=O)OCCN(CC)CCC[NH3+] (3D coordinates assigned)
CCCCCCCCC(=O)OCCN(CC)CCC[NH3+] (optimized conformer: 31.999751098663523 kcal/mol)

>  <smiles>  (35) 
CCCCCCCCC(=O)OCCN(CC)CCCN

>  <score_type>  (35) 
oracle

>  <origin>  (35) 
adg

>  <m_score__min__energy>  (35) 
-3.02

>  <m_primary>  (35) 
energy

$$$$
35:0
     RDKit          3D

 37 37  0  0  0  0  0  0  0  0999 V2000
   60.3480   29.7160   46.2230 C   0  0  0  0  0  0  0  0  0  0  0  0
   60.5190   28.5810   45.2150 C   0  0  0  0  0  0  0  0  0  0  0  0
   59.3790   27.5420   45.2890 C   0  0  0  0  0  0  0  0  0  0  0  0
   58.2460   27.7840   44.2690 C   0  0  0  0  0  0  0  0  0  0  0  0
   58.1390   29.1790   43.7950 N   0  0  0  0  0  0  0  0  0  0  0  0
   56.7870   29.5910   43.3650 C   0  0  0  0  0  0  0  0  0  0  0  0
   56.2570   30.8340   44.1030 C   0  0  0  0  0  0  0  0  0  0  0  0
   57.0240   31.1200   45.2740 O   0  0  0  0  0  0  0  0  0  0  0  0
   57.7140   32.3170   45.5280 C   0  0  0  0  0  0  0  0  0  0  0  0
   57.8550   33.3350   44.5660 C   0  0  0  0  0  0  0  0  0  0  0  0
   58.5630   34.5000   44.8740 C   0  0  0  0  0  0  0  0  0  0  0  0
   59.1260   34.6660   46.1420 C   0  0  0  0  0  0  0  0  0  0  0  0
   58.9720   33.6710   47.1170 C   0  0  0  0  0  0  0  0  0  0  0  0
   59.6070   33.8320   48.4660 C   0  0  0  0  0  0  0  0  0  0  0  0
   58.2760   32.4950   46.8000 C   0  0  0  0  0  0  0  0  0  0  0  0
   60.4089   29.3117   47.2442 H   0  0  0  0  0  0  0  0  0  0  0  0
   61.1441   30.4606   46.0753 H   0  0  0  0  0  0  0  0  0  0  0  0
   59.3679   30.1930   46.0753 H   0  0  0  0  0  0  0  0  0  0  0  0
   60.5393   29.0098   44.2022 H   0  0  0  0  0  0  0  0  0  0  0  0
   61.4583   28.0615   45.4555 H   0  0  0  0  0  0  0  0  0  0  0  0
   59.8058   26.5454   45.1028 H   0  0  0  0  0  0  0  0  0  0  0  0
   58.9317   27.6291   46.2902 H   0  0  0  0  0  0  0  0  0  0  0  0
   58.4240   27.1372   43.3973 H   0  0  0  0  0  0  0  0  0  0  0  0
   57.3031   27.5555   44.7873 H   0  0  0  0  0  0  0  0  0  0  0  0
   58.4550   29.8110   44.5670 H   0  0  0  0  0  0  0  0  0  0  0  0
   58.8070   29.3280   43.0050 H   0  0  0  0  0  0  0  0  0  0  0  0
   56.8172   29.8127   42.2880 H   0  0  0  0  0  0  0  0  0  0  0  0
   56.1061   28.7604   43.6025 H   0  0  0  0  0  0  0  0  0  0  0  0
   56.3055   31.6988   43.4250 H   0  0  0  0  0  0  0  0  0  0  0  0
   55.2206   30.6334   44.4123 H   0  0  0  0  0  0  0  0  0  0  0  0
   57.4066   33.2132   43.5689 H   0  0  0  0  0  0  0  0  0  0  0  0
   58.6774   35.2887   44.1158 H   0  0  0  0  0  0  0  0  0  0  0  0
   59.6916   35.5801   46.3756 H   0  0  0  0  0  0  0  0  0  0  0  0
   58.8580   33.6421   49.2489 H   0  0  0  0  0  0  0  0  0  0  0  0
   60.4351   33.1154   48.5693 H   0  0  0  0  0  0  0  0  0  0  0  0
   59.9937   34.8566   48.5693 H   0  0  0  0  0  0  0  0  0  0  0  0
   58.1701   31.7043   47.5573 H   0  0  0  0  0  0  0  0  0  0  0  0
  1  2  1  0
  2  3  1  0
  3  4  1  0
  4  5  1  0
  5  6  1  0
  6  7  1  0
  7  8  1  0
  8  9  1  0
  9 10  2  0
 10 11  1  0
 11 12  2  0
 12 13  1  0
 13 14  1  0
 13 15  2  0
 15  9  1  0
  1 16  1  0
  1 17  1  0
  1 18  1  0
  2 19  1  0
  2 20  1  0
  3 21  1  0
  3 22  1  0
  4 23  1  0
  4 24  1  0
  5 25  1  0
  5 26  1  0
  6 27  1  0
  6 28  1  0
  7 29  1  0
  7 30  1  0
 10 31  1  0
 11 32  1  0
 12 33  1  0
 14 34  1  0
 14 35  1  0
 14 36  1  0
 15 37  1  0
M  CHG  1   5   1
M  END
>  <UniqueID>  (36) 
34

>  <SMILES>  (36) 
CCCC[NH2+]CCOc1cccc(C)c1

>  <Energy>  (36) 
32.283110354480336

>  <Genealogy>  (36) 
CCCC[NH2+]CCOc1cccc(C)c1 (protonated)
CCCC[NH2+]CCOc1cccc(C)c1 (3D coordinates assigned)
CCCC[NH2+]CCOc1cccc(C)c1 (optimized conformer: 32.283110354480336 kcal/mol)

>  <smiles>  (36) 
CCCCNCCOc1cccc(C)c1

>  <score_type>  (36) 
oracle

>  <origin>  (36) 
adg

>  <m_score__min__energy>  (36) 
-4.3600000000000003

>  <m_primary>  (36) 
energy

$$$$
36:0
     RDKit          3D

 42 44  0  0  0  0  0  0  0  0999 V2000
   60.2960   30.8010   49.0540 C   0  0  0  0  0  0  0  0  0  0  0  0
   61.4230   30.7270   48.3420 C   0  0  0  0  0  0  0  0  0  0  0  0
   61.4170   30.8120   46.8380 C   0  0  0  0  0  0  0  0  0  0  0  0
   60.0320   30.7550   46.3070 N   0  0  0  0  0  0  0  0  0  0  0  0
   59.4860   29.5240   46.0280 C   0  0  0  0  0  0  0  0  0  0  0  0
   60.1680   28.4770   46.2140 O   0  0  0  0  0  0  0  0  0  0  0  0
   58.1730   29.3980   45.5290 C   0  0  0  0  0  0  0  0  0  0  0  0
   57.5850   28.0170   45.2050 C   0  0  0  0  0  0  0  0  0  0  0  0
   57.4880   27.0990   46.4610 C   0  0  0  0  0  0  0  0  0  0  0  0
   58.2050   25.7530   46.2840 C   0  0  0  0  0  0  0  0  0  0  0  0
   57.7610   25.0470   44.9940 C   0  0  0  0  0  0  0  0  0  0  0  0
   57.7970   25.9550   43.7440 C   0  0  0  0  0  0  0  0  0  0  0  0
   58.3370   27.3640   44.0260 C   0  0  0  0  0  0  0  0  0  0  0  0
   57.4220   30.5620   45.2830 C   0  0  0  0  0  0  0  0  0  0  0  0
   56.1400   30.4160   44.7330 O   0  0  0  0  0  0  0  0  0  0  0  0
   57.9720   31.8300   45.5780 C   0  0  0  0  0  0  0  0  0  0  0  0
   57.2340   33.0220   45.3920 C   0  0  0  0  0  0  0  0  0  0  0  0
   57.8000   34.2650   45.6610 C   0  0  0  0  0  0  0  0  0  0  0  0
   59.1060   34.3520   46.1190 C   0  0  0  0  0  0  0  0  0  0  0  0
   59.8530   33.1950   46.3270 C   0  0  0  0  0  0  0  0  0  0  0  0
   59.3050   31.9090   46.0790 C   0  0  0  0  0  0  0  0  0  0  0  0
   60.3335   30.7356   50.1514 H   0  0  0  0  0  0  0  0  0  0  0  0
   59.3300   30.9273   48.5432 H   0  0  0  0  0  0  0  0  0  0  0  0
   62.3811   30.6006   48.8674 H   0  0  0  0  0  0  0  0  0  0  0  0
   61.8817   31.7601   46.5295 H   0  0  0  0  0  0  0  0  0  0  0  0
   61.9814   29.9574   46.4367 H   0  0  0  0  0  0  0  0  0  0  0  0
   56.5444   28.1621   44.8793 H   0  0  0  0  0  0  0  0  0  0  0  0
   57.9394   27.6258   47.3146 H   0  0  0  0  0  0  0  0  0  0  0  0
   56.4222   26.8822   46.6255 H   0  0  0  0  0  0  0  0  0  0  0  0
   59.2901   25.9284   46.2407 H   0  0  0  0  0  0  0  0  0  0  0  0
   57.9476   25.1087   47.1376 H   0  0  0  0  0  0  0  0  0  0  0  0
   58.4284   24.1901   44.8199 H   0  0  0  0  0  0  0  0  0  0  0  0
   56.7142   24.7416   45.1390 H   0  0  0  0  0  0  0  0  0  0  0  0
   58.4396   25.4808   42.9876 H   0  0  0  0  0  0  0  0  0  0  0  0
   56.7594   26.0696   43.3973 H   0  0  0  0  0  0  0  0  0  0  0  0
   59.4065   27.2967   44.2742 H   0  0  0  0  0  0  0  0  0  0  0  0
   58.1886   27.9830   43.1289 H   0  0  0  0  0  0  0  0  0  0  0  0
   55.2720   30.4640   45.2440 H   0  0  0  0  0  0  0  0  0  0  0  0
   56.1970   32.9661   45.0293 H   0  0  0  0  0  0  0  0  0  0  0  0
   57.2096   35.1808   45.5098 H   0  0  0  0  0  0  0  0  0  0  0  0
   59.5531   35.3371   46.3185 H   0  0  0  0  0  0  0  0  0  0  0  0
   60.8878   33.2793   46.6905 H   0  0  0  0  0  0  0  0  0  0  0  0
  1  2  2  0
  2  3  1  0
  3  4  1  0
  4  5  1  0
  5  6  2  0
  5  7  1  0
  7  8  1  0
  8  9  1  0
  9 10  1  0
 10 11  1  0
 11 12  1  0
 12 13  1  0
  7 14  2  0
 14 15  1  0
 14 16  1  0
 16 17  2  0
 17 18  1  0
 18 19  2  0
 19 20  1  0
 20 21  2  0
 21  4  1  0
 13  8  1  0
 21 16  1  0
  1 22  1  0
  1 23  1  0
  2 24  1  0
  3 25  1  0
  3 26  1  0
  8 27  1  0
  9 28  1  0
  9 29  1  0
 10 30  1  0
 10 31  1  0
 11 32  1  0
 11 33  1  0
 12 34  1  0
 12 35  1  0
 13 36  1  0
 13 37  1  0
 15 38  1  0
 17 39  1  0
 18 40  1  0
 19 41  1  0
 20 42  1  0
M  END
>  <UniqueID>  (37) 
35

>  <SMILES>  (37) 
C=CCn1c(=O)c(C2CCCCC2)c(O)c2ccccc21

>  <Energy>  (37) 
62.44127099654555

>  <Genealogy>  (37) 
C=CCn1c(=O)c(C2CCCCC2)c(O)c2ccccc21 (3D coordinates assigned)
C=CCn1c(=O)c(C2CCCCC2)c(O)c2ccccc21 (nonaromatic ring conformer: 62.44127099654555 kcal/mol)

>  <smiles>  (37) 
C=CCn1c(=O)c(C2CCCCC2)c(O)c2ccccc21

>  <score_type>  (37) 
oracle

>  <origin>  (37) 
adg

>  <m_score__min__energy>  (37) 
-7.3200000000000003

>  <m_primary>  (37) 
energy

$$$$
37:0
     RDKit          3D

 50 52  0  0  0  0  0  0  0  0999 V2000
   51.5790   23.8570   44.4690 C   0  0  0  0  0  0  0  0  0  0  0  0
   52.7310   23.0360   44.5320 O   0  0  0  0  0  0  0  0  0  0  0  0
   53.9460   23.6550   44.7870 C   0  0  0  0  0  0  0  0  0  0  0  0
   54.1720   24.4670   45.8800 C   0  0  0  0  0  0  0  0  0  0  0  0
   55.4040   25.0250   46.0340 N   0  0  0  0  0  0  0  0  0  0  0  0
   56.4030   24.8010   45.1430 C   0  0  0  0  0  0  0  0  0  0  0  0
   57.5750   25.3400   45.3010 N   0  0  0  0  0  0  0  0  0  0  0  0
   57.6270   26.7580   45.2190 C   0  0  0  0  0  0  0  0  0  0  0  0
   58.8540   27.3020   44.8250 C   0  0  0  0  0  0  0  0  0  0  0  0
   58.9280   28.6810   44.7390 C   0  0  0  0  0  0  0  0  0  0  0  0
   57.8080   29.4230   45.0420 C   0  0  0  0  0  0  0  0  0  0  0  0
   57.8990   30.8430   44.9500 N   0  0  0  0  0  0  0  0  0  0  0  0
   57.6090   31.5190   43.7190 C   0  0  0  0  0  0  0  0  0  0  0  0
   58.2040   32.9240   43.7100 C   0  0  0  0  0  0  0  0  0  0  0  0
   57.7970   33.7210   44.8870 C   0  0  0  0  0  0  0  0  0  0  0  0
   58.9180   34.5880   45.3770 C   0  0  0  0  0  0  0  0  0  0  0  0
   59.5450   34.2310   46.5920 N   0  0  0  0  0  0  0  0  0  0  0  0
   59.2750   34.9720   47.7660 C   0  0  0  0  0  0  0  0  0  0  0  0
   60.9870   34.2100   46.3470 C   0  0  0  0  0  0  0  0  0  0  0  0
   57.3660   32.8610   46.0660 C   0  0  0  0  0  0  0  0  0  0  0  0
   58.2900   31.6510   46.0970 C   0  0  0  0  0  0  0  0  0  0  0  0
   56.6370   28.8760   45.4200 N   0  0  0  0  0  0  0  0  0  0  0  0
   56.5730   27.5500   45.5000 N   0  0  0  0  0  0  0  0  0  0  0  0
   56.1340   24.0040   44.0950 N   0  0  0  0  0  0  0  0  0  0  0  0
   54.9610   23.4190   43.8690 C   0  0  0  0  0  0  0  0  0  0  0  0
   51.2431   24.0964   45.4888 H   0  0  0  0  0  0  0  0  0  0  0  0
   51.8207   24.7876   43.9347 H   0  0  0  0  0  0  0  0  0  0  0  0
   50.7782   23.3248   43.9347 H   0  0  0  0  0  0  0  0  0  0  0  0
   53.3732   24.6592   46.6114 H   0  0  0  0  0  0  0  0  0  0  0  0
   59.7195   26.6634   44.5944 H   0  0  0  0  0  0  0  0  0  0  0  0
   59.8627   29.1748   44.4347 H   0  0  0  0  0  0  0  0  0  0  0  0
   58.0349   30.9432   42.8841 H   0  0  0  0  0  0  0  0  0  0  0  0
   56.5171   31.6015   43.6148 H   0  0  0  0  0  0  0  0  0  0  0  0
   59.3009   32.8421   43.7021 H   0  0  0  0  0  0  0  0  0  0  0  0
   57.8293   33.4389   42.8131 H   0  0  0  0  0  0  0  0  0  0  0  0
   56.9474   34.3252   44.5360 H   0  0  0  0  0  0  0  0  0  0  0  0
   59.6935   34.5934   44.5969 H   0  0  0  0  0  0  0  0  0  0  0  0
   58.4460   35.5598   45.5842 H   0  0  0  0  0  0  0  0  0  0  0  0
   59.4997   34.3552   48.6487 H   0  0  0  0  0  0  0  0  0  0  0  0
   59.9015   35.8760   47.7812 H   0  0  0  0  0  0  0  0  0  0  0  0
   58.2138   35.2611   47.7812 H   0  0  0  0  0  0  0  0  0  0  0  0
   61.5221   34.2022   47.3080 H   0  0  0  0  0  0  0  0  0  0  0  0
   61.2485   33.3080   45.7744 H   0  0  0  0  0  0  0  0  0  0  0  0
   61.2747   35.1040   45.7744 H   0  0  0  0  0  0  0  0  0  0  0  0
   57.4582   33.4306   47.0025 H   0  0  0  0  0  0  0  0  0  0  0  0
   56.3160   32.5501   45.9615 H   0  0  0  0  0  0  0  0  0  0  0  0
   59.3404   31.9652   46.0075 H   0  0  0  0  0  0  0  0  0  0  0  0
   58.2055   31.0930   47.0412 H   0  0  0  0  0  0  0  0  0  0  0  0
   56.9000   23.8350   43.4150 H   0  0  0  0  0  0  0  0  0  0  0  0
   54.8015   22.7751   42.9915 H   0  0  0  0  0  0  0  0  0  0  0  0
  1  2  1  0
  2  3  1  0
  3  4  1  0
  4  5  2  0
  5  6  1  0
  6  7  2  3
  7  8  1  0
  8  9  2  0
  9 10  1  0
 10 11  2  0
 11 12  1  0
 12 13  1  0
 13 14  1  0
 14 15  1  0
 15 16  1  0
 16 17  1  0
 17 18  1  0
 17 19  1  0
 15 20  1  0
 20 21  1  0
 11 22  1  0
 22 23  2  0
  6 24  1  0
 24 25  1  0
 25  3  2  0
 23  8  1  0
 21 12  1  0
  1 26  1  0
  1 27  1  0
  1 28  1  0
  4 29  1  0
  9 30  1  0
 10 31  1  0
 13 32  1  0
 13 33  1  0
 14 34  1  0
 14 35  1  0
 15 36  1  0
 16 37  1  0
 16 38  1  0
 18 39  1  0
 18 40  1  0
 18 41  1  0
 19 42  1  0
 19 43  1  0
 19 44  1  0
 20 45  1  0
 20 46  1  0
 21 47  1  0
 21 48  1  0
 24 49  1  0
 25 50  1  0
M  END
>  <smiles>  (38) 
COc1cnc(=Nc2ccc(N3CCC(CN(C)C)CC3)nn2)[nH]c1

>  <score_type>  (38) 
oracle

>  <origin>  (38) 
adg

>  <m_score__min__energy>  (38) 
-7.5999999999999996

>  <m_primary>  (38) 
energy

$$$$
38:0
     RDKit          3D

 58 61  0  0  0  0  0  0  0  0999 V2000
   57.3990   27.7120   45.0650 C   0  0  0  0  0  0  0  0  0  0  0  0
   57.4440   29.0680   44.4160 C   0  0  0  0  0  0  0  0  0  0  0  0
   56.6100   29.3420   43.3180 C   0  0  0  0  0  0  0  0  0  0  0  0
   56.6360   30.5970   42.7040 C   0  0  0  0  0  0  0  0  0  0  0  0
   57.4880   31.5930   43.1840 C   0  0  0  0  0  0  0  0  0  0  0  0
   58.3110   31.3400   44.2840 C   0  0  0  0  0  0  0  0  0  0  0  0
   58.2890   30.0850   44.9110 C   0  0  0  0  0  0  0  0  0  0  0  0
   59.1260   29.8530   46.0530 N   0  0  0  0  0  0  0  0  0  0  0  0
   58.5060   29.5610   47.3490 C   0  0  0  0  0  0  0  0  0  0  0  0
   59.5740   29.4650   48.4460 C   0  0  0  0  0  0  0  0  0  0  0  0
   60.5760   30.5410   48.2750 N   0  0  0  0  0  0  0  0  0  0  0  0
   61.4650   30.6870   49.4550 C   0  0  0  0  0  0  0  0  0  0  0  0
   60.9200   31.6360   50.5540 C   0  0  0  0  0  0  0  0  0  0  0  0
   59.8330   32.4970   50.0620 N   0  0  0  0  0  0  0  0  0  0  0  0
   60.2830   33.8690   49.7960 C   0  0  0  0  0  0  0  0  0  0  0  0
   61.3210   33.8580   48.6990 C   0  0  0  0  0  0  0  0  0  0  0  0
   62.6780   33.8490   49.0700 C   0  0  0  0  0  0  0  0  0  0  0  0
   63.6810   33.7990   48.1020 C   0  0  0  0  0  0  0  0  0  0  0  0
   63.3450   33.7610   46.7500 C   0  0  0  0  0  0  0  0  0  0  0  0
   62.0060   33.7870   46.3610 C   0  0  0  0  0  0  0  0  0  0  0  0
   60.9800   33.8560   47.3200 C   0  0  0  0  0  0  0  0  0  0  0  0
   59.5790   33.9190   46.8420 C   0  0  0  0  0  0  0  0  0  0  0  0
   58.5050   33.2260   47.3920 C   0  0  0  0  0  0  0  0  0  0  0  0
   57.3080   33.4040   46.6860 C   0  0  0  0  0  0  0  0  0  0  0  0
   57.4340   34.2190   45.5690 C   0  0  0  0  0  0  0  0  0  0  0  0
   59.0360   34.7140   45.4590 S   0  0  0  0  0  0  0  0  0  0  0  0
   61.3450   30.4190   47.0050 C   0  0  0  0  0  0  0  0  0  0  0  0
   60.5720   29.7000   45.8790 C   0  0  0  0  0  0  0  0  0  0  0  0
   57.4029   27.8287   46.1588 H   0  0  0  0  0  0  0  0  0  0  0  0
   56.4830   27.1876   44.7554 H   0  0  0  0  0  0  0  0  0  0  0  0
   58.2783   27.1280   44.7554 H   0  0  0  0  0  0  0  0  0  0  0  0
   55.9320   28.5629   42.9394 H   0  0  0  0  0  0  0  0  0  0  0  0
   55.9843   30.8002   41.8414 H   0  0  0  0  0  0  0  0  0  0  0  0
   57.5114   32.5783   42.6955 H   0  0  0  0  0  0  0  0  0  0  0  0
   58.9794   32.1284   44.6604 H   0  0  0  0  0  0  0  0  0  0  0  0
   57.7990   30.3650   47.6014 H   0  0  0  0  0  0  0  0  0  0  0  0
   57.9775   28.5986   47.2818 H   0  0  0  0  0  0  0  0  0  0  0  0
   59.0945   29.5673   49.4307 H   0  0  0  0  0  0  0  0  0  0  0  0
   60.0772   28.4894   48.3746 H   0  0  0  0  0  0  0  0  0  0  0  0
   60.0420   31.4430   48.2150 H   0  0  0  0  0  0  0  0  0  0  0  0
   61.6110   29.6921   49.9010 H   0  0  0  0  0  0  0  0  0  0  0  0
   62.4010   31.1346   49.0895 H   0  0  0  0  0  0  0  0  0  0  0  0
   60.5396   31.0287   51.3885 H   0  0  0  0  0  0  0  0  0  0  0  0
   61.7460   32.2881   50.8743 H   0  0  0  0  0  0  0  0  0  0  0  0
   59.0600   32.5180   50.7680 H   0  0  0  0  0  0  0  0  0  0  0  0
   59.4249   34.4813   49.4819 H   0  0  0  0  0  0  0  0  0  0  0  0
   60.7227   34.2931   50.7108 H   0  0  0  0  0  0  0  0  0  0  0  0
   62.9510   33.8817   50.1351 H   0  0  0  0  0  0  0  0  0  0  0  0
   64.7381   33.7896   48.4060 H   0  0  0  0  0  0  0  0  0  0  0  0
   64.1372   33.7104   45.9885 H   0  0  0  0  0  0  0  0  0  0  0  0
   61.7496   33.7531   45.2918 H   0  0  0  0  0  0  0  0  0  0  0  0
   58.5877   32.5999   48.2926 H   0  0  0  0  0  0  0  0  0  0  0  0
   56.3570   32.9412   46.9885 H   0  0  0  0  0  0  0  0  0  0  0  0
   56.6250   34.4932   44.8759 H   0  0  0  0  0  0  0  0  0  0  0  0
   61.6045   31.4299   46.6575 H   0  0  0  0  0  0  0  0  0  0  0  0
   62.2342   29.8099   47.2246 H   0  0  0  0  0  0  0  0  0  0  0  0
   60.8650   30.1306   44.9101 H   0  0  0  0  0  0  0  0  0  0  0  0
   60.8174   28.6283   45.9152 H   0  0  0  0  0  0  0  0  0  0  0  0
  1  2  1  0
  2  3  2  0
  3  4  1  0
  4  5  2  0
  5  6  1  0
  6  7  2  0
  7  8  1  0
  8  9  1  0
  9 10  1  0
 10 11  1  0
 11 12  1  0
 12 13  1  0
 13 14  1  0
 14 15  1  0
 15 16  1  0
 16 17  2  0
 17 18  1  0
 18 19  2  0
 19 20  1  0
 20 21  2  0
 21 22  1  0
 22 23  2  0
 23 24  1  0
 24 25  2  0
 25 26  1  0
 11 27  1  0
 27 28  1  0
  7  2  1  0
 28  8  1  0
 21 16  1  0
 26 22  1  0
  1 29  1  0
  1 30  1  0
  1 31  1  0
  3 32  1  0
  4 33  1  0
  5 34  1  0
  6 35  1  0
  9 36  1  0
  9 37  1  0
 10 38  1  0
 10 39  1  0
 11 40  1  0
 12 41  1  0
 12 42  1  0
 13 43  1  0
 13 44  1  0
 14 45  1  0
 15 46  1  0
 15 47  1  0
 17 48  1  0
 18 49  1  0
 19 50  1  0
 20 51  1  0
 23 52  1  0
 24 53  1  0
 25 54  1  0
 27 55  1  0
 27 56  1  0
 28 57  1  0
 28 58  1  0
M  CHG  1  11   1
M  END
>  <UniqueID>  (39) 
36

>  <SMILES>  (39) 
Cc1ccccc1N1CC[NH+](CCNCc2ccccc2-c2cccs2)CC1

>  <Energy>  (39) 
106.36378388566168

>  <Genealogy>  (39) 
Cc1ccccc1N1CC[NH+](CCNCc2ccccc2-c2cccs2)CC1 (protonated)
Cc1ccccc1N1CC[NH+](CCNCc2ccccc2-c2cccs2)CC1 (3D coordinates assigned)
Cc1ccccc1N1CC[NH+](CCNCc2ccccc2-c2cccs2)CC1 (nonaromatic ring conformer: 106.36378388566168 kcal/mol)

>  <smiles>  (39) 
Cc1ccccc1N1CCN(CCNCc2ccccc2-c2cccs2)CC1

>  <score_type>  (39) 
oracle

>  <origin>  (39) 
adg

>  <m_score__min__energy>  (39) 
-6.9800000000000004

>  <m_primary>  (39) 
energy

$$$$
39:0
     RDKit          3D

 69 72  0  0  0  0  0  0  0  0999 V2000
   64.0570   33.0940   47.9590 C   0  0  0  0  0  0  0  0  0  0  0  0
   63.1690   33.5010   46.7840 C   0  0  0  0  0  0  0  0  0  0  0  0
   61.7040   33.7350   47.1910 C   0  0  0  0  0  0  0  0  0  0  0  0
   60.7830   34.2170   46.0510 C   0  0  0  0  0  0  0  0  0  0  0  0
   59.3990   34.7070   46.5140 C   0  0  0  0  0  0  0  0  0  0  0  0
   58.2860   33.7960   46.0660 C   0  0  0  0  0  0  0  0  0  0  0  0
   57.2610   34.3020   45.5310 O   0  0  0  0  0  0  0  0  0  0  0  0
   58.3850   32.3660   46.2030 N   0  0  0  0  0  0  0  0  0  0  0  0
   57.9070   31.3770   45.2360 C   0  0  0  0  0  0  0  0  0  0  0  0
   57.9530   30.0740   46.0400 C   0  0  1  0  0  0  0  0  0  0  0  0
   57.7930   28.6840   45.3880 C   0  0  1  0  0  0  0  0  0  0  0  0
   58.4120   28.4910   44.0020 C   0  0  0  0  0  0  0  0  0  0  0  0
   58.0370   27.1020   43.4230 C   0  0  0  0  0  0  0  0  0  0  0  0
   57.6680   26.0260   44.4430 C   0  0  0  0  0  0  0  0  0  0  0  0
   57.1960   24.7950   43.9660 C   0  0  0  0  0  0  0  0  0  0  0  0
   56.7880   23.7810   44.8480 C   0  0  0  0  0  0  0  0  0  0  0  0
   56.2940   22.5470   44.3920 O   0  0  0  0  0  0  0  0  0  0  0  0
   57.2450   21.2000   43.9330 S   0  0  0  0  0  0  0  0  0  0  0  0
   57.2580   20.0250   45.2040 N   0  0  0  0  0  0  0  0  0  0  0  0
   56.6440   20.5830   42.7020 O   0  0  0  0  0  0  0  0  0  0  0  0
   58.6490   21.6390   43.6200 O   0  0  0  0  0  0  0  0  0  0  0  0
   56.8600   24.0060   46.2370 C   0  0  0  0  0  0  0  0  0  0  0  0
   56.3920   22.9550   47.2150 C   0  0  0  0  0  0  0  0  0  0  0  0
   54.8710   22.9610   47.3260 C   0  0  0  0  0  0  0  0  0  0  0  0
   57.3250   25.2370   46.7230 C   0  0  0  0  0  0  0  0  0  0  0  0
   57.7310   26.2530   45.8410 C   0  0  0  0  0  0  0  0  0  0  0  0
   58.3320   27.5610   46.3170 C   0  0  2  0  0  0  0  0  0  0  0  0
   58.1830   27.9250   47.8240 C   0  0  0  0  0  0  0  0  0  0  0  0
   58.9060   29.2580   48.2160 C   0  0  0  0  0  0  0  0  0  0  0  0
   59.1380   30.2150   47.0110 C   0  0  1  0  0  0  0  0  0  0  0  0
   60.5360   30.0130   46.3660 C   0  0  0  0  0  0  0  0  0  0  0  0
   59.0200   31.6770   47.2840 C   0  0  0  0  0  0  0  0  0  0  0  0
   59.5000   32.2560   48.2960 O   0  0  0  0  0  0  0  0  0  0  0  0
   63.5451   33.3286   48.9039 H   0  0  0  0  0  0  0  0  0  0  0  0
   64.2584   32.0137   47.9095 H   0  0  0  0  0  0  0  0  0  0  0  0
   65.0068   33.6467   47.9095 H   0  0  0  0  0  0  0  0  0  0  0  0
   63.5654   34.4311   46.3507 H   0  0  0  0  0  0  0  0  0  0  0  0
   63.1813   32.6731   46.0599 H   0  0  0  0  0  0  0  0  0  0  0  0
   61.3013   32.7875   47.5784 H   0  0  0  0  0  0  0  0  0  0  0  0
   61.7164   34.5408   47.9397 H   0  0  0  0  0  0  0  0  0  0  0  0
   61.2849   35.0461   45.5308 H   0  0  0  0  0  0  0  0  0  0  0  0
   60.6063   33.3468   45.4017 H   0  0  0  0  0  0  0  0  0  0  0  0
   59.3922   34.7586   47.6128 H   0  0  0  0  0  0  0  0  0  0  0  0
   59.2253   35.6948   46.0622 H   0  0  0  0  0  0  0  0  0  0  0  0
   56.8821   31.6053   44.9082 H   0  0  0  0  0  0  0  0  0  0  0  0
   58.5048   31.3430   44.3133 H   0  0  0  0  0  0  0  0  0  0  0  0
   56.9695   30.0094   46.5284 H   0  0  0  0  0  0  0  0  0  0  0  0
   56.7047   28.6182   45.2423 H   0  0  0  0  0  0  0  0  0  0  0  0
   58.0393   29.2760   43.3275 H   0  0  0  0  0  0  0  0  0  0  0  0
   59.5066   28.5531   44.0917 H   0  0  0  0  0  0  0  0  0  0  0  0
   57.1759   27.2388   42.7524 H   0  0  0  0  0  0  0  0  0  0  0  0
   58.9453   26.7355   42.9224 H   0  0  0  0  0  0  0  0  0  0  0  0
   57.1443   24.6202   42.8812 H   0  0  0  0  0  0  0  0  0  0  0  0
   58.2420   19.9320   45.5400 H   0  0  0  0  0  0  0  0  0  0  0  0
   57.0030   19.1060   44.7760 H   0  0  0  0  0  0  0  0  0  0  0  0
   56.7248   21.9655   46.8684 H   0  0  0  0  0  0  0  0  0  0  0  0
   56.8196   23.1768   48.2039 H   0  0  0  0  0  0  0  0  0  0  0  0
   54.5808   22.9621   48.3870 H   0  0  0  0  0  0  0  0  0  0  0  0
   54.4711   23.8607   46.8355 H   0  0  0  0  0  0  0  0  0  0  0  0
   54.4640   22.0645   46.8355 H   0  0  0  0  0  0  0  0  0  0  0  0
   57.3725   25.4093   47.8084 H   0  0  0  0  0  0  0  0  0  0  0  0
   59.4228   27.4392   46.2445 H   0  0  0  0  0  0  0  0  0  0  0  0
   57.1122   28.0285   48.0536 H   0  0  0  0  0  0  0  0  0  0  0  0
   58.6557   27.1170   48.4017 H   0  0  0  0  0  0  0  0  0  0  0  0
   58.2909   29.7812   48.9629 H   0  0  0  0  0  0  0  0  0  0  0  0
   59.8967   28.9857   48.6088 H   0  0  0  0  0  0  0  0  0  0  0  0
   61.2925   29.9037   47.1571 H   0  0  0  0  0  0  0  0  0  0  0  0
   60.5245   29.1072   45.7420 H   0  0  0  0  0  0  0  0  0  0  0  0
   60.7814   30.8850   45.7420 H   0  0  0  0  0  0  0  0  0  0  0  0
  1  2  1  0
  2  3  1  0
  3  4  1  0
  4  5  1  0
  5  6  1  0
  6  7  2  0
  6  8  1  0
  8  9  1  0
  9 10  1  0
 10 11  1  0
 11 12  1  0
 12 13  1  0
 13 14  1  0
 14 15  2  0
 15 16  1  0
 16 17  1  0
 17 18  1  0
 18 19  1  0
 18 20  2  0
 18 21  2  0
 16 22  2  0
 22 23  1  0
 23 24  1  0
 22 25  1  0
 25 26  2  0
 26 27  1  0
 27 28  1  0
 28 29  1  0
 29 30  1  0
 30 31  1  6
 30 32  1  0
 32 33  2  0
 32  8  1  0
 30 10  1  0
 27 11  1  0
 26 14  1  0
  1 34  1  0
  1 35  1  0
  1 36  1  0
  2 37  1  0
  2 38  1  0
  3 39  1  0
  3 40  1  0
  4 41  1  0
  4 42  1  0
  5 43  1  0
  5 44  1  0
  9 45  1  0
  9 46  1  0
 10 47  1  1
 11 48  1  6
 12 49  1  0
 12 50  1  0
 13 51  1  0
 13 52  1  0
 15 53  1  0
 19 54  1  0
 19 55  1  0
 23 56  1  0
 23 57  1  0
 24 58  1  0
 24 59  1  0
 24 60  1  0
 25 61  1  0
 27 62  1  6
 28 63  1  0
 28 64  1  0
 29 65  1  0
 29 66  1  0
 31 67  1  0
 31 68  1  0
 31 69  1  0
M  END
>  <UniqueID>  (40) 
37

>  <SMILES>  (40) 
CCCCCC(=O)N1C[C@H]2[C@H]3CCc4cc(OS(N)(=O)=O)c(CC)cc4C3CCC2(C)C1=O

>  <Energy>  (40) 
100.37035465091164

>  <Genealogy>  (40) 
CCCCCC(=O)N1C[C@H]2[C@H]3CCc4cc(OS(N)(=O)=O)c(CC)cc4C3CCC2(C)C1=O (chirality)
CCCCCC(=O)N1C[C@H]2[C@H]3CCc4cc(OS(N)(=O)=O)c(CC)cc4C3CCC2(C)C1=O (3D coordinates assigned)
CCCCCC(=O)N1C[C@H]2[C@H]3CCc4cc(OS(N)(=O)=O)c(CC)cc4C3CCC2(C)C1=O (nonaromatic ring conformer: 100.37035465091164 kcal/mol)

>  <smiles>  (40) 
CCCCCC(=O)N1CC2C3CCc4cc(OS(N)(=O)=O)c(CC)cc4C3CCC2(C)C1=O

>  <score_type>  (40) 
oracle

>  <origin>  (40) 
adg

>  <m_score__min__energy>  (40) 
-10.51

>  <m_primary>  (40) 
energy

$$$$
40:0
     RDKit          3D

 44 45  0  0  0  0  0  0  0  0999 V2000
   66.8490   32.5290   50.5550 C   0  0  0  0  0  0  0  0  0  0  0  0
   65.6780   33.2710   50.8800 O   0  0  0  0  0  0  0  0  0  0  0  0
   64.5480   33.3780   50.0530 C   0  0  0  0  0  0  0  0  0  0  0  0
   64.5190   32.8350   48.7550 C   0  0  0  0  0  0  0  0  0  0  0  0
   63.3780   32.9610   47.9610 C   0  0  0  0  0  0  0  0  0  0  0  0
   62.2440   33.6310   48.4440 C   0  0  0  0  0  0  0  0  0  0  0  0
   61.0300   33.7690   47.5990 C   0  0  0  0  0  0  0  0  0  0  0  0
   59.7520   33.7730   48.1760 C   0  0  0  0  0  0  0  0  0  0  0  0
   58.6320   33.9100   47.3600 C   0  0  0  0  0  0  0  0  0  0  0  0
   58.8070   34.0330   45.9840 C   0  0  0  0  0  0  0  0  0  0  0  0
   57.3910   34.2170   44.8980 S   0  0  0  0  0  0  0  0  0  0  0  0
   57.7690   32.7440   43.8820 C   0  0  0  0  0  0  0  0  0  0  0  0
   58.1230   31.5450   44.7670 C   0  0  0  0  0  0  0  0  0  0  0  0
   56.9730   30.6230   44.8780 N   0  0  0  0  0  0  0  0  0  0  0  0
   56.3700   30.3650   43.5580 C   0  0  0  0  0  0  0  0  0  0  0  0
   57.3970   29.3470   45.4780 C   0  0  0  0  0  0  0  0  0  0  0  0
   60.0630   34.0290   45.4670 N   0  0  0  0  0  0  0  0  0  0  0  0
   61.1400   33.9020   46.2440 N   0  0  0  0  0  0  0  0  0  0  0  0
   62.2720   34.1720   49.7400 C   0  0  0  0  0  0  0  0  0  0  0  0
   63.4200   34.0490   50.5470 C   0  0  0  0  0  0  0  0  0  0  0  0
   63.4770   34.5770   51.8480 O   0  0  0  0  0  0  0  0  0  0  0  0
   64.5190   35.4160   52.3340 C   0  0  0  0  0  0  0  0  0  0  0  0
   67.3505   32.2112   51.4810 H   0  0  0  0  0  0  0  0  0  0  0  0
   66.5698   31.6426   49.9665 H   0  0  0  0  0  0  0  0  0  0  0  0
   67.5313   33.1599   49.9665 H   0  0  0  0  0  0  0  0  0  0  0  0
   65.4015   32.3077   48.3636 H   0  0  0  0  0  0  0  0  0  0  0  0
   63.3679   32.5315   46.9484 H   0  0  0  0  0  0  0  0  0  0  0  0
   59.6351   33.6687   49.2648 H   0  0  0  0  0  0  0  0  0  0  0  0
   57.6224   33.9209   47.7966 H   0  0  0  0  0  0  0  0  0  0  0  0
   56.8897   32.4930   43.2706 H   0  0  0  0  0  0  0  0  0  0  0  0
   58.6317   32.9728   43.2391 H   0  0  0  0  0  0  0  0  0  0  0  0
   58.9753   31.0083   44.3247 H   0  0  0  0  0  0  0  0  0  0  0  0
   58.3831   31.9101   45.7715 H   0  0  0  0  0  0  0  0  0  0  0  0
   55.3661   29.9355   43.6911 H   0  0  0  0  0  0  0  0  0  0  0  0
   56.2936   31.3092   42.9989 H   0  0  0  0  0  0  0  0  0  0  0  0
   57.0002   29.6578   42.9989 H   0  0  0  0  0  0  0  0  0  0  0  0
   57.3693   29.4303   46.5745 H   0  0  0  0  0  0  0  0  0  0  0  0
   56.7169   28.5455   45.1539 H   0  0  0  0  0  0  0  0  0  0  0  0
   58.4215   29.1119   45.1539 H   0  0  0  0  0  0  0  0  0  0  0  0
   62.0790   33.8850   45.7860 H   0  0  0  0  0  0  0  0  0  0  0  0
   61.3875   34.6976   50.1291 H   0  0  0  0  0  0  0  0  0  0  0  0
   64.5116   35.4100   53.4340 H   0  0  0  0  0  0  0  0  0  0  0  0
   65.4886   35.0436   51.9718 H   0  0  0  0  0  0  0  0  0  0  0  0
   64.3621   36.4427   51.9718 H   0  0  0  0  0  0  0  0  0  0  0  0
  1  2  1  0
  2  3  1  0
  3  4  2  0
  4  5  1  0
  5  6  2  0
  6  7  1  0
  7  8  2  0
  8  9  1  0
  9 10  2  0
 10 11  1  0
 11 12  1  0
 12 13  1  0
 13 14  1  0
 14 15  1  0
 14 16  1  0
 10 17  1  0
 17 18  2  0
  6 19  1  0
 19 20  2  0
 20 21  1  0
 21 22  1  0
 20  3  1  0
 18  7  1  0
  1 23  1  0
  1 24  1  0
  1 25  1  0
  4 26  1  0
  5 27  1  0
  8 28  1  0
  9 29  1  0
 12 30  1  0
 12 31  1  0
 13 32  1  0
 13 33  1  0
 15 34  1  0
 15 35  1  0
 15 36  1  0
 16 37  1  0
 16 38  1  0
 16 39  1  0
 18 40  1  0
 19 41  1  0
 22 42  1  0
 22 43  1  0
 22 44  1  0
M  CHG  1  18   1
M  END
>  <UniqueID>  (41) 
38

>  <SMILES>  (41) 
COc1ccc(-c2ccc(SCCN(C)C)n[nH+]2)cc1OC

>  <Energy>  (41) 
43.48980412121892

>  <Genealogy>  (41) 
COc1ccc(-c2ccc(SCCN(C)C)n[nH+]2)cc1OC (protonated)
COc1ccc(-c2ccc(SCCN(C)C)n[nH+]2)cc1OC (3D coordinates assigned)
COc1ccc(-c2ccc(SCCN(C)C)n[nH+]2)cc1OC (optimized conformer: 43.48980412121892 kcal/mol)

>  <smiles>  (41) 
COc1ccc(-c2ccc(SCCN(C)C)nn2)cc1OC

>  <score_type>  (41) 
oracle

>  <origin>  (41) 
adg

>  <m_score__min__energy>  (41) 
-5.6399999999999997

>  <m_primary>  (41) 
energy

$$$$
41:0
     RDKit          3D

 39 42  0  0  0  0  0  0  0  0999 V2000
   57.0270   32.5740   40.7880 C   0  0  0  0  0  0  0  0  0  0  0  0
   57.1820   31.8540   42.0460 N   0  0  0  0  0  0  0  0  0  0  0  0
   57.7810   32.3320   43.1610 C   0  0  0  0  0  0  0  0  0  0  0  0
   57.8030   31.3090   44.0930 C   0  0  0  0  0  0  0  0  0  0  0  0
   58.3210   31.2200   45.3900 C   0  0  0  0  0  0  0  0  0  0  0  0
   58.9500   32.3740   46.0720 C   0  0  0  0  0  0  0  0  0  0  0  0
   60.1730   32.2250   46.7500 C   0  0  0  0  0  0  0  0  0  0  0  0
   60.7660   33.3210   47.3840 C   0  0  0  0  0  0  0  0  0  0  0  0
   60.1500   34.5740   47.3430 C   0  0  0  0  0  0  0  0  0  0  0  0
   58.9390   34.7340   46.6630 C   0  0  0  0  0  0  0  0  0  0  0  0
   58.3420   33.6410   46.0270 C   0  0  0  0  0  0  0  0  0  0  0  0
   58.2250   29.9630   46.0330 C   0  0  0  0  0  0  0  0  0  0  0  0
   57.6230   28.8480   45.3890 C   0  0  0  0  0  0  0  0  0  0  0  0
   57.5290   27.5390   46.0850 C   0  0  0  0  0  0  0  0  0  0  0  0
   58.5860   27.0830   46.8960 C   0  0  0  0  0  0  0  0  0  0  0  0
   58.4940   25.8510   47.5510 C   0  0  0  0  0  0  0  0  0  0  0  0
   57.3520   25.0610   47.4020 C   0  0  0  0  0  0  0  0  0  0  0  0
   56.2970   25.5030   46.6010 C   0  0  0  0  0  0  0  0  0  0  0  0
   56.3830   26.7340   45.9440 C   0  0  0  0  0  0  0  0  0  0  0  0
   57.1170   28.9920   44.0760 C   0  0  0  0  0  0  0  0  0  0  0  0
   57.2260   30.2370   43.4650 C   0  0  0  0  0  0  0  0  0  0  0  0
   56.8540   30.5800   42.2220 N   0  0  0  0  0  0  0  0  0  0  0  0
   56.7997   33.6301   40.9955 H   0  0  0  0  0  0  0  0  0  0  0  0
   57.9602   32.5066   40.2096 H   0  0  0  0  0  0  0  0  0  0  0  0
   56.2042   32.1286   40.2096 H   0  0  0  0  0  0  0  0  0  0  0  0
   58.1781   33.3482   43.3012 H   0  0  0  0  0  0  0  0  0  0  0  0
   60.6653   31.2418   46.7817 H   0  0  0  0  0  0  0  0  0  0  0  0
   61.7203   33.1962   47.9166 H   0  0  0  0  0  0  0  0  0  0  0  0
   60.6172   35.4339   47.8452 H   0  0  0  0  0  0  0  0  0  0  0  0
   58.4550   35.7212   46.6282 H   0  0  0  0  0  0  0  0  0  0  0  0
   57.3918   33.7731   45.4887 H   0  0  0  0  0  0  0  0  0  0  0  0
   58.6242   29.8465   47.0514 H   0  0  0  0  0  0  0  0  0  0  0  0
   59.4892   27.6995   47.0149 H   0  0  0  0  0  0  0  0  0  0  0  0
   59.3229   25.5033   48.1850 H   0  0  0  0  0  0  0  0  0  0  0  0
   57.2836   24.0907   47.9156 H   0  0  0  0  0  0  0  0  0  0  0  0
   55.3966   24.8815   46.4868 H   0  0  0  0  0  0  0  0  0  0  0  0
   55.5496   27.0758   45.3127 H   0  0  0  0  0  0  0  0  0  0  0  0
   56.6507   28.1440   43.5531 H   0  0  0  0  0  0  0  0  0  0  0  0
   56.4130   29.9630   41.5020 H   0  0  0  0  0  0  0  0  0  0  0  0
  1  2  1  0
  2  3  1  0
  3  4  2  0
  4  5  1  0
  5  6  1  0
  6  7  2  0
  7  8  1  0
  8  9  2  0
  9 10  1  0
 10 11  2  0
  5 12  2  0
 12 13  1  0
 13 14  1  0
 14 15  2  0
 15 16  1  0
 16 17  2  0
 17 18  1  0
 18 19  2  0
 13 20  2  0
 20 21  1  0
 21 22  2  0
 22  2  1  0
 21  4  1  0
 11  6  1  0
 19 14  1  0
  1 23  1  0
  1 24  1  0
  1 25  1  0
  3 26  1  0
  7 27  1  0
  8 28  1  0
  9 29  1  0
 10 30  1  0
 11 31  1  0
 12 32  1  0
 15 33  1  0
 16 34  1  0
 17 35  1  0
 18 36  1  0
 19 37  1  0
 20 38  1  0
 22 39  1  0
M  CHG  1  22   1
M  END
>  <UniqueID>  (42) 
39

>  <SMILES>  (42) 
Cn1cc2c(-c3ccccc3)cc(-c3ccccc3)cc2[nH+]1

>  <Energy>  (42) 
92.03305158424033

>  <Genealogy>  (42) 
Cn1cc2c(-c3ccccc3)cc(-c3ccccc3)cc2[nH+]1 (protonated)
Cn1cc2c(-c3ccccc3)cc(-c3ccccc3)cc2[nH+]1 (3D coordinates assigned)
Cn1cc2c(-c3ccccc3)cc(-c3ccccc3)cc2[nH+]1 (optimized conformer: 92.03305158424033 kcal/mol)

>  <smiles>  (42) 
Cn1cc2c(-c3ccccc3)cc(-c3ccccc3)cc2n1

>  <score_type>  (42) 
oracle

>  <origin>  (42) 
adg

>  <m_score__min__energy>  (42) 
-6.5199999999999996

>  <m_primary>  (42) 
energy

$$$$
42:0
     RDKit          3D

 65 68  0  0  0  0  0  0  0  0999 V2000
   59.2080   30.0950   50.8970 C   0  0  0  0  0  0  0  0  0  0  0  0
   59.9950   31.3340   50.9210 N   0  0  0  0  0  0  0  0  0  0  0  0
   59.2090   32.5930   50.8610 C   0  0  0  0  0  0  0  0  0  0  0  0
   59.2810   33.2370   49.4580 C   0  0  0  0  0  0  0  0  0  0  0  0
   57.7240   32.3410   51.2190 C   0  0  0  0  0  0  0  0  0  0  0  0
   59.7970   33.5830   51.9100 C   0  0  0  0  0  0  0  0  0  0  0  0
   60.6180   32.8790   52.9330 N   0  0  0  0  0  0  0  0  0  0  0  0
   60.0980   33.1240   54.2900 C   0  0  0  0  0  0  0  0  0  0  0  0
   62.0450   33.2740   52.8730 C   0  0  0  0  0  0  0  0  0  0  0  0
   62.5690   33.1240   51.4700 C   0  0  0  0  0  0  0  0  0  0  0  0
   62.9560   31.8600   51.0030 C   0  0  0  0  0  0  0  0  0  0  0  0
   63.2450   31.6680   49.6490 C   0  0  0  0  0  0  0  0  0  0  0  0
   63.1650   32.7420   48.7500 C   0  0  0  0  0  0  0  0  0  0  0  0
   63.2200   32.4870   47.2690 C   0  0  0  0  0  0  0  0  0  0  0  0
   61.8460   32.3370   46.7580 N   0  0  0  0  0  0  0  0  0  0  0  0
   61.2980   31.1150   46.7480 N   0  0  0  0  0  0  0  0  0  0  0  0
   59.9930   30.8980   46.4180 C   0  0  0  0  0  0  0  0  0  0  0  0
   59.4680   29.5140   46.4890 C   0  0  0  0  0  0  0  0  0  0  0  0
   59.5280   28.6790   45.3650 C   0  0  0  0  0  0  0  0  0  0  0  0
   59.0570   27.3680   45.4430 C   0  0  0  0  0  0  0  0  0  0  0  0
   58.5400   26.8990   46.6530 C   0  0  0  0  0  0  0  0  0  0  0  0
   58.5070   27.7120   47.7420 N   0  0  0  0  0  0  0  0  0  0  0  0
   58.9610   28.9930   47.6890 C   0  0  0  0  0  0  0  0  0  0  0  0
   59.1860   31.9940   46.0420 C   0  0  0  0  0  0  0  0  0  0  0  0
   57.8440   31.8390   45.6320 C   0  0  0  0  0  0  0  0  0  0  0  0
   57.0770   32.9520   45.2820 C   0  0  0  0  0  0  0  0  0  0  0  0
   57.6350   34.2280   45.3190 C   0  0  0  0  0  0  0  0  0  0  0  0
   58.9680   34.3980   45.6950 C   0  0  0  0  0  0  0  0  0  0  0  0
   59.7560   33.2860   46.0510 C   0  0  0  0  0  0  0  0  0  0  0  0
   61.1030   33.4370   46.4190 C   0  0  0  0  0  0  0  0  0  0  0  0
   61.6250   34.5880   46.4400 O   0  0  0  0  0  0  0  0  0  0  0  0
   62.8510   34.0210   49.2330 C   0  0  0  0  0  0  0  0  0  0  0  0
   62.5570   34.2120   50.5840 C   0  0  0  0  0  0  0  0  0  0  0  0
   59.0023   29.7712   51.9280 H   0  0  0  0  0  0  0  0  0  0  0  0
   58.2578   30.2742   50.3725 H   0  0  0  0  0  0  0  0  0  0  0  0
   59.7741   29.3111   50.3725 H   0  0  0  0  0  0  0  0  0  0  0  0
   60.5660   31.3280   51.8000 H   0  0  0  0  0  0  0  0  0  0  0  0
   59.4027   34.3255   49.5600 H   0  0  0  0  0  0  0  0  0  0  0  0
   60.1384   32.8222   48.9077 H   0  0  0  0  0  0  0  0  0  0  0  0
   58.3532   33.0217   48.9077 H   0  0  0  0  0  0  0  0  0  0  0  0
   57.6087   32.3214   52.3128 H   0  0  0  0  0  0  0  0  0  0  0  0
   57.1038   33.1467   50.7993 H   0  0  0  0  0  0  0  0  0  0  0  0
   57.4043   31.3758   50.7993 H   0  0  0  0  0  0  0  0  0  0  0  0
   60.4288   34.3187   51.3907 H   0  0  0  0  0  0  0  0  0  0  0  0
   58.9584   34.0758   52.4237 H   0  0  0  0  0  0  0  0  0  0  0  0
   60.8325   32.7779   55.0321 H   0  0  0  0  0  0  0  0  0  0  0  0
   59.9195   34.2009   54.4254 H   0  0  0  0  0  0  0  0  0  0  0  0
   59.1539   32.5760   54.4254 H   0  0  0  0  0  0  0  0  0  0  0  0
   62.1448   34.3233   53.1876 H   0  0  0  0  0  0  0  0  0  0  0  0
   62.6253   32.6232   53.5436 H   0  0  0  0  0  0  0  0  0  0  0  0
   63.0325   31.0163   51.7047 H   0  0  0  0  0  0  0  0  0  0  0  0
   63.5363   30.6710   49.2869 H   0  0  0  0  0  0  0  0  0  0  0  0
   63.7102   33.3340   46.7666 H   0  0  0  0  0  0  0  0  0  0  0  0
   63.7932   31.5694   47.0703 H   0  0  0  0  0  0  0  0  0  0  0  0
   61.8770   30.2930   47.0370 H   0  0  0  0  0  0  0  0  0  0  0  0
   59.9467   29.0574   44.4208 H   0  0  0  0  0  0  0  0  0  0  0  0
   59.0924   26.7110   44.5615 H   0  0  0  0  0  0  0  0  0  0  0  0
   58.1588   25.8697   46.7248 H   0  0  0  0  0  0  0  0  0  0  0  0
   58.9306   29.6229   48.5903 H   0  0  0  0  0  0  0  0  0  0  0  0
   57.3993   30.8339   45.5879 H   0  0  0  0  0  0  0  0  0  0  0  0
   56.0286   32.8209   44.9760 H   0  0  0  0  0  0  0  0  0  0  0  0
   57.0239   35.1027   45.0515 H   0  0  0  0  0  0  0  0  0  0  0  0
   59.4062   35.4068   45.7135 H   0  0  0  0  0  0  0  0  0  0  0  0
   62.8364   34.8779   48.5434 H   0  0  0  0  0  0  0  0  0  0  0  0
   62.3151   35.2188   50.9554 H   0  0  0  0  0  0  0  0  0  0  0  0
  1  2  1  0
  2  3  1  0
  3  4  1  0
  3  5  1  0
  3  6  1  0
  6  7  1  0
  7  8  1  0
  7  9  1  0
  9 10  1  0
 10 11  2  0
 11 12  1  0
 12 13  2  0
 13 14  1  0
 14 15  1  0
 15 16  1  0
 16 17  2  0
 17 18  1  0
 18 19  2  0
 19 20  1  0
 20 21  2  0
 21 22  1  0
 22 23  2  0
 17 24  1  0
 24 25  2  0
 25 26  1  0
 26 27  2  0
 27 28  1  0
 28 29  2  0
 29 30  1  0
 30 31  2  0
 13 32  1  0
 32 33  2  0
 33 10  1  0
 30 15  1  0
 23 18  1  0
 29 24  1  0
  1 34  1  0
  1 35  1  0
  1 36  1  0
  2 37  1  0
  4 38  1  0
  4 39  1  0
  4 40  1  0
  5 41  1  0
  5 42  1  0
  5 43  1  0
  6 44  1  0
  6 45  1  0
  8 46  1  0
  8 47  1  0
  8 48  1  0
  9 49  1  0
  9 50  1  0
 11 51  1  0
 12 52  1  0
 14 53  1  0
 14 54  1  0
 16 55  1  0
 19 56  1  0
 20 57  1  0
 21 58  1  0
 23 59  1  0
 25 60  1  0
 26 61  1  0
 27 62  1  0
 28 63  1  0
 32 64  1  0
 33 65  1  0
M  CHG  1  16   1
M  END
>  <UniqueID>  (43) 
40

>  <SMILES>  (43) 
CNC(C)(C)CN(C)Cc1ccc(Cn2[nH+]c(-c3cccnc3)c3ccccc3c2=O)cc1

>  <Energy>  (43) 
83.12112293227347

>  <Genealogy>  (43) 
CNC(C)(C)CN(C)Cc1ccc(Cn2[nH+]c(-c3cccnc3)c3ccccc3c2=O)cc1 (protonated)
CNC(C)(C)CN(C)Cc1ccc(Cn2[nH+]c(-c3cccnc3)c3ccccc3c2=O)cc1 (3D coordinates assigned)
CNC(C)(C)CN(C)Cc1ccc(Cn2[nH+]c(-c3cccnc3)c3ccccc3c2=O)cc1 (optimized conformer: 83.12112293227347 kcal/mol)

>  <smiles>  (43) 
CNC(C)(C)CN(C)Cc1ccc(Cn2nc(-c3cccnc3)c3ccccc3c2=O)cc1

>  <score_type>  (43) 
oracle

>  <origin>  (43) 
adg

>  <m_score__min__energy>  (43) 
-8.4499999999999993

>  <m_primary>  (43) 
energy

$$$$
43:0
     RDKit          3D

 41 43  0  0  0  0  0  0  0  0999 V2000
   57.8200   29.4140   44.7360 C   0  0  0  0  0  0  0  0  0  0  0  0
   56.6870   30.3470   44.8710 N   0  0  0  0  0  0  0  0  0  0  0  0
   55.7130   30.0800   43.7990 C   0  0  0  0  0  0  0  0  0  0  0  0
   57.1320   31.7570   44.8040 C   0  0  0  0  0  0  0  0  0  0  0  0
   58.6290   31.9280   45.1490 C   0  0  0  0  0  0  0  0  0  0  0  0
   58.9430   32.0340   46.6720 C   0  0  2  0  0  0  0  0  0  0  0  0
   58.1660   33.2180   47.2860 C   0  0  0  0  0  0  0  0  0  0  0  0
   58.5330   34.5800   46.6550 C   0  0  0  0  0  0  0  0  0  0  0  0
   60.0190   34.7530   46.2420 C   0  0  0  0  0  0  0  0  0  0  0  0
   60.9350   33.6170   46.6370 C   0  0  0  0  0  0  0  0  0  0  0  0
   62.3160   33.8470   46.7440 C   0  0  0  0  0  0  0  0  0  0  0  0
   63.1710   32.8270   47.1690 C   0  0  0  0  0  0  0  0  0  0  0  0
   62.6500   31.5830   47.5320 C   0  0  0  0  0  0  0  0  0  0  0  0
   61.2740   31.3430   47.4270 C   0  0  0  0  0  0  0  0  0  0  0  0
   60.4280   32.3270   46.8880 C   0  0  0  0  0  0  0  0  0  0  0  0
   60.6720   30.0790   47.9470 C   0  0  0  0  0  0  0  0  0  0  0  0
   59.2360   30.3750   48.3730 C   0  0  0  0  0  0  0  0  0  0  0  0
   58.4720   30.8180   47.2680 O   0  0  0  0  0  0  0  0  0  0  0  0
   58.1752   29.1215   45.7351 H   0  0  0  0  0  0  0  0  0  0  0  0
   57.4943   28.5188   44.1861 H   0  0  0  0  0  0  0  0  0  0  0  0
   58.6361   29.9054   44.1861 H   0  0  0  0  0  0  0  0  0  0  0  0
   54.7425   29.8140   44.2433 H   0  0  0  0  0  0  0  0  0  0  0  0
   55.5971   30.9795   43.1765 H   0  0  0  0  0  0  0  0  0  0  0  0
   56.0720   29.2471   43.1765 H   0  0  0  0  0  0  0  0  0  0  0  0
   56.9611   32.1317   43.7840 H   0  0  0  0  0  0  0  0  0  0  0  0
   56.5531   32.3235   45.5483 H   0  0  0  0  0  0  0  0  0  0  0  0
   59.1736   31.0608   44.7473 H   0  0  0  0  0  0  0  0  0  0  0  0
   58.9416   32.8833   44.7021 H   0  0  0  0  0  0  0  0  0  0  0  0
   57.0899   33.0435   47.1395 H   0  0  0  0  0  0  0  0  0  0  0  0
   58.4353   33.2683   48.3513 H   0  0  0  0  0  0  0  0  0  0  0  0
   57.9146   34.7129   45.7550 H   0  0  0  0  0  0  0  0  0  0  0  0
   58.3503   35.3313   47.4374 H   0  0  0  0  0  0  0  0  0  0  0  0
   60.0579   34.8562   45.1475 H   0  0  0  0  0  0  0  0  0  0  0  0
   60.3837   35.6398   46.7812 H   0  0  0  0  0  0  0  0  0  0  0  0
   62.7270   34.8357   46.4918 H   0  0  0  0  0  0  0  0  0  0  0  0
   64.2556   33.0039   47.2178 H   0  0  0  0  0  0  0  0  0  0  0  0
   63.3200   30.7921   47.9002 H   0  0  0  0  0  0  0  0  0  0  0  0
   60.6759   29.3125   47.1580 H   0  0  0  0  0  0  0  0  0  0  0  0
   61.2531   29.7052   48.8030 H   0  0  0  0  0  0  0  0  0  0  0  0
   58.7838   29.4594   48.7818 H   0  0  0  0  0  0  0  0  0  0  0  0
   59.2479   31.1663   49.1370 H   0  0  0  0  0  0  0  0  0  0  0  0
  1  2  1  0
  2  3  1  0
  2  4  1  0
  4  5  1  0
  6  5  1  6
  6  7  1  0
  7  8  1  0
  8  9  1  0
  9 10  1  0
 10 11  2  0
 11 12  1  0
 12 13  2  0
 13 14  1  0
 14 15  2  0
 14 16  1  0
 16 17  1  0
 17 18  1  0
 15  6  1  0
 18  6  1  0
 15 10  1  0
  1 19  1  0
  1 20  1  0
  1 21  1  0
  3 22  1  0
  3 23  1  0
  3 24  1  0
  4 25  1  0
  4 26  1  0
  5 27  1  0
  5 28  1  0
  7 29  1  0
  7 30  1  0
  8 31  1  0
  8 32  1  0
  9 33  1  0
  9 34  1  0
 11 35  1  0
 12 36  1  0
 13 37  1  0
 16 38  1  0
 16 39  1  0
 17 40  1  0
 17 41  1  0
M  END
>  <UniqueID>  (44) 
41

>  <SMILES>  (44) 
CN(C)CC[C@]12CCCc3cccc(c31)CCO2

>  <Energy>  (44) 
55.84544763234607

>  <Genealogy>  (44) 
CN(C)CC[C@]12CCCc3cccc(c31)CCO2 (chirality)
CN(C)CC[C@]12CCCc3cccc(c31)CCO2 (3D coordinates assigned)
CN(C)CC[C@]12CCCc3cccc(c31)CCO2 (nonaromatic ring conformer: 55.84544763234607 kcal/mol)

>  <smiles>  (44) 
CN(C)CCC12CCCc3cccc(c31)CCO2

>  <score_type>  (44) 
oracle

>  <origin>  (44) 
adg

>  <m_score__min__energy>  (44) 
-7.0800000000000001

>  <m_primary>  (44) 
energy

$$$$
44:0
     RDKit          3D

 46 49  0  0  0  0  0  0  0  0999 V2000
   55.9120   29.7280   43.0590 C   0  0  0  0  0  0  0  0  0  0  0  0
   55.9170   30.7980   43.9980 O   0  0  0  0  0  0  0  0  0  0  0  0
   57.0350   31.1850   44.7510 C   0  0  0  0  0  0  0  0  0  0  0  0
   57.3780   32.5350   44.9560 C   0  0  0  0  0  0  0  0  0  0  0  0
   58.5010   32.8690   45.7180 C   0  0  0  0  0  0  0  0  0  0  0  0
   59.2930   31.8640   46.3000 C   0  0  0  0  0  0  0  0  0  0  0  0
   60.4890   32.2000   47.1030 C   0  0  0  0  0  0  0  0  0  0  0  0
   61.6230   32.6990   46.5520 N   0  0  0  0  0  0  0  0  0  0  0  0
   62.4380   32.8830   47.6090 C   0  0  0  0  0  0  0  0  0  0  0  0
   63.7390   33.3730   47.5510 C   0  0  0  0  0  0  0  0  0  0  0  0
   64.4590   33.4670   48.7510 C   0  0  0  0  0  0  0  0  0  0  0  0
   63.8760   33.0520   49.9690 C   0  0  0  0  0  0  0  0  0  0  0  0
   64.6360   33.1740   51.2570 C   0  0  0  0  0  0  0  0  0  0  0  0
   62.5510   32.5770   49.9660 C   0  0  0  0  0  0  0  0  0  0  0  0
   61.8840   32.5240   48.7810 N   0  0  0  0  0  0  0  0  0  0  0  0
   60.6450   32.0880   48.4850 C   0  0  0  0  0  0  0  0  0  0  0  0
   59.6990   31.4950   49.4540 C   0  0  0  0  0  0  0  0  0  0  0  0
   59.7920   30.1370   49.7920 C   0  0  0  0  0  0  0  0  0  0  0  0
   58.8880   29.5710   50.6960 C   0  0  0  0  0  0  0  0  0  0  0  0
   57.8790   30.3510   51.2730 C   0  0  0  0  0  0  0  0  0  0  0  0
   56.9960   29.7380   52.1740 O   0  0  0  0  0  0  0  0  0  0  0  0
   55.8820   30.3880   52.7770 C   0  0  0  0  0  0  0  0  0  0  0  0
   57.7850   31.7140   50.9330 C   0  0  0  0  0  0  0  0  0  0  0  0
   58.6890   32.2790   50.0290 C   0  0  0  0  0  0  0  0  0  0  0  0
   58.9590   30.5190   46.0760 C   0  0  0  0  0  0  0  0  0  0  0  0
   57.8370   30.1860   45.3130 C   0  0  0  0  0  0  0  0  0  0  0  0
   55.9075   28.7684   43.5966 H   0  0  0  0  0  0  0  0  0  0  0  0
   55.0142   29.7986   42.4274 H   0  0  0  0  0  0  0  0  0  0  0  0
   56.8104   29.7902   42.4274 H   0  0  0  0  0  0  0  0  0  0  0  0
   56.7595   33.3303   44.5145 H   0  0  0  0  0  0  0  0  0  0  0  0
   58.7671   33.9264   45.8634 H   0  0  0  0  0  0  0  0  0  0  0  0
   64.1886   33.6771   46.5942 H   0  0  0  0  0  0  0  0  0  0  0  0
   65.4839   33.8663   48.7437 H   0  0  0  0  0  0  0  0  0  0  0  0
   63.9427   33.0627   52.1038 H   0  0  0  0  0  0  0  0  0  0  0  0
   65.4036   32.3876   51.3057 H   0  0  0  0  0  0  0  0  0  0  0  0
   65.1189   34.1612   51.3057 H   0  0  0  0  0  0  0  0  0  0  0  0
   62.0660   32.2561   50.8997 H   0  0  0  0  0  0  0  0  0  0  0  0
   60.5801   29.5141   49.3437 H   0  0  0  0  0  0  0  0  0  0  0  0
   58.9703   28.5052   50.9556 H   0  0  0  0  0  0  0  0  0  0  0  0
   55.9745   30.3340   53.8718 H   0  0  0  0  0  0  0  0  0  0  0  0
   55.8581   31.4418   52.4626 H   0  0  0  0  0  0  0  0  0  0  0  0
   54.9528   29.8903   52.4626 H   0  0  0  0  0  0  0  0  0  0  0  0
   56.9967   32.3370   51.3807 H   0  0  0  0  0  0  0  0  0  0  0  0
   58.6075   33.3443   49.7674 H   0  0  0  0  0  0  0  0  0  0  0  0
   59.5848   29.7220   46.5040 H   0  0  0  0  0  0  0  0  0  0  0  0
   57.5818   29.1281   45.1526 H   0  0  0  0  0  0  0  0  0  0  0  0
  1  2  1  0
  2  3  1  0
  3  4  2  0
  4  5  1  0
  5  6  2  0
  6  7  1  0
  7  8  1  0
  8  9  2  0
  9 10  1  0
 10 11  2  0
 11 12  1  0
 12 13  1  0
 12 14  2  0
 14 15  1  0
 15 16  1  0
 16 17  1  0
 17 18  2  0
 18 19  1  0
 19 20  2  0
 20 21  1  0
 21 22  1  0
 20 23  1  0
 23 24  2  0
  6 25  1  0
 25 26  2  0
 26  3  1  0
 16  7  2  0
 24 17  1  0
 15  9  1  0
  1 27  1  0
  1 28  1  0
  1 29  1  0
  4 30  1  0
  5 31  1  0
 10 32  1  0
 11 33  1  0
 13 34  1  0
 13 35  1  0
 13 36  1  0
 14 37  1  0
 18 38  1  0
 19 39  1  0
 22 40  1  0
 22 41  1  0
 22 42  1  0
 23 43  1  0
 24 44  1  0
 25 45  1  0
 26 46  1  0
M  END
>  <UniqueID>  (45) 
42

>  <SMILES>  (45) 
COc1ccc(-c2nc3ccc(C)cn3c2-c2ccc(OC)cc2)cc1

>  <Energy>  (45) 
91.9807630377648

>  <Genealogy>  (45) 
COc1ccc(-c2nc3ccc(C)cn3c2-c2ccc(OC)cc2)cc1 (3D coordinates assigned)
COc1ccc(-c2nc3ccc(C)cn3c2-c2ccc(OC)cc2)cc1 (optimized conformer: 91.9807630377648 kcal/mol)

>  <smiles>  (45) 
COc1ccc(-c2nc3ccc(C)cn3c2-c2ccc(OC)cc2)cc1

>  <score_type>  (45) 
oracle

>  <origin>  (45) 
adg

>  <m_score__min__energy>  (45) 
-7.0599999999999996

>  <m_primary>  (45) 
energy

$$$$
45:0
     RDKit          3D

 37 39  0  0  0  0  0  0  0  0999 V2000
   55.2080   25.1510   46.0050 O   0  0  0  0  0  0  0  0  0  0  0  0
   56.2840   25.7140   45.6690 C   0  0  0  0  0  0  0  0  0  0  0  0
   56.6600   27.0230   46.2910 C   0  0  0  0  0  0  0  0  0  0  0  0
   58.0660   27.4140   45.8990 C   0  0  0  0  0  0  0  0  0  0  0  0
   59.1420   26.8170   46.5800 C   0  0  0  0  0  0  0  0  0  0  0  0
   60.4600   27.1550   46.2680 C   0  0  0  0  0  0  0  0  0  0  0  0
   60.7230   28.0960   45.2760 C   0  0  0  0  0  0  0  0  0  0  0  0
   59.6710   28.7110   44.5980 C   0  0  0  0  0  0  0  0  0  0  0  0
   58.3340   28.3960   44.9080 C   0  0  0  0  0  0  0  0  0  0  0  0
   57.2350   29.0790   44.1280 C   0  0  0  0  0  0  0  0  0  0  0  0
   57.3920   30.5300   44.1880 N   0  0  0  0  0  0  0  0  0  0  0  0
   57.8040   31.3250   43.1820 C   0  0  0  0  0  0  0  0  0  0  0  0
   57.7740   32.6300   43.6220 C   0  0  0  0  0  0  0  0  0  0  0  0
   57.3180   32.5520   44.9240 C   0  0  0  0  0  0  0  0  0  0  0  0
   57.0860   31.2640   45.2450 N   0  0  0  0  0  0  0  0  0  0  0  0
   57.1150   25.1530   44.6450 N   0  0  0  0  0  0  0  0  0  0  0  0
   57.0700   23.8050   44.1570 C   0  0  0  0  0  0  0  0  0  0  0  0
   58.0690   22.9080   44.5470 C   0  0  0  0  0  0  0  0  0  0  0  0
   58.0370   21.5840   44.1060 C   0  0  0  0  0  0  0  0  0  0  0  0
   56.9890   21.1650   43.2840 C   0  0  0  0  0  0  0  0  0  0  0  0
   56.0090   22.0380   42.9330 N   0  0  0  0  0  0  0  0  0  0  0  0
   56.0200   23.3340   43.3480 C   0  0  0  0  0  0  0  0  0  0  0  0
   55.9602   27.7998   45.9493 H   0  0  0  0  0  0  0  0  0  0  0  0
   56.6121   26.9223   47.3853 H   0  0  0  0  0  0  0  0  0  0  0  0
   58.9427   26.0753   47.3675 H   0  0  0  0  0  0  0  0  0  0  0  0
   61.2918   26.6774   46.8065 H   0  0  0  0  0  0  0  0  0  0  0  0
   61.7626   28.3548   45.0266 H   0  0  0  0  0  0  0  0  0  0  0  0
   59.8879   29.4501   43.8127 H   0  0  0  0  0  0  0  0  0  0  0  0
   57.2795   28.7530   43.0784 H   0  0  0  0  0  0  0  0  0  0  0  0
   56.2642   28.8073   44.5682 H   0  0  0  0  0  0  0  0  0  0  0  0
   58.1117   30.9897   42.1806 H   0  0  0  0  0  0  0  0  0  0  0  0
   58.0517   33.5344   43.0608 H   0  0  0  0  0  0  0  0  0  0  0  0
   57.1674   33.4100   45.5957 H   0  0  0  0  0  0  0  0  0  0  0  0
   58.8835   23.2470   45.2040 H   0  0  0  0  0  0  0  0  0  0  0  0
   58.8279   20.8793   44.4025 H   0  0  0  0  0  0  0  0  0  0  0  0
   56.9568   20.1273   42.9204 H   0  0  0  0  0  0  0  0  0  0  0  0
   55.2076   24.0134   43.0508 H   0  0  0  0  0  0  0  0  0  0  0  0
  1  2  2  0
  2  3  1  0
  3  4  1  0
  4  5  2  0
  5  6  1  0
  6  7  2  0
  7  8  1  0
  8  9  2  0
  9 10  1  0
 10 11  1  0
 11 12  1  0
 12 13  2  0
 13 14  1  0
 14 15  2  0
  2 16  1  0
 16 17  1  0
 17 18  2  0
 18 19  1  0
 19 20  2  0
 20 21  1  0
 21 22  2  0
  9  4  1  0
 15 11  1  0
 22 17  1  0
  3 23  1  0
  3 24  1  0
  5 25  1  0
  6 26  1  0
  7 27  1  0
  8 28  1  0
 10 29  1  0
 10 30  1  0
 12 31  1  0
 13 32  1  0
 14 33  1  0
 18 34  1  0
 19 35  1  0
 20 36  1  0
 22 37  1  0
M  CHG  1  16  -1
M  END
>  <UniqueID>  (46) 
43

>  <SMILES>  (46) 
O=C(Cc1ccccc1Cn1cccn1)[N-]c1cccnc1

>  <Energy>  (46) 
71.57314241124723

>  <Genealogy>  (46) 
O=C(Cc1ccccc1Cn1cccn1)[N-]c1cccnc1 (protonated)
O=C(Cc1ccccc1Cn1cccn1)[N-]c1cccnc1 (3D coordinates assigned)
O=C(Cc1ccccc1Cn1cccn1)[N-]c1cccnc1 (optimized conformer: 71.57314241124723 kcal/mol)

>  <smiles>  (46) 
O=C(Cc1ccccc1Cn1cccn1)Nc1cccnc1

>  <score_type>  (46) 
oracle

>  <origin>  (46) 
adg

>  <m_score__min__energy>  (46) 
-9.0600000000000005

>  <m_primary>  (46) 
energy

$$$$
46:0
     RDKit          3D

 44 46  0  0  0  0  0  0  0  0999 V2000
   56.9175   33.9845   43.9148 H   0  0  0  0  0  0  0  0  0  0  0  0
   57.7790   33.8750   44.5900 C   0  0  0  0  0  0  0  0  0  0  0  0
   58.5290   34.9590   44.9010 N   0  0  0  0  0  0  0  0  0  0  0  0
   59.5920   34.8770   45.7360 C   0  0  0  0  0  0  0  0  0  0  0  0
   60.1738   35.7810   45.9692 H   0  0  0  0  0  0  0  0  0  0  0  0
   59.9570   33.6480   46.3060 C   0  0  0  0  0  0  0  0  0  0  0  0
   61.1200   33.6050   47.2290 C   0  0  0  0  0  0  0  0  0  0  0  0
   60.9970   34.0530   48.5550 C   0  0  0  0  0  0  0  0  0  0  0  0
   60.0316   34.4394   48.9138 H   0  0  0  0  0  0  0  0  0  0  0  0
   62.0930   34.0110   49.4210 C   0  0  0  0  0  0  0  0  0  0  0  0
   61.9837   34.3581   50.4591 H   0  0  0  0  0  0  0  0  0  0  0  0
   63.3330   33.5280   48.9730 C   0  0  0  0  0  0  0  0  0  0  0  0
   64.5120   33.4570   49.9080 C   0  0  0  0  0  0  0  0  0  0  0  0
   64.1946   33.7683   50.9142 H   0  0  0  0  0  0  0  0  0  0  0  0
   65.3017   34.1253   49.5341 H   0  0  0  0  0  0  0  0  0  0  0  0
   65.0440   32.0800   49.9710 N   0  0  0  0  0  0  0  0  0  0  0  0
   64.1890   31.2250   50.8140 C   0  0  0  0  0  0  0  0  0  0  0  0
   64.3957   31.4317   51.8744 H   0  0  0  0  0  0  0  0  0  0  0  0
   63.1315   31.4377   50.5983 H   0  0  0  0  0  0  0  0  0  0  0  0
   64.4017   30.1675   50.5983 H   0  0  0  0  0  0  0  0  0  0  0  0
   66.4110   32.0930   50.5140 C   0  0  0  0  0  0  0  0  0  0  0  0
   66.3689   32.0926   51.6132 H   0  0  0  0  0  0  0  0  0  0  0  0
   66.9517   31.2000   50.1674 H   0  0  0  0  0  0  0  0  0  0  0  0
   66.9346   32.9962   50.1674 H   0  0  0  0  0  0  0  0  0  0  0  0
   63.4590   33.0840   47.6480 C   0  0  0  0  0  0  0  0  0  0  0  0
   64.4254   32.6998   47.2896 H   0  0  0  0  0  0  0  0  0  0  0  0
   62.3640   33.1270   46.7810 C   0  0  0  0  0  0  0  0  0  0  0  0
   62.4760   32.7848   45.7416 H   0  0  0  0  0  0  0  0  0  0  0  0
   59.2290   32.4820   45.9660 C   0  0  0  0  0  0  0  0  0  0  0  0
   59.6500   31.3380   46.4460 N   0  0  0  0  0  0  0  0  0  0  0  0
   59.7210   30.8900   47.8050 C   0  0  0  0  0  0  0  0  0  0  0  0
   60.6990   29.9620   48.1990 C   0  0  0  0  0  0  0  0  0  0  0  0
   61.3840   29.5354   47.4515 H   0  0  0  0  0  0  0  0  0  0  0  0
   60.8030   29.5800   49.5390 C   0  0  0  0  0  0  0  0  0  0  0  0
   61.5565   28.8381   49.8421 H   0  0  0  0  0  0  0  0  0  0  0  0
   59.9500   30.1400   50.4950 C   0  0  0  0  0  0  0  0  0  0  0  0
   60.0277   29.8334   51.5485 H   0  0  0  0  0  0  0  0  0  0  0  0
   58.9970   31.0910   50.1110 C   0  0  0  0  0  0  0  0  0  0  0  0
   57.8470   31.8730   51.4210 Br  0  0  0  0  0  0  0  0  0  0  0  0
   58.8930   31.4760   48.7700 C   0  0  0  0  0  0  0  0  0  0  0  0
   58.1596   32.2403   48.4734 H   0  0  0  0  0  0  0  0  0  0  0  0
   58.0890   32.6170   45.1190 C   0  0  0  0  0  0  0  0  0  0  0  0
   57.1550   31.5490   44.8500 C   0  0  0  0  0  0  0  0  0  0  0  0
   56.4150   30.6850   44.6320 N   0  0  0  0  0  0  0  0  0  0  0  0
  1  2  1  0
  2  3  1  0
  3  4  1  0
  4  5  1  0
  4  6  2  0
  6  7  1  0
  7  8  2  0
  8  9  1  0
  8 10  1  0
 10 11  1  0
 10 12  2  0
 12 13  1  0
 13 14  1  0
 13 15  1  0
 13 16  1  0
 16 17  1  0
 17 18  1  0
 17 19  1  0
 17 20  1  0
 16 21  1  0
 21 22  1  0
 21 23  1  0
 21 24  1  0
 12 25  1  0
 25 26  1  0
 25 27  2  0
 27 28  1  0
  6 29  1  0
 29 30  2  0
 30 31  1  0
 31 32  2  0
 32 33  1  0
 32 34  1  0
 34 35  1  0
 34 36  2  0
 36 37  1  0
 36 38  1  0
 38 39  1  0
 38 40  2  0
 40 41  1  0
 29 42  1  0
 42 43  1  0
 43 44  3  0
 42  2  2  0
 27  7  1  0
 40 31  1  0
M  CHG  1   3  -1
M  END
>  <UniqueID>  (47) 
44

>  <SMILES>  (47) 
CN(C)Cc1ccc(-c2c[n-]cc(C#N)/c2=N\c2cccc(Br)c2)cc1

>  <Energy>  (47) 
69.08313684649752

>  <Genealogy>  (47) 
CN(C)Cc1ccc(-c2c[n-]cc(C#N)c2=Nc2cccc(Br)c2)cc1 (protonated)
CN(C)Cc1ccc(-c2c[n-]cc(C#N)/c2=N\c2cccc(Br)c2)cc1 (cis-trans isomerization)
CN(C)Cc1ccc(-c2c[n-]cc(C#N)/c2=N\c2cccc(Br)c2)cc1 (3D coordinates assigned)
CN(C)Cc1ccc(-c2c[n-]cc(C#N)/c2=N\c2cccc(Br)c2)cc1 (optimized conformer: 69.08313684649752 kcal/mol)

>  <smiles>  (47) 
CN(C)Cc1ccc(-c2c[nH]cc(C#N)c2=Nc2cccc(Br)c2)cc1

>  <score_type>  (47) 
oracle

>  <origin>  (47) 
adg

>  <m_score__min__energy>  (47) 
-8.9100000000000001

>  <m_primary>  (47) 
energy

$$$$
47:0
     RDKit          3D

 49 52  0  0  0  0  0  0  0  0999 V2000
   63.3540   34.1550   46.3530 C   0  0  0  0  0  0  0  0  0  0  0  0
   63.3400   33.7980   47.8430 C   0  0  0  0  0  0  0  0  0  0  0  0
   63.6870   32.3860   48.1580 N   0  0  0  0  0  0  0  0  0  0  0  0
   63.3370   31.9750   49.5480 C   0  0  0  0  0  0  0  0  0  0  0  0
   62.1570   30.9930   49.6280 C   0  0  0  0  0  0  0  0  0  0  0  0
   61.2270   31.2520   48.5260 N   0  0  0  0  0  0  0  0  0  0  0  0
   59.8840   30.6660   48.7300 C   0  0  0  0  0  0  0  0  0  0  0  0
   59.0900   30.4730   47.4530 C   0  0  0  0  0  0  0  0  0  0  0  0
   58.6720   31.4290   46.5170 C   0  0  0  0  0  0  0  0  0  0  0  0
   59.0040   32.8650   46.4940 C   0  0  0  0  0  0  0  0  0  0  0  0
   59.0450   33.5490   45.2700 C   0  0  0  0  0  0  0  0  0  0  0  0
   59.3560   34.9120   45.2350 C   0  0  0  0  0  0  0  0  0  0  0  0
   59.6440   35.5950   46.4200 C   0  0  0  0  0  0  0  0  0  0  0  0
   59.6300   34.9140   47.6400 C   0  0  0  0  0  0  0  0  0  0  0  0
   59.3190   33.5510   47.6790 C   0  0  0  0  0  0  0  0  0  0  0  0
   57.8710   30.8530   45.5900 N   0  0  0  0  0  0  0  0  0  0  0  0
   57.7890   29.5720   45.8970 N   0  0  0  0  0  0  0  0  0  0  0  0
   57.0810   28.6310   45.2210 C   0  0  0  0  0  0  0  0  0  0  0  0
   57.0990   27.3130   45.7000 C   0  0  0  0  0  0  0  0  0  0  0  0
   57.8410   27.0060   46.8560 C   0  0  0  0  0  0  0  0  0  0  0  0
   58.5580   28.0090   47.5260 C   0  0  0  0  0  0  0  0  0  0  0  0
   58.5050   29.3030   47.0010 C   0  0  0  0  0  0  0  0  0  0  0  0
   61.8340   30.8960   47.2330 C   0  0  0  0  0  0  0  0  0  0  0  0
   63.2830   31.4200   47.1050 C   0  0  0  0  0  0  0  0  0  0  0  0
   63.3969   35.2482   46.2383 H   0  0  0  0  0  0  0  0  0  0  0  0
   64.2350   33.7014   45.8755 H   0  0  0  0  0  0  0  0  0  0  0  0
   62.4401   33.7718   45.8755 H   0  0  0  0  0  0  0  0  0  0  0  0
   64.0632   34.4490   48.3560 H   0  0  0  0  0  0  0  0  0  0  0  0
   62.3034   33.9412   48.1821 H   0  0  0  0  0  0  0  0  0  0  0  0
   64.7360   32.3830   48.1270 H   0  0  0  0  0  0  0  0  0  0  0  0
   64.2180   31.4956   49.9998 H   0  0  0  0  0  0  0  0  0  0  0  0
   63.0314   32.8861   50.0833 H   0  0  0  0  0  0  0  0  0  0  0  0
   62.5331   29.9619   49.5550 H   0  0  0  0  0  0  0  0  0  0  0  0
   61.6343   31.1271   50.5865 H   0  0  0  0  0  0  0  0  0  0  0  0
   60.0053   29.6849   49.2125 H   0  0  0  0  0  0  0  0  0  0  0  0
   59.3189   31.3783   49.3491 H   0  0  0  0  0  0  0  0  0  0  0  0
   58.8318   33.0113   44.3343 H   0  0  0  0  0  0  0  0  0  0  0  0
   59.3740   35.4470   44.2741 H   0  0  0  0  0  0  0  0  0  0  0  0
   59.8817   36.6687   46.3921 H   0  0  0  0  0  0  0  0  0  0  0  0
   59.8640   35.4507   48.5712 H   0  0  0  0  0  0  0  0  0  0  0  0
   59.3210   33.0149   48.6395 H   0  0  0  0  0  0  0  0  0  0  0  0
   56.5077   28.8958   44.3203 H   0  0  0  0  0  0  0  0  0  0  0  0
   56.5376   26.5252   45.1763 H   0  0  0  0  0  0  0  0  0  0  0  0
   57.8589   25.9740   47.2363 H   0  0  0  0  0  0  0  0  0  0  0  0
   59.1407   27.7848   48.4317 H   0  0  0  0  0  0  0  0  0  0  0  0
   61.8434   29.8004   47.1356 H   0  0  0  0  0  0  0  0  0  0  0  0
   61.2342   31.3630   46.4380 H   0  0  0  0  0  0  0  0  0  0  0  0
   63.9647   30.5579   47.1506 H   0  0  0  0  0  0  0  0  0  0  0  0
   63.3350   31.9616   46.1490 H   0  0  0  0  0  0  0  0  0  0  0  0
  1  2  1  0
  2  3  1  0
  3  4  1  0
  4  5  1  0
  5  6  1  0
  6  7  1  0
  7  8  1  0
  8  9  1  0
  9 10  1  0
 10 11  2  0
 11 12  1  0
 12 13  2  0
 13 14  1  0
 14 15  2  0
  9 16  2  0
 16 17  1  0
 17 18  1  0
 18 19  2  0
 19 20  1  0
 20 21  2  0
 21 22  1  0
  6 23  1  0
 23 24  1  0
 24  3  1  0
 22  8  2  0
 15 10  1  0
 22 17  1  0
  1 25  1  0
  1 26  1  0
  1 27  1  0
  2 28  1  0
  2 29  1  0
  3 30  1  0
  4 31  1  0
  4 32  1  0
  5 33  1  0
  5 34  1  0
  7 35  1  0
  7 36  1  0
 11 37  1  0
 12 38  1  0
 13 39  1  0
 14 40  1  0
 15 41  1  0
 18 42  1  0
 19 43  1  0
 20 44  1  0
 21 45  1  0
 23 46  1  0
 23 47  1  0
 24 48  1  0
 24 49  1  0
M  CHG  1   3   1
M  END
>  <UniqueID>  (48) 
45

>  <SMILES>  (48) 
CC[NH+]1CCN(Cc2c(-c3ccccc3)nn3ccccc23)CC1

>  <Energy>  (48) 
109.08962072880065

>  <Genealogy>  (48) 
CC[NH+]1CCN(Cc2c(-c3ccccc3)nn3ccccc23)CC1 (protonated)
CC[NH+]1CCN(Cc2c(-c3ccccc3)nn3ccccc23)CC1 (3D coordinates assigned)
CC[NH+]1CCN(Cc2c(-c3ccccc3)nn3ccccc23)CC1 (nonaromatic ring conformer: 109.08962072880065 kcal/mol)

>  <smiles>  (48) 
CCN1CCN(Cc2c(-c3ccccc3)nn3ccccc23)CC1

>  <score_type>  (48) 
oracle

>  <origin>  (48) 
adg

>  <m_score__min__energy>  (48) 
-6.3600000000000003

>  <m_primary>  (48) 
energy

$$$$
48:0
     RDKit          3D

 62 65  0  0  0  0  0  0  0  0999 V2000
   55.6180   21.3980   45.0600 C   0  0  0  0  0  0  0  0  0  0  0  0
   56.2680   21.7220   43.7790 N   0  0  0  0  0  0  0  0  0  0  0  0
   57.7180   21.4390   43.8530 C   0  0  0  0  0  0  0  0  0  0  0  0
   58.4090   22.2390   44.9830 C   0  0  0  0  0  0  0  0  0  0  0  0
   58.5170   23.7490   44.6960 C   0  0  0  0  0  0  0  0  0  0  0  0
   57.3250   24.5360   45.1050 N   0  0  0  0  0  0  0  0  0  0  0  0
   57.5900   25.9990   45.1920 C   0  0  0  0  0  0  0  0  0  0  0  0
   58.5750   26.3930   46.3320 C   0  0  0  0  0  0  0  0  0  0  0  0
   59.4520   27.6040   45.9770 C   0  0  0  0  0  0  0  0  0  0  0  0
   58.6830   28.5830   45.1940 N   0  0  0  0  0  0  0  0  0  0  0  0
   58.5240   29.9390   45.6570 C   0  0  0  0  0  0  0  0  0  0  0  0
   58.8110   30.2750   46.9900 C   0  0  0  0  0  0  0  0  0  0  0  0
   58.6410   31.5860   47.4450 C   0  0  0  0  0  0  0  0  0  0  0  0
   58.1700   32.5860   46.5740 C   0  0  0  0  0  0  0  0  0  0  0  0
   57.9750   33.9460   47.0110 N   0  0  0  0  0  0  0  0  0  0  0  0
   59.0200   34.9700   47.0230 C   0  0  0  0  0  0  0  0  0  0  0  0
   60.3430   34.3770   47.4320 C   0  0  0  0  0  0  0  0  0  0  0  0
   60.6650   34.2420   48.7930 C   0  0  0  0  0  0  0  0  0  0  0  0
   61.8950   33.6980   49.1770 C   0  0  0  0  0  0  0  0  0  0  0  0
   62.8150   33.2930   48.2050 C   0  0  0  0  0  0  0  0  0  0  0  0
   62.5080   33.4360   46.8490 C   0  0  0  0  0  0  0  0  0  0  0  0
   61.2780   33.9800   46.4620 C   0  0  0  0  0  0  0  0  0  0  0  0
   57.8830   32.2470   45.2440 C   0  0  0  0  0  0  0  0  0  0  0  0
   58.0530   30.9370   44.7890 C   0  0  0  0  0  0  0  0  0  0  0  0
   58.0180   28.1540   43.9520 C   0  0  0  0  0  0  0  0  0  0  0  0
   57.9870   26.6230   43.8350 C   0  0  0  0  0  0  0  0  0  0  0  0
   55.9880   24.0740   44.6460 C   0  0  0  0  0  0  0  0  0  0  0  0
   55.9960   23.1310   43.4280 C   0  0  0  0  0  0  0  0  0  0  0  0
   56.2636   21.7198   45.8905 H   0  0  0  0  0  0  0  0  0  0  0  0
   54.6518   21.9199   45.1232 H   0  0  0  0  0  0  0  0  0  0  0  0
   55.4531   20.3123   45.1232 H   0  0  0  0  0  0  0  0  0  0  0  0
   57.8608   20.3645   44.0404 H   0  0  0  0  0  0  0  0  0  0  0  0
   58.1717   21.7406   42.8974 H   0  0  0  0  0  0  0  0  0  0  0  0
   57.8312   22.1019   45.9089 H   0  0  0  0  0  0  0  0  0  0  0  0
   59.4358   21.8537   45.0681 H   0  0  0  0  0  0  0  0  0  0  0  0
   59.3908   24.1409   45.2372 H   0  0  0  0  0  0  0  0  0  0  0  0
   58.6063   23.8566   43.6049 H   0  0  0  0  0  0  0  0  0  0  0  0
   56.6222   26.4418   45.4701 H   0  0  0  0  0  0  0  0  0  0  0  0
   57.9906   26.6354   47.2318 H   0  0  0  0  0  0  0  0  0  0  0  0
   59.2467   25.5376   46.4962 H   0  0  0  0  0  0  0  0  0  0  0  0
   59.8060   28.0791   46.9038 H   0  0  0  0  0  0  0  0  0  0  0  0
   60.3077   27.2608   45.3770 H   0  0  0  0  0  0  0  0  0  0  0  0
   59.1726   29.5002   47.6820 H   0  0  0  0  0  0  0  0  0  0  0  0
   58.8767   31.8373   48.4897 H   0  0  0  0  0  0  0  0  0  0  0  0
   57.0380   34.2170   47.3870 H   0  0  0  0  0  0  0  0  0  0  0  0
   59.1139   35.4017   46.0156 H   0  0  0  0  0  0  0  0  0  0  0  0
   58.7428   35.7492   47.7482 H   0  0  0  0  0  0  0  0  0  0  0  0
   59.9463   34.5657   49.5602 H   0  0  0  0  0  0  0  0  0  0  0  0
   62.1387   33.5887   50.2441 H   0  0  0  0  0  0  0  0  0  0  0  0
   63.7806   32.8617   48.5077 H   0  0  0  0  0  0  0  0  0  0  0  0
   63.2340   33.1206   46.0851 H   0  0  0  0  0  0  0  0  0  0  0  0
   61.0426   34.0971   45.3939 H   0  0  0  0  0  0  0  0  0  0  0  0
   57.5201   33.0208   44.5514 H   0  0  0  0  0  0  0  0  0  0  0  0
   57.8164   30.6860   43.7445 H   0  0  0  0  0  0  0  0  0  0  0  0
   56.9859   28.5345   43.9484 H   0  0  0  0  0  0  0  0  0  0  0  0
   58.5842   28.5557   43.0987 H   0  0  0  0  0  0  0  0  0  0  0  0
   57.2523   26.3306   43.0703 H   0  0  0  0  0  0  0  0  0  0  0  0
   58.9858   26.2616   43.5489 H   0  0  0  0  0  0  0  0  0  0  0  0
   55.5068   23.5447   45.4816 H   0  0  0  0  0  0  0  0  0  0  0  0
   55.4491   24.9778   44.3255 H   0  0  0  0  0  0  0  0  0  0  0  0
   55.0122   23.1849   42.9388 H   0  0  0  0  0  0  0  0  0  0  0  0
   56.8085   23.4633   42.7652 H   0  0  0  0  0  0  0  0  0  0  0  0
  1  2  1  0
  2  3  1  0
  3  4  1  0
  4  5  1  0
  5  6  1  0
  6  7  1  0
  7  8  1  0
  8  9  1  0
  9 10  1  0
 10 11  1  0
 11 12  2  0
 12 13  1  0
 13 14  2  0
 14 15  1  0
 15 16  1  0
 16 17  1  0
 17 18  2  0
 18 19  1  0
 19 20  2  0
 20 21  1  0
 21 22  2  0
 14 23  1  0
 23 24  2  0
 10 25  1  0
 25 26  1  0
  6 27  1  0
 27 28  1  0
 28  2  1  0
 26  7  1  0
 24 11  1  0
 22 17  1  0
  1 29  1  0
  1 30  1  0
  1 31  1  0
  3 32  1  0
  3 33  1  0
  4 34  1  0
  4 35  1  0
  5 36  1  0
  5 37  1  0
  7 38  1  0
  8 39  1  0
  8 40  1  0
  9 41  1  0
  9 42  1  0
 12 43  1  0
 13 44  1  0
 15 45  1  0
 16 46  1  0
 16 47  1  0
 18 48  1  0
 19 49  1  0
 20 50  1  0
 21 51  1  0
 22 52  1  0
 23 53  1  0
 24 54  1  0
 25 55  1  0
 25 56  1  0
 26 57  1  0
 26 58  1  0
 27 59  1  0
 27 60  1  0
 28 61  1  0
 28 62  1  0
M  END
>  <UniqueID>  (49) 
46

>  <SMILES>  (49) 
CN1CCCN(C2CCN(c3ccc(NCc4ccccc4)cc3)CC2)CC1

>  <Energy>  (49) 
93.74233729778503

>  <Genealogy>  (49) 
CN1CCCN(C2CCN(c3ccc(NCc4ccccc4)cc3)CC2)CC1 (3D coordinates assigned)
CN1CCCN(C2CCN(c3ccc(NCc4ccccc4)cc3)CC2)CC1 (nonaromatic ring conformer: 93.74233729778503 kcal/mol)

>  <smiles>  (49) 
CN1CCCN(C2CCN(c3ccc(NCc4ccccc4)cc3)CC2)CC1

>  <score_type>  (49) 
oracle

>  <origin>  (49) 
adg

>  <m_score__min__energy>  (49) 
-6.5899999999999999

>  <m_primary>  (49) 
energy

$$$$
49:0
     RDKit          3D

 42 44  0  0  0  0  0  0  0  0999 V2000
   56.1970   29.8890   44.4570 C   0  0  0  0  0  0  0  0  0  0  0  0
   57.2600   29.5510   45.4270 N   0  0  0  0  0  0  0  0  0  0  0  0
   57.3590   28.2730   45.9120 C   0  0  0  0  0  0  0  0  0  0  0  0
   56.5490   27.3760   45.5390 O   0  0  0  0  0  0  0  0  0  0  0  0
   58.3580   27.9350   46.8290 C   0  0  0  0  0  0  0  0  0  0  0  0
   58.4170   26.7470   47.2550 O   0  0  0  0  0  0  0  0  0  0  0  0
   59.2570   28.8770   47.2600 N   0  0  0  0  0  0  0  0  0  0  0  0
   60.3050   28.5020   48.2290 C   0  0  0  0  0  0  0  0  0  0  0  0
   59.1740   30.1670   46.7820 C   0  0  0  0  0  0  0  0  0  0  0  0
   60.0580   31.1360   47.1930 N   0  0  0  0  0  0  0  0  0  0  0  0
   59.9970   32.4190   46.7430 C   0  0  0  0  0  0  0  0  0  0  0  0
   60.9500   33.3830   47.2180 N   0  0  0  0  0  0  0  0  0  0  0  0
   62.0910   33.7130   46.3450 C   0  0  0  0  0  0  0  0  0  0  0  0
   63.3960   33.9830   47.1160 C   0  0  0  0  0  0  0  0  0  0  0  0
   63.6870   32.9840   48.2560 C   0  0  0  0  0  0  0  0  0  0  0  0
   63.0500   33.3150   49.6150 C   0  0  0  0  0  0  0  0  0  0  0  0
   61.5190   33.1820   49.6480 C   0  0  0  0  0  0  0  0  0  0  0  0
   60.7670   33.9660   48.5560 C   0  0  0  0  0  0  0  0  0  0  0  0
   59.0170   32.7890   45.8200 C   0  0  0  0  0  0  0  0  0  0  0  0
   58.9220   34.5720   45.1200 Br  0  0  0  0  0  0  0  0  0  0  0  0
   58.1040   31.8390   45.3780 C   0  0  0  0  0  0  0  0  0  0  0  0
   58.1570   30.5080   45.8490 C   0  0  0  0  0  0  0  0  0  0  0  0
   55.2848   30.1791   44.9990 H   0  0  0  0  0  0  0  0  0  0  0  0
   56.5297   30.7257   43.8251 H   0  0  0  0  0  0  0  0  0  0  0  0
   55.9854   29.0138   43.8251 H   0  0  0  0  0  0  0  0  0  0  0  0
   59.9242   28.6382   49.2520 H   0  0  0  0  0  0  0  0  0  0  0  0
   60.5834   27.4485   48.0787 H   0  0  0  0  0  0  0  0  0  0  0  0
   61.1886   29.1398   48.0787 H   0  0  0  0  0  0  0  0  0  0  0  0
   60.8110   30.9220   47.8790 H   0  0  0  0  0  0  0  0  0  0  0  0
   62.2599   32.8698   45.6591 H   0  0  0  0  0  0  0  0  0  0  0  0
   61.8328   34.6396   45.8113 H   0  0  0  0  0  0  0  0  0  0  0  0
   64.2315   33.9414   46.4017 H   0  0  0  0  0  0  0  0  0  0  0  0
   63.2808   34.9699   47.5880 H   0  0  0  0  0  0  0  0  0  0  0  0
   63.3177   31.9966   47.9418 H   0  0  0  0  0  0  0  0  0  0  0  0
   64.7742   33.0245   48.4181 H   0  0  0  0  0  0  0  0  0  0  0  0
   63.4709   32.6321   50.3677 H   0  0  0  0  0  0  0  0  0  0  0  0
   63.2778   34.3716   49.8194 H   0  0  0  0  0  0  0  0  0  0  0  0
   61.2678   32.1170   49.5358 H   0  0  0  0  0  0  0  0  0  0  0  0
   61.1967   33.6118   50.6079 H   0  0  0  0  0  0  0  0  0  0  0  0
   59.6938   33.9659   48.7972 H   0  0  0  0  0  0  0  0  0  0  0  0
   61.1763   34.9868   48.5350 H   0  0  0  0  0  0  0  0  0  0  0  0
   57.3297   32.1272   44.6517 H   0  0  0  0  0  0  0  0  0  0  0  0
  1  2  1  0
  2  3  1  0
  3  4  2  0
  3  5  1  0
  5  6  2  0
  5  7  1  0
  7  8  1  0
  7  9  1  0
  9 10  2  0
 10 11  1  0
 11 12  1  0
 12 13  1  0
 13 14  1  0
 14 15  1  0
 15 16  1  0
 16 17  1  0
 17 18  1  0
 11 19  2  0
 19 20  1  0
 19 21  1  0
 21 22  2  0
 22  2  1  0
 22  9  1  0
 18 12  1  0
  1 23  1  0
  1 24  1  0
  1 25  1  0
  8 26  1  0
  8 27  1  0
  8 28  1  0
 10 29  1  0
 13 30  1  0
 13 31  1  0
 14 32  1  0
 14 33  1  0
 15 34  1  0
 15 35  1  0
 16 36  1  0
 16 37  1  0
 17 38  1  0
 17 39  1  0
 18 40  1  0
 18 41  1  0
 21 42  1  0
M  CHG  1  10   1
M  END
>  <UniqueID>  (50) 
47

>  <SMILES>  (50) 
Cn1c(=O)c(=O)n(C)c2[nH+]c(N3CCCCCC3)c(Br)cc21

>  <Energy>  (50) 
69.42457989196298

>  <Genealogy>  (50) 
Cn1c(=O)c(=O)n(C)c2[nH+]c(N3CCCCCC3)c(Br)cc21 (protonated)
Cn1c(=O)c(=O)n(C)c2[nH+]c(N3CCCCCC3)c(Br)cc21 (3D coordinates assigned)
Cn1c(=O)c(=O)n(C)c2[nH+]c(N3CCCCCC3)c(Br)cc21 (nonaromatic ring conformer: 69.42457989196298 kcal/mol)

>  <smiles>  (50) 
Cn1c(=O)c(=O)n(C)c2nc(N3CCCCCC3)c(Br)cc21

>  <score_type>  (50) 
oracle

>  <origin>  (50) 
adg

>  <m_score__min__energy>  (50) 
-4.0199999999999996

>  <m_primary>  (50) 
energy

$$$$
