0:0
     RDKit          3D

 42 43  0  0  0  0  0  0  0  0999 V2000
   56.8120   28.6360   45.1820 C   0  0  0  0  0  0  0  0  0  0  0  0
   55.5690   29.2300   44.8810 O   0  0  0  0  0  0  0  0  0  0  0  0
   55.7560   30.4030   44.1110 C   0  0  0  0  0  0  0  0  0  0  0  0
   57.2080   30.8780   44.2160 C   0  0  0  0  0  0  0  0  0  0  0  0
   57.4260   31.5170   45.4600 O   0  0  0  0  0  0  0  0  0  0  0  0
   56.9490   32.8560   45.4550 C   0  0  0  0  0  0  0  0  0  0  0  0
   57.7510   33.6880   44.4340 C   0  0  0  0  0  0  0  0  0  0  0  0
   59.2480   33.6830   44.7820 C   0  0  0  0  0  0  0  0  0  0  0  0
   59.4600   33.7510   46.2360 N   0  0  0  0  0  0  0  0  0  0  0  0
   60.5980   33.1020   46.8340 C   0  0  0  0  0  0  0  0  0  0  0  0
   61.6550   33.7500   47.4500 C   0  0  0  0  0  0  0  0  0  0  0  0
   62.4600   32.7210   47.9100 C   0  0  0  0  0  0  0  0  0  0  0  0
   63.6940   32.8750   48.7440 C   0  0  0  0  0  0  0  0  0  0  0  0
   64.3780   31.6740   48.7740 F   0  0  0  0  0  0  0  0  0  0  0  0
   63.3530   33.2370   50.0350 F   0  0  0  0  0  0  0  0  0  0  0  0
   64.5100   33.8510   48.2050 F   0  0  0  0  0  0  0  0  0  0  0  0
   61.8940   31.5380   47.5990 N   0  0  0  0  0  0  0  0  0  0  0  0
   60.7730   31.7660   46.9330 N   0  0  0  0  0  0  0  0  0  0  0  0
   59.9060   30.7110   46.4180 C   0  0  0  0  0  0  0  0  0  0  0  0
   58.3770   34.2620   47.0860 C   0  0  0  0  0  0  0  0  0  0  0  0
   57.0920   33.4390   46.8830 C   0  0  0  0  0  0  0  0  0  0  0  0
   56.9355   28.5770   46.2735 H   0  0  0  0  0  0  0  0  0  0  0  0
   56.8478   27.6235   44.7537 H   0  0  0  0  0  0  0  0  0  0  0  0
   57.6223   29.2442   44.7537 H   0  0  0  0  0  0  0  0  0  0  0  0
   55.5190   30.1885   43.0585 H   0  0  0  0  0  0  0  0  0  0  0  0
   55.0914   31.1924   44.4920 H   0  0  0  0  0  0  0  0  0  0  0  0
   57.8805   30.0118   44.1300 H   0  0  0  0  0  0  0  0  0  0  0  0
   57.4104   31.5935   43.4054 H   0  0  0  0  0  0  0  0  0  0  0  0
   55.8895   32.8852   45.1608 H   0  0  0  0  0  0  0  0  0  0  0  0
   57.6125   33.2588   43.4307 H   0  0  0  0  0  0  0  0  0  0  0  0
   57.3863   34.7254   44.4602 H   0  0  0  0  0  0  0  0  0  0  0  0
   59.7021   32.7582   44.3967 H   0  0  0  0  0  0  0  0  0  0  0  0
   59.7139   34.5669   44.3220 H   0  0  0  0  0  0  0  0  0  0  0  0
   61.8181   34.8332   47.5509 H   0  0  0  0  0  0  0  0  0  0  0  0
   62.2620   30.5910   47.8440 H   0  0  0  0  0  0  0  0  0  0  0  0
   59.4558   30.1632   47.2590 H   0  0  0  0  0  0  0  0  0  0  0  0
   59.1105   31.1576   45.8034 H   0  0  0  0  0  0  0  0  0  0  0  0
   60.4982   30.0171   45.8034 H   0  0  0  0  0  0  0  0  0  0  0  0
   58.6843   34.1976   48.1402 H   0  0  0  0  0  0  0  0  0  0  0  0
   58.1746   35.3076   46.8108 H   0  0  0  0  0  0  0  0  0  0  0  0
   57.0959   32.6052   47.6004 H   0  0  0  0  0  0  0  0  0  0  0  0
   56.2435   34.1212   47.0397 H   0  0  0  0  0  0  0  0  0  0  0  0
  1  2  1  0
  2  3  1  0
  3  4  1  0
  4  5  1  0
  5  6  1  0
  6  7  1  0
  7  8  1  0
  8  9  1  0
  9 10  1  0
 10 11  2  0
 11 12  1  0
 12 13  1  0
 13 14  1  0
 13 15  1  0
 13 16  1  0
 12 17  2  0
 17 18  1  0
 18 19  1  0
  9 20  1  0
 20 21  1  0
 21  6  1  0
 18 10  1  0
  1 22  1  0
  1 23  1  0
  1 24  1  0
  3 25  1  0
  3 26  1  0
  4 27  1  0
  4 28  1  0
  6 29  1  0
  7 30  1  0
  7 31  1  0
  8 32  1  0
  8 33  1  0
 11 34  1  0
 17 35  1  0
 19 36  1  0
 19 37  1  0
 19 38  1  0
 20 39  1  0
 20 40  1  0
 21 41  1  0
 21 42  1  0
M  CHG  1  17   1
M  END
>  <UniqueID>  (1) 
1

>  <SMILES>  (1) 
COCCOC1CCN(c2cc(C(F)(F)F)[nH+]n2C)CC1

>  <Energy>  (1) 
79.25973155387469

>  <Genealogy>  (1) 
COCCOC1CCN(c2cc(C(F)(F)F)[nH+]n2C)CC1 (protonated)
COCCOC1CCN(c2cc(C(F)(F)F)[nH+]n2C)CC1 (3D coordinates assigned)
COCCOC1CCN(c2cc(C(F)(F)F)[nH+]n2C)CC1 (nonaromatic ring conformer: 79.25973155387469 kcal/mol)

>  <smiles>  (1) 
COCCOC1CCN(c2cc(C(F)(F)F)nn2C)CC1

>  <score_type>  (1) 
oracle

>  <origin>  (1) 
adg

>  <m_score__min__energy>  (1) 
-4.79

>  <m_primary>  (1) 
energy

$$$$
1:0
     RDKit          3D

 33 35  0  0  0  0  0  0  0  0999 V2000
   60.7880   22.1770   44.5170 H   0  0  0  0  0  0  0  0  0  0  0  0
   60.3320   22.7650   45.2500 N   0  0  0  0  0  0  0  0  0  0  0  0
   59.0520   22.7540   45.4600 C   0  0  0  0  0  0  0  0  0  0  0  0
   58.3160   23.9340   45.5870 C   0  0  0  0  0  0  0  0  0  0  0  0
   58.7790   25.2010   45.5070 N   0  0  0  0  0  0  0  0  0  0  0  0
   57.7170   25.9830   45.6860 N   0  0  0  0  0  0  0  0  0  0  0  0
   57.7730   27.4220   45.6560 C   0  0  0  0  0  0  0  0  0  0  0  0
   58.2370   28.1580   46.7610 C   0  0  0  0  0  0  0  0  0  0  0  0
   58.5563   27.6320   47.6728 H   0  0  0  0  0  0  0  0  0  0  0  0
   58.2950   29.5540   46.7080 C   0  0  0  0  0  0  0  0  0  0  0  0
   58.6546   30.1180   47.5813 H   0  0  0  0  0  0  0  0  0  0  0  0
   57.9000   30.2400   45.5550 C   0  0  0  0  0  0  0  0  0  0  0  0
   57.9740   31.6410   45.5540 O   0  0  0  0  0  0  0  0  0  0  0  0
   57.7640   32.4570   44.4060 C   0  0  0  0  0  0  0  0  0  0  0  0
   57.5016   33.4768   44.7240 H   0  0  0  0  0  0  0  0  0  0  0  0
   58.6839   32.4861   43.8036 H   0  0  0  0  0  0  0  0  0  0  0  0
   56.9443   32.0384   43.8036 H   0  0  0  0  0  0  0  0  0  0  0  0
   57.4480   29.5070   44.4420 C   0  0  0  0  0  0  0  0  0  0  0  0
   57.1375   30.0346   43.5281 H   0  0  0  0  0  0  0  0  0  0  0  0
   57.3920   28.1110   44.4930 C   0  0  0  0  0  0  0  0  0  0  0  0
   57.0463   27.5470   43.6141 H   0  0  0  0  0  0  0  0  0  0  0  0
   56.6370   25.1840   45.8550 C   0  0  0  0  0  0  0  0  0  0  0  0
   55.4540   25.5940   45.9970 O   0  0  0  0  0  0  0  0  0  0  0  0
   56.9920   23.8870   45.8030 N   0  0  0  0  0  0  0  0  0  0  0  0
   56.2950   22.7210   45.9070 C   0  0  0  0  0  0  0  0  0  0  0  0
   54.8140   22.7030   46.1420 C   0  0  0  0  0  0  0  0  0  0  0  0
   54.6144   22.7006   47.2237 H   0  0  0  0  0  0  0  0  0  0  0  0
   54.3597   23.5957   45.6873 H   0  0  0  0  0  0  0  0  0  0  0  0
   54.3816   21.7995   45.6873 H   0  0  0  0  0  0  0  0  0  0  0  0
   57.0290   21.5240   45.7820 C   0  0  0  0  0  0  0  0  0  0  0  0
   56.5160   20.5540   45.8595 H   0  0  0  0  0  0  0  0  0  0  0  0
   58.3810   21.5680   45.5640 N   0  0  0  0  0  0  0  0  0  0  0  0
   58.9020   20.6670   45.4740 H   0  0  0  0  0  0  0  0  0  0  0  0
  1  2  1  0
  2  3  2  0
  3  4  1  0
  4  5  2  0
  5  6  1  0
  6  7  1  0
  7  8  2  0
  8  9  1  0
  8 10  1  0
 10 11  1  0
 10 12  2  0
 12 13  1  0
 13 14  1  0
 14 15  1  0
 14 16  1  0
 14 17  1  0
 12 18  1  0
 18 19  1  0
 18 20  2  0
 20 21  1  0
  6 22  1  0
 22 23  2  0
 22 24  1  0
 24 25  1  0
 25 26  1  0
 26 27  1  0
 26 28  1  0
 26 29  1  0
 25 30  2  0
 30 31  1  0
 30 32  1  0
 32 33  1  0
 32  3  1  0
 24  4  1  0
 20  7  1  0
M  END
>  <UniqueID>  (2) 
2

>  <SMILES>  (2) 
[H]/N=c1/[nH]cc(C)n2c(=O)n(-c3ccc(OC)cc3)nc12

>  <Energy>  (2) 
84.93066593507363

>  <Genealogy>  (2) 
[H]/N=c1/[nH]cc(C)n2c(=O)n(-c3ccc(OC)cc3)nc12 (cis-trans isomerization)
[H]/N=c1/[nH]cc(C)n2c(=O)n(-c3ccc(OC)cc3)nc12 (3D coordinates assigned)
[H]/N=c1/[nH]cc(C)n2c(=O)n(-c3ccc(OC)cc3)nc12 (optimized conformer: 84.93066593507363 kcal/mol)

>  <smiles>  (2) 
COc1ccc(-n2nc3c(=N)[nH]cc(C)n3c2=O)cc1

>  <score_type>  (2) 
oracle

>  <origin>  (2) 
adg

>  <m_score__min__energy>  (2) 
-6.54

>  <m_primary>  (2) 
energy

$$$$
2:0
     RDKit          3D

 42 44  0  0  0  0  0  0  0  0999 V2000
   57.1880   20.9900   42.6240 C   0  0  0  0  0  0  0  0  0  0  0  0
   56.0400   21.4600   43.3240 O   0  0  0  0  0  0  0  0  0  0  0  0
   56.0750   22.0600   44.5910 C   0  0  0  0  0  0  0  0  0  0  0  0
   55.5820   21.4190   45.7430 C   0  0  0  0  0  0  0  0  0  0  0  0
   55.6440   22.0580   46.9830 C   0  0  0  0  0  0  0  0  0  0  0  0
   56.1960   23.3360   47.0890 C   0  0  0  0  0  0  0  0  0  0  0  0
   56.6930   23.9940   45.9500 C   0  0  0  0  0  0  0  0  0  0  0  0
   57.2790   25.3540   46.0610 C   0  0  0  0  0  0  0  0  0  0  0  0
   57.3610   25.9970   47.3100 C   0  0  0  0  0  0  0  0  0  0  0  0
   57.9120   27.2780   47.4120 C   0  0  0  0  0  0  0  0  0  0  0  0
   58.3840   27.9430   46.2700 C   0  0  0  0  0  0  0  0  0  0  0  0
   58.9800   29.2940   46.3810 C   0  0  0  0  0  0  0  0  0  0  0  0
   59.7610   29.5980   47.5100 C   0  0  0  0  0  0  0  0  0  0  0  0
   60.2960   30.8760   47.6810 C   0  0  0  0  0  0  0  0  0  0  0  0
   60.0600   31.8640   46.7280 C   0  0  0  0  0  0  0  0  0  0  0  0
   59.2960   31.5780   45.5940 C   0  0  0  0  0  0  0  0  0  0  0  0
   58.7500   30.2950   45.4020 C   0  0  0  0  0  0  0  0  0  0  0  0
   58.0280   29.9880   44.1950 N   0  0  0  0  0  0  0  0  0  0  0  0
   56.3110   30.1790   44.0470 S   0  0  0  0  0  0  0  0  0  0  0  0
   55.5060   28.9490   44.9570 N   0  0  0  0  0  0  0  0  0  0  0  0
   55.9130   30.0900   42.6000 O   0  0  0  0  0  0  0  0  0  0  0  0
   55.9170   31.5290   44.5780 O   0  0  0  0  0  0  0  0  0  0  0  0
   58.3130   27.2990   45.0250 C   0  0  0  0  0  0  0  0  0  0  0  0
   57.7640   26.0190   44.9210 C   0  0  0  0  0  0  0  0  0  0  0  0
   56.6260   23.3430   44.7040 C   0  0  0  0  0  0  0  0  0  0  0  0
   57.9552   20.6759   43.3470 H   0  0  0  0  0  0  0  0  0  0  0  0
   56.9074   20.1344   41.9922 H   0  0  0  0  0  0  0  0  0  0  0  0
   57.5880   21.7967   41.9922 H   0  0  0  0  0  0  0  0  0  0  0  0
   55.1466   20.4118   45.6663 H   0  0  0  0  0  0  0  0  0  0  0  0
   55.2564   21.5525   47.8798 H   0  0  0  0  0  0  0  0  0  0  0  0
   56.2424   23.8315   48.0700 H   0  0  0  0  0  0  0  0  0  0  0  0
   56.9892   25.4886   48.2118 H   0  0  0  0  0  0  0  0  0  0  0  0
   57.9760   27.7681   48.3947 H   0  0  0  0  0  0  0  0  0  0  0  0
   59.9522   28.8216   48.2655 H   0  0  0  0  0  0  0  0  0  0  0  0
   60.9043   31.1029   48.5689 H   0  0  0  0  0  0  0  0  0  0  0  0
   60.4764   32.8724   46.8687 H   0  0  0  0  0  0  0  0  0  0  0  0
   59.1194   32.3630   44.8439 H   0  0  0  0  0  0  0  0  0  0  0  0
   58.5290   29.5720   43.3800 H   0  0  0  0  0  0  0  0  0  0  0  0
   54.5870   29.3440   45.2570 H   0  0  0  0  0  0  0  0  0  0  0  0
   58.6922   27.8057   44.1253 H   0  0  0  0  0  0  0  0  0  0  0  0
   57.7106   25.5268   43.9387 H   0  0  0  0  0  0  0  0  0  0  0  0
   57.0116   23.8486   43.8064 H   0  0  0  0  0  0  0  0  0  0  0  0
  1  2  1  0
  2  3  1  0
  3  4  2  0
  4  5  1  0
  5  6  2  0
  6  7  1  0
  7  8  1  0
  8  9  2  0
  9 10  1  0
 10 11  2  0
 11 12  1  0
 12 13  2  0
 13 14  1  0
 14 15  2  0
 15 16  1  0
 16 17  2  0
 17 18  1  0
 18 19  1  0
 19 20  1  0
 19 21  2  0
 19 22  2  0
 11 23  1  0
 23 24  2  0
  7 25  2  0
 25  3  1  0
 24  8  1  0
 17 12  1  0
  1 26  1  0
  1 27  1  0
  1 28  1  0
  4 29  1  0
  5 30  1  0
  6 31  1  0
  9 32  1  0
 10 33  1  0
 13 34  1  0
 14 35  1  0
 15 36  1  0
 16 37  1  0
 18 38  1  0
 20 39  1  0
 23 40  1  0
 24 41  1  0
 25 42  1  0
M  CHG  1  20  -1
M  END
>  <UniqueID>  (3) 
3

>  <SMILES>  (3) 
COc1cccc(-c2ccc(-c3ccccc3NS([NH-])(=O)=O)cc2)c1

>  <Energy>  (3) 
58.13223856092297

>  <Genealogy>  (3) 
COc1cccc(-c2ccc(-c3ccccc3NS([NH-])(=O)=O)cc2)c1 (protonated)
COc1cccc(-c2ccc(-c3ccccc3NS([NH-])(=O)=O)cc2)c1 (3D coordinates assigned)
COc1cccc(-c2ccc(-c3ccccc3NS([NH-])(=O)=O)cc2)c1 (optimized conformer: 58.13223856092297 kcal/mol)

>  <smiles>  (3) 
COc1cccc(-c2ccc(-c3ccccc3NS(N)(=O)=O)cc2)c1

>  <score_type>  (3) 
oracle

>  <origin>  (3) 
adg

>  <m_score__min__energy>  (3) 
-11.06

>  <m_primary>  (3) 
energy

$$$$
3:0
     RDKit          3D

 43 46  0  0  0  0  0  0  0  0999 V2000
   58.1510   27.1390   43.2100 C   0  0  0  0  0  0  0  0  0  0  0  0
   58.0880   26.4240   44.5560 C   0  0  0  0  0  0  0  0  0  0  0  0
   57.0440   27.0600   45.4740 C   0  0  0  0  0  0  0  0  0  0  0  0
   57.5260   28.3480   45.9670 N   0  0  0  0  0  0  0  0  0  0  0  0
   57.3030   29.5010   45.3380 N   0  0  0  0  0  0  0  0  0  0  0  0
   57.9400   30.4590   46.0430 C   0  0  0  0  0  0  0  0  0  0  0  0
   58.0160   31.8230   45.8070 C   0  0  0  0  0  0  0  0  0  0  0  0
   57.3690   32.4150   44.7120 C   0  0  0  0  0  0  0  0  0  0  0  0
   57.4640   33.7890   44.5080 C   0  0  0  0  0  0  0  0  0  0  0  0
   58.2010   34.5800   45.3900 C   0  0  0  0  0  0  0  0  0  0  0  0
   58.8520   34.0040   46.4850 C   0  0  0  0  0  0  0  0  0  0  0  0
   58.7790   32.6110   46.7280 C   0  0  0  0  0  0  0  0  0  0  0  0
   59.4200   32.0130   47.8160 N   0  0  0  0  0  0  0  0  0  0  0  0
   60.1970   32.7990   48.7970 C   0  0  0  0  0  0  0  0  0  0  0  0
   61.6500   32.8880   48.3970 C   0  0  0  0  0  0  0  0  0  0  0  0
   62.0150   33.4060   47.1450 C   0  0  0  0  0  0  0  0  0  0  0  0
   63.3660   33.4980   46.8030 C   0  0  0  0  0  0  0  0  0  0  0  0
   64.3230   33.0980   47.6830 N   0  0  0  0  0  0  0  0  0  0  0  0
   63.9980   32.6080   48.9100 C   0  0  0  0  0  0  0  0  0  0  0  0
   62.6590   32.5010   49.2920 C   0  0  0  0  0  0  0  0  0  0  0  0
   59.3350   30.6550   48.0340 C   0  0  0  0  0  0  0  0  0  0  0  0
   58.6030   29.8820   47.1570 C   0  0  0  0  0  0  0  0  0  0  0  0
   58.3090   28.5470   47.0550 C   0  0  0  0  0  0  0  0  0  0  0  0
   58.7040   27.6390   47.8340 O   0  0  0  0  0  0  0  0  0  0  0  0
   58.2465   28.2224   43.3745 H   0  0  0  0  0  0  0  0  0  0  0  0
   59.0207   26.7762   42.6425 H   0  0  0  0  0  0  0  0  0  0  0  0
   57.2313   26.9339   42.6425 H   0  0  0  0  0  0  0  0  0  0  0  0
   57.8239   25.3692   44.3895 H   0  0  0  0  0  0  0  0  0  0  0  0
   59.0725   26.5068   45.0397 H   0  0  0  0  0  0  0  0  0  0  0  0
   56.1103   27.2118   44.9126 H   0  0  0  0  0  0  0  0  0  0  0  0
   56.8626   26.3925   46.3293 H   0  0  0  0  0  0  0  0  0  0  0  0
   56.7870   31.7941   44.0151 H   0  0  0  0  0  0  0  0  0  0  0  0
   56.9566   34.2523   43.6490 H   0  0  0  0  0  0  0  0  0  0  0  0
   58.2704   35.6650   45.2225 H   0  0  0  0  0  0  0  0  0  0  0  0
   59.4301   34.6431   47.1686 H   0  0  0  0  0  0  0  0  0  0  0  0
   59.7781   33.8144   48.8557 H   0  0  0  0  0  0  0  0  0  0  0  0
   60.1346   32.2967   49.7736 H   0  0  0  0  0  0  0  0  0  0  0  0
   61.2414   33.7377   46.4369 H   0  0  0  0  0  0  0  0  0  0  0  0
   63.6569   33.8950   45.8193 H   0  0  0  0  0  0  0  0  0  0  0  0
   65.3300   33.1730   47.4120 H   0  0  0  0  0  0  0  0  0  0  0  0
   64.7926   32.2951   49.6034 H   0  0  0  0  0  0  0  0  0  0  0  0
   62.3969   32.1157   50.2884 H   0  0  0  0  0  0  0  0  0  0  0  0
   59.8431   30.1946   48.8941 H   0  0  0  0  0  0  0  0  0  0  0  0
  1  2  1  0
  2  3  1  0
  3  4  1  0
  4  5  1  0
  5  6  2  0
  6  7  1  0
  7  8  2  0
  8  9  1  0
  9 10  2  0
 10 11  1  0
 11 12  2  0
 12 13  1  0
 13 14  1  0
 14 15  1  0
 15 16  2  0
 16 17  1  0
 17 18  2  0
 18 19  1  0
 19 20  2  0
 13 21  1  0
 21 22  2  0
 22 23  1  0
 23 24  2  0
 23  4  1  0
 22  6  1  0
 12  7  1  0
 20 15  1  0
  1 25  1  0
  1 26  1  0
  1 27  1  0
  2 28  1  0
  2 29  1  0
  3 30  1  0
  3 31  1  0
  8 32  1  0
  9 33  1  0
 10 34  1  0
 11 35  1  0
 14 36  1  0
 14 37  1  0
 16 38  1  0
 17 39  1  0
 18 40  1  0
 19 41  1  0
 20 42  1  0
 21 43  1  0
M  CHG  1  18   1
M  END
>  <UniqueID>  (4) 
4

>  <SMILES>  (4) 
CCCn1nc2c3ccccc3n(Cc3cc[nH+]cc3)cc-2c1=O

>  <Energy>  (4) 
90.82958205465621

>  <Genealogy>  (4) 
CCCn1nc2c3ccccc3n(Cc3cc[nH+]cc3)cc-2c1=O (protonated)
CCCn1nc2c3ccccc3n(Cc3cc[nH+]cc3)cc-2c1=O (3D coordinates assigned)
CCCn1nc2c3ccccc3n(Cc3cc[nH+]cc3)cc-2c1=O (optimized conformer: 90.82958205465621 kcal/mol)

>  <smiles>  (4) 
CCCn1nc2c3ccccc3n(Cc3ccncc3)cc-2c1=O

>  <score_type>  (4) 
oracle

>  <origin>  (4) 
adg

>  <m_score__min__energy>  (4) 
-6.4699999999999998

>  <m_primary>  (4) 
energy

$$$$
4:0
     RDKit          3D

 41 41  0  0  0  0  0  0  0  0999 V2000
   58.4670   34.2050   45.1140 C   0  0  0  0  0  0  0  0  0  0  0  0
   57.4570   33.1230   44.7440 C   0  0  0  0  0  0  0  0  0  0  0  0
   57.9500   32.2950   43.5480 C   0  0  0  0  0  0  0  0  0  0  0  0
   57.0210   31.1140   43.2170 C   0  0  0  0  0  0  0  0  0  0  0  0
   57.4600   29.7620   43.8110 C   0  0  0  0  0  0  0  0  0  0  0  0
   57.9420   29.8500   45.2750 C   0  0  0  0  0  0  0  0  0  0  0  0
   57.7710   28.5310   46.0470 C   0  0  0  0  0  0  0  0  0  0  0  0
   57.1060   27.5110   45.2320 N   0  0  0  0  0  0  0  0  0  0  0  0
   57.5580   26.1460   45.1530 C   0  0  0  0  0  0  0  0  0  0  0  0
   57.0340   25.2430   44.2090 C   0  0  0  0  0  0  0  0  0  0  0  0
   57.4920   23.9240   44.1590 C   0  0  0  0  0  0  0  0  0  0  0  0
   58.4810   23.4780   45.0510 C   0  0  0  0  0  0  0  0  0  0  0  0
   58.9670   22.0760   44.9890 C   0  0  0  0  0  0  0  0  0  0  0  0
   60.3440   21.8110   44.6950 N   0  0  0  0  0  0  0  0  0  0  0  0
   58.1530   21.0820   45.1900 N   0  0  0  0  0  0  0  0  0  0  0  0
   59.0080   24.3810   45.9900 C   0  0  0  0  0  0  0  0  0  0  0  0
   58.5500   25.7000   46.0390 C   0  0  0  0  0  0  0  0  0  0  0  0
   58.5381   34.2812   46.2091 H   0  0  0  0  0  0  0  0  0  0  0  0
   59.4521   33.9441   44.6999 H   0  0  0  0  0  0  0  0  0  0  0  0
   58.1390   35.1698   44.6999 H   0  0  0  0  0  0  0  0  0  0  0  0
   57.3113   32.4567   45.6071 H   0  0  0  0  0  0  0  0  0  0  0  0
   56.5094   33.6083   44.4672 H   0  0  0  0  0  0  0  0  0  0  0  0
   58.0113   32.9514   42.6675 H   0  0  0  0  0  0  0  0  0  0  0  0
   58.9323   31.8787   43.8158 H   0  0  0  0  0  0  0  0  0  0  0  0
   56.0182   31.3484   43.6035 H   0  0  0  0  0  0  0  0  0  0  0  0
   57.0473   30.9956   42.1237 H   0  0  0  0  0  0  0  0  0  0  0  0
   56.6052   29.0709   43.7685 H   0  0  0  0  0  0  0  0  0  0  0  0
   58.3149   29.4127   43.2134 H   0  0  0  0  0  0  0  0  0  0  0  0
   59.0081   30.1210   45.2768 H   0  0  0  0  0  0  0  0  0  0  0  0
   57.3235   30.6074   45.7789 H   0  0  0  0  0  0  0  0  0  0  0  0
   58.7631   28.1599   46.3437 H   0  0  0  0  0  0  0  0  0  0  0  0
   57.1449   28.7279   46.9298 H   0  0  0  0  0  0  0  0  0  0  0  0
   56.2670   27.7840   44.6690 H   0  0  0  0  0  0  0  0  0  0  0  0
   56.2580   25.5783   43.5052 H   0  0  0  0  0  0  0  0  0  0  0  0
   57.0747   23.2293   43.4152 H   0  0  0  0  0  0  0  0  0  0  0  0
   61.0370   22.5870   44.6180 H   0  0  0  0  0  0  0  0  0  0  0  0
   60.6920   20.8290   44.6030 H   0  0  0  0  0  0  0  0  0  0  0  0
   57.1930   21.2260   45.5750 H   0  0  0  0  0  0  0  0  0  0  0  0
   58.4320   20.1060   44.9440 H   0  0  0  0  0  0  0  0  0  0  0  0
   59.7867   24.0469   46.6915 H   0  0  0  0  0  0  0  0  0  0  0  0
   58.9714   26.3956   46.7796 H   0  0  0  0  0  0  0  0  0  0  0  0
  1  2  1  0
  2  3  1  0
  3  4  1  0
  4  5  1  0
  5  6  1  0
  6  7  1  0
  7  8  1  0
  8  9  1  0
  9 10  2  0
 10 11  1  0
 11 12  2  0
 12 13  1  0
 13 14  1  0
 13 15  2  0
 12 16  1  0
 16 17  2  0
 17  9  1  0
  1 18  1  0
  1 19  1  0
  1 20  1  0
  2 21  1  0
  2 22  1  0
  3 23  1  0
  3 24  1  0
  4 25  1  0
  4 26  1  0
  5 27  1  0
  5 28  1  0
  6 29  1  0
  6 30  1  0
  7 31  1  0
  7 32  1  0
  8 33  1  0
 10 34  1  0
 11 35  1  0
 14 36  1  0
 14 37  1  0
 15 38  1  0
 15 39  1  0
 16 40  1  0
 17 41  1  0
M  CHG  1  15   1
M  END
>  <UniqueID>  (5) 
5

>  <SMILES>  (5) 
CCCCCCCNc1ccc(C(N)=[NH2+])cc1

>  <Energy>  (5) 
31.466169428582543

>  <Genealogy>  (5) 
CCCCCCCNc1ccc(C(N)=[NH2+])cc1 (protonated)
CCCCCCCNc1ccc(C(N)=[NH2+])cc1 (3D coordinates assigned)
CCCCCCCNc1ccc(C(N)=[NH2+])cc1 (optimized conformer: 31.466169428582543 kcal/mol)

>  <smiles>  (5) 
CCCCCCCNc1ccc(C(=N)N)cc1

>  <score_type>  (5) 
oracle

>  <origin>  (5) 
adg

>  <m_score__min__energy>  (5) 
-4.79

>  <m_primary>  (5) 
energy

$$$$
5:0
     RDKit          3D

 44 46  0  0  0  0  0  0  0  0999 V2000
   56.3941   22.8671   42.2851 H   0  0  0  0  0  0  0  0  0  0  0  0
   56.6240   22.7650   43.3560 C   0  0  0  0  0  0  0  0  0  0  0  0
   57.3260   21.6510   43.8140 C   0  0  0  0  0  0  0  0  0  0  0  0
   57.6757   20.8897   43.1012 H   0  0  0  0  0  0  0  0  0  0  0  0
   57.5850   21.5020   45.1780 C   0  0  0  0  0  0  0  0  0  0  0  0
   58.1249   20.6136   45.5376 H   0  0  0  0  0  0  0  0  0  0  0  0
   57.1590   22.4830   46.0980 C   0  0  0  0  0  0  0  0  0  0  0  0
   57.3290   22.3240   47.4820 O   0  0  0  0  0  0  0  0  0  0  0  0
   56.2560   22.2740   48.4210 C   0  0  0  0  0  0  0  0  0  0  0  0
   56.0227   23.2929   48.7636 H   0  0  0  0  0  0  0  0  0  0  0  0
   56.5530   21.6535   49.2794 H   0  0  0  0  0  0  0  0  0  0  0  0
   55.0260   21.6680   47.7650 C   0  0  0  0  0  0  0  0  0  0  0  0
   54.3278   21.3240   48.5423 H   0  0  0  0  0  0  0  0  0  0  0  0
   54.5331   22.4264   47.1390 H   0  0  0  0  0  0  0  0  0  0  0  0
   55.3270   20.8151   47.1390 H   0  0  0  0  0  0  0  0  0  0  0  0
   56.5280   23.6450   45.6200 C   0  0  0  0  0  0  0  0  0  0  0  0
   56.1230   24.6560   46.5560 N   0  0  0  0  0  0  0  0  0  0  0  0
   56.2000   26.0790   46.3800 C   0  0  0  0  0  0  0  0  0  0  0  0
   55.1660   26.6950   46.0090 O   0  0  0  0  0  0  0  0  0  0  0  0
   57.4250   26.8790   46.7450 C   0  0  0  0  0  0  0  0  0  0  0  0
   57.1956   27.9490   46.6332 H   0  0  0  0  0  0  0  0  0  0  0  0
   57.6918   26.6333   47.7835 H   0  0  0  0  0  0  0  0  0  0  0  0
   58.6230   26.5370   45.8590 C   0  0  0  0  0  0  0  0  0  0  0  0
   59.4583   26.2060   46.4937 H   0  0  0  0  0  0  0  0  0  0  0  0
   58.3305   25.7365   45.1635 H   0  0  0  0  0  0  0  0  0  0  0  0
   59.0430   27.7020   45.0830 N   0  0  0  0  0  0  0  0  0  0  0  0
   58.3100   28.7390   44.8030 C   0  0  0  0  0  0  0  0  0  0  0  0
   58.6390   30.0930   45.2720 C   0  0  0  0  0  0  0  0  0  0  0  0
   59.6760   30.4630   46.1330 C   0  0  0  0  0  0  0  0  0  0  0  0
   60.3650   29.7069   46.5376 H   0  0  0  0  0  0  0  0  0  0  0  0
   59.8220   31.8180   46.4720 C   0  0  0  0  0  0  0  0  0  0  0  0
   60.6304   32.1284   47.1504 H   0  0  0  0  0  0  0  0  0  0  0  0
   58.9390   32.7810   45.9480 C   0  0  0  0  0  0  0  0  0  0  0  0
   59.0635   33.8408   46.2151 H   0  0  0  0  0  0  0  0  0  0  0  0
   57.9000   32.3950   45.0860 C   0  0  0  0  0  0  0  0  0  0  0  0
   57.2074   33.1417   44.6702 H   0  0  0  0  0  0  0  0  0  0  0  0
   57.7660   31.0440   44.7690 C   0  0  0  0  0  0  0  0  0  0  0  0
   56.5580   30.3080   43.7590 S   0  0  0  0  0  0  0  0  0  0  0  0
   56.6550   30.7530   42.3280 O   0  0  0  0  0  0  0  0  0  0  0  0
   55.1680   30.4570   44.3110 O   0  0  0  0  0  0  0  0  0  0  0  0
   57.1470   28.7010   43.9640 N   0  0  0  0  0  0  0  0  0  0  0  0
   56.6710   27.8550   43.5840 H   0  0  0  0  0  0  0  0  0  0  0  0
   56.2120   23.7520   44.2550 C   0  0  0  0  0  0  0  0  0  0  0  0
   55.6374   24.6171   43.8924 H   0  0  0  0  0  0  0  0  0  0  0  0
  1  2  1  0
  2  3  2  0
  3  4  1  0
  3  5  1  0
  5  6  1  0
  5  7  2  0
  7  8  1  0
  8  9  1  0
  9 10  1  0
  9 11  1  0
  9 12  1  0
 12 13  1  0
 12 14  1  0
 12 15  1  0
  7 16  1  0
 16 17  1  0
 17 18  1  0
 18 19  2  0
 18 20  1  0
 20 21  1  0
 20 22  1  0
 20 23  1  0
 23 24  1  0
 23 25  1  0
 23 26  1  0
 26 27  2  0
 27 28  1  0
 28 29  2  0
 29 30  1  0
 29 31  1  0
 31 32  1  0
 31 33  2  0
 33 34  1  0
 33 35  1  0
 35 36  1  0
 35 37  2  0
 37 38  1  0
 38 39  2  0
 38 40  2  0
 38 41  1  0
 41 42  1  0
 16 43  2  0
 43 44  1  0
 43  2  1  0
 41 27  1  0
 37 28  1  0
M  CHG  1  17  -1
M  END
>  <UniqueID>  (6) 
6

>  <SMILES>  (6) 
CCOc1ccccc1[N-]C(=O)CC/N=C1\NS(=O)(=O)c2ccccc21

>  <Energy>  (6) 
64.8967324296065

>  <Genealogy>  (6) 
CCOc1ccccc1[N-]C(=O)CCN=C1NS(=O)(=O)c2ccccc21 (protonated)
CCOc1ccccc1[N-]C(=O)CC/N=C1\NS(=O)(=O)c2ccccc21 (cis-trans isomerization)
CCOc1ccccc1[N-]C(=O)CC/N=C1\NS(=O)(=O)c2ccccc21 (3D coordinates assigned)
CCOc1ccccc1[N-]C(=O)CC/N=C1\NS(=O)(=O)c2ccccc21 (nonaromatic ring conformer: 64.8967324296065 kcal/mol)

>  <smiles>  (6) 
CCOc1ccccc1NC(=O)CCN=C1NS(=O)(=O)c2ccccc21

>  <score_type>  (6) 
oracle

>  <origin>  (6) 
adg

>  <m_score__min__energy>  (6) 
-10.9

>  <m_primary>  (6) 
energy

$$$$
6:0
     RDKit          3D

 29 31  0  0  1  0  0  0  0  0999 V2000
   56.7990   21.4280   42.9870 C   0  0  0  0  0  0  0  0  0  0  0  0
   55.8700   22.4580   43.2200 O   0  0  0  0  0  0  0  0  0  0  0  0
   56.1780   23.5000   44.0820 C   0  0  0  0  0  0  0  0  0  0  0  0
   55.1970   24.0710   44.8950 C   0  0  0  0  0  0  0  0  0  0  0  0
   55.5310   25.1160   45.7520 C   0  0  0  0  0  0  0  0  0  0  0  0
   56.8560   25.5810   45.7850 C   0  0  0  0  0  0  0  0  0  0  0  0
   57.2230   26.5700   46.6500 N   0  0  0  0  0  0  0  0  0  0  0  0
   57.7340   27.6880   46.3940 C   0  0  0  0  0  0  0  0  0  0  0  0
   58.9470   27.9800   46.8980 N   0  0  0  0  0  0  0  0  0  0  0  0
   59.5780   29.1470   46.6810 C   0  0  0  0  0  0  0  0  0  0  0  0
   58.9660   30.0690   45.9230 N   0  0  0  0  0  0  0  0  0  0  0  0
   57.7560   29.8080   45.4060 C   0  0  0  0  0  0  0  0  0  0  0  0
   56.9330   30.5300   44.6300 N   0  0  0  0  0  0  0  0  0  0  0  0
   55.8310   29.8110   44.3870 C   0  0  0  0  0  0  0  0  0  0  0  0
   55.9120   28.5900   45.0050 N   0  0  0  0  0  0  0  0  0  0  0  0
   57.0890   28.6010   45.6220 C   0  0  0  0  0  0  0  0  0  0  0  0
   57.8310   24.9970   44.9620 C   0  0  0  0  0  0  0  0  0  0  0  0
   57.4890   23.9510   44.1060 C   0  0  0  0  0  0  0  0  0  0  0  0
   57.1563   21.0319   43.9490 H   0  0  0  0  0  0  0  0  0  0  0  0
   56.3167   20.6217   42.4149 H   0  0  0  0  0  0  0  0  0  0  0  0
   57.6506   21.8248   42.4149 H   0  0  0  0  0  0  0  0  0  0  0  0
   54.1634   23.6963   44.8585 H   0  0  0  0  0  0  0  0  0  0  0  0
   54.7654   25.5727   46.3965 H   0  0  0  0  0  0  0  0  0  0  0  0
   59.4550   27.2870   47.4930 H   0  0  0  0  0  0  0  0  0  0  0  0
   60.5705   29.3408   47.1138 H   0  0  0  0  0  0  0  0  0  0  0  0
   54.9807   30.1514   43.7778 H   0  0  0  0  0  0  0  0  0  0  0  0
   55.1460   27.9290   44.9110 H   0  0  0  0  0  0  0  0  0  0  0  0
   58.8671   25.3652   44.9923 H   0  0  0  0  0  0  0  0  0  0  0  0
   58.2490   23.4897   43.4583 H   0  0  0  0  0  0  0  0  0  0  0  0
  1  2  1  0
  2  3  1  0
  3  4  2  0
  4  5  1  0
  5  6  2  0
  6  7  1  0
  7  8  2  0
  8  9  1  0
  9 10  1  0
 10 11  2  0
 11 12  1  0
 12 13  1  0
 13 14  2  0
 14 15  1  0
 15 16  1  0
  6 17  1  0
 17 18  2  0
 18  3  1  0
 16  8  1  0
 16 12  2  0
  1 19  1  0
  1 20  1  0
  1 21  1  0
  4 22  1  0
  5 23  1  0
  9 24  1  0
 10 25  1  0
 14 26  1  0
 15 27  1  0
 17 28  1  0
 18 29  1  0
M  END
>  <smiles>  (7) 
COc1ccc(N=c2[nH]cnc3nc[nH]c23)cc1

>  <score_type>  (7) 
oracle

>  <origin>  (7) 
adg

>  <m_score__min__energy>  (7) 
-6.1600000000000001

>  <m_primary>  (7) 
energy

$$$$
7:0
     RDKit          3D

 39 41  0  0  0  0  0  0  0  0999 V2000
   57.4000   28.6110   43.9360 C   0  0  0  0  0  0  0  0  0  0  0  0
   57.4470   30.0910   44.1150 C   0  0  0  0  0  0  0  0  0  0  0  0
   57.1040   30.7320   45.2480 N   0  0  0  0  0  0  0  0  0  0  0  0
   57.2210   32.0180   44.9420 N   0  0  0  0  0  0  0  0  0  0  0  0
   57.0470   33.1160   45.9040 C   0  0  2  0  0  0  0  0  0  0  0  0
   57.2930   34.4820   45.2500 C   0  0  0  0  0  0  0  0  0  0  0  0
   58.7400   34.6430   44.7620 C   0  0  0  0  0  0  0  0  0  0  0  0
   59.7410   33.6890   45.4470 C   0  0  0  0  0  0  0  0  0  0  0  0
   59.3910   33.3660   46.8470 N   0  0  0  0  0  0  0  0  0  0  0  0
   60.0300   34.2100   47.8810 C   0  0  0  0  0  0  0  0  0  0  0  0
   61.4700   33.8390   48.1590 C   0  0  0  0  0  0  0  0  0  0  0  0
   61.9760   33.8990   49.4700 C   0  0  0  0  0  0  0  0  0  0  0  0
   63.3030   33.5470   49.7340 C   0  0  0  0  0  0  0  0  0  0  0  0
   64.1410   33.1450   48.6910 C   0  0  0  0  0  0  0  0  0  0  0  0
   63.6550   33.1040   47.3810 C   0  0  0  0  0  0  0  0  0  0  0  0
   62.3290   33.4570   47.1130 C   0  0  0  0  0  0  0  0  0  0  0  0
   57.9850   32.9790   47.1250 C   0  0  0  0  0  0  0  0  0  0  0  0
   57.6350   32.1690   43.6920 N   0  0  0  0  0  0  0  0  0  0  0  0
   57.7650   30.9710   43.1510 N   0  0  0  0  0  0  0  0  0  0  0  0
   57.3845   28.1228   44.9216 H   0  0  0  0  0  0  0  0  0  0  0  0
   56.4927   28.3379   43.3772 H   0  0  0  0  0  0  0  0  0  0  0  0
   58.2881   28.2809   43.3772 H   0  0  0  0  0  0  0  0  0  0  0  0
   56.0037   33.0514   46.2465 H   0  0  0  0  0  0  0  0  0  0  0  0
   56.6157   34.5894   44.3899 H   0  0  0  0  0  0  0  0  0  0  0  0
   57.1057   35.2565   46.0083 H   0  0  0  0  0  0  0  0  0  0  0  0
   58.7637   34.4506   43.6792 H   0  0  0  0  0  0  0  0  0  0  0  0
   59.0504   35.6673   45.0160 H   0  0  0  0  0  0  0  0  0  0  0  0
   59.7761   32.7515   44.8726 H   0  0  0  0  0  0  0  0  0  0  0  0
   60.7127   34.2041   45.4690 H   0  0  0  0  0  0  0  0  0  0  0  0
   59.9992   35.2566   47.5438 H   0  0  0  0  0  0  0  0  0  0  0  0
   59.4704   34.0555   48.8153 H   0  0  0  0  0  0  0  0  0  0  0  0
   61.3232   34.2251   50.2931 H   0  0  0  0  0  0  0  0  0  0  0  0
   63.6876   33.5866   50.7638 H   0  0  0  0  0  0  0  0  0  0  0  0
   65.1828   32.8609   48.9005 H   0  0  0  0  0  0  0  0  0  0  0  0
   64.3171   32.7934   46.5594 H   0  0  0  0  0  0  0  0  0  0  0  0
   61.9556   33.4358   46.0785 H   0  0  0  0  0  0  0  0  0  0  0  0
   57.9730   31.9299   47.4556 H   0  0  0  0  0  0  0  0  0  0  0  0
   57.6097   33.6678   47.8961 H   0  0  0  0  0  0  0  0  0  0  0  0
   58.0610   30.7760   42.1690 H   0  0  0  0  0  0  0  0  0  0  0  0
  1  2  1  0
  2  3  2  0
  3  4  1  0
  4  5  1  0
  5  6  1  0
  6  7  1  0
  7  8  1  0
  8  9  1  0
  9 10  1  0
 10 11  1  0
 11 12  2  0
 12 13  1  0
 13 14  2  0
 14 15  1  0
 15 16  2  0
  9 17  1  0
  4 18  1  0
 18 19  2  0
 19  2  1  0
 17  5  1  0
 16 11  1  0
  1 20  1  0
  1 21  1  0
  1 22  1  0
  5 23  1  1
  6 24  1  0
  6 25  1  0
  7 26  1  0
  7 27  1  0
  8 28  1  0
  8 29  1  0
 10 30  1  0
 10 31  1  0
 12 32  1  0
 13 33  1  0
 14 34  1  0
 15 35  1  0
 16 36  1  0
 17 37  1  0
 17 38  1  0
 19 39  1  0
M  CHG  1  19   1
M  END
>  <UniqueID>  (8) 
7

>  <SMILES>  (8) 
Cc1nn([C@@H]2CCCN(Cc3ccccc3)C2)n[nH+]1

>  <Energy>  (8) 
92.23781851279973

>  <Genealogy>  (8) 
Cc1nn(C2CCCN(Cc3ccccc3)C2)n[nH+]1 (protonated)
Cc1nn([C@@H]2CCCN(Cc3ccccc3)C2)n[nH+]1 (chirality)
Cc1nn([C@@H]2CCCN(Cc3ccccc3)C2)n[nH+]1 (3D coordinates assigned)
Cc1nn([C@@H]2CCCN(Cc3ccccc3)C2)n[nH+]1 (nonaromatic ring conformer: 92.23781851279973 kcal/mol)

>  <smiles>  (8) 
Cc1nnn(C2CCCN(Cc3ccccc3)C2)n1

>  <score_type>  (8) 
oracle

>  <origin>  (8) 
adg

>  <m_score__min__energy>  (8) 
-6.8200000000000003

>  <m_primary>  (8) 
energy

$$$$
8:0
     RDKit          3D

 40 42  0  0  0  0  0  0  0  0999 V2000
   59.0470   33.0510   50.9540 C   0  0  0  0  0  0  0  0  0  0  0  0
   58.2600   32.0220   50.1540 C   0  0  0  0  0  0  0  0  0  0  0  0
   59.0760   31.5050   49.0060 C   0  0  0  0  0  0  0  0  0  0  0  0
   60.4080   31.9390   48.8190 C   0  0  0  0  0  0  0  0  0  0  0  0
   61.1590   31.4150   47.7490 C   0  0  0  0  0  0  0  0  0  0  0  0
   62.5890   31.8250   47.5200 C   0  0  0  0  0  0  0  0  0  0  0  0
   63.2630   30.8930   46.7490 F   0  0  0  0  0  0  0  0  0  0  0  0
   62.6180   33.0510   46.8800 F   0  0  0  0  0  0  0  0  0  0  0  0
   60.5570   30.4770   46.9640 N   0  0  0  0  0  0  0  0  0  0  0  0
   61.0680   29.8060   45.9430 N   0  0  0  0  0  0  0  0  0  0  0  0
   60.1130   28.9790   45.4630 C   0  0  0  0  0  0  0  0  0  0  0  0
   58.9480   29.1450   46.2060 C   0  0  0  0  0  0  0  0  0  0  0  0
   57.6570   28.4770   45.9830 C   0  0  0  0  0  0  0  0  0  0  0  0
   57.6000   27.2230   46.0820 O   0  0  0  0  0  0  0  0  0  0  0  0
   56.4800   29.1920   45.5820 N   0  0  0  0  0  0  0  0  0  0  0  0
   56.2310   29.7960   44.2730 C   0  0  0  0  0  0  0  0  0  0  0  0
   56.9950   31.0860   44.1100 C   0  0  0  0  0  0  0  0  0  0  0  0
   57.4050   31.5100   42.8340 C   0  0  0  0  0  0  0  0  0  0  0  0
   58.1540   32.6800   42.6900 C   0  0  0  0  0  0  0  0  0  0  0  0
   58.5010   33.4370   43.8130 C   0  0  0  0  0  0  0  0  0  0  0  0
   58.0840   33.0300   45.0850 C   0  0  0  0  0  0  0  0  0  0  0  0
   58.5340   33.9650   46.4990 Cl  0  0  0  0  0  0  0  0  0  0  0  0
   57.3230   31.8670   45.2320 C   0  0  0  0  0  0  0  0  0  0  0  0
   59.2890   30.0880   47.1530 C   0  0  0  0  0  0  0  0  0  0  0  0
   58.5380   30.5710   48.1700 N   0  0  0  0  0  0  0  0  0  0  0  0
   58.9055   32.8660   52.0291 H   0  0  0  0  0  0  0  0  0  0  0  0
   60.1155   32.9696   50.7055 H   0  0  0  0  0  0  0  0  0  0  0  0
   58.6886   34.0609   50.7055 H   0  0  0  0  0  0  0  0  0  0  0  0
   57.9901   31.1828   50.8119 H   0  0  0  0  0  0  0  0  0  0  0  0
   57.3538   32.5018   49.7557 H   0  0  0  0  0  0  0  0  0  0  0  0
   60.8532   32.6778   49.5016 H   0  0  0  0  0  0  0  0  0  0  0  0
   63.0879   31.8918   48.4981 H   0  0  0  0  0  0  0  0  0  0  0  0
   62.0420   29.8950   45.5780 H   0  0  0  0  0  0  0  0  0  0  0  0
   60.2369   28.2847   44.6188 H   0  0  0  0  0  0  0  0  0  0  0  0
   56.5449   29.0921   43.4881 H   0  0  0  0  0  0  0  0  0  0  0  0
   55.1564   30.0164   44.1913 H   0  0  0  0  0  0  0  0  0  0  0  0
   57.1352   30.9187   41.9465 H   0  0  0  0  0  0  0  0  0  0  0  0
   58.4721   33.0072   41.6891 H   0  0  0  0  0  0  0  0  0  0  0  0
   59.1011   34.3515   43.6967 H   0  0  0  0  0  0  0  0  0  0  0  0
   56.9788   31.5611   46.2310 H   0  0  0  0  0  0  0  0  0  0  0  0
  1  2  1  0
  2  3  1  0
  3  4  1  0
  4  5  2  0
  5  6  1  0
  6  7  1  0
  6  8  1  0
  5  9  1  0
  9 10  1  0
 10 11  2  0
 11 12  1  0
 12 13  1  0
 13 14  2  0
 13 15  1  0
 15 16  1  0
 16 17  1  0
 17 18  2  0
 18 19  1  0
 19 20  2  0
 20 21  1  0
 21 22  1  0
 21 23  2  0
 12 24  2  0
 24 25  1  0
 25  3  2  0
 24  9  1  0
 23 17  1  0
  1 26  1  0
  1 27  1  0
  1 28  1  0
  2 29  1  0
  2 30  1  0
  4 31  1  0
  6 32  1  0
 10 33  1  0
 11 34  1  0
 16 35  1  0
 16 36  1  0
 18 37  1  0
 19 38  1  0
 20 39  1  0
 23 40  1  0
M  CHG  2  10   1  15  -1
M  END
>  <UniqueID>  (9) 
8

>  <SMILES>  (9) 
CCc1cc(C(F)F)n2[nH+]cc(C(=O)[N-]Cc3cccc(Cl)c3)c2n1

>  <Energy>  (9) 
77.93963875442643

>  <Genealogy>  (9) 
CCc1cc(C(F)F)n2[nH+]cc(C(=O)[N-]Cc3cccc(Cl)c3)c2n1 (protonated)
CCc1cc(C(F)F)n2[nH+]cc(C(=O)[N-]Cc3cccc(Cl)c3)c2n1 (3D coordinates assigned)
CCc1cc(C(F)F)n2[nH+]cc(C(=O)[N-]Cc3cccc(Cl)c3)c2n1 (optimized conformer: 77.93963875442643 kcal/mol)

>  <smiles>  (9) 
CCc1cc(C(F)F)n2ncc(C(=O)NCc3cccc(Cl)c3)c2n1

>  <score_type>  (9) 
oracle

>  <origin>  (9) 
adg

>  <m_score__min__energy>  (9) 
-7.1799999999999997

>  <m_primary>  (9) 
energy

$$$$
9:0
     RDKit          3D

 34 36  0  0  1  0  0  0  0  0999 V2000
   61.6140   34.1860   49.5880 C   0  0  0  0  0  0  0  0  0  0  0  0
   60.5040   33.9300   48.6060 C   0  0  0  0  0  0  0  0  0  0  0  0
   59.5530   33.0090   48.9860 C   0  0  0  0  0  0  0  0  0  0  0  0
   58.5150   32.7520   48.0990 C   0  0  0  0  0  0  0  0  0  0  0  0
   58.4340   33.4000   46.8670 C   0  0  0  0  0  0  0  0  0  0  0  0
   57.3280   33.0590   46.0380 N   0  0  0  0  0  0  0  0  0  0  0  0
   57.4580   32.1980   45.0590 C   0  0  0  0  0  0  0  0  0  0  0  0
   57.3880   32.6090   43.7950 N   0  0  0  0  0  0  0  0  0  0  0  0
   57.5140   31.7640   42.7550 C   0  0  0  0  0  0  0  0  0  0  0  0
   57.4160   32.3420   41.0910 Cl  0  0  0  0  0  0  0  0  0  0  0  0
   57.7210   30.4470   43.0240 N   0  0  0  0  0  0  0  0  0  0  0  0
   57.8010   29.9760   44.2980 C   0  0  0  0  0  0  0  0  0  0  0  0
   57.6660   30.8720   45.3640 C   0  0  0  0  0  0  0  0  0  0  0  0
   57.7860   30.1410   46.4860 N   0  0  0  0  0  0  0  0  0  0  0  0
   57.9880   28.8410   46.1400 C   0  0  0  0  0  0  0  0  0  0  0  0
   57.9980   28.7280   44.7990 N   0  0  0  0  0  0  0  0  0  0  0  0
   58.1820   27.5280   43.9860 C   0  0  0  0  0  0  0  0  0  0  0  0
   59.3990   34.2950   46.5470 C   0  0  0  0  0  0  0  0  0  0  0  0
   59.3210   34.9930   45.2320 C   0  0  0  0  0  0  0  0  0  0  0  0
   60.4500   34.5890   47.3880 C   0  0  0  0  0  0  0  0  0  0  0  0
   61.2248   34.0962   50.6129 H   0  0  0  0  0  0  0  0  0  0  0  0
   62.4164   33.4493   49.4347 H   0  0  0  0  0  0  0  0  0  0  0  0
   62.0127   35.1997   49.4347 H   0  0  0  0  0  0  0  0  0  0  0  0
   59.6132   32.4954   49.9569 H   0  0  0  0  0  0  0  0  0  0  0  0
   57.7402   32.0214   48.3746 H   0  0  0  0  0  0  0  0  0  0  0  0
   57.2290   33.6190   43.5970 H   0  0  0  0  0  0  0  0  0  0  0  0
   58.1225   28.0097   46.8477 H   0  0  0  0  0  0  0  0  0  0  0  0
   58.3156   26.6565   44.6437 H   0  0  0  0  0  0  0  0  0  0  0  0
   57.2967   27.3759   43.3511 H   0  0  0  0  0  0  0  0  0  0  0  0
   59.0722   27.6482   43.3511 H   0  0  0  0  0  0  0  0  0  0  0  0
   59.2002   36.0738   45.3972 H   0  0  0  0  0  0  0  0  0  0  0  0
   60.2452   34.8099   44.6643 H   0  0  0  0  0  0  0  0  0  0  0  0
   58.4600   34.6104   44.6643 H   0  0  0  0  0  0  0  0  0  0  0  0
   61.2195   35.3214   47.1026 H   0  0  0  0  0  0  0  0  0  0  0  0
  1  2  1  0
  2  3  2  0
  3  4  1  0
  4  5  2  0
  5  6  1  0
  6  7  2  0
  7  8  1  0
  8  9  1  0
  9 10  1  0
  9 11  2  0
 11 12  1  0
 12 13  2  0
 13 14  1  0
 14 15  2  0
 15 16  1  0
 16 17  1  0
  5 18  1  0
 18 19  1  0
 18 20  2  0
 20  2  1  0
 13  7  1  0
 16 12  1  0
  1 21  1  0
  1 22  1  0
  1 23  1  0
  3 24  1  0
  4 25  1  0
  8 26  1  0
 15 27  1  0
 17 28  1  0
 17 29  1  0
 17 30  1  0
 19 31  1  0
 19 32  1  0
 19 33  1  0
 20 34  1  0
M  END
>  <smiles>  (10) 
Cc1ccc(N=c2[nH]c(Cl)nc3c2ncn3C)c(C)c1

>  <score_type>  (10) 
oracle

>  <origin>  (10) 
adg

>  <m_score__min__energy>  (10) 
-7.2199999999999998

>  <m_primary>  (10) 
energy

$$$$
10:0
     RDKit          3D

 39 41  0  0  0  0  0  0  0  0999 V2000
   56.6650   30.1430   43.3290 C   0  0  0  0  0  0  0  0  0  0  0  0
   56.4620   30.9620   44.4760 O   0  0  0  0  0  0  0  0  0  0  0  0
   57.4800   31.3530   45.3590 C   0  0  0  0  0  0  0  0  0  0  0  0
   58.3390   30.4290   45.9760 C   0  0  0  0  0  0  0  0  0  0  0  0
   59.3360   30.8680   46.8490 C   0  0  0  0  0  0  0  0  0  0  0  0
   59.4930   32.2360   47.1260 C   0  0  0  0  0  0  0  0  0  0  0  0
   60.5530   32.6700   48.0690 C   0  0  0  0  0  0  0  0  0  0  0  0
   60.2270   33.4250   49.2090 C   0  0  0  0  0  0  0  0  0  0  0  0
   61.2240   33.8270   50.1020 C   0  0  0  0  0  0  0  0  0  0  0  0
   62.5650   33.4740   49.8720 C   0  0  0  0  0  0  0  0  0  0  0  0
   63.6000   33.8560   50.7440 C   0  0  0  0  0  0  0  0  0  0  0  0
   63.3370   34.5420   51.7730 O   0  0  0  0  0  0  0  0  0  0  0  0
   64.8910   33.4870   50.4780 N   0  0  0  0  0  0  0  0  0  0  0  0
   65.9750   33.8860   51.3870 C   0  0  0  0  0  0  0  0  0  0  0  0
   65.1800   32.7470   49.3660 C   0  0  0  0  0  0  0  0  0  0  0  0
   64.1950   32.3670   48.5110 N   0  0  0  0  0  0  0  0  0  0  0  0
   62.8980   32.7100   48.7360 C   0  0  0  0  0  0  0  0  0  0  0  0
   61.8910   32.3100   47.8440 C   0  0  0  0  0  0  0  0  0  0  0  0
   58.6440   33.1740   46.5010 C   0  0  0  0  0  0  0  0  0  0  0  0
   58.8360   34.5430   46.7520 O   0  0  0  0  0  0  0  0  0  0  0  0
   59.6510   35.4060   45.9670 C   0  0  0  0  0  0  0  0  0  0  0  0
   57.6390   32.7180   45.6250 C   0  0  0  0  0  0  0  0  0  0  0  0
   56.9183   29.1212   43.6482 H   0  0  0  0  0  0  0  0  0  0  0  0
   55.7450   30.1215   42.7264 H   0  0  0  0  0  0  0  0  0  0  0  0
   57.4885   30.5536   42.7264 H   0  0  0  0  0  0  0  0  0  0  0  0
   58.2257   29.3543   45.7704 H   0  0  0  0  0  0  0  0  0  0  0  0
   60.0050   30.1356   47.3245 H   0  0  0  0  0  0  0  0  0  0  0  0
   59.1795   33.7014   49.3996 H   0  0  0  0  0  0  0  0  0  0  0  0
   60.9583   34.4219   50.9883 H   0  0  0  0  0  0  0  0  0  0  0  0
   65.6435   33.7640   52.4287 H   0  0  0  0  0  0  0  0  0  0  0  0
   66.8566   33.2534   51.2063 H   0  0  0  0  0  0  0  0  0  0  0  0
   66.2361   34.9392   51.2063 H   0  0  0  0  0  0  0  0  0  0  0  0
   66.2209   32.4561   49.1611 H   0  0  0  0  0  0  0  0  0  0  0  0
   64.4540   31.7990   47.6710 H   0  0  0  0  0  0  0  0  0  0  0  0
   62.1526   31.7090   46.9606 H   0  0  0  0  0  0  0  0  0  0  0  0
   60.2538   36.0443   46.6298 H   0  0  0  0  0  0  0  0  0  0  0  0
   60.3176   34.8037   45.3322 H   0  0  0  0  0  0  0  0  0  0  0  0
   59.0116   36.0371   45.3322 H   0  0  0  0  0  0  0  0  0  0  0  0
   56.9694   33.4455   45.1430 H   0  0  0  0  0  0  0  0  0  0  0  0
  1  2  1  0
  2  3  1  0
  3  4  2  0
  4  5  1  0
  5  6  2  0
  6  7  1  0
  7  8  2  0
  8  9  1  0
  9 10  2  0
 10 11  1  0
 11 12  2  0
 11 13  1  0
 13 14  1  0
 13 15  1  0
 15 16  2  0
 16 17  1  0
 17 18  2  0
  6 19  1  0
 19 20  1  0
 20 21  1  0
 19 22  2  0
 22  3  1  0
 18  7  1  0
 17 10  1  0
  1 23  1  0
  1 24  1  0
  1 25  1  0
  4 26  1  0
  5 27  1  0
  8 28  1  0
  9 29  1  0
 14 30  1  0
 14 31  1  0
 14 32  1  0
 15 33  1  0
 16 34  1  0
 18 35  1  0
 21 36  1  0
 21 37  1  0
 21 38  1  0
 22 39  1  0
M  CHG  1  16   1
M  END
>  <UniqueID>  (11) 
9

>  <SMILES>  (11) 
COc1ccc(-c2ccc3c(=O)n(C)c[nH+]c3c2)c(OC)c1

>  <Energy>  (11) 
52.479593321340076

>  <Genealogy>  (11) 
COc1ccc(-c2ccc3c(=O)n(C)c[nH+]c3c2)c(OC)c1 (protonated)
COc1ccc(-c2ccc3c(=O)n(C)c[nH+]c3c2)c(OC)c1 (3D coordinates assigned)
COc1ccc(-c2ccc3c(=O)n(C)c[nH+]c3c2)c(OC)c1 (optimized conformer: 52.479593321340076 kcal/mol)

>  <smiles>  (11) 
COc1ccc(-c2ccc3c(=O)n(C)cnc3c2)c(OC)c1

>  <score_type>  (11) 
oracle

>  <origin>  (11) 
adg

>  <m_score__min__energy>  (11) 
-5.3700000000000001

>  <m_primary>  (11) 
energy

$$$$
11:0
     RDKit          3D

 51 54  0  0  0  0  0  0  0  0999 V2000
   61.5372   27.8597   48.9509 H   0  0  0  0  0  0  0  0  0  0  0  0
   60.7280   28.4410   49.4170 C   0  0  0  0  0  0  0  0  0  0  0  0
   59.6180   28.8270   48.6590 C   0  0  0  0  0  0  0  0  0  0  0  0
   59.5550   28.5500   47.5963 H   0  0  0  0  0  0  0  0  0  0  0  0
   58.5880   29.5650   49.2510 C   0  0  0  0  0  0  0  0  0  0  0  0
   57.7166   29.8679   48.6518 H   0  0  0  0  0  0  0  0  0  0  0  0
   58.6620   29.9210   50.6080 C   0  0  0  0  0  0  0  0  0  0  0  0
   57.5290   30.6730   51.2610 C   0  0  0  0  0  0  0  0  0  0  0  0
   57.5328   30.4511   52.3384 H   0  0  0  0  0  0  0  0  0  0  0  0
   56.5927   30.3470   50.7846 H   0  0  0  0  0  0  0  0  0  0  0  0
   57.6410   32.1330   51.0780 N   0  0  0  0  0  0  0  0  0  0  0  0
   56.7150   32.5440   50.8370 H   0  0  0  0  0  0  0  0  0  0  0  0
   57.8720   32.5470   52.0130 H   0  0  0  0  0  0  0  0  0  0  0  0
   58.7100   32.4950   50.1580 C   0  0  0  0  0  0  0  0  0  0  0  0
   58.3600   32.6890   48.8170 C   0  0  0  0  0  0  0  0  0  0  0  0
   57.3247   32.4967   48.4988 H   0  0  0  0  0  0  0  0  0  0  0  0
   59.2880   33.1180   47.8800 C   0  0  0  0  0  0  0  0  0  0  0  0
   58.8080   33.5390   46.7370 N   0  0  0  0  0  0  0  0  0  0  0  0
   58.4940   32.8080   45.5420 C   0  0  0  0  0  0  0  0  0  0  0  0
   58.4590   33.4470   44.2900 C   0  0  0  0  0  0  0  0  0  0  0  0
   58.7158   34.5137   44.2113 H   0  0  0  0  0  0  0  0  0  0  0  0
   58.0990   32.7310   43.1460 C   0  0  0  0  0  0  0  0  0  0  0  0
   58.0925   33.2293   42.1654 H   0  0  0  0  0  0  0  0  0  0  0  0
   57.7470   31.3820   43.2460 C   0  0  0  0  0  0  0  0  0  0  0  0
   57.4724   30.8168   42.3432 H   0  0  0  0  0  0  0  0  0  0  0  0
   57.7440   30.7510   44.4940 C   0  0  0  0  0  0  0  0  0  0  0  0
   57.2410   28.9130   44.6340 Br  0  0  0  0  0  0  0  0  0  0  0  0
   58.1040   31.4670   45.6420 C   0  0  0  0  0  0  0  0  0  0  0  0
   58.0804   30.9746   46.6253 H   0  0  0  0  0  0  0  0  0  0  0  0
   60.6600   33.1000   48.2390 C   0  0  0  0  0  0  0  0  0  0  0  0
   61.6890   33.1250   47.2700 C   0  0  0  0  0  0  0  0  0  0  0  0
   61.4247   33.1351   46.2023 H   0  0  0  0  0  0  0  0  0  0  0  0
   63.0280   33.1370   47.6410 C   0  0  0  0  0  0  0  0  0  0  0  0
   63.8109   33.2037   46.8712 H   0  0  0  0  0  0  0  0  0  0  0  0
   63.3780   33.0650   48.9800 C   0  0  0  0  0  0  0  0  0  0  0  0
   65.0730   33.0660   49.4400 Cl  0  0  0  0  0  0  0  0  0  0  0  0
   62.3910   32.9350   49.9540 C   0  0  0  0  0  0  0  0  0  0  0  0
   62.6858   32.8435   51.0098 H   0  0  0  0  0  0  0  0  0  0  0  0
   61.0090   32.9180   49.6130 C   0  0  0  0  0  0  0  0  0  0  0  0
   60.0210   32.6910   50.5660 N   0  0  0  0  0  0  0  0  0  0  0  0
   60.3770   32.5960   52.0040 C   0  0  0  0  0  0  0  0  0  0  0  0
   61.4724   32.5739   52.1019 H   0  0  0  0  0  0  0  0  0  0  0  0
   59.9328   31.6766   52.4132 H   0  0  0  0  0  0  0  0  0  0  0  0
   59.8300   33.7890   52.7880 C   0  0  0  0  0  0  0  0  0  0  0  0
   59.9205   33.5917   53.8664 H   0  0  0  0  0  0  0  0  0  0  0  0
   60.4044   34.6912   52.5309 H   0  0  0  0  0  0  0  0  0  0  0  0
   58.7716   33.9425   52.5309 H   0  0  0  0  0  0  0  0  0  0  0  0
   59.7800   29.5300   51.3630 C   0  0  0  0  0  0  0  0  0  0  0  0
   59.8464   29.8035   52.4264 H   0  0  0  0  0  0  0  0  0  0  0  0
   60.8090   28.7940   50.7670 C   0  0  0  0  0  0  0  0  0  0  0  0
   61.6838   28.4923   51.3618 H   0  0  0  0  0  0  0  0  0  0  0  0
  1  2  1  0
  2  3  2  0
  3  4  1  0
  3  5  1  0
  5  6  1  0
  5  7  2  0
  7  8  1  0
  8  9  1  0
  8 10  1  0
  8 11  1  0
 11 12  1  0
 11 13  1  0
 11 14  1  0
 14 15  2  0
 15 16  1  0
 15 17  1  0
 17 18  2  0
 18 19  1  0
 19 20  2  0
 20 21  1  0
 20 22  1  0
 22 23  1  0
 22 24  2  0
 24 25  1  0
 24 26  1  0
 26 27  1  0
 26 28  2  0
 28 29  1  0
 17 30  1  0
 30 31  2  0
 31 32  1  0
 31 33  1  0
 33 34  1  0
 33 35  2  0
 35 36  1  0
 35 37  1  0
 37 38  1  0
 37 39  2  0
 39 40  1  0
 40 41  1  0
 41 42  1  0
 41 43  1  0
 41 44  1  0
 44 45  1  0
 44 46  1  0
 44 47  1  0
  7 48  1  0
 48 49  1  0
 48 50  2  0
 50 51  1  0
 50  2  1  0
 40 14  1  0
 28 19  1  0
 39 30  1  0
M  CHG  1  11   1
M  END
>  <UniqueID>  (12) 
10

>  <SMILES>  (12) 
CCn1c([NH2+]Cc2ccccc2)c/c(=N/c2cccc(Br)c2)c2ccc(Cl)cc21

>  <Energy>  (12) 
88.15852358000461

>  <Genealogy>  (12) 
CCn1c([NH2+]Cc2ccccc2)cc(=Nc2cccc(Br)c2)c2ccc(Cl)cc21 (protonated)
CCn1c([NH2+]Cc2ccccc2)c/c(=N/c2cccc(Br)c2)c2ccc(Cl)cc21 (cis-trans isomerization)
CCn1c([NH2+]Cc2ccccc2)c/c(=N/c2cccc(Br)c2)c2ccc(Cl)cc21 (3D coordinates assigned)
CCn1c([NH2+]Cc2ccccc2)c/c(=N/c2cccc(Br)c2)c2ccc(Cl)cc21 (optimized conformer: 88.15852358000461 kcal/mol)

>  <smiles>  (12) 
CCn1c(NCc2ccccc2)cc(=Nc2cccc(Br)c2)c2ccc(Cl)cc21

>  <score_type>  (12) 
oracle

>  <origin>  (12) 
adg

>  <m_score__min__energy>  (12) 
-7.7199999999999998

>  <m_primary>  (12) 
energy

$$$$
12:0
     RDKit          3D

 28 29  0  0  0  0  0  0  0  0999 V2000
   60.7330   33.8740   46.5540 C   0  0  0  0  0  0  0  0  0  0  0  0
   59.5810   34.8250   46.1980 C   0  0  0  0  0  0  0  0  0  0  0  0
   59.0060   34.3730   44.8990 C   0  0  0  0  0  0  0  0  0  0  0  0
   57.3620   33.6640   45.0050 S   0  0  0  0  0  0  0  0  0  0  0  0
   57.4430   31.8650   44.9660 C   0  0  0  0  0  0  0  0  0  0  0  0
   56.3110   31.1710   44.7220 N   0  0  0  0  0  0  0  0  0  0  0  0
   56.2880   29.8320   44.6750 C   0  0  0  0  0  0  0  0  0  0  0  0
   55.2200   29.1540   44.4460 N   0  0  0  0  0  0  0  0  0  0  0  0
   57.4960   29.1670   44.8880 C   0  0  0  0  0  0  0  0  0  0  0  0
   57.5350   27.7760   44.8500 C   0  0  0  0  0  0  0  0  0  0  0  0
   58.7490   27.1310   45.0640 C   0  0  0  0  0  0  0  0  0  0  0  0
   59.9130   27.8660   45.3130 C   0  0  0  0  0  0  0  0  0  0  0  0
   59.8610   29.2390   45.3500 C   0  0  0  0  0  0  0  0  0  0  0  0
   58.6530   29.9120   45.1380 C   0  0  0  0  0  0  0  0  0  0  0  0
   58.6300   31.2580   45.1770 N   0  0  0  0  0  0  0  0  0  0  0  0
   60.8227   33.8000   47.6478 H   0  0  0  0  0  0  0  0  0  0  0  0
   60.5290   32.8778   46.1346 H   0  0  0  0  0  0  0  0  0  0  0  0
   61.6725   34.2630   46.1346 H   0  0  0  0  0  0  0  0  0  0  0  0
   58.8100   34.7895   46.9817 H   0  0  0  0  0  0  0  0  0  0  0  0
   59.9457   35.8598   46.1190 H   0  0  0  0  0  0  0  0  0  0  0  0
   58.9606   35.2413   44.2251 H   0  0  0  0  0  0  0  0  0  0  0  0
   59.6642   33.5711   44.5334 H   0  0  0  0  0  0  0  0  0  0  0  0
   55.1590   28.1920   44.8750 H   0  0  0  0  0  0  0  0  0  0  0  0
   56.6209   27.1963   44.6540 H   0  0  0  0  0  0  0  0  0  0  0  0
   58.7940   26.0323   45.0371 H   0  0  0  0  0  0  0  0  0  0  0  0
   60.8681   27.3461   45.4789 H   0  0  0  0  0  0  0  0  0  0  0  0
   60.7776   29.8139   45.5481 H   0  0  0  0  0  0  0  0  0  0  0  0
   59.5040   31.7900   45.3640 H   0  0  0  0  0  0  0  0  0  0  0  0
  1  2  1  0
  2  3  1  0
  3  4  1  0
  4  5  1  0
  5  6  2  0
  6  7  1  0
  7  8  2  3
  7  9  1  0
  9 10  2  0
 10 11  1  0
 11 12  2  0
 12 13  1  0
 13 14  2  0
 14 15  1  0
 15  5  1  0
 14  9  1  0
  1 16  1  0
  1 17  1  0
  1 18  1  0
  2 19  1  0
  2 20  1  0
  3 21  1  0
  3 22  1  0
  8 23  1  0
 10 24  1  0
 11 25  1  0
 12 26  1  0
 13 27  1  0
 15 28  1  0
M  END
>  <smiles>  (13) 
CCCSc1nc(=N)c2ccccc2[nH]1

>  <score_type>  (13) 
oracle

>  <origin>  (13) 
adg

>  <m_score__min__energy>  (13) 
-6.6600000000000001

>  <m_primary>  (13) 
energy

$$$$
13:0
     RDKit          3D

 62 61  0  0  0  0  0  0  0  0999 V2000
   57.8460   26.7230   46.8580 C   0  0  0  0  0  0  0  0  0  0  0  0
   57.8270   27.2090   45.4140 C   0  0  0  0  0  0  0  0  0  0  0  0
   57.2330   28.5820   45.3300 C   0  0  0  0  0  0  0  0  0  0  0  0
   57.3910   29.3860   46.2880 O   0  0  0  0  0  0  0  0  0  0  0  0
   56.5320   28.9900   44.1490 N   0  0  0  0  0  0  0  0  0  0  0  0
   56.0560   30.3560   43.9440 C   0  0  0  0  0  0  0  0  0  0  0  0
   57.0630   31.1490   43.1010 C   0  0  0  0  0  0  0  0  0  0  0  0
   58.0180   31.9900   43.9580 C   0  0  0  0  0  0  0  0  0  0  0  0
   57.6780   31.8800   45.3840 N   0  0  0  0  0  0  0  0  0  0  0  0
   57.0300   33.1110   45.8550 C   0  0  0  0  0  0  0  0  0  0  0  0
   57.2770   34.2460   44.8540 C   0  0  0  0  0  0  0  0  0  0  0  0
   58.7110   34.7930   44.9170 C   0  0  0  0  0  0  0  0  0  0  0  0
   59.3830   34.5440   46.2740 C   0  0  0  0  0  0  0  0  0  0  0  0
   60.1200   33.2740   46.2360 N   0  0  0  0  0  0  0  0  0  0  0  0
   61.3450   33.3350   47.0480 C   0  0  0  0  0  0  0  0  0  0  0  0
   61.0660   32.8170   48.4660 C   0  0  0  0  0  0  0  0  0  0  0  0
   59.7460   33.3490   49.0460 C   0  0  0  0  0  0  0  0  0  0  0  0
   58.5710   32.3760   48.8360 C   0  0  0  0  0  0  0  0  0  0  0  0
   58.9090   31.2790   47.9140 N   0  0  0  0  0  0  0  0  0  0  0  0
   59.0660   29.9920   48.6060 C   0  0  0  0  0  0  0  0  0  0  0  0
   60.0980   29.1170   47.8840 C   0  0  0  0  0  0  0  0  0  0  0  0
   60.7630   29.8110   46.6810 C   0  0  0  0  0  0  0  0  0  0  0  0
   59.7930   30.4620   45.8010 N   0  0  0  0  0  0  0  0  0  0  0  0
   57.8122   27.5881   47.5365 H   0  0  0  0  0  0  0  0  0  0  0  0
   56.9723   26.0799   47.0400 H   0  0  0  0  0  0  0  0  0  0  0  0
   58.7672   26.1501   47.0400 H   0  0  0  0  0  0  0  0  0  0  0  0
   58.8565   27.2358   45.0275 H   0  0  0  0  0  0  0  0  0  0  0  0
   57.2146   26.5193   44.8146 H   0  0  0  0  0  0  0  0  0  0  0  0
   56.3230   28.2760   43.4130 H   0  0  0  0  0  0  0  0  0  0  0  0
   55.0879   30.3286   43.4225 H   0  0  0  0  0  0  0  0  0  0  0  0
   55.9429   30.8465   44.9221 H   0  0  0  0  0  0  0  0  0  0  0  0
   57.6566   30.4414   42.5035 H   0  0  0  0  0  0  0  0  0  0  0  0
   56.4921   31.8399   42.4632 H   0  0  0  0  0  0  0  0  0  0  0  0
   59.0475   31.6341   43.8047 H   0  0  0  0  0  0  0  0  0  0  0  0
   57.9266   33.0435   43.6552 H   0  0  0  0  0  0  0  0  0  0  0  0
   58.5710   31.7740   45.9190 H   0  0  0  0  0  0  0  0  0  0  0  0
   55.9478   32.9394   45.9523 H   0  0  0  0  0  0  0  0  0  0  0  0
   57.4510   33.3913   46.8318 H   0  0  0  0  0  0  0  0  0  0  0  0
   57.0899   33.8662   43.8387 H   0  0  0  0  0  0  0  0  0  0  0  0
   56.5962   35.0703   45.1130 H   0  0  0  0  0  0  0  0  0  0  0  0
   59.3086   34.3037   44.1338 H   0  0  0  0  0  0  0  0  0  0  0  0
   58.6572   35.8816   44.7687 H   0  0  0  0  0  0  0  0  0  0  0  0
   60.0812   35.3655   46.4925 H   0  0  0  0  0  0  0  0  0  0  0  0
   58.6131   34.4950   47.0582 H   0  0  0  0  0  0  0  0  0  0  0  0
   59.4990   32.5360   46.6440 H   0  0  0  0  0  0  0  0  0  0  0  0
   62.1226   32.7133   46.5802 H   0  0  0  0  0  0  0  0  0  0  0  0
   61.6853   34.3794   47.1073 H   0  0  0  0  0  0  0  0  0  0  0  0
   61.0190   31.7184   48.4358 H   0  0  0  0  0  0  0  0  0  0  0  0
   61.8799   33.1733   49.1146 H   0  0  0  0  0  0  0  0  0  0  0  0
   59.8772   33.5149   50.1255 H   0  0  0  0  0  0  0  0  0  0  0  0
   59.5030   34.2830   48.5181 H   0  0  0  0  0  0  0  0  0  0  0  0
   58.2901   31.9461   49.8088 H   0  0  0  0  0  0  0  0  0  0  0  0
   57.7404   32.9439   48.3916 H   0  0  0  0  0  0  0  0  0  0  0  0
   58.1610   31.1890   47.1870 H   0  0  0  0  0  0  0  0  0  0  0  0
   59.4035   30.1740   49.6370 H   0  0  0  0  0  0  0  0  0  0  0  0
   58.0978   29.4700   48.6109 H   0  0  0  0  0  0  0  0  0  0  0  0
   60.8830   28.8404   48.6032 H   0  0  0  0  0  0  0  0  0  0  0  0
   59.5600   28.2407   47.4932 H   0  0  0  0  0  0  0  0  0  0  0  0
   61.4642   30.5711   47.0560 H   0  0  0  0  0  0  0  0  0  0  0  0
   61.2795   29.0375   46.0936 H   0  0  0  0  0  0  0  0  0  0  0  0
   59.8420   31.4990   45.9310 H   0  0  0  0  0  0  0  0  0  0  0  0
   58.8300   30.1440   46.0570 H   0  0  0  0  0  0  0  0  0  0  0  0
  1  2  1  0
  2  3  1  0
  3  4  2  0
  3  5  1  0
  5  6  1  0
  6  7  1  0
  7  8  1  0
  8  9  1  0
  9 10  1  0
 10 11  1  0
 11 12  1  0
 12 13  1  0
 13 14  1  0
 14 15  1  0
 15 16  1  0
 16 17  1  0
 17 18  1  0
 18 19  1  0
 19 20  1  0
 20 21  1  0
 21 22  1  0
 22 23  1  0
  1 24  1  0
  1 25  1  0
  1 26  1  0
  2 27  1  0
  2 28  1  0
  5 29  1  0
  6 30  1  0
  6 31  1  0
  7 32  1  0
  7 33  1  0
  8 34  1  0
  8 35  1  0
  9 36  1  0
 10 37  1  0
 10 38  1  0
 11 39  1  0
 11 40  1  0
 12 41  1  0
 12 42  1  0
 13 43  1  0
 13 44  1  0
 14 45  1  0
 15 46  1  0
 15 47  1  0
 16 48  1  0
 16 49  1  0
 17 50  1  0
 17 51  1  0
 18 52  1  0
 18 53  1  0
 19 54  1  0
 20 55  1  0
 20 56  1  0
 21 57  1  0
 21 58  1  0
 22 59  1  0
 22 60  1  0
 23 61  1  0
 23 62  1  0
M  END
>  <UniqueID>  (14) 
11

>  <SMILES>  (14) 
CCC(=O)NCCCNCCCCNCCCCNCCCN

>  <Energy>  (14) 
30.994373063377726

>  <Genealogy>  (14) 
CCC(=O)NCCCNCCCCNCCCCNCCCN (3D coordinates assigned)
CCC(=O)NCCCNCCCCNCCCCNCCCN (optimized conformer: 30.994373063377726 kcal/mol)

>  <smiles>  (14) 
CCC(=O)NCCCNCCCCNCCCCNCCCN

>  <score_type>  (14) 
oracle

>  <origin>  (14) 
adg

>  <m_score__min__energy>  (14) 
-3.6699999999999999

>  <m_primary>  (14) 
energy

$$$$
14:0
     RDKit          3D

 40 41  0  0  0  0  0  0  0  0999 V2000
   58.6200   31.1010   45.2340 C   0  0  0  0  0  0  0  0  0  0  0  0
   57.2040   31.3730   44.9230 N   0  0  2  0  0  0  0  0  0  0  0  0
   56.7970   30.8330   43.5950 C   0  0  0  0  0  0  0  0  0  0  0  0
   55.6920   29.7530   43.6050 C   0  0  0  0  0  0  0  0  0  0  0  0
   55.5340   29.1560   44.9240 N   0  0  0  0  0  0  0  0  0  0  0  0
   56.2750   28.0030   45.3430 C   0  0  0  0  0  0  0  0  0  0  0  0
   55.6570   26.9510   45.6610 O   0  0  0  0  0  0  0  0  0  0  0  0
   57.7570   28.0460   45.4010 C   0  0  0  0  0  0  0  0  0  0  0  0
   58.5090   28.1510   44.2140 C   0  0  0  0  0  0  0  0  0  0  0  0
   59.9050   28.1900   44.2570 C   0  0  0  0  0  0  0  0  0  0  0  0
   60.5710   28.1300   45.4810 C   0  0  0  0  0  0  0  0  0  0  0  0
   59.8420   28.0300   46.6680 C   0  0  0  0  0  0  0  0  0  0  0  0
   58.4440   27.9880   46.6350 C   0  0  0  0  0  0  0  0  0  0  0  0
   57.7710   27.8760   47.8080 F   0  0  0  0  0  0  0  0  0  0  0  0
   56.8980   32.8120   45.1160 C   0  0  0  0  0  0  0  0  0  0  0  0
   57.9780   33.5290   45.8930 C   0  0  0  0  0  0  0  0  0  0  0  0
   58.1370   33.2840   47.2680 C   0  0  0  0  0  0  0  0  0  0  0  0
   59.1270   33.9550   47.9940 C   0  0  0  0  0  0  0  0  0  0  0  0
   59.9620   34.8760   47.3560 C   0  0  0  0  0  0  0  0  0  0  0  0
   59.8090   35.1280   45.9900 C   0  0  0  0  0  0  0  0  0  0  0  0
   58.8220   34.4590   45.2600 C   0  0  0  0  0  0  0  0  0  0  0  0
   58.7572   31.0746   46.3251 H   0  0  0  0  0  0  0  0  0  0  0  0
   58.9099   30.1307   44.8044 H   0  0  0  0  0  0  0  0  0  0  0  0
   59.2488   31.8948   44.8044 H   0  0  0  0  0  0  0  0  0  0  0  0
   56.6500   30.8430   45.6370 H   0  0  0  0  0  0  0  0  0  0  0  0
   56.4367   31.6756   42.9866 H   0  0  0  0  0  0  0  0  0  0  0  0
   57.6916   30.3338   43.1945 H   0  0  0  0  0  0  0  0  0  0  0  0
   54.7394   30.2149   43.3064 H   0  0  0  0  0  0  0  0  0  0  0  0
   55.9826   28.9587   42.9017 H   0  0  0  0  0  0  0  0  0  0  0  0
   57.9921   28.2027   43.2444 H   0  0  0  0  0  0  0  0  0  0  0  0
   60.4805   28.2683   43.3228 H   0  0  0  0  0  0  0  0  0  0  0  0
   61.6701   28.1614   45.5114 H   0  0  0  0  0  0  0  0  0  0  0  0
   60.3690   27.9841   47.6325 H   0  0  0  0  0  0  0  0  0  0  0  0
   56.7971   33.2876   44.1293 H   0  0  0  0  0  0  0  0  0  0  0  0
   55.9645   32.8830   45.6936 H   0  0  0  0  0  0  0  0  0  0  0  0
   57.4804   32.5618   47.7752 H   0  0  0  0  0  0  0  0  0  0  0  0
   59.2483   33.7571   49.0692 H   0  0  0  0  0  0  0  0  0  0  0  0
   60.7396   35.4025   47.9288 H   0  0  0  0  0  0  0  0  0  0  0  0
   60.4660   35.8537   45.4884 H   0  0  0  0  0  0  0  0  0  0  0  0
   58.7050   34.6611   44.1851 H   0  0  0  0  0  0  0  0  0  0  0  0
  1  2  1  0
  2  3  1  0
  3  4  1  0
  4  5  1  0
  5  6  1  0
  6  7  2  0
  6  8  1  0
  8  9  2  0
  9 10  1  0
 10 11  2  0
 11 12  1  0
 12 13  2  0
 13 14  1  0
  2 15  1  0
 15 16  1  0
 16 17  2  0
 17 18  1  0
 18 19  2  0
 19 20  1  0
 20 21  2  0
 13  8  1  0
 21 16  1  0
  1 22  1  0
  1 23  1  0
  1 24  1  0
  2 25  1  1
  3 26  1  0
  3 27  1  0
  4 28  1  0
  4 29  1  0
  9 30  1  0
 10 31  1  0
 11 32  1  0
 12 33  1  0
 15 34  1  0
 15 35  1  0
 17 36  1  0
 18 37  1  0
 19 38  1  0
 20 39  1  0
 21 40  1  0
M  CHG  2   2   1   5  -1
M  END
>  <UniqueID>  (15) 
12

>  <SMILES>  (15) 
C[N@H+](CC[N-]C(=O)c1ccccc1F)Cc1ccccc1

>  <Energy>  (15) 
44.29235024883638

>  <Genealogy>  (15) 
C[NH+](CC[N-]C(=O)c1ccccc1F)Cc1ccccc1 (protonated)
C[N@H+](CC[N-]C(=O)c1ccccc1F)Cc1ccccc1 (chirality)
C[N@H+](CC[N-]C(=O)c1ccccc1F)Cc1ccccc1 (3D coordinates assigned)
C[N@H+](CC[N-]C(=O)c1ccccc1F)Cc1ccccc1 (optimized conformer: 44.29235024883638 kcal/mol)

>  <smiles>  (15) 
CN(CCNC(=O)c1ccccc1F)Cc1ccccc1

>  <score_type>  (15) 
oracle

>  <origin>  (15) 
adg

>  <m_score__min__energy>  (15) 
-7.5599999999999996

>  <m_primary>  (15) 
energy

$$$$
15:0
     RDKit          3D

 53 55  0  0  0  0  0  0  0  0999 V2000
   63.7250   32.0000   47.5580 C   0  0  0  0  0  0  0  0  0  0  0  0
   62.6470   31.1850   47.1120 O   0  0  0  0  0  0  0  0  0  0  0  0
   61.5860   30.7590   47.9260 C   0  0  0  0  0  0  0  0  0  0  0  0
   61.4700   31.1470   49.2740 C   0  0  0  0  0  0  0  0  0  0  0  0
   60.3760   30.7300   50.0340 C   0  0  0  0  0  0  0  0  0  0  0  0
   59.3930   29.9160   49.4670 C   0  0  0  0  0  0  0  0  0  0  0  0
   59.5140   29.4820   48.1350 C   0  0  0  0  0  0  0  0  0  0  0  0
   58.4220   28.6620   47.4920 C   0  0  0  0  0  0  0  0  0  0  0  0
   58.6110   28.5460   46.0210 N   0  0  0  0  0  0  0  0  0  0  0  0
   58.1590   27.2230   45.5260 C   0  0  0  0  0  0  0  0  0  0  0  0
   56.6420   27.0290   45.7160 C   0  0  0  0  0  0  0  0  0  0  0  0
   55.8950   28.1890   45.2440 N   0  0  0  0  0  0  0  0  0  0  0  0
   56.4820   29.4870   45.1270 C   0  0  0  0  0  0  0  0  0  0  0  0
   55.7580   30.4630   44.7950 O   0  0  0  0  0  0  0  0  0  0  0  0
   57.9890   29.6290   45.2050 C   0  0  1  0  0  0  0  0  0  0  0  0
   58.5340   31.0580   45.5300 C   0  0  0  0  0  0  0  0  0  0  0  0
   58.1840   32.1450   44.5340 C   0  0  0  0  0  0  0  0  0  0  0  0
   57.8860   31.8220   43.3530 O   0  0  0  0  0  0  0  0  0  0  0  0
   58.1060   33.5340   44.9190 N   0  0  0  0  0  0  0  0  0  0  0  0
   56.8140   34.1820   45.1720 C   0  0  0  0  0  0  0  0  0  0  0  0
   59.3480   34.3250   45.0080 C   0  0  0  0  0  0  0  0  0  0  0  0
   59.9090   34.2360   46.4060 C   0  0  0  0  0  0  0  0  0  0  0  0
   59.0530   34.2890   47.5190 C   0  0  0  0  0  0  0  0  0  0  0  0
   59.5850   34.2750   48.8150 C   0  0  0  0  0  0  0  0  0  0  0  0
   60.9700   34.2250   48.9860 C   0  0  0  0  0  0  0  0  0  0  0  0
   61.7880   34.1820   47.8990 N   0  0  0  0  0  0  0  0  0  0  0  0
   61.2970   34.1820   46.6280 C   0  0  0  0  0  0  0  0  0  0  0  0
   60.6040   29.9300   47.3670 C   0  0  0  0  0  0  0  0  0  0  0  0
   63.7435   32.0140   48.6578 H   0  0  0  0  0  0  0  0  0  0  0  0
   64.6740   31.5916   47.1805 H   0  0  0  0  0  0  0  0  0  0  0  0
   63.5907   33.0244   47.1805 H   0  0  0  0  0  0  0  0  0  0  0  0
   62.2444   31.7812   49.7302 H   0  0  0  0  0  0  0  0  0  0  0  0
   60.2877   31.0440   51.0845 H   0  0  0  0  0  0  0  0  0  0  0  0
   58.5207   29.6132   50.0648 H   0  0  0  0  0  0  0  0  0  0  0  0
   58.4277   27.6539   47.9322 H   0  0  0  0  0  0  0  0  0  0  0  0
   57.4624   29.1679   47.6744 H   0  0  0  0  0  0  0  0  0  0  0  0
   58.3968   27.1432   44.4550 H   0  0  0  0  0  0  0  0  0  0  0  0
   58.6785   26.4454   46.1052 H   0  0  0  0  0  0  0  0  0  0  0  0
   56.3208   26.1419   45.1504 H   0  0  0  0  0  0  0  0  0  0  0  0
   56.4408   26.9006   46.7898 H   0  0  0  0  0  0  0  0  0  0  0  0
   58.3265   29.4899   44.1673 H   0  0  0  0  0  0  0  0  0  0  0  0
   58.1320   31.3568   46.5093 H   0  0  0  0  0  0  0  0  0  0  0  0
   59.6302   30.9710   45.5008 H   0  0  0  0  0  0  0  0  0  0  0  0
   56.6510   34.2638   46.2568 H   0  0  0  0  0  0  0  0  0  0  0  0
   56.8139   35.1868   44.7244 H   0  0  0  0  0  0  0  0  0  0  0  0
   56.0086   33.5812   44.7244 H   0  0  0  0  0  0  0  0  0  0  0  0
   60.0847   33.9306   44.2927 H   0  0  0  0  0  0  0  0  0  0  0  0
   59.1281   35.3762   44.7701 H   0  0  0  0  0  0  0  0  0  0  0  0
   57.9641   34.3415   47.3726 H   0  0  0  0  0  0  0  0  0  0  0  0
   58.9182   34.3031   49.6894 H   0  0  0  0  0  0  0  0  0  0  0  0
   61.3997   34.2204   49.9986 H   0  0  0  0  0  0  0  0  0  0  0  0
   61.9879   34.1397   45.7731 H   0  0  0  0  0  0  0  0  0  0  0  0
   60.6867   29.6255   46.3132 H   0  0  0  0  0  0  0  0  0  0  0  0
  1  2  1  0
  2  3  1  0
  3  4  2  0
  4  5  1  0
  5  6  2  0
  6  7  1  0
  7  8  1  0
  8  9  1  0
  9 10  1  0
 10 11  1  0
 11 12  1  0
 12 13  1  0
 13 14  2  0
 13 15  1  0
 15 16  1  0
 16 17  1  0
 17 18  2  0
 17 19  1  0
 19 20  1  0
 19 21  1  0
 21 22  1  0
 22 23  2  0
 23 24  1  0
 24 25  2  0
 25 26  1  0
 26 27  2  0
  7 28  2  0
 28  3  1  0
 15  9  1  0
 27 22  1  0
  1 29  1  0
  1 30  1  0
  1 31  1  0
  4 32  1  0
  5 33  1  0
  6 34  1  0
  8 35  1  0
  8 36  1  0
 10 37  1  0
 10 38  1  0
 11 39  1  0
 11 40  1  0
 15 41  1  6
 16 42  1  0
 16 43  1  0
 20 44  1  0
 20 45  1  0
 20 46  1  0
 21 47  1  0
 21 48  1  0
 23 49  1  0
 24 50  1  0
 25 51  1  0
 27 52  1  0
 28 53  1  0
M  CHG  1  12  -1
M  END
>  <UniqueID>  (16) 
13

>  <SMILES>  (16) 
COc1cccc(CN2CC[N-]C(=O)[C@H]2CC(=O)N(C)Cc2cccnc2)c1

>  <Energy>  (16) 
67.22629741470413

>  <Genealogy>  (16) 
COc1cccc(CN2CC[N-]C(=O)C2CC(=O)N(C)Cc2cccnc2)c1 (protonated)
COc1cccc(CN2CC[N-]C(=O)[C@H]2CC(=O)N(C)Cc2cccnc2)c1 (chirality)
COc1cccc(CN2CC[N-]C(=O)[C@H]2CC(=O)N(C)Cc2cccnc2)c1 (3D coordinates assigned)
COc1cccc(CN2CC[N-]C(=O)[C@H]2CC(=O)N(C)Cc2cccnc2)c1 (nonaromatic ring conformer: 67.22629741470413 kcal/mol)

>  <smiles>  (16) 
COc1cccc(CN2CCNC(=O)C2CC(=O)N(C)Cc2cccnc2)c1

>  <score_type>  (16) 
oracle

>  <origin>  (16) 
adg

>  <m_score__min__energy>  (16) 
-9.3699999999999992

>  <m_primary>  (16) 
energy

$$$$
16:0
     RDKit          3D

 36 37  0  0  0  0  0  0  0  0999 V2000
   60.1820   29.3240   45.0540 C   0  0  0  0  0  0  0  0  0  0  0  0
   59.6650   27.9980   44.4950 C   0  0  0  0  0  0  0  0  0  0  0  0
   58.2930   28.1550   43.7640 C   0  0  1  0  0  0  0  0  0  0  0  0
   58.1490   27.1040   42.6440 C   0  0  0  0  0  0  0  0  0  0  0  0
   57.1060   28.1710   44.6750 N   0  0  1  0  0  0  0  0  0  0  0  0
   57.4190   27.9120   46.1060 C   0  0  0  0  0  0  0  0  0  0  0  0
   57.1490   26.4790   46.4760 C   0  0  0  0  0  0  0  0  0  0  0  0
   57.8980   25.7070   47.3560 C   0  0  0  0  0  0  0  0  0  0  0  0
   57.3690   24.4260   47.5510 C   0  0  0  0  0  0  0  0  0  0  0  0
   56.2020   24.1890   46.8360 C   0  0  0  0  0  0  0  0  0  0  0  0
   55.8270   25.5770   45.9610 S   0  0  0  0  0  0  0  0  0  0  0  0
   56.3510   29.4010   44.5030 C   0  0  0  0  0  0  0  0  0  0  0  0
   55.1390   29.4560   44.8520 O   0  0  0  0  0  0  0  0  0  0  0  0
   56.9900   30.6230   43.9710 C   0  0  0  0  0  0  0  0  0  0  0  0
   57.0440   30.9900   42.6310 C   0  0  0  0  0  0  0  0  0  0  0  0
   57.7030   32.2060   42.4120 C   0  0  0  0  0  0  0  0  0  0  0  0
   58.1690   32.8060   43.5750 C   0  0  0  0  0  0  0  0  0  0  0  0
   57.7590   31.8200   44.8730 S   0  0  0  0  0  0  0  0  0  0  0  0
   60.1682   29.2887   46.1533 H   0  0  0  0  0  0  0  0  0  0  0  0
   61.2116   29.4923   44.7054 H   0  0  0  0  0  0  0  0  0  0  0  0
   59.5380   30.1449   44.7054 H   0  0  0  0  0  0  0  0  0  0  0  0
   60.4029   27.6039   43.7807 H   0  0  0  0  0  0  0  0  0  0  0  0
   59.5176   27.3115   45.3417 H   0  0  0  0  0  0  0  0  0  0  0  0
   58.3041   29.1563   43.3087 H   0  0  0  0  0  0  0  0  0  0  0  0
   58.0126   26.1082   43.0910 H   0  0  0  0  0  0  0  0  0  0  0  0
   57.2760   27.3491   42.0212 H   0  0  0  0  0  0  0  0  0  0  0  0
   59.0557   27.1053   42.0212 H   0  0  0  0  0  0  0  0  0  0  0  0
   56.4900   27.3810   44.3700 H   0  0  0  0  0  0  0  0  0  0  0  0
   58.4812   28.1341   46.2860 H   0  0  0  0  0  0  0  0  0  0  0  0
   56.7756   28.5562   46.7233 H   0  0  0  0  0  0  0  0  0  0  0  0
   58.8134   26.0662   47.8490 H   0  0  0  0  0  0  0  0  0  0  0  0
   57.8339   23.6770   48.2089 H   0  0  0  0  0  0  0  0  0  0  0  0
   55.6222   23.2542   46.8408 H   0  0  0  0  0  0  0  0  0  0  0  0
   56.6111   30.3840   41.8215 H   0  0  0  0  0  0  0  0  0  0  0  0
   57.8389   32.6450   41.4126 H   0  0  0  0  0  0  0  0  0  0  0  0
   58.7121   33.7607   43.6359 H   0  0  0  0  0  0  0  0  0  0  0  0
  1  2  1  0
  2  3  1  0
  3  4  1  0
  3  5  1  0
  5  6  1  0
  6  7  1  0
  7  8  2  0
  8  9  1  0
  9 10  2  0
 10 11  1  0
  5 12  1  0
 12 13  2  0
 12 14  1  0
 14 15  2  0
 15 16  1  0
 16 17  2  0
 17 18  1  0
 11  7  1  0
 18 14  1  0
  1 19  1  0
  1 20  1  0
  1 21  1  0
  2 22  1  0
  2 23  1  0
  3 24  1  6
  4 25  1  0
  4 26  1  0
  4 27  1  0
  5 28  1  6
  6 29  1  0
  6 30  1  0
  8 31  1  0
  9 32  1  0
 10 33  1  0
 15 34  1  0
 16 35  1  0
 17 36  1  0
M  CHG  1   5   1
M  END
>  <UniqueID>  (17) 
14

>  <SMILES>  (17) 
CC[C@@H](C)[N@@H+](Cc1cccs1)C(=O)c1cccs1

>  <Energy>  (17) 
93.3172428027047

>  <Genealogy>  (17) 
CCC(C)[NH+](Cc1cccs1)C(=O)c1cccs1 (protonated)
CC[C@@H](C)[N@@H+](Cc1cccs1)C(=O)c1cccs1 (chirality)
CC[C@@H](C)[N@@H+](Cc1cccs1)C(=O)c1cccs1 (3D coordinates assigned)
CC[C@@H](C)[N@@H+](Cc1cccs1)C(=O)c1cccs1 (optimized conformer: 93.3172428027047 kcal/mol)

>  <smiles>  (17) 
CCC(C)N(Cc1cccs1)C(=O)c1cccs1

>  <score_type>  (17) 
oracle

>  <origin>  (17) 
adg

>  <m_score__min__energy>  (17) 
-5.25

>  <m_primary>  (17) 
energy

$$$$
17:0
     RDKit          3D

 31 32  0  0  0  0  0  0  0  0999 V2000
   58.0080   26.4670   46.4680 C   0  0  0  0  0  0  0  0  0  0  0  0
   57.4810   26.4640   45.0900 N   0  0  1  0  0  0  0  0  0  0  0  0
   58.3760   27.1960   44.1630 C   0  0  0  0  0  0  0  0  0  0  0  0
   58.0550   28.6730   44.1130 C   0  0  0  0  0  0  0  0  0  0  0  0
   58.7760   29.5860   44.9010 C   0  0  0  0  0  0  0  0  0  0  0  0
   58.4610   30.9480   44.8660 C   0  0  0  0  0  0  0  0  0  0  0  0
   57.4240   31.4070   44.0470 C   0  0  0  0  0  0  0  0  0  0  0  0
   56.7000   30.5030   43.2640 C   0  0  0  0  0  0  0  0  0  0  0  0
   57.0120   29.1410   43.2970 C   0  0  0  0  0  0  0  0  0  0  0  0
   57.1980   25.0860   44.6140 C   0  0  0  0  0  0  0  0  0  0  0  0
   55.8110   24.6630   44.8800 N   0  0  0  0  0  0  0  0  0  0  0  0
   54.8750   25.4360   45.5070 C   0  0  0  0  0  0  0  0  0  0  0  0
   55.1490   26.7190   45.9670 O   0  0  0  0  0  0  0  0  0  0  0  0
   53.6170   24.8590   45.6420 C   0  0  0  0  0  0  0  0  0  0  0  0
   53.6640   23.3370   44.9230 S   0  0  0  0  0  0  0  0  0  0  0  0
   55.2770   23.4820   44.4810 C   0  0  0  0  0  0  0  0  0  0  0  0
   55.9110   22.6030   43.8380 O   0  0  0  0  0  0  0  0  0  0  0  0
   57.1703   26.4622   47.1809 H   0  0  0  0  0  0  0  0  0  0  0  0
   58.6284   25.5724   46.6252 H   0  0  0  0  0  0  0  0  0  0  0  0
   58.6182   27.3686   46.6252 H   0  0  0  0  0  0  0  0  0  0  0  0
   56.5570   26.9600   45.1120 H   0  0  0  0  0  0  0  0  0  0  0  0
   59.4156   27.0698   44.4995 H   0  0  0  0  0  0  0  0  0  0  0  0
   58.2312   26.7827   43.1539 H   0  0  0  0  0  0  0  0  0  0  0  0
   59.5909   29.2282   45.5475 H   0  0  0  0  0  0  0  0  0  0  0  0
   59.0294   31.6593   45.4833 H   0  0  0  0  0  0  0  0  0  0  0  0
   57.1783   32.4788   44.0191 H   0  0  0  0  0  0  0  0  0  0  0  0
   55.8837   30.8641   42.6211 H   0  0  0  0  0  0  0  0  0  0  0  0
   56.4383   28.4326   42.6813 H   0  0  0  0  0  0  0  0  0  0  0  0
   57.3758   25.0455   43.5292 H   0  0  0  0  0  0  0  0  0  0  0  0
   57.8634   24.4031   45.1625 H   0  0  0  0  0  0  0  0  0  0  0  0
   52.7448   25.3162   46.1321 H   0  0  0  0  0  0  0  0  0  0  0  0
  1  2  1  0
  2  3  1  0
  3  4  1  0
  4  5  2  0
  5  6  1  0
  6  7  2  0
  7  8  1  0
  8  9  2  0
  2 10  1  0
 10 11  1  0
 11 12  1  0
 12 13  1  0
 12 14  2  0
 14 15  1  0
 15 16  1  0
 16 17  2  0
  9  4  1  0
 16 11  1  0
  1 18  1  0
  1 19  1  0
  1 20  1  0
  2 21  1  1
  3 22  1  0
  3 23  1  0
  5 24  1  0
  6 25  1  0
  7 26  1  0
  8 27  1  0
  9 28  1  0
 10 29  1  0
 10 30  1  0
 14 31  1  0
M  CHG  2   2   1  13  -1
M  END
>  <UniqueID>  (18) 
15

>  <SMILES>  (18) 
C[N@@H+](Cc1ccccc1)Cn1c([O-])csc1=O

>  <Energy>  (18) 
65.92157883404036

>  <Genealogy>  (18) 
C[NH+](Cc1ccccc1)Cn1c([O-])csc1=O (protonated)
C[N@@H+](Cc1ccccc1)Cn1c([O-])csc1=O (chirality)
C[N@@H+](Cc1ccccc1)Cn1c([O-])csc1=O (3D coordinates assigned)
C[N@@H+](Cc1ccccc1)Cn1c([O-])csc1=O (optimized conformer: 65.92157883404036 kcal/mol)

>  <smiles>  (18) 
CN(Cc1ccccc1)Cn1c(O)csc1=O

>  <score_type>  (18) 
oracle

>  <origin>  (18) 
adg

>  <m_score__min__energy>  (18) 
-7.8399999999999999

>  <m_primary>  (18) 
energy

$$$$
18:0
     RDKit          3D

 41 44  0  0  0  0  0  0  0  0999 V2000
   58.4340   34.6060   45.8010 O   0  0  0  0  0  0  0  0  0  0  0  0
   59.2460   33.4120   46.2180 S   0  0  0  0  0  0  0  0  0  0  0  0
   60.6350   33.5620   45.6640 O   0  0  0  0  0  0  0  0  0  0  0  0
   59.3380   33.3040   47.9730 C   0  0  0  0  0  0  0  0  0  0  0  0
   60.1460   34.1900   48.7030 C   0  0  0  0  0  0  0  0  0  0  0  0
   60.1490   34.1470   50.1000 C   0  0  0  0  0  0  0  0  0  0  0  0
   59.3490   33.2210   50.7750 C   0  0  0  0  0  0  0  0  0  0  0  0
   59.3480   33.1860   52.1300 F   0  0  0  0  0  0  0  0  0  0  0  0
   58.5460   32.3340   50.0520 C   0  0  0  0  0  0  0  0  0  0  0  0
   58.5390   32.3760   48.6550 C   0  0  0  0  0  0  0  0  0  0  0  0
   58.4840   31.9420   45.6060 C   0  0  0  0  0  0  0  0  0  0  0  0
   57.1640   31.9690   45.1370 C   0  0  0  0  0  0  0  0  0  0  0  0
   56.6020   30.8490   44.6090 N   0  0  0  0  0  0  0  0  0  0  0  0
   57.2910   29.6820   44.5130 C   0  0  0  0  0  0  0  0  0  0  0  0
   58.6100   29.6080   44.9650 C   0  0  0  0  0  0  0  0  0  0  0  0
   59.2170   30.7470   45.5190 C   0  0  0  0  0  0  0  0  0  0  0  0
   60.5360   30.7140   45.9970 O   0  0  0  0  0  0  0  0  0  0  0  0
   60.8830   30.5360   47.3400 C   0  0  0  0  0  0  0  0  0  0  0  0
   60.1690   29.5980   48.0950 C   0  0  0  0  0  0  0  0  0  0  0  0
   60.4900   29.3750   49.4350 C   0  0  0  0  0  0  0  0  0  0  0  0
   61.5180   30.0980   50.0420 C   0  0  0  0  0  0  0  0  0  0  0  0
   62.2250   31.0630   49.3110 C   0  0  0  0  0  0  0  0  0  0  0  0
   63.2400   31.8170   49.9140 C   0  0  0  0  0  0  0  0  0  0  0  0
   63.9110   32.7920   49.1780 C   0  0  0  0  0  0  0  0  0  0  0  0
   63.5620   33.0080   47.8450 C   0  0  0  0  0  0  0  0  0  0  0  0
   62.5800   32.2690   47.2610 N   0  0  0  0  0  0  0  0  0  0  0  0
   61.9090   31.2950   47.9490 C   0  0  0  0  0  0  0  0  0  0  0  0
   60.7778   34.9192   48.1747 H   0  0  0  0  0  0  0  0  0  0  0  0
   60.7823   34.8434   50.6693 H   0  0  0  0  0  0  0  0  0  0  0  0
   57.9192   31.6025   50.5830 H   0  0  0  0  0  0  0  0  0  0  0  0
   57.9043   31.6784   48.0888 H   0  0  0  0  0  0  0  0  0  0  0  0
   56.5803   32.8995   45.1961 H   0  0  0  0  0  0  0  0  0  0  0  0
   56.8089   28.7939   44.0784 H   0  0  0  0  0  0  0  0  0  0  0  0
   59.1698   28.6643   44.8878 H   0  0  0  0  0  0  0  0  0  0  0  0
   59.3488   29.0324   47.6288 H   0  0  0  0  0  0  0  0  0  0  0  0
   59.9304   28.6263   50.0150 H   0  0  0  0  0  0  0  0  0  0  0  0
   61.7738   29.9104   51.0953 H   0  0  0  0  0  0  0  0  0  0  0  0
   63.5069   31.6399   50.9663 H   0  0  0  0  0  0  0  0  0  0  0  0
   64.7099   33.3867   49.6450 H   0  0  0  0  0  0  0  0  0  0  0  0
   64.0841   33.7809   47.2619 H   0  0  0  0  0  0  0  0  0  0  0  0
   62.3470   32.4800   46.2670 H   0  0  0  0  0  0  0  0  0  0  0  0
  1  2  2  0
  2  3  2  0
  2  4  1  0
  4  5  2  0
  5  6  1  0
  6  7  2  0
  7  8  1  0
  7  9  1  0
  9 10  2  0
  2 11  1  0
 11 12  2  0
 12 13  1  0
 13 14  2  0
 14 15  1  0
 15 16  2  0
 16 17  1  0
 17 18  1  0
 18 19  2  0
 19 20  1  0
 20 21  2  0
 21 22  1  0
 22 23  2  0
 23 24  1  0
 24 25  2  0
 25 26  1  0
 26 27  2  0
 10  4  1  0
 16 11  1  0
 27 18  1  0
 27 22  1  0
  5 28  1  0
  6 29  1  0
  9 30  1  0
 10 31  1  0
 12 32  1  0
 14 33  1  0
 15 34  1  0
 19 35  1  0
 20 36  1  0
 21 37  1  0
 23 38  1  0
 24 39  1  0
 25 40  1  0
 26 41  1  0
M  CHG  1  26   1
M  END
>  <UniqueID>  (19) 
16

>  <SMILES>  (19) 
O=S(=O)(c1ccc(F)cc1)c1cnccc1Oc1cccc2ccc[nH+]c12

>  <Energy>  (19) 
58.6411882699895

>  <Genealogy>  (19) 
O=S(=O)(c1ccc(F)cc1)c1cnccc1Oc1cccc2ccc[nH+]c12 (protonated)
O=S(=O)(c1ccc(F)cc1)c1cnccc1Oc1cccc2ccc[nH+]c12 (3D coordinates assigned)
O=S(=O)(c1ccc(F)cc1)c1cnccc1Oc1cccc2ccc[nH+]c12 (optimized conformer: 58.6411882699895 kcal/mol)

>  <smiles>  (19) 
O=S(=O)(c1ccc(F)cc1)c1cnccc1Oc1cccc2cccnc12

>  <score_type>  (19) 
oracle

>  <origin>  (19) 
adg

>  <m_score__min__energy>  (19) 
-6.25

>  <m_primary>  (19) 
energy

$$$$
19:0
     RDKit          3D

 41 43  0  0  0  0  0  0  0  0999 V2000
   63.4100   30.4940   51.0040 C   0  0  0  0  0  0  0  0  0  0  0  0
   63.2020   31.2230   49.7470 N   0  0  0  0  0  0  0  0  0  0  0  0
   64.1950   32.2230   49.3350 C   0  0  0  0  0  0  0  0  0  0  0  0
   62.0340   30.9610   48.9260 C   0  0  0  0  0  0  0  0  0  0  0  0
   60.8700   30.3920   49.4840 C   0  0  0  0  0  0  0  0  0  0  0  0
   59.7440   30.1440   48.6940 C   0  0  0  0  0  0  0  0  0  0  0  0
   59.7490   30.4660   47.3290 C   0  0  0  0  0  0  0  0  0  0  0  0
   58.5500   30.2080   46.4970 C   0  0  0  0  0  0  0  0  0  0  0  0
   58.0120   28.9120   46.4650 C   0  0  0  0  0  0  0  0  0  0  0  0
   56.9340   28.6070   45.6270 C   0  0  0  0  0  0  0  0  0  0  0  0
   56.4040   27.2760   45.5970 N   0  0  0  0  0  0  0  0  0  0  0  0
   56.4010   29.6190   44.8170 C   0  0  0  0  0  0  0  0  0  0  0  0
   55.4390   29.3790   44.0400 O   0  0  0  0  0  0  0  0  0  0  0  0
   56.9180   30.8720   44.8690 N   0  0  0  0  0  0  0  0  0  0  0  0
   57.9570   31.2060   45.6830 C   0  0  0  0  0  0  0  0  0  0  0  0
   58.4010   32.6190   45.6990 C   0  0  0  0  0  0  0  0  0  0  0  0
   58.4730   33.3150   46.9160 C   0  0  0  0  0  0  0  0  0  0  0  0
   58.9000   34.6460   46.9440 C   0  0  0  0  0  0  0  0  0  0  0  0
   59.2700   35.2880   45.7600 C   0  0  0  0  0  0  0  0  0  0  0  0
   59.2220   34.5980   44.5460 C   0  0  0  0  0  0  0  0  0  0  0  0
   58.7970   33.2660   44.5140 C   0  0  0  0  0  0  0  0  0  0  0  0
   60.9060   31.0180   46.7620 C   0  0  0  0  0  0  0  0  0  0  0  0
   62.0330   31.2670   47.5490 C   0  0  0  0  0  0  0  0  0  0  0  0
   63.2183   31.1659   51.8536 H   0  0  0  0  0  0  0  0  0  0  0  0
   62.7201   29.6385   51.0502 H   0  0  0  0  0  0  0  0  0  0  0  0
   64.4475   30.1313   51.0502 H   0  0  0  0  0  0  0  0  0  0  0  0
   64.6480   32.6792   50.2275 H   0  0  0  0  0  0  0  0  0  0  0  0
   64.9778   31.7366   48.7344 H   0  0  0  0  0  0  0  0  0  0  0  0
   63.7031   33.0023   48.7344 H   0  0  0  0  0  0  0  0  0  0  0  0
   60.8483   30.1403   50.5546 H   0  0  0  0  0  0  0  0  0  0  0  0
   58.8480   29.6933   49.1458 H   0  0  0  0  0  0  0  0  0  0  0  0
   58.4424   28.1280   47.1054 H   0  0  0  0  0  0  0  0  0  0  0  0
   56.1670   26.7660   46.4760 H   0  0  0  0  0  0  0  0  0  0  0  0
   56.2480   26.7860   44.6870 H   0  0  0  0  0  0  0  0  0  0  0  0
   58.1920   32.8106   47.8523 H   0  0  0  0  0  0  0  0  0  0  0  0
   58.9446   35.1884   47.8999 H   0  0  0  0  0  0  0  0  0  0  0  0
   59.5993   36.3373   45.7833 H   0  0  0  0  0  0  0  0  0  0  0  0
   59.5187   35.1028   43.6148 H   0  0  0  0  0  0  0  0  0  0  0  0
   58.7722   32.7218   43.5583 H   0  0  0  0  0  0  0  0  0  0  0  0
   60.9267   31.2571   45.6885 H   0  0  0  0  0  0  0  0  0  0  0  0
   62.9304   31.7069   47.0894 H   0  0  0  0  0  0  0  0  0  0  0  0
  1  2  1  0
  2  3  1  0
  2  4  1  0
  4  5  2  0
  5  6  1  0
  6  7  2  0
  7  8  1  0
  8  9  1  0
  9 10  2  0
 10 11  1  0
 10 12  1  0
 12 13  2  0
 12 14  1  0
 14 15  1  0
 15 16  1  0
 16 17  2  0
 17 18  1  0
 18 19  2  0
 19 20  1  0
 20 21  2  0
  7 22  1  0
 22 23  2  0
 23  4  1  0
 15  8  2  0
 21 16  1  0
  1 24  1  0
  1 25  1  0
  1 26  1  0
  3 27  1  0
  3 28  1  0
  3 29  1  0
  5 30  1  0
  6 31  1  0
  9 32  1  0
 11 33  1  0
 11 34  1  0
 17 35  1  0
 18 36  1  0
 19 37  1  0
 20 38  1  0
 21 39  1  0
 22 40  1  0
 23 41  1  0
M  CHG  1  14  -1
M  END
>  <UniqueID>  (20) 
17

>  <SMILES>  (20) 
CN(C)c1ccc(-c2cc(N)c(=O)[n-]c2-c2ccccc2)cc1

>  <Energy>  (20) 
57.41126375215026

>  <Genealogy>  (20) 
CN(C)c1ccc(-c2cc(N)c(=O)[n-]c2-c2ccccc2)cc1 (protonated)
CN(C)c1ccc(-c2cc(N)c(=O)[n-]c2-c2ccccc2)cc1 (3D coordinates assigned)
CN(C)c1ccc(-c2cc(N)c(=O)[n-]c2-c2ccccc2)cc1 (optimized conformer: 57.41126375215026 kcal/mol)

>  <smiles>  (20) 
CN(C)c1ccc(-c2cc(N)c(=O)[nH]c2-c2ccccc2)cc1

>  <score_type>  (20) 
oracle

>  <origin>  (20) 
adg

>  <m_score__min__energy>  (20) 
-8.7699999999999996

>  <m_primary>  (20) 
energy

$$$$
20:0
     RDKit          3D

 51 54  0  0  0  0  0  0  0  0999 V2000
   57.3600   31.2540   42.2510 O   0  0  0  0  0  0  0  0  0  0  0  0
   57.7190   31.0830   43.4480 C   0  0  0  0  0  0  0  0  0  0  0  0
   57.9470   29.7110   43.9340 C   0  0  0  0  0  0  0  0  0  0  0  0
   57.3030   28.6330   43.4480 N   0  0  0  0  0  0  0  0  0  0  0  0
   57.7210   27.5810   44.0850 O   0  0  0  0  0  0  0  0  0  0  0  0
   58.6370   27.9070   44.9700 C   0  0  0  0  0  0  0  0  0  0  0  0
   58.8320   29.2810   44.9160 C   0  0  0  0  0  0  0  0  0  0  0  0
   59.8250   30.0790   45.7130 C   0  0  0  0  0  0  0  0  0  0  0  0
   59.7140   29.8300   47.2280 C   0  0  0  0  0  0  0  0  0  0  0  0
   58.7880   28.6690   47.6520 C   0  0  0  0  0  0  0  0  0  0  0  0
   59.3670   27.2730   47.3570 C   0  0  0  0  0  0  0  0  0  0  0  0
   59.3140   26.8990   45.8630 C   0  0  0  0  0  0  0  0  0  0  0  0
   57.8590   32.2200   44.3150 N   0  0  0  0  0  0  0  0  0  0  0  0
   57.2650   32.1870   45.6630 C   0  0  0  0  0  0  0  0  0  0  0  0
   57.5970   33.4600   46.4440 C   0  0  0  0  0  0  0  0  0  0  0  0
   58.9940   33.8340   46.1940 N   0  0  0  0  0  0  0  0  0  0  0  0
   59.9710   33.8040   47.2520 C   0  0  0  0  0  0  0  0  0  0  0  0
   59.6420   34.2760   48.5310 C   0  0  0  0  0  0  0  0  0  0  0  0
   60.6040   34.3040   49.5430 C   0  0  0  0  0  0  0  0  0  0  0  0
   61.9060   33.8670   49.2860 C   0  0  0  0  0  0  0  0  0  0  0  0
   62.2530   33.3770   48.0160 C   0  0  0  0  0  0  0  0  0  0  0  0
   63.6750   32.9760   47.7080 C   0  0  0  0  0  0  0  0  0  0  0  0
   64.0740   33.4740   46.4800 F   0  0  0  0  0  0  0  0  0  0  0  0
   63.7630   31.5970   47.6860 F   0  0  0  0  0  0  0  0  0  0  0  0
   64.5350   33.4670   48.6750 F   0  0  0  0  0  0  0  0  0  0  0  0
   61.2840   33.3650   47.0000 C   0  0  0  0  0  0  0  0  0  0  0  0
   59.4420   34.0400   44.8070 C   0  0  0  0  0  0  0  0  0  0  0  0
   58.4340   33.4700   43.7980 C   0  0  0  0  0  0  0  0  0  0  0  0
   56.5760   28.6240   42.6990 H   0  0  0  0  0  0  0  0  0  0  0  0
   60.8389   29.8057   45.3855 H   0  0  0  0  0  0  0  0  0  0  0  0
   59.6115   31.1435   45.5364 H   0  0  0  0  0  0  0  0  0  0  0  0
   60.7229   29.6136   47.6093 H   0  0  0  0  0  0  0  0  0  0  0  0
   59.2628   30.7409   47.6483 H   0  0  0  0  0  0  0  0  0  0  0  0
   58.6064   28.7476   48.7341 H   0  0  0  0  0  0  0  0  0  0  0  0
   57.8644   28.7640   47.0622 H   0  0  0  0  0  0  0  0  0  0  0  0
   60.4165   27.2529   47.6857 H   0  0  0  0  0  0  0  0  0  0  0  0
   58.7507   26.5413   47.9000 H   0  0  0  0  0  0  0  0  0  0  0  0
   60.3472   26.7704   45.5081 H   0  0  0  0  0  0  0  0  0  0  0  0
   58.7090   25.9825   45.8003 H   0  0  0  0  0  0  0  0  0  0  0  0
   56.1725   32.0964   45.5718 H   0  0  0  0  0  0  0  0  0  0  0  0
   57.6810   31.3259   46.2065 H   0  0  0  0  0  0  0  0  0  0  0  0
   56.9346   34.2749   46.1166 H   0  0  0  0  0  0  0  0  0  0  0  0
   57.4512   33.2802   47.5194 H   0  0  0  0  0  0  0  0  0  0  0  0
   58.6201   34.6263   48.7383 H   0  0  0  0  0  0  0  0  0  0  0  0
   60.3361   34.6710   50.5448 H   0  0  0  0  0  0  0  0  0  0  0  0
   62.6635   33.9069   50.0826 H   0  0  0  0  0  0  0  0  0  0  0  0
   61.5544   33.0082   45.9952 H   0  0  0  0  0  0  0  0  0  0  0  0
   59.5579   35.1187   44.6256 H   0  0  0  0  0  0  0  0  0  0  0  0
   60.3990   33.5146   44.6723 H   0  0  0  0  0  0  0  0  0  0  0  0
   57.6288   34.2013   43.6345 H   0  0  0  0  0  0  0  0  0  0  0  0
   58.9497   33.2651   42.8482 H   0  0  0  0  0  0  0  0  0  0  0  0
  1  2  2  0
  2  3  1  0
  3  4  2  0
  4  5  1  0
  5  6  1  0
  6  7  2  0
  7  8  1  0
  8  9  1  0
  9 10  1  0
 10 11  1  0
 11 12  1  0
  2 13  1  0
 13 14  1  0
 14 15  1  0
 15 16  1  0
 16 17  1  0
 17 18  2  0
 18 19  1  0
 19 20  2  0
 20 21  1  0
 21 22  1  0
 22 23  1  0
 22 24  1  0
 22 25  1  0
 21 26  2  0
 16 27  1  0
 27 28  1  0
  7  3  1  0
 28 13  1  0
 12  6  1  0
 26 17  1  0
  4 29  1  0
  8 30  1  0
  8 31  1  0
  9 32  1  0
  9 33  1  0
 10 34  1  0
 10 35  1  0
 11 36  1  0
 11 37  1  0
 12 38  1  0
 12 39  1  0
 14 40  1  0
 14 41  1  0
 15 42  1  0
 15 43  1  0
 18 44  1  0
 19 45  1  0
 20 46  1  0
 26 47  1  0
 27 48  1  0
 27 49  1  0
 28 50  1  0
 28 51  1  0
M  CHG  1   4   1
M  END
>  <UniqueID>  (21) 
18

>  <SMILES>  (21) 
O=C(c1[nH+]oc2c1CCCCC2)N1CCN(c2cccc(C(F)(F)F)c2)CC1

>  <Energy>  (21) 
96.97928286241371

>  <Genealogy>  (21) 
O=C(c1[nH+]oc2c1CCCCC2)N1CCN(c2cccc(C(F)(F)F)c2)CC1 (protonated)
O=C(c1[nH+]oc2c1CCCCC2)N1CCN(c2cccc(C(F)(F)F)c2)CC1 (3D coordinates assigned)
O=C(c1[nH+]oc2c1CCCCC2)N1CCN(c2cccc(C(F)(F)F)c2)CC1 (nonaromatic ring conformer: 96.97928286241371 kcal/mol)

>  <smiles>  (21) 
O=C(c1noc2c1CCCCC2)N1CCN(c2cccc(C(F)(F)F)c2)CC1

>  <score_type>  (21) 
oracle

>  <origin>  (21) 
adg

>  <m_score__min__energy>  (21) 
-5.3399999999999999

>  <m_primary>  (21) 
energy

$$$$
21:0
     RDKit          3D

 30 32  0  0  0  0  0  0  0  0999 V2000
   59.1570   33.2319   48.5114 H   0  0  0  0  0  0  0  0  0  0  0  0
   59.5640   33.0600   47.5040 C   0  0  0  0  0  0  0  0  0  0  0  0
   58.7050   33.0220   46.4710 C   0  0  0  0  0  0  0  0  0  0  0  0
   58.2900   31.8130   45.7770 C   0  0  0  0  0  0  0  0  0  0  0  0
   58.5470   30.4720   46.0920 C   0  0  0  0  0  0  0  0  0  0  0  0
   59.1405   30.2072   46.9795 H   0  0  0  0  0  0  0  0  0  0  0  0
   58.0310   29.4740   45.2510 C   0  0  0  0  0  0  0  0  0  0  0  0
   58.2200   28.4144   45.4779 H   0  0  0  0  0  0  0  0  0  0  0  0
   57.2730   29.8240   44.1190 C   0  0  0  0  0  0  0  0  0  0  0  0
   56.8725   29.0372   43.4628 H   0  0  0  0  0  0  0  0  0  0  0  0
   57.0260   31.1730   43.8240 C   0  0  0  0  0  0  0  0  0  0  0  0
   56.4339   31.4539   42.9406 H   0  0  0  0  0  0  0  0  0  0  0  0
   57.5460   32.1530   44.6730 C   0  0  0  0  0  0  0  0  0  0  0  0
   57.4000   33.6280   44.5220 C   0  0  0  0  0  0  0  0  0  0  0  0
   56.3385   33.9165   44.5241 H   0  0  0  0  0  0  0  0  0  0  0  0
   57.8173   33.9960   43.5731 H   0  0  0  0  0  0  0  0  0  0  0  0
   58.1280   34.2130   45.7520 C   0  0  0  0  0  0  0  0  0  0  0  0
   57.4199   34.7496   46.4006 H   0  0  0  0  0  0  0  0  0  0  0  0
   58.9050   34.9367   45.4648 H   0  0  0  0  0  0  0  0  0  0  0  0
   61.0230   32.8840   47.3630 C   0  0  0  0  0  0  0  0  0  0  0  0
   61.6350   31.7570   47.9260 C   0  0  0  0  0  0  0  0  0  0  0  0
   61.0297   31.0022   48.4494 H   0  0  0  0  0  0  0  0  0  0  0  0
   63.0190   31.5970   47.8190 C   0  0  0  0  0  0  0  0  0  0  0  0
   63.5029   30.7065   48.2465 H   0  0  0  0  0  0  0  0  0  0  0  0
   63.7690   32.5390   47.1880 N   0  0  0  0  0  0  0  0  0  0  0  0
   64.8030   32.4060   47.1170 H   0  0  0  0  0  0  0  0  0  0  0  0
   63.2040   33.6570   46.6570 C   0  0  0  0  0  0  0  0  0  0  0  0
   63.8360   34.4072   46.1592 H   0  0  0  0  0  0  0  0  0  0  0  0
   61.8240   33.8550   46.7420 C   0  0  0  0  0  0  0  0  0  0  0  0
   61.3682   34.7653   46.3253 H   0  0  0  0  0  0  0  0  0  0  0  0
  1  2  1  0
  2  3  2  0
  3  4  1  0
  4  5  2  0
  5  6  1  0
  5  7  1  0
  7  8  1  0
  7  9  2  0
  9 10  1  0
  9 11  1  0
 11 12  1  0
 11 13  2  0
 13 14  1  0
 14 15  1  0
 14 16  1  0
 14 17  1  0
 17 18  1  0
 17 19  1  0
  2 20  1  0
 20 21  2  0
 21 22  1  0
 21 23  1  0
 23 24  1  0
 23 25  2  0
 25 26  1  0
 25 27  1  0
 27 28  1  0
 27 29  2  0
 29 30  1  0
 17  3  1  0
 29 20  1  0
 13  4  1  0
M  CHG  1  25   1
M  END
>  <UniqueID>  (22) 
19

>  <SMILES>  (22) 
C(=C1\CCc2ccccc21)\c1cc[nH+]cc1

>  <Energy>  (22) 
50.70720545708843

>  <Genealogy>  (22) 
C(=C1CCc2ccccc21)c1cc[nH+]cc1 (protonated)
C(=C1\CCc2ccccc21)\c1cc[nH+]cc1 (cis-trans isomerization)
C(=C1\CCc2ccccc21)\c1cc[nH+]cc1 (3D coordinates assigned)
C(=C1\CCc2ccccc21)\c1cc[nH+]cc1 (nonaromatic ring conformer: 50.70720545708843 kcal/mol)

>  <smiles>  (22) 
C(=C1CCc2ccccc21)c1ccncc1

>  <score_type>  (22) 
oracle

>  <origin>  (22) 
adg

>  <m_score__min__energy>  (22) 
-5.8300000000000001

>  <m_primary>  (22) 
energy

$$$$
22:0
     RDKit          3D

 24 26  0  0  0  0  0  0  0  0999 V2000
   57.2190   24.2960   44.2630 F   0  0  0  0  0  0  0  0  0  0  0  0
   57.3950   25.6190   44.4970 C   0  0  0  0  0  0  0  0  0  0  0  0
   57.0150   26.1680   45.7250 C   0  0  0  0  0  0  0  0  0  0  0  0
   57.1960   27.5340   45.9690 C   0  0  0  0  0  0  0  0  0  0  0  0
   57.7600   28.3630   44.9820 C   0  0  0  0  0  0  0  0  0  0  0  0
   57.9540   29.8050   45.2320 C   0  0  0  0  0  0  0  0  0  0  0  0
   59.0860   30.3270   45.7800 N   0  0  0  0  0  0  0  0  0  0  0  0
   58.8060   31.6390   45.8100 C   0  0  0  0  0  0  0  0  0  0  0  0
   59.6100   32.6780   46.2760 C   0  0  0  0  0  0  0  0  0  0  0  0
   59.0930   33.9860   46.2030 C   0  0  0  0  0  0  0  0  0  0  0  0
   57.8010   34.2180   45.6730 C   0  0  0  0  0  0  0  0  0  0  0  0
   57.0170   33.1430   45.2130 C   0  0  0  0  0  0  0  0  0  0  0  0
   57.5640   31.8650   45.3000 C   0  0  0  0  0  0  0  0  0  0  0  0
   57.0430   30.7230   44.9450 O   0  0  0  0  0  0  0  0  0  0  0  0
   58.1380   27.8010   43.7500 C   0  0  0  0  0  0  0  0  0  0  0  0
   57.9550   26.4350   43.5110 C   0  0  0  0  0  0  0  0  0  0  0  0
   56.5730   25.5254   46.5007 H   0  0  0  0  0  0  0  0  0  0  0  0
   56.8959   27.9616   46.9370 H   0  0  0  0  0  0  0  0  0  0  0  0
   60.6120   32.4833   46.6859 H   0  0  0  0  0  0  0  0  0  0  0  0
   59.6972   34.8330   46.5602 H   0  0  0  0  0  0  0  0  0  0  0  0
   57.4075   35.2439   45.6203 H   0  0  0  0  0  0  0  0  0  0  0  0
   56.0104   33.3062   44.8004 H   0  0  0  0  0  0  0  0  0  0  0  0
   58.5799   28.4387   42.9702 H   0  0  0  0  0  0  0  0  0  0  0  0
   58.2527   26.0023   42.5445 H   0  0  0  0  0  0  0  0  0  0  0  0
  1  2  1  0
  2  3  2  0
  3  4  1  0
  4  5  2  0
  5  6  1  0
  6  7  2  0
  7  8  1  0
  8  9  2  0
  9 10  1  0
 10 11  2  0
 11 12  1  0
 12 13  2  0
 13 14  1  0
  5 15  1  0
 15 16  2  0
 16  2  1  0
 14  6  1  0
 13  8  1  0
  3 17  1  0
  4 18  1  0
  9 19  1  0
 10 20  1  0
 11 21  1  0
 12 22  1  0
 15 23  1  0
 16 24  1  0
M  END
>  <UniqueID>  (23) 
20

>  <SMILES>  (23) 
Fc1ccc(-c2nc3ccccc3o2)cc1

>  <Energy>  (23) 
64.53514099615084

>  <Genealogy>  (23) 
Fc1ccc(-c2nc3ccccc3o2)cc1 (3D coordinates assigned)
Fc1ccc(-c2nc3ccccc3o2)cc1 (optimized conformer: 64.53514099615084 kcal/mol)

>  <smiles>  (23) 
Fc1ccc(-c2nc3ccccc3o2)cc1

>  <score_type>  (23) 
oracle

>  <origin>  (23) 
adg

>  <m_score__min__energy>  (23) 
-5.6100000000000003

>  <m_primary>  (23) 
energy

$$$$
23:0
     RDKit          3D

 35 37  0  0  0  0  0  0  0  0999 V2000
   57.7700   31.8940   42.1950 C   0  0  0  0  0  0  0  0  0  0  0  0
   56.7080   30.9280   42.7050 C   0  0  0  0  0  0  0  0  0  0  0  0
   57.2520   30.0980   43.7820 N   0  0  0  0  0  0  0  0  0  0  0  0
   57.1050   28.7870   43.8400 N   0  0  0  0  0  0  0  0  0  0  0  0
   57.5350   28.3920   45.0570 C   0  0  0  0  0  0  0  0  0  0  0  0
   57.5280   26.9930   45.5510 C   0  0  0  0  0  0  0  0  0  0  0  0
   56.3240   26.4130   45.9950 C   0  0  0  0  0  0  0  0  0  0  0  0
   56.3000   25.0970   46.4650 C   0  0  0  0  0  0  0  0  0  0  0  0
   57.4750   24.3450   46.5000 C   0  0  0  0  0  0  0  0  0  0  0  0
   58.6780   24.9080   46.0670 C   0  0  0  0  0  0  0  0  0  0  0  0
   58.7070   26.2250   45.5970 C   0  0  0  0  0  0  0  0  0  0  0  0
   57.9450   29.4430   45.8030 N   0  0  0  0  0  0  0  0  0  0  0  0
   57.7610   30.4920   44.9720 C   0  0  0  0  0  0  0  0  0  0  0  0
   58.0190   31.8850   45.3770 C   0  0  0  0  0  0  0  0  0  0  0  0
   59.2690   32.2350   45.9110 C   0  0  0  0  0  0  0  0  0  0  0  0
   59.5320   33.5560   46.2840 C   0  0  0  0  0  0  0  0  0  0  0  0
   58.5550   34.5400   46.1100 C   0  0  0  0  0  0  0  0  0  0  0  0
   57.3170   34.2040   45.5540 C   0  0  0  0  0  0  0  0  0  0  0  0
   57.0510   32.8830   45.1820 C   0  0  0  0  0  0  0  0  0  0  0  0
   58.2824   32.3601   43.0495 H   0  0  0  0  0  0  0  0  0  0  0  0
   58.5015   31.3453   41.5836 H   0  0  0  0  0  0  0  0  0  0  0  0
   57.2928   32.6741   41.5836 H   0  0  0  0  0  0  0  0  0  0  0  0
   55.8496   31.5005   43.0862 H   0  0  0  0  0  0  0  0  0  0  0  0
   56.3889   30.2771   41.8776 H   0  0  0  0  0  0  0  0  0  0  0  0
   56.6750   28.2040   43.0880 H   0  0  0  0  0  0  0  0  0  0  0  0
   55.3945   27.0007   45.9717 H   0  0  0  0  0  0  0  0  0  0  0  0
   55.3536   24.6534   46.8078 H   0  0  0  0  0  0  0  0  0  0  0  0
   57.4540   23.3088   46.8686 H   0  0  0  0  0  0  0  0  0  0  0  0
   59.6038   24.3146   46.0957 H   0  0  0  0  0  0  0  0  0  0  0  0
   59.6580   26.6639   45.2608 H   0  0  0  0  0  0  0  0  0  0  0  0
   60.0454   31.4659   46.0365 H   0  0  0  0  0  0  0  0  0  0  0  0
   60.5087   33.8214   46.7148 H   0  0  0  0  0  0  0  0  0  0  0  0
   58.7599   35.5782   46.4103 H   0  0  0  0  0  0  0  0  0  0  0  0
   56.5512   34.9802   45.4091 H   0  0  0  0  0  0  0  0  0  0  0  0
   56.0798   32.6245   44.7349 H   0  0  0  0  0  0  0  0  0  0  0  0
  1  2  1  0
  2  3  1  0
  3  4  1  0
  4  5  2  0
  5  6  1  0
  6  7  2  0
  7  8  1  0
  8  9  2  0
  9 10  1  0
 10 11  2  0
  5 12  1  0
 12 13  2  0
 13 14  1  0
 14 15  2  0
 15 16  1  0
 16 17  2  0
 17 18  1  0
 18 19  2  0
 13  3  1  0
 19 14  1  0
 11  6  1  0
  1 20  1  0
  1 21  1  0
  1 22  1  0
  2 23  1  0
  2 24  1  0
  4 25  1  0
  7 26  1  0
  8 27  1  0
  9 28  1  0
 10 29  1  0
 11 30  1  0
 15 31  1  0
 16 32  1  0
 17 33  1  0
 18 34  1  0
 19 35  1  0
M  CHG  1   4   1
M  END
>  <UniqueID>  (24) 
21

>  <SMILES>  (24) 
CCn1[nH+]c(-c2ccccc2)nc1-c1ccccc1

>  <Energy>  (24) 
75.01395445739607

>  <Genealogy>  (24) 
CCn1[nH+]c(-c2ccccc2)nc1-c1ccccc1 (protonated)
CCn1[nH+]c(-c2ccccc2)nc1-c1ccccc1 (3D coordinates assigned)
CCn1[nH+]c(-c2ccccc2)nc1-c1ccccc1 (optimized conformer: 75.01395445739607 kcal/mol)

>  <smiles>  (24) 
CCn1nc(-c2ccccc2)nc1-c1ccccc1

>  <score_type>  (24) 
oracle

>  <origin>  (24) 
adg

>  <m_score__min__energy>  (24) 
-5.5199999999999996

>  <m_primary>  (24) 
energy

$$$$
24:0
     RDKit          3D

 24 25  0  0  0  0  0  0  0  0999 V2000
   55.1550   29.3590   44.8830 O   0  0  0  0  0  0  0  0  0  0  0  0
   56.3440   29.7390   44.7150 C   0  0  0  0  0  0  0  0  0  0  0  0
   57.4450   28.7280   44.6860 C   0  0  0  0  0  0  0  0  0  0  0  0
   57.8370   28.1560   46.3740 S   0  0  0  0  0  0  0  0  0  0  0  0
   56.8330   26.6750   46.2660 C   0  0  0  0  0  0  0  0  0  0  0  0
   57.3140   25.4340   46.4590 N   0  0  0  0  0  0  0  0  0  0  0  0
   56.2100   24.6820   46.2830 C   0  0  0  0  0  0  0  0  0  0  0  0
   55.1250   25.4260   45.9990 N   0  0  0  0  0  0  0  0  0  0  0  0
   55.5190   26.6880   45.9860 N   0  0  0  0  0  0  0  0  0  0  0  0
   56.6560   31.1250   44.5400 N   0  0  0  0  0  0  0  0  0  0  0  0
   57.6350   31.8760   45.2740 C   0  0  0  0  0  0  0  0  0  0  0  0
   58.1380   31.4310   46.5110 C   0  0  0  0  0  0  0  0  0  0  0  0
   59.1140   32.1730   47.1820 C   0  0  0  0  0  0  0  0  0  0  0  0
   59.6050   33.3550   46.6210 C   0  0  0  0  0  0  0  0  0  0  0  0
   59.1270   33.7900   45.3830 C   0  0  0  0  0  0  0  0  0  0  0  0
   58.1520   33.0500   44.7070 C   0  0  0  0  0  0  0  0  0  0  0  0
   57.7030   33.4810   43.5010 F   0  0  0  0  0  0  0  0  0  0  0  0
   57.1299   27.8679   44.0770 H   0  0  0  0  0  0  0  0  0  0  0  0
   58.3423   29.1934   44.2521 H   0  0  0  0  0  0  0  0  0  0  0  0
   56.1969   23.5849   46.3624 H   0  0  0  0  0  0  0  0  0  0  0  0
   57.7616   30.4958   46.9512 H   0  0  0  0  0  0  0  0  0  0  0  0
   59.4963   31.8260   48.1533 H   0  0  0  0  0  0  0  0  0  0  0  0
   60.3673   33.9422   47.1540 H   0  0  0  0  0  0  0  0  0  0  0  0
   59.5184   34.7170   44.9386 H   0  0  0  0  0  0  0  0  0  0  0  0
  1  2  2  0
  2  3  1  0
  3  4  1  0
  4  5  1  0
  5  6  1  0
  6  7  2  0
  7  8  1  0
  8  9  1  0
  2 10  1  0
 10 11  1  0
 11 12  2  0
 12 13  1  0
 13 14  2  0
 14 15  1  0
 15 16  2  0
 16 17  1  0
  9  5  2  0
 16 11  1  0
  3 18  1  0
  3 19  1  0
  7 20  1  0
 12 21  1  0
 13 22  1  0
 14 23  1  0
 15 24  1  0
M  CHG  2   8  -1  10  -1
M  END
>  <UniqueID>  (25) 
22

>  <SMILES>  (25) 
O=C(CSc1nc[n-]n1)[N-]c1ccccc1F

>  <Energy>  (25) 
54.4461376040109

>  <Genealogy>  (25) 
O=C(CSc1nc[n-]n1)[N-]c1ccccc1F (protonated)
O=C(CSc1nc[n-]n1)[N-]c1ccccc1F (3D coordinates assigned)
O=C(CSc1nc[n-]n1)[N-]c1ccccc1F (optimized conformer: 54.4461376040109 kcal/mol)

>  <smiles>  (25) 
O=C(CSc1nc[nH]n1)Nc1ccccc1F

>  <score_type>  (25) 
oracle

>  <origin>  (25) 
adg

>  <m_score__min__energy>  (25) 
-10.119999999999999

>  <m_primary>  (25) 
energy

$$$$
25:0
     RDKit          3D

 49 52  0  0  0  0  0  0  0  0999 V2000
   60.3380   34.2160   47.1000 C   0  0  0  0  0  0  0  0  0  0  0  0
   59.1860   34.9490   46.4270 C   0  0  0  0  0  0  0  0  0  0  0  0
   57.9980   33.8270   45.7010 S   0  0  0  0  0  0  0  0  0  0  0  0
   57.2520   34.4900   44.5780 O   0  0  0  0  0  0  0  0  0  0  0  0
   57.0030   33.4710   46.7690 O   0  0  0  0  0  0  0  0  0  0  0  0
   58.7530   32.3570   45.1590 N   0  0  0  0  0  0  0  0  0  0  0  0
   58.1100   31.3040   44.4100 C   0  0  0  0  0  0  0  0  0  0  0  0
   57.3180   31.5790   43.2800 C   0  0  0  0  0  0  0  0  0  0  0  0
   56.6430   30.5510   42.6240 C   0  0  0  0  0  0  0  0  0  0  0  0
   56.7430   29.2490   43.1060 C   0  0  0  0  0  0  0  0  0  0  0  0
   57.5080   28.9870   44.1970 N   0  0  0  0  0  0  0  0  0  0  0  0
   58.2000   29.9620   44.8490 C   0  0  0  0  0  0  0  0  0  0  0  0
   58.9950   29.5950   45.9820 N   0  0  0  0  0  0  0  0  0  0  0  0
   59.7770   30.4590   46.6090 N   0  0  0  0  0  0  0  0  0  0  0  0
   60.4200   29.7990   47.5950 C   0  0  0  0  0  0  0  0  0  0  0  0
   61.3860   30.4430   48.5180 C   0  0  0  0  0  0  0  0  0  0  0  0
   62.1940   31.5010   48.0610 C   0  0  0  0  0  0  0  0  0  0  0  0
   63.1100   32.1190   48.9200 C   0  0  0  0  0  0  0  0  0  0  0  0
   64.1080   33.4370   48.3350 Cl  0  0  0  0  0  0  0  0  0  0  0  0
   63.2310   31.6860   50.2430 C   0  0  0  0  0  0  0  0  0  0  0  0
   62.4360   30.6360   50.7100 C   0  0  0  0  0  0  0  0  0  0  0  0
   62.5910   30.0930   52.3710 Cl  0  0  0  0  0  0  0  0  0  0  0  0
   61.5180   30.0160   49.8540 C   0  0  0  0  0  0  0  0  0  0  0  0
   60.0250   28.4690   47.5940 C   0  0  0  0  0  0  0  0  0  0  0  0
   59.1090   28.3780   46.5630 C   0  0  0  0  0  0  0  0  0  0  0  0
   58.3440   27.1590   46.2080 C   0  0  0  0  0  0  0  0  0  0  0  0
   56.9510   27.1250   46.3950 C   0  0  0  0  0  0  0  0  0  0  0  0
   56.2150   25.9940   46.0310 C   0  0  0  0  0  0  0  0  0  0  0  0
   56.8610   24.8880   45.4730 C   0  0  0  0  0  0  0  0  0  0  0  0
   56.1480   23.7890   45.1260 F   0  0  0  0  0  0  0  0  0  0  0  0
   58.2440   24.9150   45.2720 C   0  0  0  0  0  0  0  0  0  0  0  0
   58.9830   26.0460   45.6330 C   0  0  0  0  0  0  0  0  0  0  0  0
   60.2286   34.2856   48.1923 H   0  0  0  0  0  0  0  0  0  0  0  0
   60.3267   33.1586   46.7970 H   0  0  0  0  0  0  0  0  0  0  0  0
   61.2910   34.6741   46.7970 H   0  0  0  0  0  0  0  0  0  0  0  0
   58.6741   35.5684   47.1782 H   0  0  0  0  0  0  0  0  0  0  0  0
   59.6061   35.5638   45.6173 H   0  0  0  0  0  0  0  0  0  0  0  0
   59.7660   32.2640   45.3920 H   0  0  0  0  0  0  0  0  0  0  0  0
   57.2310   32.6119   42.9119 H   0  0  0  0  0  0  0  0  0  0  0  0
   56.0360   30.7669   41.7324 H   0  0  0  0  0  0  0  0  0  0  0  0
   56.2028   28.4330   42.6036 H   0  0  0  0  0  0  0  0  0  0  0  0
   62.1048   31.8450   47.0200 H   0  0  0  0  0  0  0  0  0  0  0  0
   63.9521   32.1717   50.9169 H   0  0  0  0  0  0  0  0  0  0  0  0
   60.8953   29.1896   50.2272 H   0  0  0  0  0  0  0  0  0  0  0  0
   60.3651   27.6659   48.2644 H   0  0  0  0  0  0  0  0  0  0  0  0
   56.4369   27.9944   46.8307 H   0  0  0  0  0  0  0  0  0  0  0  0
   55.1259   25.9746   46.1840 H   0  0  0  0  0  0  0  0  0  0  0  0
   58.7518   24.0454   44.8293 H   0  0  0  0  0  0  0  0  0  0  0  0
   60.0701   26.0652   45.4663 H   0  0  0  0  0  0  0  0  0  0  0  0
  1  2  1  0
  2  3  1  0
  3  4  2  0
  3  5  2  0
  3  6  1  0
  6  7  1  0
  7  8  2  0
  8  9  1  0
  9 10  2  0
 10 11  1  0
 11 12  2  0
 12 13  1  0
 13 14  1  0
 14 15  2  0
 15 16  1  0
 16 17  2  0
 17 18  1  0
 18 19  1  0
 18 20  2  0
 20 21  1  0
 21 22  1  0
 21 23  2  0
 15 24  1  0
 24 25  2  0
 25 26  1  0
 26 27  2  0
 27 28  1  0
 28 29  2  0
 29 30  1  0
 29 31  1  0
 31 32  2  0
 12  7  1  0
 25 13  1  0
 32 26  1  0
 23 16  1  0
  1 33  1  0
  1 34  1  0
  1 35  1  0
  2 36  1  0
  2 37  1  0
  6 38  1  0
  8 39  1  0
  9 40  1  0
 10 41  1  0
 17 42  1  0
 20 43  1  0
 23 44  1  0
 24 45  1  0
 27 46  1  0
 28 47  1  0
 31 48  1  0
 32 49  1  0
M  END
>  <UniqueID>  (26) 
23

>  <SMILES>  (26) 
CCS(=O)(=O)Nc1cccnc1-n1nc(-c2cc(Cl)cc(Cl)c2)cc1-c1ccc(F)cc1

>  <Energy>  (26) 
90.95409828708569

>  <Genealogy>  (26) 
CCS(=O)(=O)Nc1cccnc1-n1nc(-c2cc(Cl)cc(Cl)c2)cc1-c1ccc(F)cc1 (3D coordinates assigned)
CCS(=O)(=O)Nc1cccnc1-n1nc(-c2cc(Cl)cc(Cl)c2)cc1-c1ccc(F)cc1 (optimized conformer: 90.95409828708569 kcal/mol)

>  <smiles>  (26) 
CCS(=O)(=O)Nc1cccnc1-n1nc(-c2cc(Cl)cc(Cl)c2)cc1-c1ccc(F)cc1

>  <score_type>  (26) 
oracle

>  <origin>  (26) 
adg

>  <m_score__min__energy>  (26) 
-9.1199999999999992

>  <m_primary>  (26) 
energy

$$$$
26:0
     RDKit          3D

 42 44  0  0  0  0  0  0  0  0999 V2000
   58.1380   31.9900   42.7250 S   0  0  0  0  0  0  0  0  0  0  0  0
   57.3950   30.8670   43.6670 C   0  0  0  0  0  0  0  0  0  0  0  0
   56.1100   30.4450   43.3120 C   0  0  0  0  0  0  0  0  0  0  0  0
   55.4620   29.4920   44.0950 C   0  0  0  0  0  0  0  0  0  0  0  0
   56.0540   28.9840   45.1690 O   0  0  0  0  0  0  0  0  0  0  0  0
   57.2740   29.3480   45.5550 C   0  0  0  0  0  0  0  0  0  0  0  0
   57.8320   28.7690   46.6960 C   0  0  0  0  0  0  0  0  0  0  0  0
   59.1100   29.1330   47.1180 C   0  0  0  0  0  0  0  0  0  0  0  0
   59.8550   30.0800   46.4070 C   0  0  0  0  0  0  0  0  0  0  0  0
   61.1380   30.4010   46.8830 O   0  0  0  0  0  0  0  0  0  0  0  0
   61.4210   31.1850   48.0420 C   0  0  0  0  0  0  0  0  0  0  0  0
   61.9690   32.5610   47.6410 C   0  0  0  0  0  0  0  0  0  0  0  0
   61.0600   33.2610   46.6230 C   0  0  0  0  0  0  0  0  0  0  0  0
   60.0150   34.0540   47.3090 N   0  0  0  0  0  0  0  0  0  0  0  0
   59.6510   35.2730   46.5560 C   0  0  0  0  0  0  0  0  0  0  0  0
   58.8960   34.9480   45.2520 C   0  0  0  0  0  0  0  0  0  0  0  0
   57.9420   33.7500   45.3970 C   0  0  0  0  0  0  0  0  0  0  0  0
   57.5740   33.4940   46.8580 C   0  0  0  0  0  0  0  0  0  0  0  0
   58.8340   33.2430   47.7130 C   0  0  0  0  0  0  0  0  0  0  0  0
   59.2960   30.6740   45.2570 C   0  0  0  0  0  0  0  0  0  0  0  0
   58.0050   30.3130   44.8180 C   0  0  0  0  0  0  0  0  0  0  0  0
   55.6151   30.8618   42.4224 H   0  0  0  0  0  0  0  0  0  0  0  0
   54.4506   29.1575   43.8207 H   0  0  0  0  0  0  0  0  0  0  0  0
   57.2602   28.0214   47.2654 H   0  0  0  0  0  0  0  0  0  0  0  0
   59.5373   28.6705   48.0200 H   0  0  0  0  0  0  0  0  0  0  0  0
   60.4964   31.3190   48.6227 H   0  0  0  0  0  0  0  0  0  0  0  0
   62.1775   30.6640   48.6472 H   0  0  0  0  0  0  0  0  0  0  0  0
   62.0465   33.1894   48.5405 H   0  0  0  0  0  0  0  0  0  0  0  0
   62.9547   32.4142   47.1754 H   0  0  0  0  0  0  0  0  0  0  0  0
   61.6682   33.9307   45.9972 H   0  0  0  0  0  0  0  0  0  0  0  0
   60.5711   32.4957   46.0023 H   0  0  0  0  0  0  0  0  0  0  0  0
   59.0089   35.9024   47.1897 H   0  0  0  0  0  0  0  0  0  0  0  0
   60.5815   35.7941   46.2866 H   0  0  0  0  0  0  0  0  0  0  0  0
   58.3094   35.8304   44.9565 H   0  0  0  0  0  0  0  0  0  0  0  0
   59.6464   34.6832   44.4926 H   0  0  0  0  0  0  0  0  0  0  0  0
   57.0229   33.9554   44.8286 H   0  0  0  0  0  0  0  0  0  0  0  0
   58.4531   32.8559   45.0104 H   0  0  0  0  0  0  0  0  0  0  0  0
   57.0407   34.3712   47.2531 H   0  0  0  0  0  0  0  0  0  0  0  0
   56.9357   32.5994   46.9057 H   0  0  0  0  0  0  0  0  0  0  0  0
   58.5938   33.4805   48.7599 H   0  0  0  0  0  0  0  0  0  0  0  0
   59.1098   32.1880   47.5687 H   0  0  0  0  0  0  0  0  0  0  0  0
   59.8718   31.4257   44.6971 H   0  0  0  0  0  0  0  0  0  0  0  0
  1  2  2  0
  2  3  1  0
  3  4  2  0
  4  5  1  0
  5  6  1  0
  6  7  2  0
  7  8  1  0
  8  9  2  0
  9 10  1  0
 10 11  1  0
 11 12  1  0
 12 13  1  0
 13 14  1  0
 14 15  1  0
 15 16  1  0
 16 17  1  0
 17 18  1  0
 18 19  1  0
  9 20  1  0
 20 21  2  0
 21  2  1  0
 21  6  1  0
 19 14  1  0
  3 22  1  0
  4 23  1  0
  7 24  1  0
  8 25  1  0
 11 26  1  0
 11 27  1  0
 12 28  1  0
 12 29  1  0
 13 30  1  0
 13 31  1  0
 15 32  1  0
 15 33  1  0
 16 34  1  0
 16 35  1  0
 17 36  1  0
 17 37  1  0
 18 38  1  0
 18 39  1  0
 19 40  1  0
 19 41  1  0
 20 42  1  0
M  END
>  <UniqueID>  (27) 
24

>  <SMILES>  (27) 
S=c1ccoc2ccc(OCCCN3CCCCC3)cc12

>  <Energy>  (27) 
54.26498974736771

>  <Genealogy>  (27) 
S=c1ccoc2ccc(OCCCN3CCCCC3)cc12 (3D coordinates assigned)
S=c1ccoc2ccc(OCCCN3CCCCC3)cc12 (nonaromatic ring conformer: 54.26498974736771 kcal/mol)

>  <smiles>  (27) 
S=c1ccoc2ccc(OCCCN3CCCCC3)cc12

>  <score_type>  (27) 
oracle

>  <origin>  (27) 
adg

>  <m_score__min__energy>  (27) 
-7.3099999999999996

>  <m_primary>  (27) 
energy

$$$$
27:0
     RDKit          3D

 42 43  0  0  0  0  0  0  0  0999 V2000
   57.0930   27.8960   45.3210 H   0  0  0  0  0  0  0  0  0  0  0  0
   56.7660   28.7890   44.9740 O   0  0  0  0  0  0  0  0  0  0  0  0
   57.3290   29.9830   45.4220 C   0  0  0  0  0  0  0  0  0  0  0  0
   56.8580   31.1580   44.9390 N   0  0  0  0  0  0  0  0  0  0  0  0
   57.3690   32.3480   45.3350 C   0  0  0  0  0  0  0  0  0  0  0  0
   56.8780   33.4080   44.8590 O   0  0  0  0  0  0  0  0  0  0  0  0
   58.3990   32.3940   46.2380 N   0  0  0  0  0  0  0  0  0  0  0  0
   58.9370   33.6960   46.6800 C   0  0  0  0  0  0  0  0  0  0  0  0
   58.2267   34.4920   46.4118 H   0  0  0  0  0  0  0  0  0  0  0  0
   59.0820   33.6716   47.7701 H   0  0  0  0  0  0  0  0  0  0  0  0
   60.2830   33.9720   46.0050 C   0  0  0  0  0  0  0  0  0  0  0  0
   60.3905   33.3132   45.1307 H   0  0  0  0  0  0  0  0  0  0  0  0
   60.3132   35.0266   45.6938 H   0  0  0  0  0  0  0  0  0  0  0  0
   61.4180   33.7160   46.9590 C   0  0  0  0  0  0  0  0  0  0  0  0
   61.2080   33.7850   48.3460 C   0  0  0  0  0  0  0  0  0  0  0  0
   60.2033   34.0010   48.7382 H   0  0  0  0  0  0  0  0  0  0  0  0
   62.2720   33.5800   49.2300 C   0  0  0  0  0  0  0  0  0  0  0  0
   62.1000   33.6266   50.3155 H   0  0  0  0  0  0  0  0  0  0  0  0
   63.5540   33.3160   48.7380 C   0  0  0  0  0  0  0  0  0  0  0  0
   65.0050   33.0380   49.9470 Br  0  0  0  0  0  0  0  0  0  0  0  0
   63.7730   33.2600   47.3570 C   0  0  0  0  0  0  0  0  0  0  0  0
   64.7817   33.0560   46.9686 H   0  0  0  0  0  0  0  0  0  0  0  0
   62.7110   33.4630   46.4700 C   0  0  0  0  0  0  0  0  0  0  0  0
   62.8885   33.4245   45.3851 H   0  0  0  0  0  0  0  0  0  0  0  0
   58.8900   31.2270   46.7710 C   0  0  0  0  0  0  0  0  0  0  0  0
   59.8160   31.2700   47.6290 O   0  0  0  0  0  0  0  0  0  0  0  0
   58.3650   29.9790   46.3660 C   0  0  0  0  0  0  0  0  0  0  0  0
   58.8650   28.6800   46.8950 C   0  0  0  0  0  0  0  0  0  0  0  0
   59.9496   28.5115   46.9671 H   0  0  0  0  0  0  0  0  0  0  0  0
   58.0520   27.7420   47.2730 N   0  0  0  0  0  0  0  0  0  0  0  0
   58.3900   26.3210   47.2070 C   0  0  0  0  0  0  0  0  0  0  0  0
   58.0037   25.8191   48.1064 H   0  0  0  0  0  0  0  0  0  0  0  0
   59.4844   26.2278   47.1477 H   0  0  0  0  0  0  0  0  0  0  0  0
   57.7800   25.6570   45.9630 C   0  0  0  0  0  0  0  0  0  0  0  0
   58.2728   24.6862   45.8061 H   0  0  0  0  0  0  0  0  0  0  0  0
   57.9382   26.3383   45.1140 H   0  0  0  0  0  0  0  0  0  0  0  0
   56.2690   25.4240   46.0910 C   0  0  0  0  0  0  0  0  0  0  0  0
   56.0569   24.9658   47.0683 H   0  0  0  0  0  0  0  0  0  0  0  0
   55.9459   24.7592   45.2764 H   0  0  0  0  0  0  0  0  0  0  0  0
   55.5360   26.6830   45.9840 N   0  0  0  0  0  0  0  0  0  0  0  0
   55.5680   26.9850   44.9840 H   0  0  0  0  0  0  0  0  0  0  0  0
   56.0520   27.4100   46.5320 H   0  0  0  0  0  0  0  0  0  0  0  0
  1  2  1  0
  2  3  1  0
  3  4  1  0
  4  5  1  0
  5  6  2  0
  5  7  1  0
  7  8  1  0
  8  9  1  0
  8 10  1  0
  8 11  1  0
 11 12  1  0
 11 13  1  0
 11 14  1  0
 14 15  2  0
 15 16  1  0
 15 17  1  0
 17 18  1  0
 17 19  2  0
 19 20  1  0
 19 21  1  0
 21 22  1  0
 21 23  2  0
 23 24  1  0
  7 25  1  0
 25 26  2  0
 25 27  1  0
 27 28  1  0
 28 29  1  0
 28 30  2  0
 30 31  1  0
 31 32  1  0
 31 33  1  0
 31 34  1  0
 34 35  1  0
 34 36  1  0
 34 37  1  0
 37 38  1  0
 37 39  1  0
 37 40  1  0
 40 41  1  0
 40 42  1  0
 27  3  2  0
 23 14  1  0
M  CHG  1   4  -1
M  END
>  <UniqueID>  (28) 
25

>  <SMILES>  (28) 
NCCC/N=C/c1c(O)[n-]c(=O)n(CCc2ccc(Br)cc2)c1=O

>  <Energy>  (28) 
38.815233716245444

>  <Genealogy>  (28) 
NCCCN=Cc1c(O)[n-]c(=O)n(CCc2ccc(Br)cc2)c1=O (protonated)
NCCC/N=C/c1c(O)[n-]c(=O)n(CCc2ccc(Br)cc2)c1=O (cis-trans isomerization)
NCCC/N=C/c1c(O)[n-]c(=O)n(CCc2ccc(Br)cc2)c1=O (3D coordinates assigned)
NCCC/N=C/c1c(O)[n-]c(=O)n(CCc2ccc(Br)cc2)c1=O (optimized conformer: 38.815233716245444 kcal/mol)

>  <smiles>  (28) 
NCCCN=Cc1c(O)[nH]c(=O)n(CCc2ccc(Br)cc2)c1=O

>  <score_type>  (28) 
oracle

>  <origin>  (28) 
adg

>  <m_score__min__energy>  (28) 
-9.2300000000000004

>  <m_primary>  (28) 
energy

$$$$
28:0
     RDKit          3D

 35 37  0  0  0  0  0  0  0  0999 V2000
   56.0900   29.7320   43.0620 C   0  0  0  0  0  0  0  0  0  0  0  0
   56.0190   30.4550   44.2870 O   0  0  0  0  0  0  0  0  0  0  0  0
   57.0950   31.1460   44.8640 C   0  0  0  0  0  0  0  0  0  0  0  0
   57.5090   32.4080   44.4100 C   0  0  0  0  0  0  0  0  0  0  0  0
   58.5820   33.0670   45.0160 C   0  0  0  0  0  0  0  0  0  0  0  0
   59.2690   32.4860   46.1060 C   0  0  0  0  0  0  0  0  0  0  0  0
   60.3570   33.1520   46.7590 C   0  0  0  0  0  0  0  0  0  0  0  0
   60.7150   34.5780   46.4200 C   0  0  0  0  0  0  0  0  0  0  0  0
   61.0640   32.4210   47.7440 C   0  0  0  0  0  0  0  0  0  0  0  0
   62.2290   32.6470   48.5000 C   0  0  0  0  0  0  0  0  0  0  0  0
   63.1930   33.8020   48.4500 C   0  0  0  0  0  0  0  0  0  0  0  0
   64.3830   33.4520   49.0620 F   0  0  0  0  0  0  0  0  0  0  0  0
   62.6640   34.8870   49.1210 F   0  0  0  0  0  0  0  0  0  0  0  0
   63.4730   34.1410   47.1400 F   0  0  0  0  0  0  0  0  0  0  0  0
   62.4170   31.5800   49.3130 N   0  0  0  0  0  0  0  0  0  0  0  0
   61.4590   30.6920   49.1010 N   0  0  0  0  0  0  0  0  0  0  0  0
   61.3760   29.3930   49.7630 C   0  0  0  0  0  0  0  0  0  0  0  0
   60.6420   31.1720   48.1470 C   0  0  0  0  0  0  0  0  0  0  0  0
   59.5430   30.5370   47.5820 C   0  0  0  0  0  0  0  0  0  0  0  0
   58.8590   31.1860   46.5420 C   0  0  0  0  0  0  0  0  0  0  0  0
   57.7760   30.5450   45.9240 C   0  0  0  0  0  0  0  0  0  0  0  0
   56.1955   28.6581   43.2756 H   0  0  0  0  0  0  0  0  0  0  0  0
   55.1708   29.9020   42.4821 H   0  0  0  0  0  0  0  0  0  0  0  0
   56.9585   30.0775   42.4821 H   0  0  0  0  0  0  0  0  0  0  0  0
   56.9834   32.8832   43.5686 H   0  0  0  0  0  0  0  0  0  0  0  0
   58.8963   34.0516   44.6395 H   0  0  0  0  0  0  0  0  0  0  0  0
   60.8587   35.1505   47.3482 H   0  0  0  0  0  0  0  0  0  0  0  0
   61.6447   34.5928   45.8323 H   0  0  0  0  0  0  0  0  0  0  0  0
   59.9025   35.0302   45.8323 H   0  0  0  0  0  0  0  0  0  0  0  0
   63.2020   31.4490   49.9900 H   0  0  0  0  0  0  0  0  0  0  0  0
   61.3851   29.5360   50.8536 H   0  0  0  0  0  0  0  0  0  0  0  0
   60.4439   28.8895   49.4670 H   0  0  0  0  0  0  0  0  0  0  0  0
   62.2365   28.7750   49.4670 H   0  0  0  0  0  0  0  0  0  0  0  0
   59.2168   29.5497   47.9409 H   0  0  0  0  0  0  0  0  0  0  0  0
   57.4582   29.5538   46.2797 H   0  0  0  0  0  0  0  0  0  0  0  0
  1  2  1  0
  2  3  1  0
  3  4  2  0
  4  5  1  0
  5  6  2  0
  6  7  1  0
  7  8  1  0
  7  9  2  0
  9 10  1  0
 10 11  1  0
 11 12  1  0
 11 13  1  0
 11 14  1  0
 10 15  2  0
 15 16  1  0
 16 17  1  0
 16 18  1  0
 18 19  2  0
 19 20  1  0
 20 21  2  0
 21  3  1  0
 20  6  1  0
 18  9  1  0
  1 22  1  0
  1 23  1  0
  1 24  1  0
  4 25  1  0
  5 26  1  0
  8 27  1  0
  8 28  1  0
  8 29  1  0
 15 30  1  0
 17 31  1  0
 17 32  1  0
 17 33  1  0
 19 34  1  0
 21 35  1  0
M  CHG  1  15   1
M  END
>  <UniqueID>  (29) 
26

>  <SMILES>  (29) 
COc1ccc2c(C)c3c(C(F)(F)F)[nH+]n(C)c3cc2c1

>  <Energy>  (29) 
84.93018721992668

>  <Genealogy>  (29) 
COc1ccc2c(C)c3c(C(F)(F)F)[nH+]n(C)c3cc2c1 (protonated)
COc1ccc2c(C)c3c(C(F)(F)F)[nH+]n(C)c3cc2c1 (3D coordinates assigned)
COc1ccc2c(C)c3c(C(F)(F)F)[nH+]n(C)c3cc2c1 (optimized conformer: 84.93018721992668 kcal/mol)

>  <smiles>  (29) 
COc1ccc2c(C)c3c(C(F)(F)F)nn(C)c3cc2c1

>  <score_type>  (29) 
oracle

>  <origin>  (29) 
adg

>  <m_score__min__energy>  (29) 
-4.7199999999999998

>  <m_primary>  (29) 
energy

$$$$
29:0
     RDKit          3D

 55 57  0  0  0  0  0  0  0  0999 V2000
   56.8960   30.6760   43.2030 C   0  0  0  0  0  0  0  0  0  0  0  0
   56.6070   31.2080   44.4910 O   0  0  0  0  0  0  0  0  0  0  0  0
   57.3880   32.1720   45.1450 C   0  0  0  0  0  0  0  0  0  0  0  0
   57.6220   33.3890   44.4960 C   0  0  0  0  0  0  0  0  0  0  0  0
   58.4080   34.3740   45.0990 C   0  0  0  0  0  0  0  0  0  0  0  0
   58.9580   34.1540   46.3630 C   0  0  0  0  0  0  0  0  0  0  0  0
   58.7150   32.9560   47.0420 C   0  0  0  0  0  0  0  0  0  0  0  0
   59.3210   32.7590   48.3260 N   0  0  0  0  0  0  0  0  0  0  0  0
   59.4690   31.5110   49.0160 C   0  0  0  0  0  0  0  0  0  0  0  0
   58.8410   31.3080   50.0910 O   0  0  0  0  0  0  0  0  0  0  0  0
   60.3720   30.5070   48.5040 N   0  0  0  0  0  0  0  0  0  0  0  0
   61.6950   30.8870   47.9880 C   0  0  0  0  0  0  0  0  0  0  0  0
   62.6520   31.2150   49.1400 C   0  0  0  0  0  0  0  0  0  0  0  0
   63.6920   32.1700   48.6960 N   0  0  0  0  0  0  0  0  0  0  0  0
   63.6470   33.4430   49.4450 C   0  0  0  0  0  0  0  0  0  0  0  0
   62.3850   34.2660   49.1190 C   0  0  0  0  0  0  0  0  0  0  0  0
   61.9570   34.1440   47.6470 C   0  0  0  0  0  0  0  0  0  0  0  0
   63.1190   33.7110   46.7540 C   0  0  0  0  0  0  0  0  0  0  0  0
   63.7150   32.3640   47.2210 C   0  0  0  0  0  0  0  0  0  0  0  0
   59.9470   29.1020   48.4370 C   0  0  0  0  0  0  0  0  0  0  0  0
   59.4660   28.7650   47.0500 C   0  0  0  0  0  0  0  0  0  0  0  0
   60.3050   28.9770   45.9440 C   0  0  0  0  0  0  0  0  0  0  0  0
   59.8740   28.6370   44.6580 C   0  0  0  0  0  0  0  0  0  0  0  0
   58.6060   28.0810   44.4670 C   0  0  0  0  0  0  0  0  0  0  0  0
   58.1920   27.7490   43.2200 F   0  0  0  0  0  0  0  0  0  0  0  0
   57.7650   27.8670   45.5640 C   0  0  0  0  0  0  0  0  0  0  0  0
   58.1920   28.2070   46.8510 C   0  0  0  0  0  0  0  0  0  0  0  0
   57.9450   31.9540   46.4220 C   0  0  0  0  0  0  0  0  0  0  0  0
   57.4185   29.7142   43.3123 H   0  0  0  0  0  0  0  0  0  0  0  0
   55.9572   30.5226   42.6506 H   0  0  0  0  0  0  0  0  0  0  0  0
   57.5357   31.3800   42.6506 H   0  0  0  0  0  0  0  0  0  0  0  0
   57.1839   33.5717   43.5037 H   0  0  0  0  0  0  0  0  0  0  0  0
   58.5938   35.3243   44.5770 H   0  0  0  0  0  0  0  0  0  0  0  0
   59.5865   34.9279   46.8278 H   0  0  0  0  0  0  0  0  0  0  0  0
   62.1076   30.0523   47.4023 H   0  0  0  0  0  0  0  0  0  0  0  0
   61.5847   31.7796   47.3547 H   0  0  0  0  0  0  0  0  0  0  0  0
   62.0816   31.6606   49.9683 H   0  0  0  0  0  0  0  0  0  0  0  0
   63.1404   30.2867   49.4711 H   0  0  0  0  0  0  0  0  0  0  0  0
   63.6565   33.2207   50.5223 H   0  0  0  0  0  0  0  0  0  0  0  0
   64.5239   34.0388   49.1515 H   0  0  0  0  0  0  0  0  0  0  0  0
   61.5605   33.9117   49.7551 H   0  0  0  0  0  0  0  0  0  0  0  0
   62.6215   35.3235   49.3083 H   0  0  0  0  0  0  0  0  0  0  0  0
   61.1518   33.3985   47.5706 H   0  0  0  0  0  0  0  0  0  0  0  0
   61.6133   35.1321   47.3071 H   0  0  0  0  0  0  0  0  0  0  0  0
   62.7562   33.6033   45.7211 H   0  0  0  0  0  0  0  0  0  0  0  0
   63.9058   34.4775   46.8125 H   0  0  0  0  0  0  0  0  0  0  0  0
   63.1379   31.5510   46.7563 H   0  0  0  0  0  0  0  0  0  0  0  0
   64.7720   32.3615   46.9165 H   0  0  0  0  0  0  0  0  0  0  0  0
   60.7976   28.4533   48.6933 H   0  0  0  0  0  0  0  0  0  0  0  0
   59.1234   28.9438   49.1488 H   0  0  0  0  0  0  0  0  0  0  0  0
   61.3047   29.4120   46.0899 H   0  0  0  0  0  0  0  0  0  0  0  0
   60.5343   28.8075   43.7949 H   0  0  0  0  0  0  0  0  0  0  0  0
   56.7665   27.4307   45.4138 H   0  0  0  0  0  0  0  0  0  0  0  0
   57.5279   28.0370   47.7113 H   0  0  0  0  0  0  0  0  0  0  0  0
   57.7769   30.9962   46.9362 H   0  0  0  0  0  0  0  0  0  0  0  0
  1  2  1  0
  2  3  1  0
  3  4  2  0
  4  5  1  0
  5  6  2  0
  6  7  1  0
  7  8  1  0
  8  9  1  0
  9 10  2  0
  9 11  1  0
 11 12  1  0
 12 13  1  0
 13 14  1  0
 14 15  1  0
 15 16  1  0
 16 17  1  0
 17 18  1  0
 18 19  1  0
 11 20  1  0
 20 21  1  0
 21 22  2  0
 22 23  1  0
 23 24  2  0
 24 25  1  0
 24 26  1  0
 26 27  2  0
  7 28  2  0
 28  3  1  0
 19 14  1  0
 27 21  1  0
  1 29  1  0
  1 30  1  0
  1 31  1  0
  4 32  1  0
  5 33  1  0
  6 34  1  0
 12 35  1  0
 12 36  1  0
 13 37  1  0
 13 38  1  0
 15 39  1  0
 15 40  1  0
 16 41  1  0
 16 42  1  0
 17 43  1  0
 17 44  1  0
 18 45  1  0
 18 46  1  0
 19 47  1  0
 19 48  1  0
 20 49  1  0
 20 50  1  0
 22 51  1  0
 23 52  1  0
 26 53  1  0
 27 54  1  0
 28 55  1  0
M  CHG  1   8  -1
M  END
>  <UniqueID>  (30) 
27

>  <SMILES>  (30) 
COc1cccc([N-]C(=O)N(CCN2CCCCC2)Cc2ccc(F)cc2)c1

>  <Energy>  (30) 
61.7029371322015

>  <Genealogy>  (30) 
COc1cccc([N-]C(=O)N(CCN2CCCCC2)Cc2ccc(F)cc2)c1 (protonated)
COc1cccc([N-]C(=O)N(CCN2CCCCC2)Cc2ccc(F)cc2)c1 (3D coordinates assigned)
COc1cccc([N-]C(=O)N(CCN2CCCCC2)Cc2ccc(F)cc2)c1 (nonaromatic ring conformer: 61.7029371322015 kcal/mol)

>  <smiles>  (30) 
COc1cccc(NC(=O)N(CCN2CCCCC2)Cc2ccc(F)cc2)c1

>  <score_type>  (30) 
oracle

>  <origin>  (30) 
adg

>  <m_score__min__energy>  (30) 
-9.0099999999999998

>  <m_primary>  (30) 
energy

$$$$
30:0
     RDKit          3D

 39 41  0  0  0  0  0  0  0  0999 V2000
   56.2900   29.9740   42.6440 C   0  0  0  0  0  0  0  0  0  0  0  0
   55.5350   29.7130   43.7690 C   0  0  0  0  0  0  0  0  0  0  0  0
   56.0360   30.3610   44.7950 O   0  0  0  0  0  0  0  0  0  0  0  0
   57.0880   31.0410   44.4000 C   0  0  0  0  0  0  0  0  0  0  0  0
   57.9000   31.8890   45.3030 C   0  0  0  0  0  0  0  0  0  0  0  0
   57.7020   33.2780   45.3210 C   0  0  0  0  0  0  0  0  0  0  0  0
   58.4650   34.0870   46.1640 C   0  0  0  0  0  0  0  0  0  0  0  0
   59.4360   33.5030   46.9800 C   0  0  0  0  0  0  0  0  0  0  0  0
   60.4250   34.5260   48.0710 S   0  0  0  0  0  0  0  0  0  0  0  0
   62.0620   33.8440   47.5800 C   0  0  0  0  0  0  0  0  0  0  0  0
   63.1570   33.8790   48.6770 C   0  0  0  0  0  0  0  0  0  0  0  0
   64.1460   32.6860   48.5740 C   0  0  0  0  0  0  0  0  0  0  0  0
   64.7340   32.2600   49.9310 C   0  0  0  0  0  0  0  0  0  0  0  0
   65.0000   33.4750   50.8250 C   0  0  0  0  0  0  0  0  0  0  0  0
   63.7100   34.2630   51.1370 C   0  0  0  0  0  0  0  0  0  0  0  0
   62.5890   34.0460   50.1030 C   0  0  0  0  0  0  0  0  0  0  0  0
   59.6080   32.1510   46.9710 N   0  0  0  0  0  0  0  0  0  0  0  0
   58.8760   31.3430   46.1560 C   0  0  0  0  0  0  0  0  0  0  0  0
   57.2920   30.8290   43.0450 C   0  0  0  0  0  0  0  0  0  0  0  0
   56.1247   29.5787   41.6309 H   0  0  0  0  0  0  0  0  0  0  0  0
   54.6491   29.0618   43.8013 H   0  0  0  0  0  0  0  0  0  0  0  0
   56.9419   33.7312   44.6677 H   0  0  0  0  0  0  0  0  0  0  0  0
   58.3030   35.1748   46.1855 H   0  0  0  0  0  0  0  0  0  0  0  0
   61.9161   32.7957   47.2804 H   0  0  0  0  0  0  0  0  0  0  0  0
   62.4271   34.4909   46.7687 H   0  0  0  0  0  0  0  0  0  0  0  0
   63.7406   34.7898   48.4773 H   0  0  0  0  0  0  0  0  0  0  0  0
   63.6125   31.8274   48.1403 H   0  0  0  0  0  0  0  0  0  0  0  0
   64.9864   33.0146   47.9449 H   0  0  0  0  0  0  0  0  0  0  0  0
   64.0218   31.5914   50.4367 H   0  0  0  0  0  0  0  0  0  0  0  0
   65.6888   31.7444   49.7506 H   0  0  0  0  0  0  0  0  0  0  0  0
   65.4412   33.1287   51.7713 H   0  0  0  0  0  0  0  0  0  0  0  0
   65.6843   34.1471   50.2865 H   0  0  0  0  0  0  0  0  0  0  0  0
   63.3393   33.9467   52.1232 H   0  0  0  0  0  0  0  0  0  0  0  0
   63.9705   35.3314   51.1107 H   0  0  0  0  0  0  0  0  0  0  0  0
   62.0259   33.1400   50.3715 H   0  0  0  0  0  0  0  0  0  0  0  0
   61.9358   34.9310   50.1122 H   0  0  0  0  0  0  0  0  0  0  0  0
   60.3230   31.7190   47.5970 H   0  0  0  0  0  0  0  0  0  0  0  0
   59.0488   30.2567   46.1646 H   0  0  0  0  0  0  0  0  0  0  0  0
   58.0898   31.2558   42.4194 H   0  0  0  0  0  0  0  0  0  0  0  0
  1  2  2  0
  2  3  1  0
  3  4  1  0
  4  5  1  0
  5  6  2  0
  6  7  1  0
  7  8  2  0
  8  9  1  0
  9 10  1  0
 10 11  1  0
 11 12  1  0
 12 13  1  0
 13 14  1  0
 14 15  1  0
 15 16  1  0
  8 17  1  0
 17 18  2  0
  4 19  2  0
 19  1  1  0
 18  5  1  0
 16 11  1  0
  1 20  1  0
  2 21  1  0
  6 22  1  0
  7 23  1  0
 10 24  1  0
 10 25  1  0
 11 26  1  0
 12 27  1  0
 12 28  1  0
 13 29  1  0
 13 30  1  0
 14 31  1  0
 14 32  1  0
 15 33  1  0
 15 34  1  0
 16 35  1  0
 16 36  1  0
 17 37  1  0
 18 38  1  0
 19 39  1  0
M  CHG  1  17   1
M  END
>  <UniqueID>  (31) 
28

>  <SMILES>  (31) 
c1coc(-c2ccc(SCC3CCCCC3)[nH+]c2)c1

>  <Energy>  (31) 
67.43092790034677

>  <Genealogy>  (31) 
c1coc(-c2ccc(SCC3CCCCC3)[nH+]c2)c1 (protonated)
c1coc(-c2ccc(SCC3CCCCC3)[nH+]c2)c1 (3D coordinates assigned)
c1coc(-c2ccc(SCC3CCCCC3)[nH+]c2)c1 (nonaromatic ring conformer: 67.43092790034677 kcal/mol)

>  <smiles>  (31) 
c1coc(-c2ccc(SCC3CCCCC3)nc2)c1

>  <score_type>  (31) 
oracle

>  <origin>  (31) 
adg

>  <m_score__min__energy>  (31) 
-6.2000000000000002

>  <m_primary>  (31) 
energy

$$$$
31:0
     RDKit          3D

 36 38  0  0  0  0  0  0  0  0999 V2000
   55.2703   30.9311   43.9822 H   0  0  0  0  0  0  0  0  0  0  0  0
   55.9730   30.1390   44.2800 C   0  0  0  0  0  0  0  0  0  0  0  0
   55.5070   29.0040   44.8640 N   0  0  0  0  0  0  0  0  0  0  0  0
   56.3390   27.9980   45.2560 C   0  0  0  0  0  0  0  0  0  0  0  0
   55.8710   26.9210   45.8140 N   0  0  0  0  0  0  0  0  0  0  0  0
   56.5090   25.6060   45.7660 C   0  0  0  0  0  0  0  0  0  0  0  0
   57.1566   25.5515   44.8785 H   0  0  0  0  0  0  0  0  0  0  0  0
   55.7256   24.8355   45.7160 H   0  0  0  0  0  0  0  0  0  0  0  0
   57.3510   25.3670   47.0150 C   0  0  0  0  0  0  0  0  0  0  0  0
   56.7364   25.5415   47.9104 H   0  0  0  0  0  0  0  0  0  0  0  0
   57.7167   24.3296   47.0177 H   0  0  0  0  0  0  0  0  0  0  0  0
   58.2072   26.0576   47.0177 H   0  0  0  0  0  0  0  0  0  0  0  0
   57.7180   28.1300   45.0630 C   0  0  0  0  0  0  0  0  0  0  0  0
   58.4010   27.3279   45.3794 H   0  0  0  0  0  0  0  0  0  0  0  0
   58.2210   29.2870   44.4660 C   0  0  0  0  0  0  0  0  0  0  0  0
   59.3049   29.4013   44.3172 H   0  0  0  0  0  0  0  0  0  0  0  0
   57.3480   30.3030   44.0560 C   0  0  0  0  0  0  0  0  0  0  0  0
   57.8800   31.5710   43.4470 C   0  0  0  0  0  0  0  0  0  0  0  0
   58.6915   31.3257   42.7461 H   0  0  0  0  0  0  0  0  0  0  0  0
   57.0665   32.0832   42.9122 H   0  0  0  0  0  0  0  0  0  0  0  0
   58.4080   32.4750   44.5210 C   0  0  0  0  0  0  0  0  0  0  0  0
   58.4440   32.0380   45.8090 N   0  0  0  0  0  0  0  0  0  0  0  0
   58.8780   32.8280   46.8260 C   0  0  0  0  0  0  0  0  0  0  0  0
   58.9040   32.3390   48.1370 C   0  0  0  0  0  0  0  0  0  0  0  0
   58.5740   31.3108   48.3465 H   0  0  0  0  0  0  0  0  0  0  0  0
   59.3490   33.1560   49.1810 C   0  0  0  0  0  0  0  0  0  0  0  0
   59.3680   32.7692   50.2106 H   0  0  0  0  0  0  0  0  0  0  0  0
   59.7700   34.4640   48.9190 C   0  0  0  0  0  0  0  0  0  0  0  0
   60.1221   35.1018   49.7432 H   0  0  0  0  0  0  0  0  0  0  0  0
   59.7450   34.9640   47.6130 C   0  0  0  0  0  0  0  0  0  0  0  0
   60.0745   35.9939   47.4113 H   0  0  0  0  0  0  0  0  0  0  0  0
   59.2990   34.1500   46.5600 C   0  0  0  0  0  0  0  0  0  0  0  0
   59.2600   34.6220   45.2430 C   0  0  0  0  0  0  0  0  0  0  0  0
   59.5836   35.6482   45.0148 H   0  0  0  0  0  0  0  0  0  0  0  0
   58.8090   33.7860   44.2200 C   0  0  0  0  0  0  0  0  0  0  0  0
   58.7681   34.1527   43.1837 H   0  0  0  0  0  0  0  0  0  0  0  0
  1  2  1  0
  2  3  1  0
  3  4  1  0
  4  5  2  0
  5  6  1  0
  6  7  1  0
  6  8  1  0
  6  9  1  0
  9 10  1  0
  9 11  1  0
  9 12  1  0
  4 13  1  0
 13 14  1  0
 13 15  2  0
 15 16  1  0
 15 17  1  0
 17 18  1  0
 18 19  1  0
 18 20  1  0
 18 21  1  0
 21 22  2  0
 22 23  1  0
 23 24  2  0
 24 25  1  0
 24 26  1  0
 26 27  1  0
 26 28  2  0
 28 29  1  0
 28 30  1  0
 30 31  1  0
 30 32  2  0
 32 33  1  0
 33 34  1  0
 33 35  2  0
 35 36  1  0
 17  2  2  0
 35 21  1  0
 32 23  1  0
M  CHG  1   3  -1
M  END
>  <UniqueID>  (32) 
29

>  <SMILES>  (32) 
CC/N=c1/ccc(Cc2ccc3ccccc3n2)c[n-]1

>  <Energy>  (32) 
37.6154035235545

>  <Genealogy>  (32) 
CCN=c1ccc(Cc2ccc3ccccc3n2)c[n-]1 (protonated)
CC/N=c1/ccc(Cc2ccc3ccccc3n2)c[n-]1 (cis-trans isomerization)
CC/N=c1/ccc(Cc2ccc3ccccc3n2)c[n-]1 (3D coordinates assigned)
CC/N=c1/ccc(Cc2ccc3ccccc3n2)c[n-]1 (optimized conformer: 37.6154035235545 kcal/mol)

>  <smiles>  (32) 
CCN=c1ccc(Cc2ccc3ccccc3n2)c[nH]1

>  <score_type>  (32) 
oracle

>  <origin>  (32) 
adg

>  <m_score__min__energy>  (32) 
-9.6999999999999993

>  <m_primary>  (32) 
energy

$$$$
32:0
     RDKit          3D

 41 43  0  0  1  0  0  0  0  0999 V2000
   58.5060   27.0620   43.7370 C   0  0  0  0  0  0  0  0  0  0  0  0
   58.9930   30.6020   47.8120 N   0  0  0  0  0  0  0  0  0  0  0  0
   59.8340   31.5560   47.7190 C   0  0  0  0  0  0  0  0  0  0  0  0
   61.1360   31.2530   47.6820 N   0  0  0  0  0  0  0  0  0  0  0  0
   62.0410   32.2510   47.5840 C   0  0  0  0  0  0  0  0  0  0  0  0
   60.1070   28.5540   48.1920 N   0  0  0  0  0  0  0  0  0  0  0  0
   59.2360   29.2500   47.4420 C   0  0  0  0  0  0  0  0  0  0  0  0
   58.4080   26.7190   45.1330 N   0  0  0  0  0  0  0  0  0  0  0  0
   58.9220   27.3610   46.1000 C   0  0  0  0  0  0  0  0  0  0  0  0
   59.3400   32.8430   47.6620 C   0  0  0  0  0  0  0  0  0  0  0  0
   60.2610   33.8740   47.5620 C   0  0  0  0  0  0  0  0  0  0  0  0
   61.6180   33.5600   47.5240 C   0  0  0  0  0  0  0  0  0  0  0  0
   60.3910   27.2760   47.9100 C   0  0  0  0  0  0  0  0  0  0  0  0
   63.4940   31.9710   47.5400 C   0  0  0  0  0  0  0  0  0  0  0  0
   59.8110   26.6770   46.8790 N   0  0  0  0  0  0  0  0  0  0  0  0
   58.5900   28.6690   46.3360 C   0  0  0  0  0  0  0  0  0  0  0  0
   57.6650   29.4700   45.5720 C   0  0  0  0  0  0  0  0  0  0  0  0
   57.8780   30.8090   45.5550 N   0  0  0  0  0  0  0  0  0  0  0  0
   57.0840   31.6400   44.8800 C   0  0  0  0  0  0  0  0  0  0  0  0
   57.3880   33.0950   44.9150 C   0  0  0  0  0  0  0  0  0  0  0  0
   56.0310   31.2010   44.1800 N   0  0  0  0  0  0  0  0  0  0  0  0
   55.7880   29.8580   44.1760 C   0  0  0  0  0  0  0  0  0  0  0  0
   54.7850   29.3700   43.5190 N   0  0  0  0  0  0  0  0  0  0  0  0
   56.6180   29.0310   44.8750 N   0  0  0  0  0  0  0  0  0  0  0  0
   58.8070   28.1154   43.6385 H   0  0  0  0  0  0  0  0  0  0  0  0
   59.2565   26.4195   43.2534 H   0  0  0  0  0  0  0  0  0  0  0  0
   57.5293   26.9130   43.2534 H   0  0  0  0  0  0  0  0  0  0  0  0
   61.4570   30.2700   47.7280 H   0  0  0  0  0  0  0  0  0  0  0  0
   61.1069   26.7220   48.5350 H   0  0  0  0  0  0  0  0  0  0  0  0
   58.2588   33.0428   47.6946 H   0  0  0  0  0  0  0  0  0  0  0  0
   59.9268   34.9209   47.5135 H   0  0  0  0  0  0  0  0  0  0  0  0
   62.3605   34.3678   47.4451 H   0  0  0  0  0  0  0  0  0  0  0  0
   63.8841   31.8958   48.5657 H   0  0  0  0  0  0  0  0  0  0  0  0
   63.6688   31.0226   47.0108 H   0  0  0  0  0  0  0  0  0  0  0  0
   64.0087   32.7865   47.0108 H   0  0  0  0  0  0  0  0  0  0  0  0
   60.0340   25.6770   46.6590 H   0  0  0  0  0  0  0  0  0  0  0  0
   57.4580   33.4299   45.9604 H   0  0  0  0  0  0  0  0  0  0  0  0
   58.3446   33.2821   44.4052 H   0  0  0  0  0  0  0  0  0  0  0  0
   56.5863   33.6495   44.4052 H   0  0  0  0  0  0  0  0  0  0  0  0
   54.8840   28.9610   42.5650 H   0  0  0  0  0  0  0  0  0  0  0  0
   56.3830   28.0330   44.8330 H   0  0  0  0  0  0  0  0  0  0  0  0
  1  2  1  0
  2  3  2  0
  3  4  1  0
  4  5  1  0
  5  6  2  0
  6  7  1  0
  7  8  1  0
  8  9  2  0
  9 10  1  0
 10 11  2  0
 11 12  1  0
 12 13  2  0
 13 14  1  0
 13 15  1  0
  7 16  2  0
 16 17  1  0
 17 18  2  0
 18 19  1  0
 19 20  1  0
 19 21  2  0
 21 22  1  0
 22 23  2  3
 22 24  1  0
 16  3  1  0
 24 17  1  0
 15  9  1  0
  1 25  1  0
  1 26  1  0
  1 27  1  0
  4 28  1  0
  5 29  1  0
 10 30  1  0
 11 31  1  0
 12 32  1  0
 14 33  1  0
 14 34  1  0
 14 35  1  0
 15 36  1  0
 20 37  1  0
 20 38  1  0
 20 39  1  0
 23 40  1  0
 24 41  1  0
M  END
>  <smiles>  (33) 
CN=c1[nH]cnc(N=c2cccc(C)[nH]2)c1-c1nc(C)nc(=N)[nH]1

>  <score_type>  (33) 
oracle

>  <origin>  (33) 
adg

>  <m_score__min__energy>  (33) 
-7.1600000000000001

>  <m_primary>  (33) 
energy

$$$$
33:0
     RDKit          3D

 33 35  0  0  0  0  0  0  0  0999 V2000
   55.2970   28.9780   44.6930 N   0  0  0  0  0  0  0  0  0  0  0  0
   56.6570   28.9930   45.1710 C   0  0  0  0  0  0  0  0  0  0  0  0
   57.1620   27.8820   45.8890 C   0  0  0  0  0  0  0  0  0  0  0  0
   56.3980   26.6170   46.0140 C   0  0  0  0  0  0  0  0  0  0  0  0
   55.1400   26.6500   45.9540 O   0  0  0  0  0  0  0  0  0  0  0  0
   57.0520   25.3450   46.1100 N   0  0  0  0  0  0  0  0  0  0  0  0
   56.9480   24.2630   45.1710 C   0  0  0  0  0  0  0  0  0  0  0  0
   55.8550   24.1500   44.2930 C   0  0  0  0  0  0  0  0  0  0  0  0
   55.7920   23.0920   43.3800 C   0  0  0  0  0  0  0  0  0  0  0  0
   56.8240   22.1520   43.3240 C   0  0  0  0  0  0  0  0  0  0  0  0
   56.7620   21.1290   42.4370 F   0  0  0  0  0  0  0  0  0  0  0  0
   57.9260   22.2740   44.1760 C   0  0  0  0  0  0  0  0  0  0  0  0
   57.9930   23.3300   45.0910 C   0  0  0  0  0  0  0  0  0  0  0  0
   59.0680   23.4380   45.9110 F   0  0  0  0  0  0  0  0  0  0  0  0
   58.4260   27.9970   46.4830 C   0  0  0  0  0  0  0  0  0  0  0  0
   58.9320   27.0350   47.1220 O   0  0  0  0  0  0  0  0  0  0  0  0
   59.1200   29.1510   46.3740 N   0  0  0  0  0  0  0  0  0  0  0  0
   58.6470   30.2020   45.6620 C   0  0  0  0  0  0  0  0  0  0  0  0
   59.3270   31.2630   45.6220 O   0  0  0  0  0  0  0  0  0  0  0  0
   57.4460   30.1110   45.0020 N   0  0  0  0  0  0  0  0  0  0  0  0
   56.9710   31.2580   44.2040 C   0  0  0  0  0  0  0  0  0  0  0  0
   56.8970   30.9900   42.7020 C   0  0  0  0  0  0  0  0  0  0  0  0
   58.0100   31.8530   43.2550 C   0  0  0  0  0  0  0  0  0  0  0  0
   54.7890   28.0890   44.5000 H   0  0  0  0  0  0  0  0  0  0  0  0
   54.8090   29.8470   44.3840 H   0  0  0  0  0  0  0  0  0  0  0  0
   55.0472   24.8959   44.3244 H   0  0  0  0  0  0  0  0  0  0  0  0
   54.9284   23.0000   42.7050 H   0  0  0  0  0  0  0  0  0  0  0  0
   58.7420   21.5380   44.1266 H   0  0  0  0  0  0  0  0  0  0  0  0
   56.2880   31.6615   44.9660 H   0  0  0  0  0  0  0  0  0  0  0  0
   57.1225   29.9867   42.3115 H   0  0  0  0  0  0  0  0  0  0  0  0
   56.1264   31.1196   41.9278 H   0  0  0  0  0  0  0  0  0  0  0  0
   59.0433   31.4761   43.2660 H   0  0  0  0  0  0  0  0  0  0  0  0
   58.3810   32.8677   43.0481 H   0  0  0  0  0  0  0  0  0  0  0  0
  1  2  1  0
  2  3  2  0
  3  4  1  0
  4  5  2  0
  4  6  1  0
  6  7  1  0
  7  8  2  0
  8  9  1  0
  9 10  2  0
 10 11  1  0
 10 12  1  0
 12 13  2  0
 13 14  1  0
  3 15  1  0
 15 16  2  0
 15 17  1  0
 17 18  1  0
 18 19  2  0
 18 20  1  0
 20 21  1  0
 21 22  1  0
 22 23  1  0
 20  2  1  0
 23 21  1  0
 13  7  1  0
  1 24  1  0
  1 25  1  0
  8 26  1  0
  9 27  1  0
 12 28  1  0
 21 29  1  0
 22 30  1  0
 22 31  1  0
 23 32  1  0
 23 33  1  0
M  CHG  2   6  -1  17  -1
M  END
>  <UniqueID>  (34) 
30

>  <SMILES>  (34) 
Nc1c(C(=O)[N-]c2ccc(F)cc2F)c(=O)[n-]c(=O)n1C1CC1

>  <Energy>  (34) 
317.03580719426526

>  <Genealogy>  (34) 
Nc1c(C(=O)[N-]c2ccc(F)cc2F)c(=O)[n-]c(=O)n1C1CC1 (protonated)
Nc1c(C(=O)[N-]c2ccc(F)cc2F)c(=O)[n-]c(=O)n1C1CC1 (3D coordinates assigned)
Nc1c(C(=O)[N-]c2ccc(F)cc2F)c(=O)[n-]c(=O)n1C1CC1 (nonaromatic ring conformer: 317.03580719426526 kcal/mol)

>  <smiles>  (34) 
Nc1c(C(=O)Nc2ccc(F)cc2F)c(=O)[nH]c(=O)n1C1CC1

>  <score_type>  (34) 
oracle

>  <origin>  (34) 
adg

>  <m_score__min__energy>  (34) 
-9.9700000000000006

>  <m_primary>  (34) 
energy

$$$$
34:0
     RDKit          3D

 61 65  0  0  0  0  0  0  0  0999 V2000
   57.8070   26.6200   44.7830 C   0  0  0  0  0  0  0  0  0  0  0  0
   57.1070   27.7840   45.2100 O   0  0  0  0  0  0  0  0  0  0  0  0
   57.2900   29.0670   44.6700 C   0  0  0  0  0  0  0  0  0  0  0  0
   56.4890   29.5500   43.6150 C   0  0  0  0  0  0  0  0  0  0  0  0
   56.7100   30.8230   43.0860 C   0  0  0  0  0  0  0  0  0  0  0  0
   57.7270   31.6280   43.5980 C   0  0  0  0  0  0  0  0  0  0  0  0
   58.5260   31.1630   44.6440 C   0  0  0  0  0  0  0  0  0  0  0  0
   58.3160   29.8860   45.1880 C   0  0  0  0  0  0  0  0  0  0  0  0
   59.1350   29.4360   46.2820 N   0  0  0  0  0  0  0  0  0  0  0  0
   58.5310   28.7250   47.4150 C   0  0  0  0  0  0  0  0  0  0  0  0
   59.3180   29.0020   48.7050 C   0  0  0  0  0  0  0  0  0  0  0  0
   59.8640   30.3800   48.6850 N   0  0  0  0  0  0  0  0  0  0  0  0
   60.3910   30.7720   50.0250 C   0  0  0  0  0  0  0  0  0  0  0  0
   59.2770   31.0030   51.0660 C   0  0  0  0  0  0  0  0  0  0  0  0
   59.4940   32.2680   51.9070 C   0  0  0  0  0  0  0  0  0  0  0  0
   59.1010   33.5250   51.1260 C   0  0  0  0  0  0  0  0  0  0  0  0
   60.1550   33.8830   50.1810 N   0  0  0  0  0  0  0  0  0  0  0  0
   61.5700   33.7370   50.3990 C   0  0  0  0  0  0  0  0  0  0  0  0
   62.1070   33.5980   51.5290 O   0  0  0  0  0  0  0  0  0  0  0  0
   62.2650   33.7230   49.1130 C   0  0  0  0  0  0  0  0  0  0  0  0
   63.5990   33.5840   48.7280 C   0  0  0  0  0  0  0  0  0  0  0  0
   63.8850   33.5610   47.3420 C   0  0  0  0  0  0  0  0  0  0  0  0
   62.8420   33.6610   46.3820 C   0  0  0  0  0  0  0  0  0  0  0  0
   61.5060   33.7850   46.8130 C   0  0  0  0  0  0  0  0  0  0  0  0
   60.3790   33.8510   45.9730 C   0  0  0  0  0  0  0  0  0  0  0  0
   59.0820   33.9360   46.5430 C   0  0  0  0  0  0  0  0  0  0  0  0
   58.9040   33.9570   47.9460 C   0  0  0  0  0  0  0  0  0  0  0  0
   60.0460   33.9060   48.7520 C   0  0  0  0  0  0  0  0  0  0  0  0
   61.2820   33.8240   48.1780 C   0  0  0  0  0  0  0  0  0  0  0  0
   60.9230   30.4920   47.6480 C   0  0  0  0  0  0  0  0  0  0  0  0
   60.5640   29.7650   46.3310 C   0  0  0  0  0  0  0  0  0  0  0  0
   58.1476   26.0537   45.6624 H   0  0  0  0  0  0  0  0  0  0  0  0
   57.1374   25.9906   44.1784 H   0  0  0  0  0  0  0  0  0  0  0  0
   58.6768   26.9164   44.1784 H   0  0  0  0  0  0  0  0  0  0  0  0
   55.6852   28.9201   43.2063 H   0  0  0  0  0  0  0  0  0  0  0  0
   56.0802   31.1920   42.2631 H   0  0  0  0  0  0  0  0  0  0  0  0
   57.8997   32.6297   43.1776 H   0  0  0  0  0  0  0  0  0  0  0  0
   59.3264   31.8022   45.0451 H   0  0  0  0  0  0  0  0  0  0  0  0
   57.4929   29.0652   47.5441 H   0  0  0  0  0  0  0  0  0  0  0  0
   58.5531   27.6445   47.2097 H   0  0  0  0  0  0  0  0  0  0  0  0
   58.6486   28.8888   49.5705 H   0  0  0  0  0  0  0  0  0  0  0  0
   60.1505   28.2868   48.7784 H   0  0  0  0  0  0  0  0  0  0  0  0
   59.0950   31.0380   48.4100 H   0  0  0  0  0  0  0  0  0  0  0  0
   61.0514   29.9715   50.3899 H   0  0  0  0  0  0  0  0  0  0  0  0
   60.9289   31.7235   49.9018 H   0  0  0  0  0  0  0  0  0  0  0  0
   58.3168   31.0943   50.5372 H   0  0  0  0  0  0  0  0  0  0  0  0
   59.2873   30.1450   51.7543 H   0  0  0  0  0  0  0  0  0  0  0  0
   58.8793   32.2039   52.8170 H   0  0  0  0  0  0  0  0  0  0  0  0
   60.5612   32.3368   52.1645 H   0  0  0  0  0  0  0  0  0  0  0  0
   58.1687   33.3333   50.5746 H   0  0  0  0  0  0  0  0  0  0  0  0
   58.9560   34.3554   51.8327 H   0  0  0  0  0  0  0  0  0  0  0  0
   64.4007   33.4954   49.4759 H   0  0  0  0  0  0  0  0  0  0  0  0
   64.9273   33.4646   47.0038 H   0  0  0  0  0  0  0  0  0  0  0  0
   63.0764   33.6417   45.3074 H   0  0  0  0  0  0  0  0  0  0  0  0
   60.5026   33.8368   44.8801 H   0  0  0  0  0  0  0  0  0  0  0  0
   58.2026   33.9863   45.8842 H   0  0  0  0  0  0  0  0  0  0  0  0
   57.8988   34.0117   48.3894 H   0  0  0  0  0  0  0  0  0  0  0  0
   61.0845   31.5573   47.4267 H   0  0  0  0  0  0  0  0  0  0  0  0
   61.8274   30.0124   48.0506 H   0  0  0  0  0  0  0  0  0  0  0  0
   60.8117   30.4180   45.4811 H   0  0  0  0  0  0  0  0  0  0  0  0
   61.1400   28.8292   46.2802 H   0  0  0  0  0  0  0  0  0  0  0  0
  1  2  1  0
  2  3  1  0
  3  4  2  0
  4  5  1  0
  5  6  2  0
  6  7  1  0
  7  8  2  0
  8  9  1  0
  9 10  1  0
 10 11  1  0
 11 12  1  0
 12 13  1  0
 13 14  1  0
 14 15  1  0
 15 16  1  0
 16 17  1  0
 17 18  1  0
 18 19  2  0
 18 20  1  0
 20 21  1  0
 21 22  2  0
 22 23  1  0
 23 24  2  0
 24 25  1  0
 25 26  2  0
 26 27  1  0
 27 28  2  0
 28 29  1  0
 12 30  1  0
 30 31  1  0
  8  3  1  0
 31  9  1  0
 28 17  1  0
 29 20  2  0
 29 24  1  0
  1 32  1  0
  1 33  1  0
  1 34  1  0
  4 35  1  0
  5 36  1  0
  6 37  1  0
  7 38  1  0
 10 39  1  0
 10 40  1  0
 11 41  1  0
 11 42  1  0
 12 43  1  0
 13 44  1  0
 13 45  1  0
 14 46  1  0
 14 47  1  0
 15 48  1  0
 15 49  1  0
 16 50  1  0
 16 51  1  0
 21 52  1  0
 22 53  1  0
 23 54  1  0
 25 55  1  0
 26 56  1  0
 27 57  1  0
 30 58  1  0
 30 59  1  0
 31 60  1  0
 31 61  1  0
M  CHG  1  12   1
M  END
>  <UniqueID>  (35) 
31

>  <SMILES>  (35) 
COc1ccccc1N1CC[NH+](CCCCN2C(=O)c3cccc4cccc2c34)CC1

>  <Energy>  (35) 
116.8107625864812

>  <Genealogy>  (35) 
COc1ccccc1N1CC[NH+](CCCCN2C(=O)c3cccc4cccc2c34)CC1 (protonated)
COc1ccccc1N1CC[NH+](CCCCN2C(=O)c3cccc4cccc2c34)CC1 (3D coordinates assigned)
COc1ccccc1N1CC[NH+](CCCCN2C(=O)c3cccc4cccc2c34)CC1 (nonaromatic ring conformer: 116.8107625864812 kcal/mol)

>  <smiles>  (35) 
COc1ccccc1N1CCN(CCCCN2C(=O)c3cccc4cccc2c34)CC1

>  <score_type>  (35) 
oracle

>  <origin>  (35) 
adg

>  <m_score__min__energy>  (35) 
-6.8300000000000001

>  <m_primary>  (35) 
energy

$$$$
35:0
     RDKit          3D

 40 43  0  0  0  0  0  0  0  0999 V2000
   57.0200   30.8320   42.9370 C   0  0  0  0  0  0  0  0  0  0  0  0
   57.7910   31.9550   42.6470 C   0  0  0  0  0  0  0  0  0  0  0  0
   58.3380   32.6800   43.6560 N   0  0  0  0  0  0  0  0  0  0  0  0
   58.1450   32.3290   44.9580 C   0  0  0  0  0  0  0  0  0  0  0  0
   58.7350   33.1070   46.0150 N   0  0  0  0  0  0  0  0  0  0  0  0
   58.5610   34.5480   46.1110 C   0  0  0  0  0  0  0  0  0  0  0  0
   59.2500   34.9750   47.4020 C   0  0  0  0  0  0  0  0  0  0  0  0
   59.4960   33.6820   48.1940 C   0  0  1  0  0  0  0  0  0  0  0  0
   59.3940   32.5250   47.1790 C   0  0  2  0  0  0  0  0  0  0  0  0
   60.7610   31.9320   46.7910 C   0  0  0  0  0  0  0  0  0  0  0  0
   61.8280   33.0160   46.7390 C   0  0  0  0  0  0  0  0  0  0  0  0
   62.0100   33.6830   48.1130 C   0  0  0  0  0  0  0  0  0  0  0  0
   60.7770   33.7310   48.9490 N   0  0  0  0  0  0  0  0  0  0  0  0
   60.8010   32.7610   50.0680 C   0  0  0  0  0  0  0  0  0  0  0  0
   59.5630   32.8920   50.8980 C   0  0  0  0  0  0  0  0  0  0  0  0
   59.3540   33.8970   51.7760 N   0  0  0  0  0  0  0  0  0  0  0  0
   58.1600   33.7700   52.4150 C   0  0  0  0  0  0  0  0  0  0  0  0
   57.4110   32.6570   52.0490 C   0  0  0  0  0  0  0  0  0  0  0  0
   58.2780   31.8070   50.8860 S   0  0  0  0  0  0  0  0  0  0  0  0
   57.3950   31.2330   45.2540 N   0  0  0  0  0  0  0  0  0  0  0  0
   56.8320   30.4820   44.2720 C   0  0  0  0  0  0  0  0  0  0  0  0
   56.5698   30.2351   42.1302 H   0  0  0  0  0  0  0  0  0  0  0  0
   57.9565   32.2542   41.6015 H   0  0  0  0  0  0  0  0  0  0  0  0
   59.0261   35.0465   45.2478 H   0  0  0  0  0  0  0  0  0  0  0  0
   57.4961   34.8236   46.1151 H   0  0  0  0  0  0  0  0  0  0  0  0
   60.2042   35.4750   47.1794 H   0  0  0  0  0  0  0  0  0  0  0  0
   58.6354   35.6875   47.9718 H   0  0  0  0  0  0  0  0  0  0  0  0
   58.7440   33.5344   48.9831 H   0  0  0  0  0  0  0  0  0  0  0  0
   58.8387   31.6802   47.6124 H   0  0  0  0  0  0  0  0  0  0  0  0
   61.0507   31.1769   47.5366 H   0  0  0  0  0  0  0  0  0  0  0  0
   60.6756   31.4747   45.7942 H   0  0  0  0  0  0  0  0  0  0  0  0
   62.7826   32.5654   46.4295 H   0  0  0  0  0  0  0  0  0  0  0  0
   61.5100   33.7837   46.0183 H   0  0  0  0  0  0  0  0  0  0  0  0
   62.7781   33.1233   48.6668 H   0  0  0  0  0  0  0  0  0  0  0  0
   62.2937   34.7275   47.9167 H   0  0  0  0  0  0  0  0  0  0  0  0
   60.8588   31.7404   49.6618 H   0  0  0  0  0  0  0  0  0  0  0  0
   61.6777   32.9665   50.6998 H   0  0  0  0  0  0  0  0  0  0  0  0
   57.8124   34.4945   53.1662 H   0  0  0  0  0  0  0  0  0  0  0  0
   56.4245   32.3811   52.4500 H   0  0  0  0  0  0  0  0  0  0  0  0
   56.2288   29.5992   44.5306 H   0  0  0  0  0  0  0  0  0  0  0  0
  1  2  2  0
  2  3  1  0
  3  4  2  0
  4  5  1  0
  5  6  1  0
  6  7  1  0
  7  8  1  0
  8  9  1  0
  9 10  1  0
 10 11  1  0
 11 12  1  0
 12 13  1  0
 13 14  1  0
 14 15  1  0
 15 16  2  0
 16 17  1  0
 17 18  2  0
 18 19  1  0
  4 20  1  0
 20 21  2  0
 21  1  1  0
  9  5  1  0
 19 15  1  0
 13  8  1  0
  1 22  1  0
  2 23  1  0
  6 24  1  0
  6 25  1  0
  7 26  1  0
  7 27  1  0
  8 28  1  1
  9 29  1  1
 10 30  1  0
 10 31  1  0
 11 32  1  0
 11 33  1  0
 12 34  1  0
 12 35  1  0
 14 36  1  0
 14 37  1  0
 17 38  1  0
 18 39  1  0
 21 40  1  0
M  END
>  <UniqueID>  (36) 
32

>  <SMILES>  (36) 
c1cnc(N2CC[C@H]3[C@@H]2CCCN3Cc2nccs2)nc1

>  <Energy>  (36) 
83.31322641282344

>  <Genealogy>  (36) 
c1cnc(N2CC[C@H]3[C@@H]2CCCN3Cc2nccs2)nc1 (chirality)
c1cnc(N2CC[C@H]3[C@@H]2CCCN3Cc2nccs2)nc1 (3D coordinates assigned)
c1cnc(N2CC[C@H]3[C@@H]2CCCN3Cc2nccs2)nc1 (nonaromatic ring conformer: 83.31322641282344 kcal/mol)

>  <smiles>  (36) 
c1cnc(N2CCC3C2CCCN3Cc2nccs2)nc1

>  <score_type>  (36) 
oracle

>  <origin>  (36) 
adg

>  <m_score__min__energy>  (36) 
-7.0199999999999996

>  <m_primary>  (36) 
energy

$$$$
36:0
     RDKit          3D

 36 38  0  0  0  0  0  0  0  0999 V2000
   55.1520   29.3230   44.8010 O   0  0  0  0  0  0  0  0  0  0  0  0
   56.3480   29.7150   44.8500 C   0  0  0  0  0  0  0  0  0  0  0  0
   56.6400   31.0000   44.5230 N   0  0  0  0  0  0  0  0  0  0  0  0
   57.9170   31.4650   44.5550 C   0  0  0  0  0  0  0  0  0  0  0  0
   58.2620   33.1660   44.1150 S   0  0  0  0  0  0  0  0  0  0  0  0
   58.6660   33.7010   45.8220 C   0  0  0  0  0  0  0  0  0  0  0  0
   58.2480   32.6270   46.8400 C   0  0  0  0  0  0  0  0  0  0  0  0
   58.5040   33.0870   48.2900 C   0  0  0  0  0  0  0  0  0  0  0  0
   59.6580   34.1000   48.4210 C   0  0  0  0  0  0  0  0  0  0  0  0
   60.7370   33.8640   47.3600 C   0  0  0  0  0  0  0  0  0  0  0  0
   60.1800   34.0000   45.9270 C   0  0  0  0  0  0  0  0  0  0  0  0
   58.9310   30.6440   44.9310 N   0  0  0  0  0  0  0  0  0  0  0  0
   58.6960   29.3510   45.2710 C   0  0  0  0  0  0  0  0  0  0  0  0
   59.7580   28.5220   45.6500 C   0  0  0  0  0  0  0  0  0  0  0  0
   59.5230   27.1850   46.0160 C   0  0  0  0  0  0  0  0  0  0  0  0
   60.6750   26.2800   46.3760 C   0  0  0  0  0  0  0  0  0  0  0  0
   61.7910   26.6560   45.6530 F   0  0  0  0  0  0  0  0  0  0  0  0
   60.3710   24.9620   46.0840 F   0  0  0  0  0  0  0  0  0  0  0  0
   60.9620   26.3670   47.7270 F   0  0  0  0  0  0  0  0  0  0  0  0
   58.2120   26.6780   45.9540 C   0  0  0  0  0  0  0  0  0  0  0  0
   57.1480   27.5010   45.5770 C   0  0  0  0  0  0  0  0  0  0  0  0
   57.3800   28.8430   45.2360 C   0  0  0  0  0  0  0  0  0  0  0  0
   58.1055   34.6188   46.0534 H   0  0  0  0  0  0  0  0  0  0  0  0
   57.1754   32.4167   46.7166 H   0  0  0  0  0  0  0  0  0  0  0  0
   58.8497   31.7251   46.6544 H   0  0  0  0  0  0  0  0  0  0  0  0
   57.5854   33.5548   48.6738 H   0  0  0  0  0  0  0  0  0  0  0  0
   58.7910   32.1947   48.8657 H   0  0  0  0  0  0  0  0  0  0  0  0
   59.2559   35.1169   48.3015 H   0  0  0  0  0  0  0  0  0  0  0  0
   60.1166   33.9735   49.4128 H   0  0  0  0  0  0  0  0  0  0  0  0
   61.5401   34.6025   47.5002 H   0  0  0  0  0  0  0  0  0  0  0  0
   61.1137   32.8377   47.4816 H   0  0  0  0  0  0  0  0  0  0  0  0
   60.3563   35.0292   45.5812 H   0  0  0  0  0  0  0  0  0  0  0  0
   60.7003   33.2560   45.3059 H   0  0  0  0  0  0  0  0  0  0  0  0
   60.7837   28.9192   45.6616 H   0  0  0  0  0  0  0  0  0  0  0  0
   58.0231   25.6237   46.2047 H   0  0  0  0  0  0  0  0  0  0  0  0
   56.1255   27.0964   45.5472 H   0  0  0  0  0  0  0  0  0  0  0  0
  1  2  2  0
  2  3  1  0
  3  4  1  0
  4  5  1  0
  5  6  1  0
  6  7  1  0
  7  8  1  0
  8  9  1  0
  9 10  1  0
 10 11  1  0
  4 12  2  0
 12 13  1  0
 13 14  2  0
 14 15  1  0
 15 16  1  0
 16 17  1  0
 16 18  1  0
 16 19  1  0
 15 20  2  0
 20 21  1  0
 21 22  2  0
 22  2  1  0
 11  6  1  0
 22 13  1  0
  6 23  1  0
  7 24  1  0
  7 25  1  0
  8 26  1  0
  8 27  1  0
  9 28  1  0
  9 29  1  0
 10 30  1  0
 10 31  1  0
 11 32  1  0
 11 33  1  0
 14 34  1  0
 20 35  1  0
 21 36  1  0
M  CHG  1   3  -1
M  END
>  <UniqueID>  (37) 
33

>  <SMILES>  (37) 
O=c1[n-]c(SC2CCCCC2)nc2cc(C(F)(F)F)ccc12

>  <Energy>  (37) 
40.64186063832701

>  <Genealogy>  (37) 
O=c1[n-]c(SC2CCCCC2)nc2cc(C(F)(F)F)ccc12 (protonated)
O=c1[n-]c(SC2CCCCC2)nc2cc(C(F)(F)F)ccc12 (3D coordinates assigned)
O=c1[n-]c(SC2CCCCC2)nc2cc(C(F)(F)F)ccc12 (nonaromatic ring conformer: 40.64186063832701 kcal/mol)

>  <smiles>  (37) 
O=c1[nH]c(SC2CCCCC2)nc2cc(C(F)(F)F)ccc12

>  <score_type>  (37) 
oracle

>  <origin>  (37) 
adg

>  <m_score__min__energy>  (37) 
-9.0800000000000001

>  <m_primary>  (37) 
energy

$$$$
37:0
     RDKit          3D

 51 55  0  0  0  0  0  0  0  0999 V2000
   63.3060   33.7570   47.0830 Cl  0  0  0  0  0  0  0  0  0  0  0  0
   62.5980   32.3440   47.8420 C   0  0  0  0  0  0  0  0  0  0  0  0
   61.7150   31.5310   47.1230 C   0  0  0  0  0  0  0  0  0  0  0  0
   61.1520   30.4030   47.7270 C   0  0  0  0  0  0  0  0  0  0  0  0
   61.4600   30.0840   49.0600 C   0  0  0  0  0  0  0  0  0  0  0  0
   60.8820   28.8490   49.6980 C   0  0  0  0  0  0  0  0  0  0  0  0
   60.4220   29.1440   51.1280 C   0  0  0  0  0  0  0  0  0  0  0  0
   58.9930   29.5400   51.1190 N   0  0  0  0  0  0  0  0  0  0  0  0
   58.6040   30.2910   52.3300 C   0  0  0  0  0  0  0  0  0  0  0  0
   59.1490   31.7410   52.3340 C   0  0  0  0  0  0  0  0  0  0  0  0
   59.4530   32.2470   50.9740 N   0  0  2  0  0  0  0  0  0  0  0  0
   59.5250   33.7330   50.9870 C   0  0  0  0  0  0  0  0  0  0  0  0
   60.0300   34.2890   49.6380 C   0  0  0  0  0  0  0  0  0  0  0  0
   59.3040   33.6120   48.5220 C   0  0  0  0  0  0  0  0  0  0  0  0
   58.6270   32.4180   48.6610 C   0  0  0  0  0  0  0  0  0  0  0  0
   58.0640   32.0380   47.4890 N   0  0  0  0  0  0  0  0  0  0  0  0
   58.4300   32.9810   46.5990 C   0  0  0  0  0  0  0  0  0  0  0  0
   58.1110   33.0330   45.2440 C   0  0  0  0  0  0  0  0  0  0  0  0
   58.6010   34.1180   44.4920 C   0  0  0  0  0  0  0  0  0  0  0  0
   59.3890   35.1170   45.1060 C   0  0  0  0  0  0  0  0  0  0  0  0
   59.6940   35.0440   46.4780 C   0  0  0  0  0  0  0  0  0  0  0  0
   59.1960   33.9570   47.1950 C   0  0  0  0  0  0  0  0  0  0  0  0
   58.4480   31.7470   49.9980 C   0  0  1  0  0  0  0  0  0  0  0  0
   58.5450   30.2050   49.8700 C   0  0  0  0  0  0  0  0  0  0  0  0
   62.3580   30.8970   49.7710 C   0  0  0  0  0  0  0  0  0  0  0  0
   62.9210   32.0240   49.1660 C   0  0  0  0  0  0  0  0  0  0  0  0
   61.4636   31.7797   46.0814 H   0  0  0  0  0  0  0  0  0  0  0  0
   60.4644   29.7620   47.1557 H   0  0  0  0  0  0  0  0  0  0  0  0
   60.0213   28.5054   49.1054 H   0  0  0  0  0  0  0  0  0  0  0  0
   61.6585   28.0705   49.7296 H   0  0  0  0  0  0  0  0  0  0  0  0
   60.5484   28.2431   51.7464 H   0  0  0  0  0  0  0  0  0  0  0  0
   61.0257   29.9639   51.5442 H   0  0  0  0  0  0  0  0  0  0  0  0
   57.5059   30.3275   52.3841 H   0  0  0  0  0  0  0  0  0  0  0  0
   59.0365   29.7707   53.1973 H   0  0  0  0  0  0  0  0  0  0  0  0
   58.3952   32.3980   52.7925 H   0  0  0  0  0  0  0  0  0  0  0  0
   60.0903   31.7382   52.9031 H   0  0  0  0  0  0  0  0  0  0  0  0
   60.3990   31.8930   50.6950 H   0  0  0  0  0  0  0  0  0  0  0  0
   58.5217   34.1373   51.1867 H   0  0  0  0  0  0  0  0  0  0  0  0
   60.2339   34.0364   51.7714 H   0  0  0  0  0  0  0  0  0  0  0  0
   59.8434   35.3722   49.5940 H   0  0  0  0  0  0  0  0  0  0  0  0
   61.1096   34.1008   49.5429 H   0  0  0  0  0  0  0  0  0  0  0  0
   57.4680   31.1990   47.3140 H   0  0  0  0  0  0  0  0  0  0  0  0
   57.4954   32.2507   44.7760 H   0  0  0  0  0  0  0  0  0  0  0  0
   58.3686   34.1882   43.4191 H   0  0  0  0  0  0  0  0  0  0  0  0
   59.7671   35.9585   44.5070 H   0  0  0  0  0  0  0  0  0  0  0  0
   60.3040   35.8175   46.9675 H   0  0  0  0  0  0  0  0  0  0  0  0
   57.4421   31.9971   50.3664 H   0  0  0  0  0  0  0  0  0  0  0  0
   57.5524   29.8136   49.6026 H   0  0  0  0  0  0  0  0  0  0  0  0
   59.2974   29.9886   49.0973 H   0  0  0  0  0  0  0  0  0  0  0  0
   62.6195   30.6453   50.8094 H   0  0  0  0  0  0  0  0  0  0  0  0
   63.6185   32.6601   49.7306 H   0  0  0  0  0  0  0  0  0  0  0  0
  1  2  1  0
  2  3  2  0
  3  4  1  0
  4  5  2  0
  5  6  1  0
  6  7  1  0
  7  8  1  0
  8  9  1  0
  9 10  1  0
 10 11  1  0
 11 12  1  0
 12 13  1  0
 13 14  1  0
 14 15  2  0
 15 16  1  0
 16 17  1  0
 17 18  2  0
 18 19  1  0
 19 20  2  0
 20 21  1  0
 21 22  2  0
 15 23  1  0
 23 24  1  0
  5 25  1  0
 25 26  2  0
 26  2  1  0
 24  8  1  0
 23 11  1  0
 22 14  1  0
 22 17  1  0
  3 27  1  0
  4 28  1  0
  6 29  1  0
  6 30  1  0
  7 31  1  0
  7 32  1  0
  9 33  1  0
  9 34  1  0
 10 35  1  0
 10 36  1  0
 11 37  1  6
 12 38  1  0
 12 39  1  0
 13 40  1  0
 13 41  1  0
 16 42  1  0
 18 43  1  0
 19 44  1  0
 20 45  1  0
 21 46  1  0
 23 47  1  1
 24 48  1  0
 24 49  1  0
 25 50  1  0
 26 51  1  0
M  CHG  1  11   1
M  END
>  <UniqueID>  (38) 
34

>  <SMILES>  (38) 
Clc1ccc(CCN2CC[N@@H+]3CCc4c([nH]c5ccccc45)[C@H]3C2)cc1

>  <Energy>  (38) 
105.3880771403129

>  <Genealogy>  (38) 
Clc1ccc(CCN2CC[NH+]3CCc4c([nH]c5ccccc45)C3C2)cc1 (protonated)
Clc1ccc(CCN2CC[N@@H+]3CCc4c([nH]c5ccccc45)[C@H]3C2)cc1 (chirality)
Clc1ccc(CCN2CC[N@@H+]3CCc4c([nH]c5ccccc45)[C@H]3C2)cc1 (3D coordinates assigned)
Clc1ccc(CCN2CC[N@@H+]3CCc4c([nH]c5ccccc45)[C@H]3C2)cc1 (nonaromatic ring conformer: 105.3880771403129 kcal/mol)

>  <smiles>  (38) 
Clc1ccc(CCN2CCN3CCc4c([nH]c5ccccc45)C3C2)cc1

>  <score_type>  (38) 
oracle

>  <origin>  (38) 
adg

>  <m_score__min__energy>  (38) 
-6.7999999999999998

>  <m_primary>  (38) 
energy

$$$$
38:0
     RDKit          3D

 65 69  0  0  0  0  0  0  0  0999 V2000
   60.6350   34.2690   46.6580 C   0  0  0  0  0  0  0  0  0  0  0  0
   59.3320   33.7150   46.1890 C   0  0  0  0  0  0  0  0  0  0  0  0
   58.0830   34.1810   46.5490 C   0  0  0  0  0  0  0  0  0  0  0  0
   57.1800   33.3500   45.9190 C   0  0  0  0  0  0  0  0  0  0  0  0
   57.9400   32.4230   45.2270 C   0  0  0  0  0  0  0  0  0  0  0  0
   57.4140   31.3040   44.4260 C   0  0  0  0  0  0  0  0  0  0  0  0
   57.1380   31.4990   43.2110 O   0  0  0  0  0  0  0  0  0  0  0  0
   57.1910   29.9630   45.0120 C   0  0  0  0  0  0  0  0  0  0  0  0
   56.1120   29.1260   44.7670 C   0  0  0  0  0  0  0  0  0  0  0  0
   55.0590   29.3340   43.8800 O   0  0  0  0  0  0  0  0  0  0  0  0
   56.2690   28.0190   45.5660 C   0  0  0  0  0  0  0  0  0  0  0  0
   55.3790   26.9540   45.6380 O   0  0  0  0  0  0  0  0  0  0  0  0
   57.4000   28.1130   46.2930 N   0  0  0  0  0  0  0  0  0  0  0  0
   57.8030   27.1920   47.3600 C   0  0  0  0  0  0  0  0  0  0  0  0
   58.8500   26.2010   46.8380 C   0  0  0  0  0  0  0  0  0  0  0  0
   58.3730   24.8060   46.9620 N   0  0  0  0  0  0  0  0  0  0  0  0
   58.5090   24.0690   45.6840 C   0  0  0  0  0  0  0  0  0  0  0  0
   57.6930   22.7630   45.7010 C   0  0  0  0  0  0  0  0  0  0  0  0
   57.3820   22.3850   47.0260 O   0  0  0  0  0  0  0  0  0  0  0  0
   56.4890   23.3290   47.5940 C   0  0  0  0  0  0  0  0  0  0  0  0
   56.9710   24.7850   47.4130 C   0  0  0  0  0  0  0  0  0  0  0  0
   57.9650   29.3050   45.9730 C   0  0  0  0  0  0  0  0  0  0  0  0
   59.1630   29.8590   46.6370 C   0  0  0  0  0  0  0  0  0  0  0  0
   59.0460   30.5180   47.8690 C   0  0  0  0  0  0  0  0  0  0  0  0
   60.1570   31.1370   48.4450 C   0  0  0  0  0  0  0  0  0  0  0  0
   61.4050   31.1010   47.8010 C   0  0  0  0  0  0  0  0  0  0  0  0
   62.5370   31.7930   48.3580 N   0  0  0  0  0  0  0  0  0  0  0  0
   63.5360   32.4240   47.4870 C   0  0  0  0  0  0  0  0  0  0  0  0
   63.9890   33.7870   48.0600 C   0  0  0  0  0  0  0  0  0  0  0  0
   63.5410   34.0290   49.3860 O   0  0  0  0  0  0  0  0  0  0  0  0
   63.7560   32.8890   50.1910 C   0  0  0  0  0  0  0  0  0  0  0  0
   62.7500   31.8000   49.8100 C   0  0  0  0  0  0  0  0  0  0  0  0
   61.5220   30.4260   46.5750 C   0  0  0  0  0  0  0  0  0  0  0  0
   60.4090   29.8100   45.9980 C   0  0  0  0  0  0  0  0  0  0  0  0
   59.2170   32.6750   45.3990 O   0  0  0  0  0  0  0  0  0  0  0  0
   60.6552   34.2776   47.7578 H   0  0  0  0  0  0  0  0  0  0  0  0
   61.4568   33.6425   46.2811 H   0  0  0  0  0  0  0  0  0  0  0  0
   60.7539   35.2955   46.2811 H   0  0  0  0  0  0  0  0  0  0  0  0
   57.8555   35.0365   47.2020 H   0  0  0  0  0  0  0  0  0  0  0  0
   56.0824   33.4114   45.9584 H   0  0  0  0  0  0  0  0  0  0  0  0
   55.1250   29.0780   42.9030 H   0  0  0  0  0  0  0  0  0  0  0  0
   58.2315   27.7674   48.1938 H   0  0  0  0  0  0  0  0  0  0  0  0
   56.9201   26.6330   47.7035 H   0  0  0  0  0  0  0  0  0  0  0  0
   59.0533   26.4181   45.7790 H   0  0  0  0  0  0  0  0  0  0  0  0
   59.7650   26.3116   47.4385 H   0  0  0  0  0  0  0  0  0  0  0  0
   58.1484   24.7061   44.8630 H   0  0  0  0  0  0  0  0  0  0  0  0
   59.5695   23.8137   45.5419 H   0  0  0  0  0  0  0  0  0  0  0  0
   56.7589   22.9137   45.1399 H   0  0  0  0  0  0  0  0  0  0  0  0
   58.2926   21.9657   45.2376 H   0  0  0  0  0  0  0  0  0  0  0  0
   55.5069   23.2202   47.1107 H   0  0  0  0  0  0  0  0  0  0  0  0
   56.4338   23.1279   48.6740 H   0  0  0  0  0  0  0  0  0  0  0  0
   56.3408   25.2855   46.6630 H   0  0  0  0  0  0  0  0  0  0  0  0
   56.8969   25.3093   48.3771 H   0  0  0  0  0  0  0  0  0  0  0  0
   58.0745   30.5475   48.3841 H   0  0  0  0  0  0  0  0  0  0  0  0
   60.0545   31.6562   49.4093 H   0  0  0  0  0  0  0  0  0  0  0  0
   64.4097   31.7610   47.4025 H   0  0  0  0  0  0  0  0  0  0  0  0
   63.0830   32.5924   46.4988 H   0  0  0  0  0  0  0  0  0  0  0  0
   65.0886   33.8173   48.0545 H   0  0  0  0  0  0  0  0  0  0  0  0
   63.5431   34.5659   47.4241 H   0  0  0  0  0  0  0  0  0  0  0  0
   64.7785   32.5156   50.0327 H   0  0  0  0  0  0  0  0  0  0  0  0
   63.6240   33.1568   51.2497 H   0  0  0  0  0  0  0  0  0  0  0  0
   63.1383   30.8202   50.1251 H   0  0  0  0  0  0  0  0  0  0  0  0
   61.7929   32.0036   50.3124 H   0  0  0  0  0  0  0  0  0  0  0  0
   62.4962   30.3821   46.0660 H   0  0  0  0  0  0  0  0  0  0  0  0
   60.5112   29.2839   45.0374 H   0  0  0  0  0  0  0  0  0  0  0  0
  1  2  1  0
  2  3  2  0
  3  4  1  0
  4  5  2  0
  5  6  1  0
  6  7  2  0
  6  8  1  0
  8  9  1  0
  9 10  1  0
  9 11  2  0
 11 12  1  0
 11 13  1  0
 13 14  1  0
 14 15  1  0
 15 16  1  0
 16 17  1  0
 17 18  1  0
 18 19  1  0
 19 20  1  0
 20 21  1  0
 13 22  1  0
 22 23  1  0
 23 24  2  0
 24 25  1  0
 25 26  2  0
 26 27  1  0
 27 28  1  0
 28 29  1  0
 29 30  1  0
 30 31  1  0
 31 32  1  0
 26 33  1  0
 33 34  2  0
  5 35  1  0
 35  2  1  0
 22  8  2  0
 34 23  1  0
 21 16  1  0
 32 27  1  0
  1 36  1  0
  1 37  1  0
  1 38  1  0
  3 39  1  0
  4 40  1  0
 10 41  1  0
 14 42  1  0
 14 43  1  0
 15 44  1  0
 15 45  1  0
 17 46  1  0
 17 47  1  0
 18 48  1  0
 18 49  1  0
 20 50  1  0
 20 51  1  0
 21 52  1  0
 21 53  1  0
 24 54  1  0
 25 55  1  0
 28 56  1  0
 28 57  1  0
 29 58  1  0
 29 59  1  0
 31 60  1  0
 31 61  1  0
 32 62  1  0
 32 63  1  0
 33 64  1  0
 34 65  1  0
M  CHG  1  12  -1
M  END
>  <UniqueID>  (39) 
35

>  <SMILES>  (39) 
Cc1ccc(C(=O)c2c(O)c([O-])n(CCN3CCOCC3)c2-c2ccc(N3CCOCC3)cc2)o1

>  <Energy>  (39) 
145.91295483465717

>  <Genealogy>  (39) 
Cc1ccc(C(=O)c2c(O)c([O-])n(CCN3CCOCC3)c2-c2ccc(N3CCOCC3)cc2)o1 (protonated)
Cc1ccc(C(=O)c2c(O)c([O-])n(CCN3CCOCC3)c2-c2ccc(N3CCOCC3)cc2)o1 (3D coordinates assigned)
Cc1ccc(C(=O)c2c(O)c([O-])n(CCN3CCOCC3)c2-c2ccc(N3CCOCC3)cc2)o1 (nonaromatic ring conformer: 145.91295483465717 kcal/mol)

>  <smiles>  (39) 
Cc1ccc(C(=O)c2c(O)c(O)n(CCN3CCOCC3)c2-c2ccc(N3CCOCC3)cc2)o1

>  <score_type>  (39) 
oracle

>  <origin>  (39) 
adg

>  <m_score__min__energy>  (39) 
-11.82

>  <m_primary>  (39) 
energy

$$$$
39:0
     RDKit          3D

 45 47  0  0  1  0  0  0  0  0999 V2000
   54.0330   23.7200   44.9480 C   0  0  0  0  0  0  0  0  0  0  0  0
   54.2310   23.0200   46.2700 C   0  0  0  0  0  0  0  0  0  0  0  0
   54.9940   23.8210   47.2110 N   0  0  0  0  0  0  0  0  0  0  0  0
   56.0330   24.4780   46.8280 C   0  0  0  0  0  0  0  0  0  0  0  0
   56.0100   25.7880   46.6080 N   0  0  0  0  0  0  0  0  0  0  0  0
   57.0920   26.4990   46.2040 C   0  0  0  0  0  0  0  0  0  0  0  0
   59.3910   26.4450   45.6160 C   0  0  0  0  0  0  0  0  0  0  0  0
   59.2880   27.8150   45.4070 C   0  0  0  0  0  0  0  0  0  0  0  0
   58.1130   28.5100   45.5930 C   0  0  0  0  0  0  0  0  0  0  0  0
   57.9830   29.9450   45.3790 C   0  0  0  0  0  0  0  0  0  0  0  0
   58.4010   30.7890   46.3870 C   0  0  0  0  0  0  0  0  0  0  0  0
   58.3040   32.1770   46.2460 C   0  0  0  0  0  0  0  0  0  0  0  0
   57.7820   32.7100   45.0770 C   0  0  0  0  0  0  0  0  0  0  0  0
   57.6480   34.5020   44.8750 S   0  0  0  0  0  0  0  0  0  0  0  0
   59.2760   35.2290   45.2450 C   0  0  0  0  0  0  0  0  0  0  0  0
   57.3630   31.8670   44.0660 C   0  0  0  0  0  0  0  0  0  0  0  0
   57.4690   30.4990   44.2260 C   0  0  0  0  0  0  0  0  0  0  0  0
   57.0200   27.8390   45.9920 N   0  0  0  0  0  0  0  0  0  0  0  0
   58.2590   25.7830   46.0250 C   0  0  0  0  0  0  0  0  0  0  0  0
   58.3340   24.4540   46.2340 N   0  0  0  0  0  0  0  0  0  0  0  0
   57.2120   23.7920   46.6400 C   0  0  0  0  0  0  0  0  0  0  0  0
   57.3470   22.5280   46.8230 N   0  0  0  0  0  0  0  0  0  0  0  0
   57.6670   21.6550   45.7410 C   0  0  0  0  0  0  0  0  0  0  0  0
   57.3600   22.1510   44.3680 C   0  0  0  0  0  0  0  0  0  0  0  0
   53.7376   24.7644   45.1267 H   0  0  0  0  0  0  0  0  0  0  0  0
   54.9728   23.6974   44.3768 H   0  0  0  0  0  0  0  0  0  0  0  0
   53.2443   23.2085   44.3768 H   0  0  0  0  0  0  0  0  0  0  0  0
   53.2448   22.8050   46.7072 H   0  0  0  0  0  0  0  0  0  0  0  0
   54.7970   22.0963   46.0793 H   0  0  0  0  0  0  0  0  0  0  0  0
   55.1330   26.3030   46.7480 H   0  0  0  0  0  0  0  0  0  0  0  0
   60.3407   25.9122   45.4602 H   0  0  0  0  0  0  0  0  0  0  0  0
   60.1812   28.3672   45.0796 H   0  0  0  0  0  0  0  0  0  0  0  0
   58.8158   30.3649   47.3133 H   0  0  0  0  0  0  0  0  0  0  0  0
   58.6393   32.8410   47.0563 H   0  0  0  0  0  0  0  0  0  0  0  0
   59.4114   35.2895   46.3350 H   0  0  0  0  0  0  0  0  0  0  0  0
   60.0662   34.5983   44.8118 H   0  0  0  0  0  0  0  0  0  0  0  0
   59.3338   36.2384   44.8118 H   0  0  0  0  0  0  0  0  0  0  0  0
   56.9465   32.2835   43.1370 H   0  0  0  0  0  0  0  0  0  0  0  0
   57.1354   29.8360   43.4142 H   0  0  0  0  0  0  0  0  0  0  0  0
   59.2380   23.9520   46.0860 H   0  0  0  0  0  0  0  0  0  0  0  0
   58.7464   21.4482   45.7873 H   0  0  0  0  0  0  0  0  0  0  0  0
   57.0245   20.7732   45.8807 H   0  0  0  0  0  0  0  0  0  0  0  0
   56.7822   23.0845   44.4361 H   0  0  0  0  0  0  0  0  0  0  0  0
   58.2994   22.3398   43.8278 H   0  0  0  0  0  0  0  0  0  0  0  0
   56.7720   21.3944   43.8278 H   0  0  0  0  0  0  0  0  0  0  0  0
  1  2  1  0
  2  3  1  0
  3  4  2  0
  4  5  1  0
  5  6  1  0
  6  7  2  0
  7  8  1  0
  8  9  2  0
  9 10  1  0
 10 11  2  0
 11 12  1  0
 12 13  2  0
 13 14  1  0
 14 15  1  0
 13 16  1  0
 16 17  2  0
  9 18  1  0
 18 19  2  0
 19 20  1  0
 20 21  1  0
 21 22  2  0
 22 23  1  0
 23 24  1  0
 21  4  1  0
 19  6  1  0
 17 10  1  0
  1 25  1  0
  1 26  1  0
  1 27  1  0
  2 28  1  0
  2 29  1  0
  5 30  1  0
  7 31  1  0
  8 32  1  0
 11 33  1  0
 12 34  1  0
 15 35  1  0
 15 36  1  0
 15 37  1  0
 16 38  1  0
 17 39  1  0
 20 40  1  0
 23 41  1  0
 23 42  1  0
 24 43  1  0
 24 44  1  0
 24 45  1  0
M  END
>  <smiles>  (40) 
CCN=c1[nH]c2ccc(-c3ccc(SC)cc3)nc2[nH]c1=NCC

>  <score_type>  (40) 
oracle

>  <origin>  (40) 
adg

>  <m_score__min__energy>  (40) 
-7.1900000000000004

>  <m_primary>  (40) 
energy

$$$$
40:0
     RDKit          3D

 44 47  0  0  0  0  0  0  0  0999 V2000
   55.7220   28.6200   45.2180 O   0  0  0  0  0  0  0  0  0  0  0  0
   56.3510   29.6670   44.9040 C   0  0  0  0  0  0  0  0  0  0  0  0
   55.8890   30.4680   43.7230 C   0  0  0  0  0  0  0  0  0  0  0  0
   57.3470   30.9960   42.7730 S   0  0  0  0  0  0  0  0  0  0  0  0
   57.9940   31.9630   44.1410 C   0  0  0  0  0  0  0  0  0  0  0  0
   58.4260   33.2740   43.9150 C   0  0  0  0  0  0  0  0  0  0  0  0
   58.9520   34.0290   44.9640 C   0  0  0  0  0  0  0  0  0  0  0  0
   59.0300   33.4830   46.2470 C   0  0  0  0  0  0  0  0  0  0  0  0
   58.5770   32.1830   46.4860 C   0  0  0  0  0  0  0  0  0  0  0  0
   58.0570   31.4050   45.4340 C   0  0  0  0  0  0  0  0  0  0  0  0
   57.4910   30.0970   45.6820 N   0  0  0  0  0  0  0  0  0  0  0  0
   58.2200   29.1170   46.5010 C   0  0  0  0  0  0  0  0  0  0  0  0
   58.0280   27.7380   45.9310 C   0  0  0  0  0  0  0  0  0  0  0  0
   57.4310   26.7310   46.7000 C   0  0  0  0  0  0  0  0  0  0  0  0
   57.2000   25.4660   46.1540 C   0  0  0  0  0  0  0  0  0  0  0  0
   57.5550   25.1700   44.8160 C   0  0  0  0  0  0  0  0  0  0  0  0
   57.3140   23.8470   44.2430 N   0  0  0  0  0  0  0  0  0  0  0  0
   57.9420   22.6620   44.8660 C   0  0  0  0  0  0  0  0  0  0  0  0
   57.6700   21.3570   44.1140 C   0  0  0  0  0  0  0  0  0  0  0  0
   56.3530   21.3240   43.6190 O   0  0  0  0  0  0  0  0  0  0  0  0
   56.2420   22.2780   42.5900 C   0  0  0  0  0  0  0  0  0  0  0  0
   56.3320   23.7010   43.1480 C   0  0  0  0  0  0  0  0  0  0  0  0
   58.1380   26.2070   44.0510 C   0  0  0  0  0  0  0  0  0  0  0  0
   58.3670   27.4710   44.6010 C   0  0  0  0  0  0  0  0  0  0  0  0
   55.2372   29.8498   43.0882 H   0  0  0  0  0  0  0  0  0  0  0  0
   55.3240   31.3481   44.0640 H   0  0  0  0  0  0  0  0  0  0  0  0
   58.3509   33.7108   42.9082 H   0  0  0  0  0  0  0  0  0  0  0  0
   59.3053   35.0544   44.7803 H   0  0  0  0  0  0  0  0  0  0  0  0
   59.4492   34.0780   47.0717 H   0  0  0  0  0  0  0  0  0  0  0  0
   58.6269   31.7649   47.5022 H   0  0  0  0  0  0  0  0  0  0  0  0
   59.2914   29.3663   46.5024 H   0  0  0  0  0  0  0  0  0  0  0  0
   57.8337   29.1430   47.5306 H   0  0  0  0  0  0  0  0  0  0  0  0
   57.1420   26.9376   47.7411 H   0  0  0  0  0  0  0  0  0  0  0  0
   56.7341   24.6864   46.7746 H   0  0  0  0  0  0  0  0  0  0  0  0
   59.0296   22.8229   44.9009 H   0  0  0  0  0  0  0  0  0  0  0  0
   57.5024   22.5539   45.8685 H   0  0  0  0  0  0  0  0  0  0  0  0
   58.3728   21.2742   43.2718 H   0  0  0  0  0  0  0  0  0  0  0  0
   57.8028   20.5169   44.8116 H   0  0  0  0  0  0  0  0  0  0  0  0
   57.0562   22.1232   41.8668 H   0  0  0  0  0  0  0  0  0  0  0  0
   55.2639   22.1545   42.1020 H   0  0  0  0  0  0  0  0  0  0  0  0
   56.6203   24.3776   42.3300 H   0  0  0  0  0  0  0  0  0  0  0  0
   55.3445   23.9463   43.5659 H   0  0  0  0  0  0  0  0  0  0  0  0
   58.4162   26.0150   43.0042 H   0  0  0  0  0  0  0  0  0  0  0  0
   58.8173   28.2618   43.9831 H   0  0  0  0  0  0  0  0  0  0  0  0
  1  2  2  0
  2  3  1  0
  3  4  1  0
  4  5  1  0
  5  6  2  0
  6  7  1  0
  7  8  2  0
  8  9  1  0
  9 10  2  0
 10 11  1  0
 11 12  1  0
 12 13  1  0
 13 14  2  0
 14 15  1  0
 15 16  2  0
 16 17  1  0
 17 18  1  0
 18 19  1  0
 19 20  1  0
 20 21  1  0
 21 22  1  0
 16 23  1  0
 23 24  2  0
 11  2  1  0
 24 13  1  0
 10  5  1  0
 22 17  1  0
  3 25  1  0
  3 26  1  0
  6 27  1  0
  7 28  1  0
  8 29  1  0
  9 30  1  0
 12 31  1  0
 12 32  1  0
 14 33  1  0
 15 34  1  0
 18 35  1  0
 18 36  1  0
 19 37  1  0
 19 38  1  0
 21 39  1  0
 21 40  1  0
 22 41  1  0
 22 42  1  0
 23 43  1  0
 24 44  1  0
M  END
>  <UniqueID>  (41) 
36

>  <SMILES>  (41) 
O=C1CSc2ccccc2N1Cc1ccc(N2CCOCC2)cc1

>  <Energy>  (41) 
61.00735747994233

>  <Genealogy>  (41) 
O=C1CSc2ccccc2N1Cc1ccc(N2CCOCC2)cc1 (3D coordinates assigned)
O=C1CSc2ccccc2N1Cc1ccc(N2CCOCC2)cc1 (nonaromatic ring conformer: 61.00735747994233 kcal/mol)

>  <smiles>  (41) 
O=C1CSc2ccccc2N1Cc1ccc(N2CCOCC2)cc1

>  <score_type>  (41) 
oracle

>  <origin>  (41) 
adg

>  <m_score__min__energy>  (41) 
-8.5500000000000007

>  <m_primary>  (41) 
energy

$$$$
41:0
     RDKit          3D

 33 35  0  0  0  0  0  0  0  0999 V2000
   58.9732   25.1591   47.8407 H   0  0  0  0  0  0  0  0  0  0  0  0
   58.4560   25.9700   47.3070 C   0  0  0  0  0  0  0  0  0  0  0  0
   57.1120   25.8340   46.9750 C   0  0  0  0  0  0  0  0  0  0  0  0
   56.5721   24.9164   47.2517 H   0  0  0  0  0  0  0  0  0  0  0  0
   56.4420   26.8530   46.2930 C   0  0  0  0  0  0  0  0  0  0  0  0
   55.0990   26.6660   45.9810 O   0  0  0  0  0  0  0  0  0  0  0  0
   57.1260   28.0390   45.9350 C   0  0  0  0  0  0  0  0  0  0  0  0
   56.4870   29.0900   45.2330 C   0  0  0  0  0  0  0  0  0  0  0  0
   55.1470   29.0090   44.8670 O   0  0  0  0  0  0  0  0  0  0  0  0
   57.2000   30.2380   44.8850 C   0  0  0  0  0  0  0  0  0  0  0  0
   56.6976   31.0444   44.3306 H   0  0  0  0  0  0  0  0  0  0  0  0
   58.5410   30.3720   45.2330 C   0  0  0  0  0  0  0  0  0  0  0  0
   59.0930   31.2764   44.9373 H   0  0  0  0  0  0  0  0  0  0  0  0
   59.1920   29.3690   45.9540 C   0  0  0  0  0  0  0  0  0  0  0  0
   60.5770   29.5440   46.2750 N   0  0  0  0  0  0  0  0  0  0  0  0
   61.0650   30.2010   47.2890 C   0  0  0  0  0  0  0  0  0  0  0  0
   60.7550   29.9750   48.6640 N   0  0  0  0  0  0  0  0  0  0  0  0
   59.5950   29.2670   49.2030 C   0  0  0  0  0  0  0  0  0  0  0  0
   59.6304   29.2886   50.3022 H   0  0  0  0  0  0  0  0  0  0  0  0
   58.6730   29.7565   48.8562 H   0  0  0  0  0  0  0  0  0  0  0  0
   59.6088   28.2232   48.8562 H   0  0  0  0  0  0  0  0  0  0  0  0
   61.5580   30.8660   49.4850 C   0  0  0  0  0  0  0  0  0  0  0  0
   60.9172   31.6155   49.9725 H   0  0  0  0  0  0  0  0  0  0  0  0
   62.0823   30.3139   50.2789 H   0  0  0  0  0  0  0  0  0  0  0  0
   62.5510   31.5530   48.5330 C   0  0  0  0  0  0  0  0  0  0  0  0
   62.5697   32.6363   48.7228 H   0  0  0  0  0  0  0  0  0  0  0  0
   63.5708   31.1687   48.6823 H   0  0  0  0  0  0  0  0  0  0  0  0
   62.0630   31.2760   47.1090 C   0  0  0  0  0  0  0  0  0  0  0  0
   61.6004   32.1725   46.6706 H   0  0  0  0  0  0  0  0  0  0  0  0
   62.8768   30.9947   46.4245 H   0  0  0  0  0  0  0  0  0  0  0  0
   58.5010   28.1800   46.2870 C   0  0  0  0  0  0  0  0  0  0  0  0
   59.1500   27.1300   46.9660 C   0  0  0  0  0  0  0  0  0  0  0  0
   60.2136   27.2263   47.2294 H   0  0  0  0  0  0  0  0  0  0  0  0
  1  2  1  0
  2  3  2  0
  3  4  1  0
  3  5  1  0
  5  6  1  0
  5  7  2  0
  7  8  1  0
  8  9  1  0
  8 10  2  0
 10 11  1  0
 10 12  1  0
 12 13  1  0
 12 14  2  0
 14 15  1  0
 15 16  2  0
 16 17  1  0
 17 18  1  0
 18 19  1  0
 18 20  1  0
 18 21  1  0
 17 22  1  0
 22 23  1  0
 22 24  1  0
 22 25  1  0
 25 26  1  0
 25 27  1  0
 25 28  1  0
 28 29  1  0
 28 30  1  0
 14 31  1  0
 31 32  2  0
 32 33  1  0
 32  2  1  0
 31  7  1  0
 28 16  1  0
M  CHG  2   6  -1   9  -1
M  END
>  <UniqueID>  (42) 
37

>  <SMILES>  (42) 
CN1CCC/C1=N/c1ccc([O-])c2c([O-])cccc12

>  <Energy>  (42) 
56.761886830838364

>  <Genealogy>  (42) 
CN1CCCC1=Nc1ccc([O-])c2c([O-])cccc12 (protonated)
CN1CCC/C1=N/c1ccc([O-])c2c([O-])cccc12 (cis-trans isomerization)
CN1CCC/C1=N/c1ccc([O-])c2c([O-])cccc12 (3D coordinates assigned)
CN1CCC/C1=N/c1ccc([O-])c2c([O-])cccc12 (nonaromatic ring conformer: 56.761886830838364 kcal/mol)

>  <smiles>  (42) 
CN1CCCC1=Nc1ccc(O)c2c(O)cccc12

>  <score_type>  (42) 
oracle

>  <origin>  (42) 
adg

>  <m_score__min__energy>  (42) 
-14.289999999999999

>  <m_primary>  (42) 
energy

$$$$
42:0
     RDKit          3D

 47 50  0  0  0  0  0  0  0  0999 V2000
   63.6610   33.1410   47.5040 C   0  0  0  0  0  0  0  0  0  0  0  0
   62.6660   33.8380   46.5840 C   0  0  0  0  0  0  0  0  0  0  0  0
   61.2990   33.5320   46.9960 N   0  0  0  0  0  0  0  0  0  0  0  0
   60.3700   34.4390   47.2800 N   0  0  0  0  0  0  0  0  0  0  0  0
   59.1930   33.8150   47.5340 C   0  0  0  0  0  0  0  0  0  0  0  0
   59.4020   32.4590   47.3870 C   0  0  0  0  0  0  0  0  0  0  0  0
   58.5640   31.3570   47.4850 C   0  0  0  0  0  0  0  0  0  0  0  0
   59.1270   30.0870   47.2260 C   0  0  0  0  0  0  0  0  0  0  0  0
   58.2690   28.8520   47.2650 C   0  0  0  0  0  0  0  0  0  0  0  0
   57.6340   28.6330   45.9580 N   0  0  0  0  0  0  0  0  0  0  0  0
   57.4610   29.7790   45.0530 C   0  0  0  0  0  0  0  0  0  0  0  0
   56.2720   29.5600   44.1160 C   0  0  0  0  0  0  0  0  0  0  0  0
   55.1460   29.1840   44.8580 O   0  0  0  0  0  0  0  0  0  0  0  0
   57.3020   27.2980   45.5130 C   0  0  0  0  0  0  0  0  0  0  0  0
   56.2230   26.6500   46.0300 N   0  0  0  0  0  0  0  0  0  0  0  0
   55.8930   25.3950   45.6320 C   0  0  0  0  0  0  0  0  0  0  0  0
   56.6660   24.7330   44.6670 C   0  0  0  0  0  0  0  0  0  0  0  0
   56.3240   23.3630   44.2100 C   0  0  0  0  0  0  0  0  0  0  0  0
   56.2670   22.8920   42.9120 C   0  0  0  0  0  0  0  0  0  0  0  0
   55.9250   21.5910   42.9270 N   0  0  0  0  0  0  0  0  0  0  0  0
   55.7580   21.2130   44.1850 N   0  0  0  0  0  0  0  0  0  0  0  0
   55.9940   22.2690   44.9870 C   0  0  0  0  0  0  0  0  0  0  0  0
   57.7720   25.4190   44.1450 C   0  0  0  0  0  0  0  0  0  0  0  0
   58.0640   26.6740   44.5750 N   0  0  0  0  0  0  0  0  0  0  0  0
   60.5020   29.9970   46.8720 C   0  0  0  0  0  0  0  0  0  0  0  0
   61.2790   31.1200   46.7860 N   0  0  0  0  0  0  0  0  0  0  0  0
   60.7140   32.3230   47.0500 C   0  0  0  0  0  0  0  0  0  0  0  0
   63.3876   33.3325   48.5521 H   0  0  0  0  0  0  0  0  0  0  0  0
   63.6415   32.0581   47.3120 H   0  0  0  0  0  0  0  0  0  0  0  0
   64.6721   33.5293   47.3120 H   0  0  0  0  0  0  0  0  0  0  0  0
   62.8256   34.9253   46.6331 H   0  0  0  0  0  0  0  0  0  0  0  0
   62.8189   33.4823   45.5544 H   0  0  0  0  0  0  0  0  0  0  0  0
   60.5300   35.4720   47.2890 H   0  0  0  0  0  0  0  0  0  0  0  0
   58.2448   34.3011   47.8073 H   0  0  0  0  0  0  0  0  0  0  0  0
   57.5031   31.4678   47.7538 H   0  0  0  0  0  0  0  0  0  0  0  0
   58.8949   27.9826   47.5150 H   0  0  0  0  0  0  0  0  0  0  0  0
   57.4862   28.9830   48.0266 H   0  0  0  0  0  0  0  0  0  0  0  0
   57.2867   30.6863   45.6501 H   0  0  0  0  0  0  0  0  0  0  0  0
   58.3717   29.8878   44.4457 H   0  0  0  0  0  0  0  0  0  0  0  0
   56.0574   30.4930   43.5743 H   0  0  0  0  0  0  0  0  0  0  0  0
   56.5170   28.7627   43.3988 H   0  0  0  0  0  0  0  0  0  0  0  0
   55.1510   28.1910   44.8810 H   0  0  0  0  0  0  0  0  0  0  0  0
   55.0156   24.8950   46.0681 H   0  0  0  0  0  0  0  0  0  0  0  0
   56.4693   23.4869   42.0092 H   0  0  0  0  0  0  0  0  0  0  0  0
   55.9337   22.2617   46.0853 H   0  0  0  0  0  0  0  0  0  0  0  0
   58.4055   24.9391   43.3845 H   0  0  0  0  0  0  0  0  0  0  0  0
   60.9461   29.0122   46.6648 H   0  0  0  0  0  0  0  0  0  0  0  0
  1  2  1  0
  2  3  1  0
  3  4  1  0
  4  5  2  0
  5  6  1  0
  6  7  2  0
  7  8  1  0
  8  9  1  0
  9 10  1  0
 10 11  1  0
 11 12  1  0
 12 13  1  0
 10 14  1  0
 14 15  2  0
 15 16  1  0
 16 17  2  0
 17 18  1  0
 18 19  1  0
 19 20  2  0
 20 21  1  0
 21 22  1  0
 17 23  1  0
 23 24  2  0
  8 25  2  0
 25 26  1  0
 26 27  2  0
 27  3  1  0
 27  6  1  0
 24 14  1  0
 22 18  2  0
  1 28  1  0
  1 29  1  0
  1 30  1  0
  2 31  1  0
  2 32  1  0
  4 33  1  0
  5 34  1  0
  7 35  1  0
  9 36  1  0
  9 37  1  0
 11 38  1  0
 11 39  1  0
 12 40  1  0
 12 41  1  0
 13 42  1  0
 16 43  1  0
 19 44  1  0
 22 45  1  0
 23 46  1  0
 25 47  1  0
M  CHG  2   4   1  21  -1
M  END
>  <UniqueID>  (43) 
38

>  <SMILES>  (43) 
CCn1[nH+]cc2cc(CN(CCO)c3ncc(-c4cn[n-]c4)cn3)cnc21

>  <Energy>  (43) 
116.69741673616146

>  <Genealogy>  (43) 
CCn1[nH+]cc2cc(CN(CCO)c3ncc(-c4cn[n-]c4)cn3)cnc21 (protonated)
CCn1[nH+]cc2cc(CN(CCO)c3ncc(-c4cn[n-]c4)cn3)cnc21 (3D coordinates assigned)
CCn1[nH+]cc2cc(CN(CCO)c3ncc(-c4cn[n-]c4)cn3)cnc21 (optimized conformer: 116.69741673616146 kcal/mol)

>  <smiles>  (43) 
CCn1ncc2cc(CN(CCO)c3ncc(-c4cn[nH]c4)cn3)cnc21

>  <score_type>  (43) 
oracle

>  <origin>  (43) 
adg

>  <m_score__min__energy>  (43) 
-8.5099999999999998

>  <m_primary>  (43) 
energy

$$$$
43:0
     RDKit          3D

 41 43  0  0  0  0  0  0  0  0999 V2000
   59.4430   28.3480   44.9330 C   0  0  0  0  0  0  0  0  0  0  0  0
   58.1090   27.7280   44.9140 N   0  0  0  0  0  0  0  0  0  0  0  0
   56.9800   28.6810   45.0120 C   0  0  0  0  0  0  0  0  0  0  0  0
   57.2820   30.0520   44.4510 C   0  0  0  0  0  0  0  0  0  0  0  0
   57.0580   30.3200   43.0930 C   0  0  0  0  0  0  0  0  0  0  0  0
   57.3220   31.5870   42.5720 C   0  0  0  0  0  0  0  0  0  0  0  0
   57.8210   32.5960   43.3970 C   0  0  0  0  0  0  0  0  0  0  0  0
   58.0800   32.3470   44.7590 C   0  0  0  0  0  0  0  0  0  0  0  0
   58.6020   33.3890   45.6150 N   0  0  0  0  0  0  0  0  0  0  0  0
   58.3460   33.4710   47.0460 C   0  0  0  0  0  0  0  0  0  0  0  0
   59.2320   34.5940   47.5660 C   0  0  0  0  0  0  0  0  0  0  0  0
   59.6360   35.4040   46.3410 C   0  0  0  0  0  0  0  0  0  0  0  0
   59.4620   34.4690   45.1520 C   0  0  0  0  0  0  0  0  0  0  0  0
   57.8190   31.0590   45.2690 C   0  0  0  0  0  0  0  0  0  0  0  0
   57.9790   26.4770   45.6940 C   0  0  0  0  0  0  0  0  0  0  0  0
   56.6160   25.8360   45.6190 C   0  0  0  0  0  0  0  0  0  0  0  0
   56.3370   24.5980   45.0760 C   0  0  0  0  0  0  0  0  0  0  0  0
   54.9950   24.4200   45.3270 C   0  0  0  0  0  0  0  0  0  0  0  0
   54.5530   25.4660   45.9860 O   0  0  0  0  0  0  0  0  0  0  0  0
   55.5030   26.3310   46.1920 N   0  0  0  0  0  0  0  0  0  0  0  0
   59.7633   28.4969   45.9747 H   0  0  0  0  0  0  0  0  0  0  0  0
   60.1601   27.6909   44.4192 H   0  0  0  0  0  0  0  0  0  0  0  0
   59.4030   29.3198   44.4192 H   0  0  0  0  0  0  0  0  0  0  0  0
   56.1251   28.2623   44.4607 H   0  0  0  0  0  0  0  0  0  0  0  0
   56.7687   28.8150   46.0832 H   0  0  0  0  0  0  0  0  0  0  0  0
   56.6722   29.5273   42.4352 H   0  0  0  0  0  0  0  0  0  0  0  0
   57.1362   31.7914   41.5072 H   0  0  0  0  0  0  0  0  0  0  0  0
   58.0139   33.5953   42.9796 H   0  0  0  0  0  0  0  0  0  0  0  0
   57.2868   33.7021   47.2323 H   0  0  0  0  0  0  0  0  0  0  0  0
   58.5650   32.5182   47.5501 H   0  0  0  0  0  0  0  0  0  0  0  0
   58.6753   35.2240   48.2754 H   0  0  0  0  0  0  0  0  0  0  0  0
   60.1101   34.2027   48.1006 H   0  0  0  0  0  0  0  0  0  0  0  0
   58.9873   36.2858   46.2334 H   0  0  0  0  0  0  0  0  0  0  0  0
   60.6699   35.7712   46.4204 H   0  0  0  0  0  0  0  0  0  0  0  0
   58.9898   35.0010   44.3130 H   0  0  0  0  0  0  0  0  0  0  0  0
   60.4296   34.0886   44.7929 H   0  0  0  0  0  0  0  0  0  0  0  0
   58.0394   30.8394   46.3241 H   0  0  0  0  0  0  0  0  0  0  0  0
   58.7194   25.7569   45.3155 H   0  0  0  0  0  0  0  0  0  0  0  0
   58.1426   26.7454   46.7481 H   0  0  0  0  0  0  0  0  0  0  0  0
   57.0269   23.9126   44.5619 H   0  0  0  0  0  0  0  0  0  0  0  0
   54.3946   23.5487   45.0263 H   0  0  0  0  0  0  0  0  0  0  0  0
  1  2  1  0
  2  3  1  0
  3  4  1  0
  4  5  2  0
  5  6  1  0
  6  7  2  0
  7  8  1  0
  8  9  1  0
  9 10  1  0
 10 11  1  0
 11 12  1  0
 12 13  1  0
  8 14  2  0
  2 15  1  0
 15 16  1  0
 16 17  1  0
 17 18  2  0
 18 19  1  0
 19 20  1  0
 14  4  1  0
 20 16  2  0
 13  9  1  0
  1 21  1  0
  1 22  1  0
  1 23  1  0
  3 24  1  0
  3 25  1  0
  5 26  1  0
  6 27  1  0
  7 28  1  0
 10 29  1  0
 10 30  1  0
 11 31  1  0
 11 32  1  0
 12 33  1  0
 12 34  1  0
 13 35  1  0
 13 36  1  0
 14 37  1  0
 15 38  1  0
 15 39  1  0
 17 40  1  0
 18 41  1  0
M  END
>  <UniqueID>  (44) 
39

>  <SMILES>  (44) 
CN(Cc1cccc(N2CCCC2)c1)Cc1ccon1

>  <Energy>  (44) 
79.02732518714333

>  <Genealogy>  (44) 
CN(Cc1cccc(N2CCCC2)c1)Cc1ccon1 (3D coordinates assigned)
CN(Cc1cccc(N2CCCC2)c1)Cc1ccon1 (nonaromatic ring conformer: 79.02732518714333 kcal/mol)

>  <smiles>  (44) 
CN(Cc1cccc(N2CCCC2)c1)Cc1ccon1

>  <score_type>  (44) 
oracle

>  <origin>  (44) 
adg

>  <m_score__min__energy>  (44) 
-7.8099999999999996

>  <m_primary>  (44) 
energy

$$$$
44:0
     RDKit          3D

 45 47  0  0  0  0  0  0  0  0999 V2000
   55.1730   24.0990   44.5070 C   0  0  0  0  0  0  0  0  0  0  0  0
   54.4380   24.8020   45.6430 C   0  0  0  0  0  0  0  0  0  0  0  0
   54.9850   26.1000   45.8740 O   0  0  0  0  0  0  0  0  0  0  0  0
   56.3510   26.4050   46.0020 C   0  0  0  0  0  0  0  0  0  0  0  0
   57.2960   25.4620   46.4540 C   0  0  0  0  0  0  0  0  0  0  0  0
   58.6410   25.8160   46.5820 C   0  0  0  0  0  0  0  0  0  0  0  0
   59.0580   27.1100   46.2660 C   0  0  0  0  0  0  0  0  0  0  0  0
   58.1320   28.0480   45.8040 C   0  0  0  0  0  0  0  0  0  0  0  0
   56.7810   27.6960   45.6510 C   0  0  0  0  0  0  0  0  0  0  0  0
   55.8110   28.6690   45.2430 N   0  0  0  0  0  0  0  0  0  0  0  0
   55.9460   29.6110   44.1720 C   0  0  0  0  0  0  0  0  0  0  0  0
   54.9000   30.0870   43.6550 O   0  0  0  0  0  0  0  0  0  0  0  0
   57.2770   29.8860   43.5260 C   0  0  0  0  0  0  0  0  0  0  0  0
   57.5540   31.6790   43.2850 S   0  0  0  0  0  0  0  0  0  0  0  0
   57.9640   32.0070   45.0010 C   0  0  0  0  0  0  0  0  0  0  0  0
   58.6390   31.0760   45.7160 N   0  0  0  0  0  0  0  0  0  0  0  0
   58.9660   31.2610   46.9990 N   0  0  0  0  0  0  0  0  0  0  0  0
   58.6010   32.4230   47.6370 C   0  0  0  0  0  0  0  0  0  0  0  0
   57.9490   33.3810   46.9260 N   0  0  0  0  0  0  0  0  0  0  0  0
   57.6230   33.2040   45.6240 C   0  0  0  0  0  0  0  0  0  0  0  0
   57.0180   34.1130   44.9980 O   0  0  0  0  0  0  0  0  0  0  0  0
   58.9170   32.7490   49.0520 C   0  0  0  0  0  0  0  0  0  0  0  0
   59.1760   31.9330   50.0910 C   0  0  0  0  0  0  0  0  0  0  0  0
   59.3070   30.4310   50.1260 C   0  0  0  0  0  0  0  0  0  0  0  0
   58.9360   29.6790   48.8560 C   0  0  0  0  0  0  0  0  0  0  0  0
   59.7200   30.2020   47.6600 C   0  0  0  0  0  0  0  0  0  0  0  0
   55.9081   23.3959   44.9256 H   0  0  0  0  0  0  0  0  0  0  0  0
   54.4498   23.5479   43.8879 H   0  0  0  0  0  0  0  0  0  0  0  0
   55.6914   24.8460   43.8879 H   0  0  0  0  0  0  0  0  0  0  0  0
   53.3749   24.9006   45.3782 H   0  0  0  0  0  0  0  0  0  0  0  0
   54.5505   24.2038   46.5592 H   0  0  0  0  0  0  0  0  0  0  0  0
   56.9724   24.4416   46.7073 H   0  0  0  0  0  0  0  0  0  0  0  0
   59.3731   25.0736   46.9325 H   0  0  0  0  0  0  0  0  0  0  0  0
   60.1153   27.3909   46.3808 H   0  0  0  0  0  0  0  0  0  0  0  0
   58.4626   29.0680   45.5586 H   0  0  0  0  0  0  0  0  0  0  0  0
   58.0748   29.4851   44.1685 H   0  0  0  0  0  0  0  0  0  0  0  0
   57.2858   29.4016   42.5384 H   0  0  0  0  0  0  0  0  0  0  0  0
   58.9434   33.8233   49.2868 H   0  0  0  0  0  0  0  0  0  0  0  0
   59.3125   32.4372   51.0591 H   0  0  0  0  0  0  0  0  0  0  0  0
   60.3557   30.1940   50.3585 H   0  0  0  0  0  0  0  0  0  0  0  0
   58.5799   30.0967   50.8807 H   0  0  0  0  0  0  0  0  0  0  0  0
   59.1597   28.6107   48.9928 H   0  0  0  0  0  0  0  0  0  0  0  0
   57.8634   29.8279   48.6627 H   0  0  0  0  0  0  0  0  0  0  0  0
   60.6860   30.6011   48.0030 H   0  0  0  0  0  0  0  0  0  0  0  0
   59.8896   29.3795   46.9495 H   0  0  0  0  0  0  0  0  0  0  0  0
  1  2  1  0
  2  3  1  0
  3  4  1  0
  4  5  2  0
  5  6  1  0
  6  7  2  0
  7  8  1  0
  8  9  2  0
  9 10  1  0
 10 11  1  0
 11 12  2  0
 11 13  1  0
 13 14  1  0
 14 15  1  0
 15 16  2  0
 16 17  1  0
 17 18  1  0
 18 19  2  0
 19 20  1  0
 20 21  2  0
 18 22  1  0
 22 23  2  0
 23 24  1  0
 24 25  1  0
 25 26  1  0
  9  4  1  0
 20 15  1  0
 26 17  1  0
  1 27  1  0
  1 28  1  0
  1 29  1  0
  2 30  1  0
  2 31  1  0
  5 32  1  0
  6 33  1  0
  7 34  1  0
  8 35  1  0
 13 36  1  0
 13 37  1  0
 22 38  1  0
 23 39  1  0
 24 40  1  0
 24 41  1  0
 25 42  1  0
 25 43  1  0
 26 44  1  0
 26 45  1  0
M  CHG  1  10  -1
M  END
>  <UniqueID>  (45) 
40

>  <SMILES>  (45) 
CCOc1ccccc1[N-]C(=O)CSc1nn2c(nc1=O)C=CCCC2

>  <Energy>  (45) 
58.07743213108987

>  <Genealogy>  (45) 
CCOc1ccccc1[N-]C(=O)CSc1nn2c(nc1=O)C=CCCC2 (protonated)
CCOc1ccccc1[N-]C(=O)CSc1nn2c(nc1=O)C=CCCC2 (3D coordinates assigned)
CCOc1ccccc1[N-]C(=O)CSc1nn2c(nc1=O)C=CCCC2 (nonaromatic ring conformer: 58.07743213108987 kcal/mol)

>  <smiles>  (45) 
CCOc1ccccc1NC(=O)CSc1nn2c(nc1=O)C=CCCC2

>  <score_type>  (45) 
oracle

>  <origin>  (45) 
adg

>  <m_score__min__energy>  (45) 
-8.8399999999999999

>  <m_primary>  (45) 
energy

$$$$
45:0
     RDKit          3D

 32 33  0  0  0  0  0  0  0  0999 V2000
   55.5500   25.4820   45.7730 C   0  0  0  0  0  0  0  0  0  0  0  0
   55.5160   26.9050   45.7080 O   0  0  0  0  0  0  0  0  0  0  0  0
   56.6540   27.7210   45.6210 C   0  0  0  0  0  0  0  0  0  0  0  0
   57.8250   27.2960   46.2580 C   0  0  0  0  0  0  0  0  0  0  0  0
   58.9850   28.0730   46.1990 C   0  0  0  0  0  0  0  0  0  0  0  0
   58.9830   29.2850   45.5050 C   0  0  0  0  0  0  0  0  0  0  0  0
   57.8150   29.7360   44.8710 C   0  0  0  0  0  0  0  0  0  0  0  0
   57.8000   30.9840   44.1580 N   0  0  0  0  0  0  0  0  0  0  0  0
   57.7640   31.1090   42.8440 N   0  0  0  0  0  0  0  0  0  0  0  0
   57.7570   32.3900   42.5150 N   0  0  0  0  0  0  0  0  0  0  0  0
   57.7760   33.1280   43.6170 N   0  0  0  0  0  0  0  0  0  0  0  0
   57.7990   32.2450   44.6350 C   0  0  0  0  0  0  0  0  0  0  0  0
   57.7490   32.7220   46.3670 S   0  0  0  0  0  0  0  0  0  0  0  0
   59.3590   33.5970   46.3560 C   0  0  0  0  0  0  0  0  0  0  0  0
   59.7910   33.8530   47.7990 C   0  0  0  0  0  0  0  0  0  0  0  0
   59.2520   34.9160   45.5870 C   0  0  0  0  0  0  0  0  0  0  0  0
   56.6560   28.9430   44.9210 C   0  0  0  0  0  0  0  0  0  0  0  0
   55.5576   25.1631   46.8257 H   0  0  0  0  0  0  0  0  0  0  0  0
   54.6614   25.0707   45.2717 H   0  0  0  0  0  0  0  0  0  0  0  0
   56.4572   25.1136   45.2717 H   0  0  0  0  0  0  0  0  0  0  0  0
   57.8326   26.3439   46.8089 H   0  0  0  0  0  0  0  0  0  0  0  0
   59.9018   27.7292   46.7003 H   0  0  0  0  0  0  0  0  0  0  0  0
   59.9011   29.8888   45.4551 H   0  0  0  0  0  0  0  0  0  0  0  0
   57.7620   30.3210   42.1570 H   0  0  0  0  0  0  0  0  0  0  0  0
   60.1110   32.9737   45.8500 H   0  0  0  0  0  0  0  0  0  0  0  0
   59.0520   33.4151   48.4861 H   0  0  0  0  0  0  0  0  0  0  0  0
   60.7739   33.3914   47.9749 H   0  0  0  0  0  0  0  0  0  0  0  0
   59.8581   34.9368   47.9749 H   0  0  0  0  0  0  0  0  0  0  0  0
   59.1842   35.7513   46.2995 H   0  0  0  0  0  0  0  0  0  0  0  0
   60.1426   35.0449   44.9544 H   0  0  0  0  0  0  0  0  0  0  0  0
   58.3522   34.8997   44.9544 H   0  0  0  0  0  0  0  0  0  0  0  0
   55.7425   29.2796   44.4090 H   0  0  0  0  0  0  0  0  0  0  0  0
  1  2  1  0
  2  3  1  0
  3  4  2  0
  4  5  1  0
  5  6  2  0
  6  7  1  0
  7  8  1  0
  8  9  1  0
  9 10  2  0
 10 11  1  0
 11 12  2  0
 12 13  1  0
 13 14  1  0
 14 15  1  0
 14 16  1  0
  7 17  2  0
 17  3  1  0
 12  8  1  0
  1 18  1  0
  1 19  1  0
  1 20  1  0
  4 21  1  0
  5 22  1  0
  6 23  1  0
  9 24  1  0
 14 25  1  0
 15 26  1  0
 15 27  1  0
 15 28  1  0
 16 29  1  0
 16 30  1  0
 16 31  1  0
 17 32  1  0
M  CHG  1   9   1
M  END
>  <UniqueID>  (46) 
41

>  <SMILES>  (46) 
COc1cccc(-n2[nH+]nnc2SC(C)C)c1

>  <Energy>  (46) 
68.30313565146156

>  <Genealogy>  (46) 
COc1cccc(-n2[nH+]nnc2SC(C)C)c1 (protonated)
COc1cccc(-n2[nH+]nnc2SC(C)C)c1 (3D coordinates assigned)
COc1cccc(-n2[nH+]nnc2SC(C)C)c1 (optimized conformer: 68.30313565146156 kcal/mol)

>  <smiles>  (46) 
COc1cccc(-n2nnnc2SC(C)C)c1

>  <score_type>  (46) 
oracle

>  <origin>  (46) 
adg

>  <m_score__min__energy>  (46) 
-5.7599999999999998

>  <m_primary>  (46) 
energy

$$$$
46:0
     RDKit          3D

 32 34  0  0  0  0  0  0  0  0999 V2000
   62.2210   33.9060   47.2580 O   0  0  0  0  0  0  0  0  0  0  0  0
   61.1410   33.3250   47.0200 C   0  0  0  0  0  0  0  0  0  0  0  0
   60.2900   33.8470   46.0630 C   0  0  0  0  0  0  0  0  0  0  0  0
   59.0890   33.2430   45.7670 C   0  0  0  0  0  0  0  0  0  0  0  0
   58.1230   33.7450   44.7700 C   0  0  0  0  0  0  0  0  0  0  0  0
   57.7560   32.4860   43.5360 S   0  0  0  0  0  0  0  0  0  0  0  0
   57.0270   31.0460   44.2590 C   0  0  0  0  0  0  0  0  0  0  0  0
   55.7540   30.6770   44.4350 N   0  0  0  0  0  0  0  0  0  0  0  0
   55.6310   29.5160   45.0240 N   0  0  0  0  0  0  0  0  0  0  0  0
   56.9120   29.1010   45.2470 C   0  0  0  0  0  0  0  0  0  0  0  0
   57.3510   27.8600   45.8840 C   0  0  0  0  0  0  0  0  0  0  0  0
   56.5350   26.7490   45.9750 C   0  0  0  0  0  0  0  0  0  0  0  0
   56.9370   25.5740   46.5710 C   0  0  0  0  0  0  0  0  0  0  0  0
   58.1990   25.4670   47.1110 C   0  0  0  0  0  0  0  0  0  0  0  0
   59.0520   26.5670   47.0400 C   0  0  0  0  0  0  0  0  0  0  0  0
   58.6170   27.7360   46.4320 C   0  0  0  0  0  0  0  0  0  0  0  0
   57.7620   30.0300   44.7830 N   0  0  0  0  0  0  0  0  0  0  0  0
   58.7490   32.1140   46.4350 N   0  0  0  0  0  0  0  0  0  0  0  0
   59.5650   31.5940   47.3670 C   0  0  0  0  0  0  0  0  0  0  0  0
   59.2830   30.5370   48.0150 O   0  0  0  0  0  0  0  0  0  0  0  0
   60.7340   32.2020   47.6410 N   0  0  0  0  0  0  0  0  0  0  0  0
   60.5787   34.7634   45.5275 H   0  0  0  0  0  0  0  0  0  0  0  0
   57.1919   34.0287   45.2824 H   0  0  0  0  0  0  0  0  0  0  0  0
   58.5640   34.6154   44.2621 H   0  0  0  0  0  0  0  0  0  0  0  0
   54.7750   28.9710   45.2930 H   0  0  0  0  0  0  0  0  0  0  0  0
   55.5206   26.8051   45.5534 H   0  0  0  0  0  0  0  0  0  0  0  0
   56.2474   24.7182   46.6157 H   0  0  0  0  0  0  0  0  0  0  0  0
   58.5274   24.5322   47.5888 H   0  0  0  0  0  0  0  0  0  0  0  0
   60.0653   26.5087   47.4640 H   0  0  0  0  0  0  0  0  0  0  0  0
   59.3022   28.5951   46.3835 H   0  0  0  0  0  0  0  0  0  0  0  0
   57.8460   31.6320   46.2340 H   0  0  0  0  0  0  0  0  0  0  0  0
   61.3580   31.7710   48.3790 H   0  0  0  0  0  0  0  0  0  0  0  0
  1  2  2  0
  2  3  1  0
  3  4  2  0
  4  5  1  0
  5  6  1  0
  6  7  1  0
  7  8  2  0
  8  9  1  0
  9 10  1  0
 10 11  1  0
 11 12  2  0
 12 13  1  0
 13 14  2  0
 14 15  1  0
 15 16  2  0
 10 17  2  0
  4 18  1  0
 18 19  1  0
 19 20  2  0
 19 21  1  0
 21  2  1  0
 17  7  1  0
 16 11  1  0
  3 22  1  0
  5 23  1  0
  5 24  1  0
  9 25  1  0
 12 26  1  0
 13 27  1  0
 14 28  1  0
 15 29  1  0
 16 30  1  0
 18 31  1  0
 21 32  1  0
M  END
>  <smiles>  (47) 
O=c1cc(CSc2n[nH]c(-c3ccccc3)n2)[nH]c(=O)[nH]1

>  <score_type>  (47) 
oracle

>  <origin>  (47) 
adg

>  <m_score__min__energy>  (47) 
-7.6299999999999999

>  <m_primary>  (47) 
energy

$$$$
47:0
     RDKit          3D

 56 60  0  0  0  0  0  0  0  0999 V2000
   63.6350   33.4860   46.7220 C   0  0  0  0  0  0  0  0  0  0  0  0
   63.5840   33.7950   48.1600 N   0  0  0  0  0  0  0  0  0  0  0  0
   64.2160   32.7250   48.9740 C   0  0  0  0  0  0  0  0  0  0  0  0
   63.1890   31.8820   49.7470 C   0  0  0  0  0  0  0  0  0  0  0  0
   62.3780   32.7200   50.6600 N   0  0  0  0  0  0  0  0  0  0  0  0
   61.1660   31.9900   51.0800 C   0  0  0  0  0  0  0  0  0  0  0  0
   60.6010   31.2070   49.9360 C   0  0  0  0  0  0  0  0  0  0  0  0
   60.0640   31.7560   48.7690 C   0  0  0  0  0  0  0  0  0  0  0  0
   59.6100   30.7710   47.8850 C   0  0  0  0  0  0  0  0  0  0  0  0
   59.0130   30.9360   46.6320 C   0  0  0  0  0  0  0  0  0  0  0  0
   58.8350   32.2290   46.0410 N   0  0  0  0  0  0  0  0  0  0  0  0
   57.4970   32.6230   45.5860 C   0  0  0  0  0  0  0  0  0  0  0  0
   57.4790   34.1040   45.2170 C   0  0  0  0  0  0  0  0  0  0  0  0
   58.1620   34.8330   46.2150 O   0  0  0  0  0  0  0  0  0  0  0  0
   59.5600   34.6420   46.0830 C   0  0  0  0  0  0  0  0  0  0  0  0
   59.9800   33.1480   45.9850 C   0  0  0  0  0  0  0  0  0  0  0  0
   58.6030   29.8260   45.9570 N   0  0  0  0  0  0  0  0  0  0  0  0
   58.7620   28.5660   46.4660 C   0  0  0  0  0  0  0  0  0  0  0  0
   58.2830   27.3850   45.7050 C   0  0  0  0  0  0  0  0  0  0  0  0
   58.2450   27.4080   44.2970 C   0  0  0  0  0  0  0  0  0  0  0  0
   57.7760   26.3000   43.5830 C   0  0  0  0  0  0  0  0  0  0  0  0
   57.3450   25.1550   44.2640 C   0  0  0  0  0  0  0  0  0  0  0  0
   56.7540   23.7670   43.3650 Cl  0  0  0  0  0  0  0  0  0  0  0  0
   57.3860   25.1180   45.6600 C   0  0  0  0  0  0  0  0  0  0  0  0
   57.8530   26.2230   46.3780 C   0  0  0  0  0  0  0  0  0  0  0  0
   59.3560   28.4010   47.6860 N   0  0  0  0  0  0  0  0  0  0  0  0
   59.7700   29.4910   48.3690 C   0  0  0  0  0  0  0  0  0  0  0  0
   60.4890   29.5180   49.8820 S   0  0  0  0  0  0  0  0  0  0  0  0
   62.0600   34.0620   50.1010 C   0  0  0  0  0  0  0  0  0  0  0  0
   62.1980   34.1100   48.5700 C   0  0  0  0  0  0  0  0  0  0  0  0
   63.8127   32.4092   46.5844 H   0  0  0  0  0  0  0  0  0  0  0  0
   62.6790   33.7627   46.2534 H   0  0  0  0  0  0  0  0  0  0  0  0
   64.4514   34.0552   46.2534 H   0  0  0  0  0  0  0  0  0  0  0  0
   64.7828   32.0617   48.3041 H   0  0  0  0  0  0  0  0  0  0  0  0
   64.8693   33.2121   49.7129 H   0  0  0  0  0  0  0  0  0  0  0  0
   62.5203   31.3855   49.0284 H   0  0  0  0  0  0  0  0  0  0  0  0
   63.7339   31.1410   50.3503 H   0  0  0  0  0  0  0  0  0  0  0  0
   61.4239   31.3008   51.8976 H   0  0  0  0  0  0  0  0  0  0  0  0
   60.4132   32.7169   51.4190 H   0  0  0  0  0  0  0  0  0  0  0  0
   60.0050   32.8360   48.5686 H   0  0  0  0  0  0  0  0  0  0  0  0
   57.2229   32.0257   44.7039 H   0  0  0  0  0  0  0  0  0  0  0  0
   56.7762   32.4473   46.3981 H   0  0  0  0  0  0  0  0  0  0  0  0
   57.9779   34.2489   44.2474 H   0  0  0  0  0  0  0  0  0  0  0  0
   56.4397   34.4569   45.1435 H   0  0  0  0  0  0  0  0  0  0  0  0
   59.8965   35.1579   45.1716 H   0  0  0  0  0  0  0  0  0  0  0  0
   60.0274   35.0485   46.9920 H   0  0  0  0  0  0  0  0  0  0  0  0
   60.5083   32.9934   45.0327 H   0  0  0  0  0  0  0  0  0  0  0  0
   60.6235   32.9279   46.8496 H   0  0  0  0  0  0  0  0  0  0  0  0
   58.5862   28.3027   43.7556 H   0  0  0  0  0  0  0  0  0  0  0  0
   57.7458   26.3284   42.4838 H   0  0  0  0  0  0  0  0  0  0  0  0
   57.0502   24.2176   46.1953 H   0  0  0  0  0  0  0  0  0  0  0  0
   57.8852   26.1856   47.4769 H   0  0  0  0  0  0  0  0  0  0  0  0
   61.0251   34.3201   50.3702 H   0  0  0  0  0  0  0  0  0  0  0  0
   62.7788   34.7792   50.5241 H   0  0  0  0  0  0  0  0  0  0  0  0
   61.5131   33.3748   48.1224 H   0  0  0  0  0  0  0  0  0  0  0  0
   61.9485   35.1239   48.2240 H   0  0  0  0  0  0  0  0  0  0  0  0
  1  2  1  0
  2  3  1  0
  3  4  1  0
  4  5  1  0
  5  6  1  0
  6  7  1  0
  7  8  2  0
  8  9  1  0
  9 10  2  0
 10 11  1  0
 11 12  1  0
 12 13  1  0
 13 14  1  0
 14 15  1  0
 15 16  1  0
 10 17  1  0
 17 18  2  0
 18 19  1  0
 19 20  2  0
 20 21  1  0
 21 22  2  0
 22 23  1  0
 22 24  1  0
 24 25  2  0
 18 26  1  0
 26 27  2  0
 27 28  1  0
  5 29  1  0
 29 30  1  0
 30  2  1  0
 28  7  1  0
 27  9  1  0
 16 11  1  0
 25 19  1  0
  1 31  1  0
  1 32  1  0
  1 33  1  0
  3 34  1  0
  3 35  1  0
  4 36  1  0
  4 37  1  0
  6 38  1  0
  6 39  1  0
  8 40  1  0
 12 41  1  0
 12 42  1  0
 13 43  1  0
 13 44  1  0
 15 45  1  0
 15 46  1  0
 16 47  1  0
 16 48  1  0
 20 49  1  0
 21 50  1  0
 24 51  1  0
 25 52  1  0
 29 53  1  0
 29 54  1  0
 30 55  1  0
 30 56  1  0
M  END
>  <UniqueID>  (48) 
42

>  <SMILES>  (48) 
CN1CCN(Cc2cc3c(N4CCOCC4)nc(-c4ccc(Cl)cc4)nc3s2)CC1

>  <Energy>  (48) 
117.22093632314501

>  <Genealogy>  (48) 
CN1CCN(Cc2cc3c(N4CCOCC4)nc(-c4ccc(Cl)cc4)nc3s2)CC1 (3D coordinates assigned)
CN1CCN(Cc2cc3c(N4CCOCC4)nc(-c4ccc(Cl)cc4)nc3s2)CC1 (nonaromatic ring conformer: 117.22093632314501 kcal/mol)

>  <smiles>  (48) 
CN1CCN(Cc2cc3c(N4CCOCC4)nc(-c4ccc(Cl)cc4)nc3s2)CC1

>  <score_type>  (48) 
oracle

>  <origin>  (48) 
adg

>  <m_score__min__energy>  (48) 
-8.4299999999999997

>  <m_primary>  (48) 
energy

$$$$
48:0
     RDKit          3D

 47 50  0  0  0  0  0  0  0  0999 V2000
   56.9490   33.2050   45.6780 O   0  0  0  0  0  0  0  0  0  0  0  0
   58.2020   33.2550   45.7960 C   0  0  0  0  0  0  0  0  0  0  0  0
   58.8700   34.5910   45.9600 C   0  0  0  0  0  0  0  0  0  0  0  0
   59.3600   34.8010   47.3990 C   0  0  0  0  0  0  0  0  0  0  0  0
   60.7520   34.2600   47.6020 C   0  0  0  0  0  0  0  0  0  0  0  0
   61.3000   34.1810   48.8940 C   0  0  0  0  0  0  0  0  0  0  0  0
   62.6150   33.7430   49.0760 C   0  0  0  0  0  0  0  0  0  0  0  0
   63.3950   33.3870   47.9720 C   0  0  0  0  0  0  0  0  0  0  0  0
   62.8600   33.4680   46.6840 C   0  0  0  0  0  0  0  0  0  0  0  0
   61.5450   33.9030   46.4960 C   0  0  0  0  0  0  0  0  0  0  0  0
   58.9830   32.0520   45.8740 N   0  0  0  0  0  0  0  0  0  0  0  0
   58.4260   30.7280   45.8320 C   0  0  0  0  0  0  0  0  0  0  0  0
   58.7350   29.7700   46.8120 C   0  0  0  0  0  0  0  0  0  0  0  0
   58.1650   28.4950   46.7570 C   0  0  0  0  0  0  0  0  0  0  0  0
   57.2680   28.1590   45.7290 C   0  0  0  0  0  0  0  0  0  0  0  0
   56.6690   26.8080   45.6680 C   0  0  0  0  0  0  0  0  0  0  0  0
   55.5270   26.4630   46.2910 N   0  0  0  0  0  0  0  0  0  0  0  0
   55.3050   25.1920   46.0040 N   0  0  0  0  0  0  0  0  0  0  0  0
   56.3190   24.7890   45.2130 C   0  0  0  0  0  0  0  0  0  0  0  0
   56.4420   23.4250   44.6480 C   0  0  0  0  0  0  0  0  0  0  0  0
   56.3230   23.2300   43.2580 C   0  0  0  0  0  0  0  0  0  0  0  0
   56.4230   21.9470   42.7100 C   0  0  0  0  0  0  0  0  0  0  0  0
   56.6450   20.8470   43.5390 C   0  0  0  0  0  0  0  0  0  0  0  0
   56.7700   21.0250   44.9180 C   0  0  0  0  0  0  0  0  0  0  0  0
   56.6710   22.3040   45.4760 C   0  0  0  0  0  0  0  0  0  0  0  0
   56.8000   22.4400   46.8200 F   0  0  0  0  0  0  0  0  0  0  0  0
   57.2020   25.7800   44.9740 N   0  0  0  0  0  0  0  0  0  0  0  0
   56.9440   29.1260   44.7630 C   0  0  0  0  0  0  0  0  0  0  0  0
   57.5140   30.4000   44.8200 C   0  0  0  0  0  0  0  0  0  0  0  0
   59.7308   34.6466   45.2774 H   0  0  0  0  0  0  0  0  0  0  0  0
   58.1350   35.3756   45.7273 H   0  0  0  0  0  0  0  0  0  0  0  0
   59.3611   35.8784   47.6209 H   0  0  0  0  0  0  0  0  0  0  0  0
   58.6811   34.2585   48.0734 H   0  0  0  0  0  0  0  0  0  0  0  0
   60.6917   34.4650   49.7654 H   0  0  0  0  0  0  0  0  0  0  0  0
   63.0367   33.6784   50.0899 H   0  0  0  0  0  0  0  0  0  0  0  0
   64.4297   33.0432   48.1173 H   0  0  0  0  0  0  0  0  0  0  0  0
   63.4750   33.1888   45.8158 H   0  0  0  0  0  0  0  0  0  0  0  0
   61.1287   33.9664   45.4798 H   0  0  0  0  0  0  0  0  0  0  0  0
   59.9920   32.1430   46.1340 H   0  0  0  0  0  0  0  0  0  0  0  0
   59.4290   30.0246   47.6266 H   0  0  0  0  0  0  0  0  0  0  0  0
   58.4205   27.7492   47.5241 H   0  0  0  0  0  0  0  0  0  0  0  0
   56.1501   24.0933   42.5985 H   0  0  0  0  0  0  0  0  0  0  0  0
   56.3264   21.8050   41.6235 H   0  0  0  0  0  0  0  0  0  0  0  0
   56.7216   19.8388   43.1058 H   0  0  0  0  0  0  0  0  0  0  0  0
   56.9471   20.1559   45.5686 H   0  0  0  0  0  0  0  0  0  0  0  0
   56.2374   28.8786   43.9571 H   0  0  0  0  0  0  0  0  0  0  0  0
   57.2446   31.1522   44.0640 H   0  0  0  0  0  0  0  0  0  0  0  0
  1  2  2  0
  2  3  1  0
  3  4  1  0
  4  5  1  0
  5  6  2  0
  6  7  1  0
  7  8  2  0
  8  9  1  0
  9 10  2  0
  2 11  1  0
 11 12  1  0
 12 13  2  0
 13 14  1  0
 14 15  2  0
 15 16  1  0
 16 17  2  0
 17 18  1  0
 18 19  1  0
 19 20  1  0
 20 21  2  0
 21 22  1  0
 22 23  2  0
 23 24  1  0
 24 25  2  0
 25 26  1  0
 19 27  2  0
 15 28  1  0
 28 29  2  0
 10  5  1  0
 29 12  1  0
 27 16  1  0
 25 20  1  0
  3 30  1  0
  3 31  1  0
  4 32  1  0
  4 33  1  0
  6 34  1  0
  7 35  1  0
  8 36  1  0
  9 37  1  0
 10 38  1  0
 11 39  1  0
 13 40  1  0
 14 41  1  0
 21 42  1  0
 22 43  1  0
 23 44  1  0
 24 45  1  0
 28 46  1  0
 29 47  1  0
M  CHG  1  18  -1
M  END
>  <UniqueID>  (49) 
43

>  <SMILES>  (49) 
O=C(CCc1ccccc1)Nc1ccc(-c2n[n-]c(-c3ccccc3F)n2)cc1

>  <Energy>  (49) 
84.05632879440792

>  <Genealogy>  (49) 
O=C(CCc1ccccc1)Nc1ccc(-c2n[n-]c(-c3ccccc3F)n2)cc1 (protonated)
O=C(CCc1ccccc1)Nc1ccc(-c2n[n-]c(-c3ccccc3F)n2)cc1 (3D coordinates assigned)
O=C(CCc1ccccc1)Nc1ccc(-c2n[n-]c(-c3ccccc3F)n2)cc1 (optimized conformer: 84.05632879440792 kcal/mol)

>  <smiles>  (49) 
O=C(CCc1ccccc1)Nc1ccc(-c2n[nH]c(-c3ccccc3F)n2)cc1

>  <score_type>  (49) 
oracle

>  <origin>  (49) 
adg

>  <m_score__min__energy>  (49) 
-11.18

>  <m_primary>  (49) 
energy

$$$$
