0:0
     RDKit          3D

 48 50  0  0  0  0  0  0  0  0999 V2000
   59.1650   27.9420   46.0220 C   0  0  0  0  0  0  0  0  0  0  0  0
   59.4130   28.9940   47.0570 C   0  0  0  0  0  0  0  0  0  0  0  0
   60.4310   29.9430   46.8840 C   0  0  0  0  0  0  0  0  0  0  0  0
   60.6630   30.8940   47.8870 C   0  0  0  0  0  0  0  0  0  0  0  0
   61.7190   31.9100   47.7160 C   0  0  0  0  0  0  0  0  0  0  0  0
   62.8820   31.8200   48.5040 C   0  0  0  0  0  0  0  0  0  0  0  0
   63.0370   30.8010   49.3870 F   0  0  0  0  0  0  0  0  0  0  0  0
   63.8930   32.7740   48.3810 C   0  0  0  0  0  0  0  0  0  0  0  0
   63.7540   33.8270   47.4770 C   0  0  0  0  0  0  0  0  0  0  0  0
   62.6030   33.9350   46.6960 C   0  0  0  0  0  0  0  0  0  0  0  0
   61.5690   32.9870   46.8070 C   0  0  0  0  0  0  0  0  0  0  0  0
   60.3650   33.1180   46.0210 N   0  0  0  0  0  0  0  0  0  0  0  0
   59.5680   34.3430   45.9360 C   0  0  0  0  0  0  0  0  0  0  0  0
   58.0620   34.0600   46.0840 C   0  0  0  0  0  0  0  0  0  0  0  0
   57.7230   32.5600   46.1340 C   0  0  0  0  0  0  0  0  0  0  0  0
   58.0870   31.8630   44.8790 N   0  0  0  0  0  0  0  0  0  0  0  0
   57.7980   32.6950   43.6900 C   0  0  0  0  0  0  0  0  0  0  0  0
   57.7700   31.8300   42.4190 C   0  0  0  0  0  0  0  0  0  0  0  0
   56.8030   30.7850   42.4360 O   0  0  0  0  0  0  0  0  0  0  0  0
   56.3530   30.4470   43.7390 C   0  0  0  0  0  0  0  0  0  0  0  0
   57.4670   30.5160   44.7980 C   0  0  0  0  0  0  0  0  0  0  0  0
   59.8740   30.8810   49.0440 C   0  0  0  0  0  0  0  0  0  0  0  0
   58.8830   29.9080   49.1870 C   0  0  0  0  0  0  0  0  0  0  0  0
   58.6790   28.9920   48.2030 N   0  0  0  0  0  0  0  0  0  0  0  0
   58.9397   26.9861   46.5175 H   0  0  0  0  0  0  0  0  0  0  0  0
   58.3123   28.2394   45.3939 H   0  0  0  0  0  0  0  0  0  0  0  0
   60.0607   27.8272   45.3939 H   0  0  0  0  0  0  0  0  0  0  0  0
   61.0419   29.9410   45.9692 H   0  0  0  0  0  0  0  0  0  0  0  0
   64.8005   32.6954   48.9976 H   0  0  0  0  0  0  0  0  0  0  0  0
   64.5547   34.5749   47.3795 H   0  0  0  0  0  0  0  0  0  0  0  0
   62.5028   34.7695   45.9864 H   0  0  0  0  0  0  0  0  0  0  0  0
   59.9710   32.2790   45.5430 H   0  0  0  0  0  0  0  0  0  0  0  0
   59.8816   35.0276   46.7379 H   0  0  0  0  0  0  0  0  0  0  0  0
   59.7349   34.7900   44.9449 H   0  0  0  0  0  0  0  0  0  0  0  0
   57.7093   34.5282   47.0148 H   0  0  0  0  0  0  0  0  0  0  0  0
   57.5651   34.4752   45.1948 H   0  0  0  0  0  0  0  0  0  0  0  0
   58.2737   32.0998   46.9676 H   0  0  0  0  0  0  0  0  0  0  0  0
   56.6359   32.4635   46.2713 H   0  0  0  0  0  0  0  0  0  0  0  0
   56.8197   33.1814   43.8181 H   0  0  0  0  0  0  0  0  0  0  0  0
   58.5886   33.4528   43.5863 H   0  0  0  0  0  0  0  0  0  0  0  0
   57.5526   32.4851   41.5625 H   0  0  0  0  0  0  0  0  0  0  0  0
   58.7543   31.3437   42.3503 H   0  0  0  0  0  0  0  0  0  0  0  0
   55.5534   31.1459   44.0257 H   0  0  0  0  0  0  0  0  0  0  0  0
   55.9971   29.4068   43.7040 H   0  0  0  0  0  0  0  0  0  0  0  0
   57.0379   30.2648   45.7792 H   0  0  0  0  0  0  0  0  0  0  0  0
   58.2516   29.8021   44.5071 H   0  0  0  0  0  0  0  0  0  0  0  0
   60.0336   31.6307   49.8330 H   0  0  0  0  0  0  0  0  0  0  0  0
   58.2661   29.8824   50.0974 H   0  0  0  0  0  0  0  0  0  0  0  0
  1  2  1  0
  2  3  2  0
  3  4  1  0
  4  5  1  0
  5  6  2  0
  6  7  1  0
  6  8  1  0
  8  9  2  0
  9 10  1  0
 10 11  2  0
 11 12  1  0
 12 13  1  0
 13 14  1  0
 14 15  1  0
 15 16  1  0
 16 17  1  0
 17 18  1  0
 18 19  1  0
 19 20  1  0
 20 21  1  0
  4 22  2  0
 22 23  1  0
 23 24  2  0
 24  2  1  0
 11  5  1  0
 21 16  1  0
  1 25  1  0
  1 26  1  0
  1 27  1  0
  3 28  1  0
  8 29  1  0
  9 30  1  0
 10 31  1  0
 12 32  1  0
 13 33  1  0
 13 34  1  0
 14 35  1  0
 14 36  1  0
 15 37  1  0
 15 38  1  0
 17 39  1  0
 17 40  1  0
 18 41  1  0
 18 42  1  0
 20 43  1  0
 20 44  1  0
 21 45  1  0
 21 46  1  0
 22 47  1  0
 23 48  1  0
M  END
>  <UniqueID>  (1) 
1

>  <SMILES>  (1) 
Cc1cc(-c2c(F)cccc2NCCCN2CCOCC2)ccn1

>  <Energy>  (1) 
66.68239577395188

>  <Genealogy>  (1) 
Cc1cc(-c2c(F)cccc2NCCCN2CCOCC2)ccn1 (3D coordinates assigned)
Cc1cc(-c2c(F)cccc2NCCCN2CCOCC2)ccn1 (nonaromatic ring conformer: 66.68239577395188 kcal/mol)

>  <smiles>  (1) 
Cc1cc(-c2c(F)cccc2NCCCN2CCOCC2)ccn1

>  <score_type>  (1) 
oracle

>  <origin>  (1) 
adg

>  <m_score__min__energy>  (1) 
-7.2199999999999998

>  <m_primary>  (1) 
energy

$$$$
1:0
     RDKit          3D

 54 56  0  0  0  0  0  0  0  0999 V2000
   62.7260   34.4770   49.4880 C   0  0  0  0  0  0  0  0  0  0  0  0
   62.2990   34.1510   48.0570 C   0  0  0  0  0  0  0  0  0  0  0  0
   63.4900   33.8430   47.1340 C   0  0  0  0  0  0  0  0  0  0  0  0
   63.9380   32.4440   47.2600 N   0  0  0  0  0  0  0  0  0  0  0  0
   62.8100   31.5240   47.4960 C   0  0  0  0  0  0  0  0  0  0  0  0
   62.6200   31.2120   48.9930 C   0  0  0  0  0  0  0  0  0  0  0  0
   61.1750   30.8190   49.3380 C   0  0  0  0  0  0  0  0  0  0  0  0
   60.4910   30.0320   48.2140 C   0  0  0  0  0  0  0  0  0  0  0  0
   59.1400   30.5450   47.9930 N   0  0  0  0  0  0  0  0  0  0  0  0
   58.7220   30.9450   46.6800 C   0  0  0  0  0  0  0  0  0  0  0  0
   58.2230   29.9950   45.7940 C   0  0  0  0  0  0  0  0  0  0  0  0
   57.8590   30.3370   44.5180 C   0  0  0  0  0  0  0  0  0  0  0  0
   57.9530   31.6270   44.0560 N   0  0  0  0  0  0  0  0  0  0  0  0
   57.5550   31.9490   42.6720 C   0  0  0  0  0  0  0  0  0  0  0  0
   58.4180   32.6150   44.9090 C   0  0  0  0  0  0  0  0  0  0  0  0
   58.5200   33.9660   44.4970 C   0  0  0  0  0  0  0  0  0  0  0  0
   58.9700   34.9520   45.3750 C   0  0  0  0  0  0  0  0  0  0  0  0
   59.3230   34.6240   46.6800 C   0  0  0  0  0  0  0  0  0  0  0  0
   59.2380   33.3040   47.1180 C   0  0  0  0  0  0  0  0  0  0  0  0
   58.8050   32.2850   46.2460 C   0  0  0  0  0  0  0  0  0  0  0  0
   57.3940   29.1450   43.7520 C   0  0  0  0  0  0  0  0  0  0  0  0
   57.5140   27.9750   44.7410 C   0  0  0  0  0  0  0  0  0  0  0  0
   58.0640   28.5420   46.0580 C   0  0  0  0  0  0  0  0  0  0  0  0
   62.0567   33.9660   50.1958 H   0  0  0  0  0  0  0  0  0  0  0  0
   63.7593   34.1359   49.6490 H   0  0  0  0  0  0  0  0  0  0  0  0
   62.6693   35.5637   49.6490 H   0  0  0  0  0  0  0  0  0  0  0  0
   61.6360   33.2736   48.0795 H   0  0  0  0  0  0  0  0  0  0  0  0
   61.7890   35.0383   47.6538 H   0  0  0  0  0  0  0  0  0  0  0  0
   63.1890   34.0272   46.0921 H   0  0  0  0  0  0  0  0  0  0  0  0
   64.3255   34.4955   47.4276 H   0  0  0  0  0  0  0  0  0  0  0  0
   64.5830   32.3740   48.0810 H   0  0  0  0  0  0  0  0  0  0  0  0
   64.4680   32.1530   46.4040 H   0  0  0  0  0  0  0  0  0  0  0  0
   61.8891   31.9856   47.1102 H   0  0  0  0  0  0  0  0  0  0  0  0
   63.0298   30.5787   46.9782 H   0  0  0  0  0  0  0  0  0  0  0  0
   63.2858   30.3801   49.2664 H   0  0  0  0  0  0  0  0  0  0  0  0
   62.8592   32.1263   49.5560 H   0  0  0  0  0  0  0  0  0  0  0  0
   61.1865   30.1979   50.2458 H   0  0  0  0  0  0  0  0  0  0  0  0
   60.6049   31.7478   49.4875 H   0  0  0  0  0  0  0  0  0  0  0  0
   61.0760   30.1365   47.2883 H   0  0  0  0  0  0  0  0  0  0  0  0
   60.4315   28.9717   48.5009 H   0  0  0  0  0  0  0  0  0  0  0  0
   58.3980   30.2290   48.6590 H   0  0  0  0  0  0  0  0  0  0  0  0
   56.6999   32.6408   42.6879 H   0  0  0  0  0  0  0  0  0  0  0  0
   58.3991   32.4214   42.1482 H   0  0  0  0  0  0  0  0  0  0  0  0
   57.2693   31.0249   42.1482 H   0  0  0  0  0  0  0  0  0  0  0  0
   58.2403   34.2419   43.4696 H   0  0  0  0  0  0  0  0  0  0  0  0
   59.0462   35.9949   45.0336 H   0  0  0  0  0  0  0  0  0  0  0  0
   59.6702   35.4089   47.3680 H   0  0  0  0  0  0  0  0  0  0  0  0
   59.5114   33.0550   48.1540 H   0  0  0  0  0  0  0  0  0  0  0  0
   56.3505   29.2744   43.4288 H   0  0  0  0  0  0  0  0  0  0  0  0
   57.9848   28.9805   42.8389 H   0  0  0  0  0  0  0  0  0  0  0  0
   56.5257   27.5226   44.9100 H   0  0  0  0  0  0  0  0  0  0  0  0
   58.1827   27.1973   44.3435 H   0  0  0  0  0  0  0  0  0  0  0  0
   57.3556   28.3709   46.8819 H   0  0  0  0  0  0  0  0  0  0  0  0
   59.0076   28.0640   46.3598 H   0  0  0  0  0  0  0  0  0  0  0  0
  1  2  1  0
  2  3  1  0
  3  4  1  0
  4  5  1  0
  5  6  1  0
  6  7  1  0
  7  8  1  0
  8  9  1  0
  9 10  1  0
 10 11  2  0
 11 12  1  0
 12 13  2  0
 13 14  1  0
 13 15  1  0
 15 16  2  0
 16 17  1  0
 17 18  2  0
 18 19  1  0
 19 20  2  0
 12 21  1  0
 21 22  1  0
 22 23  1  0
 20 10  1  0
 23 11  1  0
 20 15  1  0
  1 24  1  0
  1 25  1  0
  1 26  1  0
  2 27  1  0
  2 28  1  0
  3 29  1  0
  3 30  1  0
  4 31  1  0
  4 32  1  0
  5 33  1  0
  5 34  1  0
  6 35  1  0
  6 36  1  0
  7 37  1  0
  7 38  1  0
  8 39  1  0
  8 40  1  0
  9 41  1  0
 14 42  1  0
 14 43  1  0
 14 44  1  0
 16 45  1  0
 17 46  1  0
 18 47  1  0
 19 48  1  0
 21 49  1  0
 21 50  1  0
 22 51  1  0
 22 52  1  0
 23 53  1  0
 23 54  1  0
M  CHG  2   4   1  13   1
M  END
>  <UniqueID>  (2) 
2

>  <SMILES>  (2) 
CCC[NH2+]CCCCNc1c2c([n+](C)c3ccccc13)CCC2

>  <Energy>  (2) 
67.84390205448517

>  <Genealogy>  (2) 
CCC[NH2+]CCCCNc1c2c([n+](C)c3ccccc13)CCC2 (protonated)
CCC[NH2+]CCCCNc1c2c([n+](C)c3ccccc13)CCC2 (3D coordinates assigned)
CCC[NH2+]CCCCNc1c2c([n+](C)c3ccccc13)CCC2 (nonaromatic ring conformer: 67.84390205448517 kcal/mol)

>  <smiles>  (2) 
CCCNCCCCNc1c2c([n+](C)c3ccccc13)CCC2

>  <score_type>  (2) 
oracle

>  <origin>  (2) 
adg

>  <m_score__min__energy>  (2) 
-4.5599999999999996

>  <m_primary>  (2) 
energy

$$$$
2:0
     RDKit          3D

 87 91  0  0  0  0  0  0  0  0999 V2000
   57.8710   32.3450   43.3380 C   0  0  0  0  0  0  0  0  0  0  0  0
   57.7430   33.4780   44.1890 O   0  0  0  0  0  0  0  0  0  0  0  0
   58.3250   33.5910   45.4610 C   0  0  0  0  0  0  0  0  0  0  0  0
   59.3690   34.5050   45.6340 C   0  0  0  0  0  0  0  0  0  0  0  0
   59.9820   34.6550   46.8800 C   0  0  0  0  0  0  0  0  0  0  0  0
   59.5420   33.9080   47.9890 C   0  0  0  0  0  0  0  0  0  0  0  0
   60.2390   34.0550   49.3360 C   0  0  0  0  0  0  0  0  0  0  0  0
   61.5360   33.3200   49.4960 N   0  0  1  0  0  0  0  0  0  0  0  0
   61.3010   31.9050   49.0970 C   0  0  0  0  0  0  0  0  0  0  0  0
   62.6410   33.8680   48.6870 C   0  0  0  0  0  0  0  0  0  0  0  0
   63.9050   33.4960   49.4280 C   0  0  0  0  0  0  0  0  0  0  0  0
   63.5460   33.4490   50.8710 N   0  0  2  0  0  0  0  0  0  0  0  0
   63.9810   34.7350   51.4850 C   0  0  0  0  0  0  0  0  0  0  0  0
   64.2540   32.2950   51.5290 C   0  0  0  0  0  0  0  0  0  0  0  0
   64.1540   30.9100   50.8410 C   0  0  0  0  0  0  0  0  0  0  0  0
   62.8760   30.3170   51.0130 O   0  0  0  0  0  0  0  0  0  0  0  0
   62.6500   29.0090   51.4560 C   0  0  0  0  0  0  0  0  0  0  0  0
   61.3980   28.3870   51.3880 C   0  0  0  0  0  0  0  0  0  0  0  0
   61.2280   27.0860   51.8730 C   0  0  0  0  0  0  0  0  0  0  0  0
   62.3120   26.3640   52.4360 C   0  0  0  0  0  0  0  0  0  0  0  0
   63.5610   27.0210   52.5500 C   0  0  0  0  0  0  0  0  0  0  0  0
   63.7210   28.3180   52.0150 C   0  0  0  0  0  0  0  0  0  0  0  0
   64.6290   26.3740   53.1970 C   0  0  0  0  0  0  0  0  0  0  0  0
   65.9130   27.0160   53.2800 N   0  0  0  0  0  0  0  0  0  0  0  0
   67.0460   26.5050   52.5030 C   0  0  0  0  0  0  0  0  0  0  0  0
   66.6870   26.3420   51.0140 C   0  0  0  0  0  0  0  0  0  0  0  0
   67.8700   26.4130   50.1180 N   0  0  0  0  0  0  0  0  0  0  0  0
   68.2660   27.8100   49.8540 C   0  0  0  0  0  0  0  0  0  0  0  0
   69.0020   25.6870   50.7200 C   0  0  0  0  0  0  0  0  0  0  0  0
   64.4080   25.1330   53.8190 C   0  0  0  0  0  0  0  0  0  0  0  0
   65.4110   24.5400   54.6170 C   0  0  0  0  0  0  0  0  0  0  0  0
   65.1840   23.3200   55.2520 C   0  0  0  0  0  0  0  0  0  0  0  0
   63.9500   22.6880   55.1270 C   0  0  0  0  0  0  0  0  0  0  0  0
   62.9370   23.2670   54.3590 C   0  0  0  0  0  0  0  0  0  0  0  0
   63.1510   24.4880   53.6660 C   0  0  0  0  0  0  0  0  0  0  0  0
   62.1680   25.0610   52.8790 N   0  0  0  0  0  0  0  0  0  0  0  0
   60.9810   24.2730   52.4810 C   0  0  0  0  0  0  0  0  0  0  0  0
   62.0530   33.3450   50.8910 C   0  0  0  0  0  0  0  0  0  0  0  0
   58.5140   32.9640   47.8040 C   0  0  0  0  0  0  0  0  0  0  0  0
   57.9040   32.8150   46.5550 C   0  0  0  0  0  0  0  0  0  0  0  0
   57.9736   31.4366   43.9498 H   0  0  0  0  0  0  0  0  0  0  0  0
   56.9767   32.2604   42.7031 H   0  0  0  0  0  0  0  0  0  0  0  0
   58.7616   32.4620   42.7031 H   0  0  0  0  0  0  0  0  0  0  0  0
   59.7103   35.1109   44.7817 H   0  0  0  0  0  0  0  0  0  0  0  0
   60.8159   35.3630   46.9957 H   0  0  0  0  0  0  0  0  0  0  0  0
   60.4382   35.1250   49.4954 H   0  0  0  0  0  0  0  0  0  0  0  0
   59.5547   33.6062   50.0711 H   0  0  0  0  0  0  0  0  0  0  0  0
   61.1976   31.2823   49.9979 H   0  0  0  0  0  0  0  0  0  0  0  0
   60.3799   31.8408   48.4992 H   0  0  0  0  0  0  0  0  0  0  0  0
   62.1519   31.5465   48.4992 H   0  0  0  0  0  0  0  0  0  0  0  0
   62.6393   33.4223   47.6813 H   0  0  0  0  0  0  0  0  0  0  0  0
   62.5500   34.9562   48.5546 H   0  0  0  0  0  0  0  0  0  0  0  0
   64.2669   32.5126   49.0935 H   0  0  0  0  0  0  0  0  0  0  0  0
   64.7074   34.2245   49.2397 H   0  0  0  0  0  0  0  0  0  0  0  0
   63.9511   34.6466   52.5810 H   0  0  0  0  0  0  0  0  0  0  0  0
   65.0073   34.9661   51.1636 H   0  0  0  0  0  0  0  0  0  0  0  0
   63.3057   35.5417   51.1636 H   0  0  0  0  0  0  0  0  0  0  0  0
   65.3208   32.5555   51.5924 H   0  0  0  0  0  0  0  0  0  0  0  0
   63.7437   32.1663   52.4950 H   0  0  0  0  0  0  0  0  0  0  0  0
   64.3449   31.0344   49.7649 H   0  0  0  0  0  0  0  0  0  0  0  0
   64.8990   30.2475   51.3057 H   0  0  0  0  0  0  0  0  0  0  0  0
   60.5433   28.9240   50.9509 H   0  0  0  0  0  0  0  0  0  0  0  0
   60.2360   26.6141   51.8169 H   0  0  0  0  0  0  0  0  0  0  0  0
   64.7132   28.7923   52.0406 H   0  0  0  0  0  0  0  0  0  0  0  0
   65.9550   27.9690   53.7100 H   0  0  0  0  0  0  0  0  0  0  0  0
   67.8863   27.2092   52.5923 H   0  0  0  0  0  0  0  0  0  0  0  0
   67.3172   25.5161   52.9011 H   0  0  0  0  0  0  0  0  0  0  0  0
   66.2014   25.3647   50.8759 H   0  0  0  0  0  0  0  0  0  0  0  0
   66.0208   27.1747   50.7442 H   0  0  0  0  0  0  0  0  0  0  0  0
   67.6580   25.9590   49.2000 H   0  0  0  0  0  0  0  0  0  0  0  0
   68.4150   28.3356   50.8088 H   0  0  0  0  0  0  0  0  0  0  0  0
   69.2032   27.8229   49.2782 H   0  0  0  0  0  0  0  0  0  0  0  0
   67.4750   28.3128   49.2782 H   0  0  0  0  0  0  0  0  0  0  0  0
   68.9270   25.7351   51.8164 H   0  0  0  0  0  0  0  0  0  0  0  0
   68.9772   24.6359   50.3965 H   0  0  0  0  0  0  0  0  0  0  0  0
   69.9469   26.1480   50.3965 H   0  0  0  0  0  0  0  0  0  0  0  0
   66.3804   25.0455   54.7386 H   0  0  0  0  0  0  0  0  0  0  0  0
   65.9806   22.8563   55.8523 H   0  0  0  0  0  0  0  0  0  0  0  0
   63.7719   21.7288   55.6351 H   0  0  0  0  0  0  0  0  0  0  0  0
   61.9584   22.7695   54.2899 H   0  0  0  0  0  0  0  0  0  0  0  0
   60.4543   23.9234   53.3812 H   0  0  0  0  0  0  0  0  0  0  0  0
   60.3063   24.9031   51.8829 H   0  0  0  0  0  0  0  0  0  0  0  0
   61.2998   23.4066   51.8829 H   0  0  0  0  0  0  0  0  0  0  0  0
   61.7573   32.4200   51.4077 H   0  0  0  0  0  0  0  0  0  0  0  0
   61.6333   34.2128   51.4208 H   0  0  0  0  0  0  0  0  0  0  0  0
   58.1884   32.3390   48.6486 H   0  0  0  0  0  0  0  0  0  0  0  0
   57.0899   32.0863   46.4275 H   0  0  0  0  0  0  0  0  0  0  0  0
  1  2  1  0
  2  3  1  0
  3  4  2  0
  4  5  1  0
  5  6  2  0
  6  7  1  0
  8  7  1  1
  8  9  1  0
  8 10  1  0
 10 11  1  0
 11 12  1  0
 12 13  1  1
 12 14  1  0
 14 15  1  0
 15 16  1  0
 16 17  1  0
 17 18  2  0
 18 19  1  0
 19 20  2  0
 20 21  1  0
 21 22  2  0
 21 23  1  0
 23 24  1  0
 24 25  1  0
 25 26  1  0
 26 27  1  0
 27 28  1  0
 27 29  1  0
 23 30  2  0
 30 31  1  0
 31 32  2  0
 32 33  1  0
 33 34  2  0
 34 35  1  0
 35 36  2  0
 36 37  1  0
 12 38  1  0
  6 39  1  0
 39 40  2  0
 40  3  1  0
 38  8  1  0
 22 17  1  0
 35 30  1  0
 36 20  1  0
  1 41  1  0
  1 42  1  0
  1 43  1  0
  4 44  1  0
  5 45  1  0
  7 46  1  0
  7 47  1  0
  9 48  1  0
  9 49  1  0
  9 50  1  0
 10 51  1  0
 10 52  1  0
 11 53  1  0
 11 54  1  0
 13 55  1  0
 13 56  1  0
 13 57  1  0
 14 58  1  0
 14 59  1  0
 15 60  1  0
 15 61  1  0
 18 62  1  0
 19 63  1  0
 22 64  1  0
 24 65  1  0
 25 66  1  0
 25 67  1  0
 26 68  1  0
 26 69  1  0
 27 70  1  0
 28 71  1  0
 28 72  1  0
 28 73  1  0
 29 74  1  0
 29 75  1  0
 29 76  1  0
 31 77  1  0
 32 78  1  0
 33 79  1  0
 34 80  1  0
 37 81  1  0
 37 82  1  0
 37 83  1  0
 38 84  1  0
 38 85  1  0
 39 86  1  0
 40 87  1  0
M  CHG  4   8   1  12   1  27   1  36   1
M  END
>  <UniqueID>  (3) 
3

>  <SMILES>  (3) 
COc1ccc(C[N@@+]2(C)CC[N@+](C)(CCOc3ccc4c(c3)c(NCC[NH+](C)C)c3ccccc3[n+]4C)C2)cc1

>  <Energy>  (3) 
144.89400968683861

>  <Genealogy>  (3) 
COc1ccc(C[N+]2(C)CC[N+](C)(CCOc3ccc4c(c3)c(NCC[NH+](C)C)c3ccccc3[n+]4C)C2)cc1 (protonated)
COc1ccc(C[N@@+]2(C)CC[N@+](C)(CCOc3ccc4c(c3)c(NCC[NH+](C)C)c3ccccc3[n+]4C)C2)cc1 (chirality)
COc1ccc(C[N@@+]2(C)CC[N@+](C)(CCOc3ccc4c(c3)c(NCC[NH+](C)C)c3ccccc3[n+]4C)C2)cc1 (3D coordinates assigned)
COc1ccc(C[N@@+]2(C)CC[N@+](C)(CCOc3ccc4c(c3)c(NCC[NH+](C)C)c3ccccc3[n+]4C)C2)cc1 (nonaromatic ring conformer: 144.89400968683861 kcal/mol)

>  <smiles>  (3) 
COc1ccc(C[N+]2(C)CC[N+](C)(CCOc3ccc4c(c3)c(NCCN(C)C)c3ccccc3[n+]4C)C2)cc1

>  <score_type>  (3) 
oracle

>  <origin>  (3) 
adg

>  <m_score__min__energy>  (3) 
-3.3999999999999999

>  <m_primary>  (3) 
energy

$$$$
3:0
     RDKit          3D

 61 63  0  0  0  0  0  0  0  0999 V2000
   59.9800   34.1770   49.6140 C   0  0  0  0  0  0  0  0  0  0  0  0
   59.2600   33.0360   50.3340 C   0  0  0  0  0  0  0  0  0  0  0  0
   59.8690   31.7440   49.9840 N   0  0  0  0  0  0  0  0  0  0  0  0
   59.1910   30.5880   50.5980 C   0  0  0  0  0  0  0  0  0  0  0  0
   59.6610   29.2170   50.0660 C   0  0  0  0  0  0  0  0  0  0  0  0
   61.1370   28.9200   50.3470 C   0  0  0  0  0  0  0  0  0  0  0  0
   61.9250   29.9780   49.8410 O   0  0  0  0  0  0  0  0  0  0  0  0
   62.8320   30.4470   50.8220 C   0  0  0  0  0  0  0  0  0  0  0  0
   63.4130   31.8160   50.4390 C   0  0  0  0  0  0  0  0  0  0  0  0
   62.7190   32.3240   49.3110 O   0  0  0  0  0  0  0  0  0  0  0  0
   63.3850   31.9770   48.1110 C   0  0  0  0  0  0  0  0  0  0  0  0
   62.3500   31.4300   47.1210 C   0  0  0  0  0  0  0  0  0  0  0  0
   60.9930   31.3770   47.6960 N   0  0  0  0  0  0  0  0  0  0  0  0
   59.9820   31.1130   46.6770 C   0  0  0  0  0  0  0  0  0  0  0  0
   59.6930   29.7710   46.2920 C   0  0  0  0  0  0  0  0  0  0  0  0
   60.3640   28.6660   46.8780 C   0  0  0  0  0  0  0  0  0  0  0  0
   60.0300   27.3560   46.5440 C   0  0  0  0  0  0  0  0  0  0  0  0
   59.0180   27.1090   45.6310 C   0  0  0  0  0  0  0  0  0  0  0  0
   58.3590   28.1700   45.0170 C   0  0  0  0  0  0  0  0  0  0  0  0
   58.7080   29.5170   45.2980 C   0  0  0  0  0  0  0  0  0  0  0  0
   58.1030   30.5650   44.6350 N   0  0  0  0  0  0  0  0  0  0  0  0
   57.3320   30.3060   43.3980 C   0  0  0  0  0  0  0  0  0  0  0  0
   58.2490   31.8580   45.0970 C   0  0  0  0  0  0  0  0  0  0  0  0
   57.4250   32.9060   44.6060 C   0  0  0  0  0  0  0  0  0  0  0  0
   57.6210   34.2250   45.0000 C   0  0  0  0  0  0  0  0  0  0  0  0
   58.6360   34.5390   45.8880 C   0  0  0  0  0  0  0  0  0  0  0  0
   59.4350   33.5320   46.4240 C   0  0  0  0  0  0  0  0  0  0  0  0
   59.2360   32.1690   46.0780 C   0  0  0  0  0  0  0  0  0  0  0  0
   60.4132   34.8635   50.3563 H   0  0  0  0  0  0  0  0  0  0  0  0
   60.7819   33.7648   48.9839 H   0  0  0  0  0  0  0  0  0  0  0  0
   59.2628   34.7234   48.9839 H   0  0  0  0  0  0  0  0  0  0  0  0
   59.3342   33.1891   51.4208 H   0  0  0  0  0  0  0  0  0  0  0  0
   58.2044   33.0285   50.0246 H   0  0  0  0  0  0  0  0  0  0  0  0
   60.8810   31.7490   50.2410 H   0  0  0  0  0  0  0  0  0  0  0  0
   59.3742   30.6176   51.6822 H   0  0  0  0  0  0  0  0  0  0  0  0
   58.1251   30.6761   50.3409 H   0  0  0  0  0  0  0  0  0  0  0  0
   59.0526   28.4332   50.5409 H   0  0  0  0  0  0  0  0  0  0  0  0
   59.5400   29.2380   48.9729 H   0  0  0  0  0  0  0  0  0  0  0  0
   61.2946   28.8293   51.4319 H   0  0  0  0  0  0  0  0  0  0  0  0
   61.4250   27.9769   49.8595 H   0  0  0  0  0  0  0  0  0  0  0  0
   62.3043   30.5383   51.7828 H   0  0  0  0  0  0  0  0  0  0  0  0
   63.6611   29.7282   50.8988 H   0  0  0  0  0  0  0  0  0  0  0  0
   63.2998   32.5118   51.2834 H   0  0  0  0  0  0  0  0  0  0  0  0
   64.4801   31.7068   50.1951 H   0  0  0  0  0  0  0  0  0  0  0  0
   63.8711   32.8674   47.6856 H   0  0  0  0  0  0  0  0  0  0  0  0
   64.1529   31.2156   48.3127 H   0  0  0  0  0  0  0  0  0  0  0  0
   62.3323   32.0800   46.2338 H   0  0  0  0  0  0  0  0  0  0  0  0
   62.6445   30.4021   46.8628 H   0  0  0  0  0  0  0  0  0  0  0  0
   60.8080   32.2290   48.2630 H   0  0  0  0  0  0  0  0  0  0  0  0
   60.9550   30.6290   48.4240 H   0  0  0  0  0  0  0  0  0  0  0  0
   61.1640   28.8481   47.6107 H   0  0  0  0  0  0  0  0  0  0  0  0
   60.5704   26.5165   47.0057 H   0  0  0  0  0  0  0  0  0  0  0  0
   58.7350   26.0735   45.3911 H   0  0  0  0  0  0  0  0  0  0  0  0
   57.5517   27.9607   44.2997 H   0  0  0  0  0  0  0  0  0  0  0  0
   56.3196   29.9659   43.6614 H   0  0  0  0  0  0  0  0  0  0  0  0
   57.2658   31.2312   42.8067 H   0  0  0  0  0  0  0  0  0  0  0  0
   57.8378   29.5284   42.8067 H   0  0  0  0  0  0  0  0  0  0  0  0
   56.6155   32.6692   43.8998 H   0  0  0  0  0  0  0  0  0  0  0  0
   56.9696   35.0191   44.6062 H   0  0  0  0  0  0  0  0  0  0  0  0
   58.8119   35.5873   46.1710 H   0  0  0  0  0  0  0  0  0  0  0  0
   60.2362   33.7976   47.1294 H   0  0  0  0  0  0  0  0  0  0  0  0
  1  2  1  0
  2  3  1  0
  3  4  1  0
  4  5  1  0
  5  6  1  0
  6  7  1  0
  7  8  1  0
  8  9  1  0
  9 10  1  0
 10 11  1  0
 11 12  1  0
 12 13  1  0
 13 14  1  0
 14 15  2  0
 15 16  1  0
 16 17  2  0
 17 18  1  0
 18 19  2  0
 19 20  1  0
 20 21  2  0
 21 22  1  0
 21 23  1  0
 23 24  2  0
 24 25  1  0
 25 26  2  0
 26 27  1  0
 27 28  2  0
 28 14  1  0
 20 15  1  0
 28 23  1  0
  1 29  1  0
  1 30  1  0
  1 31  1  0
  2 32  1  0
  2 33  1  0
  3 34  1  0
  4 35  1  0
  4 36  1  0
  5 37  1  0
  5 38  1  0
  6 39  1  0
  6 40  1  0
  8 41  1  0
  8 42  1  0
  9 43  1  0
  9 44  1  0
 11 45  1  0
 11 46  1  0
 12 47  1  0
 12 48  1  0
 13 49  1  0
 13 50  1  0
 16 51  1  0
 17 52  1  0
 18 53  1  0
 19 54  1  0
 22 55  1  0
 22 56  1  0
 22 57  1  0
 24 58  1  0
 25 59  1  0
 26 60  1  0
 27 61  1  0
M  CHG  2  13   1  21   1
M  END
>  <UniqueID>  (4) 
4

>  <SMILES>  (4) 
CCNCCCOCCOCC[NH2+]c1c2ccccc2[n+](C)c2ccccc12

>  <Energy>  (4) 
87.83133977433613

>  <Genealogy>  (4) 
CCNCCCOCCOCC[NH2+]c1c2ccccc2[n+](C)c2ccccc12 (protonated)
CCNCCCOCCOCC[NH2+]c1c2ccccc2[n+](C)c2ccccc12 (3D coordinates assigned)
CCNCCCOCCOCC[NH2+]c1c2ccccc2[n+](C)c2ccccc12 (optimized conformer: 87.83133977433613 kcal/mol)

>  <smiles>  (4) 
CCNCCCOCCOCCNc1c2ccccc2[n+](C)c2ccccc12

>  <score_type>  (4) 
oracle

>  <origin>  (4) 
adg

>  <m_score__min__energy>  (4) 
-3.3500000000000001

>  <m_primary>  (4) 
energy

$$$$
4:0
     RDKit          3D

 41 42  0  0  0  0  0  0  0  0999 V2000
   57.5220   25.7960   44.6380 C   0  0  0  0  0  0  0  0  0  0  0  0
   58.0140   26.9110   43.8200 N   0  0  0  0  0  0  0  0  0  0  0  0
   58.1320   26.7280   42.3680 C   0  0  0  0  0  0  0  0  0  0  0  0
   58.3780   28.1750   44.4370 C   0  0  0  0  0  0  0  0  0  0  0  0
   59.6390   28.3470   45.0430 C   0  0  0  0  0  0  0  0  0  0  0  0
   59.9900   29.5630   45.6350 C   0  0  0  0  0  0  0  0  0  0  0  0
   59.0950   30.6460   45.6330 C   0  0  0  0  0  0  0  0  0  0  0  0
   59.4450   31.9450   46.2650 C   0  0  0  0  0  0  0  0  0  0  0  0
   58.4970   32.9680   46.4300 C   0  0  0  0  0  0  0  0  0  0  0  0
   58.8780   34.1660   47.0330 C   0  0  0  0  0  0  0  0  0  0  0  0
   60.1890   34.3410   47.4740 C   0  0  0  0  0  0  0  0  0  0  0  0
   61.1230   33.3000   47.3120 C   0  0  0  0  0  0  0  0  0  0  0  0
   62.5670   33.4510   47.7920 C   0  0  0  0  0  0  0  0  0  0  0  0
   63.3950   34.2030   46.7290 C   0  0  0  0  0  0  0  0  0  0  0  0
   63.2180   32.0680   48.0270 C   0  0  0  0  0  0  0  0  0  0  0  0
   62.5970   34.2330   49.1210 C   0  0  0  0  0  0  0  0  0  0  0  0
   60.7160   32.1430   46.7150 N   0  0  0  0  0  0  0  0  0  0  0  0
   57.8330   30.4750   45.0410 C   0  0  0  0  0  0  0  0  0  0  0  0
   57.4800   29.2610   44.4480 C   0  0  0  0  0  0  0  0  0  0  0  0
   57.6324   26.0462   45.7035 H   0  0  0  0  0  0  0  0  0  0  0  0
   56.4607   25.6157   44.4118 H   0  0  0  0  0  0  0  0  0  0  0  0
   58.1041   24.8905   44.4118 H   0  0  0  0  0  0  0  0  0  0  0  0
   58.7173   25.8203   42.1592 H   0  0  0  0  0  0  0  0  0  0  0  0
   57.1287   26.6266   41.9285 H   0  0  0  0  0  0  0  0  0  0  0  0
   58.6384   27.6000   41.9285 H   0  0  0  0  0  0  0  0  0  0  0  0
   60.3562   27.5129   45.0499 H   0  0  0  0  0  0  0  0  0  0  0  0
   60.9772   29.6735   46.1075 H   0  0  0  0  0  0  0  0  0  0  0  0
   57.4619   32.8252   46.0862 H   0  0  0  0  0  0  0  0  0  0  0  0
   58.1431   34.9744   47.1610 H   0  0  0  0  0  0  0  0  0  0  0  0
   60.4920   35.2873   47.9460 H   0  0  0  0  0  0  0  0  0  0  0  0
   64.1206   34.8620   47.2282 H   0  0  0  0  0  0  0  0  0  0  0  0
   63.9312   33.4767   46.1005 H   0  0  0  0  0  0  0  0  0  0  0  0
   62.7235   34.8064   46.1005 H   0  0  0  0  0  0  0  0  0  0  0  0
   63.3052   31.8827   49.1078 H   0  0  0  0  0  0  0  0  0  0  0  0
   62.5933   31.2863   47.5702 H   0  0  0  0  0  0  0  0  0  0  0  0
   64.2185   32.0513   47.5702 H   0  0  0  0  0  0  0  0  0  0  0  0
   62.5699   33.5259   49.9632 H   0  0  0  0  0  0  0  0  0  0  0  0
   63.5187   34.8310   49.1738 H   0  0  0  0  0  0  0  0  0  0  0  0
   61.7238   34.8999   49.1738 H   0  0  0  0  0  0  0  0  0  0  0  0
   57.1139   31.3074   45.0445 H   0  0  0  0  0  0  0  0  0  0  0  0
   56.4888   29.1511   43.9838 H   0  0  0  0  0  0  0  0  0  0  0  0
  1  2  1  0
  2  3  1  0
  2  4  1  0
  4  5  2  0
  5  6  1  0
  6  7  2  0
  7  8  1  0
  8  9  2  0
  9 10  1  0
 10 11  2  0
 11 12  1  0
 12 13  1  0
 13 14  1  0
 13 15  1  0
 13 16  1  0
 12 17  2  0
  7 18  1  0
 18 19  2  0
 19  4  1  0
 17  8  1  0
  1 20  1  0
  1 21  1  0
  1 22  1  0
  3 23  1  0
  3 24  1  0
  3 25  1  0
  5 26  1  0
  6 27  1  0
  9 28  1  0
 10 29  1  0
 11 30  1  0
 14 31  1  0
 14 32  1  0
 14 33  1  0
 15 34  1  0
 15 35  1  0
 15 36  1  0
 16 37  1  0
 16 38  1  0
 16 39  1  0
 18 40  1  0
 19 41  1  0
M  END
>  <UniqueID>  (5) 
5

>  <SMILES>  (5) 
CN(C)c1ccc(-c2cccc(C(C)(C)C)n2)cc1

>  <Energy>  (5) 
44.18175423345779

>  <Genealogy>  (5) 
CN(C)c1ccc(-c2cccc(C(C)(C)C)n2)cc1 (3D coordinates assigned)
CN(C)c1ccc(-c2cccc(C(C)(C)C)n2)cc1 (optimized conformer: 44.18175423345779 kcal/mol)

>  <smiles>  (5) 
CN(C)c1ccc(-c2cccc(C(C)(C)C)n2)cc1

>  <score_type>  (5) 
oracle

>  <origin>  (5) 
adg

>  <m_score__min__energy>  (5) 
-6.54

>  <m_primary>  (5) 
energy

$$$$
5:0
     RDKit          3D

 49 50  0  0  0  0  0  0  0  0999 V2000
   59.6730   34.2020   49.0680 C   0  0  0  0  0  0  0  0  0  0  0  0
   60.9790   33.7510   48.4940 C   0  0  0  0  0  0  0  0  0  0  0  0
   62.1390   33.7430   49.1790 N   0  0  0  0  0  0  0  0  0  0  0  0
   63.0860   33.3140   48.3520 N   0  0  0  0  0  0  0  0  0  0  0  0
   64.4950   33.2350   48.7070 C   0  0  0  0  0  0  0  0  0  0  0  0
   62.5670   33.0680   47.1330 C   0  0  0  0  0  0  0  0  0  0  0  0
   61.2110   33.3210   47.1980 C   0  0  0  0  0  0  0  0  0  0  0  0
   60.2510   33.2590   46.1310 N   0  0  0  0  0  0  0  0  0  0  0  0
   59.4300   34.3710   45.7320 C   0  0  0  0  0  0  0  0  0  0  0  0
   59.6950   35.5390   46.1250 O   0  0  0  0  0  0  0  0  0  0  0  0
   58.2500   34.1560   44.8290 C   0  0  0  0  0  0  0  0  0  0  0  0
   57.3150   33.0550   45.3530 C   0  0  0  0  0  0  0  0  0  0  0  0
   57.5640   31.6790   44.7080 C   0  0  0  0  0  0  0  0  0  0  0  0
   56.2630   30.9790   44.2810 C   0  0  0  0  0  0  0  0  0  0  0  0
   56.4710   29.4790   44.0340 C   0  0  0  0  0  0  0  0  0  0  0  0
   55.9790   28.7000   45.1840 N   0  0  0  0  0  0  0  0  0  0  0  0
   56.9950   27.7670   45.6880 C   0  0  0  0  0  0  0  0  0  0  0  0
   58.2850   28.5050   45.9140 C   0  0  0  0  0  0  0  0  0  0  0  0
   59.3750   28.3160   45.0470 C   0  0  0  0  0  0  0  0  0  0  0  0
   60.5890   28.9660   45.2940 C   0  0  0  0  0  0  0  0  0  0  0  0
   60.7210   29.8060   46.4020 C   0  0  0  0  0  0  0  0  0  0  0  0
   61.8990   30.4290   46.6470 F   0  0  0  0  0  0  0  0  0  0  0  0
   59.6390   30.0000   47.2660 C   0  0  0  0  0  0  0  0  0  0  0  0
   58.4270   29.3470   47.0270 C   0  0  0  0  0  0  0  0  0  0  0  0
   59.7290   34.1827   50.1664 H   0  0  0  0  0  0  0  0  0  0  0  0
   59.4581   35.2264   48.7298 H   0  0  0  0  0  0  0  0  0  0  0  0
   58.8717   33.5285   48.7298 H   0  0  0  0  0  0  0  0  0  0  0  0
   64.5974   33.2293   49.8022 H   0  0  0  0  0  0  0  0  0  0  0  0
   64.9261   32.3113   48.2936 H   0  0  0  0  0  0  0  0  0  0  0  0
   65.0266   34.1048   48.2936 H   0  0  0  0  0  0  0  0  0  0  0  0
   63.1227   32.7274   46.2469 H   0  0  0  0  0  0  0  0  0  0  0  0
   60.1650   32.3600   45.6000 H   0  0  0  0  0  0  0  0  0  0  0  0
   57.6841   35.0963   44.7547 H   0  0  0  0  0  0  0  0  0  0  0  0
   58.6287   33.8396   43.8459 H   0  0  0  0  0  0  0  0  0  0  0  0
   57.4613   32.9619   46.4392 H   0  0  0  0  0  0  0  0  0  0  0  0
   56.2881   33.3525   45.0942 H   0  0  0  0  0  0  0  0  0  0  0  0
   58.1976   31.8165   43.8193 H   0  0  0  0  0  0  0  0  0  0  0  0
   58.0517   31.0426   45.4611 H   0  0  0  0  0  0  0  0  0  0  0  0
   55.5134   31.1073   45.0758 H   0  0  0  0  0  0  0  0  0  0  0  0
   55.9259   31.4348   43.3383 H   0  0  0  0  0  0  0  0  0  0  0  0
   55.9199   29.1799   43.1302 H   0  0  0  0  0  0  0  0  0  0  0  0
   57.5453   29.2830   43.9014 H   0  0  0  0  0  0  0  0  0  0  0  0
   55.1470   28.1400   44.8790 H   0  0  0  0  0  0  0  0  0  0  0  0
   56.6520   27.3290   46.6370 H   0  0  0  0  0  0  0  0  0  0  0  0
   57.1550   26.9661   44.9511 H   0  0  0  0  0  0  0  0  0  0  0  0
   59.2734   27.6560   44.1729 H   0  0  0  0  0  0  0  0  0  0  0  0
   61.4408   28.8153   44.6145 H   0  0  0  0  0  0  0  0  0  0  0  0
   59.7419   30.6672   48.1345 H   0  0  0  0  0  0  0  0  0  0  0  0
   57.5808   29.4938   47.7144 H   0  0  0  0  0  0  0  0  0  0  0  0
  1  2  1  0
  2  3  2  0
  3  4  1  0
  4  5  1  0
  4  6  1  0
  6  7  2  0
  7  8  1  0
  8  9  1  0
  9 10  2  0
  9 11  1  0
 11 12  1  0
 12 13  1  0
 13 14  1  0
 14 15  1  0
 15 16  1  0
 16 17  1  0
 17 18  1  0
 18 19  2  0
 19 20  1  0
 20 21  2  0
 21 22  1  0
 21 23  1  0
 23 24  2  0
  7  2  1  0
 24 18  1  0
  1 25  1  0
  1 26  1  0
  1 27  1  0
  5 28  1  0
  5 29  1  0
  5 30  1  0
  6 31  1  0
  8 32  1  0
 11 33  1  0
 11 34  1  0
 12 35  1  0
 12 36  1  0
 13 37  1  0
 13 38  1  0
 14 39  1  0
 14 40  1  0
 15 41  1  0
 15 42  1  0
 16 43  1  0
 17 44  1  0
 17 45  1  0
 19 46  1  0
 20 47  1  0
 23 48  1  0
 24 49  1  0
M  END
>  <UniqueID>  (6) 
6

>  <SMILES>  (6) 
Cc1nn(C)cc1NC(=O)CCCCCNCc1ccc(F)cc1

>  <Energy>  (6) 
70.19846826978842

>  <Genealogy>  (6) 
Cc1nn(C)cc1NC(=O)CCCCCNCc1ccc(F)cc1 (3D coordinates assigned)
Cc1nn(C)cc1NC(=O)CCCCCNCc1ccc(F)cc1 (optimized conformer: 70.19846826978842 kcal/mol)

>  <smiles>  (6) 
Cc1nn(C)cc1NC(=O)CCCCCNCc1ccc(F)cc1

>  <score_type>  (6) 
oracle

>  <origin>  (6) 
adg

>  <m_score__min__energy>  (6) 
-7.7999999999999998

>  <m_primary>  (6) 
energy

$$$$
6:0
     RDKit          3D

 78 81  0  0  0  0  0  0  0  0999 V2000
   55.3690   24.8210   45.6360 C   0  0  0  0  0  0  0  0  0  0  0  0
   56.2260   26.0390   45.9820 C   0  0  0  0  0  0  0  0  0  0  0  0
   57.2490   25.6880   46.9910 N   0  0  0  0  0  0  0  0  0  0  0  0
   56.9510   24.3910   47.6190 C   0  0  0  0  0  0  0  0  0  0  0  0
   58.6270   25.6780   46.4220 C   0  0  0  0  0  0  0  0  0  0  0  0
   59.2370   27.0960   46.4700 C   0  0  0  0  0  0  0  0  0  0  0  0
   58.2580   28.0860   46.9440 N   0  0  0  0  0  0  0  0  0  0  0  0
   58.3090   29.4640   46.5260 C   0  0  0  0  0  0  0  0  0  0  0  0
   57.8150   29.8330   45.2680 C   0  0  0  0  0  0  0  0  0  0  0  0
   57.4670   28.8540   44.3100 C   0  0  0  0  0  0  0  0  0  0  0  0
   56.8960   29.2190   43.0940 C   0  0  0  0  0  0  0  0  0  0  0  0
   56.6600   30.5600   42.8180 C   0  0  0  0  0  0  0  0  0  0  0  0
   57.0360   31.5450   43.7340 C   0  0  0  0  0  0  0  0  0  0  0  0
   57.6850   31.2080   44.9470 C   0  0  0  0  0  0  0  0  0  0  0  0
   58.1580   32.1790   45.8200 N   0  0  0  0  0  0  0  0  0  0  0  0
   58.2050   33.5780   45.3340 C   0  0  0  0  0  0  0  0  0  0  0  0
   58.6190   31.8230   47.0730 C   0  0  0  0  0  0  0  0  0  0  0  0
   58.9220   32.7870   48.0700 C   0  0  0  0  0  0  0  0  0  0  0  0
   59.3970   32.4030   49.3330 C   0  0  0  0  0  0  0  0  0  0  0  0
   59.6740   33.3300   50.3550 O   0  0  0  0  0  0  0  0  0  0  0  0
   60.3520   33.0460   51.5780 C   0  0  0  0  0  0  0  0  0  0  0  0
   61.6920   33.8000   51.7660 C   0  0  0  0  0  0  0  0  0  0  0  0
   62.7540   33.6910   50.7030 N   0  0  0  0  0  0  0  0  0  0  0  0
   64.0120   34.1450   51.3600 C   0  0  0  0  0  0  0  0  0  0  0  0
   62.5060   34.5880   49.5200 C   0  0  0  0  0  0  0  0  0  0  0  0
   61.9440   33.8460   48.2880 C   0  0  0  0  0  0  0  0  0  0  0  0
   62.8370   32.7480   47.8030 N   0  0  0  0  0  0  0  0  0  0  0  0
   62.0170   31.6930   47.1400 C   0  0  0  0  0  0  0  0  0  0  0  0
   63.7700   33.3120   46.7920 C   0  0  0  0  0  0  0  0  0  0  0  0
   63.6360   32.1310   48.9130 C   0  0  0  0  0  0  0  0  0  0  0  0
   62.9410   32.2630   50.2890 C   0  0  0  0  0  0  0  0  0  0  0  0
   59.5790   31.0540   49.6190 C   0  0  0  0  0  0  0  0  0  0  0  0
   59.2750   30.0890   48.6730 C   0  0  0  0  0  0  0  0  0  0  0  0
   58.7520   30.4520   47.4210 C   0  0  0  0  0  0  0  0  0  0  0  0
   55.0284   24.3370   46.5632 H   0  0  0  0  0  0  0  0  0  0  0  0
   54.4965   25.1417   45.0479 H   0  0  0  0  0  0  0  0  0  0  0  0
   55.9655   24.1080   45.0479 H   0  0  0  0  0  0  0  0  0  0  0  0
   56.7260   26.3994   45.0709 H   0  0  0  0  0  0  0  0  0  0  0  0
   55.5754   26.8236   46.3957 H   0  0  0  0  0  0  0  0  0  0  0  0
   56.9759   24.4992   48.7134 H   0  0  0  0  0  0  0  0  0  0  0  0
   55.9519   24.0533   47.3065 H   0  0  0  0  0  0  0  0  0  0  0  0
   57.7025   23.6510   47.3065 H   0  0  0  0  0  0  0  0  0  0  0  0
   59.2565   24.9921   47.0079 H   0  0  0  0  0  0  0  0  0  0  0  0
   58.5794   25.3442   45.3749 H   0  0  0  0  0  0  0  0  0  0  0  0
   60.1001   27.0914   47.1520 H   0  0  0  0  0  0  0  0  0  0  0  0
   59.5455   27.3746   45.4516 H   0  0  0  0  0  0  0  0  0  0  0  0
   57.4500   27.7650   47.5370 H   0  0  0  0  0  0  0  0  0  0  0  0
   57.6494   27.7913   44.5277 H   0  0  0  0  0  0  0  0  0  0  0  0
   56.6326   28.4485   42.3544 H   0  0  0  0  0  0  0  0  0  0  0  0
   56.1747   30.8473   41.8736 H   0  0  0  0  0  0  0  0  0  0  0  0
   56.8244   32.6009   43.5095 H   0  0  0  0  0  0  0  0  0  0  0  0
   58.2281   34.2641   46.1935 H   0  0  0  0  0  0  0  0  0  0  0  0
   59.1086   33.7241   44.7239 H   0  0  0  0  0  0  0  0  0  0  0  0
   57.3133   33.7844   44.7239 H   0  0  0  0  0  0  0  0  0  0  0  0
   58.7817   33.8552   47.8481 H   0  0  0  0  0  0  0  0  0  0  0  0
   59.6861   33.3183   52.4101 H   0  0  0  0  0  0  0  0  0  0  0  0
   60.5994   31.9744   51.5542 H   0  0  0  0  0  0  0  0  0  0  0  0
   61.4480   34.8678   51.8677 H   0  0  0  0  0  0  0  0  0  0  0  0
   62.1464   33.3103   52.6399 H   0  0  0  0  0  0  0  0  0  0  0  0
   63.8914   34.1015   52.4525 H   0  0  0  0  0  0  0  0  0  0  0  0
   64.8415   33.4895   51.0563 H   0  0  0  0  0  0  0  0  0  0  0  0
   64.2317   35.1791   51.0563 H   0  0  0  0  0  0  0  0  0  0  0  0
   61.7852   35.3640   49.8172 H   0  0  0  0  0  0  0  0  0  0  0  0
   63.4783   35.0102   49.2262 H   0  0  0  0  0  0  0  0  0  0  0  0
   60.9697   33.4115   48.5560 H   0  0  0  0  0  0  0  0  0  0  0  0
   61.8588   34.5814   47.4744 H   0  0  0  0  0  0  0  0  0  0  0  0
   61.5325   31.0697   47.9060 H   0  0  0  0  0  0  0  0  0  0  0  0
   61.2477   32.1668   46.5125 H   0  0  0  0  0  0  0  0  0  0  0  0
   62.6660   31.0645   46.5125 H   0  0  0  0  0  0  0  0  0  0  0  0
   64.6036   33.8159   47.3031 H   0  0  0  0  0  0  0  0  0  0  0  0
   64.1630   32.5001   46.1625 H   0  0  0  0  0  0  0  0  0  0  0  0
   63.2337   34.0373   46.1625 H   0  0  0  0  0  0  0  0  0  0  0  0
   63.7805   31.0632   48.6920 H   0  0  0  0  0  0  0  0  0  0  0  0
   64.5954   32.6660   48.9710 H   0  0  0  0  0  0  0  0  0  0  0  0
   61.9544   31.7797   50.2337 H   0  0  0  0  0  0  0  0  0  0  0  0
   63.5867   31.7800   51.0372 H   0  0  0  0  0  0  0  0  0  0  0  0
   59.9669   30.7515   50.6029 H   0  0  0  0  0  0  0  0  0  0  0  0
   59.4450   29.0272   48.9047 H   0  0  0  0  0  0  0  0  0  0  0  0
  1  2  1  0
  2  3  1  0
  3  4  1  0
  3  5  1  0
  5  6  1  0
  6  7  1  0
  7  8  1  0
  8  9  2  0
  9 10  1  0
 10 11  2  0
 11 12  1  0
 12 13  2  0
 13 14  1  0
 14 15  2  0
 15 16  1  0
 15 17  1  0
 17 18  2  0
 18 19  1  0
 19 20  1  0
 20 21  1  0
 21 22  1  0
 22 23  1  0
 23 24  1  0
 23 25  1  0
 25 26  1  0
 26 27  1  0
 27 28  1  0
 27 29  1  0
 27 30  1  0
 30 31  1  0
 19 32  2  0
 32 33  1  0
 33 34  2  0
 34  8  1  0
 14  9  1  0
 34 17  1  0
 31 23  1  0
  1 35  1  0
  1 36  1  0
  1 37  1  0
  2 38  1  0
  2 39  1  0
  4 40  1  0
  4 41  1  0
  4 42  1  0
  5 43  1  0
  5 44  1  0
  6 45  1  0
  6 46  1  0
  7 47  1  0
 10 48  1  0
 11 49  1  0
 12 50  1  0
 13 51  1  0
 16 52  1  0
 16 53  1  0
 16 54  1  0
 18 55  1  0
 21 56  1  0
 21 57  1  0
 22 58  1  0
 22 59  1  0
 24 60  1  0
 24 61  1  0
 24 62  1  0
 25 63  1  0
 25 64  1  0
 26 65  1  0
 26 66  1  0
 28 67  1  0
 28 68  1  0
 28 69  1  0
 29 70  1  0
 29 71  1  0
 29 72  1  0
 30 73  1  0
 30 74  1  0
 31 75  1  0
 31 76  1  0
 32 77  1  0
 33 78  1  0
M  CHG  3  15   1  23   1  27   1
M  END
>  <UniqueID>  (7) 
7

>  <SMILES>  (7) 
CCN(C)CCNc1c2ccccc2[n+](C)c2cc(OCC[N+]3(C)CC[N+](C)(C)CC3)ccc12

>  <Energy>  (7) 
149.55162835475312

>  <Genealogy>  (7) 
CCN(C)CCNc1c2ccccc2[n+](C)c2cc(OCC[N+]3(C)CC[N+](C)(C)CC3)ccc12 (3D coordinates assigned)
CCN(C)CCNc1c2ccccc2[n+](C)c2cc(OCC[N+]3(C)CC[N+](C)(C)CC3)ccc12 (nonaromatic ring conformer: 149.55162835475312 kcal/mol)

>  <smiles>  (7) 
CCN(C)CCNc1c2ccccc2[n+](C)c2cc(OCC[N+]3(C)CC[N+](C)(C)CC3)ccc12

>  <score_type>  (7) 
oracle

>  <origin>  (7) 
adg

>  <m_score__min__energy>  (7) 
-3.7200000000000002

>  <m_primary>  (7) 
energy

$$$$
7:0
     RDKit          3D

 52 56  0  0  0  0  0  0  0  0999 V2000
   55.3100   26.1850   46.0150 O   0  0  0  0  0  0  0  0  0  0  0  0
   56.2770   25.4470   45.6880 C   0  0  0  0  0  0  0  0  0  0  0  0
   56.0250   24.0260   45.2720 C   0  0  0  0  0  0  0  0  0  0  0  0
   57.1800   23.3930   44.5040 C   0  0  0  0  0  0  0  0  0  0  0  0
   55.9040   23.7770   43.7750 C   0  0  0  0  0  0  0  0  0  0  0  0
   57.5980   25.9990   45.6360 N   0  0  0  0  0  0  0  0  0  0  0  0
   57.9210   27.0010   44.6190 C   0  0  0  0  0  0  0  0  0  0  0  0
   58.1640   28.3780   45.2650 C   0  0  0  0  0  0  0  0  0  0  0  0
   58.6860   28.3050   46.7330 C   0  0  0  0  0  0  0  0  0  0  0  0
   59.5520   29.4710   47.0540 N   0  0  0  0  0  0  0  0  0  0  0  0
   59.2020   30.1060   48.3580 C   0  0  0  0  0  0  0  0  0  0  0  0
   59.2900   31.5550   48.1050 C   0  0  0  0  0  0  0  0  0  0  0  0
   58.6260   32.5580   48.7110 N   0  0  0  0  0  0  0  0  0  0  0  0
   58.4810   33.4600   47.7090 C   0  0  0  0  0  0  0  0  0  0  0  0
   58.9380   33.0030   46.5190 N   0  0  0  0  0  0  0  0  0  0  0  0
   58.7020   33.5860   45.1990 C   0  0  0  0  0  0  0  0  0  0  0  0
   57.9810   32.6140   44.3000 C   0  0  0  0  0  0  0  0  0  0  0  0
   57.0350   31.7170   44.8300 C   0  0  0  0  0  0  0  0  0  0  0  0
   56.3750   30.8090   43.9960 C   0  0  0  0  0  0  0  0  0  0  0  0
   56.6380   30.8000   42.6240 C   0  0  0  0  0  0  0  0  0  0  0  0
   57.5660   31.6990   42.0860 C   0  0  0  0  0  0  0  0  0  0  0  0
   58.2340   32.6030   42.9190 C   0  0  0  0  0  0  0  0  0  0  0  0
   59.4620   31.8030   46.8130 C   0  0  0  0  0  0  0  0  0  0  0  0
   59.4740   30.5520   46.0310 C   0  0  0  0  0  0  0  0  0  0  0  0
   59.4580   26.9790   46.9460 C   0  0  0  0  0  0  0  0  0  0  0  0
   58.5150   25.7820   46.7630 C   0  0  0  0  0  0  0  0  0  0  0  0
   55.4134   23.7604   46.1469 H   0  0  0  0  0  0  0  0  0  0  0  0
   58.1045   23.9638   44.3322 H   0  0  0  0  0  0  0  0  0  0  0  0
   57.7690   22.4697   44.6070 H   0  0  0  0  0  0  0  0  0  0  0  0
   55.9052   24.6255   43.0749 H   0  0  0  0  0  0  0  0  0  0  0  0
   55.1873   23.2460   43.1313 H   0  0  0  0  0  0  0  0  0  0  0  0
   58.8289   26.6896   44.0816 H   0  0  0  0  0  0  0  0  0  0  0  0
   57.0730   27.0829   43.9232 H   0  0  0  0  0  0  0  0  0  0  0  0
   58.9070   28.9180   44.6598 H   0  0  0  0  0  0  0  0  0  0  0  0
   57.1916   28.8912   45.2974 H   0  0  0  0  0  0  0  0  0  0  0  0
   57.8224   28.3343   47.4137 H   0  0  0  0  0  0  0  0  0  0  0  0
   58.1829   29.8270   48.6640 H   0  0  0  0  0  0  0  0  0  0  0  0
   59.8708   29.7843   49.1700 H   0  0  0  0  0  0  0  0  0  0  0  0
   58.0389   34.4576   47.8481 H   0  0  0  0  0  0  0  0  0  0  0  0
   58.0909   34.4938   45.3108 H   0  0  0  0  0  0  0  0  0  0  0  0
   59.6738   33.8290   44.7445 H   0  0  0  0  0  0  0  0  0  0  0  0
   56.8133   31.7302   45.9073 H   0  0  0  0  0  0  0  0  0  0  0  0
   55.6480   30.1011   44.4207 H   0  0  0  0  0  0  0  0  0  0  0  0
   56.1167   30.0876   41.9677 H   0  0  0  0  0  0  0  0  0  0  0  0
   57.7707   31.6948   41.0052 H   0  0  0  0  0  0  0  0  0  0  0  0
   58.9608   33.3085   42.4900 H   0  0  0  0  0  0  0  0  0  0  0  0
   58.5542   30.4574   45.4352 H   0  0  0  0  0  0  0  0  0  0  0  0
   60.3108   30.5133   45.3180 H   0  0  0  0  0  0  0  0  0  0  0  0
   60.2757   26.9128   46.2133 H   0  0  0  0  0  0  0  0  0  0  0  0
   59.8667   26.9614   47.9671 H   0  0  0  0  0  0  0  0  0  0  0  0
   59.1134   24.8793   46.5707 H   0  0  0  0  0  0  0  0  0  0  0  0
   57.9195   25.6628   47.6802 H   0  0  0  0  0  0  0  0  0  0  0  0
  1  2  2  0
  2  3  1  0
  3  4  1  0
  4  5  1  0
  2  6  1  0
  6  7  1  0
  7  8  1  0
  8  9  1  0
  9 10  1  0
 10 11  1  0
 11 12  1  0
 12 13  1  0
 13 14  2  0
 14 15  1  0
 15 16  1  0
 16 17  1  0
 17 18  2  0
 18 19  1  0
 19 20  2  0
 20 21  1  0
 21 22  2  0
 15 23  1  0
 23 24  1  0
  9 25  1  0
 25 26  1  0
  5  3  1  0
 26  6  1  0
 24 10  1  0
 23 12  2  0
 22 17  1  0
  3 27  1  0
  4 28  1  0
  4 29  1  0
  5 30  1  0
  5 31  1  0
  7 32  1  0
  7 33  1  0
  8 34  1  0
  8 35  1  0
  9 36  1  0
 11 37  1  0
 11 38  1  0
 14 39  1  0
 16 40  1  0
 16 41  1  0
 18 42  1  0
 19 43  1  0
 20 44  1  0
 21 45  1  0
 22 46  1  0
 24 47  1  0
 24 48  1  0
 25 49  1  0
 25 50  1  0
 26 51  1  0
 26 52  1  0
M  END
>  <UniqueID>  (8) 
8

>  <SMILES>  (8) 
O=C(C1CC1)N1CCC(N2Cc3ncn(Cc4ccccc4)c3C2)CC1

>  <Energy>  (8) 
385.86577879261455

>  <Genealogy>  (8) 
O=C(C1CC1)N1CCC(N2Cc3ncn(Cc4ccccc4)c3C2)CC1 (3D coordinates assigned)
O=C(C1CC1)N1CCC(N2Cc3ncn(Cc4ccccc4)c3C2)CC1 (nonaromatic ring conformer: 385.86577879261455 kcal/mol)

>  <smiles>  (8) 
O=C(C1CC1)N1CCC(N2Cc3ncn(Cc4ccccc4)c3C2)CC1

>  <score_type>  (8) 
oracle

>  <origin>  (8) 
adg

>  <m_score__min__energy>  (8) 
-8.6400000000000006

>  <m_primary>  (8) 
energy

$$$$
8:0
     RDKit          3D

 57 60  0  0  0  0  0  0  0  0999 V2000
   57.8379   34.0218   52.6542 H   0  0  0  0  0  0  0  0  0  0  0  0
   58.3310   33.3070   51.9790 C   0  0  0  0  0  0  0  0  0  0  0  0
   57.6020   32.2510   51.4300 C   0  0  0  0  0  0  0  0  0  0  0  0
   56.5355   32.1370   51.6740 H   0  0  0  0  0  0  0  0  0  0  0  0
   58.2210   31.3370   50.5710 C   0  0  0  0  0  0  0  0  0  0  0  0
   57.6384   30.5095   50.1399 H   0  0  0  0  0  0  0  0  0  0  0  0
   59.5900   31.4720   50.2550 C   0  0  0  0  0  0  0  0  0  0  0  0
   60.2490   30.5810   49.3780 C   0  0  0  0  0  0  0  0  0  0  0  0
   59.5750   29.6100   48.8190 N   0  0  0  0  0  0  0  0  0  0  0  0
   58.9680   29.6010   47.5170 C   0  0  0  0  0  0  0  0  0  0  0  0
   58.3820   28.4230   47.0460 C   0  0  0  0  0  0  0  0  0  0  0  0
   58.4328   27.5077   47.6540 H   0  0  0  0  0  0  0  0  0  0  0  0
   57.7320   28.3980   45.8090 C   0  0  0  0  0  0  0  0  0  0  0  0
   57.2908   27.4605   45.4396 H   0  0  0  0  0  0  0  0  0  0  0  0
   57.6410   29.5670   45.0370 C   0  0  0  0  0  0  0  0  0  0  0  0
   56.9880   29.5560   43.7950 C   0  0  0  0  0  0  0  0  0  0  0  0
   56.5510   28.6218   43.4124 H   0  0  0  0  0  0  0  0  0  0  0  0
   56.8920   30.7310   43.0430 C   0  0  0  0  0  0  0  0  0  0  0  0
   56.3798   30.7182   42.0696 H   0  0  0  0  0  0  0  0  0  0  0  0
   57.4440   31.9210   43.5230 C   0  0  0  0  0  0  0  0  0  0  0  0
   57.3659   32.8417   42.9262 H   0  0  0  0  0  0  0  0  0  0  0  0
   58.0950   31.9450   44.7590 C   0  0  0  0  0  0  0  0  0  0  0  0
   58.5255   32.8852   45.1341 H   0  0  0  0  0  0  0  0  0  0  0  0
   58.2010   30.7730   45.5230 C   0  0  0  0  0  0  0  0  0  0  0  0
   58.8480   30.7850   46.7670 C   0  0  0  0  0  0  0  0  0  0  0  0
   59.2639   31.7251   47.1584 H   0  0  0  0  0  0  0  0  0  0  0  0
   61.6280   30.7600   49.1460 C   0  0  0  0  0  0  0  0  0  0  0  0
   62.1764   30.0391   48.5218 H   0  0  0  0  0  0  0  0  0  0  0  0
   62.3030   31.8520   49.7070 C   0  0  0  0  0  0  0  0  0  0  0  0
   63.6930   32.0870   49.4140 N   0  0  0  0  0  0  0  0  0  0  0  0
   64.2330   32.2020   50.3040 H   0  0  0  0  0  0  0  0  0  0  0  0
   64.0770   31.2480   48.9210 H   0  0  0  0  0  0  0  0  0  0  0  0
   63.8920   33.2730   48.5600 C   0  0  0  0  0  0  0  0  0  0  0  0
   64.9006   33.6713   48.7446 H   0  0  0  0  0  0  0  0  0  0  0  0
   63.1069   33.9982   48.8202 H   0  0  0  0  0  0  0  0  0  0  0  0
   63.7530   32.9680   47.0510 C   0  0  0  0  0  0  0  0  0  0  0  0
   63.4470   31.9185   46.9292 H   0  0  0  0  0  0  0  0  0  0  0  0
   64.7273   33.1605   46.5781 H   0  0  0  0  0  0  0  0  0  0  0  0
   62.7110   33.8700   46.3650 C   0  0  0  0  0  0  0  0  0  0  0  0
   62.8328   33.7851   45.2751 H   0  0  0  0  0  0  0  0  0  0  0  0
   62.8800   34.9008   46.7098 H   0  0  0  0  0  0  0  0  0  0  0  0
   61.2680   33.4820   46.7330 C   0  0  0  0  0  0  0  0  0  0  0  0
   61.2410   32.4062   46.9611 H   0  0  0  0  0  0  0  0  0  0  0  0
   60.6288   33.7341   45.8741 H   0  0  0  0  0  0  0  0  0  0  0  0
   60.7540   34.2250   47.9020 N   0  0  0  0  0  0  0  0  0  0  0  0
   61.0280   33.7590   48.7970 H   0  0  0  0  0  0  0  0  0  0  0  0
   59.2920   34.3530   47.8660 C   0  0  0  0  0  0  0  0  0  0  0  0
   58.9855   35.1946   48.5045 H   0  0  0  0  0  0  0  0  0  0  0  0
   58.8416   33.4188   48.2326 H   0  0  0  0  0  0  0  0  0  0  0  0
   58.8180   34.6060   46.4370 C   0  0  0  0  0  0  0  0  0  0  0  0
   57.8478   35.1239   46.4588 H   0  0  0  0  0  0  0  0  0  0  0  0
   59.5553   35.2306   45.9113 H   0  0  0  0  0  0  0  0  0  0  0  0
   58.7094   33.6459   45.9113 H   0  0  0  0  0  0  0  0  0  0  0  0
   61.6320   32.7110   50.5210 N   0  0  0  0  0  0  0  0  0  0  0  0
   60.3180   32.5490   50.8170 C   0  0  0  0  0  0  0  0  0  0  0  0
   59.6850   33.4580   51.6730 C   0  0  0  0  0  0  0  0  0  0  0  0
   60.2555   34.2931   52.1055 H   0  0  0  0  0  0  0  0  0  0  0  0
  1  2  1  0
  2  3  2  0
  3  4  1  0
  3  5  1  0
  5  6  1  0
  5  7  2  0
  7  8  1  0
  8  9  2  0
  9 10  1  0
 10 11  2  0
 11 12  1  0
 11 13  1  0
 13 14  1  0
 13 15  2  0
 15 16  1  0
 16 17  1  0
 16 18  2  0
 18 19  1  0
 18 20  1  0
 20 21  1  0
 20 22  2  0
 22 23  1  0
 22 24  1  0
 24 25  2  0
 25 26  1  0
  8 27  1  0
 27 28  1  0
 27 29  2  0
 29 30  1  0
 30 31  1  0
 30 32  1  0
 30 33  1  0
 33 34  1  0
 33 35  1  0
 33 36  1  0
 36 37  1  0
 36 38  1  0
 36 39  1  0
 39 40  1  0
 39 41  1  0
 39 42  1  0
 42 43  1  0
 42 44  1  0
 42 45  1  0
 45 46  1  0
 45 47  1  0
 47 48  1  0
 47 49  1  0
 47 50  1  0
 50 51  1  0
 50 52  1  0
 50 53  1  0
 29 54  1  0
 54 55  1  0
 55 56  2  0
 56 57  1  0
 56  2  1  0
 55  7  1  0
 25 10  1  0
 24 15  1  0
M  CHG  2  30   1  54  -1
M  END
>  <UniqueID>  (9) 
9

>  <SMILES>  (9) 
CCNCCCC[NH2+]c1c/c(=N\c2ccc3ccccc3c2)c2ccccc2[n-]1

>  <Energy>  (9) 
74.26950368802277

>  <Genealogy>  (9) 
CCNCCCC[NH2+]c1cc(=Nc2ccc3ccccc3c2)c2ccccc2[n-]1 (protonated)
CCNCCCC[NH2+]c1c/c(=N\c2ccc3ccccc3c2)c2ccccc2[n-]1 (cis-trans isomerization)
CCNCCCC[NH2+]c1c/c(=N\c2ccc3ccccc3c2)c2ccccc2[n-]1 (3D coordinates assigned)
CCNCCCC[NH2+]c1c/c(=N\c2ccc3ccccc3c2)c2ccccc2[n-]1 (optimized conformer: 74.26950368802277 kcal/mol)

>  <smiles>  (9) 
CCNCCCCNc1cc(=Nc2ccc3ccccc3c2)c2ccccc2[nH]1

>  <score_type>  (9) 
oracle

>  <origin>  (9) 
adg

>  <m_score__min__energy>  (9) 
-8.2400000000000002

>  <m_primary>  (9) 
energy

$$$$
9:0
     RDKit          3D

 46 48  0  0  0  0  0  0  0  0999 V2000
   59.4510   34.9310   45.8170 C   0  0  0  0  0  0  0  0  0  0  0  0
   58.7810   33.6410   45.4210 C   0  0  0  0  0  0  0  0  0  0  0  0
   58.5250   33.3860   44.0660 C   0  0  0  0  0  0  0  0  0  0  0  0
   57.8920   32.2020   43.6550 C   0  0  0  0  0  0  0  0  0  0  0  0
   57.6480   31.9780   42.1850 C   0  0  0  0  0  0  0  0  0  0  0  0
   57.5230   31.2420   44.6250 C   0  0  0  0  0  0  0  0  0  0  0  0
   56.7250   29.7210   44.1760 S   0  0  0  0  0  0  0  0  0  0  0  0
   56.0590   29.8670   42.8340 O   0  0  0  0  0  0  0  0  0  0  0  0
   55.6600   29.4150   45.1910 O   0  0  0  0  0  0  0  0  0  0  0  0
   57.8720   28.3970   44.1260 N   0  0  0  0  0  0  0  0  0  0  0  0
   57.5890   27.3710   45.1470 C   0  0  0  0  0  0  0  0  0  0  0  0
   57.8440   27.8930   46.5670 C   0  0  0  0  0  0  0  0  0  0  0  0
   59.0730   28.6930   46.6260 N   0  0  0  0  0  0  0  0  0  0  0  0
   59.4240   29.3580   47.8580 C   0  0  0  0  0  0  0  0  0  0  0  0
   58.5640   29.3580   48.9150 N   0  0  0  0  0  0  0  0  0  0  0  0
   58.8810   29.9790   50.0810 C   0  0  0  0  0  0  0  0  0  0  0  0
   60.1050   30.6320   50.2100 C   0  0  0  0  0  0  0  0  0  0  0  0
   60.9770   30.6270   49.1230 C   0  0  0  0  0  0  0  0  0  0  0  0
   60.6230   29.9950   47.9740 N   0  0  0  0  0  0  0  0  0  0  0  0
   60.0040   28.6490   45.4900 C   0  0  0  0  0  0  0  0  0  0  0  0
   59.2700   28.8890   44.1540 C   0  0  0  0  0  0  0  0  0  0  0  0
   57.7690   31.5020   45.9800 C   0  0  0  0  0  0  0  0  0  0  0  0
   58.3830   32.6940   46.3910 C   0  0  0  0  0  0  0  0  0  0  0  0
   58.6300   32.9290   47.8590 C   0  0  0  0  0  0  0  0  0  0  0  0
   59.4884   35.0030   46.9140 H   0  0  0  0  0  0  0  0  0  0  0  0
   60.4739   34.9519   45.4131 H   0  0  0  0  0  0  0  0  0  0  0  0
   58.8798   35.7799   45.4131 H   0  0  0  0  0  0  0  0  0  0  0  0
   58.8257   34.1274   43.3111 H   0  0  0  0  0  0  0  0  0  0  0  0
   56.8433   31.2393   42.0553 H   0  0  0  0  0  0  0  0  0  0  0  0
   57.3539   32.9272   41.7133 H   0  0  0  0  0  0  0  0  0  0  0  0
   58.5687   31.6040   41.7133 H   0  0  0  0  0  0  0  0  0  0  0  0
   56.5351   27.0671   45.0635 H   0  0  0  0  0  0  0  0  0  0  0  0
   58.2620   26.5190   44.9705 H   0  0  0  0  0  0  0  0  0  0  0  0
   56.9938   28.5181   46.8775 H   0  0  0  0  0  0  0  0  0  0  0  0
   57.9575   27.0303   47.2399 H   0  0  0  0  0  0  0  0  0  0  0  0
   58.1722   29.9663   50.9221 H   0  0  0  0  0  0  0  0  0  0  0  0
   60.3765   31.1394   51.1475 H   0  0  0  0  0  0  0  0  0  0  0  0
   61.9505   31.1341   49.1954 H   0  0  0  0  0  0  0  0  0  0  0  0
   60.7692   29.4279   45.6234 H   0  0  0  0  0  0  0  0  0  0  0  0
   60.4659   27.6512   45.4580 H   0  0  0  0  0  0  0  0  0  0  0  0
   59.2577   29.9713   43.9579 H   0  0  0  0  0  0  0  0  0  0  0  0
   59.8181   28.3204   43.3883 H   0  0  0  0  0  0  0  0  0  0  0  0
   57.4752   30.7577   46.7348 H   0  0  0  0  0  0  0  0  0  0  0  0
   57.9582   32.2899   48.4508 H   0  0  0  0  0  0  0  0  0  0  0  0
   59.6751   32.6836   48.0989 H   0  0  0  0  0  0  0  0  0  0  0  0
   58.4370   33.9850   48.0989 H   0  0  0  0  0  0  0  0  0  0  0  0
  1  2  1  0
  2  3  2  0
  3  4  1  0
  4  5  1  0
  4  6  2  0
  6  7  1  0
  7  8  2  0
  7  9  2  0
  7 10  1  0
 10 11  1  0
 11 12  1  0
 12 13  1  0
 13 14  1  0
 14 15  2  0
 15 16  1  0
 16 17  2  0
 17 18  1  0
 18 19  2  0
 13 20  1  0
 20 21  1  0
  6 22  1  0
 22 23  2  0
 23 24  1  0
 23  2  1  0
 21 10  1  0
 19 14  1  0
  1 25  1  0
  1 26  1  0
  1 27  1  0
  3 28  1  0
  5 29  1  0
  5 30  1  0
  5 31  1  0
 11 32  1  0
 11 33  1  0
 12 34  1  0
 12 35  1  0
 16 36  1  0
 17 37  1  0
 18 38  1  0
 20 39  1  0
 20 40  1  0
 21 41  1  0
 21 42  1  0
 22 43  1  0
 24 44  1  0
 24 45  1  0
 24 46  1  0
M  END
>  <UniqueID>  (10) 
10

>  <SMILES>  (10) 
Cc1cc(C)c(S(=O)(=O)N2CCN(c3ncccn3)CC2)cc1C

>  <Energy>  (10) 
56.28781863620133

>  <Genealogy>  (10) 
Cc1cc(C)c(S(=O)(=O)N2CCN(c3ncccn3)CC2)cc1C (3D coordinates assigned)
Cc1cc(C)c(S(=O)(=O)N2CCN(c3ncccn3)CC2)cc1C (nonaromatic ring conformer: 56.28781863620133 kcal/mol)

>  <smiles>  (10) 
Cc1cc(C)c(S(=O)(=O)N2CCN(c3ncccn3)CC2)cc1C

>  <score_type>  (10) 
oracle

>  <origin>  (10) 
adg

>  <m_score__min__energy>  (10) 
-8.2300000000000004

>  <m_primary>  (10) 
energy

$$$$
10:0
     RDKit          3D

 58 60  0  0  0  0  0  0  0  0999 V2000
   58.6550   31.2140   50.5060 C   0  0  0  0  0  0  0  0  0  0  0  0
   59.9380   31.4390   51.3140 C   0  0  0  0  0  0  0  0  0  0  0  0
   60.8040   32.4980   50.7350 N   0  0  0  0  0  0  0  0  0  0  0  0
   60.1460   33.8390   50.7240 C   0  0  0  0  0  0  0  0  0  0  0  0
   59.6830   34.2520   49.3220 C   0  0  0  0  0  0  0  0  0  0  0  0
   62.1650   32.5290   51.3530 C   0  0  0  0  0  0  0  0  0  0  0  0
   63.2830   32.7980   50.4200 N   0  0  0  0  0  0  0  0  0  0  0  0
   63.0710   33.8780   49.4480 C   0  0  0  0  0  0  0  0  0  0  0  0
   63.2980   33.3890   48.0100 C   0  0  0  0  0  0  0  0  0  0  0  0
   63.3950   31.8540   47.9120 C   0  0  0  0  0  0  0  0  0  0  0  0
   62.2300   31.1950   48.5120 N   0  0  0  0  0  0  0  0  0  0  0  0
   61.0740   30.7620   47.7740 C   0  0  0  0  0  0  0  0  0  0  0  0
   60.5930   29.4650   47.9740 C   0  0  0  0  0  0  0  0  0  0  0  0
   61.1980   28.6400   48.8650 F   0  0  0  0  0  0  0  0  0  0  0  0
   59.4810   29.0100   47.2750 C   0  0  0  0  0  0  0  0  0  0  0  0
   58.8030   29.8500   46.3730 C   0  0  0  0  0  0  0  0  0  0  0  0
   57.6860   29.3790   45.6630 C   0  0  0  0  0  0  0  0  0  0  0  0
   57.2680   28.2020   45.8550 O   0  0  0  0  0  0  0  0  0  0  0  0
   57.0430   30.2120   44.7320 C   0  0  0  0  0  0  0  0  0  0  0  0
   55.8820   29.7520   43.9220 C   0  0  0  0  0  0  0  0  0  0  0  0
   54.8470   29.2900   44.4720 O   0  0  0  0  0  0  0  0  0  0  0  0
   55.9230   29.8210   42.5340 O   0  0  0  0  0  0  0  0  0  0  0  0
   57.5110   31.5220   44.5750 C   0  0  0  0  0  0  0  0  0  0  0  0
   58.5470   32.0140   45.3230 N   0  0  0  0  0  0  0  0  0  0  0  0
   58.8870   33.4400   45.1440 C   0  0  0  0  0  0  0  0  0  0  0  0
   58.3700   34.3490   46.2550 C   0  0  0  0  0  0  0  0  0  0  0  0
   57.6950   34.3680   44.8990 C   0  0  0  0  0  0  0  0  0  0  0  0
   59.2590   31.1800   46.1660 C   0  0  0  0  0  0  0  0  0  0  0  0
   60.4460   31.5970   46.8320 C   0  0  0  0  0  0  0  0  0  0  0  0
   61.0500   32.7690   46.5160 F   0  0  0  0  0  0  0  0  0  0  0  0
   57.8096   31.0658   51.1940 H   0  0  0  0  0  0  0  0  0  0  0  0
   58.4622   32.0920   49.8721 H   0  0  0  0  0  0  0  0  0  0  0  0
   58.7725   30.3227   49.8721 H   0  0  0  0  0  0  0  0  0  0  0  0
   59.6619   31.7314   52.3379 H   0  0  0  0  0  0  0  0  0  0  0  0
   60.5087   30.4988   51.2983 H   0  0  0  0  0  0  0  0  0  0  0  0
   60.9810   32.2130   49.7420 H   0  0  0  0  0  0  0  0  0  0  0  0
   59.2712   33.8086   51.3901 H   0  0  0  0  0  0  0  0  0  0  0  0
   60.8862   34.5783   51.0638 H   0  0  0  0  0  0  0  0  0  0  0  0
   58.8645   34.9821   49.4064 H   0  0  0  0  0  0  0  0  0  0  0  0
   60.5240   34.7054   48.7769 H   0  0  0  0  0  0  0  0  0  0  0  0
   59.3283   33.3649   48.7769 H   0  0  0  0  0  0  0  0  0  0  0  0
   62.1697   33.3146   52.1230 H   0  0  0  0  0  0  0  0  0  0  0  0
   62.3395   31.5180   51.7498 H   0  0  0  0  0  0  0  0  0  0  0  0
   64.1860   32.9390   50.9290 H   0  0  0  0  0  0  0  0  0  0  0  0
   62.0390   34.2469   49.5420 H   0  0  0  0  0  0  0  0  0  0  0  0
   63.7928   34.6808   49.6591 H   0  0  0  0  0  0  0  0  0  0  0  0
   62.4584   33.7291   47.3860 H   0  0  0  0  0  0  0  0  0  0  0  0
   64.2560   33.8051   47.6649 H   0  0  0  0  0  0  0  0  0  0  0  0
   63.4588   31.5683   46.8517 H   0  0  0  0  0  0  0  0  0  0  0  0
   64.2911   31.5322   48.4629 H   0  0  0  0  0  0  0  0  0  0  0  0
   62.1750   31.1910   49.5550 H   0  0  0  0  0  0  0  0  0  0  0  0
   59.1267   27.9801   47.4291 H   0  0  0  0  0  0  0  0  0  0  0  0
   57.0329   32.1746   43.8296 H   0  0  0  0  0  0  0  0  0  0  0  0
   59.8546   33.2702   44.6492 H   0  0  0  0  0  0  0  0  0  0  0  0
   57.8491   33.9151   47.1213 H   0  0  0  0  0  0  0  0  0  0  0  0
   58.8223   35.1112   46.9065 H   0  0  0  0  0  0  0  0  0  0  0  0
   56.6856   33.9469   44.7815 H   0  0  0  0  0  0  0  0  0  0  0  0
   57.4562   35.1477   44.1608 H   0  0  0  0  0  0  0  0  0  0  0  0
  1  2  1  0
  2  3  1  0
  3  4  1  0
  4  5  1  0
  3  6  1  0
  6  7  1  0
  7  8  1  0
  8  9  1  0
  9 10  1  0
 10 11  1  0
 11 12  1  0
 12 13  2  0
 13 14  1  0
 13 15  1  0
 15 16  2  0
 16 17  1  0
 17 18  2  0
 17 19  1  0
 19 20  1  0
 20 21  2  0
 20 22  1  0
 19 23  2  0
 23 24  1  0
 24 25  1  0
 25 26  1  0
 26 27  1  0
 24 28  1  0
 28 29  2  0
 29 30  1  0
 29 12  1  0
 28 16  1  0
 27 25  1  0
  1 31  1  0
  1 32  1  0
  1 33  1  0
  2 34  1  0
  2 35  1  0
  3 36  1  0
  4 37  1  0
  4 38  1  0
  5 39  1  0
  5 40  1  0
  5 41  1  0
  6 42  1  0
  6 43  1  0
  7 44  1  0
  8 45  1  0
  8 46  1  0
  9 47  1  0
  9 48  1  0
 10 49  1  0
 10 50  1  0
 11 51  1  0
 15 52  1  0
 23 53  1  0
 25 54  1  0
 26 55  1  0
 26 56  1  0
 27 57  1  0
 27 58  1  0
M  CHG  2   3   1  22  -1
M  END
>  <UniqueID>  (11) 
11

>  <SMILES>  (11) 
CC[NH+](CC)CNCCCNc1c(F)cc2c(=O)c(C(=O)[O-])cn(C3CC3)c2c1F

>  <Energy>  (11) 
344.7706084058434

>  <Genealogy>  (11) 
CC[NH+](CC)CNCCCNc1c(F)cc2c(=O)c(C(=O)[O-])cn(C3CC3)c2c1F (protonated)
CC[NH+](CC)CNCCCNc1c(F)cc2c(=O)c(C(=O)[O-])cn(C3CC3)c2c1F (3D coordinates assigned)
CC[NH+](CC)CNCCCNc1c(F)cc2c(=O)c(C(=O)[O-])cn(C3CC3)c2c1F (nonaromatic ring conformer: 344.7706084058434 kcal/mol)

>  <smiles>  (11) 
CCN(CC)CNCCCNc1c(F)cc2c(=O)c(C(=O)O)cn(C3CC3)c2c1F

>  <score_type>  (11) 
oracle

>  <origin>  (11) 
adg

>  <m_score__min__energy>  (11) 
-8

>  <m_primary>  (11) 
energy

$$$$
11:0
     RDKit          3D

 62 65  0  0  0  0  0  0  0  0999 V2000
   63.3310   33.8160   46.3720 C   0  0  0  0  0  0  0  0  0  0  0  0
   63.6140   32.7610   47.4470 C   0  0  0  0  0  0  0  0  0  0  0  0
   63.9670   33.3690   48.7530 N   0  0  2  0  0  0  0  0  0  0  0  0
   64.7880   32.4640   49.5880 C   0  0  0  0  0  0  0  0  0  0  0  0
   62.7800   33.9070   49.4740 C   0  0  0  0  0  0  0  0  0  0  0  0
   61.3900   33.5240   48.9080 C   0  0  0  0  0  0  0  0  0  0  0  0
   60.5940   32.5580   49.7930 C   0  0  0  0  0  0  0  0  0  0  0  0
   59.2120   32.4470   49.3290 N   0  0  0  0  0  0  0  0  0  0  0  0
   58.9260   31.9030   48.0350 C   0  0  0  0  0  0  0  0  0  0  0  0
   58.6450   32.7540   46.9590 C   0  0  0  0  0  0  0  0  0  0  0  0
   58.3870   32.2070   45.6890 C   0  0  0  0  0  0  0  0  0  0  0  0
   58.4290   30.8430   45.4930 N   0  0  0  0  0  0  0  0  0  0  0  0
   58.4990   30.3160   44.1180 C   0  0  0  0  0  0  0  0  0  0  0  0
   58.5240   29.9950   46.5810 C   0  0  0  0  0  0  0  0  0  0  0  0
   58.9000   30.5140   47.8420 C   0  0  0  0  0  0  0  0  0  0  0  0
   59.2260   29.5640   48.9820 C   0  0  0  0  0  0  0  0  0  0  0  0
   59.8310   28.2580   48.4510 C   0  0  0  0  0  0  0  0  0  0  0  0
   58.9220   27.6640   47.4110 C   0  0  0  0  0  0  0  0  0  0  0  0
   58.7000   26.2790   47.3620 C   0  0  0  0  0  0  0  0  0  0  0  0
   57.7750   25.7490   46.4610 C   0  0  0  0  0  0  0  0  0  0  0  0
   57.0520   26.5990   45.6240 C   0  0  0  0  0  0  0  0  0  0  0  0
   57.2800   27.9780   45.6540 C   0  0  0  0  0  0  0  0  0  0  0  0
   58.2690   28.5190   46.4990 C   0  0  0  0  0  0  0  0  0  0  0  0
   58.0010   33.1900   44.5950 C   0  0  0  0  0  0  0  0  0  0  0  0
   58.9740   34.3780   44.5630 C   0  0  0  0  0  0  0  0  0  0  0  0
   59.3090   34.9580   45.9600 C   0  0  0  0  0  0  0  0  0  0  0  0
   58.5840   34.2580   47.1210 C   0  0  0  0  0  0  0  0  0  0  0  0
   63.0748   34.7710   46.8540 H   0  0  0  0  0  0  0  0  0  0  0  0
   64.2250   33.9498   45.7452 H   0  0  0  0  0  0  0  0  0  0  0  0
   62.4901   33.4844   45.7452 H   0  0  0  0  0  0  0  0  0  0  0  0
   62.7161   32.1391   47.5774 H   0  0  0  0  0  0  0  0  0  0  0  0
   64.4729   32.1610   47.1119 H   0  0  0  0  0  0  0  0  0  0  0  0
   64.5660   34.2070   48.5560 H   0  0  0  0  0  0  0  0  0  0  0  0
   64.5983   32.6732   50.6511 H   0  0  0  0  0  0  0  0  0  0  0  0
   64.5228   31.4196   49.3667 H   0  0  0  0  0  0  0  0  0  0  0  0
   65.8532   32.6266   49.3667 H   0  0  0  0  0  0  0  0  0  0  0  0
   62.8284   33.5457   50.5119 H   0  0  0  0  0  0  0  0  0  0  0  0
   62.8458   34.9995   49.3644 H   0  0  0  0  0  0  0  0  0  0  0  0
   60.8013   34.4453   48.7870 H   0  0  0  0  0  0  0  0  0  0  0  0
   61.5696   33.0040   47.9555 H   0  0  0  0  0  0  0  0  0  0  0  0
   61.0666   31.5653   49.7590 H   0  0  0  0  0  0  0  0  0  0  0  0
   60.5900   32.9454   50.8225 H   0  0  0  0  0  0  0  0  0  0  0  0
   58.4110   32.6760   49.9590 H   0  0  0  0  0  0  0  0  0  0  0  0
   58.6438   29.2260   44.1500 H   0  0  0  0  0  0  0  0  0  0  0  0
   57.5624   30.5461   43.5890 H   0  0  0  0  0  0  0  0  0  0  0  0
   59.3431   30.7826   43.5890 H   0  0  0  0  0  0  0  0  0  0  0  0
   59.9476   30.0465   49.6576 H   0  0  0  0  0  0  0  0  0  0  0  0
   58.2956   29.3273   49.5189 H   0  0  0  0  0  0  0  0  0  0  0  0
   60.8134   28.4662   48.0020 H   0  0  0  0  0  0  0  0  0  0  0  0
   59.9477   27.5465   49.2818 H   0  0  0  0  0  0  0  0  0  0  0  0
   59.2561   25.6098   48.0350 H   0  0  0  0  0  0  0  0  0  0  0  0
   57.6163   24.6617   46.4110 H   0  0  0  0  0  0  0  0  0  0  0  0
   56.2997   26.1828   44.9379 H   0  0  0  0  0  0  0  0  0  0  0  0
   56.6835   28.6447   45.0139 H   0  0  0  0  0  0  0  0  0  0  0  0
   58.0267   32.6762   43.6227 H   0  0  0  0  0  0  0  0  0  0  0  0
   56.9887   33.5680   44.8009 H   0  0  0  0  0  0  0  0  0  0  0  0
   59.9112   34.0446   44.0934 H   0  0  0  0  0  0  0  0  0  0  0  0
   58.4775   35.1799   43.9969 H   0  0  0  0  0  0  0  0  0  0  0  0
   60.3928   34.8634   46.1224 H   0  0  0  0  0  0  0  0  0  0  0  0
   58.9691   36.0042   45.9587 H   0  0  0  0  0  0  0  0  0  0  0  0
   59.0651   34.5391   48.0694 H   0  0  0  0  0  0  0  0  0  0  0  0
   57.5297   34.5718   47.1210 H   0  0  0  0  0  0  0  0  0  0  0  0
  1  2  1  0
  2  3  1  0
  3  4  1  0
  3  5  1  0
  5  6  1  0
  6  7  1  0
  7  8  1  0
  8  9  1  0
  9 10  2  0
 10 11  1  0
 11 12  2  0
 12 13  1  0
 12 14  1  0
 14 15  2  0
 15 16  1  0
 16 17  1  0
 17 18  1  0
 18 19  2  0
 19 20  1  0
 20 21  2  0
 21 22  1  0
 22 23  2  0
 11 24  1  0
 24 25  1  0
 25 26  1  0
 26 27  1  0
 15  9  1  0
 23 18  1  0
 27 10  1  0
 23 14  1  0
  1 28  1  0
  1 29  1  0
  1 30  1  0
  2 31  1  0
  2 32  1  0
  3 33  1  6
  4 34  1  0
  4 35  1  0
  4 36  1  0
  5 37  1  0
  5 38  1  0
  6 39  1  0
  6 40  1  0
  7 41  1  0
  7 42  1  0
  8 43  1  0
 13 44  1  0
 13 45  1  0
 13 46  1  0
 16 47  1  0
 16 48  1  0
 17 49  1  0
 17 50  1  0
 19 51  1  0
 20 52  1  0
 21 53  1  0
 22 54  1  0
 24 55  1  0
 24 56  1  0
 25 57  1  0
 25 58  1  0
 26 59  1  0
 26 60  1  0
 27 61  1  0
 27 62  1  0
M  CHG  2   3   1  12   1
M  END
>  <UniqueID>  (12) 
12

>  <SMILES>  (12) 
CC[N@H+](C)CCCNc1c2c([n+](C)c3c1CCc1ccccc1-3)CCCC2

>  <Energy>  (12) 
97.5794893352939

>  <Genealogy>  (12) 
CC[NH+](C)CCCNc1c2c([n+](C)c3c1CCc1ccccc1-3)CCCC2 (protonated)
CC[N@H+](C)CCCNc1c2c([n+](C)c3c1CCc1ccccc1-3)CCCC2 (chirality)
CC[N@H+](C)CCCNc1c2c([n+](C)c3c1CCc1ccccc1-3)CCCC2 (3D coordinates assigned)
CC[N@H+](C)CCCNc1c2c([n+](C)c3c1CCc1ccccc1-3)CCCC2 (nonaromatic ring conformer: 97.5794893352939 kcal/mol)

>  <smiles>  (12) 
CCN(C)CCCNc1c2c([n+](C)c3c1CCc1ccccc1-3)CCCC2

>  <score_type>  (12) 
oracle

>  <origin>  (12) 
adg

>  <m_score__min__energy>  (12) 
-5.54

>  <m_primary>  (12) 
energy

$$$$
12:0
     RDKit          3D

 41 43  0  0  0  0  0  0  0  0999 V2000
   57.0400   31.1350   42.8860 C   0  0  0  0  0  0  0  0  0  0  0  0
   56.0570   30.0780   43.3650 C   0  0  0  0  0  0  0  0  0  0  0  0
   56.0960   30.0100   44.7890 O   0  0  0  0  0  0  0  0  0  0  0  0
   57.0730   29.3700   45.5440 N   0  0  0  0  0  0  0  0  0  0  0  0
   58.1410   30.1390   45.8990 C   0  0  0  0  0  0  0  0  0  0  0  0
   59.1860   29.6260   46.6720 C   0  0  0  0  0  0  0  0  0  0  0  0
   60.2840   30.4850   47.0200 N   0  0  0  0  0  0  0  0  0  0  0  0
   60.3290   31.2770   48.2240 C   0  0  0  0  0  0  0  0  0  0  0  0
   60.9520   30.7690   49.3810 C   0  0  0  0  0  0  0  0  0  0  0  0
   60.9430   31.4980   50.5710 C   0  0  0  0  0  0  0  0  0  0  0  0
   60.3040   32.7360   50.6270 C   0  0  0  0  0  0  0  0  0  0  0  0
   59.6760   33.2520   49.4920 C   0  0  0  0  0  0  0  0  0  0  0  0
   59.6840   32.5360   48.2820 C   0  0  0  0  0  0  0  0  0  0  0  0
   59.0420   33.1390   47.0900 C   0  0  0  0  0  0  0  0  0  0  0  0
   57.6440   33.1150   46.9410 C   0  0  0  0  0  0  0  0  0  0  0  0
   57.0440   33.6760   45.8100 C   0  0  0  0  0  0  0  0  0  0  0  0
   57.8340   34.2580   44.8150 C   0  0  0  0  0  0  0  0  0  0  0  0
   59.2230   34.2770   44.9480 C   0  0  0  0  0  0  0  0  0  0  0  0
   59.8280   33.7180   46.0780 C   0  0  0  0  0  0  0  0  0  0  0  0
   59.1540   28.2730   47.0510 C   0  0  0  0  0  0  0  0  0  0  0  0
   60.5120   27.5450   47.9130 Cl  0  0  0  0  0  0  0  0  0  0  0  0
   58.0540   27.4860   46.6880 C   0  0  0  0  0  0  0  0  0  0  0  0
   57.9710   25.7870   47.1570 Cl  0  0  0  0  0  0  0  0  0  0  0  0
   57.0130   28.0520   45.9350 C   0  0  0  0  0  0  0  0  0  0  0  0
   56.0310   27.3270   45.6250 O   0  0  0  0  0  0  0  0  0  0  0  0
   57.4994   31.6290   43.7548 H   0  0  0  0  0  0  0  0  0  0  0  0
   57.8235   30.6586   42.2784 H   0  0  0  0  0  0  0  0  0  0  0  0
   56.5081   31.8819   42.2784 H   0  0  0  0  0  0  0  0  0  0  0  0
   55.0414   30.3451   43.0374 H   0  0  0  0  0  0  0  0  0  0  0  0
   56.3310   29.1005   42.9414 H   0  0  0  0  0  0  0  0  0  0  0  0
   58.1812   31.1877   45.5694 H   0  0  0  0  0  0  0  0  0  0  0  0
   61.0040   30.6670   46.2840 H   0  0  0  0  0  0  0  0  0  0  0  0
   61.4501   29.7888   49.3461 H   0  0  0  0  0  0  0  0  0  0  0  0
   61.4405   31.0955   51.4657 H   0  0  0  0  0  0  0  0  0  0  0  0
   60.2947   33.3071   51.5671 H   0  0  0  0  0  0  0  0  0  0  0  0
   59.1704   34.2275   49.5448 H   0  0  0  0  0  0  0  0  0  0  0  0
   57.0190   32.6521   47.7189 H   0  0  0  0  0  0  0  0  0  0  0  0
   55.9493   33.6593   45.7031 H   0  0  0  0  0  0  0  0  0  0  0  0
   57.3607   34.7014   43.9265 H   0  0  0  0  0  0  0  0  0  0  0  0
   59.8434   34.7327   44.1622 H   0  0  0  0  0  0  0  0  0  0  0  0
   60.9236   33.7313   46.1756 H   0  0  0  0  0  0  0  0  0  0  0  0
  1  2  1  0
  2  3  1  0
  3  4  1  0
  4  5  1  0
  5  6  2  0
  6  7  1  0
  7  8  1  0
  8  9  2  0
  9 10  1  0
 10 11  2  0
 11 12  1  0
 12 13  2  0
 13 14  1  0
 14 15  2  0
 15 16  1  0
 16 17  2  0
 17 18  1  0
 18 19  2  0
  6 20  1  0
 20 21  1  0
 20 22  2  0
 22 23  1  0
 22 24  1  0
 24 25  2  0
 24  4  1  0
 13  8  1  0
 19 14  1  0
  1 26  1  0
  1 27  1  0
  1 28  1  0
  2 29  1  0
  2 30  1  0
  5 31  1  0
  7 32  1  0
  9 33  1  0
 10 34  1  0
 11 35  1  0
 12 36  1  0
 15 37  1  0
 16 38  1  0
 17 39  1  0
 18 40  1  0
 19 41  1  0
M  END
>  <UniqueID>  (13) 
13

>  <SMILES>  (13) 
CCOn1cc(Nc2ccccc2-c2ccccc2)c(Cl)c(Cl)c1=O

>  <Energy>  (13) 
61.251261130137664

>  <Genealogy>  (13) 
CCOn1cc(Nc2ccccc2-c2ccccc2)c(Cl)c(Cl)c1=O (3D coordinates assigned)
CCOn1cc(Nc2ccccc2-c2ccccc2)c(Cl)c(Cl)c1=O (optimized conformer: 61.251261130137664 kcal/mol)

>  <smiles>  (13) 
CCOn1cc(Nc2ccccc2-c2ccccc2)c(Cl)c(Cl)c1=O

>  <score_type>  (13) 
oracle

>  <origin>  (13) 
adg

>  <m_score__min__energy>  (13) 
-8.1699999999999999

>  <m_primary>  (13) 
energy

$$$$
13:0
     RDKit          3D

 43 45  0  0  0  0  0  0  0  0999 V2000
   60.3510   28.2130   47.7080 C   0  0  0  0  0  0  0  0  0  0  0  0
   59.4910   27.4780   46.6710 C   0  0  0  0  0  0  0  0  0  0  0  0
   58.0000   27.8390   46.8580 C   0  0  0  0  0  0  0  0  0  0  0  0
   57.2080   27.5900   45.5660 C   0  0  0  0  0  0  0  0  0  0  0  0
   57.7150   28.3800   44.4140 N   0  0  0  0  0  0  0  0  0  0  0  0
   56.6870   29.7540   44.0920 S   0  0  0  0  0  0  0  0  0  0  0  0
   55.3840   29.6030   44.8260 O   0  0  0  0  0  0  0  0  0  0  0  0
   56.4160   29.8400   42.6130 O   0  0  0  0  0  0  0  0  0  0  0  0
   57.4730   31.2310   44.6400 C   0  0  0  0  0  0  0  0  0  0  0  0
   57.7740   32.2650   43.7190 C   0  0  0  0  0  0  0  0  0  0  0  0
   58.3970   33.4490   44.1490 C   0  0  0  0  0  0  0  0  0  0  0  0
   58.7120   33.5630   45.5030 C   0  0  0  0  0  0  0  0  0  0  0  0
   58.4180   32.5690   46.3990 C   0  0  0  0  0  0  0  0  0  0  0  0
   57.7900   31.3860   46.0060 C   0  0  0  0  0  0  0  0  0  0  0  0
   58.7910   32.9560   47.6350 N   0  0  0  0  0  0  0  0  0  0  0  0
   58.5770   32.2520   48.8960 C   0  0  0  0  0  0  0  0  0  0  0  0
   59.2860   34.2070   47.4550 C   0  0  0  0  0  0  0  0  0  0  0  0
   59.6950   34.9350   48.3980 O   0  0  0  0  0  0  0  0  0  0  0  0
   59.2750   34.6000   46.1560 N   0  0  0  0  0  0  0  0  0  0  0  0
   59.6510   35.9020   45.6140 C   0  0  0  0  0  0  0  0  0  0  0  0
   59.1200   28.8240   44.5440 C   0  0  0  0  0  0  0  0  0  0  0  0
   59.9830   27.7600   45.2290 C   0  0  0  0  0  0  0  0  0  0  0  0
   60.0237   27.9333   48.7203 H   0  0  0  0  0  0  0  0  0  0  0  0
   61.4064   27.9335   47.5735 H   0  0  0  0  0  0  0  0  0  0  0  0
   60.2393   29.2990   47.5735 H   0  0  0  0  0  0  0  0  0  0  0  0
   59.5962   26.3951   46.8331 H   0  0  0  0  0  0  0  0  0  0  0  0
   57.5782   27.2201   47.6636 H   0  0  0  0  0  0  0  0  0  0  0  0
   57.9269   28.9063   47.1140 H   0  0  0  0  0  0  0  0  0  0  0  0
   57.2741   26.5212   45.3146 H   0  0  0  0  0  0  0  0  0  0  0  0
   56.1701   27.9045   45.7500 H   0  0  0  0  0  0  0  0  0  0  0  0
   57.5174   32.1396   42.6567 H   0  0  0  0  0  0  0  0  0  0  0  0
   58.6285   34.2588   43.4414 H   0  0  0  0  0  0  0  0  0  0  0  0
   57.5501   30.6002   46.7374 H   0  0  0  0  0  0  0  0  0  0  0  0
   58.7838   32.9322   49.7354 H   0  0  0  0  0  0  0  0  0  0  0  0
   57.5337   31.9079   48.9514 H   0  0  0  0  0  0  0  0  0  0  0  0
   59.2523   31.3855   48.9514 H   0  0  0  0  0  0  0  0  0  0  0  0
   59.8523   36.5991   46.4408 H   0  0  0  0  0  0  0  0  0  0  0  0
   60.5549   35.7949   44.9964 H   0  0  0  0  0  0  0  0  0  0  0  0
   58.8291   36.2933   44.9964 H   0  0  0  0  0  0  0  0  0  0  0  0
   59.5264   29.0229   43.5414 H   0  0  0  0  0  0  0  0  0  0  0  0
   59.1390   29.7342   45.1614 H   0  0  0  0  0  0  0  0  0  0  0  0
   59.9341   26.8289   44.6453 H   0  0  0  0  0  0  0  0  0  0  0  0
   61.0166   28.1328   45.2817 H   0  0  0  0  0  0  0  0  0  0  0  0
  1  2  1  0
  2  3  1  0
  3  4  1  0
  4  5  1  0
  5  6  1  0
  6  7  2  0
  6  8  2  0
  6  9  1  0
  9 10  2  0
 10 11  1  0
 11 12  2  0
 12 13  1  0
 13 14  2  0
 13 15  1  0
 15 16  1  0
 15 17  1  0
 17 18  2  0
 17 19  1  0
 19 20  1  0
  5 21  1  0
 21 22  1  0
 22  2  1  0
 14  9  1  0
 19 12  1  0
  1 23  1  0
  1 24  1  0
  1 25  1  0
  2 26  1  0
  3 27  1  0
  3 28  1  0
  4 29  1  0
  4 30  1  0
 10 31  1  0
 11 32  1  0
 14 33  1  0
 16 34  1  0
 16 35  1  0
 16 36  1  0
 20 37  1  0
 20 38  1  0
 20 39  1  0
 21 40  1  0
 21 41  1  0
 22 42  1  0
 22 43  1  0
M  END
>  <UniqueID>  (14) 
14

>  <SMILES>  (14) 
CC1CCN(S(=O)(=O)c2ccc3c(c2)n(C)c(=O)n3C)CC1

>  <Energy>  (14) 
88.09051363511465

>  <Genealogy>  (14) 
CC1CCN(S(=O)(=O)c2ccc3c(c2)n(C)c(=O)n3C)CC1 (3D coordinates assigned)
CC1CCN(S(=O)(=O)c2ccc3c(c2)n(C)c(=O)n3C)CC1 (nonaromatic ring conformer: 88.09051363511465 kcal/mol)

>  <smiles>  (14) 
CC1CCN(S(=O)(=O)c2ccc3c(c2)n(C)c(=O)n3C)CC1

>  <score_type>  (14) 
oracle

>  <origin>  (14) 
adg

>  <m_score__min__energy>  (14) 
-8.2899999999999991

>  <m_primary>  (14) 
energy

$$$$
14:0
     RDKit          3D

 49 51  0  0  0  0  0  0  0  0999 V2000
   57.3490   31.2750   42.7060 C   0  0  0  0  0  0  0  0  0  0  0  0
   56.4070   30.1440   43.0880 C   0  0  0  0  0  0  0  0  0  0  0  0
   56.2550   30.1100   44.5040 O   0  0  0  0  0  0  0  0  0  0  0  0
   57.2550   29.7130   45.4020 C   0  0  0  0  0  0  0  0  0  0  0  0
   58.1070   30.6930   45.9210 C   0  0  0  0  0  0  0  0  0  0  0  0
   59.1230   30.3520   46.8160 C   0  0  0  0  0  0  0  0  0  0  0  0
   59.3100   29.0160   47.1970 C   0  0  0  0  0  0  0  0  0  0  0  0
   60.3840   28.6540   48.1890 C   0  0  0  0  0  0  0  0  0  0  0  0
   60.3570   29.5990   49.3120 N   0  0  0  0  0  0  0  0  0  0  0  0
   61.5620   29.4450   50.1380 C   0  0  0  0  0  0  0  0  0  0  0  0
   62.1230   30.8150   50.5590 C   0  0  0  0  0  0  0  0  0  0  0  0
   61.2430   31.9460   50.1990 N   0  0  0  0  0  0  0  0  0  0  0  0
   61.6630   32.5890   48.9680 C   0  0  0  0  0  0  0  0  0  0  0  0
   63.0340   32.6090   48.6480 C   0  0  0  0  0  0  0  0  0  0  0  0
   63.4920   33.2170   47.4800 C   0  0  0  0  0  0  0  0  0  0  0  0
   62.5940   33.8190   46.6020 C   0  0  0  0  0  0  0  0  0  0  0  0
   61.2200   33.8180   46.8840 C   0  0  0  0  0  0  0  0  0  0  0  0
   60.3230   34.4260   45.9890 C   0  0  0  0  0  0  0  0  0  0  0  0
   58.9550   34.4320   46.2580 C   0  0  0  0  0  0  0  0  0  0  0  0
   58.4690   33.8340   47.4200 C   0  0  0  0  0  0  0  0  0  0  0  0
   59.3460   33.2230   48.3220 C   0  0  0  0  0  0  0  0  0  0  0  0
   60.7370   33.2020   48.0730 C   0  0  0  0  0  0  0  0  0  0  0  0
   58.4500   28.0290   46.6900 C   0  0  0  0  0  0  0  0  0  0  0  0
   57.4320   28.3720   45.7950 C   0  0  0  0  0  0  0  0  0  0  0  0
   57.7429   31.7479   43.6177 H   0  0  0  0  0  0  0  0  0  0  0  0
   58.1829   30.8728   42.1120 H   0  0  0  0  0  0  0  0  0  0  0  0
   56.8026   32.0224   42.1120 H   0  0  0  0  0  0  0  0  0  0  0  0
   55.4263   30.3091   42.6179 H   0  0  0  0  0  0  0  0  0  0  0  0
   56.8237   29.1869   42.7410 H   0  0  0  0  0  0  0  0  0  0  0  0
   57.9754   31.7431   45.6211 H   0  0  0  0  0  0  0  0  0  0  0  0
   59.7793   31.1349   47.2238 H   0  0  0  0  0  0  0  0  0  0  0  0
   60.2075   27.6350   48.5639 H   0  0  0  0  0  0  0  0  0  0  0  0
   61.3664   28.7005   47.6964 H   0  0  0  0  0  0  0  0  0  0  0  0
   60.3580   30.5610   48.9030 H   0  0  0  0  0  0  0  0  0  0  0  0
   61.3084   28.8680   51.0396 H   0  0  0  0  0  0  0  0  0  0  0  0
   62.3269   28.9207   49.5464 H   0  0  0  0  0  0  0  0  0  0  0  0
   62.2613   30.8146   51.6503 H   0  0  0  0  0  0  0  0  0  0  0  0
   63.0710   30.9571   50.0194 H   0  0  0  0  0  0  0  0  0  0  0  0
   61.2350   32.6450   50.9760 H   0  0  0  0  0  0  0  0  0  0  0  0
   60.2510   31.6230   50.1230 H   0  0  0  0  0  0  0  0  0  0  0  0
   63.7557   32.1371   49.3309 H   0  0  0  0  0  0  0  0  0  0  0  0
   64.5678   33.2213   47.2508 H   0  0  0  0  0  0  0  0  0  0  0  0
   62.9640   34.2974   45.6832 H   0  0  0  0  0  0  0  0  0  0  0  0
   60.7023   34.8996   45.0715 H   0  0  0  0  0  0  0  0  0  0  0  0
   58.2584   34.9090   45.5528 H   0  0  0  0  0  0  0  0  0  0  0  0
   57.3890   33.8428   47.6286 H   0  0  0  0  0  0  0  0  0  0  0  0
   58.9491   32.7541   49.2344 H   0  0  0  0  0  0  0  0  0  0  0  0
   58.5776   26.9808   46.9983 H   0  0  0  0  0  0  0  0  0  0  0  0
   56.7669   27.5918   45.3963 H   0  0  0  0  0  0  0  0  0  0  0  0
  1  2  1  0
  2  3  1  0
  3  4  1  0
  4  5  2  0
  5  6  1  0
  6  7  2  0
  7  8  1  0
  8  9  1  0
  9 10  1  0
 10 11  1  0
 11 12  1  0
 12 13  1  0
 13 14  2  0
 14 15  1  0
 15 16  2  0
 16 17  1  0
 17 18  2  0
 18 19  1  0
 19 20  2  0
 20 21  1  0
 21 22  2  0
  7 23  1  0
 23 24  2  0
 24  4  1  0
 22 13  1  0
 22 17  1  0
  1 25  1  0
  1 26  1  0
  1 27  1  0
  2 28  1  0
  2 29  1  0
  5 30  1  0
  6 31  1  0
  8 32  1  0
  8 33  1  0
  9 34  1  0
 10 35  1  0
 10 36  1  0
 11 37  1  0
 11 38  1  0
 12 39  1  0
 12 40  1  0
 14 41  1  0
 15 42  1  0
 16 43  1  0
 18 44  1  0
 19 45  1  0
 20 46  1  0
 21 47  1  0
 23 48  1  0
 24 49  1  0
M  CHG  1  12   1
M  END
>  <UniqueID>  (15) 
15

>  <SMILES>  (15) 
CCOc1ccc(CNCC[NH2+]c2cccc3ccccc23)cc1

>  <Energy>  (15) 
52.539990086638504

>  <Genealogy>  (15) 
CCOc1ccc(CNCC[NH2+]c2cccc3ccccc23)cc1 (protonated)
CCOc1ccc(CNCC[NH2+]c2cccc3ccccc23)cc1 (3D coordinates assigned)
CCOc1ccc(CNCC[NH2+]c2cccc3ccccc23)cc1 (optimized conformer: 52.539990086638504 kcal/mol)

>  <smiles>  (15) 
CCOc1ccc(CNCCNc2cccc3ccccc23)cc1

>  <score_type>  (15) 
oracle

>  <origin>  (15) 
adg

>  <m_score__min__energy>  (15) 
-6.3700000000000001

>  <m_primary>  (15) 
energy

$$$$
15:0
     RDKit          3D

 80 84  0  0  0  0  0  0  0  0999 V2000
   59.3080   30.0170   49.5670 C   0  0  0  0  0  0  0  0  0  0  0  0
   60.3110   29.0570   49.0820 N   0  0  0  0  0  0  0  0  0  0  0  0
   61.1340   28.5980   50.2150 C   0  0  0  0  0  0  0  0  0  0  0  0
   59.6750   27.9030   48.4130 C   0  0  0  0  0  0  0  0  0  0  0  0
   59.7510   28.0250   46.8740 C   0  0  0  0  0  0  0  0  0  0  0  0
   60.5900   29.1530   46.4060 N   0  0  0  0  0  0  0  0  0  0  0  0
   59.7980   30.3150   46.0360 C   0  0  0  0  0  0  0  0  0  0  0  0
   58.6980   30.2430   45.1170 C   0  0  0  0  0  0  0  0  0  0  0  0
   58.2890   29.0240   44.5180 C   0  0  0  0  0  0  0  0  0  0  0  0
   57.2640   28.9870   43.5780 C   0  0  0  0  0  0  0  0  0  0  0  0
   56.6210   30.1550   43.1970 C   0  0  0  0  0  0  0  0  0  0  0  0
   56.9610   31.3660   43.7910 C   0  0  0  0  0  0  0  0  0  0  0  0
   57.9680   31.4400   44.7860 C   0  0  0  0  0  0  0  0  0  0  0  0
   58.2450   32.6350   45.4260 N   0  0  0  0  0  0  0  0  0  0  0  0
   57.4070   33.8330   45.2090 C   0  0  0  0  0  0  0  0  0  0  0  0
   59.3190   32.6940   46.2700 C   0  0  0  0  0  0  0  0  0  0  0  0
   59.7710   33.8070   46.8990 N   0  0  0  0  0  0  0  0  0  0  0  0
   60.8250   33.4020   47.6250 C   0  0  0  0  0  0  0  0  0  0  0  0
   61.6120   34.2050   48.4450 C   0  0  0  0  0  0  0  0  0  0  0  0
   62.6870   33.6140   49.1190 C   0  0  0  0  0  0  0  0  0  0  0  0
   62.9780   32.2450   48.9560 C   0  0  0  0  0  0  0  0  0  0  0  0
   64.0990   31.7340   49.6300 O   0  0  0  0  0  0  0  0  0  0  0  0
   64.1340   31.2860   50.9860 C   0  0  0  0  0  0  0  0  0  0  0  0
   65.5200   31.4810   51.6530 C   0  0  0  0  0  0  0  0  0  0  0  0
   66.1890   32.8080   51.4360 N   0  0  0  0  0  0  0  0  0  0  0  0
   66.8690   32.8180   50.1120 C   0  0  0  0  0  0  0  0  0  0  0  0
   65.1170   33.8680   51.4160 C   0  0  0  0  0  0  0  0  0  0  0  0
   64.9170   34.5390   52.7920 C   0  0  0  0  0  0  0  0  0  0  0  0
   66.1490   35.2550   53.2530 N   0  0  0  0  0  0  0  0  0  0  0  0
   66.1240   36.6550   52.7610 C   0  0  0  0  0  0  0  0  0  0  0  0
   66.1510   35.2960   54.7380 C   0  0  0  0  0  0  0  0  0  0  0  0
   67.4000   34.5870   52.7650 C   0  0  0  0  0  0  0  0  0  0  0  0
   67.1920   33.0790   52.5200 C   0  0  0  0  0  0  0  0  0  0  0  0
   62.1570   31.4480   48.1190 C   0  0  0  0  0  0  0  0  0  0  0  0
   61.0700   32.0540   47.4660 C   0  0  0  0  0  0  0  0  0  0  0  0
   60.0890   31.5850   46.5800 C   0  0  0  0  0  0  0  0  0  0  0  0
   59.3050   30.0199   50.6670 H   0  0  0  0  0  0  0  0  0  0  0  0
   59.5554   31.0234   49.1984 H   0  0  0  0  0  0  0  0  0  0  0  0
   58.3134   29.7258   49.1984 H   0  0  0  0  0  0  0  0  0  0  0  0
   60.6424   28.8722   51.1601 H   0  0  0  0  0  0  0  0  0  0  0  0
   61.2495   27.5052   50.1653 H   0  0  0  0  0  0  0  0  0  0  0  0
   62.1244   29.0740   50.1653 H   0  0  0  0  0  0  0  0  0  0  0  0
   60.1897   26.9819   48.7240 H   0  0  0  0  0  0  0  0  0  0  0  0
   58.6146   27.8778   48.7043 H   0  0  0  0  0  0  0  0  0  0  0  0
   60.1698   27.0907   46.4720 H   0  0  0  0  0  0  0  0  0  0  0  0
   58.7284   28.2152   46.5160 H   0  0  0  0  0  0  0  0  0  0  0  0
   61.1390   28.8590   45.5670 H   0  0  0  0  0  0  0  0  0  0  0  0
   61.3380   29.3710   47.0940 H   0  0  0  0  0  0  0  0  0  0  0  0
   58.7927   28.0885   44.8026 H   0  0  0  0  0  0  0  0  0  0  0  0
   56.9622   28.0265   43.1349 H   0  0  0  0  0  0  0  0  0  0  0  0
   55.8400   30.1238   42.4230 H   0  0  0  0  0  0  0  0  0  0  0  0
   56.4385   32.2836   43.4828 H   0  0  0  0  0  0  0  0  0  0  0  0
   57.1118   34.2550   46.1810 H   0  0  0  0  0  0  0  0  0  0  0  0
   57.9787   34.5826   44.6422 H   0  0  0  0  0  0  0  0  0  0  0  0
   56.5068   33.5530   44.6422 H   0  0  0  0  0  0  0  0  0  0  0  0
   59.4340   34.7910   46.8270 H   0  0  0  0  0  0  0  0  0  0  0  0
   61.3948   35.2771   48.5606 H   0  0  0  0  0  0  0  0  0  0  0  0
   63.3129   34.2264   49.7847 H   0  0  0  0  0  0  0  0  0  0  0  0
   63.3856   31.8509   51.5612 H   0  0  0  0  0  0  0  0  0  0  0  0
   63.9199   30.2070   50.9816 H   0  0  0  0  0  0  0  0  0  0  0  0
   65.3909   31.3454   52.7370 H   0  0  0  0  0  0  0  0  0  0  0  0
   66.1792   30.7417   51.1745 H   0  0  0  0  0  0  0  0  0  0  0  0
   67.9589   32.8340   50.2597 H   0  0  0  0  0  0  0  0  0  0  0  0
   66.5885   31.9156   49.5489 H   0  0  0  0  0  0  0  0  0  0  0  0
   66.5621   33.7117   49.5489 H   0  0  0  0  0  0  0  0  0  0  0  0
   65.3994   34.6404   50.6855 H   0  0  0  0  0  0  0  0  0  0  0  0
   64.1703   33.3781   51.1444 H   0  0  0  0  0  0  0  0  0  0  0  0
   64.0926   35.2634   52.7171 H   0  0  0  0  0  0  0  0  0  0  0  0
   64.6892   33.7502   53.5241 H   0  0  0  0  0  0  0  0  0  0  0  0
   66.1117   37.3446   53.6179 H   0  0  0  0  0  0  0  0  0  0  0  0
   67.0189   36.8450   52.1502 H   0  0  0  0  0  0  0  0  0  0  0  0
   65.2229   36.8130   52.1502 H   0  0  0  0  0  0  0  0  0  0  0  0
   66.1010   34.2707   55.1332 H   0  0  0  0  0  0  0  0  0  0  0  0
   67.0738   35.7801   55.0902 H   0  0  0  0  0  0  0  0  0  0  0  0
   65.2797   35.8676   55.0902 H   0  0  0  0  0  0  0  0  0  0  0  0
   67.7106   35.0604   51.8219 H   0  0  0  0  0  0  0  0  0  0  0  0
   68.1712   34.7018   53.5409 H   0  0  0  0  0  0  0  0  0  0  0  0
   68.1545   32.6321   52.2304 H   0  0  0  0  0  0  0  0  0  0  0  0
   66.8067   32.6380   53.4512 H   0  0  0  0  0  0  0  0  0  0  0  0
   62.3666   30.3767   47.9834 H   0  0  0  0  0  0  0  0  0  0  0  0
  1  2  1  0
  2  3  1  0
  2  4  1  0
  4  5  1  0
  5  6  1  0
  6  7  1  0
  7  8  2  0
  8  9  1  0
  9 10  2  0
 10 11  1  0
 11 12  2  0
 12 13  1  0
 13 14  2  0
 14 15  1  0
 14 16  1  0
 16 17  1  0
 17 18  1  0
 18 19  2  0
 19 20  1  0
 20 21  2  0
 21 22  1  0
 22 23  1  0
 23 24  1  0
 24 25  1  0
 25 26  1  0
 25 27  1  0
 27 28  1  0
 28 29  1  0
 29 30  1  0
 29 31  1  0
 29 32  1  0
 32 33  1  0
 21 34  1  0
 34 35  2  0
 35 36  1  0
 36  7  1  0
 13  8  1  0
 36 16  2  0
 35 18  1  0
 33 25  1  0
  1 37  1  0
  1 38  1  0
  1 39  1  0
  3 40  1  0
  3 41  1  0
  3 42  1  0
  4 43  1  0
  4 44  1  0
  5 45  1  0
  5 46  1  0
  6 47  1  0
  6 48  1  0
  9 49  1  0
 10 50  1  0
 11 51  1  0
 12 52  1  0
 15 53  1  0
 15 54  1  0
 15 55  1  0
 17 56  1  0
 19 57  1  0
 20 58  1  0
 23 59  1  0
 23 60  1  0
 24 61  1  0
 24 62  1  0
 26 63  1  0
 26 64  1  0
 26 65  1  0
 27 66  1  0
 27 67  1  0
 28 68  1  0
 28 69  1  0
 30 70  1  0
 30 71  1  0
 30 72  1  0
 31 73  1  0
 31 74  1  0
 31 75  1  0
 32 76  1  0
 32 77  1  0
 33 78  1  0
 33 79  1  0
 34 80  1  0
M  CHG  4   6   1  14   1  25   1  29   1
M  END
>  <UniqueID>  (16) 
16

>  <SMILES>  (16) 
CN(C)CC[NH2+]c1c2ccccc2[n+](C)c2[nH]c3ccc(OCC[N+]4(C)CC[N+](C)(C)CC4)cc3c12

>  <Energy>  (16) 
174.1947659845759

>  <Genealogy>  (16) 
CN(C)CC[NH2+]c1c2ccccc2[n+](C)c2[nH]c3ccc(OCC[N+]4(C)CC[N+](C)(C)CC4)cc3c12 (protonated)
CN(C)CC[NH2+]c1c2ccccc2[n+](C)c2[nH]c3ccc(OCC[N+]4(C)CC[N+](C)(C)CC4)cc3c12 (3D coordinates assigned)
CN(C)CC[NH2+]c1c2ccccc2[n+](C)c2[nH]c3ccc(OCC[N+]4(C)CC[N+](C)(C)CC4)cc3c12 (nonaromatic ring conformer: 174.1947659845759 kcal/mol)

>  <smiles>  (16) 
CN(C)CCNc1c2ccccc2[n+](C)c2[nH]c3ccc(OCC[N+]4(C)CC[N+](C)(C)CC4)cc3c12

>  <score_type>  (16) 
oracle

>  <origin>  (16) 
adg

>  <m_score__min__energy>  (16) 
-2.96

>  <m_primary>  (16) 
energy

$$$$
16:0
     RDKit          3D

 64 67  0  0  0  0  0  0  0  0999 V2000
   61.0240   28.8970   50.8000 C   0  0  0  0  0  0  0  0  0  0  0  0
   60.7800   30.1200   51.6980 C   0  0  0  0  0  0  0  0  0  0  0  0
   60.2930   31.3340   50.9850 N   0  0  0  0  0  0  0  0  0  0  0  0
   58.8110   31.4150   50.9010 C   0  0  0  0  0  0  0  0  0  0  0  0
   58.3130   32.2400   49.7070 C   0  0  0  0  0  0  0  0  0  0  0  0
   60.8170   32.6060   51.5510 C   0  0  0  0  0  0  0  0  0  0  0  0
   61.3790   33.5860   50.4990 C   0  0  0  0  0  0  0  0  0  0  0  0
   61.3550   33.0470   49.1900 O   0  0  0  0  0  0  0  0  0  0  0  0
   62.6420   32.6300   48.7660 C   0  0  0  0  0  0  0  0  0  0  0  0
   62.5970   32.1620   47.3060 C   0  0  0  0  0  0  0  0  0  0  0  0
   61.8380   30.8400   47.1160 C   0  0  0  0  0  0  0  0  0  0  0  0
   60.4330   30.9660   47.5070 N   0  0  0  0  0  0  0  0  0  0  0  0
   59.3800   30.9680   46.5320 C   0  0  0  0  0  0  0  0  0  0  0  0
   58.8840   32.1730   45.9770 C   0  0  0  0  0  0  0  0  0  0  0  0
   59.3370   33.4240   46.4450 C   0  0  0  0  0  0  0  0  0  0  0  0
   58.8400   34.6080   45.9050 C   0  0  0  0  0  0  0  0  0  0  0  0
   57.8830   34.5710   44.8970 C   0  0  0  0  0  0  0  0  0  0  0  0
   57.4290   33.3490   44.4010 C   0  0  0  0  0  0  0  0  0  0  0  0
   57.9300   32.1250   44.9050 C   0  0  0  0  0  0  0  0  0  0  0  0
   57.5220   30.9060   44.3830 N   0  0  0  0  0  0  0  0  0  0  0  0
   56.6480   30.8320   43.1980 C   0  0  0  0  0  0  0  0  0  0  0  0
   57.9400   29.7600   45.0070 C   0  0  0  0  0  0  0  0  0  0  0  0
   57.5350   28.4950   44.7260 N   0  0  0  0  0  0  0  0  0  0  0  0
   58.1770   27.7150   45.6170 C   0  0  0  0  0  0  0  0  0  0  0  0
   58.0500   26.3330   45.7590 C   0  0  0  0  0  0  0  0  0  0  0  0
   58.7610   25.7080   46.7970 C   0  0  0  0  0  0  0  0  0  0  0  0
   59.5600   26.4680   47.6770 C   0  0  0  0  0  0  0  0  0  0  0  0
   59.6660   27.8630   47.5210 C   0  0  0  0  0  0  0  0  0  0  0  0
   58.9770   28.4580   46.4600 C   0  0  0  0  0  0  0  0  0  0  0  0
   58.8340   29.7760   46.0590 C   0  0  0  0  0  0  0  0  0  0  0  0
   61.2008   28.0109   51.4273 H   0  0  0  0  0  0  0  0  0  0  0  0
   60.1421   28.7266   50.1649 H   0  0  0  0  0  0  0  0  0  0  0  0
   61.9037   29.0781   50.1649 H   0  0  0  0  0  0  0  0  0  0  0  0
   60.0307   29.8444   52.4547 H   0  0  0  0  0  0  0  0  0  0  0  0
   61.7564   30.3861   52.1292 H   0  0  0  0  0  0  0  0  0  0  0  0
   60.6440   31.2690   50.0000 H   0  0  0  0  0  0  0  0  0  0  0  0
   58.4105   30.3945   50.8111 H   0  0  0  0  0  0  0  0  0  0  0  0
   58.4609   31.9199   51.8134 H   0  0  0  0  0  0  0  0  0  0  0  0
   57.7769   33.1281   50.0730 H   0  0  0  0  0  0  0  0  0  0  0  0
   59.1714   32.5558   49.0960 H   0  0  0  0  0  0  0  0  0  0  0  0
   57.6336   31.6275   49.0960 H   0  0  0  0  0  0  0  0  0  0  0  0
   59.9977   33.1081   52.0864 H   0  0  0  0  0  0  0  0  0  0  0  0
   61.6558   32.3357   52.2093 H   0  0  0  0  0  0  0  0  0  0  0  0
   60.7741   34.5046   50.5136 H   0  0  0  0  0  0  0  0  0  0  0  0
   62.4285   33.7894   50.7580 H   0  0  0  0  0  0  0  0  0  0  0  0
   63.3439   33.4723   48.8554 H   0  0  0  0  0  0  0  0  0  0  0  0
   62.9733   31.7938   49.3992 H   0  0  0  0  0  0  0  0  0  0  0  0
   62.1014   32.9388   46.7052 H   0  0  0  0  0  0  0  0  0  0  0  0
   63.6354   31.9910   46.9860 H   0  0  0  0  0  0  0  0  0  0  0  0
   61.8892   30.5477   46.0568 H   0  0  0  0  0  0  0  0  0  0  0  0
   62.3070   30.0782   47.7561 H   0  0  0  0  0  0  0  0  0  0  0  0
   60.2280   31.3210   48.4660 H   0  0  0  0  0  0  0  0  0  0  0  0
   60.0909   33.4652   47.2450 H   0  0  0  0  0  0  0  0  0  0  0  0
   59.2061   35.5761   46.2775 H   0  0  0  0  0  0  0  0  0  0  0  0
   57.4819   35.5103   44.4886 H   0  0  0  0  0  0  0  0  0  0  0  0
   56.6695   33.3364   43.6054 H   0  0  0  0  0  0  0  0  0  0  0  0
   55.6000   30.7433   43.5203 H   0  0  0  0  0  0  0  0  0  0  0  0
   56.7702   31.7437   42.5948 H   0  0  0  0  0  0  0  0  0  0  0  0
   56.9217   29.9538   42.5948 H   0  0  0  0  0  0  0  0  0  0  0  0
   56.8370   28.1660   44.0230 H   0  0  0  0  0  0  0  0  0  0  0  0
   57.4121   25.7500   45.0784 H   0  0  0  0  0  0  0  0  0  0  0  0
   58.6942   24.6175   46.9246 H   0  0  0  0  0  0  0  0  0  0  0  0
   60.1042   25.9668   48.4910 H   0  0  0  0  0  0  0  0  0  0  0  0
   60.2723   28.4664   48.2126 H   0  0  0  0  0  0  0  0  0  0  0  0
  1  2  1  0
  2  3  1  0
  3  4  1  0
  4  5  1  0
  3  6  1  0
  6  7  1  0
  7  8  1  0
  8  9  1  0
  9 10  1  0
 10 11  1  0
 11 12  1  0
 12 13  1  0
 13 14  2  0
 14 15  1  0
 15 16  2  0
 16 17  1  0
 17 18  2  0
 18 19  1  0
 19 20  2  0
 20 21  1  0
 20 22  1  0
 22 23  1  0
 23 24  1  0
 24 25  2  0
 25 26  1  0
 26 27  2  0
 27 28  1  0
 28 29  2  0
 29 30  1  0
 30 13  1  0
 19 14  1  0
 30 22  2  0
 29 24  1  0
  1 31  1  0
  1 32  1  0
  1 33  1  0
  2 34  1  0
  2 35  1  0
  3 36  1  0
  4 37  1  0
  4 38  1  0
  5 39  1  0
  5 40  1  0
  5 41  1  0
  6 42  1  0
  6 43  1  0
  7 44  1  0
  7 45  1  0
  9 46  1  0
  9 47  1  0
 10 48  1  0
 10 49  1  0
 11 50  1  0
 11 51  1  0
 12 52  1  0
 15 53  1  0
 16 54  1  0
 17 55  1  0
 18 56  1  0
 21 57  1  0
 21 58  1  0
 21 59  1  0
 23 60  1  0
 25 61  1  0
 26 62  1  0
 27 63  1  0
 28 64  1  0
M  CHG  2   3   1  20   1
M  END
>  <UniqueID>  (17) 
17

>  <SMILES>  (17) 
CC[NH+](CC)CCOCCCNc1c2ccccc2[n+](C)c2[nH]c3ccccc3c12

>  <Energy>  (17) 
124.96139307102473

>  <Genealogy>  (17) 
CC[NH+](CC)CCOCCCNc1c2ccccc2[n+](C)c2[nH]c3ccccc3c12 (protonated)
CC[NH+](CC)CCOCCCNc1c2ccccc2[n+](C)c2[nH]c3ccccc3c12 (3D coordinates assigned)
CC[NH+](CC)CCOCCCNc1c2ccccc2[n+](C)c2[nH]c3ccccc3c12 (optimized conformer: 124.96139307102473 kcal/mol)

>  <smiles>  (17) 
CCN(CC)CCOCCCNc1c2ccccc2[n+](C)c2[nH]c3ccccc3c12

>  <score_type>  (17) 
oracle

>  <origin>  (17) 
adg

>  <m_score__min__energy>  (17) 
-5.0300000000000002

>  <m_primary>  (17) 
energy

$$$$
17:0
     RDKit          3D

 31 33  0  0  0  0  0  0  0  0999 V2000
   56.6730   24.3700   47.1840 C   0  0  0  0  0  0  0  0  0  0  0  0
   57.2040   25.6160   46.6200 N   0  0  0  0  0  0  0  0  0  0  0  0
   58.5580   25.8650   46.6540 C   0  0  0  0  0  0  0  0  0  0  0  0
   59.0880   27.0470   46.1140 C   0  0  0  0  0  0  0  0  0  0  0  0
   58.1870   27.9370   45.5500 C   0  0  0  0  0  0  0  0  0  0  0  0
   58.4700   29.1210   44.9780 N   0  0  0  0  0  0  0  0  0  0  0  0
   57.2290   29.5360   44.6070 C   0  0  0  0  0  0  0  0  0  0  0  0
   56.9710   30.8400   43.9220 C   0  0  0  0  0  0  0  0  0  0  0  0
   56.6520   31.8540   44.8740 O   0  0  0  0  0  0  0  0  0  0  0  0
   57.5460   32.8250   45.3550 C   0  0  0  0  0  0  0  0  0  0  0  0
   57.6140   33.1890   46.7150 C   0  0  0  0  0  0  0  0  0  0  0  0
   58.5200   34.1660   47.1400 C   0  0  0  0  0  0  0  0  0  0  0  0
   59.3660   34.7850   46.2170 C   0  0  0  0  0  0  0  0  0  0  0  0
   59.3080   34.4280   44.8680 C   0  0  0  0  0  0  0  0  0  0  0  0
   58.4030   33.4520   44.4380 C   0  0  0  0  0  0  0  0  0  0  0  0
   58.3550   33.1160   43.1250 F   0  0  0  0  0  0  0  0  0  0  0  0
   56.2470   28.6640   44.9410 N   0  0  0  0  0  0  0  0  0  0  0  0
   56.8810   27.6690   45.5280 N   0  0  0  0  0  0  0  0  0  0  0  0
   56.3560   26.5320   46.0460 C   0  0  0  0  0  0  0  0  0  0  0  0
   55.1110   26.3270   45.9950 O   0  0  0  0  0  0  0  0  0  0  0  0
   56.6966   24.4254   48.2824 H   0  0  0  0  0  0  0  0  0  0  0  0
   55.6359   24.2273   46.8463 H   0  0  0  0  0  0  0  0  0  0  0  0
   57.2884   23.5231   46.8463 H   0  0  0  0  0  0  0  0  0  0  0  0
   59.2337   25.1270   47.1109 H   0  0  0  0  0  0  0  0  0  0  0  0
   60.1675   27.2574   46.1372 H   0  0  0  0  0  0  0  0  0  0  0  0
   57.8703   31.1389   43.3634 H   0  0  0  0  0  0  0  0  0  0  0  0
   56.1197   30.7175   43.2363 H   0  0  0  0  0  0  0  0  0  0  0  0
   56.9512   32.7023   47.4457 H   0  0  0  0  0  0  0  0  0  0  0  0
   58.5664   34.4473   48.2024 H   0  0  0  0  0  0  0  0  0  0  0  0
   60.0779   35.5536   46.5525 H   0  0  0  0  0  0  0  0  0  0  0  0
   59.9755   34.9154   44.1421 H   0  0  0  0  0  0  0  0  0  0  0  0
  1  2  1  0
  2  3  1  0
  3  4  2  0
  4  5  1  0
  5  6  2  0
  6  7  1  0
  7  8  1  0
  8  9  1  0
  9 10  1  0
 10 11  2  0
 11 12  1  0
 12 13  2  0
 13 14  1  0
 14 15  2  0
 15 16  1  0
  7 17  2  0
 17 18  1  0
 18 19  1  0
 19 20  2  0
 19  2  1  0
 18  5  1  0
 15 10  1  0
  1 21  1  0
  1 22  1  0
  1 23  1  0
  3 24  1  0
  4 25  1  0
  8 26  1  0
  8 27  1  0
 11 28  1  0
 12 29  1  0
 13 30  1  0
 14 31  1  0
M  END
>  <UniqueID>  (18) 
18

>  <SMILES>  (18) 
Cn1ccc2nc(COc3ccccc3F)nn2c1=O

>  <Energy>  (18) 
73.22987377529668

>  <Genealogy>  (18) 
Cn1ccc2nc(COc3ccccc3F)nn2c1=O (3D coordinates assigned)
Cn1ccc2nc(COc3ccccc3F)nn2c1=O (optimized conformer: 73.22987377529668 kcal/mol)

>  <smiles>  (18) 
Cn1ccc2nc(COc3ccccc3F)nn2c1=O

>  <score_type>  (18) 
oracle

>  <origin>  (18) 
adg

>  <m_score__min__energy>  (18) 
-7.2800000000000002

>  <m_primary>  (18) 
energy

$$$$
18:0
     RDKit          3D

 41 43  0  0  0  0  0  0  0  0999 V2000
   58.0890   32.3590   41.4570 C   0  0  0  0  0  0  0  0  0  0  0  0
   57.0580   31.5930   41.8270 C   0  0  0  0  0  0  0  0  0  0  0  0
   57.0270   30.9010   43.1650 C   0  0  0  0  0  0  0  0  0  0  0  0
   58.3730   30.5050   43.6160 N   0  0  0  0  0  0  0  0  0  0  0  0
   58.5780   30.7680   45.0330 C   0  0  0  0  0  0  0  0  0  0  0  0
   58.4700   32.0850   45.5580 C   0  0  0  0  0  0  0  0  0  0  0  0
   58.7480   32.3210   46.9190 C   0  0  0  0  0  0  0  0  0  0  0  0
   58.9270   31.2720   47.7920 N   0  0  0  0  0  0  0  0  0  0  0  0
   58.8790   31.5180   49.2490 C   0  0  0  0  0  0  0  0  0  0  0  0
   59.1290   29.9970   47.3060 C   0  0  0  0  0  0  0  0  0  0  0  0
   59.5560   28.9470   48.1590 C   0  0  0  0  0  0  0  0  0  0  0  0
   59.7170   27.6500   47.6820 C   0  0  0  0  0  0  0  0  0  0  0  0
   59.4660   27.3640   46.3490 C   0  0  0  0  0  0  0  0  0  0  0  0
   59.0810   28.3770   45.4760 C   0  0  0  0  0  0  0  0  0  0  0  0
   58.9310   29.7140   45.9240 C   0  0  0  0  0  0  0  0  0  0  0  0
   58.8150   33.7720   47.3790 C   0  0  0  0  0  0  0  0  0  0  0  0
   59.5150   34.6450   46.3270 C   0  0  0  0  0  0  0  0  0  0  0  0
   58.9450   34.4740   44.9020 C   0  0  0  0  0  0  0  0  0  0  0  0
   57.9810   33.2880   44.7630 C   0  0  0  0  0  0  0  0  0  0  0  0
   58.0831   32.8516   40.4735 H   0  0  0  0  0  0  0  0  0  0  0  0
   58.9433   32.4968   42.1360 H   0  0  0  0  0  0  0  0  0  0  0  0
   56.2108   31.4646   41.1372 H   0  0  0  0  0  0  0  0  0  0  0  0
   56.5910   31.5850   43.9080 H   0  0  0  0  0  0  0  0  0  0  0  0
   56.4228   29.9878   43.0600 H   0  0  0  0  0  0  0  0  0  0  0  0
   59.1000   30.9420   43.0140 H   0  0  0  0  0  0  0  0  0  0  0  0
   58.5150   29.4890   43.4200 H   0  0  0  0  0  0  0  0  0  0  0  0
   59.0628   30.5758   49.7862 H   0  0  0  0  0  0  0  0  0  0  0  0
   59.6508   32.2526   49.5225 H   0  0  0  0  0  0  0  0  0  0  0  0
   57.8877   31.9086   49.5225 H   0  0  0  0  0  0  0  0  0  0  0  0
   59.7637   29.1623   49.2175 H   0  0  0  0  0  0  0  0  0  0  0  0
   60.0438   26.8506   48.3633 H   0  0  0  0  0  0  0  0  0  0  0  0
   59.5715   26.3331   45.9802 H   0  0  0  0  0  0  0  0  0  0  0  0
   58.8897   28.1364   44.4198 H   0  0  0  0  0  0  0  0  0  0  0  0
   57.7934   34.1477   47.5377 H   0  0  0  0  0  0  0  0  0  0  0  0
   59.3897   33.8191   48.3158 H   0  0  0  0  0  0  0  0  0  0  0  0
   59.4050   35.6992   46.6212 H   0  0  0  0  0  0  0  0  0  0  0  0
   60.5676   34.3272   46.2933 H   0  0  0  0  0  0  0  0  0  0  0  0
   58.4060   35.3937   44.6306 H   0  0  0  0  0  0  0  0  0  0  0  0
   59.7975   34.2760   44.2357 H   0  0  0  0  0  0  0  0  0  0  0  0
   56.9898   33.5856   45.1358 H   0  0  0  0  0  0  0  0  0  0  0  0
   57.9272   33.0054   43.7013 H   0  0  0  0  0  0  0  0  0  0  0  0
  1  2  2  0
  2  3  1  0
  3  4  1  0
  4  5  1  0
  5  6  2  0
  6  7  1  0
  7  8  2  0
  8  9  1  0
  8 10  1  0
 10 11  2  0
 11 12  1  0
 12 13  2  0
 13 14  1  0
 14 15  2  0
  7 16  1  0
 16 17  1  0
 17 18  1  0
 18 19  1  0
 15  5  1  0
 19  6  1  0
 15 10  1  0
  1 20  1  0
  1 21  1  0
  2 22  1  0
  3 23  1  0
  3 24  1  0
  4 25  1  0
  4 26  1  0
  9 27  1  0
  9 28  1  0
  9 29  1  0
 11 30  1  0
 12 31  1  0
 13 32  1  0
 14 33  1  0
 16 34  1  0
 16 35  1  0
 17 36  1  0
 17 37  1  0
 18 38  1  0
 18 39  1  0
 19 40  1  0
 19 41  1  0
M  CHG  2   4   1   8   1
M  END
>  <UniqueID>  (19) 
19

>  <SMILES>  (19) 
C=CC[NH2+]c1c2c([n+](C)c3ccccc13)CCCC2

>  <Energy>  (19) 
68.60966150952045

>  <Genealogy>  (19) 
C=CC[NH2+]c1c2c([n+](C)c3ccccc13)CCCC2 (protonated)
C=CC[NH2+]c1c2c([n+](C)c3ccccc13)CCCC2 (3D coordinates assigned)
C=CC[NH2+]c1c2c([n+](C)c3ccccc13)CCCC2 (nonaromatic ring conformer: 68.60966150952045 kcal/mol)

>  <smiles>  (19) 
C=CCNc1c2c([n+](C)c3ccccc13)CCCC2

>  <score_type>  (19) 
oracle

>  <origin>  (19) 
adg

>  <m_score__min__energy>  (19) 
-4.4800000000000004

>  <m_primary>  (19) 
energy

$$$$
19:0
     RDKit          3D

 70 72  0  0  0  0  0  0  0  0999 V2000
   59.7190   33.1530   52.4480 C   0  0  0  0  0  0  0  0  0  0  0  0
   59.6840   33.1980   50.9160 C   0  0  0  0  0  0  0  0  0  0  0  0
   61.0330   33.1270   50.3210 N   0  0  0  0  0  0  0  0  0  0  0  0
   61.2750   34.2270   49.3690 C   0  0  0  0  0  0  0  0  0  0  0  0
   62.2080   33.7940   48.2350 C   0  0  0  0  0  0  0  0  0  0  0  0
   62.3780   32.3900   48.2720 O   0  0  0  0  0  0  0  0  0  0  0  0
   63.7500   32.0520   48.3120 C   0  0  0  0  0  0  0  0  0  0  0  0
   64.1860   31.8270   49.7700 C   0  0  0  0  0  0  0  0  0  0  0  0
   63.0640   31.4810   50.6540 N   0  0  0  0  0  0  0  0  0  0  0  0
   63.1930   30.1360   51.2310 C   0  0  0  0  0  0  0  0  0  0  0  0
   61.9480   29.3140   50.9080 C   0  0  0  0  0  0  0  0  0  0  0  0
   61.1560   30.0100   49.9650 O   0  0  0  0  0  0  0  0  0  0  0  0
   59.8010   30.0350   50.3710 C   0  0  0  0  0  0  0  0  0  0  0  0
   58.9060   30.3960   49.1830 C   0  0  0  0  0  0  0  0  0  0  0  0
   59.7030   30.8550   48.0450 N   0  0  0  0  0  0  0  0  0  0  0  0
   59.1280   31.0670   46.7450 C   0  0  0  0  0  0  0  0  0  0  0  0
   58.6830   29.9710   45.9910 C   0  0  0  0  0  0  0  0  0  0  0  0
   58.0680   30.1850   44.7460 C   0  0  0  0  0  0  0  0  0  0  0  0
   58.0260   31.4460   44.1880 N   0  0  0  0  0  0  0  0  0  0  0  0
   57.6540   31.6020   42.7670 C   0  0  0  0  0  0  0  0  0  0  0  0
   58.3760   32.5460   44.9500 C   0  0  0  0  0  0  0  0  0  0  0  0
   58.1370   33.8710   44.5020 C   0  0  0  0  0  0  0  0  0  0  0  0
   58.5700   34.9680   45.2450 C   0  0  0  0  0  0  0  0  0  0  0  0
   59.2410   34.7800   46.4480 C   0  0  0  0  0  0  0  0  0  0  0  0
   59.4470   33.4920   46.9370 C   0  0  0  0  0  0  0  0  0  0  0  0
   58.9830   32.3670   46.2240 C   0  0  0  0  0  0  0  0  0  0  0  0
   57.4170   28.9670   44.1080 C   0  0  0  0  0  0  0  0  0  0  0  0
   58.4120   27.8010   44.0480 C   0  0  0  0  0  0  0  0  0  0  0  0
   59.2050   27.5930   45.3620 C   0  0  0  0  0  0  0  0  0  0  0  0
   58.7940   28.5470   46.4990 C   0  0  0  0  0  0  0  0  0  0  0  0
   59.0911   33.9603   52.8530 H   0  0  0  0  0  0  0  0  0  0  0  0
   59.3366   32.1818   52.7951 H   0  0  0  0  0  0  0  0  0  0  0  0
   60.7545   33.2846   52.7951 H   0  0  0  0  0  0  0  0  0  0  0  0
   59.0914   32.3463   50.5508 H   0  0  0  0  0  0  0  0  0  0  0  0
   59.2357   34.1574   50.6184 H   0  0  0  0  0  0  0  0  0  0  0  0
   61.1150   32.2190   49.8040 H   0  0  0  0  0  0  0  0  0  0  0  0
   61.7570   33.1360   51.0790 H   0  0  0  0  0  0  0  0  0  0  0  0
   60.3138   34.5452   48.9390 H   0  0  0  0  0  0  0  0  0  0  0  0
   61.7544   35.0543   49.9128 H   0  0  0  0  0  0  0  0  0  0  0  0
   61.7697   34.0846   47.2688 H   0  0  0  0  0  0  0  0  0  0  0  0
   63.1850   34.2842   48.3577 H   0  0  0  0  0  0  0  0  0  0  0  0
   63.9167   31.1310   47.7342 H   0  0  0  0  0  0  0  0  0  0  0  0
   64.3402   32.8724   47.8776 H   0  0  0  0  0  0  0  0  0  0  0  0
   64.9187   31.0069   49.7950 H   0  0  0  0  0  0  0  0  0  0  0  0
   64.6165   32.7708   50.1359 H   0  0  0  0  0  0  0  0  0  0  0  0
   62.1690   31.5420   50.1140 H   0  0  0  0  0  0  0  0  0  0  0  0
   64.0785   29.6399   50.8069 H   0  0  0  0  0  0  0  0  0  0  0  0
   63.3016   30.2176   52.3226 H   0  0  0  0  0  0  0  0  0  0  0  0
   62.2485   28.3424   50.4888 H   0  0  0  0  0  0  0  0  0  0  0  0
   61.3664   29.1520   51.8275 H   0  0  0  0  0  0  0  0  0  0  0  0
   59.5168   29.0435   50.7533 H   0  0  0  0  0  0  0  0  0  0  0  0
   59.6744   30.7895   51.1613 H   0  0  0  0  0  0  0  0  0  0  0  0
   58.3302   29.5078   48.8837 H   0  0  0  0  0  0  0  0  0  0  0  0
   58.2307   31.2090   49.4879 H   0  0  0  0  0  0  0  0  0  0  0  0
   60.7330   30.9810   48.1630 H   0  0  0  0  0  0  0  0  0  0  0  0
   56.6416   32.0265   42.6975 H   0  0  0  0  0  0  0  0  0  0  0  0
   58.3690   32.2761   42.2727 H   0  0  0  0  0  0  0  0  0  0  0  0
   57.6743   30.6195   42.2727 H   0  0  0  0  0  0  0  0  0  0  0  0
   57.6023   34.0348   43.5547 H   0  0  0  0  0  0  0  0  0  0  0  0
   58.3799   35.9873   44.8777 H   0  0  0  0  0  0  0  0  0  0  0  0
   59.6093   35.6485   47.0138 H   0  0  0  0  0  0  0  0  0  0  0  0
   59.9776   33.3507   47.8901 H   0  0  0  0  0  0  0  0  0  0  0  0
   56.5432   28.6679   44.7055 H   0  0  0  0  0  0  0  0  0  0  0  0
   57.1044   29.2233   43.0850 H   0  0  0  0  0  0  0  0  0  0  0  0
   57.8539   26.8787   43.8292 H   0  0  0  0  0  0  0  0  0  0  0  0
   59.1450   28.0430   43.2643 H   0  0  0  0  0  0  0  0  0  0  0  0
   59.0449   26.5594   45.7028 H   0  0  0  0  0  0  0  0  0  0  0  0
   60.2600   27.8051   45.1341 H   0  0  0  0  0  0  0  0  0  0  0  0
   57.8205   28.2305   46.9016 H   0  0  0  0  0  0  0  0  0  0  0  0
   59.5624   28.5113   47.2853 H   0  0  0  0  0  0  0  0  0  0  0  0
  1  2  1  0
  2  3  1  0
  3  4  1  0
  4  5  1  0
  5  6  1  0
  6  7  1  0
  7  8  1  0
  8  9  1  0
  9 10  1  0
 10 11  1  0
 11 12  1  0
 12 13  1  0
 13 14  1  0
 14 15  1  0
 15 16  1  0
 16 17  2  0
 17 18  1  0
 18 19  2  0
 19 20  1  0
 19 21  1  0
 21 22  2  0
 22 23  1  0
 23 24  2  0
 24 25  1  0
 25 26  2  0
 18 27  1  0
 27 28  1  0
 28 29  1  0
 29 30  1  0
 26 16  1  0
 30 17  1  0
 26 21  1  0
  1 31  1  0
  1 32  1  0
  1 33  1  0
  2 34  1  0
  2 35  1  0
  3 36  1  0
  3 37  1  0
  4 38  1  0
  4 39  1  0
  5 40  1  0
  5 41  1  0
  7 42  1  0
  7 43  1  0
  8 44  1  0
  8 45  1  0
  9 46  1  0
 10 47  1  0
 10 48  1  0
 11 49  1  0
 11 50  1  0
 13 51  1  0
 13 52  1  0
 14 53  1  0
 14 54  1  0
 15 55  1  0
 20 56  1  0
 20 57  1  0
 20 58  1  0
 22 59  1  0
 23 60  1  0
 24 61  1  0
 25 62  1  0
 27 63  1  0
 27 64  1  0
 28 65  1  0
 28 66  1  0
 29 67  1  0
 29 68  1  0
 30 69  1  0
 30 70  1  0
M  CHG  2   3   1  19   1
M  END
>  <UniqueID>  (20) 
20

>  <SMILES>  (20) 
CC[NH2+]CCOCCNCCOCCNc1c2c([n+](C)c3ccccc13)CCCC2

>  <Energy>  (20) 
91.94021282456858

>  <Genealogy>  (20) 
CC[NH2+]CCOCCNCCOCCNc1c2c([n+](C)c3ccccc13)CCCC2 (protonated)
CC[NH2+]CCOCCNCCOCCNc1c2c([n+](C)c3ccccc13)CCCC2 (3D coordinates assigned)
CC[NH2+]CCOCCNCCOCCNc1c2c([n+](C)c3ccccc13)CCCC2 (nonaromatic ring conformer: 91.94021282456858 kcal/mol)

>  <smiles>  (20) 
CCNCCOCCNCCOCCNc1c2c([n+](C)c3ccccc13)CCCC2

>  <score_type>  (20) 
oracle

>  <origin>  (20) 
adg

>  <m_score__min__energy>  (20) 
-3.5099999999999998

>  <m_primary>  (20) 
energy

$$$$
20:0
     RDKit          3D

 54 56  0  0  0  0  0  0  0  0999 V2000
   56.3120   29.7190   42.7340 C   0  0  0  0  0  0  0  0  0  0  0  0
   55.4260   29.9090   43.9700 C   0  0  0  0  0  0  0  0  0  0  0  0
   55.9110   29.1520   45.1340 N   0  0  0  0  0  0  0  0  0  0  0  0
   57.3220   28.7690   45.0010 C   0  0  0  0  0  0  0  0  0  0  0  0
   58.2160   29.9720   45.3010 C   0  0  0  0  0  0  0  0  0  0  0  0
   57.4250   31.0950   45.6450 O   0  0  0  0  0  0  0  0  0  0  0  0
   57.8200   32.2490   44.9230 C   0  0  0  0  0  0  0  0  0  0  0  0
   57.3090   33.5240   45.6040 C   0  0  0  0  0  0  0  0  0  0  0  0
   58.1810   33.9200   46.8010 C   0  0  0  0  0  0  0  0  0  0  0  0
   58.7710   32.7380   47.4270 N   0  0  0  0  0  0  0  0  0  0  0  0
   59.7880   32.8850   48.4250 C   0  0  0  0  0  0  0  0  0  0  0  0
   59.4720   32.6860   49.7650 C   0  0  0  0  0  0  0  0  0  0  0  0
   60.4130   32.8560   50.7450 C   0  0  0  0  0  0  0  0  0  0  0  0
   61.7060   33.2180   50.4590 N   0  0  0  0  0  0  0  0  0  0  0  0
   62.6860   33.3990   51.5470 C   0  0  0  0  0  0  0  0  0  0  0  0
   62.0750   33.4040   49.1350 C   0  0  0  0  0  0  0  0  0  0  0  0
   63.3980   33.7580   48.7730 C   0  0  0  0  0  0  0  0  0  0  0  0
   63.7540   33.9270   47.4350 C   0  0  0  0  0  0  0  0  0  0  0  0
   62.8110   33.7430   46.4270 C   0  0  0  0  0  0  0  0  0  0  0  0
   61.5020   33.3950   46.7480 C   0  0  0  0  0  0  0  0  0  0  0  0
   61.1120   33.2330   48.0910 C   0  0  0  0  0  0  0  0  0  0  0  0
   59.8300   32.6160   52.0960 C   0  0  0  0  0  0  0  0  0  0  0  0
   58.3640   32.2370   51.8260 C   0  0  0  0  0  0  0  0  0  0  0  0
   58.1420   32.3210   50.3090 C   0  0  0  0  0  0  0  0  0  0  0  0
   57.3418   29.4982   43.0515 H   0  0  0  0  0  0  0  0  0  0  0  0
   55.9268   28.8831   42.1317 H   0  0  0  0  0  0  0  0  0  0  0  0
   56.3034   30.6394   42.1317 H   0  0  0  0  0  0  0  0  0  0  0  0
   55.4058   30.9781   44.2283 H   0  0  0  0  0  0  0  0  0  0  0  0
   54.4224   29.5331   43.7221 H   0  0  0  0  0  0  0  0  0  0  0  0
   55.7910   29.7310   45.9990 H   0  0  0  0  0  0  0  0  0  0  0  0
   57.5490   27.9595   45.7104 H   0  0  0  0  0  0  0  0  0  0  0  0
   57.5094   28.4248   43.9732 H   0  0  0  0  0  0  0  0  0  0  0  0
   58.8846   29.7278   46.1397 H   0  0  0  0  0  0  0  0  0  0  0  0
   58.8087   30.2110   44.4057 H   0  0  0  0  0  0  0  0  0  0  0  0
   58.9183   32.2835   44.8725 H   0  0  0  0  0  0  0  0  0  0  0  0
   57.3896   32.1947   43.9122 H   0  0  0  0  0  0  0  0  0  0  0  0
   57.3151   34.3452   44.8722 H   0  0  0  0  0  0  0  0  0  0  0  0
   56.2910   33.3297   45.9726 H   0  0  0  0  0  0  0  0  0  0  0  0
   58.9862   34.5853   46.4561 H   0  0  0  0  0  0  0  0  0  0  0  0
   57.5507   34.4338   47.5418 H   0  0  0  0  0  0  0  0  0  0  0  0
   58.3150   31.8040   47.3230 H   0  0  0  0  0  0  0  0  0  0  0  0
   62.1775   33.3051   52.5179 H   0  0  0  0  0  0  0  0  0  0  0  0
   63.4687   32.6302   51.4671 H   0  0  0  0  0  0  0  0  0  0  0  0
   63.1424   34.3966   51.4671 H   0  0  0  0  0  0  0  0  0  0  0  0
   64.1551   33.9016   49.5580 H   0  0  0  0  0  0  0  0  0  0  0  0
   64.7854   34.2072   47.1746 H   0  0  0  0  0  0  0  0  0  0  0  0
   63.1014   33.8730   45.3740 H   0  0  0  0  0  0  0  0  0  0  0  0
   60.7654   33.2452   45.9449 H   0  0  0  0  0  0  0  0  0  0  0  0
   60.3557   31.7948   52.6052 H   0  0  0  0  0  0  0  0  0  0  0  0
   59.9190   33.4957   52.7503 H   0  0  0  0  0  0  0  0  0  0  0  0
   58.1688   31.2136   52.1788 H   0  0  0  0  0  0  0  0  0  0  0  0
   57.6820   32.9171   52.3574 H   0  0  0  0  0  0  0  0  0  0  0  0
   57.8100   31.3515   49.9093 H   0  0  0  0  0  0  0  0  0  0  0  0
   57.3624   33.0480   50.0375 H   0  0  0  0  0  0  0  0  0  0  0  0
  1  2  1  0
  2  3  1  0
  3  4  1  0
  4  5  1  0
  5  6  1  0
  6  7  1  0
  7  8  1  0
  8  9  1  0
  9 10  1  0
 10 11  1  0
 11 12  2  0
 12 13  1  0
 13 14  2  0
 14 15  1  0
 14 16  1  0
 16 17  2  0
 17 18  1  0
 18 19  2  0
 19 20  1  0
 20 21  2  0
 13 22  1  0
 22 23  1  0
 23 24  1  0
 21 11  1  0
 24 12  1  0
 21 16  1  0
  1 25  1  0
  1 26  1  0
  1 27  1  0
  2 28  1  0
  2 29  1  0
  3 30  1  0
  4 31  1  0
  4 32  1  0
  5 33  1  0
  5 34  1  0
  7 35  1  0
  7 36  1  0
  8 37  1  0
  8 38  1  0
  9 39  1  0
  9 40  1  0
 10 41  1  0
 15 42  1  0
 15 43  1  0
 15 44  1  0
 17 45  1  0
 18 46  1  0
 19 47  1  0
 20 48  1  0
 22 49  1  0
 22 50  1  0
 23 51  1  0
 23 52  1  0
 24 53  1  0
 24 54  1  0
M  CHG  1  14   1
M  END
>  <UniqueID>  (21) 
21

>  <SMILES>  (21) 
CCNCCOCCCNc1c2c([n+](C)c3ccccc13)CCC2

>  <Energy>  (21) 
71.7622150484941

>  <Genealogy>  (21) 
CCNCCOCCCNc1c2c([n+](C)c3ccccc13)CCC2 (3D coordinates assigned)
CCNCCOCCCNc1c2c([n+](C)c3ccccc13)CCC2 (nonaromatic ring conformer: 71.7622150484941 kcal/mol)

>  <smiles>  (21) 
CCNCCOCCCNc1c2c([n+](C)c3ccccc13)CCC2

>  <score_type>  (21) 
oracle

>  <origin>  (21) 
adg

>  <m_score__min__energy>  (21) 
-6.1900000000000004

>  <m_primary>  (21) 
energy

$$$$
21:0
     RDKit          3D

 49 51  0  0  0  0  0  0  0  0999 V2000
   60.6030   33.8100   50.1150 C   0  0  0  0  0  0  0  0  0  0  0  0
   62.0700   33.3960   49.9070 C   0  0  0  0  0  0  0  0  0  0  0  0
   62.4140   33.0690   48.5020 N   0  0  0  0  0  0  0  0  0  0  0  0
   63.2620   34.0930   47.8590 C   0  0  0  0  0  0  0  0  0  0  0  0
   63.3840   33.8240   46.3620 C   0  0  0  0  0  0  0  0  0  0  0  0
   62.9260   31.6880   48.3360 C   0  0  0  0  0  0  0  0  0  0  0  0
   61.9350   30.8530   47.5220 C   0  0  0  0  0  0  0  0  0  0  0  0
   60.5900   31.4190   47.5960 N   0  0  0  0  0  0  0  0  0  0  0  0
   59.6800   31.2500   46.5010 C   0  0  0  0  0  0  0  0  0  0  0  0
   59.0300   32.3520   45.9520 C   0  0  0  0  0  0  0  0  0  0  0  0
   58.1720   32.2240   44.8880 C   0  0  0  0  0  0  0  0  0  0  0  0
   57.9070   31.0030   44.3160 N   0  0  0  0  0  0  0  0  0  0  0  0
   56.9820   30.9080   43.1720 C   0  0  0  0  0  0  0  0  0  0  0  0
   58.5200   29.8720   44.8320 C   0  0  0  0  0  0  0  0  0  0  0  0
   58.2830   28.5870   44.2870 C   0  0  0  0  0  0  0  0  0  0  0  0
   58.8940   27.4540   44.8280 C   0  0  0  0  0  0  0  0  0  0  0  0
   59.7450   27.5700   45.9230 C   0  0  0  0  0  0  0  0  0  0  0  0
   60.0030   28.8190   46.4810 C   0  0  0  0  0  0  0  0  0  0  0  0
   59.4150   29.9800   45.9440 C   0  0  0  0  0  0  0  0  0  0  0  0
   57.6210   33.5600   44.4660 C   0  0  0  0  0  0  0  0  0  0  0  0
   58.2690   34.5810   45.4240 C   0  0  0  0  0  0  0  0  0  0  0  0
   59.1330   33.7500   46.3070 C   0  0  0  0  0  0  0  0  0  0  0  0
   59.8590   34.2150   47.2240 O   0  0  0  0  0  0  0  0  0  0  0  0
   60.3883   33.8706   51.1921 H   0  0  0  0  0  0  0  0  0  0  0  0
   60.4298   34.7921   49.6508 H   0  0  0  0  0  0  0  0  0  0  0  0
   59.9419   33.0633   49.6508 H   0  0  0  0  0  0  0  0  0  0  0  0
   62.7129   34.2258   50.2358 H   0  0  0  0  0  0  0  0  0  0  0  0
   62.2267   32.4786   50.4934 H   0  0  0  0  0  0  0  0  0  0  0  0
   62.8114   35.0846   48.0129 H   0  0  0  0  0  0  0  0  0  0  0  0
   64.2650   34.0577   48.3093 H   0  0  0  0  0  0  0  0  0  0  0  0
   63.8336   32.8327   46.2030 H   0  0  0  0  0  0  0  0  0  0  0  0
   62.3852   33.8517   45.9019 H   0  0  0  0  0  0  0  0  0  0  0  0
   64.0211   34.5936   45.9019 H   0  0  0  0  0  0  0  0  0  0  0  0
   63.8923   31.7190   47.8114 H   0  0  0  0  0  0  0  0  0  0  0  0
   63.0527   31.2298   49.3279 H   0  0  0  0  0  0  0  0  0  0  0  0
   62.2596   30.8327   46.4712 H   0  0  0  0  0  0  0  0  0  0  0  0
   61.9104   29.8346   47.9371 H   0  0  0  0  0  0  0  0  0  0  0  0
   60.4530   32.2580   48.2030 H   0  0  0  0  0  0  0  0  0  0  0  0
   55.9514   30.8022   43.5416 H   0  0  0  0  0  0  0  0  0  0  0  0
   57.0605   31.8189   42.5604 H   0  0  0  0  0  0  0  0  0  0  0  0
   57.2440   30.0320   42.5604 H   0  0  0  0  0  0  0  0  0  0  0  0
   57.6080   28.4797   43.4251 H   0  0  0  0  0  0  0  0  0  0  0  0
   58.7018   26.4650   44.3865 H   0  0  0  0  0  0  0  0  0  0  0  0
   60.2154   26.6716   46.3491 H   0  0  0  0  0  0  0  0  0  0  0  0
   60.6727   28.8996   47.3499 H   0  0  0  0  0  0  0  0  0  0  0  0
   57.8958   33.7796   43.4238 H   0  0  0  0  0  0  0  0  0  0  0  0
   56.5224   33.5875   44.5150 H   0  0  0  0  0  0  0  0  0  0  0  0
   58.8705   35.3135   44.8658 H   0  0  0  0  0  0  0  0  0  0  0  0
   57.5252   35.1638   45.9871 H   0  0  0  0  0  0  0  0  0  0  0  0
  1  2  1  0
  2  3  1  0
  3  4  1  0
  4  5  1  0
  3  6  1  0
  6  7  1  0
  7  8  1  0
  8  9  1  0
  9 10  2  0
 10 11  1  0
 11 12  2  0
 12 13  1  0
 12 14  1  0
 14 15  2  0
 15 16  1  0
 16 17  2  0
 17 18  1  0
 18 19  2  0
 11 20  1  0
 20 21  1  0
 21 22  1  0
 22 23  2  0
 19  9  1  0
 22 10  1  0
 19 14  1  0
  1 24  1  0
  1 25  1  0
  1 26  1  0
  2 27  1  0
  2 28  1  0
  4 29  1  0
  4 30  1  0
  5 31  1  0
  5 32  1  0
  5 33  1  0
  6 34  1  0
  6 35  1  0
  7 36  1  0
  7 37  1  0
  8 38  1  0
 13 39  1  0
 13 40  1  0
 13 41  1  0
 15 42  1  0
 16 43  1  0
 17 44  1  0
 18 45  1  0
 20 46  1  0
 20 47  1  0
 21 48  1  0
 21 49  1  0
M  CHG  1  12   1
M  END
>  <UniqueID>  (22) 
22

>  <SMILES>  (22) 
CCN(CC)CCNc1c2c([n+](C)c3ccccc13)CCC2=O

>  <Energy>  (22) 
76.7709824057607

>  <Genealogy>  (22) 
CCN(CC)CCNc1c2c([n+](C)c3ccccc13)CCC2=O (3D coordinates assigned)
CCN(CC)CCNc1c2c([n+](C)c3ccccc13)CCC2=O (nonaromatic ring conformer: 76.7709824057607 kcal/mol)

>  <smiles>  (22) 
CCN(CC)CCNc1c2c([n+](C)c3ccccc13)CCC2=O

>  <score_type>  (22) 
oracle

>  <origin>  (22) 
adg

>  <m_score__min__energy>  (22) 
-5.1200000000000001

>  <m_primary>  (22) 
energy

$$$$
