0:0
     RDKit          3D

 75 77  0  0  0  0  0  0  0  0999 V2000
   60.7620   27.8490   49.5040 C   0  0  0  0  0  0  0  0  0  0  0  0
   60.2470   28.7000   50.6590 C   0  0  0  0  0  0  0  0  0  0  0  0
   60.4980   30.1360   50.3710 N   0  0  0  0  0  0  0  0  0  0  0  0
   61.5540   30.7040   51.2350 C   0  0  0  0  0  0  0  0  0  0  0  0
   62.7600   29.7690   51.3150 C   0  0  0  0  0  0  0  0  0  0  0  0
   59.2540   30.9420   50.4350 C   0  0  0  0  0  0  0  0  0  0  0  0
   59.5370   32.3270   51.0360 C   0  0  0  0  0  0  0  0  0  0  0  0
   59.2610   33.4470   50.0220 C   0  0  0  0  0  0  0  0  0  0  0  0
   60.3050   33.4900   48.9940 N   0  0  0  0  0  0  0  0  0  0  0  0
   60.0010   33.6760   47.6010 C   0  0  0  0  0  0  0  0  0  0  0  0
   59.8570   34.9860   47.1290 C   0  0  0  0  0  0  0  0  0  0  0  0
   59.2740   35.2340   45.8940 C   0  0  0  0  0  0  0  0  0  0  0  0
   58.7820   34.1840   45.1270 C   0  0  0  0  0  0  0  0  0  0  0  0
   58.9250   32.8410   45.5500 C   0  0  0  0  0  0  0  0  0  0  0  0
   59.6150   32.5810   46.7690 C   0  0  0  0  0  0  0  0  0  0  0  0
   59.8700   31.2260   47.1160 C   0  0  0  0  0  0  0  0  0  0  0  0
   61.0380   30.8510   47.9010 N   0  0  0  0  0  0  0  0  0  0  0  0
   62.2850   30.9430   47.1150 C   0  0  0  0  0  0  0  0  0  0  0  0
   63.4130   31.5980   47.9340 C   0  0  0  0  0  0  0  0  0  0  0  0
   62.9290   32.8160   48.6230 N   0  0  0  0  0  0  0  0  0  0  0  0
   63.3000   34.0440   47.8800 C   0  0  0  0  0  0  0  0  0  0  0  0
   63.2760   33.8080   46.3680 C   0  0  0  0  0  0  0  0  0  0  0  0
   63.4010   32.8760   50.0290 C   0  0  0  0  0  0  0  0  0  0  0  0
   64.9110   32.6870   50.0590 C   0  0  0  0  0  0  0  0  0  0  0  0
   59.0300   30.2360   46.5560 C   0  0  0  0  0  0  0  0  0  0  0  0
   58.9290   28.9490   47.1270 C   0  0  0  0  0  0  0  0  0  0  0  0
   58.0940   27.9850   46.5670 C   0  0  0  0  0  0  0  0  0  0  0  0
   57.3290   28.2920   45.4450 C   0  0  0  0  0  0  0  0  0  0  0  0
   57.4060   29.5600   44.8710 C   0  0  0  0  0  0  0  0  0  0  0  0
   58.2690   30.5510   45.4010 C   0  0  0  0  0  0  0  0  0  0  0  0
   58.3900   31.7960   44.8200 N   0  0  0  0  0  0  0  0  0  0  0  0
   57.9160   32.0190   43.4360 C   0  0  0  0  0  0  0  0  0  0  0  0
   61.2927   26.9720   49.9029 H   0  0  0  0  0  0  0  0  0  0  0  0
   59.9141   27.5154   48.8878 H   0  0  0  0  0  0  0  0  0  0  0  0
   61.4508   28.4455   48.8878 H   0  0  0  0  0  0  0  0  0  0  0  0
   59.1665   28.5348   50.7820 H   0  0  0  0  0  0  0  0  0  0  0  0
   60.7707   28.4160   51.5837 H   0  0  0  0  0  0  0  0  0  0  0  0
   61.8757   31.6710   50.8209 H   0  0  0  0  0  0  0  0  0  0  0  0
   61.1448   30.8345   52.2477 H   0  0  0  0  0  0  0  0  0  0  0  0
   63.0065   29.5779   52.3699 H   0  0  0  0  0  0  0  0  0  0  0  0
   62.5205   28.8182   50.8164 H   0  0  0  0  0  0  0  0  0  0  0  0
   63.6211   30.2378   50.8164 H   0  0  0  0  0  0  0  0  0  0  0  0
   58.8500   31.0645   49.4192 H   0  0  0  0  0  0  0  0  0  0  0  0
   58.5262   30.4204   51.0739 H   0  0  0  0  0  0  0  0  0  0  0  0
   58.8923   32.4738   51.9151 H   0  0  0  0  0  0  0  0  0  0  0  0
   60.5993   32.3706   51.3181 H   0  0  0  0  0  0  0  0  0  0  0  0
   58.2887   33.2656   49.5406 H   0  0  0  0  0  0  0  0  0  0  0  0
   59.2521   34.4094   50.5547 H   0  0  0  0  0  0  0  0  0  0  0  0
   61.2880   33.6800   49.3050 H   0  0  0  0  0  0  0  0  0  0  0  0
   60.2096   35.8277   47.7433 H   0  0  0  0  0  0  0  0  0  0  0  0
   59.2009   36.2660   45.5204 H   0  0  0  0  0  0  0  0  0  0  0  0
   58.2734   34.4005   44.1760 H   0  0  0  0  0  0  0  0  0  0  0  0
   61.1660   31.5130   48.6920 H   0  0  0  0  0  0  0  0  0  0  0  0
   60.9200   29.8900   48.2940 H   0  0  0  0  0  0  0  0  0  0  0  0
   62.5979   29.9309   46.8189 H   0  0  0  0  0  0  0  0  0  0  0  0
   62.0925   31.5647   46.2282 H   0  0  0  0  0  0  0  0  0  0  0  0
   63.7762   30.8804   48.6844 H   0  0  0  0  0  0  0  0  0  0  0  0
   64.2249   31.8821   47.2483 H   0  0  0  0  0  0  0  0  0  0  0  0
   62.5862   34.8430   48.1293 H   0  0  0  0  0  0  0  0  0  0  0  0
   64.3216   34.3301   48.1705 H   0  0  0  0  0  0  0  0  0  0  0  0
   63.1666   32.7322   46.1665 H   0  0  0  0  0  0  0  0  0  0  0  0
   62.4285   34.3520   45.9254 H   0  0  0  0  0  0  0  0  0  0  0  0
   64.2156   34.1702   45.9254 H   0  0  0  0  0  0  0  0  0  0  0  0
   63.1441   33.8541   50.4618 H   0  0  0  0  0  0  0  0  0  0  0  0
   62.9175   32.0807   50.6152 H   0  0  0  0  0  0  0  0  0  0  0  0
   65.2545   32.6440   51.1031 H   0  0  0  0  0  0  0  0  0  0  0  0
   65.1734   31.7490   49.5478 H   0  0  0  0  0  0  0  0  0  0  0  0
   65.3964   33.5314   49.5478 H   0  0  0  0  0  0  0  0  0  0  0  0
   59.5164   28.7046   48.0244 H   0  0  0  0  0  0  0  0  0  0  0  0
   58.0390   26.9804   47.0116 H   0  0  0  0  0  0  0  0  0  0  0  0
   56.6624   27.5324   45.0106 H   0  0  0  0  0  0  0  0  0  0  0  0
   56.7869   29.7950   43.9926 H   0  0  0  0  0  0  0  0  0  0  0  0
   56.9209   32.4872   43.4602 H   0  0  0  0  0  0  0  0  0  0  0  0
   58.6197   32.6805   42.9095 H   0  0  0  0  0  0  0  0  0  0  0  0
   57.8550   31.0551   42.9095 H   0  0  0  0  0  0  0  0  0  0  0  0
  1  2  1  0
  2  3  1  0
  3  4  1  0
  4  5  1  0
  3  6  1  0
  6  7  1  0
  7  8  1  0
  8  9  1  0
  9 10  1  0
 10 11  2  0
 11 12  1  0
 12 13  2  0
 13 14  1  0
 14 15  2  0
 15 16  1  0
 16 17  1  0
 17 18  1  0
 18 19  1  0
 19 20  1  0
 20 21  1  0
 21 22  1  0
 20 23  1  0
 23 24  1  0
 16 25  2  0
 25 26  1  0
 26 27  2  0
 27 28  1  0
 28 29  2  0
 29 30  1  0
 30 31  2  0
 31 32  1  0
 15 10  1  0
 30 25  1  0
 31 14  1  0
  1 33  1  0
  1 34  1  0
  1 35  1  0
  2 36  1  0
  2 37  1  0
  4 38  1  0
  4 39  1  0
  5 40  1  0
  5 41  1  0
  5 42  1  0
  6 43  1  0
  6 44  1  0
  7 45  1  0
  7 46  1  0
  8 47  1  0
  8 48  1  0
  9 49  1  0
 11 50  1  0
 12 51  1  0
 13 52  1  0
 17 53  1  0
 17 54  1  0
 18 55  1  0
 18 56  1  0
 19 57  1  0
 19 58  1  0
 21 59  1  0
 21 60  1  0
 22 61  1  0
 22 62  1  0
 22 63  1  0
 23 64  1  0
 23 65  1  0
 24 66  1  0
 24 67  1  0
 24 68  1  0
 26 69  1  0
 27 70  1  0
 28 71  1  0
 29 72  1  0
 32 73  1  0
 32 74  1  0
 32 75  1  0
M  CHG  2  17   1  31   1
M  END
>  <UniqueID>  (1) 
1

>  <SMILES>  (1) 
CCN(CC)CCCNc1cccc2c1c([NH2+]CCN(CC)CC)c1ccccc1[n+]2C

>  <Energy>  (1) 
111.69411450028883

>  <Genealogy>  (1) 
CCN(CC)CCCNc1cccc2c1c([NH2+]CCN(CC)CC)c1ccccc1[n+]2C (protonated)
CCN(CC)CCCNc1cccc2c1c([NH2+]CCN(CC)CC)c1ccccc1[n+]2C (3D coordinates assigned)
CCN(CC)CCCNc1cccc2c1c([NH2+]CCN(CC)CC)c1ccccc1[n+]2C (optimized conformer: 111.69411450028883 kcal/mol)

>  <smiles>  (1) 
CCN(CC)CCCNc1cccc2c1c(NCCN(CC)CC)c1ccccc1[n+]2C

>  <score_type>  (1) 
oracle

>  <origin>  (1) 
adg

>  <m_score__min__energy>  (1) 
-3.6899999999999999

>  <m_primary>  (1) 
energy

$$$$
1:0
     RDKit          3D

 53 55  0  0  0  0  0  0  0  0999 V2000
   56.5490   29.8890   42.6860 C   0  0  0  0  0  0  0  0  0  0  0  0
   55.8220   29.9790   44.0300 C   0  0  0  0  0  0  0  0  0  0  0  0
   56.6690   30.5770   45.0800 N   0  0  0  0  0  0  0  0  0  0  0  0
   58.0930   30.6420   44.7140 C   0  0  0  0  0  0  0  0  0  0  0  0
   58.9830   29.8540   45.6870 C   0  0  0  0  0  0  0  0  0  0  0  0
   58.2240   28.8520   46.3380 O   0  0  0  0  0  0  0  0  0  0  0  0
   58.9910   28.2210   47.3430 C   0  0  0  0  0  0  0  0  0  0  0  0
   59.7650   29.2870   48.1180 C   0  0  0  0  0  0  0  0  0  0  0  0
   58.8920   29.9310   49.2000 C   0  0  0  0  0  0  0  0  0  0  0  0
   59.5480   31.1120   49.7580 N   0  0  0  0  0  0  0  0  0  0  0  0
   60.4430   31.8940   48.9550 C   0  0  0  0  0  0  0  0  0  0  0  0
   59.9450   32.6790   47.9030 C   0  0  0  0  0  0  0  0  0  0  0  0
   58.5630   32.7090   47.6200 C   0  0  0  0  0  0  0  0  0  0  0  0
   58.0610   33.5350   46.6170 C   0  0  0  0  0  0  0  0  0  0  0  0
   58.9220   34.3480   45.8900 C   0  0  0  0  0  0  0  0  0  0  0  0
   60.2950   34.3190   46.1380 C   0  0  0  0  0  0  0  0  0  0  0  0
   60.8420   33.4550   47.1230 C   0  0  0  0  0  0  0  0  0  0  0  0
   62.2060   33.3680   47.3400 N   0  0  0  0  0  0  0  0  0  0  0  0
   63.1490   33.9480   46.3580 C   0  0  0  0  0  0  0  0  0  0  0  0
   62.6880   32.7120   48.4580 C   0  0  0  0  0  0  0  0  0  0  0  0
   64.0470   32.8080   48.8550 C   0  0  0  0  0  0  0  0  0  0  0  0
   64.5320   32.0920   49.9510 C   0  0  0  0  0  0  0  0  0  0  0  0
   66.2190   32.2260   50.4110 Cl  0  0  0  0  0  0  0  0  0  0  0  0
   63.6760   31.2760   50.6850 C   0  0  0  0  0  0  0  0  0  0  0  0
   62.3280   31.1960   50.3470 C   0  0  0  0  0  0  0  0  0  0  0  0
   61.8140   31.9260   49.2560 C   0  0  0  0  0  0  0  0  0  0  0  0
   57.6269   29.7556   42.8604 H   0  0  0  0  0  0  0  0  0  0  0  0
   56.1609   29.0320   42.1159 H   0  0  0  0  0  0  0  0  0  0  0  0
   56.3816   30.8147   42.1159 H   0  0  0  0  0  0  0  0  0  0  0  0
   54.9214   30.5981   43.9054 H   0  0  0  0  0  0  0  0  0  0  0  0
   55.5633   28.9571   44.3444 H   0  0  0  0  0  0  0  0  0  0  0  0
   56.5600   30.0910   46.0010 H   0  0  0  0  0  0  0  0  0  0  0  0
   58.2178   30.2247   43.7039 H   0  0  0  0  0  0  0  0  0  0  0  0
   58.4025   31.6968   44.7548 H   0  0  0  0  0  0  0  0  0  0  0  0
   59.8046   29.3824   45.1279 H   0  0  0  0  0  0  0  0  0  0  0  0
   59.3906   30.5436   46.4409 H   0  0  0  0  0  0  0  0  0  0  0  0
   58.3249   27.6767   48.0287 H   0  0  0  0  0  0  0  0  0  0  0  0
   59.6939   27.5101   46.8841 H   0  0  0  0  0  0  0  0  0  0  0  0
   60.6397   28.8198   48.5941 H   0  0  0  0  0  0  0  0  0  0  0  0
   60.0787   30.0705   47.4125 H   0  0  0  0  0  0  0  0  0  0  0  0
   57.9293   30.2276   48.7581 H   0  0  0  0  0  0  0  0  0  0  0  0
   58.7326   29.2006   50.0069 H   0  0  0  0  0  0  0  0  0  0  0  0
   59.3370   31.4370   50.7290 H   0  0  0  0  0  0  0  0  0  0  0  0
   57.8751   32.0737   48.1972 H   0  0  0  0  0  0  0  0  0  0  0  0
   56.9826   33.5437   46.4004 H   0  0  0  0  0  0  0  0  0  0  0  0
   58.5195   35.0175   45.1155 H   0  0  0  0  0  0  0  0  0  0  0  0
   60.9636   34.9754   45.5617 H   0  0  0  0  0  0  0  0  0  0  0  0
   63.9688   34.4523   46.8905 H   0  0  0  0  0  0  0  0  0  0  0  0
   63.5601   33.1464   45.7268 H   0  0  0  0  0  0  0  0  0  0  0  0
   62.6190   34.6765   45.7268 H   0  0  0  0  0  0  0  0  0  0  0  0
   64.7305   33.4581   48.2891 H   0  0  0  0  0  0  0  0  0  0  0  0
   64.0652   30.6936   51.5332 H   0  0  0  0  0  0  0  0  0  0  0  0
   61.6563   30.5559   50.9379 H   0  0  0  0  0  0  0  0  0  0  0  0
  1  2  1  0
  2  3  1  0
  3  4  1  0
  4  5  1  0
  5  6  1  0
  6  7  1  0
  7  8  1  0
  8  9  1  0
  9 10  1  0
 10 11  1  0
 11 12  2  0
 12 13  1  0
 13 14  2  0
 14 15  1  0
 15 16  2  0
 16 17  1  0
 17 18  2  0
 18 19  1  0
 18 20  1  0
 20 21  2  0
 21 22  1  0
 22 23  1  0
 22 24  2  0
 24 25  1  0
 25 26  2  0
 26 11  1  0
 17 12  1  0
 26 20  1  0
  1 27  1  0
  1 28  1  0
  1 29  1  0
  2 30  1  0
  2 31  1  0
  3 32  1  0
  4 33  1  0
  4 34  1  0
  5 35  1  0
  5 36  1  0
  7 37  1  0
  7 38  1  0
  8 39  1  0
  8 40  1  0
  9 41  1  0
  9 42  1  0
 10 43  1  0
 13 44  1  0
 14 45  1  0
 15 46  1  0
 16 47  1  0
 19 48  1  0
 19 49  1  0
 19 50  1  0
 21 51  1  0
 24 52  1  0
 25 53  1  0
M  CHG  1  18   1
M  END
>  <UniqueID>  (2) 
2

>  <SMILES>  (2) 
CCNCCOCCCNc1c2ccccc2[n+](C)c2cc(Cl)ccc12

>  <Energy>  (2) 
77.36897835499553

>  <Genealogy>  (2) 
CCNCCOCCCNc1c2ccccc2[n+](C)c2cc(Cl)ccc12 (3D coordinates assigned)
CCNCCOCCCNc1c2ccccc2[n+](C)c2cc(Cl)ccc12 (optimized conformer: 77.36897835499553 kcal/mol)

>  <smiles>  (2) 
CCNCCOCCCNc1c2ccccc2[n+](C)c2cc(Cl)ccc12

>  <score_type>  (2) 
oracle

>  <origin>  (2) 
adg

>  <m_score__min__energy>  (2) 
-6.3300000000000001

>  <m_primary>  (2) 
energy

$$$$
2:0
     RDKit          3D

 58 62  0  0  0  0  0  0  0  0999 V2000
   58.4970   32.3630   41.1630 C   0  0  0  0  0  0  0  0  0  0  0  0
   57.3800   32.3450   42.2030 C   0  0  0  0  0  0  0  0  0  0  0  0
   57.8810   31.8250   43.4770 N   0  0  0  0  0  0  0  0  0  0  0  0
   57.6650   30.5900   44.0000 C   0  0  0  0  0  0  0  0  0  0  0  0
   58.1560   30.5020   45.2820 C   0  0  0  0  0  0  0  0  0  0  0  0
   58.6960   31.7360   45.5690 C   0  0  0  0  0  0  0  0  0  0  0  0
   59.2660   32.2330   46.7390 C   0  0  0  0  0  0  0  0  0  0  0  0
   59.6600   33.5860   46.7590 C   0  0  0  0  0  0  0  0  0  0  0  0
   60.2640   34.1460   47.9810 C   0  0  0  0  0  0  0  0  0  0  0  0
   59.5600   34.9100   48.6940 O   0  0  0  0  0  0  0  0  0  0  0  0
   61.6350   33.8680   48.3540 N   0  0  0  0  0  0  0  0  0  0  0  0
   62.1860   34.5390   49.5400 C   0  0  0  0  0  0  0  0  0  0  0  0
   63.4300   33.8050   50.0520 C   0  0  0  0  0  0  0  0  0  0  0  0
   64.3530   33.5970   49.0020 O   0  0  0  0  0  0  0  0  0  0  0  0
   63.7940   32.7030   48.0570 C   0  0  0  0  0  0  0  0  0  0  0  0
   62.5840   33.3380   47.3590 C   0  0  0  0  0  0  0  0  0  0  0  0
   59.4890   34.3910   45.6090 C   0  0  0  0  0  0  0  0  0  0  0  0
   58.8980   33.8620   44.4450 C   0  0  0  0  0  0  0  0  0  0  0  0
   58.5140   32.5190   44.4540 C   0  0  0  0  0  0  0  0  0  0  0  0
   57.9140   29.3360   46.1820 C   0  0  0  0  0  0  0  0  0  0  0  0
   57.4400   28.1250   45.3920 C   0  0  0  0  0  0  0  0  0  0  0  0
   57.4550   26.7720   46.0200 C   0  0  0  0  0  0  0  0  0  0  0  0
   56.7580   25.7050   45.4210 C   0  0  0  0  0  0  0  0  0  0  0  0
   56.7430   24.4400   46.0140 C   0  0  0  0  0  0  0  0  0  0  0  0
   57.4120   24.2130   47.2210 C   0  0  0  0  0  0  0  0  0  0  0  0
   57.3480   22.9310   47.7900 O   0  0  0  0  0  0  0  0  0  0  0  0
   56.2700   22.4630   48.5920 C   0  0  0  0  0  0  0  0  0  0  0  0
   58.1160   25.2700   47.8230 C   0  0  0  0  0  0  0  0  0  0  0  0
   58.1390   26.5350   47.2270 C   0  0  0  0  0  0  0  0  0  0  0  0
   56.9940   28.2460   44.1650 N   0  0  0  0  0  0  0  0  0  0  0  0
   56.8300   29.4990   43.4110 C   0  0  0  0  0  0  0  0  0  0  0  0
   59.4719   32.3787   41.6722 H   0  0  0  0  0  0  0  0  0  0  0  0
   58.4265   31.4636   40.5336 H   0  0  0  0  0  0  0  0  0  0  0  0
   58.3976   33.2597   40.5336 H   0  0  0  0  0  0  0  0  0  0  0  0
   57.0052   33.3686   42.3509 H   0  0  0  0  0  0  0  0  0  0  0  0
   56.5681   31.6948   41.8453 H   0  0  0  0  0  0  0  0  0  0  0  0
   59.4043   31.5892   47.6201 H   0  0  0  0  0  0  0  0  0  0  0  0
   62.4595   35.5712   49.2758 H   0  0  0  0  0  0  0  0  0  0  0  0
   61.4236   34.5358   50.3329 H   0  0  0  0  0  0  0  0  0  0  0  0
   63.9073   34.4080   50.8385 H   0  0  0  0  0  0  0  0  0  0  0  0
   63.1244   32.8277   50.4540 H   0  0  0  0  0  0  0  0  0  0  0  0
   64.5549   32.4521   47.3033 H   0  0  0  0  0  0  0  0  0  0  0  0
   63.4628   31.7950   48.5822 H   0  0  0  0  0  0  0  0  0  0  0  0
   62.9282   34.1594   46.7134 H   0  0  0  0  0  0  0  0  0  0  0  0
   62.0767   32.5700   46.7567 H   0  0  0  0  0  0  0  0  0  0  0  0
   59.8205   35.4398   45.6236 H   0  0  0  0  0  0  0  0  0  0  0  0
   58.7433   34.4886   43.5543 H   0  0  0  0  0  0  0  0  0  0  0  0
   58.8499   29.0825   46.7015 H   0  0  0  0  0  0  0  0  0  0  0  0
   57.1324   29.6092   46.9062 H   0  0  0  0  0  0  0  0  0  0  0  0
   56.2195   25.8693   44.4760 H   0  0  0  0  0  0  0  0  0  0  0  0
   56.2006   23.6159   45.5276 H   0  0  0  0  0  0  0  0  0  0  0  0
   56.5284   22.5752   49.6553 H   0  0  0  0  0  0  0  0  0  0  0  0
   55.3664   23.0498   48.3704 H   0  0  0  0  0  0  0  0  0  0  0  0
   56.0817   21.4021   48.3704 H   0  0  0  0  0  0  0  0  0  0  0  0
   58.6521   25.1013   48.7686 H   0  0  0  0  0  0  0  0  0  0  0  0
   58.6972   27.3528   47.7063 H   0  0  0  0  0  0  0  0  0  0  0  0
   57.1369   29.3341   42.3676 H   0  0  0  0  0  0  0  0  0  0  0  0
   55.7734   29.8013   43.4579 H   0  0  0  0  0  0  0  0  0  0  0  0
  1  2  1  0
  2  3  1  0
  3  4  1  0
  4  5  2  0
  5  6  1  0
  6  7  2  0
  7  8  1  0
  8  9  1  0
  9 10  2  0
  9 11  1  0
 11 12  1  0
 12 13  1  0
 13 14  1  0
 14 15  1  0
 15 16  1  0
  8 17  2  0
 17 18  1  0
 18 19  2  0
  5 20  1  0
 20 21  1  0
 21 22  1  0
 22 23  2  0
 23 24  1  0
 24 25  2  0
 25 26  1  0
 26 27  1  0
 25 28  1  0
 28 29  2  0
 21 30  2  0
 30 31  1  0
 19  3  1  0
 29 22  1  0
 31  4  1  0
 19  6  1  0
 16 11  1  0
  1 32  1  0
  1 33  1  0
  1 34  1  0
  2 35  1  0
  2 36  1  0
  7 37  1  0
 12 38  1  0
 12 39  1  0
 13 40  1  0
 13 41  1  0
 15 42  1  0
 15 43  1  0
 16 44  1  0
 16 45  1  0
 17 46  1  0
 18 47  1  0
 20 48  1  0
 20 49  1  0
 23 50  1  0
 24 51  1  0
 27 52  1  0
 27 53  1  0
 27 54  1  0
 28 55  1  0
 29 56  1  0
 31 57  1  0
 31 58  1  0
M  END
>  <UniqueID>  (3) 
3

>  <SMILES>  (3) 
CCn1c2c(c3cc(C(=O)N4CCOCC4)ccc31)CC(c1ccc(OC)cc1)=NC2

>  <Energy>  (3) 
109.30313242892163

>  <Genealogy>  (3) 
CCn1c2c(c3cc(C(=O)N4CCOCC4)ccc31)CC(c1ccc(OC)cc1)=NC2 (3D coordinates assigned)
CCn1c2c(c3cc(C(=O)N4CCOCC4)ccc31)CC(c1ccc(OC)cc1)=NC2 (nonaromatic ring conformer: 109.30313242892163 kcal/mol)

>  <smiles>  (3) 
CCn1c2c(c3cc(C(=O)N4CCOCC4)ccc31)CC(c1ccc(OC)cc1)=NC2

>  <score_type>  (3) 
oracle

>  <origin>  (3) 
adg

>  <m_score__min__energy>  (3) 
-9.1600000000000001

>  <m_primary>  (3) 
energy

$$$$
3:0
     RDKit          3D

 80 83  0  0  0  0  0  0  0  0999 V2000
   57.7250   33.1040   52.4070 C   0  0  0  0  0  0  0  0  0  0  0  0
   58.9070   33.8180   51.7590 C   0  0  0  0  0  0  0  0  0  0  0  0
   59.9120   32.8240   51.2940 N   0  0  0  0  0  0  0  0  0  0  0  0
   61.2560   33.0890   51.8640 C   0  0  0  0  0  0  0  0  0  0  0  0
   61.8710   31.8420   52.5010 C   0  0  0  0  0  0  0  0  0  0  0  0
   59.4930   31.4270   51.5810 C   0  0  0  0  0  0  0  0  0  0  0  0
   58.9560   30.7350   50.3150 C   0  0  0  0  0  0  0  0  0  0  0  0
   59.9010   30.8200   49.2000 N   0  0  0  0  0  0  0  0  0  0  0  0
   59.4270   30.9010   47.8450 C   0  0  0  0  0  0  0  0  0  0  0  0
   59.0020   29.7150   47.2120 C   0  0  0  0  0  0  0  0  0  0  0  0
   59.1050   28.4660   47.8660 C   0  0  0  0  0  0  0  0  0  0  0  0
   58.6450   27.3000   47.2610 C   0  0  0  0  0  0  0  0  0  0  0  0
   58.0650   27.3530   46.0000 C   0  0  0  0  0  0  0  0  0  0  0  0
   57.3920   25.7580   45.1920 Br  0  0  0  0  0  0  0  0  0  0  0  0
   57.9620   28.5710   45.3300 C   0  0  0  0  0  0  0  0  0  0  0  0
   58.4580   29.7700   45.9060 C   0  0  0  0  0  0  0  0  0  0  0  0
   58.3900   30.9720   45.2370 N   0  0  0  0  0  0  0  0  0  0  0  0
   58.0940   30.9890   43.7850 C   0  0  0  0  0  0  0  0  0  0  0  0
   58.6360   32.1560   45.9050 C   0  0  0  0  0  0  0  0  0  0  0  0
   58.2300   33.3910   45.3520 C   0  0  0  0  0  0  0  0  0  0  0  0
   58.5200   34.5890   45.9790 C   0  0  0  0  0  0  0  0  0  0  0  0
   59.2730   34.6060   47.1400 C   0  0  0  0  0  0  0  0  0  0  0  0
   59.7380   33.4090   47.7280 C   0  0  0  0  0  0  0  0  0  0  0  0
   60.6220   33.4560   48.8820 N   0  0  0  0  0  0  0  0  0  0  0  0
   62.0270   33.8180   48.6040 C   0  0  0  0  0  0  0  0  0  0  0  0
   62.9860   32.6500   48.9130 C   0  0  0  0  0  0  0  0  0  0  0  0
   64.4710   33.0940   48.9930 C   0  0  0  0  0  0  0  0  0  0  0  0
   65.1500   32.8210   50.3010 N   0  0  0  0  0  0  0  0  0  0  0  0
   64.6580   33.8540   51.2560 C   0  0  0  0  0  0  0  0  0  0  0  0
   64.7620   31.4560   50.8210 C   0  0  0  0  0  0  0  0  0  0  0  0
   65.9460   30.6020   51.3070 C   0  0  0  0  0  0  0  0  0  0  0  0
   66.8920   31.4290   52.1780 C   0  0  0  0  0  0  0  0  0  0  0  0
   67.4120   32.6770   51.4440 C   0  0  0  0  0  0  0  0  0  0  0  0
   66.6300   32.9830   50.1500 C   0  0  0  0  0  0  0  0  0  0  0  0
   59.2800   32.1540   47.1800 C   0  0  0  0  0  0  0  0  0  0  0  0
   57.8180   33.1602   53.5016 H   0  0  0  0  0  0  0  0  0  0  0  0
   56.7879   33.5872   52.0933 H   0  0  0  0  0  0  0  0  0  0  0  0
   57.7167   32.0497   52.0933 H   0  0  0  0  0  0  0  0  0  0  0  0
   58.5509   34.4048   50.8994 H   0  0  0  0  0  0  0  0  0  0  0  0
   59.3749   34.4842   52.4987 H   0  0  0  0  0  0  0  0  0  0  0  0
   61.9191   33.4391   51.0592 H   0  0  0  0  0  0  0  0  0  0  0  0
   61.1445   33.8494   52.6510 H   0  0  0  0  0  0  0  0  0  0  0  0
   61.8274   31.9304   53.5966 H   0  0  0  0  0  0  0  0  0  0  0  0
   61.3085   30.9521   52.1823 H   0  0  0  0  0  0  0  0  0  0  0  0
   62.9195   31.7466   52.1823 H   0  0  0  0  0  0  0  0  0  0  0  0
   60.3589   30.8631   51.9581 H   0  0  0  0  0  0  0  0  0  0  0  0
   58.6893   31.4519   52.3316 H   0  0  0  0  0  0  0  0  0  0  0  0
   58.7691   29.6750   50.5420 H   0  0  0  0  0  0  0  0  0  0  0  0
   58.0300   31.2473   50.0150 H   0  0  0  0  0  0  0  0  0  0  0  0
   60.8590   30.4300   49.3260 H   0  0  0  0  0  0  0  0  0  0  0  0
   59.5555   28.4148   48.8682 H   0  0  0  0  0  0  0  0  0  0  0  0
   58.7408   26.3359   47.7818 H   0  0  0  0  0  0  0  0  0  0  0  0
   57.4882   28.6037   44.3378 H   0  0  0  0  0  0  0  0  0  0  0  0
   57.0063   31.0515   43.6332 H   0  0  0  0  0  0  0  0  0  0  0  0
   58.5795   31.8607   43.3220 H   0  0  0  0  0  0  0  0  0  0  0  0
   58.4765   30.0674   43.3220 H   0  0  0  0  0  0  0  0  0  0  0  0
   57.6722   33.3999   44.4040 H   0  0  0  0  0  0  0  0  0  0  0  0
   58.1503   35.5332   45.5527 H   0  0  0  0  0  0  0  0  0  0  0  0
   59.5137   35.5693   47.6135 H   0  0  0  0  0  0  0  0  0  0  0  0
   60.2360   34.1510   49.5580 H   0  0  0  0  0  0  0  0  0  0  0  0
   60.6550   32.5000   49.2920 H   0  0  0  0  0  0  0  0  0  0  0  0
   62.1228   34.0871   47.5417 H   0  0  0  0  0  0  0  0  0  0  0  0
   62.2982   34.6660   49.2501 H   0  0  0  0  0  0  0  0  0  0  0  0
   62.6996   32.2064   49.8780 H   0  0  0  0  0  0  0  0  0  0  0  0
   62.9014   31.9261   48.0891 H   0  0  0  0  0  0  0  0  0  0  0  0
   65.0269   32.5657   48.2044 H   0  0  0  0  0  0  0  0  0  0  0  0
   64.4692   34.1874   48.8728 H   0  0  0  0  0  0  0  0  0  0  0  0
   64.8227   33.5082   52.2871 H   0  0  0  0  0  0  0  0  0  0  0  0
   65.2049   34.7943   51.0929 H   0  0  0  0  0  0  0  0  0  0  0  0
   63.5832   34.0219   51.0929 H   0  0  0  0  0  0  0  0  0  0  0  0
   64.0678   31.5930   51.6632 H   0  0  0  0  0  0  0  0  0  0  0  0
   64.3097   30.9149   49.9768 H   0  0  0  0  0  0  0  0  0  0  0  0
   65.5623   29.7553   51.8951 H   0  0  0  0  0  0  0  0  0  0  0  0
   66.5018   30.2391   50.4299 H   0  0  0  0  0  0  0  0  0  0  0  0
   66.3535   31.7481   53.0825 H   0  0  0  0  0  0  0  0  0  0  0  0
   67.7578   30.7991   52.4304 H   0  0  0  0  0  0  0  0  0  0  0  0
   67.3264   33.5418   52.1184 H   0  0  0  0  0  0  0  0  0  0  0  0
   68.4563   32.4809   51.1595 H   0  0  0  0  0  0  0  0  0  0  0  0
   66.8391   34.0212   49.8528 H   0  0  0  0  0  0  0  0  0  0  0  0
   66.9613   32.2599   49.3902 H   0  0  0  0  0  0  0  0  0  0  0  0
  1  2  1  0
  2  3  1  0
  3  4  1  0
  4  5  1  0
  3  6  1  0
  6  7  1  0
  7  8  1  0
  8  9  1  0
  9 10  2  0
 10 11  1  0
 11 12  2  0
 12 13  1  0
 13 14  1  0
 13 15  2  0
 15 16  1  0
 16 17  2  0
 17 18  1  0
 17 19  1  0
 19 20  2  0
 20 21  1  0
 21 22  2  0
 22 23  1  0
 23 24  1  0
 24 25  1  0
 25 26  1  0
 26 27  1  0
 27 28  1  0
 28 29  1  0
 28 30  1  0
 30 31  1  0
 31 32  1  0
 32 33  1  0
 33 34  1  0
 23 35  2  0
 35  9  1  0
 16 10  1  0
 35 19  1  0
 34 28  1  0
  1 36  1  0
  1 37  1  0
  1 38  1  0
  2 39  1  0
  2 40  1  0
  4 41  1  0
  4 42  1  0
  5 43  1  0
  5 44  1  0
  5 45  1  0
  6 46  1  0
  6 47  1  0
  7 48  1  0
  7 49  1  0
  8 50  1  0
 11 51  1  0
 12 52  1  0
 15 53  1  0
 18 54  1  0
 18 55  1  0
 18 56  1  0
 20 57  1  0
 21 58  1  0
 22 59  1  0
 24 60  1  0
 24 61  1  0
 25 62  1  0
 25 63  1  0
 26 64  1  0
 26 65  1  0
 27 66  1  0
 27 67  1  0
 29 68  1  0
 29 69  1  0
 29 70  1  0
 30 71  1  0
 30 72  1  0
 31 73  1  0
 31 74  1  0
 32 75  1  0
 32 76  1  0
 33 77  1  0
 33 78  1  0
 34 79  1  0
 34 80  1  0
M  CHG  3  17   1  24   1  28   1
M  END
>  <UniqueID>  (4) 
4

>  <SMILES>  (4) 
CCN(CC)CCNc1c2ccc(Br)cc2[n+](C)c2cccc([NH2+]CCC[N+]3(C)CCCCC3)c12

>  <Energy>  (4) 
138.3566438345829

>  <Genealogy>  (4) 
CCN(CC)CCNc1c2ccc(Br)cc2[n+](C)c2cccc([NH2+]CCC[N+]3(C)CCCCC3)c12 (protonated)
CCN(CC)CCNc1c2ccc(Br)cc2[n+](C)c2cccc([NH2+]CCC[N+]3(C)CCCCC3)c12 (3D coordinates assigned)
CCN(CC)CCNc1c2ccc(Br)cc2[n+](C)c2cccc([NH2+]CCC[N+]3(C)CCCCC3)c12 (nonaromatic ring conformer: 138.3566438345829 kcal/mol)

>  <smiles>  (4) 
CCN(CC)CCNc1c2ccc(Br)cc2[n+](C)c2cccc(NCCC[N+]3(C)CCCCC3)c12

>  <score_type>  (4) 
oracle

>  <origin>  (4) 
adg

>  <m_score__min__energy>  (4) 
-4.1100000000000003

>  <m_primary>  (4) 
energy

$$$$
4:0
     RDKit          3D

 43 43  0  0  0  0  0  0  0  0999 V2000
   59.4080   28.6100   44.5460 C   0  0  0  0  0  0  0  0  0  0  0  0
   57.8910   28.4170   44.6300 C   0  0  0  0  0  0  0  0  0  0  0  0
   57.2130   28.7120   43.3550 N   0  0  0  0  0  0  0  0  0  0  0  0
   56.1490   29.7190   43.5070 C   0  0  0  0  0  0  0  0  0  0  0  0
   56.3060   30.4320   44.7850 N   0  0  0  0  0  0  0  0  0  0  0  0
   56.9570   31.7490   44.6320 C   0  0  0  0  0  0  0  0  0  0  0  0
   58.0640   32.0030   45.6760 C   0  0  0  0  0  0  0  0  0  0  0  0
   57.7170   33.0840   46.7160 C   0  0  0  0  0  0  0  0  0  0  0  0
   58.5440   32.9970   48.0060 C   0  0  0  0  0  0  0  0  0  0  0  0
   59.2680   34.2700   48.2390 N   0  0  0  0  0  0  0  0  0  0  0  0
   59.6600   34.9500   46.9870 C   0  0  0  0  0  0  0  0  0  0  0  0
   60.7600   34.1870   46.2200 C   0  0  0  0  0  0  0  0  0  0  0  0
   61.6590   33.3480   47.1430 C   0  0  0  0  0  0  0  0  0  0  0  0
   61.7770   33.9840   48.5270 C   0  0  0  0  0  0  0  0  0  0  0  0
   60.3960   34.1550   49.1990 C   0  0  0  0  0  0  0  0  0  0  0  0
   59.8276   28.6634   45.5614 H   0  0  0  0  0  0  0  0  0  0  0  0
   59.8563   27.7617   44.0081 H   0  0  0  0  0  0  0  0  0  0  0  0
   59.6296   29.5436   44.0081 H   0  0  0  0  0  0  0  0  0  0  0  0
   57.6830   27.3729   44.9068 H   0  0  0  0  0  0  0  0  0  0  0  0
   57.5059   29.1196   45.3837 H   0  0  0  0  0  0  0  0  0  0  0  0
   57.9080   29.0400   42.6460 H   0  0  0  0  0  0  0  0  0  0  0  0
   56.7920   27.8200   43.0050 H   0  0  0  0  0  0  0  0  0  0  0  0
   56.2094   30.4400   42.6784 H   0  0  0  0  0  0  0  0  0  0  0  0
   55.1715   29.2146   43.4939 H   0  0  0  0  0  0  0  0  0  0  0  0
   55.3690   30.5290   45.2410 H   0  0  0  0  0  0  0  0  0  0  0  0
   57.4035   31.8041   43.6282 H   0  0  0  0  0  0  0  0  0  0  0  0
   56.1832   32.5163   44.7819 H   0  0  0  0  0  0  0  0  0  0  0  0
   58.2572   31.0607   46.2097 H   0  0  0  0  0  0  0  0  0  0  0  0
   58.9417   32.3681   45.1225 H   0  0  0  0  0  0  0  0  0  0  0  0
   57.8893   34.0703   46.2605 H   0  0  0  0  0  0  0  0  0  0  0  0
   56.6661   32.9267   47.0003 H   0  0  0  0  0  0  0  0  0  0  0  0
   57.8727   32.8005   48.8550 H   0  0  0  0  0  0  0  0  0  0  0  0
   59.2757   32.1815   47.9081 H   0  0  0  0  0  0  0  0  0  0  0  0
   58.7744   35.0367   46.3404 H   0  0  0  0  0  0  0  0  0  0  0  0
   60.0631   35.9378   47.2551 H   0  0  0  0  0  0  0  0  0  0  0  0
   60.2799   33.5159   45.4925 H   0  0  0  0  0  0  0  0  0  0  0  0
   61.3986   34.9347   45.7269 H   0  0  0  0  0  0  0  0  0  0  0  0
   61.2272   32.3416   47.2463 H   0  0  0  0  0  0  0  0  0  0  0  0
   62.6632   33.2955   46.6972 H   0  0  0  0  0  0  0  0  0  0  0  0
   62.4049   33.3416   49.1618 H   0  0  0  0  0  0  0  0  0  0  0  0
   62.2255   34.9814   48.4081 H   0  0  0  0  0  0  0  0  0  0  0  0
   60.2143   33.2823   49.8435 H   0  0  0  0  0  0  0  0  0  0  0  0
   60.4311   35.0982   49.7639 H   0  0  0  0  0  0  0  0  0  0  0  0
  1  2  1  0
  2  3  1  0
  3  4  1  0
  4  5  1  0
  5  6  1  0
  6  7  1  0
  7  8  1  0
  8  9  1  0
  9 10  1  0
 10 11  1  0
 11 12  1  0
 12 13  1  0
 13 14  1  0
 14 15  1  0
 15 10  1  0
  1 16  1  0
  1 17  1  0
  1 18  1  0
  2 19  1  0
  2 20  1  0
  3 21  1  0
  3 22  1  0
  4 23  1  0
  4 24  1  0
  5 25  1  0
  6 26  1  0
  6 27  1  0
  7 28  1  0
  7 29  1  0
  8 30  1  0
  8 31  1  0
  9 32  1  0
  9 33  1  0
 11 34  1  0
 11 35  1  0
 12 36  1  0
 12 37  1  0
 13 38  1  0
 13 39  1  0
 14 40  1  0
 14 41  1  0
 15 42  1  0
 15 43  1  0
M  CHG  1   3   1
M  END
>  <UniqueID>  (5) 
5

>  <SMILES>  (5) 
CC[NH2+]CNCCCCN1CCCCC1

>  <Energy>  (5) 
44.84674027389046

>  <Genealogy>  (5) 
CC[NH2+]CNCCCCN1CCCCC1 (protonated)
CC[NH2+]CNCCCCN1CCCCC1 (3D coordinates assigned)
CC[NH2+]CNCCCCN1CCCCC1 (nonaromatic ring conformer: 44.84674027389046 kcal/mol)

>  <smiles>  (5) 
CCNCNCCCCN1CCCCC1

>  <score_type>  (5) 
oracle

>  <origin>  (5) 
adg

>  <m_score__min__energy>  (5) 
-4.6900000000000004

>  <m_primary>  (5) 
energy

$$$$
5:0
     RDKit          3D

 33 34  0  0  0  0  0  0  0  0999 V2000
   56.2160   29.9080   43.7560 C   0  0  0  0  0  0  0  0  0  0  0  0
   57.1400   31.1110   43.8640 C   0  0  0  0  0  0  0  0  0  0  0  0
   56.6860   31.9650   44.9080 O   0  0  0  0  0  0  0  0  0  0  0  0
   57.3960   33.0930   45.3240 C   0  0  0  0  0  0  0  0  0  0  0  0
   57.8020   33.9440   44.4850 O   0  0  0  0  0  0  0  0  0  0  0  0
   57.7340   33.2550   46.7760 C   0  0  0  0  0  0  0  0  0  0  0  0
   59.1560   32.9830   47.0340 N   0  0  0  0  0  0  0  0  0  0  0  0
   59.4560   31.5900   46.8430 C   0  0  0  0  0  0  0  0  0  0  0  0
   58.5670   30.6740   46.5520 O   0  0  0  0  0  0  0  0  0  0  0  0
   59.2280   29.5440   46.4170 C   0  0  0  0  0  0  0  0  0  0  0  0
   58.5910   28.2670   46.0850 C   0  0  0  0  0  0  0  0  0  0  0  0
   59.0800   27.3270   45.1980 C   0  0  0  0  0  0  0  0  0  0  0  0
   58.1650   26.2930   45.2010 C   0  0  0  0  0  0  0  0  0  0  0  0
   57.1820   26.6790   46.0920 C   0  0  0  0  0  0  0  0  0  0  0  0
   56.0160   25.9220   46.4260 N   0  0  0  0  0  0  0  0  0  0  0  0
   56.1070   24.8940   47.1270 O   0  0  0  0  0  0  0  0  0  0  0  0
   54.7840   26.3280   45.9740 O   0  0  0  0  0  0  0  0  0  0  0  0
   57.4570   27.8560   46.6050 O   0  0  0  0  0  0  0  0  0  0  0  0
   60.5600   29.6790   46.6100 N   0  0  0  0  0  0  0  0  0  0  0  0
   60.6960   30.9900   46.8820 C   0  0  0  0  0  0  0  0  0  0  0  0
   61.9570   31.6310   47.1390 C   0  0  0  0  0  0  0  0  0  0  0  0
   62.9710   32.1480   47.3470 N   0  0  0  0  0  0  0  0  0  0  0  0
   55.9484   29.5595   44.7644 H   0  0  0  0  0  0  0  0  0  0  0  0
   55.3034   30.1942   43.2127 H   0  0  0  0  0  0  0  0  0  0  0  0
   56.7279   29.1001   43.2127 H   0  0  0  0  0  0  0  0  0  0  0  0
   58.1616   30.7699   44.0873 H   0  0  0  0  0  0  0  0  0  0  0  0
   57.1376   31.6621   42.9120 H   0  0  0  0  0  0  0  0  0  0  0  0
   57.5064   34.2866   47.0826 H   0  0  0  0  0  0  0  0  0  0  0  0
   57.1356   32.5333   47.3513 H   0  0  0  0  0  0  0  0  0  0  0  0
   59.7580   33.5770   46.4170 H   0  0  0  0  0  0  0  0  0  0  0  0
   59.3680   33.2270   48.0290 H   0  0  0  0  0  0  0  0  0  0  0  0
   60.0077   27.3896   44.6102 H   0  0  0  0  0  0  0  0  0  0  0  0
   58.2092   25.3610   44.6185 H   0  0  0  0  0  0  0  0  0  0  0  0
  1  2  1  0
  2  3  1  0
  3  4  1  0
  4  5  2  0
  4  6  1  0
  6  7  1  0
  7  8  1  0
  8  9  1  0
  9 10  1  0
 10 11  1  0
 11 12  2  0
 12 13  1  0
 13 14  2  0
 14 15  1  0
 15 16  2  0
 15 17  1  0
 14 18  1  0
 10 19  2  0
 19 20  1  0
 20 21  1  0
 21 22  3  0
 20  8  2  0
 18 11  1  0
  1 23  1  0
  1 24  1  0
  1 25  1  0
  2 26  1  0
  2 27  1  0
  6 28  1  0
  6 29  1  0
  7 30  1  0
  7 31  1  0
 12 32  1  0
 13 33  1  0
M  CHG  3   7   1  15   1  17  -1
M  END
>  <UniqueID>  (6) 
6

>  <SMILES>  (6) 
CCOC(=O)C[NH2+]c1oc(-c2ccc([N+](=O)[O-])o2)nc1C#N

>  <Energy>  (6) 
80.91243589062971

>  <Genealogy>  (6) 
CCOC(=O)C[NH2+]c1oc(-c2ccc([N+](=O)[O-])o2)nc1C#N (protonated)
CCOC(=O)C[NH2+]c1oc(-c2ccc([N+](=O)[O-])o2)nc1C#N (3D coordinates assigned)
CCOC(=O)C[NH2+]c1oc(-c2ccc([N+](=O)[O-])o2)nc1C#N (optimized conformer: 80.91243589062971 kcal/mol)

>  <smiles>  (6) 
CCOC(=O)CNc1oc(-c2ccc([N+](=O)[O-])o2)nc1C#N

>  <score_type>  (6) 
oracle

>  <origin>  (6) 
adg

>  <m_score__min__energy>  (6) 
-5.2800000000000002

>  <m_primary>  (6) 
energy

$$$$
6:0
     RDKit          3D

 56 59  0  0  0  0  0  0  0  0999 V2000
   59.7190   33.9600   49.8320 C   0  0  0  0  0  0  0  0  0  0  0  0
   60.5020   33.2780   48.8070 N   0  0  0  0  0  0  0  0  0  0  0  0
   61.5520   33.7900   48.1240 C   0  0  0  0  0  0  0  0  0  0  0  0
   62.0500   32.8530   47.2230 C   0  0  0  0  0  0  0  0  0  0  0  0
   61.2560   31.7370   47.3830 C   0  0  0  0  0  0  0  0  0  0  0  0
   61.2980   30.5010   46.7430 C   0  0  0  0  0  0  0  0  0  0  0  0
   60.3590   29.5180   47.1300 C   0  0  0  0  0  0  0  0  0  0  0  0
   60.3680   28.1530   46.4770 C   0  0  0  0  0  0  0  0  0  0  0  0
   59.8660   28.1880   45.0820 N   0  0  0  0  0  0  0  0  0  0  0  0
   58.5750   27.4820   44.8850 C   0  0  0  0  0  0  0  0  0  0  0  0
   58.1790   27.4740   43.3810 C   0  0  0  0  0  0  0  0  0  0  0  0
   57.2350   28.6310   42.9910 C   0  0  0  0  0  0  0  0  0  0  0  0
   57.4510   29.7910   43.8750 N   0  0  0  0  0  0  0  0  0  0  0  0
   56.9550   31.0840   43.3490 C   0  0  0  0  0  0  0  0  0  0  0  0
   58.0150   32.2010   43.2000 C   0  0  0  0  0  0  0  0  0  0  0  0
   58.1830   33.0370   44.4420 C   0  0  0  0  0  0  0  0  0  0  0  0
   57.3950   32.7920   45.5800 C   0  0  0  0  0  0  0  0  0  0  0  0
   57.5710   33.5560   46.7370 C   0  0  0  0  0  0  0  0  0  0  0  0
   58.5280   34.5750   46.7660 C   0  0  0  0  0  0  0  0  0  0  0  0
   59.3070   34.8330   45.6350 C   0  0  0  0  0  0  0  0  0  0  0  0
   59.1350   34.0710   44.4760 C   0  0  0  0  0  0  0  0  0  0  0  0
   57.0930   29.5330   45.2860 C   0  0  0  0  0  0  0  0  0  0  0  0
   57.4210   28.0880   45.7140 C   0  0  0  0  0  0  0  0  0  0  0  0
   59.3790   29.8320   48.1090 C   0  0  0  0  0  0  0  0  0  0  0  0
   59.3650   31.0900   48.7340 C   0  0  0  0  0  0  0  0  0  0  0  0
   60.3270   32.0230   48.3480 C   0  0  0  0  0  0  0  0  0  0  0  0
   60.0716   33.6529   50.8277 H   0  0  0  0  0  0  0  0  0  0  0  0
   59.8374   35.0479   49.7206 H   0  0  0  0  0  0  0  0  0  0  0  0
   58.6576   33.6934   49.7206 H   0  0  0  0  0  0  0  0  0  0  0  0
   61.9553   34.8041   48.2615 H   0  0  0  0  0  0  0  0  0  0  0  0
   62.8962   32.9765   46.5311 H   0  0  0  0  0  0  0  0  0  0  0  0
   62.0410   30.2954   45.9584 H   0  0  0  0  0  0  0  0  0  0  0  0
   61.3997   27.7714   46.4713 H   0  0  0  0  0  0  0  0  0  0  0  0
   59.6989   27.5004   47.0570 H   0  0  0  0  0  0  0  0  0  0  0  0
   59.8090   29.1660   44.7190 H   0  0  0  0  0  0  0  0  0  0  0  0
   60.5830   27.7020   44.4940 H   0  0  0  0  0  0  0  0  0  0  0  0
   58.7325   26.4529   45.2401 H   0  0  0  0  0  0  0  0  0  0  0  0
   59.0958   27.5534   42.7784 H   0  0  0  0  0  0  0  0  0  0  0  0
   57.6381   26.5350   43.1920 H   0  0  0  0  0  0  0  0  0  0  0  0
   57.4344   28.9263   41.9503 H   0  0  0  0  0  0  0  0  0  0  0  0
   56.1936   28.2923   43.0950 H   0  0  0  0  0  0  0  0  0  0  0  0
   56.5175   30.8993   42.3568 H   0  0  0  0  0  0  0  0  0  0  0  0
   56.2345   31.4531   44.0938 H   0  0  0  0  0  0  0  0  0  0  0  0
   58.9819   31.7343   42.9606 H   0  0  0  0  0  0  0  0  0  0  0  0
   57.6681   32.8729   42.4012 H   0  0  0  0  0  0  0  0  0  0  0  0
   56.6366   31.9955   45.5598 H   0  0  0  0  0  0  0  0  0  0  0  0
   56.9556   33.3553   47.6264 H   0  0  0  0  0  0  0  0  0  0  0  0
   58.6676   35.1732   47.6785 H   0  0  0  0  0  0  0  0  0  0  0  0
   60.0570   35.6373   45.6569 H   0  0  0  0  0  0  0  0  0  0  0  0
   59.7471   34.2812   43.5866 H   0  0  0  0  0  0  0  0  0  0  0  0
   57.6543   30.2287   45.9271 H   0  0  0  0  0  0  0  0  0  0  0  0
   56.0079   29.6791   45.3918 H   0  0  0  0  0  0  0  0  0  0  0  0
   57.7101   28.0898   46.7753 H   0  0  0  0  0  0  0  0  0  0  0  0
   56.5244   27.4737   45.5445 H   0  0  0  0  0  0  0  0  0  0  0  0
   58.6222   29.0814   48.3809 H   0  0  0  0  0  0  0  0  0  0  0  0
   58.6180   31.3318   49.5044 H   0  0  0  0  0  0  0  0  0  0  0  0
  1  2  1  0
  2  3  1  0
  3  4  2  0
  4  5  1  0
  5  6  2  0
  6  7  1  0
  7  8  1  0
  8  9  1  0
  9 10  1  0
 10 11  1  0
 11 12  1  0
 12 13  1  0
 13 14  1  0
 14 15  1  0
 15 16  1  0
 16 17  2  0
 17 18  1  0
 18 19  2  0
 19 20  1  0
 20 21  2  0
 13 22  1  0
 22 23  1  0
  7 24  2  0
 24 25  1  0
 25 26  2  0
 26  2  1  0
 26  5  1  0
 23 10  1  0
 21 16  1  0
  1 27  1  0
  1 28  1  0
  1 29  1  0
  3 30  1  0
  4 31  1  0
  6 32  1  0
  8 33  1  0
  8 34  1  0
  9 35  1  0
  9 36  1  0
 10 37  1  0
 11 38  1  0
 11 39  1  0
 12 40  1  0
 12 41  1  0
 14 42  1  0
 14 43  1  0
 15 44  1  0
 15 45  1  0
 17 46  1  0
 18 47  1  0
 19 48  1  0
 20 49  1  0
 21 50  1  0
 22 51  1  0
 22 52  1  0
 23 53  1  0
 23 54  1  0
 24 55  1  0
 25 56  1  0
M  CHG  1   9   1
M  END
>  <UniqueID>  (7) 
7

>  <SMILES>  (7) 
Cn1ccc2cc(C[NH2+]C3CCN(CCc4ccccc4)CC3)ccc21

>  <Energy>  (7) 
104.22390714013268

>  <Genealogy>  (7) 
Cn1ccc2cc(C[NH2+]C3CCN(CCc4ccccc4)CC3)ccc21 (protonated)
Cn1ccc2cc(C[NH2+]C3CCN(CCc4ccccc4)CC3)ccc21 (3D coordinates assigned)
Cn1ccc2cc(C[NH2+]C3CCN(CCc4ccccc4)CC3)ccc21 (nonaromatic ring conformer: 104.22390714013268 kcal/mol)

>  <smiles>  (7) 
Cn1ccc2cc(CNC3CCN(CCc4ccccc4)CC3)ccc21

>  <score_type>  (7) 
oracle

>  <origin>  (7) 
adg

>  <m_score__min__energy>  (7) 
-6.7300000000000004

>  <m_primary>  (7) 
energy

$$$$
7:0
     RDKit          3D

 42 44  0  0  0  0  0  0  0  0999 V2000
   55.5230   29.7920   43.7430 C   0  0  0  0  0  0  0  0  0  0  0  0
   56.8650   30.3960   43.3460 C   0  0  0  0  0  0  0  0  0  0  0  0
   57.7500   30.4880   44.5120 N   0  0  0  0  0  0  0  0  0  0  0  0
   58.3090   29.4880   45.2380 C   0  0  0  0  0  0  0  0  0  0  0  0
   57.9940   28.0540   45.1160 C   0  0  0  0  0  0  0  0  0  0  0  0
   58.1680   27.3080   43.9400 C   0  0  0  0  0  0  0  0  0  0  0  0
   57.7620   25.9860   44.0550 C   0  0  0  0  0  0  0  0  0  0  0  0
   57.1660   25.7580   45.6090 S   0  0  0  0  0  0  0  0  0  0  0  0
   57.4190   27.3280   46.1520 C   0  0  0  0  0  0  0  0  0  0  0  0
   59.2690   29.9530   46.0650 N   0  0  0  0  0  0  0  0  0  0  0  0
   59.3220   31.2600   45.8740 N   0  0  0  0  0  0  0  0  0  0  0  0
   58.4190   31.5810   44.9340 C   0  0  0  0  0  0  0  0  0  0  0  0
   58.2160   33.2400   44.2750 S   0  0  0  0  0  0  0  0  0  0  0  0
   57.4830   33.9280   45.8030 C   0  0  0  0  0  0  0  0  0  0  0  0
   58.5310   34.5880   46.7100 C   0  0  0  0  0  0  0  0  0  0  0  0
   59.6780   33.6900   46.9680 N   0  0  0  0  0  0  0  0  0  0  0  0
   59.8630   33.4970   48.4170 C   0  0  0  0  0  0  0  0  0  0  0  0
   61.0260   32.5160   48.6800 C   0  0  0  0  0  0  0  0  0  0  0  0
   61.7850   32.2490   47.5130 O   0  0  0  0  0  0  0  0  0  0  0  0
   62.1610   33.4660   46.9010 C   0  0  0  0  0  0  0  0  0  0  0  0
   60.9240   34.2090   46.3600 C   0  0  0  0  0  0  0  0  0  0  0  0
   55.4465   29.7576   44.8398 H   0  0  0  0  0  0  0  0  0  0  0  0
   54.7084   30.4103   43.3379 H   0  0  0  0  0  0  0  0  0  0  0  0
   55.4456   28.7723   43.3379 H   0  0  0  0  0  0  0  0  0  0  0  0
   57.3368   29.7602   42.5823 H   0  0  0  0  0  0  0  0  0  0  0  0
   56.6966   31.4066   42.9456 H   0  0  0  0  0  0  0  0  0  0  0  0
   58.5865   27.7311   43.0149 H   0  0  0  0  0  0  0  0  0  0  0  0
   57.8202   25.2212   43.2665 H   0  0  0  0  0  0  0  0  0  0  0  0
   57.1726   27.7135   47.1523 H   0  0  0  0  0  0  0  0  0  0  0  0
   59.9830   31.9070   46.3580 H   0  0  0  0  0  0  0  0  0  0  0  0
   56.7312   34.6816   45.5257 H   0  0  0  0  0  0  0  0  0  0  0  0
   57.0322   33.0953   46.3628 H   0  0  0  0  0  0  0  0  0  0  0  0
   58.8980   35.5033   46.2226 H   0  0  0  0  0  0  0  0  0  0  0  0
   58.0531   34.8177   47.6738 H   0  0  0  0  0  0  0  0  0  0  0  0
   60.0912   34.4653   48.8863 H   0  0  0  0  0  0  0  0  0  0  0  0
   58.9388   33.0810   48.8446 H   0  0  0  0  0  0  0  0  0  0  0  0
   61.6902   32.9520   49.4408 H   0  0  0  0  0  0  0  0  0  0  0  0
   60.5907   31.5650   49.0206 H   0  0  0  0  0  0  0  0  0  0  0  0
   62.6682   34.1012   47.6421 H   0  0  0  0  0  0  0  0  0  0  0  0
   62.8363   33.2455   46.0611 H   0  0  0  0  0  0  0  0  0  0  0  0
   61.0181   35.2797   46.5938 H   0  0  0  0  0  0  0  0  0  0  0  0
   60.8720   34.0520   45.2725 H   0  0  0  0  0  0  0  0  0  0  0  0
  1  2  1  0
  2  3  1  0
  3  4  1  0
  4  5  1  0
  5  6  1  0
  6  7  2  0
  7  8  1  0
  8  9  1  0
  4 10  2  0
 10 11  1  0
 11 12  2  0
 12 13  1  0
 13 14  1  0
 14 15  1  0
 15 16  1  0
 16 17  1  0
 17 18  1  0
 18 19  1  0
 19 20  1  0
 20 21  1  0
 12  3  1  0
 21 16  1  0
  9  5  2  0
  1 22  1  0
  1 23  1  0
  1 24  1  0
  2 25  1  0
  2 26  1  0
  6 27  1  0
  7 28  1  0
  9 29  1  0
 11 30  1  0
 14 31  1  0
 14 32  1  0
 15 33  1  0
 15 34  1  0
 17 35  1  0
 17 36  1  0
 18 37  1  0
 18 38  1  0
 20 39  1  0
 20 40  1  0
 21 41  1  0
 21 42  1  0
M  CHG  1  11   1
M  END
>  <UniqueID>  (8) 
8

>  <SMILES>  (8) 
CCn1c(-c2ccsc2)n[nH+]c1SCCN1CCOCC1

>  <Energy>  (8) 
109.00841565765813

>  <Genealogy>  (8) 
CCn1c(-c2ccsc2)n[nH+]c1SCCN1CCOCC1 (protonated)
CCn1c(-c2ccsc2)n[nH+]c1SCCN1CCOCC1 (3D coordinates assigned)
CCn1c(-c2ccsc2)n[nH+]c1SCCN1CCOCC1 (nonaromatic ring conformer: 109.00841565765813 kcal/mol)

>  <smiles>  (8) 
CCn1c(SCCN2CCOCC2)nnc1-c1ccsc1

>  <score_type>  (8) 
oracle

>  <origin>  (8) 
adg

>  <m_score__min__energy>  (8) 
-6.4400000000000004

>  <m_primary>  (8) 
energy

$$$$
8:0
     RDKit          3D

 53 55  0  0  0  0  0  0  0  0999 V2000
   58.8780   33.9470   52.3070 C   0  0  0  0  0  0  0  0  0  0  0  0
   59.4500   33.4140   50.9960 C   0  0  0  0  0  0  0  0  0  0  0  0
   58.7220   32.2770   50.5740 O   0  0  0  0  0  0  0  0  0  0  0  0
   57.5130   32.1620   51.3030 C   0  0  0  0  0  0  0  0  0  0  0  0
   57.2540   30.6880   51.6160 C   0  0  0  0  0  0  0  0  0  0  0  0
   58.1470   29.8640   50.8890 O   0  0  0  0  0  0  0  0  0  0  0  0
   59.1440   29.3280   51.7380 C   0  0  0  0  0  0  0  0  0  0  0  0
   60.5160   29.5940   51.1170 C   0  0  0  0  0  0  0  0  0  0  0  0
   60.3810   30.2800   49.8260 N   0  0  0  0  0  0  0  0  0  0  0  0
   61.5600   31.0570   49.5590 C   0  0  0  0  0  0  0  0  0  0  0  0
   62.7050   30.8820   50.1680 O   0  0  0  0  0  0  0  0  0  0  0  0
   63.5080   31.8370   49.7450 C   0  0  0  0  0  0  0  0  0  0  0  0
   64.8990   32.0050   50.2130 C   0  0  0  0  0  0  0  0  0  0  0  0
   65.4690   31.0870   51.1120 C   0  0  0  0  0  0  0  0  0  0  0  0
   66.7940   31.2420   51.5330 C   0  0  0  0  0  0  0  0  0  0  0  0
   67.5590   32.3120   51.0640 C   0  0  0  0  0  0  0  0  0  0  0  0
   67.0000   33.2320   50.1740 C   0  0  0  0  0  0  0  0  0  0  0  0
   65.6760   33.0820   49.7500 C   0  0  0  0  0  0  0  0  0  0  0  0
   62.9130   32.6660   48.8560 N   0  0  0  0  0  0  0  0  0  0  0  0
   61.6740   32.1560   48.7260 C   0  0  0  0  0  0  0  0  0  0  0  0
   60.6070   32.8020   47.9360 C   0  0  0  0  0  0  0  0  0  0  0  0
   60.6840   34.1890   47.7420 C   0  0  0  0  0  0  0  0  0  0  0  0
   59.6660   34.8690   47.0730 C   0  0  0  0  0  0  0  0  0  0  0  0
   58.5520   34.1740   46.6040 C   0  0  0  0  0  0  0  0  0  0  0  0
   58.4780   32.7890   46.7560 C   0  0  0  0  0  0  0  0  0  0  0  0
   59.5140   32.0790   47.3930 C   0  0  0  0  0  0  0  0  0  0  0  0
   59.4620   30.6400   47.4320 N   0  0  0  0  0  0  0  0  0  0  0  0
   60.3730   29.9640   46.9140 O   0  0  0  0  0  0  0  0  0  0  0  0
   58.4760   29.9920   48.1400 O   0  0  0  0  0  0  0  0  0  0  0  0
   59.3923   33.4678   53.1531 H   0  0  0  0  0  0  0  0  0  0  0  0
   59.0271   35.0357   52.3563 H   0  0  0  0  0  0  0  0  0  0  0  0
   57.8025   33.7216   52.3563 H   0  0  0  0  0  0  0  0  0  0  0  0
   59.3824   34.1958   50.2252 H   0  0  0  0  0  0  0  0  0  0  0  0
   60.5015   33.1307   51.1511 H   0  0  0  0  0  0  0  0  0  0  0  0
   57.5941   32.7290   52.2421 H   0  0  0  0  0  0  0  0  0  0  0  0
   56.6815   32.5652   50.7063 H   0  0  0  0  0  0  0  0  0  0  0  0
   57.3973   30.5157   52.6929 H   0  0  0  0  0  0  0  0  0  0  0  0
   56.2226   30.4380   51.3268 H   0  0  0  0  0  0  0  0  0  0  0  0
   59.0859   29.8087   52.7257 H   0  0  0  0  0  0  0  0  0  0  0  0
   58.9912   28.2451   51.8563 H   0  0  0  0  0  0  0  0  0  0  0  0
   61.1048   30.2239   51.8000 H   0  0  0  0  0  0  0  0  0  0  0  0
   61.0209   28.6306   50.9527 H   0  0  0  0  0  0  0  0  0  0  0  0
   60.2670   29.5730   49.0620 H   0  0  0  0  0  0  0  0  0  0  0  0
   59.5410   30.9000   49.8340 H   0  0  0  0  0  0  0  0  0  0  0  0
   64.8706   30.2432   51.4860 H   0  0  0  0  0  0  0  0  0  0  0  0
   67.2345   30.5191   52.2354 H   0  0  0  0  0  0  0  0  0  0  0  0
   68.6012   32.4303   51.3953 H   0  0  0  0  0  0  0  0  0  0  0  0
   67.6022   34.0758   49.8061 H   0  0  0  0  0  0  0  0  0  0  0  0
   65.2398   33.8103   49.0505 H   0  0  0  0  0  0  0  0  0  0  0  0
   61.5543   34.7452   48.1205 H   0  0  0  0  0  0  0  0  0  0  0  0
   59.7423   35.9550   46.9153 H   0  0  0  0  0  0  0  0  0  0  0  0
   57.7310   34.7179   46.1139 H   0  0  0  0  0  0  0  0  0  0  0  0
   57.6010   32.2458   46.3741 H   0  0  0  0  0  0  0  0  0  0  0  0
  1  2  1  0
  2  3  1  0
  3  4  1  0
  4  5  1  0
  5  6  1  0
  6  7  1  0
  7  8  1  0
  8  9  1  0
  9 10  1  0
 10 11  1  0
 11 12  1  0
 12 13  1  0
 13 14  2  0
 14 15  1  0
 15 16  2  0
 16 17  1  0
 17 18  2  0
 12 19  2  0
 19 20  1  0
 20 21  1  0
 21 22  2  0
 22 23  1  0
 23 24  2  0
 24 25  1  0
 25 26  2  0
 26 27  1  0
 27 28  2  0
 27 29  1  0
 20 10  2  0
 26 21  1  0
 18 13  1  0
  1 30  1  0
  1 31  1  0
  1 32  1  0
  2 33  1  0
  2 34  1  0
  4 35  1  0
  4 36  1  0
  5 37  1  0
  5 38  1  0
  7 39  1  0
  7 40  1  0
  8 41  1  0
  8 42  1  0
  9 43  1  0
  9 44  1  0
 14 45  1  0
 15 46  1  0
 16 47  1  0
 17 48  1  0
 18 49  1  0
 22 50  1  0
 23 51  1  0
 24 52  1  0
 25 53  1  0
M  CHG  3   9   1  27   1  29  -1
M  END
>  <UniqueID>  (9) 
9

>  <SMILES>  (9) 
CCOCCOCC[NH2+]c1oc(-c2ccccc2)nc1-c1ccccc1[N+](=O)[O-]

>  <Energy>  (9) 
91.26767120208

>  <Genealogy>  (9) 
CCOCCOCC[NH2+]c1oc(-c2ccccc2)nc1-c1ccccc1[N+](=O)[O-] (protonated)
CCOCCOCC[NH2+]c1oc(-c2ccccc2)nc1-c1ccccc1[N+](=O)[O-] (3D coordinates assigned)
CCOCCOCC[NH2+]c1oc(-c2ccccc2)nc1-c1ccccc1[N+](=O)[O-] (optimized conformer: 91.26767120208 kcal/mol)

>  <smiles>  (9) 
CCOCCOCCNc1oc(-c2ccccc2)nc1-c1ccccc1[N+](=O)[O-]

>  <score_type>  (9) 
oracle

>  <origin>  (9) 
adg

>  <m_score__min__energy>  (9) 
-5.54

>  <m_primary>  (9) 
energy

$$$$
9:0
     RDKit          3D

 58 61  0  0  0  0  0  0  0  0999 V2000
   60.4090   33.4780   52.2640 C   0  0  0  0  0  0  0  0  0  0  0  0
   59.6810   33.7000   50.9430 C   0  0  0  0  0  0  0  0  0  0  0  0
   58.5890   32.7260   50.7930 N   0  0  0  0  0  0  0  0  0  0  0  0
   57.7830   32.5830   52.0170 C   0  0  0  0  0  0  0  0  0  0  0  0
   56.6660   31.5340   51.8550 C   0  0  0  0  0  0  0  0  0  0  0  0
   57.1700   30.0860   52.0340 C   0  0  0  0  0  0  0  0  0  0  0  0
   58.4330   29.7940   51.3340 N   0  0  0  0  0  0  0  0  0  0  0  0
   59.5530   29.5710   52.2550 C   0  0  0  0  0  0  0  0  0  0  0  0
   60.8200   30.2100   51.6910 C   0  0  0  0  0  0  0  0  0  0  0  0
   60.8060   30.1510   50.2320 N   0  0  0  0  0  0  0  0  0  0  0  0
   61.4640   31.1590   49.4490 C   0  0  0  0  0  0  0  0  0  0  0  0
   60.7680   31.8440   48.4600 C   0  0  0  0  0  0  0  0  0  0  0  0
   61.3790   32.8220   47.6930 C   0  0  0  0  0  0  0  0  0  0  0  0
   62.7200   33.0870   47.8010 N   0  0  0  0  0  0  0  0  0  0  0  0
   63.3960   33.8920   46.7710 C   0  0  0  0  0  0  0  0  0  0  0  0
   63.4230   32.5240   48.8570 C   0  0  0  0  0  0  0  0  0  0  0  0
   64.7490   32.9190   49.1610 C   0  0  0  0  0  0  0  0  0  0  0  0
   65.4590   32.3120   50.1960 C   0  0  0  0  0  0  0  0  0  0  0  0
   64.8700   31.3090   50.9600 C   0  0  0  0  0  0  0  0  0  0  0  0
   63.5550   30.9200   50.7140 C   0  0  0  0  0  0  0  0  0  0  0  0
   62.8070   31.5280   49.6860 C   0  0  0  0  0  0  0  0  0  0  0  0
   60.3460   33.4280   46.8160 C   0  0  0  0  0  0  0  0  0  0  0  0
   60.3660   34.5680   45.9970 C   0  0  0  0  0  0  0  0  0  0  0  0
   59.1830   34.9510   45.3430 C   0  0  0  0  0  0  0  0  0  0  0  0
   57.9900   34.2310   45.5430 C   0  0  0  0  0  0  0  0  0  0  0  0
   57.9630   33.1330   46.4150 C   0  0  0  0  0  0  0  0  0  0  0  0
   59.1510   32.7590   47.0410 C   0  0  0  0  0  0  0  0  0  0  0  0
   59.3630   31.7580   48.0720 C   0  0  0  0  0  0  0  0  0  0  0  0
   58.4830   31.0090   48.5740 O   0  0  0  0  0  0  0  0  0  0  0  0
   59.7245   33.6867   53.0994 H   0  0  0  0  0  0  0  0  0  0  0  0
   60.7519   32.4345   52.3228 H   0  0  0  0  0  0  0  0  0  0  0  0
   61.2758   34.1526   52.3228 H   0  0  0  0  0  0  0  0  0  0  0  0
   59.2646   34.7180   50.9246 H   0  0  0  0  0  0  0  0  0  0  0  0
   60.3934   33.5697   50.1151 H   0  0  0  0  0  0  0  0  0  0  0  0
   58.9900   31.7960   50.5250 H   0  0  0  0  0  0  0  0  0  0  0  0
   58.4422   32.2750   52.8420 H   0  0  0  0  0  0  0  0  0  0  0  0
   57.3092   33.5534   52.2264 H   0  0  0  0  0  0  0  0  0  0  0  0
   55.8884   31.7304   52.6079 H   0  0  0  0  0  0  0  0  0  0  0  0
   56.2761   31.6231   50.8303 H   0  0  0  0  0  0  0  0  0  0  0  0
   57.3212   29.9039   53.1082 H   0  0  0  0  0  0  0  0  0  0  0  0
   56.4057   29.4291   51.5931 H   0  0  0  0  0  0  0  0  0  0  0  0
   58.6670   30.5730   50.6760 H   0  0  0  0  0  0  0  0  0  0  0  0
   59.3193   30.0223   53.2306 H   0  0  0  0  0  0  0  0  0  0  0  0
   59.7141   28.4897   52.3766 H   0  0  0  0  0  0  0  0  0  0  0  0
   60.8712   31.2609   52.0120 H   0  0  0  0  0  0  0  0  0  0  0  0
   61.6968   29.6609   52.0648 H   0  0  0  0  0  0  0  0  0  0  0  0
   60.0790   29.5570   49.7740 H   0  0  0  0  0  0  0  0  0  0  0  0
   64.0312   34.6484   47.2551 H   0  0  0  0  0  0  0  0  0  0  0  0
   64.0188   33.2371   46.1440 H   0  0  0  0  0  0  0  0  0  0  0  0
   62.6432   34.3922   46.1440 H   0  0  0  0  0  0  0  0  0  0  0  0
   65.2255   33.7164   48.5718 H   0  0  0  0  0  0  0  0  0  0  0  0
   66.4908   32.6277   50.4100 H   0  0  0  0  0  0  0  0  0  0  0  0
   65.4449   30.8215   51.7612 H   0  0  0  0  0  0  0  0  0  0  0  0
   63.0963   30.1309   51.3279 H   0  0  0  0  0  0  0  0  0  0  0  0
   61.2904   35.1504   45.8697 H   0  0  0  0  0  0  0  0  0  0  0  0
   59.1890   35.8205   44.6692 H   0  0  0  0  0  0  0  0  0  0  0  0
   57.0743   34.5312   45.0126 H   0  0  0  0  0  0  0  0  0  0  0  0
   57.0293   32.5816   46.6000 H   0  0  0  0  0  0  0  0  0  0  0  0
  1  2  1  0
  2  3  1  0
  3  4  1  0
  4  5  1  0
  5  6  1  0
  6  7  1  0
  7  8  1  0
  8  9  1  0
  9 10  1  0
 10 11  1  0
 11 12  2  0
 12 13  1  0
 13 14  2  0
 14 15  1  0
 14 16  1  0
 16 17  2  0
 17 18  1  0
 18 19  2  0
 19 20  1  0
 20 21  2  0
 13 22  1  0
 22 23  2  0
 23 24  1  0
 24 25  2  0
 25 26  1  0
 26 27  2  0
 27 28  1  0
 28 29  2  0
 21 11  1  0
 27 22  1  0
 28 12  1  0
 21 16  1  0
  1 30  1  0
  1 31  1  0
  1 32  1  0
  2 33  1  0
  2 34  1  0
  3 35  1  0
  4 36  1  0
  4 37  1  0
  5 38  1  0
  5 39  1  0
  6 40  1  0
  6 41  1  0
  7 42  1  0
  8 43  1  0
  8 44  1  0
  9 45  1  0
  9 46  1  0
 10 47  1  0
 15 48  1  0
 15 49  1  0
 15 50  1  0
 17 51  1  0
 18 52  1  0
 19 53  1  0
 20 54  1  0
 23 55  1  0
 24 56  1  0
 25 57  1  0
 26 58  1  0
M  CHG  1  14   1
M  END
>  <UniqueID>  (10) 
10

>  <SMILES>  (10) 
CCNCCCNCCNc1c2c([n+](C)c3ccccc13)-c1ccccc1C2=O

>  <Energy>  (10) 
109.44960522972684

>  <Genealogy>  (10) 
CCNCCCNCCNc1c2c([n+](C)c3ccccc13)-c1ccccc1C2=O (3D coordinates assigned)
CCNCCCNCCNc1c2c([n+](C)c3ccccc13)-c1ccccc1C2=O (nonaromatic ring conformer: 109.44960522972684 kcal/mol)

>  <smiles>  (10) 
CCNCCCNCCNc1c2c([n+](C)c3ccccc13)-c1ccccc1C2=O

>  <score_type>  (10) 
oracle

>  <origin>  (10) 
adg

>  <m_score__min__energy>  (10) 
-6.0700000000000003

>  <m_primary>  (10) 
energy

$$$$
10:0
     RDKit          3D

 68 70  0  0  0  0  0  0  0  0999 V2000
   57.8390   32.5580   52.9110 C   0  0  0  0  0  0  0  0  0  0  0  0
   58.5300   33.0460   51.6430 C   0  0  0  0  0  0  0  0  0  0  0  0
   58.0170   32.3280   50.4770 N   0  0  0  0  0  0  0  0  0  0  0  0
   58.7760   31.3230   49.7830 C   0  0  0  0  0  0  0  0  0  0  0  0
   59.2420   30.2150   50.5050 C   0  0  0  0  0  0  0  0  0  0  0  0
   59.7570   29.1080   49.8480 C   0  0  0  0  0  0  0  0  0  0  0  0
   59.8000   29.0750   48.4590 C   0  0  0  0  0  0  0  0  0  0  0  0
   59.3830   30.1870   47.6880 C   0  0  0  0  0  0  0  0  0  0  0  0
   58.9020   31.3460   48.3640 C   0  0  0  0  0  0  0  0  0  0  0  0
   58.6160   32.5010   47.5880 C   0  0  0  0  0  0  0  0  0  0  0  0
   58.8710   33.8440   48.1040 N   0  0  0  0  0  0  0  0  0  0  0  0
   60.2690   34.2610   47.8470 C   0  0  0  0  0  0  0  0  0  0  0  0
   61.1670   34.1720   49.0980 C   0  0  0  0  0  0  0  0  0  0  0  0
   61.9580   32.8430   49.3670 C   0  0  0  0  0  0  0  0  0  0  0  0
   63.4390   32.9060   49.7050 N   0  0  0  0  0  0  0  0  0  0  0  0
   63.7890   31.6450   50.4560 C   0  0  0  0  0  0  0  0  0  0  0  0
   62.7320   30.5300   50.5410 C   0  0  0  0  0  0  0  0  0  0  0  0
   63.5800   34.1310   50.5820 C   0  0  0  0  0  0  0  0  0  0  0  0
   64.7470   34.1650   51.5910 C   0  0  0  0  0  0  0  0  0  0  0  0
   64.1760   33.0990   48.4000 C   0  0  0  0  0  0  0  0  0  0  0  0
   63.4860   32.6290   47.1110 C   0  0  0  0  0  0  0  0  0  0  0  0
   58.3330   32.3130   46.2150 C   0  0  0  0  0  0  0  0  0  0  0  0
   57.6470   33.2900   45.4600 C   0  0  0  0  0  0  0  0  0  0  0  0
   57.4070   33.1020   44.1000 C   0  0  0  0  0  0  0  0  0  0  0  0
   57.8180   31.9320   43.4750 C   0  0  0  0  0  0  0  0  0  0  0  0
   58.4740   30.9410   44.2040 C   0  0  0  0  0  0  0  0  0  0  0  0
   58.7560   31.1160   45.5820 C   0  0  0  0  0  0  0  0  0  0  0  0
   59.4380   30.1630   46.3080 N   0  0  0  0  0  0  0  0  0  0  0  0
   60.2160   29.1150   45.6100 C   0  0  0  0  0  0  0  0  0  0  0  0
   58.3775   32.9383   53.7916 H   0  0  0  0  0  0  0  0  0  0  0  0
   56.8023   32.9254   52.9282 H   0  0  0  0  0  0  0  0  0  0  0  0
   57.8385   31.4581   52.9282 H   0  0  0  0  0  0  0  0  0  0  0  0
   58.3413   34.1225   51.5182 H   0  0  0  0  0  0  0  0  0  0  0  0
   59.6107   32.8605   51.7304 H   0  0  0  0  0  0  0  0  0  0  0  0
   56.9940   32.3900   50.2680 H   0  0  0  0  0  0  0  0  0  0  0  0
   59.1985   30.2241   51.6041 H   0  0  0  0  0  0  0  0  0  0  0  0
   60.1330   28.2525   50.4282 H   0  0  0  0  0  0  0  0  0  0  0  0
   60.1640   28.1701   47.9504 H   0  0  0  0  0  0  0  0  0  0  0  0
   58.2450   34.5400   47.6520 H   0  0  0  0  0  0  0  0  0  0  0  0
   58.6500   33.9090   49.1200 H   0  0  0  0  0  0  0  0  0  0  0  0
   60.6905   33.6104   47.0666 H   0  0  0  0  0  0  0  0  0  0  0  0
   60.2445   35.3156   47.5353 H   0  0  0  0  0  0  0  0  0  0  0  0
   61.9091   34.9803   49.0216 H   0  0  0  0  0  0  0  0  0  0  0  0
   60.4602   34.2361   49.9384 H   0  0  0  0  0  0  0  0  0  0  0  0
   61.4595   32.3392   50.2082 H   0  0  0  0  0  0  0  0  0  0  0  0
   61.9377   32.3301   48.3941 H   0  0  0  0  0  0  0  0  0  0  0  0
   64.6786   31.2145   49.9730 H   0  0  0  0  0  0  0  0  0  0  0  0
   63.9191   31.9760   51.4969 H   0  0  0  0  0  0  0  0  0  0  0  0
   62.5195   30.3059   51.5968 H   0  0  0  0  0  0  0  0  0  0  0  0
   61.8086   30.8614   50.0435 H   0  0  0  0  0  0  0  0  0  0  0  0
   63.1122   29.6256   50.0435 H   0  0  0  0  0  0  0  0  0  0  0  0
   63.6968   34.9989   49.9164 H   0  0  0  0  0  0  0  0  0  0  0  0
   62.6746   34.1292   51.2067 H   0  0  0  0  0  0  0  0  0  0  0  0
   64.3465   34.1533   52.6154 H   0  0  0  0  0  0  0  0  0  0  0  0
   65.3894   33.2852   51.4384 H   0  0  0  0  0  0  0  0  0  0  0  0
   65.3371   35.0807   51.4384 H   0  0  0  0  0  0  0  0  0  0  0  0
   64.3749   34.1754   48.2918 H   0  0  0  0  0  0  0  0  0  0  0  0
   65.0657   32.4580   48.4872 H   0  0  0  0  0  0  0  0  0  0  0  0
   62.6018   32.0268   47.3670 H   0  0  0  0  0  0  0  0  0  0  0  0
   63.1753   33.5041   46.5214 H   0  0  0  0  0  0  0  0  0  0  0  0
   64.1866   32.0195   46.5214 H   0  0  0  0  0  0  0  0  0  0  0  0
   57.2980   34.2102   45.9513 H   0  0  0  0  0  0  0  0  0  0  0  0
   56.8911   33.8818   43.5206 H   0  0  0  0  0  0  0  0  0  0  0  0
   57.6255   31.7867   42.4018 H   0  0  0  0  0  0  0  0  0  0  0  0
   58.7770   30.0100   43.7026 H   0  0  0  0  0  0  0  0  0  0  0  0
   60.7002   28.4627   46.3516 H   0  0  0  0  0  0  0  0  0  0  0  0
   59.5418   28.5164   44.9798 H   0  0  0  0  0  0  0  0  0  0  0  0
   60.9841   29.5871   44.9798 H   0  0  0  0  0  0  0  0  0  0  0  0
  1  2  1  0
  2  3  1  0
  3  4  1  0
  4  5  2  0
  5  6  1  0
  6  7  2  0
  7  8  1  0
  8  9  2  0
  9 10  1  0
 10 11  1  0
 11 12  1  0
 12 13  1  0
 13 14  1  0
 14 15  1  0
 15 16  1  0
 16 17  1  0
 15 18  1  0
 18 19  1  0
 15 20  1  0
 20 21  1  0
 10 22  2  0
 22 23  1  0
 23 24  2  0
 24 25  1  0
 25 26  2  0
 26 27  1  0
 27 28  2  0
 28 29  1  0
  9  4  1  0
 27 22  1  0
 28  8  1  0
  1 30  1  0
  1 31  1  0
  1 32  1  0
  2 33  1  0
  2 34  1  0
  3 35  1  0
  5 36  1  0
  6 37  1  0
  7 38  1  0
 11 39  1  0
 11 40  1  0
 12 41  1  0
 12 42  1  0
 13 43  1  0
 13 44  1  0
 14 45  1  0
 14 46  1  0
 16 47  1  0
 16 48  1  0
 17 49  1  0
 17 50  1  0
 17 51  1  0
 18 52  1  0
 18 53  1  0
 19 54  1  0
 19 55  1  0
 19 56  1  0
 20 57  1  0
 20 58  1  0
 21 59  1  0
 21 60  1  0
 21 61  1  0
 23 62  1  0
 24 63  1  0
 25 64  1  0
 26 65  1  0
 29 66  1  0
 29 67  1  0
 29 68  1  0
M  CHG  3  11   1  15   1  28   1
M  END
>  <UniqueID>  (11) 
11

>  <SMILES>  (11) 
CCNc1cccc2c1c([NH2+]CCC[N+](CC)(CC)CC)c1ccccc1[n+]2C

>  <Energy>  (11) 
142.0960906656284

>  <Genealogy>  (11) 
CCNc1cccc2c1c([NH2+]CCC[N+](CC)(CC)CC)c1ccccc1[n+]2C (protonated)
CCNc1cccc2c1c([NH2+]CCC[N+](CC)(CC)CC)c1ccccc1[n+]2C (3D coordinates assigned)
CCNc1cccc2c1c([NH2+]CCC[N+](CC)(CC)CC)c1ccccc1[n+]2C (optimized conformer: 142.0960906656284 kcal/mol)

>  <smiles>  (11) 
CCNc1cccc2c1c(NCCC[N+](CC)(CC)CC)c1ccccc1[n+]2C

>  <score_type>  (11) 
oracle

>  <origin>  (11) 
adg

>  <m_score__min__energy>  (11) 
-3.0299999999999998

>  <m_primary>  (11) 
energy

$$$$
11:0
     RDKit          3D

 39 40  0  0  0  0  0  0  0  0999 V2000
   59.4340   34.9260   45.7290 C   0  0  0  0  0  0  0  0  0  0  0  0
   58.7530   33.6380   45.3470 C   0  0  0  0  0  0  0  0  0  0  0  0
   58.4820   33.3790   43.9940 C   0  0  0  0  0  0  0  0  0  0  0  0
   57.8610   32.1860   43.5920 C   0  0  0  0  0  0  0  0  0  0  0  0
   57.5970   31.9660   42.1260 C   0  0  0  0  0  0  0  0  0  0  0  0
   57.4700   31.2440   44.5730 C   0  0  0  0  0  0  0  0  0  0  0  0
   56.6430   29.7330   44.1480 S   0  0  0  0  0  0  0  0  0  0  0  0
   56.4120   29.7180   42.6620 O   0  0  0  0  0  0  0  0  0  0  0  0
   55.3220   29.6460   44.8600 O   0  0  0  0  0  0  0  0  0  0  0  0
   57.6190   28.3540   44.6020 N   0  0  0  0  0  0  0  0  0  0  0  0
   59.0190   28.5110   44.1280 C   0  0  0  0  0  0  0  0  0  0  0  0
   59.9920   28.9150   45.2450 C   0  0  0  0  0  0  0  0  0  0  0  0
   59.9880   27.8840   46.3860 C   0  0  0  0  0  0  0  0  0  0  0  0
   58.6180   27.2070   46.5710 C   0  0  0  0  0  0  0  0  0  0  0  0
   57.4870   28.1010   46.0530 C   0  0  0  0  0  0  0  0  0  0  0  0
   57.7720   31.4900   45.9200 C   0  0  0  0  0  0  0  0  0  0  0  0
   58.4150   32.6710   46.3190 C   0  0  0  0  0  0  0  0  0  0  0  0
   58.7020   32.8970   47.7800 C   0  0  0  0  0  0  0  0  0  0  0  0
   59.4768   35.0070   46.8252 H   0  0  0  0  0  0  0  0  0  0  0  0
   60.4552   34.9360   45.3204 H   0  0  0  0  0  0  0  0  0  0  0  0
   58.8673   35.7756   45.3204 H   0  0  0  0  0  0  0  0  0  0  0  0
   58.7614   34.1246   43.2350 H   0  0  0  0  0  0  0  0  0  0  0  0
   56.7570   31.2660   42.0057 H   0  0  0  0  0  0  0  0  0  0  0  0
   57.3456   32.9256   41.6507 H   0  0  0  0  0  0  0  0  0  0  0  0
   58.4955   31.5457   41.6507 H   0  0  0  0  0  0  0  0  0  0  0  0
   59.3536   27.5538   43.7017 H   0  0  0  0  0  0  0  0  0  0  0  0
   59.0236   29.3188   43.3813 H   0  0  0  0  0  0  0  0  0  0  0  0
   61.0076   28.9850   44.8282 H   0  0  0  0  0  0  0  0  0  0  0  0
   59.6718   29.8857   45.6516 H   0  0  0  0  0  0  0  0  0  0  0  0
   60.7360   27.1091   46.1625 H   0  0  0  0  0  0  0  0  0  0  0  0
   60.2223   28.4193   47.3180 H   0  0  0  0  0  0  0  0  0  0  0  0
   58.6085   26.2575   46.0157 H   0  0  0  0  0  0  0  0  0  0  0  0
   58.4585   27.0284   47.6446 H   0  0  0  0  0  0  0  0  0  0  0  0
   56.5236   27.6054   46.2434 H   0  0  0  0  0  0  0  0  0  0  0  0
   57.5409   29.0659   46.5784 H   0  0  0  0  0  0  0  0  0  0  0  0
   57.4992   30.7419   46.6789 H   0  0  0  0  0  0  0  0  0  0  0  0
   57.9814   32.3296   48.3873 H   0  0  0  0  0  0  0  0  0  0  0  0
   59.7228   32.5576   48.0099 H   0  0  0  0  0  0  0  0  0  0  0  0
   58.6115   33.9689   48.0099 H   0  0  0  0  0  0  0  0  0  0  0  0
  1  2  1  0
  2  3  2  0
  3  4  1  0
  4  5  1  0
  4  6  2  0
  6  7  1  0
  7  8  2  0
  7  9  2  0
  7 10  1  0
 10 11  1  0
 11 12  1  0
 12 13  1  0
 13 14  1  0
 14 15  1  0
  6 16  1  0
 16 17  2  0
 17 18  1  0
 17  2  1  0
 15 10  1  0
  1 19  1  0
  1 20  1  0
  1 21  1  0
  3 22  1  0
  5 23  1  0
  5 24  1  0
  5 25  1  0
 11 26  1  0
 11 27  1  0
 12 28  1  0
 12 29  1  0
 13 30  1  0
 13 31  1  0
 14 32  1  0
 14 33  1  0
 15 34  1  0
 15 35  1  0
 16 36  1  0
 18 37  1  0
 18 38  1  0
 18 39  1  0
M  END
>  <UniqueID>  (12) 
12

>  <SMILES>  (12) 
Cc1cc(C)c(S(=O)(=O)N2CCCCC2)cc1C

>  <Energy>  (12) 
44.747762538992276

>  <Genealogy>  (12) 
Cc1cc(C)c(S(=O)(=O)N2CCCCC2)cc1C (3D coordinates assigned)
Cc1cc(C)c(S(=O)(=O)N2CCCCC2)cc1C (nonaromatic ring conformer: 44.747762538992276 kcal/mol)

>  <smiles>  (12) 
Cc1cc(C)c(S(=O)(=O)N2CCCCC2)cc1C

>  <score_type>  (12) 
oracle

>  <origin>  (12) 
adg

>  <m_score__min__energy>  (12) 
-8.1799999999999997

>  <m_primary>  (12) 
energy

$$$$
12:0
     RDKit          3D

 48 49  0  0  0  0  0  0  0  0999 V2000
   65.4600   32.7680   49.8340 C   0  0  0  0  0  0  0  0  0  0  0  0
   64.1230   32.9360   49.1090 C   0  0  0  0  0  0  0  0  0  0  0  0
   64.1240   32.2790   47.7820 N   0  0  0  0  0  0  0  0  0  0  0  0
   62.7930   32.2400   47.1460 C   0  0  0  0  0  0  0  0  0  0  0  0
   62.2990   33.6420   46.7420 C   0  0  0  0  0  0  0  0  0  0  0  0
   61.2330   34.2150   47.6960 C   0  0  0  0  0  0  0  0  0  0  0  0
   60.0170   34.8730   47.0160 C   0  0  0  0  0  0  0  0  0  0  0  0
   58.7760   34.1370   47.2740 N   0  0  0  0  0  0  0  0  0  0  0  0
   58.4700   32.8540   46.6900 C   0  0  0  0  0  0  0  0  0  0  0  0
   58.8130   31.6930   47.3900 C   0  0  0  0  0  0  0  0  0  0  0  0
   58.5290   30.4310   46.8620 C   0  0  0  0  0  0  0  0  0  0  0  0
   58.8160   29.2530   47.5750 O   0  0  0  0  0  0  0  0  0  0  0  0
   60.0490   28.9830   48.2340 C   0  0  0  0  0  0  0  0  0  0  0  0
   57.9570   30.3440   45.5860 C   0  0  0  0  0  0  0  0  0  0  0  0
   57.7020   29.0860   45.0030 C   0  0  0  0  0  0  0  0  0  0  0  0
   57.1640   28.9960   43.7230 C   0  0  0  0  0  0  0  0  0  0  0  0
   56.8830   30.1510   43.0010 C   0  0  0  0  0  0  0  0  0  0  0  0
   57.1200   31.4070   43.5610 C   0  0  0  0  0  0  0  0  0  0  0  0
   57.6430   31.5330   44.8730 C   0  0  0  0  0  0  0  0  0  0  0  0
   57.8500   32.7680   45.4620 N   0  0  0  0  0  0  0  0  0  0  0  0
   57.3820   33.9990   44.7910 C   0  0  0  0  0  0  0  0  0  0  0  0
   65.2928   32.7890   50.9210 H   0  0  0  0  0  0  0  0  0  0  0  0
   65.9122   31.8060   49.5511 H   0  0  0  0  0  0  0  0  0  0  0  0
   66.1361   33.5883   49.5511 H   0  0  0  0  0  0  0  0  0  0  0  0
   63.3271   32.4914   49.7246 H   0  0  0  0  0  0  0  0  0  0  0  0
   63.9535   34.0119   48.9548 H   0  0  0  0  0  0  0  0  0  0  0  0
   64.5180   31.3090   47.8290 H   0  0  0  0  0  0  0  0  0  0  0  0
   64.7520   32.8250   47.1490 H   0  0  0  0  0  0  0  0  0  0  0  0
   62.8493   31.6112   46.2452 H   0  0  0  0  0  0  0  0  0  0  0  0
   62.0815   31.8294   47.8775 H   0  0  0  0  0  0  0  0  0  0  0  0
   63.1608   34.3255   46.7316 H   0  0  0  0  0  0  0  0  0  0  0  0
   61.8304   33.5476   45.7513 H   0  0  0  0  0  0  0  0  0  0  0  0
   60.8645   33.3917   48.3256 H   0  0  0  0  0  0  0  0  0  0  0  0
   61.7329   35.0162   48.2601 H   0  0  0  0  0  0  0  0  0  0  0  0
   59.9077   35.8981   47.3996 H   0  0  0  0  0  0  0  0  0  0  0  0
   60.1932   34.8699   45.9302 H   0  0  0  0  0  0  0  0  0  0  0  0
   58.0740   34.5720   47.9140 H   0  0  0  0  0  0  0  0  0  0  0  0
   59.3119   31.7742   48.3670 H   0  0  0  0  0  0  0  0  0  0  0  0
   59.8976   29.0161   49.3230 H   0  0  0  0  0  0  0  0  0  0  0  0
   60.4088   27.9848   47.9440 H   0  0  0  0  0  0  0  0  0  0  0  0
   60.7931   29.7395   47.9440 H   0  0  0  0  0  0  0  0  0  0  0  0
   57.9302   28.1681   45.5646 H   0  0  0  0  0  0  0  0  0  0  0  0
   56.9605   28.0094   43.2812 H   0  0  0  0  0  0  0  0  0  0  0  0
   56.4719   30.0741   41.9836 H   0  0  0  0  0  0  0  0  0  0  0  0
   56.8980   32.3120   42.9765 H   0  0  0  0  0  0  0  0  0  0  0  0
   57.0986   34.7445   45.5486 H   0  0  0  0  0  0  0  0  0  0  0  0
   58.1891   34.4035   44.1625 H   0  0  0  0  0  0  0  0  0  0  0  0
   56.5100   33.7652   44.1625 H   0  0  0  0  0  0  0  0  0  0  0  0
  1  2  1  0
  2  3  1  0
  3  4  1  0
  4  5  1  0
  5  6  1  0
  6  7  1  0
  7  8  1  0
  8  9  1  0
  9 10  2  0
 10 11  1  0
 11 12  1  0
 12 13  1  0
 11 14  2  0
 14 15  1  0
 15 16  2  0
 16 17  1  0
 17 18  2  0
 18 19  1  0
 19 20  2  0
 20 21  1  0
 20  9  1  0
 19 14  1  0
  1 22  1  0
  1 23  1  0
  1 24  1  0
  2 25  1  0
  2 26  1  0
  3 27  1  0
  3 28  1  0
  4 29  1  0
  4 30  1  0
  5 31  1  0
  5 32  1  0
  6 33  1  0
  6 34  1  0
  7 35  1  0
  7 36  1  0
  8 37  1  0
 10 38  1  0
 13 39  1  0
 13 40  1  0
 13 41  1  0
 15 42  1  0
 16 43  1  0
 17 44  1  0
 18 45  1  0
 21 46  1  0
 21 47  1  0
 21 48  1  0
M  CHG  2   3   1  20   1
M  END
>  <UniqueID>  (13) 
13

>  <SMILES>  (13) 
CC[NH2+]CCCCNc1cc(OC)c2ccccc2[n+]1C

>  <Energy>  (13) 
55.97082892692274

>  <Genealogy>  (13) 
CC[NH2+]CCCCNc1cc(OC)c2ccccc2[n+]1C (protonated)
CC[NH2+]CCCCNc1cc(OC)c2ccccc2[n+]1C (3D coordinates assigned)
CC[NH2+]CCCCNc1cc(OC)c2ccccc2[n+]1C (optimized conformer: 55.97082892692274 kcal/mol)

>  <smiles>  (13) 
CCNCCCCNc1cc(OC)c2ccccc2[n+]1C

>  <score_type>  (13) 
oracle

>  <origin>  (13) 
adg

>  <m_score__min__energy>  (13) 
-3.6299999999999999

>  <m_primary>  (13) 
energy

$$$$
13:0
     RDKit          3D

 86 90  0  0  0  0  0  0  0  0999 V2000
   59.0850   34.5880   44.5190 C   0  0  0  0  0  0  0  0  0  0  0  0
   58.7410   33.4160   45.3530 N   0  0  0  0  0  0  0  0  0  0  0  0
   58.1470   32.3050   44.7780 C   0  0  0  0  0  0  0  0  0  0  0  0
   57.5890   32.3450   43.4740 C   0  0  0  0  0  0  0  0  0  0  0  0
   57.0630   31.1990   42.8810 C   0  0  0  0  0  0  0  0  0  0  0  0
   57.0720   29.9880   43.5640 C   0  0  0  0  0  0  0  0  0  0  0  0
   57.5740   29.9230   44.8620 C   0  0  0  0  0  0  0  0  0  0  0  0
   58.0810   31.0790   45.4950 C   0  0  0  0  0  0  0  0  0  0  0  0
   58.5280   31.0360   46.8260 C   0  0  0  0  0  0  0  0  0  0  0  0
   58.6020   29.7850   47.5300 N   0  0  0  0  0  0  0  0  0  0  0  0
   59.9130   29.1680   47.7300 C   0  0  0  0  0  0  0  0  0  0  0  0
   59.9120   27.6730   47.3590 C   0  0  0  0  0  0  0  0  0  0  0  0
   60.1810   27.4390   45.9120 N   0  0  0  0  0  0  0  0  0  0  0  0
   60.6800   28.6640   45.2680 C   0  0  0  0  0  0  0  0  0  0  0  0
   58.9710   26.9750   45.2050 C   0  0  0  0  0  0  0  0  0  0  0  0
   58.9220   32.2260   47.4600 C   0  0  0  0  0  0  0  0  0  0  0  0
   59.1740   32.2470   48.8430 C   0  0  0  0  0  0  0  0  0  0  0  0
   59.5260   33.4210   49.5040 C   0  0  0  0  0  0  0  0  0  0  0  0
   59.6490   33.3700   50.9030 O   0  0  0  0  0  0  0  0  0  0  0  0
   59.6750   32.2020   51.7230 C   0  0  0  0  0  0  0  0  0  0  0  0
   61.0010   31.3960   51.6830 C   0  0  0  0  0  0  0  0  0  0  0  0
   62.2080   31.9590   52.3830 N   0  0  1  0  0  0  0  0  0  0  0  0
   62.0230   31.6450   53.8310 C   0  0  0  0  0  0  0  0  0  0  0  0
   63.4480   31.2560   51.9260 C   0  0  0  0  0  0  0  0  0  0  0  0
   64.6970   32.1240   52.1030 C   0  0  0  0  0  0  0  0  0  0  0  0
   64.6670   33.3280   51.2150 N   0  0  1  0  0  0  0  0  0  0  0  0
   65.5930   34.3370   51.7920 C   0  0  0  0  0  0  0  0  0  0  0  0
   65.0980   33.0080   49.8110 C   0  0  0  0  0  0  0  0  0  0  0  0
   63.9950   32.8680   48.7780 C   0  0  0  0  0  0  0  0  0  0  0  0
   63.2450   31.6830   48.6830 C   0  0  0  0  0  0  0  0  0  0  0  0
   62.2810   31.5410   47.6820 C   0  0  0  0  0  0  0  0  0  0  0  0
   62.0710   32.5690   46.7570 C   0  0  0  0  0  0  0  0  0  0  0  0
   62.8170   33.7480   46.8390 C   0  0  0  0  0  0  0  0  0  0  0  0
   63.7740   33.8970   47.8450 C   0  0  0  0  0  0  0  0  0  0  0  0
   63.2820   33.9290   51.1470 C   0  0  0  0  0  0  0  0  0  0  0  0
   62.3230   33.4530   52.2640 C   0  0  0  0  0  0  0  0  0  0  0  0
   59.6900   34.5940   48.7600 C   0  0  0  0  0  0  0  0  0  0  0  0
   59.4170   34.6040   47.3900 C   0  0  0  0  0  0  0  0  0  0  0  0
   59.0280   33.4220   46.7060 C   0  0  0  0  0  0  0  0  0  0  0  0
   59.3350   35.4397   45.1687 H   0  0  0  0  0  0  0  0  0  0  0  0
   59.9497   34.3450   43.8840 H   0  0  0  0  0  0  0  0  0  0  0  0
   58.2261   34.8509   43.8840 H   0  0  0  0  0  0  0  0  0  0  0  0
   57.5714   33.2964   42.9221 H   0  0  0  0  0  0  0  0  0  0  0  0
   56.6386   31.2527   41.8676 H   0  0  0  0  0  0  0  0  0  0  0  0
   56.6825   29.0806   43.0792 H   0  0  0  0  0  0  0  0  0  0  0  0
   57.5754   28.9627   45.3985 H   0  0  0  0  0  0  0  0  0  0  0  0
   57.7640   29.1600   47.5100 H   0  0  0  0  0  0  0  0  0  0  0  0
   60.6500   29.6891   47.1012 H   0  0  0  0  0  0  0  0  0  0  0  0
   60.1681   29.2523   48.7967 H   0  0  0  0  0  0  0  0  0  0  0  0
   60.6889   27.1638   47.9482 H   0  0  0  0  0  0  0  0  0  0  0  0
   58.9096   27.2770   47.5787 H   0  0  0  0  0  0  0  0  0  0  0  0
   60.9240   26.7140   45.7920 H   0  0  0  0  0  0  0  0  0  0  0  0
   60.9756   29.3897   46.0399 H   0  0  0  0  0  0  0  0  0  0  0  0
   61.5505   28.4203   44.6413 H   0  0  0  0  0  0  0  0  0  0  0  0
   59.8870   29.0979   44.6413 H   0  0  0  0  0  0  0  0  0  0  0  0
   58.2067   26.6819   45.9398 H   0  0  0  0  0  0  0  0  0  0  0  0
   58.5808   27.7873   44.5742 H   0  0  0  0  0  0  0  0  0  0  0  0
   59.2239   26.1101   44.5742 H   0  0  0  0  0  0  0  0  0  0  0  0
   59.0910   31.3125   49.4174 H   0  0  0  0  0  0  0  0  0  0  0  0
   59.4966   32.5124   52.7631 H   0  0  0  0  0  0  0  0  0  0  0  0
   58.8984   31.5322   51.3251 H   0  0  0  0  0  0  0  0  0  0  0  0
   60.7961   30.4124   52.1307 H   0  0  0  0  0  0  0  0  0  0  0  0
   61.2832   31.3969   50.6198 H   0  0  0  0  0  0  0  0  0  0  0  0
   62.4881   32.4344   54.4397 H   0  0  0  0  0  0  0  0  0  0  0  0
   60.9485   31.5906   54.0600 H   0  0  0  0  0  0  0  0  0  0  0  0
   62.4961   30.6787   54.0600 H   0  0  0  0  0  0  0  0  0  0  0  0
   63.5703   30.3337   52.5129 H   0  0  0  0  0  0  0  0  0  0  0  0
   63.3375   31.0336   50.8544 H   0  0  0  0  0  0  0  0  0  0  0  0
   64.7549   32.4553   53.1503 H   0  0  0  0  0  0  0  0  0  0  0  0
   65.5749   31.5198   51.8305 H   0  0  0  0  0  0  0  0  0  0  0  0
   65.5492   34.2893   52.8901 H   0  0  0  0  0  0  0  0  0  0  0  0
   66.6193   34.1270   51.4565 H   0  0  0  0  0  0  0  0  0  0  0  0
   65.2959   35.3416   51.4565 H   0  0  0  0  0  0  0  0  0  0  0  0
   65.7690   33.8127   49.4761 H   0  0  0  0  0  0  0  0  0  0  0  0
   65.5680   32.0153   49.8705 H   0  0  0  0  0  0  0  0  0  0  0  0
   63.4176   30.8656   49.3985 H   0  0  0  0  0  0  0  0  0  0  0  0
   61.6854   30.6182   47.6210 H   0  0  0  0  0  0  0  0  0  0  0  0
   61.3179   32.4494   45.9642 H   0  0  0  0  0  0  0  0  0  0  0  0
   62.6506   34.5570   46.1125 H   0  0  0  0  0  0  0  0  0  0  0  0
   64.3594   34.8261   47.9082 H   0  0  0  0  0  0  0  0  0  0  0  0
   63.3776   35.0225   51.2186 H   0  0  0  0  0  0  0  0  0  0  0  0
   62.8428   33.5983   50.1942 H   0  0  0  0  0  0  0  0  0  0  0  0
   62.6880   33.8483   53.2235 H   0  0  0  0  0  0  0  0  0  0  0  0
   61.3223   33.8269   52.0016 H   0  0  0  0  0  0  0  0  0  0  0  0
   60.0356   35.5130   49.2560 H   0  0  0  0  0  0  0  0  0  0  0  0
   59.5052   35.5466   46.8298 H   0  0  0  0  0  0  0  0  0  0  0  0
  1  2  1  0
  2  3  2  0
  3  4  1  0
  4  5  2  0
  5  6  1  0
  6  7  2  0
  7  8  1  0
  8  9  2  0
  9 10  1  0
 10 11  1  0
 11 12  1  0
 12 13  1  0
 13 14  1  0
 13 15  1  0
  9 16  1  0
 16 17  2  0
 17 18  1  0
 18 19  1  0
 19 20  1  0
 20 21  1  0
 22 21  1  6
 22 23  1  0
 22 24  1  0
 24 25  1  0
 25 26  1  0
 26 27  1  1
 26 28  1  0
 28 29  1  0
 29 30  2  0
 30 31  1  0
 31 32  2  0
 32 33  1  0
 33 34  2  0
 26 35  1  0
 35 36  1  0
 18 37  2  0
 37 38  1  0
 38 39  2  0
 39  2  1  0
  8  3  1  0
 39 16  1  0
 36 22  1  0
 34 29  1  0
  1 40  1  0
  1 41  1  0
  1 42  1  0
  4 43  1  0
  5 44  1  0
  6 45  1  0
  7 46  1  0
 10 47  1  0
 11 48  1  0
 11 49  1  0
 12 50  1  0
 12 51  1  0
 13 52  1  0
 14 53  1  0
 14 54  1  0
 14 55  1  0
 15 56  1  0
 15 57  1  0
 15 58  1  0
 17 59  1  0
 20 60  1  0
 20 61  1  0
 21 62  1  0
 21 63  1  0
 23 64  1  0
 23 65  1  0
 23 66  1  0
 24 67  1  0
 24 68  1  0
 25 69  1  0
 25 70  1  0
 27 71  1  0
 27 72  1  0
 27 73  1  0
 28 74  1  0
 28 75  1  0
 30 76  1  0
 31 77  1  0
 32 78  1  0
 33 79  1  0
 34 80  1  0
 35 81  1  0
 35 82  1  0
 36 83  1  0
 36 84  1  0
 37 85  1  0
 38 86  1  0
M  CHG  4   2   1  13   1  22   1  26   1
M  END
>  <UniqueID>  (14) 
14

>  <SMILES>  (14) 
C[n+]1c2ccccc2c(NCC[NH+](C)C)c2cc(OCC[N+]3(C)CC[N+](C)(Cc4ccccc4)CC3)ccc21

>  <Energy>  (14) 
152.13348443172802

>  <Genealogy>  (14) 
C[n+]1c2ccccc2c(NCC[NH+](C)C)c2cc(OCC[N+]3(C)CC[N+](C)(Cc4ccccc4)CC3)ccc21 (protonated)
C[n+]1c2ccccc2c(NCC[NH+](C)C)c2cc(OCC[N+]3(C)CC[N+](C)(Cc4ccccc4)CC3)ccc21 (3D coordinates assigned)
C[n+]1c2ccccc2c(NCC[NH+](C)C)c2cc(OCC[N+]3(C)CC[N+](C)(Cc4ccccc4)CC3)ccc21 (nonaromatic ring conformer: 152.13348443172802 kcal/mol)

>  <smiles>  (14) 
CN(C)CCNc1c2ccccc2[n+](C)c2ccc(OCC[N+]3(C)CC[N+](C)(Cc4ccccc4)CC3)cc12

>  <score_type>  (14) 
oracle

>  <origin>  (14) 
adg

>  <m_score__min__energy>  (14) 
-3.3999999999999999

>  <m_primary>  (14) 
energy

$$$$
14:0
     RDKit          3D

 59 61  0  0  0  0  0  0  0  0999 V2000
   57.3730   31.4710   42.5990 C   0  0  0  0  0  0  0  0  0  0  0  0
   57.1350   31.4960   44.1080 C   0  0  0  0  0  0  0  0  0  0  0  0
   56.3450   30.3170   44.5260 N   0  0  0  0  0  0  0  0  0  0  0  0
   55.6390   29.7450   43.3650 C   0  0  0  0  0  0  0  0  0  0  0  0
   57.2010   29.2930   45.1700 C   0  0  0  0  0  0  0  0  0  0  0  0
   58.6690   29.5140   44.7870 C   0  0  0  0  0  0  0  0  0  0  0  0
   59.4460   29.7690   45.9430 O   0  0  0  0  0  0  0  0  0  0  0  0
   58.6280   29.8100   47.0950 C   0  0  0  0  0  0  0  0  0  0  0  0
   59.1590   30.8640   48.0390 C   0  0  0  0  0  0  0  0  0  0  0  0
   59.5190   30.4760   49.3380 C   0  0  0  0  0  0  0  0  0  0  0  0
   60.0080   31.4030   50.2550 C   0  0  0  0  0  0  0  0  0  0  0  0
   60.1490   32.7540   49.9030 C   0  0  0  0  0  0  0  0  0  0  0  0
   60.6440   33.7090   50.8130 O   0  0  0  0  0  0  0  0  0  0  0  0
   62.0040   33.8450   51.2280 C   0  0  0  0  0  0  0  0  0  0  0  0
   62.8470   32.6240   50.8230 C   0  0  0  0  0  0  0  0  0  0  0  0
   63.6070   32.8690   49.5750 N   0  0  0  0  0  0  0  0  0  0  0  0
   63.0760   34.0310   48.8230 C   0  0  0  0  0  0  0  0  0  0  0  0
   63.3900   33.9200   47.3220 C   0  0  0  0  0  0  0  0  0  0  0  0
   62.8170   32.7740   46.7070 O   0  0  0  0  0  0  0  0  0  0  0  0
   62.6590   31.6710   47.5900 C   0  0  0  0  0  0  0  0  0  0  0  0
   63.6850   31.6450   48.7390 C   0  0  0  0  0  0  0  0  0  0  0  0
   59.7820   33.1710   48.6080 C   0  0  0  0  0  0  0  0  0  0  0  0
   59.9110   34.5230   48.2320 C   0  0  0  0  0  0  0  0  0  0  0  0
   59.5440   34.9440   46.9550 C   0  0  0  0  0  0  0  0  0  0  0  0
   59.0420   34.0270   46.0330 C   0  0  0  0  0  0  0  0  0  0  0  0
   58.9110   32.6820   46.3800 C   0  0  0  0  0  0  0  0  0  0  0  0
   59.2790   32.2280   47.6660 C   0  0  0  0  0  0  0  0  0  0  0  0
   58.4488   31.3580   42.3993 H   0  0  0  0  0  0  0  0  0  0  0  0
   56.8270   30.6253   42.1556 H   0  0  0  0  0  0  0  0  0  0  0  0
   57.0146   32.4117   42.1556 H   0  0  0  0  0  0  0  0  0  0  0  0
   58.1043   31.4854   44.6279 H   0  0  0  0  0  0  0  0  0  0  0  0
   56.5773   32.4084   44.3658 H   0  0  0  0  0  0  0  0  0  0  0  0
   54.8288   29.0886   43.7154 H   0  0  0  0  0  0  0  0  0  0  0  0
   55.2153   30.5577   42.7567 H   0  0  0  0  0  0  0  0  0  0  0  0
   56.3461   29.1620   42.7567 H   0  0  0  0  0  0  0  0  0  0  0  0
   57.0955   29.3659   46.2625 H   0  0  0  0  0  0  0  0  0  0  0  0
   56.8869   28.2957   44.8283 H   0  0  0  0  0  0  0  0  0  0  0  0
   59.0520   28.6140   44.2837 H   0  0  0  0  0  0  0  0  0  0  0  0
   58.7361   30.3805   44.1128 H   0  0  0  0  0  0  0  0  0  0  0  0
   57.5965   30.0599   46.8060 H   0  0  0  0  0  0  0  0  0  0  0  0
   58.6364   28.8285   47.5916 H   0  0  0  0  0  0  0  0  0  0  0  0
   59.4134   29.4227   49.6371 H   0  0  0  0  0  0  0  0  0  0  0  0
   60.2868   31.0725   51.2665 H   0  0  0  0  0  0  0  0  0  0  0  0
   62.4313   34.7442   50.7602 H   0  0  0  0  0  0  0  0  0  0  0  0
   62.0215   33.9252   52.3249 H   0  0  0  0  0  0  0  0  0  0  0  0
   63.5560   32.3965   51.6327 H   0  0  0  0  0  0  0  0  0  0  0  0
   62.1636   31.7802   50.6469 H   0  0  0  0  0  0  0  0  0  0  0  0
   61.9852   34.0762   48.9579 H   0  0  0  0  0  0  0  0  0  0  0  0
   63.5558   34.9420   49.2102 H   0  0  0  0  0  0  0  0  0  0  0  0
   63.0014   34.8170   46.8176 H   0  0  0  0  0  0  0  0  0  0  0  0
   64.4819   33.8276   47.2254 H   0  0  0  0  0  0  0  0  0  0  0  0
   61.6503   31.7172   48.0263 H   0  0  0  0  0  0  0  0  0  0  0  0
   62.8184   30.7588   46.9963 H   0  0  0  0  0  0  0  0  0  0  0  0
   63.4878   30.7678   49.3727 H   0  0  0  0  0  0  0  0  0  0  0  0
   64.6914   31.5957   48.2978 H   0  0  0  0  0  0  0  0  0  0  0  0
   60.3054   35.2535   48.9537 H   0  0  0  0  0  0  0  0  0  0  0  0
   59.6507   36.0022   46.6742 H   0  0  0  0  0  0  0  0  0  0  0  0
   58.7481   34.3650   45.0283 H   0  0  0  0  0  0  0  0  0  0  0  0
   58.5165   31.9666   45.6434 H   0  0  0  0  0  0  0  0  0  0  0  0
  1  2  1  0
  2  3  1  0
  3  4  1  0
  3  5  1  0
  5  6  1  0
  6  7  1  0
  7  8  1  0
  8  9  1  0
  9 10  2  0
 10 11  1  0
 11 12  2  0
 12 13  1  0
 13 14  1  0
 14 15  1  0
 15 16  1  0
 16 17  1  0
 17 18  1  0
 18 19  1  0
 19 20  1  0
 20 21  1  0
 12 22  1  0
 22 23  2  0
 23 24  1  0
 24 25  2  0
 25 26  1  0
 26 27  2  0
 27  9  1  0
 21 16  1  0
 27 22  1  0
  1 28  1  0
  1 29  1  0
  1 30  1  0
  2 31  1  0
  2 32  1  0
  4 33  1  0
  4 34  1  0
  4 35  1  0
  5 36  1  0
  5 37  1  0
  6 38  1  0
  6 39  1  0
  8 40  1  0
  8 41  1  0
 10 42  1  0
 11 43  1  0
 14 44  1  0
 14 45  1  0
 15 46  1  0
 15 47  1  0
 17 48  1  0
 17 49  1  0
 18 50  1  0
 18 51  1  0
 20 52  1  0
 20 53  1  0
 21 54  1  0
 21 55  1  0
 23 56  1  0
 24 57  1  0
 25 58  1  0
 26 59  1  0
M  END
>  <UniqueID>  (15) 
15

>  <SMILES>  (15) 
CCN(C)CCOCc1ccc(OCCN2CCOCC2)c2ccccc12

>  <Energy>  (15) 
79.15071332306525

>  <Genealogy>  (15) 
CCN(C)CCOCc1ccc(OCCN2CCOCC2)c2ccccc12 (3D coordinates assigned)
CCN(C)CCOCc1ccc(OCCN2CCOCC2)c2ccccc12 (nonaromatic ring conformer: 79.15071332306525 kcal/mol)

>  <smiles>  (15) 
CCN(C)CCOCc1ccc(OCCN2CCOCC2)c2ccccc12

>  <score_type>  (15) 
oracle

>  <origin>  (15) 
adg

>  <m_score__min__energy>  (15) 
-7.4800000000000004

>  <m_primary>  (15) 
energy

$$$$
15:0
     RDKit          3D

 63 65  0  0  0  0  0  0  0  0999 V2000
   66.7830   32.8550   50.1540 C   0  0  0  0  0  0  0  0  0  0  0  0
   65.8140   31.7250   50.5180 C   0  0  0  0  0  0  0  0  0  0  0  0
   64.4820   32.2150   50.9190 N   0  0  0  0  0  0  0  0  0  0  0  0
   64.4050   33.6920   50.9380 C   0  0  0  0  0  0  0  0  0  0  0  0
   62.9610   34.2020   50.6750 C   0  0  0  0  0  0  0  0  0  0  0  0
   62.6830   34.5130   49.2540 N   0  0  0  0  0  0  0  0  0  0  0  0
   61.2710   34.2720   48.9060 C   0  0  0  0  0  0  0  0  0  0  0  0
   63.6150   33.8340   48.3220 C   0  0  0  0  0  0  0  0  0  0  0  0
   62.9040   32.7110   47.5560 C   0  0  0  0  0  0  0  0  0  0  0  0
   63.0400   31.4110   48.2340 N   0  0  0  0  0  0  0  0  0  0  0  0
   61.9030   31.0870   49.1170 C   0  0  0  0  0  0  0  0  0  0  0  0
   60.6800   30.5360   48.3630 C   0  0  0  0  0  0  0  0  0  0  0  0
   60.8900   30.5360   46.9160 N   0  0  0  0  0  0  0  0  0  0  0  0
   59.7530   30.5900   46.0400 C   0  0  0  0  0  0  0  0  0  0  0  0
   59.1360   31.8210   45.7610 C   0  0  0  0  0  0  0  0  0  0  0  0
   59.5500   33.0000   46.4150 C   0  0  0  0  0  0  0  0  0  0  0  0
   58.9030   34.2100   46.1770 C   0  0  0  0  0  0  0  0  0  0  0  0
   57.8240   34.2640   45.3030 C   0  0  0  0  0  0  0  0  0  0  0  0
   57.4000   33.1120   44.6390 C   0  0  0  0  0  0  0  0  0  0  0  0
   58.0640   31.8720   44.8290 C   0  0  0  0  0  0  0  0  0  0  0  0
   57.6810   30.7300   44.1490 N   0  0  0  0  0  0  0  0  0  0  0  0
   56.7900   30.8330   42.9710 C   0  0  0  0  0  0  0  0  0  0  0  0
   58.1550   29.4950   44.5530 C   0  0  0  0  0  0  0  0  0  0  0  0
   57.5910   28.2860   44.0710 C   0  0  0  0  0  0  0  0  0  0  0  0
   58.1150   27.0480   44.4410 C   0  0  0  0  0  0  0  0  0  0  0  0
   59.2020   26.9790   45.3050 C   0  0  0  0  0  0  0  0  0  0  0  0
   59.7570   28.1470   45.8250 C   0  0  0  0  0  0  0  0  0  0  0  0
   59.2280   29.4110   45.4820 C   0  0  0  0  0  0  0  0  0  0  0  0
   67.1752   33.3124   51.0743 H   0  0  0  0  0  0  0  0  0  0  0  0
   67.6165   32.4472   49.5632 H   0  0  0  0  0  0  0  0  0  0  0  0
   66.2529   33.6165   49.5632 H   0  0  0  0  0  0  0  0  0  0  0  0
   65.6972   31.0681   49.6435 H   0  0  0  0  0  0  0  0  0  0  0  0
   66.2409   31.1901   51.3792 H   0  0  0  0  0  0  0  0  0  0  0  0
   63.7930   31.8350   50.2280 H   0  0  0  0  0  0  0  0  0  0  0  0
   64.2350   31.8340   51.8650 H   0  0  0  0  0  0  0  0  0  0  0  0
   64.7351   34.0524   51.9235 H   0  0  0  0  0  0  0  0  0  0  0  0
   65.0529   34.0768   50.1367 H   0  0  0  0  0  0  0  0  0  0  0  0
   62.2544   33.4258   51.0041 H   0  0  0  0  0  0  0  0  0  0  0  0
   62.8478   35.1419   51.2352 H   0  0  0  0  0  0  0  0  0  0  0  0
   60.6784   34.1709   49.8272 H   0  0  0  0  0  0  0  0  0  0  0  0
   60.8893   35.1180   48.3155 H   0  0  0  0  0  0  0  0  0  0  0  0
   61.1916   33.3473   48.3155 H   0  0  0  0  0  0  0  0  0  0  0  0
   64.0043   34.5697   47.6028 H   0  0  0  0  0  0  0  0  0  0  0  0
   64.4370   33.3944   48.9061 H   0  0  0  0  0  0  0  0  0  0  0  0
   61.8354   32.9586   47.4731 H   0  0  0  0  0  0  0  0  0  0  0  0
   63.3705   32.6277   46.5633 H   0  0  0  0  0  0  0  0  0  0  0  0
   63.9310   31.4000   48.7820 H   0  0  0  0  0  0  0  0  0  0  0  0
   62.2321   30.3320   49.8461 H   0  0  0  0  0  0  0  0  0  0  0  0
   61.5906   32.0243   49.6006 H   0  0  0  0  0  0  0  0  0  0  0  0
   60.4914   29.5046   48.6956 H   0  0  0  0  0  0  0  0  0  0  0  0
   59.8203   31.1856   48.5841 H   0  0  0  0  0  0  0  0  0  0  0  0
   61.8150   30.8370   46.5390 H   0  0  0  0  0  0  0  0  0  0  0  0
   60.3930   32.9634   47.1207 H   0  0  0  0  0  0  0  0  0  0  0  0
   59.2468   35.1248   46.6819 H   0  0  0  0  0  0  0  0  0  0  0  0
   57.3025   35.2176   45.1340 H   0  0  0  0  0  0  0  0  0  0  0  0
   56.5379   33.1658   43.9579 H   0  0  0  0  0  0  0  0  0  0  0  0
   55.7497   30.9533   43.3075 H   0  0  0  0  0  0  0  0  0  0  0  0
   57.0823   31.7033   42.3651 H   0  0  0  0  0  0  0  0  0  0  0  0
   56.8760   29.9189   42.3651 H   0  0  0  0  0  0  0  0  0  0  0  0
   56.7252   28.3258   43.3936 H   0  0  0  0  0  0  0  0  0  0  0  0
   57.6671   26.1233   44.0482 H   0  0  0  0  0  0  0  0  0  0  0  0
   59.6247   26.0010   45.5787 H   0  0  0  0  0  0  0  0  0  0  0  0
   60.6158   28.0838   46.5095 H   0  0  0  0  0  0  0  0  0  0  0  0
  1  2  1  0
  2  3  1  0
  3  4  1  0
  4  5  1  0
  5  6  1  0
  6  7  1  0
  6  8  1  0
  8  9  1  0
  9 10  1  0
 10 11  1  0
 11 12  1  0
 12 13  1  0
 13 14  1  0
 14 15  2  0
 15 16  1  0
 16 17  2  0
 17 18  1  0
 18 19  2  0
 19 20  1  0
 20 21  2  0
 21 22  1  0
 21 23  1  0
 23 24  2  0
 24 25  1  0
 25 26  2  0
 26 27  1  0
 27 28  2  0
 28 14  1  0
 20 15  1  0
 28 23  1  0
  1 29  1  0
  1 30  1  0
  1 31  1  0
  2 32  1  0
  2 33  1  0
  3 34  1  0
  3 35  1  0
  4 36  1  0
  4 37  1  0
  5 38  1  0
  5 39  1  0
  7 40  1  0
  7 41  1  0
  7 42  1  0
  8 43  1  0
  8 44  1  0
  9 45  1  0
  9 46  1  0
 10 47  1  0
 11 48  1  0
 11 49  1  0
 12 50  1  0
 12 51  1  0
 13 52  1  0
 16 53  1  0
 17 54  1  0
 18 55  1  0
 19 56  1  0
 22 57  1  0
 22 58  1  0
 22 59  1  0
 24 60  1  0
 25 61  1  0
 26 62  1  0
 27 63  1  0
M  CHG  2   3   1  21   1
M  END
>  <UniqueID>  (16) 
16

>  <SMILES>  (16) 
CC[NH2+]CCN(C)CCNCCNc1c2ccccc2[n+](C)c2ccccc12

>  <Energy>  (16) 
93.42821299373631

>  <Genealogy>  (16) 
CC[NH2+]CCN(C)CCNCCNc1c2ccccc2[n+](C)c2ccccc12 (protonated)
CC[NH2+]CCN(C)CCNCCNc1c2ccccc2[n+](C)c2ccccc12 (3D coordinates assigned)
CC[NH2+]CCN(C)CCNCCNc1c2ccccc2[n+](C)c2ccccc12 (optimized conformer: 93.42821299373631 kcal/mol)

>  <smiles>  (16) 
CCNCCN(C)CCNCCNc1c2ccccc2[n+](C)c2ccccc12

>  <score_type>  (16) 
oracle

>  <origin>  (16) 
adg

>  <m_score__min__energy>  (16) 
-4.46

>  <m_primary>  (16) 
energy

$$$$
16:0
     RDKit          3D

 48 52  0  0  0  0  0  0  0  0999 V2000
   56.0290   29.8690   44.3310 C   0  0  0  0  0  0  0  0  0  0  0  0
   57.5000   30.2060   44.1140 C   0  0  0  0  0  0  0  0  0  0  0  0
   58.3250   29.5980   45.1650 N   0  0  0  0  0  0  0  0  0  0  0  0
   58.4880   28.2600   45.3700 C   0  0  0  0  0  0  0  0  0  0  0  0
   57.8330   27.2040   44.7260 C   0  0  0  0  0  0  0  0  0  0  0  0
   58.1830   25.8870   45.0830 C   0  0  0  0  0  0  0  0  0  0  0  0
   57.3830   24.5340   44.3040 Cl  0  0  0  0  0  0  0  0  0  0  0  0
   59.1740   25.6490   46.0610 C   0  0  0  0  0  0  0  0  0  0  0  0
   59.8290   26.7200   46.6900 C   0  0  0  0  0  0  0  0  0  0  0  0
   59.4580   28.0100   46.3190 C   0  0  0  0  0  0  0  0  0  0  0  0
   59.9210   29.2360   46.7090 C   0  0  0  0  0  0  0  0  0  0  0  0
   60.9060   29.5380   47.5850 N   0  0  0  0  0  0  0  0  0  0  0  0
   61.2180   30.8520   47.7910 C   0  0  0  0  0  0  0  0  0  0  0  0
   62.2930   31.2230   48.7450 C   0  0  0  0  0  0  0  0  0  0  0  0
   63.3450   32.0710   48.3470 C   0  0  0  0  0  0  0  0  0  0  0  0
   64.3560   32.4190   49.2480 C   0  0  0  0  0  0  0  0  0  0  0  0
   64.3300   31.9270   50.5550 C   0  0  0  0  0  0  0  0  0  0  0  0
   63.2940   31.0860   50.9630 C   0  0  0  0  0  0  0  0  0  0  0  0
   62.2790   30.7340   50.0670 C   0  0  0  0  0  0  0  0  0  0  0  0
   60.5280   31.8280   47.1190 N   0  0  0  0  0  0  0  0  0  0  0  0
   59.5360   31.5380   46.2250 C   0  0  0  0  0  0  0  0  0  0  0  0
   58.8090   32.6100   45.6240 N   0  0  0  0  0  0  0  0  0  0  0  0
   57.3730   32.7450   45.8020 C   0  0  0  0  0  0  0  0  0  0  0  0
   57.0560   34.2090   45.5160 C   0  0  0  0  0  0  0  0  0  0  0  0
   58.3090   34.7920   44.8670 C   0  0  0  0  0  0  0  0  0  0  0  0
   59.4460   33.8590   45.2550 C   0  0  0  0  0  0  0  0  0  0  0  0
   59.2260   30.1880   46.0050 C   0  0  0  0  0  0  0  0  0  0  0  0
   55.8191   29.8209   45.4097 H   0  0  0  0  0  0  0  0  0  0  0  0
   55.4027   30.6469   43.8699 H   0  0  0  0  0  0  0  0  0  0  0  0
   55.8039   28.8960   43.8699 H   0  0  0  0  0  0  0  0  0  0  0  0
   57.8193   29.8208   43.1344 H   0  0  0  0  0  0  0  0  0  0  0  0
   57.6247   31.2983   44.1498 H   0  0  0  0  0  0  0  0  0  0  0  0
   57.0657   27.3972   43.9618 H   0  0  0  0  0  0  0  0  0  0  0  0
   59.4350   24.6154   46.3323 H   0  0  0  0  0  0  0  0  0  0  0  0
   60.6068   26.5464   47.4482 H   0  0  0  0  0  0  0  0  0  0  0  0
   63.3714   32.4625   47.3194 H   0  0  0  0  0  0  0  0  0  0  0  0
   65.1734   33.0815   48.9269 H   0  0  0  0  0  0  0  0  0  0  0  0
   65.1260   32.2024   51.2625 H   0  0  0  0  0  0  0  0  0  0  0  0
   63.2754   30.6986   51.9924 H   0  0  0  0  0  0  0  0  0  0  0  0
   61.4649   30.0715   50.3961 H   0  0  0  0  0  0  0  0  0  0  0  0
   56.8365   32.0920   45.0979 H   0  0  0  0  0  0  0  0  0  0  0  0
   57.0610   32.4532   46.8156 H   0  0  0  0  0  0  0  0  0  0  0  0
   56.1989   34.2877   44.8310 H   0  0  0  0  0  0  0  0  0  0  0  0
   56.7894   34.7506   46.4356 H   0  0  0  0  0  0  0  0  0  0  0  0
   58.1951   34.8236   43.7734 H   0  0  0  0  0  0  0  0  0  0  0  0
   58.4975   35.8227   45.2019 H   0  0  0  0  0  0  0  0  0  0  0  0
   60.1269   33.7074   44.4045 H   0  0  0  0  0  0  0  0  0  0  0  0
   60.0498   34.2694   46.0778 H   0  0  0  0  0  0  0  0  0  0  0  0
  1  2  1  0
  2  3  1  0
  3  4  1  0
  4  5  2  0
  5  6  1  0
  6  7  1  0
  6  8  2  0
  8  9  1  0
  9 10  2  0
 10 11  1  0
 11 12  2  0
 12 13  1  0
 13 14  1  0
 14 15  2  0
 15 16  1  0
 16 17  2  0
 17 18  1  0
 18 19  2  0
 13 20  2  0
 20 21  1  0
 21 22  1  0
 22 23  1  0
 23 24  1  0
 24 25  1  0
 25 26  1  0
 21 27  2  0
 27  3  1  0
 10  4  1  0
 27 11  1  0
 19 14  1  0
 26 22  1  0
  1 28  1  0
  1 29  1  0
  1 30  1  0
  2 31  1  0
  2 32  1  0
  5 33  1  0
  8 34  1  0
  9 35  1  0
 15 36  1  0
 16 37  1  0
 17 38  1  0
 18 39  1  0
 19 40  1  0
 23 41  1  0
 23 42  1  0
 24 43  1  0
 24 44  1  0
 25 45  1  0
 25 46  1  0
 26 47  1  0
 26 48  1  0
M  END
>  <UniqueID>  (17) 
17

>  <SMILES>  (17) 
CCn1c2cc(Cl)ccc2c2nc(-c3ccccc3)nc(N3CCCC3)c21

>  <Energy>  (17) 
104.43269349605157

>  <Genealogy>  (17) 
CCn1c2cc(Cl)ccc2c2nc(-c3ccccc3)nc(N3CCCC3)c21 (3D coordinates assigned)
CCn1c2cc(Cl)ccc2c2nc(-c3ccccc3)nc(N3CCCC3)c21 (nonaromatic ring conformer: 104.43269349605157 kcal/mol)

>  <smiles>  (17) 
CCn1c2cc(Cl)ccc2c2nc(-c3ccccc3)nc(N3CCCC3)c21

>  <score_type>  (17) 
oracle

>  <origin>  (17) 
adg

>  <m_score__min__energy>  (17) 
-7.8899999999999997

>  <m_primary>  (17) 
energy

$$$$
17:0
     RDKit          3D

 49 51  0  0  0  0  0  0  0  0999 V2000
   59.0220   28.0560   46.6530 C   0  0  0  0  0  0  0  0  0  0  0  0
   58.8660   29.5390   46.6310 C   0  0  0  0  0  0  0  0  0  0  0  0
   58.5310   30.1480   47.6840 O   0  0  0  0  0  0  0  0  0  0  0  0
   59.1470   30.2640   45.4310 N   0  0  0  0  0  0  0  0  0  0  0  0
   58.2840   30.2650   44.2560 C   0  0  0  0  0  0  0  0  0  0  0  0
   57.4000   31.5210   44.2370 C   0  0  0  0  0  0  0  0  0  0  0  0
   57.1740   32.0690   45.5840 N   0  0  0  0  0  0  0  0  0  0  0  0
   57.3270   33.5290   45.6250 C   0  0  0  0  0  0  0  0  0  0  0  0
   58.2410   33.9230   46.7830 C   0  0  0  0  0  0  0  0  0  0  0  0
   59.0410   32.7770   47.2090 N   0  0  0  0  0  0  0  0  0  0  0  0
   59.9450   32.8700   48.3230 C   0  0  0  0  0  0  0  0  0  0  0  0
   59.4830   32.6440   49.6330 C   0  0  0  0  0  0  0  0  0  0  0  0
   58.1470   32.2500   49.8700 C   0  0  0  0  0  0  0  0  0  0  0  0
   57.7010   31.9830   51.1620 C   0  0  0  0  0  0  0  0  0  0  0  0
   58.5800   32.0800   52.2340 C   0  0  0  0  0  0  0  0  0  0  0  0
   59.9050   32.4620   52.0250 C   0  0  0  0  0  0  0  0  0  0  0  0
   60.3800   32.7800   50.7270 C   0  0  0  0  0  0  0  0  0  0  0  0
   61.6830   33.1880   50.5100 N   0  0  0  0  0  0  0  0  0  0  0  0
   62.5280   33.6020   51.6520 C   0  0  0  0  0  0  0  0  0  0  0  0
   62.1880   33.2290   49.2230 C   0  0  0  0  0  0  0  0  0  0  0  0
   63.5760   33.3790   48.9720 C   0  0  0  0  0  0  0  0  0  0  0  0
   64.0660   33.4910   47.6720 C   0  0  0  0  0  0  0  0  0  0  0  0
   63.1930   33.4460   46.5900 C   0  0  0  0  0  0  0  0  0  0  0  0
   61.8290   33.2520   46.8010 C   0  0  0  0  0  0  0  0  0  0  0  0
   61.3140   33.1140   48.1080 C   0  0  0  0  0  0  0  0  0  0  0  0
   59.0588   27.7066   47.6954 H   0  0  0  0  0  0  0  0  0  0  0  0
   58.1679   27.5898   46.1399 H   0  0  0  0  0  0  0  0  0  0  0  0
   59.9544   27.7777   46.1399 H   0  0  0  0  0  0  0  0  0  0  0  0
   58.9070   30.2474   43.3496 H   0  0  0  0  0  0  0  0  0  0  0  0
   57.6371   29.3759   44.2897 H   0  0  0  0  0  0  0  0  0  0  0  0
   57.8907   32.2890   43.6211 H   0  0  0  0  0  0  0  0  0  0  0  0
   56.4217   31.2361   43.8226 H   0  0  0  0  0  0  0  0  0  0  0  0
   57.8410   31.6280   46.2610 H   0  0  0  0  0  0  0  0  0  0  0  0
   57.7669   33.8764   44.6785 H   0  0  0  0  0  0  0  0  0  0  0  0
   56.3400   33.9929   45.7684 H   0  0  0  0  0  0  0  0  0  0  0  0
   58.9109   34.7325   46.4575 H   0  0  0  0  0  0  0  0  0  0  0  0
   57.6232   34.2623   47.6275 H   0  0  0  0  0  0  0  0  0  0  0  0
   59.0960   31.9460   46.5780 H   0  0  0  0  0  0  0  0  0  0  0  0
   57.4508   32.1530   49.0239 H   0  0  0  0  0  0  0  0  0  0  0  0
   56.6533   31.6954   51.3339 H   0  0  0  0  0  0  0  0  0  0  0  0
   58.2292   31.8545   53.2519 H   0  0  0  0  0  0  0  0  0  0  0  0
   60.5932   32.5176   52.8813 H   0  0  0  0  0  0  0  0  0  0  0  0
   62.0186   33.3524   52.5945 H   0  0  0  0  0  0  0  0  0  0  0  0
   63.4919   33.0741   51.6052 H   0  0  0  0  0  0  0  0  0  0  0  0
   62.7016   34.6872   51.6052 H   0  0  0  0  0  0  0  0  0  0  0  0
   64.2781   33.4074   49.8183 H   0  0  0  0  0  0  0  0  0  0  0  0
   65.1455   33.6153   47.5013 H   0  0  0  0  0  0  0  0  0  0  0  0
   63.5795   33.5636   45.5669 H   0  0  0  0  0  0  0  0  0  0  0  0
   61.1464   33.2059   45.9396 H   0  0  0  0  0  0  0  0  0  0  0  0
  1  2  1  0
  2  3  2  0
  2  4  1  0
  4  5  1  0
  5  6  1  0
  6  7  1  0
  7  8  1  0
  8  9  1  0
  9 10  1  0
 10 11  1  0
 11 12  2  0
 12 13  1  0
 13 14  2  0
 14 15  1  0
 15 16  2  0
 16 17  1  0
 17 18  2  0
 18 19  1  0
 18 20  1  0
 20 21  2  0
 21 22  1  0
 22 23  2  0
 23 24  1  0
 24 25  2  0
 25 11  1  0
 17 12  1  0
 25 20  1  0
  1 26  1  0
  1 27  1  0
  1 28  1  0
  5 29  1  0
  5 30  1  0
  6 31  1  0
  6 32  1  0
  7 33  1  0
  8 34  1  0
  8 35  1  0
  9 36  1  0
  9 37  1  0
 10 38  1  0
 13 39  1  0
 14 40  1  0
 15 41  1  0
 16 42  1  0
 19 43  1  0
 19 44  1  0
 19 45  1  0
 21 46  1  0
 22 47  1  0
 23 48  1  0
 24 49  1  0
M  CHG  2   4  -1  18   1
M  END
>  <UniqueID>  (18) 
18

>  <SMILES>  (18) 
CC(=O)[N-]CCNCCNc1c2ccccc2[n+](C)c2ccccc12

>  <Energy>  (18) 
69.54959757932887

>  <Genealogy>  (18) 
CC(=O)[N-]CCNCCNc1c2ccccc2[n+](C)c2ccccc12 (protonated)
CC(=O)[N-]CCNCCNc1c2ccccc2[n+](C)c2ccccc12 (3D coordinates assigned)
CC(=O)[N-]CCNCCNc1c2ccccc2[n+](C)c2ccccc12 (optimized conformer: 69.54959757932887 kcal/mol)

>  <smiles>  (18) 
CC(=O)NCCNCCNc1c2ccccc2[n+](C)c2ccccc12

>  <score_type>  (18) 
oracle

>  <origin>  (18) 
adg

>  <m_score__min__energy>  (18) 
-8.4800000000000004

>  <m_primary>  (18) 
energy

$$$$
18:0
     RDKit          3D

 46 47  0  0  0  0  0  0  0  0999 V2000
   58.4650   32.4050   48.1610 C   0  0  0  0  0  0  0  0  0  0  0  0
   59.9370   32.5960   48.5080 C   0  0  0  0  0  0  0  0  0  0  0  0
   60.6450   33.3050   47.4090 N   0  0  0  0  0  0  0  0  0  0  0  0
   61.9600   33.8420   47.8220 C   0  0  0  0  0  0  0  0  0  0  0  0
   62.9910   33.5730   46.7410 C   0  0  0  0  0  0  0  0  0  0  0  0
   59.7950   34.3180   46.7330 C   0  0  0  0  0  0  0  0  0  0  0  0
   59.6270   34.0580   45.2860 N   0  0  0  0  0  0  0  0  0  0  0  0
   58.2120   34.1250   44.9000 C   0  0  0  0  0  0  0  0  0  0  0  0
   57.8870   33.0370   43.8750 C   0  0  0  0  0  0  0  0  0  0  0  0
   57.0930   32.0010   44.4570 O   0  0  0  0  0  0  0  0  0  0  0  0
   57.5730   30.7590   44.9020 C   0  0  0  0  0  0  0  0  0  0  0  0
   58.9260   30.5300   45.2150 C   0  0  0  0  0  0  0  0  0  0  0  0
   59.3550   29.2650   45.6230 C   0  0  0  0  0  0  0  0  0  0  0  0
   58.4360   28.2170   45.7580 C   0  0  0  0  0  0  0  0  0  0  0  0
   57.0770   28.4440   45.4680 C   0  0  0  0  0  0  0  0  0  0  0  0
   56.6570   29.7110   45.0390 C   0  0  0  0  0  0  0  0  0  0  0  0
   56.1260   27.3800   45.6190 N   0  0  0  0  0  0  0  0  0  0  0  0
   56.5080   26.1580   46.2550 C   0  0  0  0  0  0  0  0  0  0  0  0
   55.6900   25.2040   46.3270 O   0  0  0  0  0  0  0  0  0  0  0  0
   57.8600   26.0430   46.8970 C   0  0  0  0  0  0  0  0  0  0  0  0
   58.9100   26.8240   46.0940 C   0  0  0  0  0  0  0  0  0  0  0  0
   57.8768   32.3287   49.0874 H   0  0  0  0  0  0  0  0  0  0  0  0
   58.1124   33.2649   47.5726 H   0  0  0  0  0  0  0  0  0  0  0  0
   58.3436   31.4836   47.5726 H   0  0  0  0  0  0  0  0  0  0  0  0
   60.0170   33.1885   49.4313 H   0  0  0  0  0  0  0  0  0  0  0  0
   60.3996   31.6081   48.6492 H   0  0  0  0  0  0  0  0  0  0  0  0
   61.8763   34.9267   47.9842 H   0  0  0  0  0  0  0  0  0  0  0  0
   62.2756   33.3497   48.7537 H   0  0  0  0  0  0  0  0  0  0  0  0
   63.9547   33.3216   47.2079 H   0  0  0  0  0  0  0  0  0  0  0  0
   62.6560   32.7322   46.1159 H   0  0  0  0  0  0  0  0  0  0  0  0
   63.1095   34.4703   46.1159 H   0  0  0  0  0  0  0  0  0  0  0  0
   58.8025   34.3158   47.2072 H   0  0  0  0  0  0  0  0  0  0  0  0
   60.2970   35.2913   46.8367 H   0  0  0  0  0  0  0  0  0  0  0  0
   60.1520   34.7560   44.7060 H   0  0  0  0  0  0  0  0  0  0  0  0
   57.5856   33.9808   45.7926 H   0  0  0  0  0  0  0  0  0  0  0  0
   58.0105   35.1092   44.4519 H   0  0  0  0  0  0  0  0  0  0  0  0
   57.3330   33.4865   43.0377 H   0  0  0  0  0  0  0  0  0  0  0  0
   58.8313   32.5965   43.5225 H   0  0  0  0  0  0  0  0  0  0  0  0
   59.6511   31.3536   45.1377 H   0  0  0  0  0  0  0  0  0  0  0  0
   60.4194   29.0911   45.8392 H   0  0  0  0  0  0  0  0  0  0  0  0
   55.5954   29.8827   44.8076 H   0  0  0  0  0  0  0  0  0  0  0  0
   55.1420   27.4990   45.2860 H   0  0  0  0  0  0  0  0  0  0  0  0
   57.8107   26.4492   47.9181 H   0  0  0  0  0  0  0  0  0  0  0  0
   58.1507   24.9824   46.9220 H   0  0  0  0  0  0  0  0  0  0  0  0
   59.8325   26.8955   46.6889 H   0  0  0  0  0  0  0  0  0  0  0  0
   59.0886   26.2867   45.1509 H   0  0  0  0  0  0  0  0  0  0  0  0
  1  2  1  0
  2  3  1  0
  3  4  1  0
  4  5  1  0
  3  6  1  0
  6  7  1  0
  7  8  1  0
  8  9  1  0
  9 10  1  0
 10 11  1  0
 11 12  2  0
 12 13  1  0
 13 14  2  0
 14 15  1  0
 15 16  2  0
 15 17  1  0
 17 18  1  0
 18 19  2  0
 18 20  1  0
 20 21  1  0
 16 11  1  0
 21 14  1  0
  1 22  1  0
  1 23  1  0
  1 24  1  0
  2 25  1  0
  2 26  1  0
  4 27  1  0
  4 28  1  0
  5 29  1  0
  5 30  1  0
  5 31  1  0
  6 32  1  0
  6 33  1  0
  7 34  1  0
  8 35  1  0
  8 36  1  0
  9 37  1  0
  9 38  1  0
 12 39  1  0
 13 40  1  0
 16 41  1  0
 17 42  1  0
 20 43  1  0
 20 44  1  0
 21 45  1  0
 21 46  1  0
M  END
>  <UniqueID>  (19) 
19

>  <SMILES>  (19) 
CCN(CC)CNCCOc1ccc2c(c1)NC(=O)CC2

>  <Energy>  (19) 
45.90467781104622

>  <Genealogy>  (19) 
CCN(CC)CNCCOc1ccc2c(c1)NC(=O)CC2 (3D coordinates assigned)
CCN(CC)CNCCOc1ccc2c(c1)NC(=O)CC2 (nonaromatic ring conformer: 45.90467781104622 kcal/mol)

>  <smiles>  (19) 
CCN(CC)CNCCOc1ccc2c(c1)NC(=O)CC2

>  <score_type>  (19) 
oracle

>  <origin>  (19) 
adg

>  <m_score__min__energy>  (19) 
-6.79

>  <m_primary>  (19) 
energy

$$$$
19:0
     RDKit          3D

 50 52  0  0  0  0  0  0  0  0999 V2000
   63.3350   33.8450   46.3380 C   0  0  0  0  0  0  0  0  0  0  0  0
   63.1390   33.7530   47.8560 C   0  0  0  0  0  0  0  0  0  0  0  0
   63.8500   32.5860   48.4470 N   0  0  0  0  0  0  0  0  0  0  0  0
   64.3190   32.9110   49.8220 C   0  0  0  0  0  0  0  0  0  0  0  0
   65.7290   32.3710   50.0950 C   0  0  0  0  0  0  0  0  0  0  0  0
   62.9550   31.3960   48.4740 C   0  0  0  0  0  0  0  0  0  0  0  0
   61.4680   31.7870   48.4410 C   0  0  0  0  0  0  0  0  0  0  0  0
   60.8160   31.1820   47.2800 N   0  0  0  0  0  0  0  0  0  0  0  0
   59.7880   31.8380   46.5150 C   0  0  0  0  0  0  0  0  0  0  0  0
   59.8830   33.2260   46.3110 C   0  0  0  0  0  0  0  0  0  0  0  0
   59.1100   33.8580   45.3850 N   0  0  0  0  0  0  0  0  0  0  0  0
   59.2710   35.2990   45.1700 C   0  0  0  0  0  0  0  0  0  0  0  0
   58.2880   33.1460   44.5670 C   0  0  0  0  0  0  0  0  0  0  0  0
   58.1310   31.7640   44.7350 C   0  0  0  0  0  0  0  0  0  0  0  0
   57.3170   31.0530   43.8480 C   0  0  0  0  0  0  0  0  0  0  0  0
   57.1410   29.6830   43.9950 C   0  0  0  0  0  0  0  0  0  0  0  0
   57.6950   29.0140   45.0920 C   0  0  0  0  0  0  0  0  0  0  0  0
   57.4190   27.6500   45.2760 C   0  0  0  0  0  0  0  0  0  0  0  0
   57.8580   26.9910   46.4220 C   0  0  0  0  0  0  0  0  0  0  0  0
   58.5430   27.6940   47.4080 C   0  0  0  0  0  0  0  0  0  0  0  0
   58.8370   29.0490   47.2330 C   0  0  0  0  0  0  0  0  0  0  0  0
   58.4880   29.7230   46.0380 C   0  0  0  0  0  0  0  0  0  0  0  0
   58.8120   31.0970   45.7880 C   0  0  0  0  0  0  0  0  0  0  0  0
   64.3113   34.3033   46.1215 H   0  0  0  0  0  0  0  0  0  0  0  0
   63.2988   32.8358   45.9018 H   0  0  0  0  0  0  0  0  0  0  0  0
   62.5355   34.4619   45.9018 H   0  0  0  0  0  0  0  0  0  0  0  0
   63.5240   34.6735   48.3190 H   0  0  0  0  0  0  0  0  0  0  0  0
   62.0637   33.6258   48.0497 H   0  0  0  0  0  0  0  0  0  0  0  0
   64.6850   32.3670   47.8520 H   0  0  0  0  0  0  0  0  0  0  0  0
   64.3283   34.0041   49.9442 H   0  0  0  0  0  0  0  0  0  0  0  0
   63.6305   32.4348   50.5355 H   0  0  0  0  0  0  0  0  0  0  0  0
   65.8936   32.3080   51.1808 H   0  0  0  0  0  0  0  0  0  0  0  0
   65.8309   31.3702   49.6500 H   0  0  0  0  0  0  0  0  0  0  0  0
   66.4733   33.0477   49.6500 H   0  0  0  0  0  0  0  0  0  0  0  0
   63.1754   30.7670   47.5990 H   0  0  0  0  0  0  0  0  0  0  0  0
   63.1412   30.8545   49.4132 H   0  0  0  0  0  0  0  0  0  0  0  0
   60.9779   31.4323   49.3597 H   0  0  0  0  0  0  0  0  0  0  0  0
   61.3845   32.8816   48.3716 H   0  0  0  0  0  0  0  0  0  0  0  0
   61.1540   30.2450   46.9650 H   0  0  0  0  0  0  0  0  0  0  0  0
   60.5950   33.8122   46.9106 H   0  0  0  0  0  0  0  0  0  0  0  0
   59.3282   35.8106   46.1421 H   0  0  0  0  0  0  0  0  0  0  0  0
   60.1954   35.4841   44.6033 H   0  0  0  0  0  0  0  0  0  0  0  0
   58.4102   35.6836   44.6033 H   0  0  0  0  0  0  0  0  0  0  0  0
   57.7403   33.6616   43.7644 H   0  0  0  0  0  0  0  0  0  0  0  0
   56.8118   31.5829   43.0270 H   0  0  0  0  0  0  0  0  0  0  0  0
   56.5636   29.1216   43.2457 H   0  0  0  0  0  0  0  0  0  0  0  0
   56.8529   27.0985   44.5109 H   0  0  0  0  0  0  0  0  0  0  0  0
   57.6632   25.9157   46.5473 H   0  0  0  0  0  0  0  0  0  0  0  0
   58.8547   27.1809   48.3297 H   0  0  0  0  0  0  0  0  0  0  0  0
   59.3475   29.6004   48.0363 H   0  0  0  0  0  0  0  0  0  0  0  0
  1  2  1  0
  2  3  1  0
  3  4  1  0
  4  5  1  0
  3  6  1  0
  6  7  1  0
  7  8  1  0
  8  9  1  0
  9 10  2  0
 10 11  1  0
 11 12  1  0
 11 13  2  0
 13 14  1  0
 14 15  2  0
 15 16  1  0
 16 17  2  0
 17 18  1  0
 18 19  2  0
 19 20  1  0
 20 21  2  0
 21 22  1  0
 22 23  2  0
 23  9  1  0
 23 14  1  0
 22 17  1  0
  1 24  1  0
  1 25  1  0
  1 26  1  0
  2 27  1  0
  2 28  1  0
  3 29  1  0
  4 30  1  0
  4 31  1  0
  5 32  1  0
  5 33  1  0
  5 34  1  0
  6 35  1  0
  6 36  1  0
  7 37  1  0
  7 38  1  0
  8 39  1  0
 10 40  1  0
 12 41  1  0
 12 42  1  0
 12 43  1  0
 13 44  1  0
 15 45  1  0
 16 46  1  0
 18 47  1  0
 19 48  1  0
 20 49  1  0
 21 50  1  0
M  CHG  2   3   1  11   1
M  END
>  <UniqueID>  (20) 
20

>  <SMILES>  (20) 
CC[NH+](CC)CCNc1c[n+](C)cc2ccc3ccccc3c12

>  <Energy>  (20) 
73.58934310311993

>  <Genealogy>  (20) 
CC[NH+](CC)CCNc1c[n+](C)cc2ccc3ccccc3c12 (protonated)
CC[NH+](CC)CCNc1c[n+](C)cc2ccc3ccccc3c12 (3D coordinates assigned)
CC[NH+](CC)CCNc1c[n+](C)cc2ccc3ccccc3c12 (optimized conformer: 73.58934310311993 kcal/mol)

>  <smiles>  (20) 
CCN(CC)CCNc1c[n+](C)cc2ccc3ccccc3c12

>  <score_type>  (20) 
oracle

>  <origin>  (20) 
adg

>  <m_score__min__energy>  (20) 
-4.5700000000000003

>  <m_primary>  (20) 
energy

$$$$
20:0
     RDKit          3D

 85 88  0  0  0  0  0  0  0  0999 V2000
   64.7260   32.3340   49.8290 C   0  0  0  0  0  0  0  0  0  0  0  0
   63.2380   32.1390   50.1380 C   0  0  0  0  0  0  0  0  0  0  0  0
   62.3800   33.1930   49.5670 N   0  0  0  0  0  0  0  0  0  0  0  0
   63.0440   34.0660   48.5830 C   0  0  0  0  0  0  0  0  0  0  0  0
   62.9600   33.5070   47.1600 C   0  0  0  0  0  0  0  0  0  0  0  0
   61.9600   32.5170   47.1090 O   0  0  0  0  0  0  0  0  0  0  0  0
   62.5410   31.2330   47.1370 C   0  0  0  0  0  0  0  0  0  0  0  0
   61.4950   30.2150   47.5920 C   0  0  0  0  0  0  0  0  0  0  0  0
   60.7130   30.7140   48.7330 N   0  0  0  0  0  0  0  0  0  0  0  0
   59.2610   30.5780   48.5310 C   0  0  0  0  0  0  0  0  0  0  0  0
   58.8670   31.1850   47.1890 C   0  0  0  0  0  0  0  0  0  0  0  0
   58.3900   30.3110   46.1730 C   0  0  0  0  0  0  0  0  0  0  0  0
   58.1090   28.9420   46.4330 C   0  0  0  0  0  0  0  0  0  0  0  0
   57.7560   28.0690   45.4080 C   0  0  0  0  0  0  0  0  0  0  0  0
   57.6690   28.5300   44.1040 C   0  0  0  0  0  0  0  0  0  0  0  0
   57.8800   29.8770   43.8260 C   0  0  0  0  0  0  0  0  0  0  0  0
   58.1860   30.8030   44.8580 C   0  0  0  0  0  0  0  0  0  0  0  0
   58.2980   32.1500   44.5980 N   0  0  0  0  0  0  0  0  0  0  0  0
   57.7720   32.6930   43.3220 C   0  0  0  0  0  0  0  0  0  0  0  0
   58.8330   33.0050   45.5420 C   0  0  0  0  0  0  0  0  0  0  0  0
   59.2020   34.3230   45.1810 C   0  0  0  0  0  0  0  0  0  0  0  0
   59.6170   35.2400   46.1290 C   0  0  0  0  0  0  0  0  0  0  0  0
   59.6750   34.8810   47.4620 C   0  0  0  0  0  0  0  0  0  0  0  0
   59.3920   33.5660   47.8740 C   0  0  0  0  0  0  0  0  0  0  0  0
   59.4290   33.2560   49.2450 O   0  0  0  0  0  0  0  0  0  0  0  0
   59.7730   34.1620   50.2970 C   0  0  0  0  0  0  0  0  0  0  0  0
   58.8950   33.9020   51.5410 C   0  0  0  0  0  0  0  0  0  0  0  0
   58.8580   32.4820   52.0330 N   0  0  0  0  0  0  0  0  0  0  0  0
   60.2020   31.9130   51.7310 C   0  0  0  0  0  0  0  0  0  0  0  0
   58.6430   32.4430   53.5100 C   0  0  0  0  0  0  0  0  0  0  0  0
   58.3130   31.0280   54.0210 C   0  0  0  0  0  0  0  0  0  0  0  0
   57.0900   30.4360   53.3820 N   0  0  0  0  0  0  0  0  0  0  0  0
   57.3600   29.0230   53.0080 C   0  0  0  0  0  0  0  0  0  0  0  0
   55.9720   30.4380   54.3610 C   0  0  0  0  0  0  0  0  0  0  0  0
   56.6480   31.1970   52.1750 C   0  0  0  0  0  0  0  0  0  0  0  0
   57.8240   31.6760   51.2920 C   0  0  0  0  0  0  0  0  0  0  0  0
   59.0370   32.5760   46.8920 C   0  0  0  0  0  0  0  0  0  0  0  0
   65.2895   32.4078   50.7708 H   0  0  0  0  0  0  0  0  0  0  0  0
   65.0951   31.4765   49.2472 H   0  0  0  0  0  0  0  0  0  0  0  0
   64.8617   33.2576   49.2472 H   0  0  0  0  0  0  0  0  0  0  0  0
   62.9203   31.1695   49.7267 H   0  0  0  0  0  0  0  0  0  0  0  0
   63.1241   32.1834   51.2312 H   0  0  0  0  0  0  0  0  0  0  0  0
   61.5630   32.7360   49.0970 H   0  0  0  0  0  0  0  0  0  0  0  0
   62.5610   35.0541   48.6040 H   0  0  0  0  0  0  0  0  0  0  0  0
   64.1075   34.1328   48.8560 H   0  0  0  0  0  0  0  0  0  0  0  0
   62.7104   34.3183   46.4603 H   0  0  0  0  0  0  0  0  0  0  0  0
   63.9285   33.0684   46.8778 H   0  0  0  0  0  0  0  0  0  0  0  0
   62.8973   30.9689   46.1304 H   0  0  0  0  0  0  0  0  0  0  0  0
   63.3894   31.2276   47.8371 H   0  0  0  0  0  0  0  0  0  0  0  0
   60.8121   30.0069   46.7552 H   0  0  0  0  0  0  0  0  0  0  0  0
   62.0196   29.3013   47.9083 H   0  0  0  0  0  0  0  0  0  0  0  0
   60.9240   31.7330   48.8370 H   0  0  0  0  0  0  0  0  0  0  0  0
   58.9888   29.5123   48.5437 H   0  0  0  0  0  0  0  0  0  0  0  0
   58.7312   31.1056   49.3378 H   0  0  0  0  0  0  0  0  0  0  0  0
   58.1718   28.5652   47.4645 H   0  0  0  0  0  0  0  0  0  0  0  0
   57.5460   27.0129   45.6331 H   0  0  0  0  0  0  0  0  0  0  0  0
   57.4330   27.8307   43.2883 H   0  0  0  0  0  0  0  0  0  0  0  0
   57.8084   30.2312   42.7870 H   0  0  0  0  0  0  0  0  0  0  0  0
   57.0212   33.4681   43.5352 H   0  0  0  0  0  0  0  0  0  0  0  0
   58.5975   33.1317   42.7422 H   0  0  0  0  0  0  0  0  0  0  0  0
   57.3073   31.8819   42.7422 H   0  0  0  0  0  0  0  0  0  0  0  0
   59.1577   34.6241   44.1239 H   0  0  0  0  0  0  0  0  0  0  0  0
   59.9015   36.2571   45.8214 H   0  0  0  0  0  0  0  0  0  0  0  0
   59.9471   35.6363   48.2139 H   0  0  0  0  0  0  0  0  0  0  0  0
   60.8308   34.0219   50.5644 H   0  0  0  0  0  0  0  0  0  0  0  0
   59.6037   35.1920   49.9501 H   0  0  0  0  0  0  0  0  0  0  0  0
   59.2741   34.5324   52.3589 H   0  0  0  0  0  0  0  0  0  0  0  0
   57.8655   34.1375   51.2334 H   0  0  0  0  0  0  0  0  0  0  0  0
   60.7262   31.6911   52.6723 H   0  0  0  0  0  0  0  0  0  0  0  0
   60.0857   30.9869   51.1489 H   0  0  0  0  0  0  0  0  0  0  0  0
   60.7860   32.6411   51.1489 H   0  0  0  0  0  0  0  0  0  0  0  0
   59.5584   32.7937   54.0091 H   0  0  0  0  0  0  0  0  0  0  0  0
   57.7837   33.0901   53.7398 H   0  0  0  0  0  0  0  0  0  0  0  0
   59.1700   30.3717   53.8093 H   0  0  0  0  0  0  0  0  0  0  0  0
   58.1101   31.1100   55.0990 H   0  0  0  0  0  0  0  0  0  0  0  0
   57.4756   28.4181   53.9195 H   0  0  0  0  0  0  0  0  0  0  0  0
   56.5199   28.6340   52.4139 H   0  0  0  0  0  0  0  0  0  0  0  0
   58.2843   28.9712   52.4139 H   0  0  0  0  0  0  0  0  0  0  0  0
   56.3794   30.4373   55.3828 H   0  0  0  0  0  0  0  0  0  0  0  0
   55.3561   31.3372   54.2124 H   0  0  0  0  0  0  0  0  0  0  0  0
   55.3529   29.5410   54.2124 H   0  0  0  0  0  0  0  0  0  0  0  0
   55.9989   30.5468   51.5701 H   0  0  0  0  0  0  0  0  0  0  0  0
   56.1193   32.0940   52.5298 H   0  0  0  0  0  0  0  0  0  0  0  0
   58.3173   30.7912   50.8632 H   0  0  0  0  0  0  0  0  0  0  0  0
   57.3963   32.3368   50.5236 H   0  0  0  0  0  0  0  0  0  0  0  0
  1  2  1  0
  2  3  1  0
  3  4  1  0
  4  5  1  0
  5  6  1  0
  6  7  1  0
  7  8  1  0
  8  9  1  0
  9 10  1  0
 10 11  1  0
 11 12  2  0
 12 13  1  0
 13 14  2  0
 14 15  1  0
 15 16  2  0
 16 17  1  0
 17 18  2  0
 18 19  1  0
 18 20  1  0
 20 21  2  0
 21 22  1  0
 22 23  2  0
 23 24  1  0
 24 25  1  0
 25 26  1  0
 26 27  1  0
 27 28  1  0
 28 29  1  0
 28 30  1  0
 30 31  1  0
 31 32  1  0
 32 33  1  0
 32 34  1  0
 32 35  1  0
 35 36  1  0
 24 37  2  0
 37 11  1  0
 17 12  1  0
 37 20  1  0
 36 28  1  0
  1 38  1  0
  1 39  1  0
  1 40  1  0
  2 41  1  0
  2 42  1  0
  3 43  1  0
  4 44  1  0
  4 45  1  0
  5 46  1  0
  5 47  1  0
  7 48  1  0
  7 49  1  0
  8 50  1  0
  8 51  1  0
  9 52  1  0
 10 53  1  0
 10 54  1  0
 13 55  1  0
 14 56  1  0
 15 57  1  0
 16 58  1  0
 19 59  1  0
 19 60  1  0
 19 61  1  0
 21 62  1  0
 22 63  1  0
 23 64  1  0
 26 65  1  0
 26 66  1  0
 27 67  1  0
 27 68  1  0
 29 69  1  0
 29 70  1  0
 29 71  1  0
 30 72  1  0
 30 73  1  0
 31 74  1  0
 31 75  1  0
 33 76  1  0
 33 77  1  0
 33 78  1  0
 34 79  1  0
 34 80  1  0
 34 81  1  0
 35 82  1  0
 35 83  1  0
 36 84  1  0
 36 85  1  0
M  CHG  3  18   1  28   1  32   1
M  END
>  <UniqueID>  (21) 
21

>  <SMILES>  (21) 
CCNCCOCCNCc1c2ccccc2[n+](C)c2cccc(OCC[N+]3(C)CC[N+](C)(C)CC3)c12

>  <Energy>  (21) 
143.15039874988332

>  <Genealogy>  (21) 
CCNCCOCCNCc1c2ccccc2[n+](C)c2cccc(OCC[N+]3(C)CC[N+](C)(C)CC3)c12 (3D coordinates assigned)
CCNCCOCCNCc1c2ccccc2[n+](C)c2cccc(OCC[N+]3(C)CC[N+](C)(C)CC3)c12 (nonaromatic ring conformer: 143.15039874988332 kcal/mol)

>  <smiles>  (21) 
CCNCCOCCNCc1c2ccccc2[n+](C)c2cccc(OCC[N+]3(C)CC[N+](C)(C)CC3)c12

>  <score_type>  (21) 
oracle

>  <origin>  (21) 
adg

>  <m_score__min__energy>  (21) 
-4.79

>  <m_primary>  (21) 
energy

$$$$
21:0
     RDKit          3D

 44 43  0  0  0  0  0  0  0  0999 V2000
   56.2900   29.7210   42.6900 C   0  0  0  0  0  0  0  0  0  0  0  0
   55.8730   30.0660   44.1180 C   0  0  0  0  0  0  0  0  0  0  0  0
   56.6400   31.2130   44.6290 N   0  0  0  0  0  0  0  0  0  0  0  0
   57.4980   31.7900   43.5860 C   0  0  0  0  0  0  0  0  0  0  0  0
   58.2010   33.0510   44.1140 C   0  0  0  0  0  0  0  0  0  0  0  0
   57.3340   33.8660   45.0930 C   0  0  0  0  0  0  0  0  0  0  0  0
   57.4910   33.4550   46.5640 C   0  0  0  0  0  0  0  0  0  0  0  0
   58.3290   32.2490   46.6800 N   0  0  0  0  0  0  0  0  0  0  0  0
   58.9190   32.0800   48.0160 C   0  0  0  0  0  0  0  0  0  0  0  0
   60.3980   31.6690   47.9370 C   0  0  0  0  0  0  0  0  0  0  0  0
   60.6360   30.1890   47.5780 C   0  0  0  0  0  0  0  0  0  0  0  0
   60.3650   29.8510   46.1040 C   0  0  0  0  0  0  0  0  0  0  0  0
   58.9220   29.7090   45.8680 N   0  0  0  0  0  0  0  0  0  0  0  0
   58.5980   28.5060   45.0850 C   0  0  0  0  0  0  0  0  0  0  0  0
   57.6180   27.5800   45.8110 C   0  0  0  0  0  0  0  0  0  0  0  0
   57.1373   29.0200   42.7147 H   0  0  0  0  0  0  0  0  0  0  0  0
   55.4440   29.2552   42.1634 H   0  0  0  0  0  0  0  0  0  0  0  0
   56.5890   30.6393   42.1634 H   0  0  0  0  0  0  0  0  0  0  0  0
   54.8018   30.3158   44.1295 H   0  0  0  0  0  0  0  0  0  0  0  0
   56.0729   29.1963   44.7612 H   0  0  0  0  0  0  0  0  0  0  0  0
   57.2660   30.8540   45.3880 H   0  0  0  0  0  0  0  0  0  0  0  0
   58.2552   31.0499   43.2878 H   0  0  0  0  0  0  0  0  0  0  0  0
   56.8767   32.0616   42.7199 H   0  0  0  0  0  0  0  0  0  0  0  0
   59.1217   32.7463   44.6332 H   0  0  0  0  0  0  0  0  0  0  0  0
   58.4086   33.6959   43.2474 H   0  0  0  0  0  0  0  0  0  0  0  0
   57.6117   34.9262   44.9994 H   0  0  0  0  0  0  0  0  0  0  0  0
   56.2854   33.6748   44.8213 H   0  0  0  0  0  0  0  0  0  0  0  0
   57.9632   34.2779   47.1206 H   0  0  0  0  0  0  0  0  0  0  0  0
   56.4960   33.2360   46.9786 H   0  0  0  0  0  0  0  0  0  0  0  0
   57.7250   31.4130   46.4970 H   0  0  0  0  0  0  0  0  0  0  0  0
   58.8422   33.0316   48.5625 H   0  0  0  0  0  0  0  0  0  0  0  0
   58.3687   31.2815   48.5352 H   0  0  0  0  0  0  0  0  0  0  0  0
   60.8860   32.2902   47.1715 H   0  0  0  0  0  0  0  0  0  0  0  0
   60.8159   31.8159   48.9439 H   0  0  0  0  0  0  0  0  0  0  0  0
   61.6846   29.9433   47.8019 H   0  0  0  0  0  0  0  0  0  0  0  0
   59.9253   29.5989   48.1752 H   0  0  0  0  0  0  0  0  0  0  0  0
   60.7584   30.6583   45.4688 H   0  0  0  0  0  0  0  0  0  0  0  0
   60.8618   28.9008   45.8587 H   0  0  0  0  0  0  0  0  0  0  0  0
   58.5720   30.5560   45.3600 H   0  0  0  0  0  0  0  0  0  0  0  0
   58.1483   28.8169   44.1305 H   0  0  0  0  0  0  0  0  0  0  0  0
   59.5325   27.9472   44.9288 H   0  0  0  0  0  0  0  0  0  0  0  0
   57.7407   27.6960   46.8980 H   0  0  0  0  0  0  0  0  0  0  0  0
   56.5878   27.8422   45.5283 H   0  0  0  0  0  0  0  0  0  0  0  0
   57.8215   26.5366   45.5283 H   0  0  0  0  0  0  0  0  0  0  0  0
  1  2  1  0
  2  3  1  0
  3  4  1  0
  4  5  1  0
  5  6  1  0
  6  7  1  0
  7  8  1  0
  8  9  1  0
  9 10  1  0
 10 11  1  0
 11 12  1  0
 12 13  1  0
 13 14  1  0
 14 15  1  0
  1 16  1  0
  1 17  1  0
  1 18  1  0
  2 19  1  0
  2 20  1  0
  3 21  1  0
  4 22  1  0
  4 23  1  0
  5 24  1  0
  5 25  1  0
  6 26  1  0
  6 27  1  0
  7 28  1  0
  7 29  1  0
  8 30  1  0
  9 31  1  0
  9 32  1  0
 10 33  1  0
 10 34  1  0
 11 35  1  0
 11 36  1  0
 12 37  1  0
 12 38  1  0
 13 39  1  0
 14 40  1  0
 14 41  1  0
 15 42  1  0
 15 43  1  0
 15 44  1  0
M  END
>  <UniqueID>  (22) 
22

>  <SMILES>  (22) 
CCNCCCCNCCCCNCC

>  <Energy>  (22) 
24.68076467793994

>  <Genealogy>  (22) 
CCNCCCCNCCCCNCC (3D coordinates assigned)
CCNCCCCNCCCCNCC (optimized conformer: 24.68076467793994 kcal/mol)

>  <smiles>  (22) 
CCNCCCCNCCCCNCC

>  <score_type>  (22) 
oracle

>  <origin>  (22) 
adg

>  <m_score__min__energy>  (22) 
-3.5099999999999998

>  <m_primary>  (22) 
energy

$$$$
