0:0
     RDKit          3D

 59 60  0  0  0  0  0  0  0  0999 V2000
   60.3100   33.7250   50.7260 C   0  0  0  0  0  0  0  0  0  0  0  0
   59.8390   33.7100   49.2970 C   0  0  0  0  0  0  0  0  0  0  0  0
   60.4360   34.5840   48.3730 C   0  0  0  0  0  0  0  0  0  0  0  0
   60.0310   34.5890   47.0360 C   0  0  0  0  0  0  0  0  0  0  0  0
   59.0130   33.7300   46.6000 C   0  0  0  0  0  0  0  0  0  0  0  0
   58.6090   33.7050   45.1460 C   0  0  0  0  0  0  0  0  0  0  0  0
   57.3230   32.8940   44.9290 C   0  0  0  0  0  0  0  0  0  0  0  0
   57.6240   31.5000   44.4700 C   0  0  0  0  0  0  0  0  0  0  0  0
   58.2550   31.3170   43.3930 O   0  0  0  0  0  0  0  0  0  0  0  0
   57.1290   30.3860   45.2240 N   0  0  0  0  0  0  0  0  0  0  0  0
   57.7700   29.8690   46.4300 C   0  0  0  0  0  0  0  0  0  0  0  0
   58.7780   28.7260   46.1160 C   0  0  2  0  0  0  0  0  0  0  0  0
   60.0030   28.8580   47.0590 C   0  0  0  0  0  0  0  0  0  0  0  0
   59.9910   30.0900   47.7610 O   0  0  0  0  0  0  0  0  0  0  0  0
   60.9930   30.1220   48.7600 C   0  0  0  0  0  0  0  0  0  0  0  0
   61.9880   31.2160   48.4730 C   0  0  0  0  0  0  0  0  0  0  0  0
   62.8110   31.7190   49.4960 C   0  0  0  0  0  0  0  0  0  0  0  0
   63.7110   32.7560   49.2290 C   0  0  0  0  0  0  0  0  0  0  0  0
   63.7960   33.2970   47.9430 C   0  0  0  0  0  0  0  0  0  0  0  0
   62.9750   32.8060   46.9210 C   0  0  0  0  0  0  0  0  0  0  0  0
   62.0710   31.7720   47.1850 C   0  0  0  0  0  0  0  0  0  0  0  0
   59.1750   28.6160   44.6750 N   0  0  0  0  0  0  0  0  0  0  0  0
   60.6390   28.5980   44.4920 C   0  0  0  0  0  0  0  0  0  0  0  0
   58.5640   27.4810   43.9510 C   0  0  0  0  0  0  0  0  0  0  0  0
   58.4250   32.8400   47.5120 C   0  0  0  0  0  0  0  0  0  0  0  0
   58.8450   32.8020   48.8520 C   0  0  0  0  0  0  0  0  0  0  0  0
   58.1920   31.8240   49.7950 C   0  0  0  0  0  0  0  0  0  0  0  0
   59.4404   33.6973   51.3990 H   0  0  0  0  0  0  0  0  0  0  0  0
   60.9456   32.8466   50.9118 H   0  0  0  0  0  0  0  0  0  0  0  0
   60.8884   34.6420   50.9118 H   0  0  0  0  0  0  0  0  0  0  0  0
   61.2290   35.2701   48.7052 H   0  0  0  0  0  0  0  0  0  0  0  0
   60.5140   35.2713   46.3211 H   0  0  0  0  0  0  0  0  0  0  0  0
   58.4417   34.7372   44.8044 H   0  0  0  0  0  0  0  0  0  0  0  0
   59.4173   33.2270   44.5731 H   0  0  0  0  0  0  0  0  0  0  0  0
   56.7665   32.8460   45.8766 H   0  0  0  0  0  0  0  0  0  0  0  0
   56.7276   33.3929   44.1501 H   0  0  0  0  0  0  0  0  0  0  0  0
   58.3088   30.6905   46.9247 H   0  0  0  0  0  0  0  0  0  0  0  0
   56.9840   29.4570   47.0800 H   0  0  0  0  0  0  0  0  0  0  0  0
   58.2599   27.7751   46.3095 H   0  0  0  0  0  0  0  0  0  0  0  0
   59.9844   28.0327   47.7860 H   0  0  0  0  0  0  0  0  0  0  0  0
   60.9152   28.8205   46.4454 H   0  0  0  0  0  0  0  0  0  0  0  0
   60.5239   30.3065   49.7377 H   0  0  0  0  0  0  0  0  0  0  0  0
   61.5186   29.1557   48.7684 H   0  0  0  0  0  0  0  0  0  0  0  0
   62.7469   31.2958   50.5093 H   0  0  0  0  0  0  0  0  0  0  0  0
   64.3529   33.1464   50.0324 H   0  0  0  0  0  0  0  0  0  0  0  0
   64.5082   34.1088   47.7340 H   0  0  0  0  0  0  0  0  0  0  0  0
   63.0409   33.2337   45.9097 H   0  0  0  0  0  0  0  0  0  0  0  0
   61.4226   31.3926   46.3815 H   0  0  0  0  0  0  0  0  0  0  0  0
   58.8470   29.4900   44.1960 H   0  0  0  0  0  0  0  0  0  0  0  0
   61.1314   28.5919   45.4756 H   0  0  0  0  0  0  0  0  0  0  0  0
   60.9275   27.6962   43.9320 H   0  0  0  0  0  0  0  0  0  0  0  0
   60.9495   29.4924   43.9320 H   0  0  0  0  0  0  0  0  0  0  0  0
   58.1717   26.7523   44.6757 H   0  0  0  0  0  0  0  0  0  0  0  0
   57.7420   27.8488   43.3193 H   0  0  0  0  0  0  0  0  0  0  0  0
   59.3237   26.9974   43.3193 H   0  0  0  0  0  0  0  0  0  0  0  0
   57.6258   32.1642   47.1736 H   0  0  0  0  0  0  0  0  0  0  0  0
   58.3934   32.1257   50.8335 H   0  0  0  0  0  0  0  0  0  0  0  0
   57.1061   31.8150   49.6198 H   0  0  0  0  0  0  0  0  0  0  0  0
   58.6000   30.8176   49.6198 H   0  0  0  0  0  0  0  0  0  0  0  0
  1  2  1  0
  2  3  2  0
  3  4  1  0
  4  5  2  0
  5  6  1  0
  6  7  1  0
  7  8  1  0
  8  9  2  0
  8 10  1  0
 10 11  1  0
 11 12  1  0
 12 13  1  0
 13 14  1  0
 14 15  1  0
 15 16  1  0
 16 17  2  0
 17 18  1  0
 18 19  2  0
 19 20  1  0
 20 21  2  0
 12 22  1  0
 22 23  1  0
 22 24  1  0
  5 25  1  0
 25 26  2  0
 26 27  1  0
 26  2  1  0
 21 16  1  0
  1 28  1  0
  1 29  1  0
  1 30  1  0
  3 31  1  0
  4 32  1  0
  6 33  1  0
  6 34  1  0
  7 35  1  0
  7 36  1  0
 11 37  1  0
 11 38  1  0
 12 39  1  1
 13 40  1  0
 13 41  1  0
 15 42  1  0
 15 43  1  0
 17 44  1  0
 18 45  1  0
 19 46  1  0
 20 47  1  0
 21 48  1  0
 22 49  1  0
 23 50  1  0
 23 51  1  0
 23 52  1  0
 24 53  1  0
 24 54  1  0
 24 55  1  0
 25 56  1  0
 27 57  1  0
 27 58  1  0
 27 59  1  0
M  CHG  2  10  -1  22   1
M  END
>  <UniqueID>  (1) 
1

>  <SMILES>  (1) 
Cc1ccc(CCC(=O)[N-]C[C@H](COCc2ccccc2)[NH+](C)C)cc1C

>  <Energy>  (1) 
60.58410829399732

>  <Genealogy>  (1) 
Cc1ccc(CCC(=O)[N-]CC(COCc2ccccc2)[NH+](C)C)cc1C (protonated)
Cc1ccc(CCC(=O)[N-]C[C@H](COCc2ccccc2)[NH+](C)C)cc1C (chirality)
Cc1ccc(CCC(=O)[N-]C[C@H](COCc2ccccc2)[NH+](C)C)cc1C (3D coordinates assigned)
Cc1ccc(CCC(=O)[N-]C[C@H](COCc2ccccc2)[NH+](C)C)cc1C (optimized conformer: 60.58410829399732 kcal/mol)

>  <smiles>  (1) 
Cc1ccc(CCC(=O)NCC(COCc2ccccc2)N(C)C)cc1C

>  <score_type>  (1) 
oracle

>  <origin>  (1) 
adg

>  <m_score__min__energy>  (1) 
-8.4800000000000004

>  <m_primary>  (1) 
energy

$$$$
1:0
     RDKit          3D

 41 44  0  0  0  0  0  0  0  0999 V2000
   57.3220   30.9790   43.9530 C   0  0  0  0  0  0  0  0  0  0  0  0
   57.7600   32.2020   44.7210 C   0  0  0  0  0  0  0  0  0  0  0  0
   57.7620   33.4470   44.1330 C   0  0  0  0  0  0  0  0  0  0  0  0
   58.1840   34.5170   44.9030 C   0  0  0  0  0  0  0  0  0  0  0  0
   58.5950   34.3890   46.2100 C   0  0  0  0  0  0  0  0  0  0  0  0
   58.5920   33.1480   46.7920 C   0  0  0  0  0  0  0  0  0  0  0  0
   58.9940   32.8590   48.1550 C   0  0  0  0  0  0  0  0  0  0  0  0
   58.1180   32.5620   49.1520 N   0  0  0  0  0  0  0  0  0  0  0  0
   58.7790   32.3520   50.3010 C   0  0  0  0  0  0  0  0  0  0  0  0
   58.2620   32.0190   51.6270 C   0  0  0  0  0  0  0  0  0  0  0  0
   58.7490   32.6670   52.7530 C   0  0  0  0  0  0  0  0  0  0  0  0
   58.2100   32.3130   53.9870 C   0  0  0  0  0  0  0  0  0  0  0  0
   57.2370   31.3640   54.1120 C   0  0  0  0  0  0  0  0  0  0  0  0
   56.7080   31.0160   55.3010 F   0  0  0  0  0  0  0  0  0  0  0  0
   56.7400   30.7050   52.9920 C   0  0  0  0  0  0  0  0  0  0  0  0
   57.2700   31.0510   51.7540 C   0  0  0  0  0  0  0  0  0  0  0  0
   60.0780   32.5220   49.9990 N   0  0  0  0  0  0  0  0  0  0  0  0
   60.2550   32.8310   48.7040 C   0  0  0  0  0  0  0  0  0  0  0  0
   61.5500   33.0770   48.1060 C   0  0  0  0  0  0  0  0  0  0  0  0
   62.6670   32.6730   48.8440 C   0  0  0  0  0  0  0  0  0  0  0  0
   63.9580   32.8650   48.3470 C   0  0  0  0  0  0  0  0  0  0  0  0
   64.1290   33.4510   47.1350 N   0  0  0  0  0  0  0  0  0  0  0  0
   63.0440   33.8440   46.4190 C   0  0  0  0  0  0  0  0  0  0  0  0
   61.7610   33.6650   46.8860 C   0  0  0  0  0  0  0  0  0  0  0  0
   58.1700   32.0510   46.0320 C   0  0  0  0  0  0  0  0  0  0  0  0
   57.0376   30.1850   44.6591 H   0  0  0  0  0  0  0  0  0  0  0  0
   56.4590   31.2331   43.3200 H   0  0  0  0  0  0  0  0  0  0  0  0
   58.1501   30.6275   43.3200 H   0  0  0  0  0  0  0  0  0  0  0  0
   57.4403   33.5861   43.0903 H   0  0  0  0  0  0  0  0  0  0  0  0
   58.1912   35.5184   44.4480 H   0  0  0  0  0  0  0  0  0  0  0  0
   58.9217   35.2711   46.7803 H   0  0  0  0  0  0  0  0  0  0  0  0
   57.0860   32.4940   49.0790 H   0  0  0  0  0  0  0  0  0  0  0  0
   59.5337   33.4338   52.6736 H   0  0  0  0  0  0  0  0  0  0  0  0
   58.5811   32.8155   54.8924 H   0  0  0  0  0  0  0  0  0  0  0  0
   55.9564   29.9383   53.0826 H   0  0  0  0  0  0  0  0  0  0  0  0
   56.8954   30.5464   50.8512 H   0  0  0  0  0  0  0  0  0  0  0  0
   62.5273   32.1988   49.8267 H   0  0  0  0  0  0  0  0  0  0  0  0
   64.8307   32.5433   48.9343 H   0  0  0  0  0  0  0  0  0  0  0  0
   63.1943   34.3188   45.4382 H   0  0  0  0  0  0  0  0  0  0  0  0
   60.9045   33.9943   46.2793 H   0  0  0  0  0  0  0  0  0  0  0  0
   58.1646   31.0495   46.4870 H   0  0  0  0  0  0  0  0  0  0  0  0
  1  2  1  0
  2  3  2  0
  3  4  1  0
  4  5  2  0
  5  6  1  0
  6  7  1  0
  7  8  1  0
  8  9  1  0
  9 10  1  0
 10 11  2  0
 11 12  1  0
 12 13  2  0
 13 14  1  0
 13 15  1  0
 15 16  2  0
  9 17  2  0
 17 18  1  0
 18 19  1  0
 19 20  2  0
 20 21  1  0
 21 22  2  0
 22 23  1  0
 23 24  2  0
  6 25  2  0
 25  2  1  0
 18  7  2  0
 24 19  1  0
 16 10  1  0
  1 26  1  0
  1 27  1  0
  1 28  1  0
  3 29  1  0
  4 30  1  0
  5 31  1  0
  8 32  1  0
 11 33  1  0
 12 34  1  0
 15 35  1  0
 16 36  1  0
 20 37  1  0
 21 38  1  0
 23 39  1  0
 24 40  1  0
 25 41  1  0
M  END
>  <smiles>  (2) 
Cc1cccc(-c2[nH]c(-c3ccc(F)cc3)nc2-c2ccncc2)c1

>  <score_type>  (2) 
oracle

>  <origin>  (2) 
adg

>  <m_score__min__energy>  (2) 
-7.46

>  <m_primary>  (2) 
energy

$$$$
2:0
     RDKit          3D

 52 55  0  0  0  0  0  0  0  0999 V2000
   57.7690   32.3310   41.6580 C   0  0  0  0  0  0  0  0  0  0  0  0
   57.6460   31.6700   43.0270 C   0  0  0  0  0  0  0  0  0  0  0  0
   56.6970   30.4670   42.9800 C   0  0  0  0  0  0  0  0  0  0  0  0
   56.1720   30.1140   44.3830 C   0  0  0  0  0  0  0  0  0  0  0  0
   56.6610   28.7310   44.8570 C   0  0  0  0  0  0  0  0  0  0  0  0
   57.8950   28.2250   44.0920 C   0  0  0  0  0  0  0  0  0  0  0  0
   59.0930   28.4430   44.8380 O   0  0  0  0  0  0  0  0  0  0  0  0
   59.1180   28.6320   46.2260 C   0  0  0  0  0  0  0  0  0  0  0  0
   59.0790   27.6430   47.0080 O   0  0  0  0  0  0  0  0  0  0  0  0
   59.1520   29.9640   46.7540 N   0  0  0  0  0  0  0  0  0  0  0  0
   59.2730   31.1090   46.0360 C   0  0  0  0  0  0  0  0  0  0  0  0
   59.1760   32.2280   46.8710 C   0  0  0  0  0  0  0  0  0  0  0  0
   59.1900   33.6500   46.4780 C   0  0  0  0  0  0  0  0  0  0  0  0
   58.1910   34.1350   45.8830 O   0  0  0  0  0  0  0  0  0  0  0  0
   60.3360   34.4840   46.6950 N   0  0  0  0  0  0  0  0  0  0  0  0
   61.5640   34.0810   47.3150 C   0  0  0  0  0  0  0  0  0  0  0  0
   62.6290   33.5140   46.5620 C   0  0  0  0  0  0  0  0  0  0  0  0
   63.7860   33.1230   47.1790 N   0  0  0  0  0  0  0  0  0  0  0  0
   63.8990   33.2720   48.5230 C   0  0  0  0  0  0  0  0  0  0  0  0
   64.9580   32.9360   49.2740 N   0  0  0  0  0  0  0  0  0  0  0  0
   64.6140   33.2520   50.5450 C   0  0  0  0  0  0  0  0  0  0  0  0
   63.3290   33.7900   50.5910 C   0  0  0  0  0  0  0  0  0  0  0  0
   62.8940   33.7910   49.2840 C   0  0  0  0  0  0  0  0  0  0  0  0
   61.6970   34.2040   48.7110 C   0  0  0  0  0  0  0  0  0  0  0  0
   58.9710   31.7090   48.1320 C   0  0  0  0  0  0  0  0  0  0  0  0
   58.7570   32.3380   49.3130 N   0  0  0  0  0  0  0  0  0  0  0  0
   58.5370   31.5710   50.4230 C   0  0  0  0  0  0  0  0  0  0  0  0
   58.5260   30.1600   50.3180 C   0  0  0  0  0  0  0  0  0  0  0  0
   58.7360   29.5610   49.1070 N   0  0  0  0  0  0  0  0  0  0  0  0
   58.9660   30.3520   48.0300 C   0  0  0  0  0  0  0  0  0  0  0  0
   57.9689   33.4051   41.7861 H   0  0  0  0  0  0  0  0  0  0  0  0
   58.5964   31.8680   41.1003 H   0  0  0  0  0  0  0  0  0  0  0  0
   56.8304   32.1966   41.1003 H   0  0  0  0  0  0  0  0  0  0  0  0
   58.6404   31.3298   43.3515 H   0  0  0  0  0  0  0  0  0  0  0  0
   57.2379   32.4075   43.7338 H   0  0  0  0  0  0  0  0  0  0  0  0
   55.8442   30.7085   42.3286 H   0  0  0  0  0  0  0  0  0  0  0  0
   57.2523   29.6017   42.5891 H   0  0  0  0  0  0  0  0  0  0  0  0
   56.5221   30.8764   45.0944 H   0  0  0  0  0  0  0  0  0  0  0  0
   55.0734   30.0855   44.3351 H   0  0  0  0  0  0  0  0  0  0  0  0
   56.9161   28.7984   45.9249 H   0  0  0  0  0  0  0  0  0  0  0  0
   55.8463   28.0162   44.6687 H   0  0  0  0  0  0  0  0  0  0  0  0
   57.7820   27.1474   43.9023 H   0  0  0  0  0  0  0  0  0  0  0  0
   57.9691   28.7809   43.1457 H   0  0  0  0  0  0  0  0  0  0  0  0
   59.4262   31.1518   44.9476 H   0  0  0  0  0  0  0  0  0  0  0  0
   62.5217   33.3887   45.4744 H   0  0  0  0  0  0  0  0  0  0  0  0
   64.5660   32.7100   46.6220 H   0  0  0  0  0  0  0  0  0  0  0  0
   65.8590   32.5150   48.9520 H   0  0  0  0  0  0  0  0  0  0  0  0
   65.2610   33.1042   51.4223 H   0  0  0  0  0  0  0  0  0  0  0  0
   62.7809   34.1384   51.4788 H   0  0  0  0  0  0  0  0  0  0  0  0
   60.8822   34.6126   49.3267 H   0  0  0  0  0  0  0  0  0  0  0  0
   58.3684   32.0510   51.3983 H   0  0  0  0  0  0  0  0  0  0  0  0
   58.3483   29.5441   51.2119 H   0  0  0  0  0  0  0  0  0  0  0  0
  1  2  1  0
  2  3  1  0
  3  4  1  0
  4  5  1  0
  5  6  1  0
  6  7  1  0
  7  8  1  0
  8  9  2  0
  8 10  1  0
 10 11  1  0
 11 12  2  0
 12 13  1  0
 13 14  2  0
 13 15  1  0
 15 16  1  0
 16 17  2  0
 17 18  1  0
 18 19  2  0
 19 20  1  0
 20 21  1  0
 21 22  2  0
 22 23  1  0
 23 24  2  0
 12 25  1  0
 25 26  2  0
 26 27  1  0
 27 28  2  0
 28 29  1  0
 29 30  2  0
 30 10  1  0
 24 16  1  0
 30 25  1  0
 23 19  1  0
  1 31  1  0
  1 32  1  0
  1 33  1  0
  2 34  1  0
  2 35  1  0
  3 36  1  0
  3 37  1  0
  4 38  1  0
  4 39  1  0
  5 40  1  0
  5 41  1  0
  6 42  1  0
  6 43  1  0
 11 44  1  0
 17 45  1  0
 18 46  1  0
 20 47  1  0
 21 48  1  0
 22 49  1  0
 24 50  1  0
 27 51  1  0
 28 52  1  0
M  CHG  2  15  -1  18   1
M  END
>  <UniqueID>  (3) 
2

>  <SMILES>  (3) 
CCCCCCOC(=O)n1cc(C(=O)[N-]c2c[nH+]c3[nH]ccc3c2)c2nccnc21

>  <Energy>  (3) 
123.80165256705492

>  <Genealogy>  (3) 
CCCCCCOC(=O)n1cc(C(=O)[N-]c2c[nH+]c3[nH]ccc3c2)c2nccnc21 (protonated)
CCCCCCOC(=O)n1cc(C(=O)[N-]c2c[nH+]c3[nH]ccc3c2)c2nccnc21 (3D coordinates assigned)
CCCCCCOC(=O)n1cc(C(=O)[N-]c2c[nH+]c3[nH]ccc3c2)c2nccnc21 (optimized conformer: 123.80165256705492 kcal/mol)

>  <smiles>  (3) 
CCCCCCOC(=O)n1cc(C(=O)Nc2cnc3[nH]ccc3c2)c2nccnc21

>  <score_type>  (3) 
oracle

>  <origin>  (3) 
adg

>  <m_score__min__energy>  (3) 
-8.1300000000000008

>  <m_primary>  (3) 
energy

$$$$
3:0
     RDKit          3D

 55 58  0  0  0  0  0  0  0  0999 V2000
   57.3920   33.5180   46.5940 C   0  0  0  0  0  0  0  0  0  0  0  0
   58.2150   33.5030   45.3750 N   0  0  0  0  0  0  0  0  0  0  0  0
   59.1060   34.6690   45.3020 C   0  0  0  0  0  0  0  0  0  0  0  0
   57.4460   33.2550   44.1310 C   0  0  0  0  0  0  0  0  0  0  0  0
   57.8030   31.9630   43.3600 C   0  0  0  0  0  0  0  0  0  0  0  0
   57.6280   30.7100   44.1680 C   0  0  0  0  0  0  0  0  0  0  0  0
   56.7090   29.6930   43.9250 C   0  0  0  0  0  0  0  0  0  0  0  0
   56.8330   28.7150   44.8510 N   0  0  0  0  0  0  0  0  0  0  0  0
   57.8280   29.1010   45.6680 C   0  0  0  0  0  0  0  0  0  0  0  0
   58.3250   28.4140   46.7710 C   0  0  0  0  0  0  0  0  0  0  0  0
   59.3870   28.9940   47.4870 C   0  0  0  0  0  0  0  0  0  0  0  0
   59.9380   30.2430   47.0880 C   0  0  0  0  0  0  0  0  0  0  0  0
   61.0640   30.8430   47.8490 C   0  0  0  0  0  0  0  0  0  0  0  0
   61.9160   31.7810   47.2420 C   0  0  0  0  0  0  0  0  0  0  0  0
   62.9770   32.3430   47.9560 C   0  0  0  0  0  0  0  0  0  0  0  0
   63.2110   31.9810   49.2950 C   0  0  0  0  0  0  0  0  0  0  0  0
   64.3090   32.5630   50.0330 N   0  0  0  0  0  0  0  0  0  0  0  0
   64.1490   33.8740   50.6830 C   0  0  0  0  0  0  0  0  0  0  0  0
   65.0710   33.9910   51.9010 C   0  0  0  0  0  0  0  0  0  0  0  0
   66.5480   33.7520   51.5400 C   0  0  0  0  0  0  0  0  0  0  0  0
   66.7480   32.8360   50.3190 C   0  0  0  0  0  0  0  0  0  0  0  0
   65.5910   31.8480   50.1380 C   0  0  0  0  0  0  0  0  0  0  0  0
   62.3580   31.0430   49.9010 C   0  0  0  0  0  0  0  0  0  0  0  0
   61.2970   30.4800   49.1860 C   0  0  0  0  0  0  0  0  0  0  0  0
   59.4040   30.9070   45.9590 C   0  0  0  0  0  0  0  0  0  0  0  0
   58.3440   30.3090   45.2800 C   0  0  0  0  0  0  0  0  0  0  0  0
   58.0462   33.5061   47.4782 H   0  0  0  0  0  0  0  0  0  0  0  0
   56.7735   34.4276   46.6077 H   0  0  0  0  0  0  0  0  0  0  0  0
   56.7408   32.6316   46.6077 H   0  0  0  0  0  0  0  0  0  0  0  0
   59.3596   35.0009   46.3196 H   0  0  0  0  0  0  0  0  0  0  0  0
   60.0264   34.3942   44.7659 H   0  0  0  0  0  0  0  0  0  0  0  0
   58.5991   35.4848   44.7659 H   0  0  0  0  0  0  0  0  0  0  0  0
   56.3803   33.2037   44.3986 H   0  0  0  0  0  0  0  0  0  0  0  0
   57.7006   34.0842   43.4545 H   0  0  0  0  0  0  0  0  0  0  0  0
   57.1554   31.8976   42.4732 H   0  0  0  0  0  0  0  0  0  0  0  0
   58.8691   32.0297   43.0973 H   0  0  0  0  0  0  0  0  0  0  0  0
   55.9846   29.6858   43.0972 H   0  0  0  0  0  0  0  0  0  0  0  0
   56.2690   27.8380   44.9130 H   0  0  0  0  0  0  0  0  0  0  0  0
   57.8997   27.4458   47.0739 H   0  0  0  0  0  0  0  0  0  0  0  0
   59.7967   28.4755   48.3664 H   0  0  0  0  0  0  0  0  0  0  0  0
   61.7461   32.0753   46.1958 H   0  0  0  0  0  0  0  0  0  0  0  0
   63.6357   33.0755   47.4666 H   0  0  0  0  0  0  0  0  0  0  0  0
   64.3996   34.6670   49.9630 H   0  0  0  0  0  0  0  0  0  0  0  0
   63.1063   33.9778   51.0176 H   0  0  0  0  0  0  0  0  0  0  0  0
   64.9695   35.0005   52.3259 H   0  0  0  0  0  0  0  0  0  0  0  0
   64.7721   33.2187   52.6250 H   0  0  0  0  0  0  0  0  0  0  0  0
   67.0142   34.7247   51.3241 H   0  0  0  0  0  0  0  0  0  0  0  0
   67.0105   33.2456   52.4000 H   0  0  0  0  0  0  0  0  0  0  0  0
   66.8243   33.4607   49.4168 H   0  0  0  0  0  0  0  0  0  0  0  0
   67.6663   32.2528   50.4824 H   0  0  0  0  0  0  0  0  0  0  0  0
   65.7550   31.2638   49.2205 H   0  0  0  0  0  0  0  0  0  0  0  0
   65.5542   31.1819   51.0126 H   0  0  0  0  0  0  0  0  0  0  0  0
   62.5268   30.7491   50.9475 H   0  0  0  0  0  0  0  0  0  0  0  0
   60.6388   29.7464   49.6744 H   0  0  0  0  0  0  0  0  0  0  0  0
   59.8151   31.8712   45.6253 H   0  0  0  0  0  0  0  0  0  0  0  0
  1  2  1  0
  2  3  1  0
  2  4  1  0
  4  5  1  0
  5  6  1  0
  6  7  2  0
  7  8  1  0
  8  9  1  0
  9 10  2  0
 10 11  1  0
 11 12  2  0
 12 13  1  0
 13 14  2  0
 14 15  1  0
 15 16  2  0
 16 17  1  0
 17 18  1  0
 18 19  1  0
 19 20  1  0
 20 21  1  0
 21 22  1  0
 16 23  1  0
 23 24  2  0
 12 25  1  0
 25 26  2  0
 26  6  1  0
 26  9  1  0
 24 13  1  0
 22 17  1  0
  1 27  1  0
  1 28  1  0
  1 29  1  0
  3 30  1  0
  3 31  1  0
  3 32  1  0
  4 33  1  0
  4 34  1  0
  5 35  1  0
  5 36  1  0
  7 37  1  0
  8 38  1  0
 10 39  1  0
 11 40  1  0
 14 41  1  0
 15 42  1  0
 18 43  1  0
 18 44  1  0
 19 45  1  0
 19 46  1  0
 20 47  1  0
 20 48  1  0
 21 49  1  0
 21 50  1  0
 22 51  1  0
 22 52  1  0
 23 53  1  0
 24 54  1  0
 25 55  1  0
M  END
>  <UniqueID>  (4) 
3

>  <SMILES>  (4) 
CN(C)CCc1c[nH]c2ccc(-c3ccc(N4CCCCC4)cc3)cc12

>  <Energy>  (4) 
101.74608109060426

>  <Genealogy>  (4) 
CN(C)CCc1c[nH]c2ccc(-c3ccc(N4CCCCC4)cc3)cc12 (3D coordinates assigned)
CN(C)CCc1c[nH]c2ccc(-c3ccc(N4CCCCC4)cc3)cc12 (nonaromatic ring conformer: 101.74608109060426 kcal/mol)

>  <smiles>  (4) 
CN(C)CCc1c[nH]c2ccc(-c3ccc(N4CCCCC4)cc3)cc12

>  <score_type>  (4) 
oracle

>  <origin>  (4) 
adg

>  <m_score__min__energy>  (4) 
-8.0999999999999996

>  <m_primary>  (4) 
energy

$$$$
4:0
     RDKit          3D

 36 38  0  0  0  0  0  0  0  0999 V2000
   58.2610   32.3390   41.6020 C   0  0  0  0  0  0  0  0  0  0  0  0
   57.4000   32.4930   42.7250 O   0  0  0  0  0  0  0  0  0  0  0  0
   57.8360   32.6690   44.0480 C   0  0  0  0  0  0  0  0  0  0  0  0
   58.3990   33.8850   44.4860 C   0  0  0  0  0  0  0  0  0  0  0  0
   58.8390   34.0270   45.8030 C   0  0  0  0  0  0  0  0  0  0  0  0
   58.7310   32.9610   46.6970 C   0  0  0  0  0  0  0  0  0  0  0  0
   59.2900   33.1400   48.3510 Cl  0  0  0  0  0  0  0  0  0  0  0  0
   58.1750   31.7510   46.2750 C   0  0  0  0  0  0  0  0  0  0  0  0
   57.7130   31.6010   44.9590 C   0  0  0  0  0  0  0  0  0  0  0  0
   56.9950   30.0660   44.4590 S   0  0  0  0  0  0  0  0  0  0  0  0
   55.5420   30.0080   44.8390 O   0  0  0  0  0  0  0  0  0  0  0  0
   57.1180   29.9400   42.9680 O   0  0  0  0  0  0  0  0  0  0  0  0
   57.8200   28.7340   45.2090 N   0  0  0  0  0  0  0  0  0  0  0  0
   57.5990   27.3520   44.8700 C   0  0  0  0  0  0  0  0  0  0  0  0
   57.9500   26.8990   43.5900 C   0  0  0  0  0  0  0  0  0  0  0  0
   57.7640   25.5620   43.2320 C   0  0  0  0  0  0  0  0  0  0  0  0
   57.2200   24.6440   44.1470 C   0  0  0  0  0  0  0  0  0  0  0  0
   57.0390   23.2660   43.7630 N   0  0  0  0  0  0  0  0  0  0  0  0
   57.7630   22.1850   44.1130 C   0  0  0  0  0  0  0  0  0  0  0  0
   57.2520   21.0860   43.5290 N   0  0  0  0  0  0  0  0  0  0  0  0
   56.2130   21.5140   42.8260 N   0  0  0  0  0  0  0  0  0  0  0  0
   56.0830   22.8240   42.9650 N   0  0  0  0  0  0  0  0  0  0  0  0
   56.8640   25.0990   45.4300 C   0  0  0  0  0  0  0  0  0  0  0  0
   57.0490   26.4380   45.7870 C   0  0  0  0  0  0  0  0  0  0  0  0
   59.2882   32.1553   41.9500 H   0  0  0  0  0  0  0  0  0  0  0  0
   57.9219   31.4872   40.9941 H   0  0  0  0  0  0  0  0  0  0  0  0
   58.2382   33.2555   40.9941 H   0  0  0  0  0  0  0  0  0  0  0  0
   58.4922   34.7276   43.7851 H   0  0  0  0  0  0  0  0  0  0  0  0
   59.2719   34.9815   46.1370 H   0  0  0  0  0  0  0  0  0  0  0  0
   58.0989   30.9098   46.9797 H   0  0  0  0  0  0  0  0  0  0  0  0
   58.4940   28.9670   45.9730 H   0  0  0  0  0  0  0  0  0  0  0  0
   58.3760   27.6038   42.8608 H   0  0  0  0  0  0  0  0  0  0  0  0
   58.0460   25.2239   42.2239 H   0  0  0  0  0  0  0  0  0  0  0  0
   58.6402   22.1989   44.7766 H   0  0  0  0  0  0  0  0  0  0  0  0
   56.4362   24.3948   46.1588 H   0  0  0  0  0  0  0  0  0  0  0  0
   56.7623   26.7794   46.7926 H   0  0  0  0  0  0  0  0  0  0  0  0
  1  2  1  0
  2  3  1  0
  3  4  2  0
  4  5  1  0
  5  6  2  0
  6  7  1  0
  6  8  1  0
  8  9  2  0
  9 10  1  0
 10 11  2  0
 10 12  2  0
 10 13  1  0
 13 14  1  0
 14 15  2  0
 15 16  1  0
 16 17  2  0
 17 18  1  0
 18 19  1  0
 19 20  2  0
 20 21  1  0
 21 22  2  0
 17 23  1  0
 23 24  2  0
  9  3  1  0
 24 14  1  0
 22 18  1  0
  1 25  1  0
  1 26  1  0
  1 27  1  0
  4 28  1  0
  5 29  1  0
  8 30  1  0
 13 31  1  0
 15 32  1  0
 16 33  1  0
 19 34  1  0
 23 35  1  0
 24 36  1  0
M  END
>  <UniqueID>  (5) 
4

>  <SMILES>  (5) 
COc1ccc(Cl)cc1S(=O)(=O)Nc1ccc(-n2cnnn2)cc1

>  <Energy>  (5) 
83.05967668481395

>  <Genealogy>  (5) 
COc1ccc(Cl)cc1S(=O)(=O)Nc1ccc(-n2cnnn2)cc1 (3D coordinates assigned)
COc1ccc(Cl)cc1S(=O)(=O)Nc1ccc(-n2cnnn2)cc1 (optimized conformer: 83.05967668481395 kcal/mol)

>  <smiles>  (5) 
COc1ccc(Cl)cc1S(=O)(=O)Nc1ccc(-n2cnnn2)cc1

>  <score_type>  (5) 
oracle

>  <origin>  (5) 
adg

>  <m_score__min__energy>  (5) 
-8.7200000000000006

>  <m_primary>  (5) 
energy

$$$$
5:0
     RDKit          3D

 47 50  0  0  0  0  0  0  0  0999 V2000
   57.5290   31.3290   43.4550 C   0  0  0  0  0  0  0  0  0  0  0  0
   57.0290   31.8240   44.6930 O   0  0  0  0  0  0  0  0  0  0  0  0
   57.7800   32.5800   45.6050 C   0  0  0  0  0  0  0  0  0  0  0  0
   58.2300   33.8820   45.3150 C   0  0  0  0  0  0  0  0  0  0  0  0
   58.9830   34.5920   46.2540 C   0  0  0  0  0  0  0  0  0  0  0  0
   59.2880   34.0150   47.4890 C   0  0  0  0  0  0  0  0  0  0  0  0
   58.8260   32.7260   47.8030 C   0  0  0  0  0  0  0  0  0  0  0  0
   59.1590   32.0940   49.0990 C   0  0  0  0  0  0  0  0  0  0  0  0
   58.1320   31.6660   49.8820 N   0  0  0  0  0  0  0  0  0  0  0  0
   58.3400   31.0280   51.0630 C   0  0  0  0  0  0  0  0  0  0  0  0
   57.2250   30.5880   51.8660 N   0  0  0  0  0  0  0  0  0  0  0  0
   56.0600   31.4600   52.0850 C   0  0  0  0  0  0  0  0  0  0  0  0
   54.7410   30.6560   52.1130 C   0  0  0  0  0  0  0  0  0  0  0  0
   54.8890   29.2530   52.5480 N   0  0  0  0  0  0  0  0  0  0  0  0
   56.0560   29.0480   53.4090 C   0  0  0  0  0  0  0  0  0  0  0  0
   57.3430   29.3410   52.6320 C   0  0  0  0  0  0  0  0  0  0  0  0
   59.6140   30.8060   51.4810 N   0  0  0  0  0  0  0  0  0  0  0  0
   60.6800   31.2170   50.7500 C   0  0  0  0  0  0  0  0  0  0  0  0
   60.4900   31.8890   49.5340 C   0  0  0  0  0  0  0  0  0  0  0  0
   61.6620   32.4270   48.8020 C   0  0  0  0  0  0  0  0  0  0  0  0
   62.2990   31.6710   47.8040 C   0  0  0  0  0  0  0  0  0  0  0  0
   63.4000   32.2090   47.1340 C   0  0  0  0  0  0  0  0  0  0  0  0
   63.8600   33.4850   47.4630 C   0  0  0  0  0  0  0  0  0  0  0  0
   63.2080   34.2080   48.4640 C   0  0  0  0  0  0  0  0  0  0  0  0
   62.1370   33.6680   49.1050 N   0  0  0  0  0  0  0  0  0  0  0  0
   58.0890   32.0100   46.8460 C   0  0  0  0  0  0  0  0  0  0  0  0
   58.2985   30.5672   43.6487 H   0  0  0  0  0  0  0  0  0  0  0  0
   56.7055   30.8804   42.8800 H   0  0  0  0  0  0  0  0  0  0  0  0
   57.9693   32.1570   42.8800 H   0  0  0  0  0  0  0  0  0  0  0  0
   57.9880   34.3422   44.3456 H   0  0  0  0  0  0  0  0  0  0  0  0
   59.3362   35.6072   46.0202 H   0  0  0  0  0  0  0  0  0  0  0  0
   59.8929   34.5726   48.2192 H   0  0  0  0  0  0  0  0  0  0  0  0
   56.1804   31.9808   53.0464 H   0  0  0  0  0  0  0  0  0  0  0  0
   56.0069   32.1766   51.2521 H   0  0  0  0  0  0  0  0  0  0  0  0
   54.0469   31.1583   52.8029 H   0  0  0  0  0  0  0  0  0  0  0  0
   54.3709   30.6254   51.0776 H   0  0  0  0  0  0  0  0  0  0  0  0
   54.9890   28.6440   51.7010 H   0  0  0  0  0  0  0  0  0  0  0  0
   55.9922   29.7235   54.2748 H   0  0  0  0  0  0  0  0  0  0  0  0
   56.0720   28.0022   53.7498 H   0  0  0  0  0  0  0  0  0  0  0  0
   58.1783   29.4329   53.3418 H   0  0  0  0  0  0  0  0  0  0  0  0
   57.5228   28.5144   51.9288 H   0  0  0  0  0  0  0  0  0  0  0  0
   61.6998   31.0220   51.1133 H   0  0  0  0  0  0  0  0  0  0  0  0
   61.9339   30.6643   47.5525 H   0  0  0  0  0  0  0  0  0  0  0  0
   63.9041   31.6277   46.3479 H   0  0  0  0  0  0  0  0  0  0  0  0
   64.7262   33.9162   46.9398 H   0  0  0  0  0  0  0  0  0  0  0  0
   63.5606   35.2143   48.7341 H   0  0  0  0  0  0  0  0  0  0  0  0
   57.7502   30.9886   47.0741 H   0  0  0  0  0  0  0  0  0  0  0  0
  1  2  1  0
  2  3  1  0
  3  4  2  0
  4  5  1  0
  5  6  2  0
  6  7  1  0
  7  8  1  0
  8  9  2  0
  9 10  1  0
 10 11  1  0
 11 12  1  0
 12 13  1  0
 13 14  1  0
 14 15  1  0
 15 16  1  0
 10 17  2  0
 17 18  1  0
 18 19  2  0
 19 20  1  0
 20 21  2  0
 21 22  1  0
 22 23  2  0
 23 24  1  0
 24 25  2  0
  7 26  2  0
 26  3  1  0
 19  8  1  0
 25 20  1  0
 16 11  1  0
  1 27  1  0
  1 28  1  0
  1 29  1  0
  4 30  1  0
  5 31  1  0
  6 32  1  0
 12 33  1  0
 12 34  1  0
 13 35  1  0
 13 36  1  0
 14 37  1  0
 15 38  1  0
 15 39  1  0
 16 40  1  0
 16 41  1  0
 18 42  1  0
 21 43  1  0
 22 44  1  0
 23 45  1  0
 24 46  1  0
 26 47  1  0
M  END
>  <UniqueID>  (6) 
5

>  <SMILES>  (6) 
COc1cccc(-c2nc(N3CCNCC3)ncc2-c2ccccn2)c1

>  <Energy>  (6) 
66.9865995990239

>  <Genealogy>  (6) 
COc1cccc(-c2nc(N3CCNCC3)ncc2-c2ccccn2)c1 (3D coordinates assigned)
COc1cccc(-c2nc(N3CCNCC3)ncc2-c2ccccn2)c1 (nonaromatic ring conformer: 66.9865995990239 kcal/mol)

>  <smiles>  (6) 
COc1cccc(-c2nc(N3CCNCC3)ncc2-c2ccccn2)c1

>  <score_type>  (6) 
oracle

>  <origin>  (6) 
adg

>  <m_score__min__energy>  (6) 
-7.4400000000000004

>  <m_primary>  (6) 
energy

$$$$
6:0
     RDKit          3D

 31 33  0  0  0  0  0  0  0  0999 V2000
   58.1380   27.4350   43.7800 C   0  0  0  0  0  0  0  0  0  0  0  0
   57.4740   28.2480   44.7420 O   0  0  0  0  0  0  0  0  0  0  0  0
   57.6680   29.6310   44.8840 C   0  0  0  0  0  0  0  0  0  0  0  0
   56.7850   30.5690   44.3340 C   0  0  0  0  0  0  0  0  0  0  0  0
   57.0190   31.9290   44.5010 C   0  0  0  0  0  0  0  0  0  0  0  0
   58.1410   32.3890   45.2210 C   0  0  0  0  0  0  0  0  0  0  0  0
   58.3640   33.7680   45.3810 C   0  0  0  0  0  0  0  0  0  0  0  0
   57.5430   34.5820   44.8690 O   0  0  0  0  0  0  0  0  0  0  0  0
   59.4510   34.2340   46.0780 N   0  0  0  0  0  0  0  0  0  0  0  0
   59.6450   35.6940   46.2210 C   0  0  0  0  0  0  0  0  0  0  0  0
   60.3550   33.3540   46.6410 C   0  0  0  0  0  0  0  0  0  0  0  0
   61.4810   33.8240   47.3650 C   0  0  0  0  0  0  0  0  0  0  0  0
   62.3950   32.9440   47.9350 C   0  0  0  0  0  0  0  0  0  0  0  0
   62.2170   31.5750   47.8030 C   0  0  0  0  0  0  0  0  0  0  0  0
   61.1240   31.0740   47.1010 C   0  0  0  0  0  0  0  0  0  0  0  0
   60.1710   31.9420   46.5070 C   0  0  0  0  0  0  0  0  0  0  0  0
   59.0460   31.4570   45.7840 C   0  0  0  0  0  0  0  0  0  0  0  0
   58.7830   30.0750   45.5990 C   0  0  0  0  0  0  0  0  0  0  0  0
   58.7522   26.6829   44.2968 H   0  0  0  0  0  0  0  0  0  0  0  0
   57.3918   26.9288   43.1500 H   0  0  0  0  0  0  0  0  0  0  0  0
   58.7830   28.0651   43.1500 H   0  0  0  0  0  0  0  0  0  0  0  0
   55.9047   30.2288   43.7689 H   0  0  0  0  0  0  0  0  0  0  0  0
   56.3189   32.6570   44.0652 H   0  0  0  0  0  0  0  0  0  0  0  0
   59.6799   35.9564   47.2887 H   0  0  0  0  0  0  0  0  0  0  0  0
   60.5900   35.9871   45.7403 H   0  0  0  0  0  0  0  0  0  0  0  0
   58.8094   36.2238   45.7403 H   0  0  0  0  0  0  0  0  0  0  0  0
   61.6344   34.9074   47.4780 H   0  0  0  0  0  0  0  0  0  0  0  0
   63.2600   33.3344   48.4911 H   0  0  0  0  0  0  0  0  0  0  0  0
   62.9422   30.8822   48.2547 H   0  0  0  0  0  0  0  0  0  0  0  0
   60.9967   29.9856   47.0050 H   0  0  0  0  0  0  0  0  0  0  0  0
   59.4740   29.3351   46.0291 H   0  0  0  0  0  0  0  0  0  0  0  0
  1  2  1  0
  2  3  1  0
  3  4  2  0
  4  5  1  0
  5  6  2  0
  6  7  1  0
  7  8  2  0
  7  9  1  0
  9 10  1  0
  9 11  1  0
 11 12  2  0
 12 13  1  0
 13 14  2  0
 14 15  1  0
 15 16  2  0
 16 17  1  0
 17 18  2  0
 18  3  1  0
 17  6  1  0
 16 11  1  0
  1 19  1  0
  1 20  1  0
  1 21  1  0
  4 22  1  0
  5 23  1  0
 10 24  1  0
 10 25  1  0
 10 26  1  0
 12 27  1  0
 13 28  1  0
 14 29  1  0
 15 30  1  0
 18 31  1  0
M  END
>  <UniqueID>  (7) 
6

>  <SMILES>  (7) 
COc1ccc2c(=O)n(C)c3ccccc3c2c1

>  <Energy>  (7) 
53.735970558729775

>  <Genealogy>  (7) 
COc1ccc2c(=O)n(C)c3ccccc3c2c1 (3D coordinates assigned)
COc1ccc2c(=O)n(C)c3ccccc3c2c1 (optimized conformer: 53.735970558729775 kcal/mol)

>  <smiles>  (7) 
COc1ccc2c(=O)n(C)c3ccccc3c2c1

>  <score_type>  (7) 
oracle

>  <origin>  (7) 
adg

>  <m_score__min__energy>  (7) 
-6.3300000000000001

>  <m_primary>  (7) 
energy

$$$$
7:0
     RDKit          3D

 54 58  0  0  0  0  0  0  0  0999 V2000
   62.7170   33.8470   46.0190 O   0  0  0  0  0  0  0  0  0  0  0  0
   62.0930   33.6840   47.1000 C   0  0  0  0  0  0  0  0  0  0  0  0
   62.7990   33.2270   48.2010 C   0  0  0  0  0  0  0  0  0  0  0  0
   64.0860   32.8880   48.4190 N   0  0  0  0  0  0  0  0  0  0  0  0
   64.1900   32.5100   49.7060 C   0  0  0  0  0  0  0  0  0  0  0  0
   65.3800   32.0430   50.4600 C   0  0  0  0  0  0  0  0  0  0  0  0
   66.2830   33.1650   50.8200 C   0  0  0  0  0  0  0  0  0  0  0  0
   65.9490   34.1990   51.6360 C   0  0  0  0  0  0  0  0  0  0  0  0
   66.8620   35.1960   51.9100 C   0  0  0  0  0  0  0  0  0  0  0  0
   68.1360   35.1530   51.3500 C   0  0  0  0  0  0  0  0  0  0  0  0
   69.3170   36.4240   51.6900 Cl  0  0  0  0  0  0  0  0  0  0  0  0
   68.4890   34.1140   50.5220 C   0  0  0  0  0  0  0  0  0  0  0  0
   67.5610   33.1240   50.2590 C   0  0  0  0  0  0  0  0  0  0  0  0
   62.9710   32.6150   50.2820 N   0  0  0  0  0  0  0  0  0  0  0  0
   62.0830   33.0600   49.3690 C   0  0  0  0  0  0  0  0  0  0  0  0
   60.7690   33.3270   49.4340 N   0  0  0  0  0  0  0  0  0  0  0  0
   60.1330   33.1190   50.6890 C   0  0  0  0  0  0  0  0  0  0  0  0
   60.5810   33.8240   51.7900 C   0  0  0  0  0  0  0  0  0  0  0  0
   59.9970   33.6620   53.0440 C   0  0  0  0  0  0  0  0  0  0  0  0
   58.9480   32.7720   53.1620 C   0  0  0  0  0  0  0  0  0  0  0  0
   58.4990   32.0640   52.0550 C   0  0  0  0  0  0  0  0  0  0  0  0
   57.3560   31.1260   52.3030 C   0  0  0  0  0  0  0  0  0  0  0  0
   57.6170   29.8770   51.7700 F   0  0  0  0  0  0  0  0  0  0  0  0
   57.1200   30.9970   53.6650 F   0  0  0  0  0  0  0  0  0  0  0  0
   56.2390   31.6120   51.6260 F   0  0  0  0  0  0  0  0  0  0  0  0
   59.0760   32.2270   50.8270 C   0  0  0  0  0  0  0  0  0  0  0  0
   60.1260   33.7690   48.3410 C   0  0  0  0  0  0  0  0  0  0  0  0
   58.8890   33.9990   48.4750 O   0  0  0  0  0  0  0  0  0  0  0  0
   60.7670   33.9550   47.1570 N   0  0  0  0  0  0  0  0  0  0  0  0
   60.0160   34.4340   46.0130 C   0  0  0  0  0  0  0  0  0  0  0  0
   59.1600   33.4210   45.3880 C   0  0  0  0  0  0  0  0  0  0  0  0
   58.5880   33.6590   44.1350 C   0  0  0  0  0  0  0  0  0  0  0  0
   57.7760   32.7190   43.5200 C   0  0  0  0  0  0  0  0  0  0  0  0
   57.5010   31.5040   44.1320 C   0  0  0  0  0  0  0  0  0  0  0  0
   58.0560   31.2570   45.3650 C   0  0  0  0  0  0  0  0  0  0  0  0
   58.8610   32.2020   45.9580 C   0  0  0  0  0  0  0  0  0  0  0  0
   64.8670   32.9090   47.7260 H   0  0  0  0  0  0  0  0  0  0  0  0
   65.0442   31.5468   51.3825 H   0  0  0  0  0  0  0  0  0  0  0  0
   65.9397   31.3480   49.8169 H   0  0  0  0  0  0  0  0  0  0  0  0
   64.9439   34.2412   52.0810 H   0  0  0  0  0  0  0  0  0  0  0  0
   66.5826   36.0279   52.5732 H   0  0  0  0  0  0  0  0  0  0  0  0
   69.4936   34.0712   50.0760 H   0  0  0  0  0  0  0  0  0  0  0  0
   67.8339   32.2895   49.5964 H   0  0  0  0  0  0  0  0  0  0  0  0
   61.4175   34.5288   51.6733 H   0  0  0  0  0  0  0  0  0  0  0  0
   60.3609   34.2267   53.9151 H   0  0  0  0  0  0  0  0  0  0  0  0
   58.4650   32.6229   54.1390 H   0  0  0  0  0  0  0  0  0  0  0  0
   58.7087   31.6597   49.9591 H   0  0  0  0  0  0  0  0  0  0  0  0
   59.3788   35.2676   46.3433 H   0  0  0  0  0  0  0  0  0  0  0  0
   60.7538   34.7353   45.2548 H   0  0  0  0  0  0  0  0  0  0  0  0
   58.7867   34.6135   43.6257 H   0  0  0  0  0  0  0  0  0  0  0  0
   57.3434   32.9391   42.5329 H   0  0  0  0  0  0  0  0  0  0  0  0
   56.8562   30.7587   43.6434 H   0  0  0  0  0  0  0  0  0  0  0  0
   57.8566   30.3042   45.8773 H   0  0  0  0  0  0  0  0  0  0  0  0
   59.2909   31.9715   46.9439 H   0  0  0  0  0  0  0  0  0  0  0  0
  1  2  2  0
  2  3  1  0
  3  4  1  0
  4  5  1  0
  5  6  1  0
  6  7  1  0
  7  8  2  0
  8  9  1  0
  9 10  2  0
 10 11  1  0
 10 12  1  0
 12 13  2  0
  5 14  2  0
 14 15  1  0
 15 16  1  0
 16 17  1  0
 17 18  2  0
 18 19  1  0
 19 20  2  0
 20 21  1  0
 21 22  1  0
 22 23  1  0
 22 24  1  0
 22 25  1  0
 21 26  2  0
 16 27  1  0
 27 28  2  0
 27 29  1  0
 29 30  1  0
 30 31  1  0
 31 32  2  0
 32 33  1  0
 33 34  2  0
 34 35  1  0
 35 36  2  0
 29  2  1  0
 36 31  1  0
 15  3  2  0
 26 17  1  0
 13  7  1  0
  4 37  1  0
  6 38  1  0
  6 39  1  0
  8 40  1  0
  9 41  1  0
 12 42  1  0
 13 43  1  0
 18 44  1  0
 19 45  1  0
 20 46  1  0
 26 47  1  0
 30 48  1  0
 30 49  1  0
 32 50  1  0
 33 51  1  0
 34 52  1  0
 35 53  1  0
 36 54  1  0
M  END
>  <smiles>  (8) 
O=c1c2[nH]c(Cc3ccc(Cl)cc3)nc2n(-c2cccc(C(F)(F)F)c2)c(=O)n1Cc1ccccc1

>  <score_type>  (8) 
oracle

>  <origin>  (8) 
adg

>  <m_score__min__energy>  (8) 
-8.6799999999999997

>  <m_primary>  (8) 
energy

$$$$
8:0
     RDKit          3D

 67 69  0  0  0  0  0  0  0  0999 V2000
   52.5940   24.0540   45.1210 C   0  0  0  0  0  0  0  0  0  0  0  0
   53.9770   23.9570   45.6740 C   0  0  0  0  0  0  0  0  0  0  0  0
   54.2800   22.9930   46.4280 O   0  0  0  0  0  0  0  0  0  0  0  0
   54.9550   24.9470   45.3220 N   0  0  0  0  0  0  0  0  0  0  0  0
   56.3490   24.8960   45.7770 C   0  0  1  0  0  0  0  0  0  0  0  0
   57.1690   24.0250   44.8030 C   0  0  0  0  0  0  0  0  0  0  0  0
   56.8980   22.5580   45.0220 C   0  0  0  0  0  0  0  0  0  0  0  0
   56.4580   21.7530   43.9580 C   0  0  0  0  0  0  0  0  0  0  0  0
   56.2490   20.3840   44.1480 C   0  0  0  0  0  0  0  0  0  0  0  0
   56.4880   19.8060   45.3980 C   0  0  0  0  0  0  0  0  0  0  0  0
   56.9380   20.5960   46.4600 C   0  0  0  0  0  0  0  0  0  0  0  0
   57.1450   21.9670   46.2740 C   0  0  0  0  0  0  0  0  0  0  0  0
   56.9280   26.3290   45.8680 C   0  0  2  0  0  0  0  0  0  0  0  0
   55.9020   27.2590   45.6230 O   0  0  0  0  0  0  0  0  0  0  0  0
   58.0630   26.5390   44.8450 C   0  0  0  0  0  0  0  0  0  0  0  0
   59.0670   27.4900   45.3750 N   0  0  0  0  0  0  0  0  0  0  0  0
   59.2470   27.4570   46.8460 C   0  0  0  0  0  0  0  0  0  0  0  0
   58.6790   28.7020   47.5470 C   0  0  0  0  0  0  0  0  0  0  0  0
   59.1260   29.9890   46.9500 N   0  0  0  0  0  0  0  0  0  0  0  0
   59.9230   30.8050   47.8870 C   0  0  0  0  0  0  0  0  0  0  0  0
   59.8100   32.2630   47.5290 C   0  0  0  0  0  0  0  0  0  0  0  0
   60.9050   32.9390   46.9730 C   0  0  0  0  0  0  0  0  0  0  0  0
   60.7910   34.2880   46.6290 C   0  0  0  0  0  0  0  0  0  0  0  0
   59.5810   34.9480   46.8450 C   0  0  0  0  0  0  0  0  0  0  0  0
   58.5270   34.2790   47.3840 N   0  0  0  0  0  0  0  0  0  0  0  0
   58.6120   32.9660   47.7290 C   0  0  0  0  0  0  0  0  0  0  0  0
   59.8260   29.8440   45.6570 C   0  0  0  0  0  0  0  0  0  0  0  0
   59.1040   28.8380   44.7440 C   0  0  2  0  0  0  0  0  0  0  0  0
   57.7290   29.3760   44.3530 C   0  0  0  0  0  0  0  0  0  0  0  0
   57.1310   28.8820   43.3590 O   0  0  0  0  0  0  0  0  0  0  0  0
   57.0860   30.4510   45.0580 N   0  0  0  0  0  0  0  0  0  0  0  0
   56.6070   31.7150   44.5030 C   0  0  0  0  0  0  0  0  0  0  0  0
   57.7750   32.5990   44.0630 C   0  0  0  0  0  0  0  0  0  0  0  0
   58.8970   32.3050   44.8170 F   0  0  0  0  0  0  0  0  0  0  0  0
   58.0650   32.4010   42.7260 F   0  0  0  0  0  0  0  0  0  0  0  0
   57.4390   33.9260   44.2550 F   0  0  0  0  0  0  0  0  0  0  0  0
   51.8710   24.1047   45.9484 H   0  0  0  0  0  0  0  0  0  0  0  0
   52.5087   24.9603   44.5035 H   0  0  0  0  0  0  0  0  0  0  0  0
   52.3831   23.1684   44.5035 H   0  0  0  0  0  0  0  0  0  0  0  0
   54.6770   25.7060   44.6590 H   0  0  0  0  0  0  0  0  0  0  0  0
   56.3996   24.4465   46.7797 H   0  0  0  0  0  0  0  0  0  0  0  0
   56.8980   24.2895   43.7702 H   0  0  0  0  0  0  0  0  0  0  0  0
   58.2377   24.2123   44.9841 H   0  0  0  0  0  0  0  0  0  0  0  0
   56.2770   22.2023   42.9704 H   0  0  0  0  0  0  0  0  0  0  0  0
   55.8961   19.7610   43.3130 H   0  0  0  0  0  0  0  0  0  0  0  0
   56.3219   18.7288   45.5462 H   0  0  0  0  0  0  0  0  0  0  0  0
   57.1294   20.1394   47.4423 H   0  0  0  0  0  0  0  0  0  0  0  0
   57.5025   22.5854   47.1106 H   0  0  0  0  0  0  0  0  0  0  0  0
   57.3419   26.4732   46.8769 H   0  0  0  0  0  0  0  0  0  0  0  0
   56.1800   27.8120   44.8450 H   0  0  0  0  0  0  0  0  0  0  0  0
   58.5501   25.5741   44.6411 H   0  0  0  0  0  0  0  0  0  0  0  0
   57.6363   26.9506   43.9184 H   0  0  0  0  0  0  0  0  0  0  0  0
   58.7356   26.5673   47.2422 H   0  0  0  0  0  0  0  0  0  0  0  0
   60.3285   27.4308   47.0454 H   0  0  0  0  0  0  0  0  0  0  0  0
   57.5812   28.6586   47.4933 H   0  0  0  0  0  0  0  0  0  0  0  0
   59.0535   28.6837   48.5811 H   0  0  0  0  0  0  0  0  0  0  0  0
   59.5503   30.6518   48.9105 H   0  0  0  0  0  0  0  0  0  0  0  0
   60.9778   30.4994   47.8229 H   0  0  0  0  0  0  0  0  0  0  0  0
   61.8537   32.4073   46.8077 H   0  0  0  0  0  0  0  0  0  0  0  0
   61.6464   34.8244   46.1923 H   0  0  0  0  0  0  0  0  0  0  0  0
   59.4795   36.0105   46.5790 H   0  0  0  0  0  0  0  0  0  0  0  0
   57.7411   32.4548   48.1651 H   0  0  0  0  0  0  0  0  0  0  0  0
   59.8608   30.8226   45.1560 H   0  0  0  0  0  0  0  0  0  0  0  0
   60.8427   29.4715   45.8509 H   0  0  0  0  0  0  0  0  0  0  0  0
   59.6654   28.7139   43.8062 H   0  0  0  0  0  0  0  0  0  0  0  0
   55.9666   31.5061   43.6333 H   0  0  0  0  0  0  0  0  0  0  0  0
   56.0395   32.2464   45.2812 H   0  0  0  0  0  0  0  0  0  0  0  0
  1  2  1  0
  2  3  2  0
  2  4  1  0
  4  5  1  0
  5  6  1  0
  6  7  1  0
  7  8  2  0
  8  9  1  0
  9 10  2  0
 10 11  1  0
 11 12  2  0
  5 13  1  0
 13 14  1  0
 13 15  1  0
 15 16  1  0
 16 17  1  0
 17 18  1  0
 18 19  1  0
 19 20  1  0
 20 21  1  0
 21 22  2  0
 22 23  1  0
 23 24  2  0
 24 25  1  0
 25 26  2  0
 19 27  1  0
 27 28  1  0
 28 29  1  0
 29 30  2  0
 29 31  1  0
 31 32  1  0
 32 33  1  0
 33 34  1  0
 33 35  1  0
 33 36  1  0
 12  7  1  0
 28 16  1  0
 26 21  1  0
  1 37  1  0
  1 38  1  0
  1 39  1  0
  4 40  1  0
  5 41  1  1
  6 42  1  0
  6 43  1  0
  8 44  1  0
  9 45  1  0
 10 46  1  0
 11 47  1  0
 12 48  1  0
 13 49  1  1
 14 50  1  0
 15 51  1  0
 15 52  1  0
 17 53  1  0
 17 54  1  0
 18 55  1  0
 18 56  1  0
 20 57  1  0
 20 58  1  0
 22 59  1  0
 23 60  1  0
 24 61  1  0
 26 62  1  0
 27 63  1  0
 27 64  1  0
 28 65  1  6
 32 66  1  0
 32 67  1  0
M  CHG  1  31  -1
M  END
>  <UniqueID>  (9) 
7

>  <SMILES>  (9) 
CC(=O)N[C@@H](Cc1ccccc1)[C@H](O)CN1CCN(Cc2cccnc2)CC1C(=O)[N-]CC(F)(F)F

>  <Energy>  (9) 
80.38329819605251

>  <Genealogy>  (9) 
CC(=O)NC(Cc1ccccc1)C(O)CN1CCN(Cc2cccnc2)CC1C(=O)[N-]CC(F)(F)F (protonated)
CC(=O)N[C@@H](Cc1ccccc1)[C@H](O)CN1CCN(Cc2cccnc2)CC1C(=O)[N-]CC(F)(F)F (chirality)
CC(=O)N[C@@H](Cc1ccccc1)[C@H](O)CN1CCN(Cc2cccnc2)CC1C(=O)[N-]CC(F)(F)F (3D coordinates assigned)
CC(=O)N[C@@H](Cc1ccccc1)[C@H](O)CN1CCN(Cc2cccnc2)CC1C(=O)[N-]CC(F)(F)F (nonaromatic ring conformer: 80.38329819605251 kcal/mol)

>  <smiles>  (9) 
CC(=O)NC(Cc1ccccc1)C(O)CN1CCN(Cc2cccnc2)CC1C(=O)NCC(F)(F)F

>  <score_type>  (9) 
oracle

>  <origin>  (9) 
adg

>  <m_score__min__energy>  (9) 
-11.33

>  <m_primary>  (9) 
energy

$$$$
9:0
     RDKit          3D

 69 73  0  0  0  0  0  0  0  0999 V2000
   58.1110   32.6650   51.5740 C   0  0  0  0  0  0  0  0  0  0  0  0
   59.0720   33.2890   52.5870 C   0  0  0  0  0  0  0  0  0  0  0  0
   60.3300   32.4350   52.8020 C   0  0  0  0  0  0  0  0  0  0  0  0
   61.2930   32.5560   51.6480 C   0  0  0  0  0  0  0  0  0  0  0  0
   61.6310   33.7530   51.1250 N   0  0  0  0  0  0  0  0  0  0  0  0
   62.4450   33.4540   50.0950 C   0  0  0  0  0  0  0  0  0  0  0  0
   62.5810   32.0780   49.9920 C   0  0  0  0  0  0  0  0  0  0  0  0
   61.8430   31.5160   50.9750 N   0  0  0  0  0  0  0  0  0  0  0  0
   61.6990   30.0820   51.2540 C   0  0  0  0  0  0  0  0  0  0  0  0
   60.7280   29.4420   50.2950 C   0  0  0  0  0  0  0  0  0  0  0  0
   59.6240   30.1660   49.8120 C   0  0  0  0  0  0  0  0  0  0  0  0
   58.7250   29.5720   48.9210 C   0  0  0  0  0  0  0  0  0  0  0  0
   58.8990   28.2420   48.5220 C   0  0  0  0  0  0  0  0  0  0  0  0
   57.9780   27.6640   47.5880 N   0  0  0  0  0  0  0  0  0  0  0  0
   58.1570   26.4110   46.9120 C   0  0  0  0  0  0  0  0  0  0  0  0
   58.5080   25.4120   47.5890 O   0  0  0  0  0  0  0  0  0  0  0  0
   58.0770   26.3120   45.4290 C   0  0  0  0  0  0  0  0  0  0  0  0
   57.7350   25.0720   44.8550 C   0  0  0  0  0  0  0  0  0  0  0  0
   57.5810   24.9410   43.4720 C   0  0  0  0  0  0  0  0  0  0  0  0
   57.7670   26.0430   42.6420 C   0  0  0  0  0  0  0  0  0  0  0  0
   58.1120   27.2810   43.1870 C   0  0  0  0  0  0  0  0  0  0  0  0
   58.2770   27.4300   44.5740 C   0  0  0  0  0  0  0  0  0  0  0  0
   58.6620   28.7620   45.0920 C   0  0  0  0  0  0  0  0  0  0  0  0
   59.9940   28.9400   45.5030 C   0  0  0  0  0  0  0  0  0  0  0  0
   60.4340   30.1740   45.9800 C   0  0  0  0  0  0  0  0  0  0  0  0
   59.5450   31.2430   46.0690 C   0  0  0  0  0  0  0  0  0  0  0  0
   58.2100   31.0790   45.6940 C   0  0  0  0  0  0  0  0  0  0  0  0
   57.7370   29.8400   45.2150 C   0  0  0  0  0  0  0  0  0  0  0  0
   56.2900   29.7200   44.8760 C   0  0  0  0  0  0  0  0  0  0  0  0
   55.6710   30.6510   44.2980 O   0  0  0  0  0  0  0  0  0  0  0  0
   55.5950   28.5520   45.1790 O   0  0  0  0  0  0  0  0  0  0  0  0
   60.0050   27.5210   48.9950 C   0  0  0  0  0  0  0  0  0  0  0  0
   60.9080   28.1120   49.8810 C   0  0  0  0  0  0  0  0  0  0  0  0
   63.3590   31.2880   48.9610 C   0  0  0  0  0  0  0  0  0  0  0  0
   63.0420   31.6110   47.4900 C   0  0  0  0  0  0  0  0  0  0  0  0
   63.5300   33.0100   47.0770 C   0  0  0  0  0  0  0  0  0  0  0  0
   62.7010   34.1660   47.6760 C   0  0  0  0  0  0  0  0  0  0  0  0
   62.9800   34.4890   49.1530 C   0  0  0  0  0  0  0  0  0  0  0  0
   57.3045   32.1413   52.1081 H   0  0  0  0  0  0  0  0  0  0  0  0
   57.6795   33.4557   50.9426 H   0  0  0  0  0  0  0  0  0  0  0  0
   58.6578   31.9492   50.9426 H   0  0  0  0  0  0  0  0  0  0  0  0
   59.3763   34.2807   52.2210 H   0  0  0  0  0  0  0  0  0  0  0  0
   58.5454   33.3595   53.5502 H   0  0  0  0  0  0  0  0  0  0  0  0
   60.8331   32.7675   53.7219 H   0  0  0  0  0  0  0  0  0  0  0  0
   60.0196   31.3825   52.8794 H   0  0  0  0  0  0  0  0  0  0  0  0
   62.6800   29.5950   51.1517 H   0  0  0  0  0  0  0  0  0  0  0  0
   61.3141   29.9601   52.2772 H   0  0  0  0  0  0  0  0  0  0  0  0
   59.4666   31.2051   50.1367 H   0  0  0  0  0  0  0  0  0  0  0  0
   57.8763   30.1533   48.5315 H   0  0  0  0  0  0  0  0  0  0  0  0
   57.5873   24.1957   45.5033 H   0  0  0  0  0  0  0  0  0  0  0  0
   57.3126   23.9661   43.0390 H   0  0  0  0  0  0  0  0  0  0  0  0
   57.6418   25.9380   41.5542 H   0  0  0  0  0  0  0  0  0  0  0  0
   58.2559   28.1473   42.5246 H   0  0  0  0  0  0  0  0  0  0  0  0
   60.6975   28.0962   45.4477 H   0  0  0  0  0  0  0  0  0  0  0  0
   61.4826   30.3035   46.2859 H   0  0  0  0  0  0  0  0  0  0  0  0
   59.8958   32.2190   46.4357 H   0  0  0  0  0  0  0  0  0  0  0  0
   57.5167   31.9293   45.7735 H   0  0  0  0  0  0  0  0  0  0  0  0
   60.1621   26.4832   48.6659 H   0  0  0  0  0  0  0  0  0  0  0  0
   61.7646   27.5331   50.2566 H   0  0  0  0  0  0  0  0  0  0  0  0
   64.4294   31.4806   49.1256 H   0  0  0  0  0  0  0  0  0  0  0  0
   63.0657   30.2378   49.1060 H   0  0  0  0  0  0  0  0  0  0  0  0
   63.5332   30.8628   46.8505 H   0  0  0  0  0  0  0  0  0  0  0  0
   61.9487   31.5890   47.3706 H   0  0  0  0  0  0  0  0  0  0  0  0
   64.5727   33.1243   47.4081 H   0  0  0  0  0  0  0  0  0  0  0  0
   63.4232   33.0746   45.9841 H   0  0  0  0  0  0  0  0  0  0  0  0
   62.9082   35.0715   47.0868 H   0  0  0  0  0  0  0  0  0  0  0  0
   61.6522   33.8372   47.6333 H   0  0  0  0  0  0  0  0  0  0  0  0
   64.0683   34.5620   49.2953 H   0  0  0  0  0  0  0  0  0  0  0  0
   62.4687   35.4355   49.3828 H   0  0  0  0  0  0  0  0  0  0  0  0
  1  2  1  0
  2  3  1  0
  3  4  1  0
  4  5  2  0
  5  6  1  0
  6  7  2  0
  7  8  1  0
  8  9  1  0
  9 10  1  0
 10 11  2  0
 11 12  1  0
 12 13  2  0
 13 14  1  0
 14 15  1  0
 15 16  2  0
 15 17  1  0
 17 18  2  0
 18 19  1  0
 19 20  2  0
 20 21  1  0
 21 22  2  0
 22 23  1  0
 23 24  2  0
 24 25  1  0
 25 26  2  0
 26 27  1  0
 27 28  2  0
 28 29  1  0
 29 30  2  0
 29 31  1  0
 13 32  1  0
 32 33  2  0
  7 34  1  0
 34 35  1  0
 35 36  1  0
 36 37  1  0
 37 38  1  0
  8  4  1  0
 33 10  1  0
 38  6  1  0
 22 17  1  0
 28 23  1  0
  1 39  1  0
  1 40  1  0
  1 41  1  0
  2 42  1  0
  2 43  1  0
  3 44  1  0
  3 45  1  0
  9 46  1  0
  9 47  1  0
 11 48  1  0
 12 49  1  0
 18 50  1  0
 19 51  1  0
 20 52  1  0
 21 53  1  0
 24 54  1  0
 25 55  1  0
 26 56  1  0
 27 57  1  0
 32 58  1  0
 33 59  1  0
 34 60  1  0
 34 61  1  0
 35 62  1  0
 35 63  1  0
 36 64  1  0
 36 65  1  0
 37 66  1  0
 37 67  1  0
 38 68  1  0
 38 69  1  0
M  CHG  2  14  -1  31  -1
M  END
>  <UniqueID>  (10) 
8

>  <SMILES>  (10) 
CCCc1nc2c(n1Cc1ccc([N-]C(=O)c3ccccc3-c3ccccc3C(=O)[O-])cc1)CCCCC2

>  <Energy>  (10) 
122.16058497560486

>  <Genealogy>  (10) 
CCCc1nc2c(n1Cc1ccc([N-]C(=O)c3ccccc3-c3ccccc3C(=O)[O-])cc1)CCCCC2 (protonated)
CCCc1nc2c(n1Cc1ccc([N-]C(=O)c3ccccc3-c3ccccc3C(=O)[O-])cc1)CCCCC2 (3D coordinates assigned)
CCCc1nc2c(n1Cc1ccc([N-]C(=O)c3ccccc3-c3ccccc3C(=O)[O-])cc1)CCCCC2 (nonaromatic ring conformer: 122.16058497560486 kcal/mol)

>  <smiles>  (10) 
CCCc1nc2c(n1Cc1ccc(NC(=O)c3ccccc3-c3ccccc3C(=O)O)cc1)CCCCC2

>  <score_type>  (10) 
oracle

>  <origin>  (10) 
adg

>  <m_score__min__energy>  (10) 
-12.449999999999999

>  <m_primary>  (10) 
energy

$$$$
10:0
     RDKit          3D

 44 44  0  0  0  0  0  0  0  0999 V2000
   57.7500   28.7020   45.7640 C   0  0  0  0  0  0  0  0  0  0  0  0
   58.1900   30.0180   45.1270 C   0  0  0  0  0  0  0  0  0  0  0  0
   57.0160   30.8900   44.8900 N   0  0  0  0  0  0  0  0  0  0  0  0
   55.9130   30.1390   44.2470 C   0  0  0  0  0  0  0  0  0  0  0  0
   56.2840   29.7800   42.8110 C   0  0  0  0  0  0  0  0  0  0  0  0
   57.3860   32.0840   44.0940 C   0  0  0  0  0  0  0  0  0  0  0  0
   57.0610   33.3620   44.8870 C   0  0  0  0  0  0  0  0  0  0  0  0
   57.3900   33.2290   46.3180 N   0  0  0  0  0  0  0  0  0  0  0  0
   58.7310   33.6760   46.5970 C   0  0  0  0  0  0  0  0  0  0  0  0
   59.2730   34.8810   46.1990 C   0  0  0  0  0  0  0  0  0  0  0  0
   60.5680   34.9190   46.5570 N   0  0  0  0  0  0  0  0  0  0  0  0
   60.8640   33.7840   47.1780 N   0  0  0  0  0  0  0  0  0  0  0  0
   62.2210   33.4620   47.6400 C   0  0  0  0  0  0  0  0  0  0  0  0
   62.5270   34.1940   48.9510 C   0  0  0  0  0  0  0  0  0  0  0  0
   63.2390   33.8320   46.5580 C   0  0  0  0  0  0  0  0  0  0  0  0
   59.7690   32.9830   47.2150 C   0  0  0  0  0  0  0  0  0  0  0  0
   59.7380   31.6000   47.8250 C   0  0  0  0  0  0  0  0  0  0  0  0
   60.5390   30.7090   47.1420 F   0  0  0  0  0  0  0  0  0  0  0  0
   60.1770   31.6660   49.1350 F   0  0  0  0  0  0  0  0  0  0  0  0
   58.4410   31.1190   47.8020 F   0  0  0  0  0  0  0  0  0  0  0  0
   57.7815   28.7963   46.8595 H   0  0  0  0  0  0  0  0  0  0  0  0
   56.7239   28.4656   45.4457 H   0  0  0  0  0  0  0  0  0  0  0  0
   58.4275   27.8960   45.4457 H   0  0  0  0  0  0  0  0  0  0  0  0
   58.8930   30.5303   45.8003 H   0  0  0  0  0  0  0  0  0  0  0  0
   58.6787   29.8050   44.1648 H   0  0  0  0  0  0  0  0  0  0  0  0
   55.7232   29.2160   44.8144 H   0  0  0  0  0  0  0  0  0  0  0  0
   55.0102   30.7673   44.2371 H   0  0  0  0  0  0  0  0  0  0  0  0
   57.0745   29.0151   42.8168 H   0  0  0  0  0  0  0  0  0  0  0  0
   55.3979   29.3876   42.2905 H   0  0  0  0  0  0  0  0  0  0  0  0
   56.6470   30.6785   42.2905 H   0  0  0  0  0  0  0  0  0  0  0  0
   58.4632   32.0557   43.8729 H   0  0  0  0  0  0  0  0  0  0  0  0
   56.8140   32.0849   43.1544 H   0  0  0  0  0  0  0  0  0  0  0  0
   57.6408   34.1968   44.4664 H   0  0  0  0  0  0  0  0  0  0  0  0
   55.9793   33.5441   44.8050 H   0  0  0  0  0  0  0  0  0  0  0  0
   56.7110   33.7840   46.8900 H   0  0  0  0  0  0  0  0  0  0  0  0
   57.2890   32.2330   46.6140 H   0  0  0  0  0  0  0  0  0  0  0  0
   58.7322   35.6817   45.6733 H   0  0  0  0  0  0  0  0  0  0  0  0
   62.2890   32.3808   47.8308 H   0  0  0  0  0  0  0  0  0  0  0  0
   62.2580   33.5505   49.8016 H   0  0  0  0  0  0  0  0  0  0  0  0
   63.6000   34.4321   48.9962 H   0  0  0  0  0  0  0  0  0  0  0  0
   61.9427   35.1249   48.9962 H   0  0  0  0  0  0  0  0  0  0  0  0
   64.1717   34.1710   47.0326 H   0  0  0  0  0  0  0  0  0  0  0  0
   63.4452   32.9513   45.9320 H   0  0  0  0  0  0  0  0  0  0  0  0
   62.8316   34.6395   45.9320 H   0  0  0  0  0  0  0  0  0  0  0  0
  1  2  1  0
  2  3  1  0
  3  4  1  0
  4  5  1  0
  3  6  1  0
  6  7  1  0
  7  8  1  0
  8  9  1  0
  9 10  1  0
 10 11  2  0
 11 12  1  0
 12 13  1  0
 13 14  1  0
 13 15  1  0
 12 16  1  0
 16 17  1  0
 17 18  1  0
 17 19  1  0
 17 20  1  0
 16  9  2  0
  1 21  1  0
  1 22  1  0
  1 23  1  0
  2 24  1  0
  2 25  1  0
  4 26  1  0
  4 27  1  0
  5 28  1  0
  5 29  1  0
  5 30  1  0
  6 31  1  0
  6 32  1  0
  7 33  1  0
  7 34  1  0
  8 35  1  0
  8 36  1  0
 10 37  1  0
 13 38  1  0
 14 39  1  0
 14 40  1  0
 14 41  1  0
 15 42  1  0
 15 43  1  0
 15 44  1  0
M  CHG  1   8   1
M  END
>  <UniqueID>  (11) 
9

>  <SMILES>  (11) 
CCN(CC)CC[NH2+]c1cnn(C(C)C)c1C(F)(F)F

>  <Energy>  (11) 
67.48718148306274

>  <Genealogy>  (11) 
CCN(CC)CC[NH2+]c1cnn(C(C)C)c1C(F)(F)F (protonated)
CCN(CC)CC[NH2+]c1cnn(C(C)C)c1C(F)(F)F (3D coordinates assigned)
CCN(CC)CC[NH2+]c1cnn(C(C)C)c1C(F)(F)F (optimized conformer: 67.48718148306274 kcal/mol)

>  <smiles>  (11) 
CCN(CC)CCNc1cnn(C(C)C)c1C(F)(F)F

>  <score_type>  (11) 
oracle

>  <origin>  (11) 
adg

>  <m_score__min__energy>  (11) 
-3.5899999999999999

>  <m_primary>  (11) 
energy

$$$$
11:0
     RDKit          3D

 38 40  0  0  0  0  0  0  0  0999 V2000
   58.2680   27.5550   43.3270 O   0  0  0  0  0  0  0  0  0  0  0  0
   58.3260   28.1870   44.4180 C   0  0  0  0  0  0  0  0  0  0  0  0
   57.7060   29.5240   44.4980 C   0  0  0  0  0  0  0  0  0  0  0  0
   58.2950   30.7150   44.1220 C   0  0  0  0  0  0  0  0  0  0  0  0
   57.3130   31.6500   44.3700 C   0  0  0  0  0  0  0  0  0  0  0  0
   57.4130   33.1250   44.1470 C   0  0  0  0  0  0  0  0  0  0  0  0
   57.3160   33.8250   45.3870 O   0  0  0  0  0  0  0  0  0  0  0  0
   58.2810   33.8050   46.4070 C   0  0  0  0  0  0  0  0  0  0  0  0
   59.4100   34.6480   46.4040 C   0  0  0  0  0  0  0  0  0  0  0  0
   60.3360   34.5880   47.4500 C   0  0  0  0  0  0  0  0  0  0  0  0
   60.1480   33.6890   48.5030 C   0  0  0  0  0  0  0  0  0  0  0  0
   59.0330   32.8480   48.5120 C   0  0  0  0  0  0  0  0  0  0  0  0
   58.1040   32.9060   47.4680 C   0  0  0  0  0  0  0  0  0  0  0  0
   56.2560   31.0400   44.8540 O   0  0  0  0  0  0  0  0  0  0  0  0
   56.4550   29.7570   44.9420 N   0  0  0  0  0  0  0  0  0  0  0  0
   58.9360   27.5850   45.5910 N   0  0  0  0  0  0  0  0  0  0  0  0
   60.3870   27.8640   45.6230 C   0  0  0  0  0  0  0  0  0  0  0  0
   60.6890   29.3390   45.9850 C   0  0  0  0  0  0  0  0  0  0  0  0
   59.5780   30.0210   46.5400 O   0  0  0  0  0  0  0  0  0  0  0  0
   58.9500   29.2150   47.5130 C   0  0  0  0  0  0  0  0  0  0  0  0
   58.2740   27.9950   46.8560 C   0  0  0  0  0  0  0  0  0  0  0  0
   59.3060   30.8785   43.7206 H   0  0  0  0  0  0  0  0  0  0  0  0
   58.3799   33.3553   43.6758 H   0  0  0  0  0  0  0  0  0  0  0  0
   56.5876   33.4430   43.4931 H   0  0  0  0  0  0  0  0  0  0  0  0
   59.5635   35.3557   45.5760 H   0  0  0  0  0  0  0  0  0  0  0  0
   61.2144   35.2500   47.4439 H   0  0  0  0  0  0  0  0  0  0  0  0
   60.8780   33.6437   49.3246 H   0  0  0  0  0  0  0  0  0  0  0  0
   58.8854   32.1397   49.3405 H   0  0  0  0  0  0  0  0  0  0  0  0
   57.2278   32.2411   47.4796 H   0  0  0  0  0  0  0  0  0  0  0  0
   58.8190   26.5480   45.5120 H   0  0  0  0  0  0  0  0  0  0  0  0
   60.8572   27.2113   46.3733 H   0  0  0  0  0  0  0  0  0  0  0  0
   60.7909   27.6725   44.6179 H   0  0  0  0  0  0  0  0  0  0  0  0
   61.5103   29.3574   46.7165 H   0  0  0  0  0  0  0  0  0  0  0  0
   60.9531   29.8552   45.0503 H   0  0  0  0  0  0  0  0  0  0  0  0
   59.7039   28.8655   48.2337 H   0  0  0  0  0  0  0  0  0  0  0  0
   58.1811   29.8125   48.0247 H   0  0  0  0  0  0  0  0  0  0  0  0
   58.3089   27.1513   47.5610 H   0  0  0  0  0  0  0  0  0  0  0  0
   57.2396   28.2793   46.6127 H   0  0  0  0  0  0  0  0  0  0  0  0
  1  2  2  0
  2  3  1  0
  3  4  1  0
  4  5  2  0
  5  6  1  0
  6  7  1  0
  7  8  1  0
  8  9  2  0
  9 10  1  0
 10 11  2  0
 11 12  1  0
 12 13  2  0
  5 14  1  0
 14 15  1  0
  2 16  1  0
 16 17  1  0
 17 18  1  0
 18 19  1  0
 19 20  1  0
 20 21  1  0
 15  3  2  0
 21 16  1  0
 13  8  1  0
  4 22  1  0
  6 23  1  0
  6 24  1  0
  9 25  1  0
 10 26  1  0
 11 27  1  0
 12 28  1  0
 13 29  1  0
 16 30  1  0
 17 31  1  0
 17 32  1  0
 18 33  1  0
 18 34  1  0
 20 35  1  0
 20 36  1  0
 21 37  1  0
 21 38  1  0
M  CHG  1  16   1
M  END
>  <UniqueID>  (12) 
10

>  <SMILES>  (12) 
O=C(c1cc(COc2ccccc2)on1)[NH+]1CCOCC1

>  <Energy>  (12) 
81.89889889766212

>  <Genealogy>  (12) 
O=C(c1cc(COc2ccccc2)on1)[NH+]1CCOCC1 (protonated)
O=C(c1cc(COc2ccccc2)on1)[NH+]1CCOCC1 (3D coordinates assigned)
O=C(c1cc(COc2ccccc2)on1)[NH+]1CCOCC1 (nonaromatic ring conformer: 81.89889889766212 kcal/mol)

>  <smiles>  (12) 
O=C(c1cc(COc2ccccc2)on1)N1CCOCC1

>  <score_type>  (12) 
oracle

>  <origin>  (12) 
adg

>  <m_score__min__energy>  (12) 
-6.1200000000000001

>  <m_primary>  (12) 
energy

$$$$
12:0
     RDKit          3D

 44 46  0  0  0  0  0  0  0  0999 V2000
   54.0030   25.4750   45.6310 O   0  0  0  0  0  0  0  0  0  0  0  0
   55.2480   25.2780   45.6230 C   0  0  0  0  0  0  0  0  0  0  0  0
   56.1250   26.1430   46.3590 N   0  0  0  0  0  0  0  0  0  0  0  0
   57.1390   26.9980   45.8120 C   0  0  0  0  0  0  0  0  0  0  0  0
   58.4940   26.6240   45.7780 C   0  0  0  0  0  0  0  0  0  0  0  0
   59.4510   27.4960   45.2510 C   0  0  0  0  0  0  0  0  0  0  0  0
   59.0700   28.7490   44.7690 C   0  0  0  0  0  0  0  0  0  0  0  0
   57.7270   29.1460   44.8270 C   0  0  0  0  0  0  0  0  0  0  0  0
   57.2270   30.7180   44.2080 S   0  0  0  0  0  0  0  0  0  0  0  0
   55.7780   30.9590   44.5300 O   0  0  0  0  0  0  0  0  0  0  0  0
   57.3920   30.7220   42.7130 O   0  0  0  0  0  0  0  0  0  0  0  0
   58.2140   31.9720   44.9150 N   0  0  0  0  0  0  0  0  0  0  0  0
   57.7510   33.2950   44.4560 C   0  0  0  0  0  0  0  0  0  0  0  0
   58.7110   34.4130   44.9120 C   0  0  0  0  0  0  0  0  0  0  0  0
   59.4850   34.0450   46.1890 C   0  0  0  0  0  0  0  0  0  0  0  0
   58.6420   33.1590   47.1070 C   0  0  0  0  0  0  0  0  0  0  0  0
   58.1860   31.8650   46.3940 C   0  0  0  0  0  0  0  0  0  0  0  0
   56.7680   28.2680   45.3510 C   0  0  0  0  0  0  0  0  0  0  0  0
   55.7810   24.1130   44.8950 C   0  0  0  0  0  0  0  0  0  0  0  0
   55.0260   23.3990   44.0470 C   0  0  0  0  0  0  0  0  0  0  0  0
   55.5950   22.3370   43.3330 O   0  0  0  0  0  0  0  0  0  0  0  0
   57.0100   22.1460   43.2760 C   0  0  0  0  0  0  0  0  0  0  0  0
   57.6290   22.4880   44.6310 C   0  0  0  0  0  0  0  0  0  0  0  0
   57.1200   23.7430   45.0890 O   0  0  0  0  0  0  0  0  0  0  0  0
   58.8019   25.6423   46.1673 H   0  0  0  0  0  0  0  0  0  0  0  0
   60.5080   27.1935   45.2161 H   0  0  0  0  0  0  0  0  0  0  0  0
   59.8249   29.4262   44.3429 H   0  0  0  0  0  0  0  0  0  0  0  0
   59.1930   31.8160   44.5760 H   0  0  0  0  0  0  0  0  0  0  0  0
   57.6972   33.2947   43.3573 H   0  0  0  0  0  0  0  0  0  0  0  0
   56.7603   33.4876   44.8936 H   0  0  0  0  0  0  0  0  0  0  0  0
   59.4338   34.6070   44.1058 H   0  0  0  0  0  0  0  0  0  0  0  0
   58.1036   35.3024   45.1358 H   0  0  0  0  0  0  0  0  0  0  0  0
   60.4016   33.5044   45.9104 H   0  0  0  0  0  0  0  0  0  0  0  0
   59.7316   34.9718   46.7276 H   0  0  0  0  0  0  0  0  0  0  0  0
   59.2411   32.8877   47.9888 H   0  0  0  0  0  0  0  0  0  0  0  0
   57.7443   33.7240   47.3982 H   0  0  0  0  0  0  0  0  0  0  0  0
   58.8530   31.0448   46.6979 H   0  0  0  0  0  0  0  0  0  0  0  0
   57.1425   31.6797   46.6887 H   0  0  0  0  0  0  0  0  0  0  0  0
   55.7141   28.5791   45.4007 H   0  0  0  0  0  0  0  0  0  0  0  0
   53.9627   23.6469   43.9127 H   0  0  0  0  0  0  0  0  0  0  0  0
   57.2280   21.0966   43.0284 H   0  0  0  0  0  0  0  0  0  0  0  0
   57.4363   22.8030   42.5036 H   0  0  0  0  0  0  0  0  0  0  0  0
   57.3747   21.7027   45.3581 H   0  0  0  0  0  0  0  0  0  0  0  0
   58.7220   22.5539   44.5265 H   0  0  0  0  0  0  0  0  0  0  0  0
  1  2  2  0
  2  3  1  0
  3  4  1  0
  4  5  2  0
  5  6  1  0
  6  7  2  0
  7  8  1  0
  8  9  1  0
  9 10  2  0
  9 11  2  0
  9 12  1  0
 12 13  1  0
 13 14  1  0
 14 15  1  0
 15 16  1  0
 16 17  1  0
  8 18  2  0
  2 19  1  0
 19 20  2  0
 20 21  1  0
 21 22  1  0
 22 23  1  0
 23 24  1  0
 18  4  1  0
 24 19  1  0
 17 12  1  0
  5 25  1  0
  6 26  1  0
  7 27  1  0
 12 28  1  0
 13 29  1  0
 13 30  1  0
 14 31  1  0
 14 32  1  0
 15 33  1  0
 15 34  1  0
 16 35  1  0
 16 36  1  0
 17 37  1  0
 17 38  1  0
 18 39  1  0
 20 40  1  0
 22 41  1  0
 22 42  1  0
 23 43  1  0
 23 44  1  0
M  CHG  2   3  -1  12   1
M  END
>  <UniqueID>  (13) 
11

>  <SMILES>  (13) 
O=C([N-]c1cccc(S(=O)(=O)[NH+]2CCCCC2)c1)C1=COCCO1

>  <Energy>  (13) 
50.26111700414135

>  <Genealogy>  (13) 
O=C([N-]c1cccc(S(=O)(=O)[NH+]2CCCCC2)c1)C1=COCCO1 (protonated)
O=C([N-]c1cccc(S(=O)(=O)[NH+]2CCCCC2)c1)C1=COCCO1 (3D coordinates assigned)
O=C([N-]c1cccc(S(=O)(=O)[NH+]2CCCCC2)c1)C1=COCCO1 (nonaromatic ring conformer: 50.26111700414135 kcal/mol)

>  <smiles>  (13) 
O=C(Nc1cccc(S(=O)(=O)N2CCCCC2)c1)C1=COCCO1

>  <score_type>  (13) 
oracle

>  <origin>  (13) 
adg

>  <m_score__min__energy>  (13) 
-9.3200000000000003

>  <m_primary>  (13) 
energy

$$$$
13:0
     RDKit          3D

 45 47  0  0  0  0  0  0  0  0999 V2000
   59.3780   27.2720   46.5810 O   0  0  0  0  0  0  0  0  0  0  0  0
   58.4990   28.1620   46.7420 C   0  0  0  0  0  0  0  0  0  0  0  0
   57.3480   28.2470   45.7910 C   0  0  0  0  0  0  0  0  0  0  0  0
   57.8280   28.6480   44.4500 N   0  0  0  0  0  0  0  0  0  0  0  0
   58.9600   29.6080   44.5100 C   0  0  0  0  0  0  0  0  0  0  0  0
   58.5160   31.0830   44.4280 C   0  0  0  0  0  0  0  0  0  0  0  0
   57.1380   31.2170   44.9240 N   0  0  0  0  0  0  0  0  0  0  0  0
   56.7400   32.6130   45.2150 C   0  0  0  0  0  0  0  0  0  0  0  0
   57.8380   33.4490   45.8420 C   0  0  0  0  0  0  0  0  0  0  0  0
   58.0910   33.3700   47.2230 C   0  0  0  0  0  0  0  0  0  0  0  0
   59.1070   34.1390   47.7990 C   0  0  0  0  0  0  0  0  0  0  0  0
   59.8830   34.9850   47.0030 C   0  0  0  0  0  0  0  0  0  0  0  0
   59.6480   35.0590   45.6270 C   0  0  0  0  0  0  0  0  0  0  0  0
   58.6330   34.2920   45.0470 C   0  0  0  0  0  0  0  0  0  0  0  0
   56.1750   30.5000   44.0620 C   0  0  0  0  0  0  0  0  0  0  0  0
   56.7340   29.1400   43.5890 C   0  0  0  0  0  0  0  0  0  0  0  0
   58.6200   29.1330   47.7890 N   0  0  0  0  0  0  0  0  0  0  0  0
   59.7070   30.0520   47.9760 C   0  0  0  0  0  0  0  0  0  0  0  0
   59.7640   30.9240   49.0800 C   0  0  0  0  0  0  0  0  0  0  0  0
   60.8290   31.8210   49.2130 C   0  0  0  0  0  0  0  0  0  0  0  0
   61.8340   31.8660   48.2420 C   0  0  0  0  0  0  0  0  0  0  0  0
   63.2860   33.0940   48.4240 Br  0  0  0  0  0  0  0  0  0  0  0  0
   61.7700   31.0180   47.1320 C   0  0  0  0  0  0  0  0  0  0  0  0
   60.7050   30.1210   46.9970 C   0  0  0  0  0  0  0  0  0  0  0  0
   56.8578   27.2646   45.7237 H   0  0  0  0  0  0  0  0  0  0  0  0
   56.6316   28.9971   46.1573 H   0  0  0  0  0  0  0  0  0  0  0  0
   59.4955   29.4571   45.4589 H   0  0  0  0  0  0  0  0  0  0  0  0
   59.5994   29.4118   43.6367 H   0  0  0  0  0  0  0  0  0  0  0  0
   59.1870   31.7010   45.0426 H   0  0  0  0  0  0  0  0  0  0  0  0
   58.5592   31.4175   43.3810 H   0  0  0  0  0  0  0  0  0  0  0  0
   56.4379   33.0905   44.2712 H   0  0  0  0  0  0  0  0  0  0  0  0
   55.9199   32.5643   45.9465 H   0  0  0  0  0  0  0  0  0  0  0  0
   57.4870   32.7004   47.8529 H   0  0  0  0  0  0  0  0  0  0  0  0
   59.2955   34.0776   48.8810 H   0  0  0  0  0  0  0  0  0  0  0  0
   60.6786   35.5927   47.4588 H   0  0  0  0  0  0  0  0  0  0  0  0
   60.2624   35.7215   44.9997 H   0  0  0  0  0  0  0  0  0  0  0  0
   58.4559   34.3488   43.9628 H   0  0  0  0  0  0  0  0  0  0  0  0
   55.2488   30.3268   44.6296 H   0  0  0  0  0  0  0  0  0  0  0  0
   55.9829   31.1194   43.1735 H   0  0  0  0  0  0  0  0  0  0  0  0
   55.9189   28.4014   43.5976 H   0  0  0  0  0  0  0  0  0  0  0  0
   57.1422   29.2801   42.5772 H   0  0  0  0  0  0  0  0  0  0  0  0
   58.9690   30.8998   49.8398 H   0  0  0  0  0  0  0  0  0  0  0  0
   60.8759   32.4923   50.0832 H   0  0  0  0  0  0  0  0  0  0  0  0
   62.5573   31.0562   46.3647 H   0  0  0  0  0  0  0  0  0  0  0  0
   60.6515   29.4654   46.1154 H   0  0  0  0  0  0  0  0  0  0  0  0
  1  2  2  0
  2  3  1  0
  3  4  1  0
  4  5  1  0
  5  6  1  0
  6  7  1  0
  7  8  1  0
  8  9  1  0
  9 10  2  0
 10 11  1  0
 11 12  2  0
 12 13  1  0
 13 14  2  0
  7 15  1  0
 15 16  1  0
  2 17  1  0
 17 18  1  0
 18 19  2  0
 19 20  1  0
 20 21  2  0
 21 22  1  0
 21 23  1  0
 23 24  2  0
 16  4  1  0
 24 18  1  0
 14  9  1  0
  3 25  1  0
  3 26  1  0
  5 27  1  0
  5 28  1  0
  6 29  1  0
  6 30  1  0
  8 31  1  0
  8 32  1  0
 10 33  1  0
 11 34  1  0
 12 35  1  0
 13 36  1  0
 14 37  1  0
 15 38  1  0
 15 39  1  0
 16 40  1  0
 16 41  1  0
 19 42  1  0
 20 43  1  0
 23 44  1  0
 24 45  1  0
M  CHG  1  17  -1
M  END
>  <UniqueID>  (14) 
12

>  <SMILES>  (14) 
O=C(CN1CCN(Cc2ccccc2)CC1)[N-]c1ccc(Br)cc1

>  <Energy>  (14) 
62.71113491420702

>  <Genealogy>  (14) 
O=C(CN1CCN(Cc2ccccc2)CC1)[N-]c1ccc(Br)cc1 (protonated)
O=C(CN1CCN(Cc2ccccc2)CC1)[N-]c1ccc(Br)cc1 (3D coordinates assigned)
O=C(CN1CCN(Cc2ccccc2)CC1)[N-]c1ccc(Br)cc1 (nonaromatic ring conformer: 62.71113491420702 kcal/mol)

>  <smiles>  (14) 
O=C(CN1CCN(Cc2ccccc2)CC1)Nc1ccc(Br)cc1

>  <score_type>  (14) 
oracle

>  <origin>  (14) 
adg

>  <m_score__min__energy>  (14) 
-9.8000000000000007

>  <m_primary>  (14) 
energy

$$$$
14:0
     RDKit          3D

 52 54  0  0  0  0  0  0  0  0999 V2000
   63.7540   33.0480   46.8480 C   0  0  0  0  0  0  0  0  0  0  0  0
   62.4060   33.7540   46.7370 C   0  0  0  0  0  0  0  0  0  0  0  0
   61.6270   33.6260   48.0250 C   0  0  0  0  0  0  0  0  0  0  0  0
   62.3050   33.7660   49.2490 C   0  0  0  0  0  0  0  0  0  0  0  0
   61.6060   33.7290   50.4570 C   0  0  0  0  0  0  0  0  0  0  0  0
   60.2200   33.5670   50.4590 C   0  0  0  0  0  0  0  0  0  0  0  0
   59.5300   33.4390   49.2520 C   0  0  0  0  0  0  0  0  0  0  0  0
   60.2200   33.4620   48.0320 C   0  0  0  0  0  0  0  0  0  0  0  0
   59.4790   33.3380   46.8130 N   0  0  0  0  0  0  0  0  0  0  0  0
   59.0550   32.1860   46.2590 C   0  0  0  0  0  0  0  0  0  0  0  0
   58.4180   32.4600   45.0610 C   0  0  0  0  0  0  0  0  0  0  0  0
   57.7240   31.4670   44.1740 C   0  0  2  0  0  0  0  0  0  0  0  0
   57.8040   31.8950   42.8380 O   0  0  0  0  0  0  0  0  0  0  0  0
   56.3710   31.3430   44.5810 O   0  0  0  0  0  0  0  0  0  0  0  0
   55.9500   29.9980   44.4750 C   0  0  0  0  0  0  0  0  0  0  0  0
   56.8140   29.2780   43.4780 C   0  0  0  0  0  0  0  0  0  0  0  0
   56.6400   29.5020   42.2480 O   0  0  0  0  0  0  0  0  0  0  0  0
   57.8470   28.3610   43.8980 N   0  0  0  0  0  0  0  0  0  0  0  0
   58.0900   27.1480   43.1110 C   0  0  0  0  0  0  0  0  0  0  0  0
   58.6470   28.6190   45.0670 C   0  0  0  0  0  0  0  0  0  0  0  0
   58.1090   28.4310   46.3500 C   0  0  0  0  0  0  0  0  0  0  0  0
   58.8890   28.6820   47.4840 C   0  0  0  0  0  0  0  0  0  0  0  0
   60.2060   29.1270   47.3440 C   0  0  0  0  0  0  0  0  0  0  0  0
   60.7450   29.3250   46.0700 C   0  0  0  0  0  0  0  0  0  0  0  0
   59.9690   29.0740   44.9340 C   0  0  0  0  0  0  0  0  0  0  0  0
   58.4520   33.8330   44.8800 C   0  0  0  0  0  0  0  0  0  0  0  0
   59.1270   34.3320   45.9750 C   0  0  0  0  0  0  0  0  0  0  0  0
   59.4170   35.6740   46.1990 O   0  0  0  0  0  0  0  0  0  0  0  0
   64.0111   32.9133   47.9090 H   0  0  0  0  0  0  0  0  0  0  0  0
   63.6947   32.0652   46.3575 H   0  0  0  0  0  0  0  0  0  0  0  0
   64.5281   33.6565   46.3575 H   0  0  0  0  0  0  0  0  0  0  0  0
   62.5734   34.8195   46.5209 H   0  0  0  0  0  0  0  0  0  0  0  0
   61.8279   33.2858   45.9267 H   0  0  0  0  0  0  0  0  0  0  0  0
   63.3960   33.9059   49.2548 H   0  0  0  0  0  0  0  0  0  0  0  0
   62.1487   33.8277   51.4087 H   0  0  0  0  0  0  0  0  0  0  0  0
   59.6709   33.5401   51.4118 H   0  0  0  0  0  0  0  0  0  0  0  0
   58.4366   33.3192   49.2584 H   0  0  0  0  0  0  0  0  0  0  0  0
   59.1933   31.1839   46.6910 H   0  0  0  0  0  0  0  0  0  0  0  0
   58.2106   30.4839   44.2558 H   0  0  0  0  0  0  0  0  0  0  0  0
   58.0890   31.1120   42.2970 H   0  0  0  0  0  0  0  0  0  0  0  0
   56.0370   29.5085   45.4562 H   0  0  0  0  0  0  0  0  0  0  0  0
   54.9024   29.9677   44.1408 H   0  0  0  0  0  0  0  0  0  0  0  0
   58.2601   26.2988   43.7892 H   0  0  0  0  0  0  0  0  0  0  0  0
   57.2154   26.9411   42.4767 H   0  0  0  0  0  0  0  0  0  0  0  0
   58.9767   27.2940   42.4767 H   0  0  0  0  0  0  0  0  0  0  0  0
   57.0710   28.0853   46.4640 H   0  0  0  0  0  0  0  0  0  0  0  0
   58.4648   28.5288   48.4873 H   0  0  0  0  0  0  0  0  0  0  0  0
   60.8186   29.3215   48.2367 H   0  0  0  0  0  0  0  0  0  0  0  0
   61.7808   29.6787   45.9606 H   0  0  0  0  0  0  0  0  0  0  0  0
   60.3956   29.2335   43.9327 H   0  0  0  0  0  0  0  0  0  0  0  0
   58.0299   34.4048   44.0404 H   0  0  0  0  0  0  0  0  0  0  0  0
   59.2910   36.0870   47.1160 H   0  0  0  0  0  0  0  0  0  0  0  0
  1  2  1  0
  2  3  1  0
  3  4  2  0
  4  5  1  0
  5  6  2  0
  6  7  1  0
  7  8  2  0
  8  9  1  0
  9 10  1  0
 10 11  2  0
 11 12  1  0
 12 13  1  0
 12 14  1  0
 14 15  1  0
 15 16  1  0
 16 17  2  0
 16 18  1  0
 18 19  1  0
 18 20  1  0
 20 21  2  0
 21 22  1  0
 22 23  2  0
 23 24  1  0
 24 25  2  0
 11 26  1  0
 26 27  2  0
 27 28  1  0
  8  3  1  0
 27  9  1  0
 25 20  1  0
  1 29  1  0
  1 30  1  0
  1 31  1  0
  2 32  1  0
  2 33  1  0
  4 34  1  0
  5 35  1  0
  6 36  1  0
  7 37  1  0
 10 38  1  0
 12 39  1  6
 13 40  1  0
 15 41  1  0
 15 42  1  0
 19 43  1  0
 19 44  1  0
 19 45  1  0
 21 46  1  0
 22 47  1  0
 23 48  1  0
 24 49  1  0
 25 50  1  0
 26 51  1  0
 28 52  1  0
M  END
>  <UniqueID>  (15) 
13

>  <SMILES>  (15) 
CCc1ccccc1-n1cc([C@H](O)OCC(=O)N(C)c2ccccc2)cc1O

>  <Energy>  (15) 
91.60338174876274

>  <Genealogy>  (15) 
CCc1ccccc1-n1cc([C@H](O)OCC(=O)N(C)c2ccccc2)cc1O (chirality)
CCc1ccccc1-n1cc([C@H](O)OCC(=O)N(C)c2ccccc2)cc1O (3D coordinates assigned)
CCc1ccccc1-n1cc([C@H](O)OCC(=O)N(C)c2ccccc2)cc1O (optimized conformer: 91.60338174876274 kcal/mol)

>  <smiles>  (15) 
CCc1ccccc1-n1cc(C(O)OCC(=O)N(C)c2ccccc2)cc1O

>  <score_type>  (15) 
oracle

>  <origin>  (15) 
adg

>  <m_score__min__energy>  (15) 
-8.2699999999999996

>  <m_primary>  (15) 
energy

$$$$
15:0
     RDKit          3D

 57 59  0  0  0  0  0  0  0  0999 V2000
   57.9750   26.0440   47.1330 C   0  0  0  0  0  0  0  0  0  0  0  0
   58.8740   27.2490   47.4030 C   0  0  0  0  0  0  0  0  0  0  0  0
   59.2120   27.9610   46.1500 N   0  0  0  0  0  0  0  0  0  0  0  0
   60.6750   28.0000   45.9160 C   0  0  0  0  0  0  0  0  0  0  0  0
   61.0690   28.5940   44.5550 C   0  0  0  0  0  0  0  0  0  0  0  0
   58.4530   27.4720   44.9720 C   0  0  0  0  0  0  0  0  0  0  0  0
   57.4490   28.5310   44.4920 C   0  0  0  0  0  0  0  0  0  0  0  0
   57.7820   29.8600   45.0070 N   0  0  0  0  0  0  0  0  0  0  0  0
   56.9220   30.9990   44.8310 C   0  0  0  0  0  0  0  0  0  0  0  0
   55.7350   30.8270   44.4450 O   0  0  0  0  0  0  0  0  0  0  0  0
   57.3960   32.4200   45.0780 C   0  0  2  0  0  0  0  0  0  0  0  0
   58.3240   33.0170   44.0260 C   0  0  0  0  0  0  0  0  0  0  0  0
   59.0350   34.1400   44.7640 C   0  0  0  0  0  0  0  0  0  0  0  0
   58.6400   33.9880   46.2330 C   0  0  0  0  0  0  0  0  0  0  0  0
   57.9930   32.6780   46.4020 N   0  0  0  0  0  0  0  0  0  0  0  0
   59.1970   31.4970   46.9000 S   0  0  0  0  0  0  0  0  0  0  0  0
   58.5460   30.3330   47.5880 O   0  0  0  0  0  0  0  0  0  0  0  0
   59.9680   31.0010   45.7090 O   0  0  0  0  0  0  0  0  0  0  0  0
   60.2980   32.2450   48.0550 C   0  0  0  0  0  0  0  0  0  0  0  0
   59.8070   32.9880   49.1370 C   0  0  0  0  0  0  0  0  0  0  0  0
   60.6890   33.5690   50.0520 C   0  0  0  0  0  0  0  0  0  0  0  0
   62.0740   33.4150   49.8940 C   0  0  0  0  0  0  0  0  0  0  0  0
   62.9680   33.9940   50.8070 C   0  0  0  0  0  0  0  0  0  0  0  0
   64.3470   33.8320   50.6360 C   0  0  0  0  0  0  0  0  0  0  0  0
   64.8410   33.0930   49.5570 C   0  0  0  0  0  0  0  0  0  0  0  0
   63.9600   32.5110   48.6410 C   0  0  0  0  0  0  0  0  0  0  0  0
   62.5740   32.6650   48.8010 C   0  0  0  0  0  0  0  0  0  0  0  0
   61.6800   32.0850   47.8890 C   0  0  0  0  0  0  0  0  0  0  0  0
   57.6496   25.6078   48.0889 H   0  0  0  0  0  0  0  0  0  0  0  0
   57.0941   26.3653   46.5578 H   0  0  0  0  0  0  0  0  0  0  0  0
   58.5339   25.2911   46.5578 H   0  0  0  0  0  0  0  0  0  0  0  0
   58.3509   27.9418   48.0786 H   0  0  0  0  0  0  0  0  0  0  0  0
   59.8077   26.8894   47.8600 H   0  0  0  0  0  0  0  0  0  0  0  0
   61.1368   28.6090   46.7071 H   0  0  0  0  0  0  0  0  0  0  0  0
   61.0292   26.9586   45.9260 H   0  0  0  0  0  0  0  0  0  0  0  0
   61.6709   29.5014   44.7113 H   0  0  0  0  0  0  0  0  0  0  0  0
   61.6576   27.8565   43.9896 H   0  0  0  0  0  0  0  0  0  0  0  0
   60.1607   28.8494   43.9896 H   0  0  0  0  0  0  0  0  0  0  0  0
   59.1571   27.2471   44.1573 H   0  0  0  0  0  0  0  0  0  0  0  0
   57.8993   26.5663   45.2605 H   0  0  0  0  0  0  0  0  0  0  0  0
   57.4598   28.5610   43.3925 H   0  0  0  0  0  0  0  0  0  0  0  0
   56.4522   28.2559   44.8671 H   0  0  0  0  0  0  0  0  0  0  0  0
   58.7250   29.9790   45.4360 H   0  0  0  0  0  0  0  0  0  0  0  0
   56.4244   32.9320   45.0159 H   0  0  0  0  0  0  0  0  0  0  0  0
   59.0439   32.2665   43.6674 H   0  0  0  0  0  0  0  0  0  0  0  0
   57.7849   33.3689   43.1341 H   0  0  0  0  0  0  0  0  0  0  0  0
   60.1248   34.0446   44.6485 H   0  0  0  0  0  0  0  0  0  0  0  0
   58.7526   35.1269   44.3687 H   0  0  0  0  0  0  0  0  0  0  0  0
   59.5368   34.0450   46.8675 H   0  0  0  0  0  0  0  0  0  0  0  0
   57.9501   34.7930   46.5261 H   0  0  0  0  0  0  0  0  0  0  0  0
   58.7220   33.1145   49.2667 H   0  0  0  0  0  0  0  0  0  0  0  0
   60.2955   34.1494   50.8995 H   0  0  0  0  0  0  0  0  0  0  0  0
   62.5844   34.5759   51.6580 H   0  0  0  0  0  0  0  0  0  0  0  0
   65.0453   34.2879   51.3533 H   0  0  0  0  0  0  0  0  0  0  0  0
   65.9264   32.9691   49.4284 H   0  0  0  0  0  0  0  0  0  0  0  0
   64.3536   31.9312   47.7931 H   0  0  0  0  0  0  0  0  0  0  0  0
   62.0656   31.5019   47.0397 H   0  0  0  0  0  0  0  0  0  0  0  0
  1  2  1  0
  2  3  1  0
  3  4  1  0
  4  5  1  0
  3  6  1  0
  6  7  1  0
  7  8  1  0
  8  9  1  0
  9 10  2  0
  9 11  1  0
 11 12  1  0
 12 13  1  0
 13 14  1  0
 14 15  1  0
 15 16  1  0
 16 17  2  0
 16 18  2  0
 16 19  1  0
 19 20  2  0
 20 21  1  0
 21 22  2  0
 22 23  1  0
 23 24  2  0
 24 25  1  0
 25 26  2  0
 26 27  1  0
 27 28  2  0
 15 11  1  0
 28 19  1  0
 27 22  1  0
  1 29  1  0
  1 30  1  0
  1 31  1  0
  2 32  1  0
  2 33  1  0
  4 34  1  0
  4 35  1  0
  5 36  1  0
  5 37  1  0
  5 38  1  0
  6 39  1  0
  6 40  1  0
  7 41  1  0
  7 42  1  0
  8 43  1  0
 11 44  1  1
 12 45  1  0
 12 46  1  0
 13 47  1  0
 13 48  1  0
 14 49  1  0
 14 50  1  0
 20 51  1  0
 21 52  1  0
 23 53  1  0
 24 54  1  0
 25 55  1  0
 26 56  1  0
 28 57  1  0
M  END
>  <UniqueID>  (16) 
14

>  <SMILES>  (16) 
CCN(CC)CCNC(=O)[C@@H]1CCCN1S(=O)(=O)c1ccc2ccccc2c1

>  <Energy>  (16) 
68.17262243244217

>  <Genealogy>  (16) 
CCN(CC)CCNC(=O)[C@@H]1CCCN1S(=O)(=O)c1ccc2ccccc2c1 (chirality)
CCN(CC)CCNC(=O)[C@@H]1CCCN1S(=O)(=O)c1ccc2ccccc2c1 (3D coordinates assigned)
CCN(CC)CCNC(=O)[C@@H]1CCCN1S(=O)(=O)c1ccc2ccccc2c1 (nonaromatic ring conformer: 68.17262243244217 kcal/mol)

>  <smiles>  (16) 
CCN(CC)CCNC(=O)C1CCCN1S(=O)(=O)c1ccc2ccccc2c1

>  <score_type>  (16) 
oracle

>  <origin>  (16) 
adg

>  <m_score__min__energy>  (16) 
-8.6400000000000006

>  <m_primary>  (16) 
energy

$$$$
16:0
     RDKit          3D

 37 40  0  0  0  0  0  0  0  0999 V2000
   60.1320   26.0340   46.1220 C   0  0  0  0  0  0  0  0  0  0  0  0
   58.7230   25.6140   45.9260 C   0  0  0  0  0  0  0  0  0  0  0  0
   58.3100   24.3890   45.4130 C   0  0  0  0  0  0  0  0  0  0  0  0
   56.9260   24.3910   45.3930 C   0  0  0  0  0  0  0  0  0  0  0  0
   55.9620   23.4610   44.9940 C   0  0  0  0  0  0  0  0  0  0  0  0
   54.6190   23.7990   45.1120 C   0  0  0  0  0  0  0  0  0  0  0  0
   54.2700   25.0420   45.6190 C   0  0  0  0  0  0  0  0  0  0  0  0
   55.2130   25.9260   45.9990 N   0  0  0  0  0  0  0  0  0  0  0  0
   56.5320   25.6150   45.8910 C   0  0  0  0  0  0  0  0  0  0  0  0
   57.6340   26.3540   46.2140 N   0  0  0  0  0  0  0  0  0  0  0  0
   57.5620   27.7000   46.7680 C   0  0  0  0  0  0  0  0  0  0  0  0
   57.0420   28.6910   45.7930 C   0  0  0  0  0  0  0  0  0  0  0  0
   57.7020   29.7930   45.4400 N   0  0  0  0  0  0  0  0  0  0  0  0
   56.9360   30.4750   44.5300 C   0  0  0  0  0  0  0  0  0  0  0  0
   57.3760   31.7390   43.9400 C   0  0  0  0  0  0  0  0  0  0  0  0
   57.3350   32.9350   44.8130 C   0  0  0  0  0  0  0  0  0  0  0  0
   58.5730   33.7790   44.8050 C   0  0  0  0  0  0  0  0  0  0  0  0
   58.0620   33.1210   46.0670 C   0  0  0  0  0  0  0  0  0  0  0  0
   55.8420   29.7350   44.3860 N   0  0  0  0  0  0  0  0  0  0  0  0
   55.8780   28.6680   45.1250 N   0  0  0  0  0  0  0  0  0  0  0  0
   60.3490   26.0987   47.1985 H   0  0  0  0  0  0  0  0  0  0  0  0
   60.8025   25.2967   45.6565 H   0  0  0  0  0  0  0  0  0  0  0  0
   60.2894   27.0181   45.6565 H   0  0  0  0  0  0  0  0  0  0  0  0
   58.9640   23.5683   45.0833 H   0  0  0  0  0  0  0  0  0  0  0  0
   56.2604   22.4806   44.5943 H   0  0  0  0  0  0  0  0  0  0  0  0
   53.8390   23.0864   44.8057 H   0  0  0  0  0  0  0  0  0  0  0  0
   53.2072   25.3100   45.7122 H   0  0  0  0  0  0  0  0  0  0  0  0
   56.8971   27.6853   47.6442 H   0  0  0  0  0  0  0  0  0  0  0  0
   58.5838   28.0039   47.0394 H   0  0  0  0  0  0  0  0  0  0  0  0
   58.4158   31.6062   43.6065 H   0  0  0  0  0  0  0  0  0  0  0  0
   56.6558   31.9463   43.1348 H   0  0  0  0  0  0  0  0  0  0  0  0
   56.2592   33.0280   44.6033 H   0  0  0  0  0  0  0  0  0  0  0  0
   59.4908   33.4139   44.3209 H   0  0  0  0  0  0  0  0  0  0  0  0
   58.8271   34.8040   44.4970 H   0  0  0  0  0  0  0  0  0  0  0  0
   58.6156   32.2801   46.5101 H   0  0  0  0  0  0  0  0  0  0  0  0
   57.7940   33.4770   47.0727 H   0  0  0  0  0  0  0  0  0  0  0  0
   55.1510   27.9400   45.1880 H   0  0  0  0  0  0  0  0  0  0  0  0
  1  2  1  0
  2  3  2  0
  3  4  1  0
  4  5  2  0
  5  6  1  0
  6  7  2  0
  7  8  1  0
  8  9  2  0
  9 10  1  0
 10 11  1  0
 11 12  1  0
 12 13  2  0
 13 14  1  0
 14 15  1  0
 15 16  1  0
 16 17  1  0
 17 18  1  0
 14 19  2  0
 19 20  1  0
 10  2  1  0
 20 12  1  0
  9  4  1  0
 18 16  1  0
  1 21  1  0
  1 22  1  0
  1 23  1  0
  3 24  1  0
  5 25  1  0
  6 26  1  0
  7 27  1  0
 11 28  1  0
 11 29  1  0
 15 30  1  0
 15 31  1  0
 16 32  1  0
 17 33  1  0
 17 34  1  0
 18 35  1  0
 18 36  1  0
 20 37  1  0
M  END
>  <smiles>  (17) 
Cc1cc2cccnc2n1Cc1nc(CC2CC2)n[nH]1

>  <score_type>  (17) 
oracle

>  <origin>  (17) 
adg

>  <m_score__min__energy>  (17) 
-7.5800000000000001

>  <m_primary>  (17) 
energy

$$$$
17:0
     RDKit          3D

 47 48  0  0  0  0  0  0  0  0999 V2000
   62.3650   33.8050   46.7610 C   0  0  0  0  0  0  0  0  0  0  0  0
   60.9270   33.4640   47.0130 C   0  0  0  0  0  0  0  0  0  0  0  0
   60.4970   33.1270   48.3050 C   0  0  0  0  0  0  0  0  0  0  0  0
   59.1460   32.8430   48.5540 C   0  0  0  0  0  0  0  0  0  0  0  0
   58.6860   32.5230   49.9450 C   0  0  0  0  0  0  0  0  0  0  0  0
   58.2160   32.9360   47.5080 C   0  0  0  0  0  0  0  0  0  0  0  0
   58.6330   33.2750   46.2120 C   0  0  0  0  0  0  0  0  0  0  0  0
   57.6250   33.4110   45.1020 C   0  0  0  0  0  0  0  0  0  0  0  0
   57.5070   32.1010   44.3200 C   0  0  0  0  0  0  0  0  0  0  0  0
   56.4370   31.2760   44.8690 N   0  0  0  0  0  0  0  0  0  0  0  0
   56.2160   29.9100   44.4990 C   0  0  0  0  0  0  0  0  0  0  0  0
   55.1410   29.3340   44.8210 O   0  0  0  0  0  0  0  0  0  0  0  0
   57.2750   29.1390   43.7660 C   0  0  0  0  0  0  0  0  0  0  0  0
   58.1920   28.4750   44.7190 N   0  0  0  0  0  0  0  0  0  0  0  0
   57.4680   28.0220   45.9300 C   0  0  0  0  0  0  0  0  0  0  0  0
   58.4360   27.7660   47.0880 C   0  0  0  0  0  0  0  0  0  0  0  0
   59.1140   29.0140   47.5060 N   0  0  0  0  0  0  0  0  0  0  0  0
   60.3870   28.7100   48.1790 C   0  0  0  0  0  0  0  0  0  0  0  0
   59.3030   29.9860   46.4000 C   0  0  0  0  0  0  0  0  0  0  0  0
   59.3910   29.3020   45.0240 C   0  0  0  0  0  0  0  0  0  0  0  0
   59.9880   33.5530   45.9740 C   0  0  0  0  0  0  0  0  0  0  0  0
   62.8863   33.9286   47.7217 H   0  0  0  0  0  0  0  0  0  0  0  0
   62.8391   32.9944   46.1882 H   0  0  0  0  0  0  0  0  0  0  0  0
   62.4247   34.7422   46.1882 H   0  0  0  0  0  0  0  0  0  0  0  0
   61.2246   33.0851   49.1290 H   0  0  0  0  0  0  0  0  0  0  0  0
   59.3632   32.9941   50.6726 H   0  0  0  0  0  0  0  0  0  0  0  0
   57.6658   32.9074   50.0913 H   0  0  0  0  0  0  0  0  0  0  0  0
   58.6916   31.4328   50.0913 H   0  0  0  0  0  0  0  0  0  0  0  0
   57.1515   32.7416   47.7054 H   0  0  0  0  0  0  0  0  0  0  0  0
   56.6450   33.6649   45.5324 H   0  0  0  0  0  0  0  0  0  0  0  0
   57.9562   34.2052   44.4167 H   0  0  0  0  0  0  0  0  0  0  0  0
   57.2865   32.3265   43.2662 H   0  0  0  0  0  0  0  0  0  0  0  0
   58.4569   31.5519   44.3982 H   0  0  0  0  0  0  0  0  0  0  0  0
   56.7951   28.3761   43.1354 H   0  0  0  0  0  0  0  0  0  0  0  0
   57.8551   29.8374   43.1449 H   0  0  0  0  0  0  0  0  0  0  0  0
   56.7475   28.7976   46.2289 H   0  0  0  0  0  0  0  0  0  0  0  0
   56.9485   27.0814   45.6948 H   0  0  0  0  0  0  0  0  0  0  0  0
   57.8742   27.3597   47.9420 H   0  0  0  0  0  0  0  0  0  0  0  0
   59.2007   27.0508   46.7507 H   0  0  0  0  0  0  0  0  0  0  0  0
   60.2429   28.7444   49.2690 H   0  0  0  0  0  0  0  0  0  0  0  0
   60.7262   27.7056   47.8855 H   0  0  0  0  0  0  0  0  0  0  0  0
   61.1434   29.4528   47.8855 H   0  0  0  0  0  0  0  0  0  0  0  0
   58.4523   30.6833   46.3937 H   0  0  0  0  0  0  0  0  0  0  0  0
   60.2540   30.5105   46.5744 H   0  0  0  0  0  0  0  0  0  0  0  0
   59.4901   30.0778   44.2505 H   0  0  0  0  0  0  0  0  0  0  0  0
   60.2631   28.6318   45.0400 H   0  0  0  0  0  0  0  0  0  0  0  0
   60.3165   33.8429   44.9650 H   0  0  0  0  0  0  0  0  0  0  0  0
  1  2  1  0
  2  3  2  0
  3  4  1  0
  4  5  1  0
  4  6  2  0
  6  7  1  0
  7  8  1  0
  8  9  1  0
  9 10  1  0
 10 11  1  0
 11 12  2  0
 11 13  1  0
 13 14  1  0
 14 15  1  0
 15 16  1  0
 16 17  1  0
 17 18  1  0
 17 19  1  0
 19 20  1  0
  7 21  2  0
 21  2  1  0
 20 14  1  0
  1 22  1  0
  1 23  1  0
  1 24  1  0
  3 25  1  0
  5 26  1  0
  5 27  1  0
  5 28  1  0
  6 29  1  0
  8 30  1  0
  8 31  1  0
  9 32  1  0
  9 33  1  0
 13 34  1  0
 13 35  1  0
 15 36  1  0
 15 37  1  0
 16 38  1  0
 16 39  1  0
 18 40  1  0
 18 41  1  0
 18 42  1  0
 19 43  1  0
 19 44  1  0
 20 45  1  0
 20 46  1  0
 21 47  1  0
M  CHG  1  10  -1
M  END
>  <UniqueID>  (18) 
15

>  <SMILES>  (18) 
Cc1cc(C)cc(CC[N-]C(=O)CN2CCN(C)CC2)c1

>  <Energy>  (18) 
52.167737247964666

>  <Genealogy>  (18) 
Cc1cc(C)cc(CC[N-]C(=O)CN2CCN(C)CC2)c1 (protonated)
Cc1cc(C)cc(CC[N-]C(=O)CN2CCN(C)CC2)c1 (3D coordinates assigned)
Cc1cc(C)cc(CC[N-]C(=O)CN2CCN(C)CC2)c1 (nonaromatic ring conformer: 52.167737247964666 kcal/mol)

>  <smiles>  (18) 
Cc1cc(C)cc(CCNC(=O)CN2CCN(C)CC2)c1

>  <score_type>  (18) 
oracle

>  <origin>  (18) 
adg

>  <m_score__min__energy>  (18) 
-9.3000000000000007

>  <m_primary>  (18) 
energy

$$$$
18:0
     RDKit          3D

 59 63  0  0  0  0  0  0  0  0999 V2000
   58.7220   32.1610   43.7780 O   0  0  0  0  0  0  0  0  0  0  0  0
   57.7010   31.9960   44.4990 C   0  0  0  0  0  0  0  0  0  0  0  0
   57.0680   33.1290   45.1130 N   0  0  0  0  0  0  0  0  0  0  0  0
   57.7340   34.4240   45.2310 C   0  0  0  0  0  0  0  0  0  0  0  0
   58.9380   34.3140   46.1280 C   0  0  0  0  0  0  0  0  0  0  0  0
   58.7920   34.4340   47.5190 C   0  0  0  0  0  0  0  0  0  0  0  0
   59.9030   34.3090   48.3580 C   0  0  0  0  0  0  0  0  0  0  0  0
   61.1800   34.0650   47.8200 C   0  0  0  0  0  0  0  0  0  0  0  0
   62.3230   33.9160   48.6850 N   0  0  0  0  0  0  0  0  0  0  0  0
   62.1650   34.1840   50.1240 C   0  0  0  0  0  0  0  0  0  0  0  0
   63.4830   33.9990   50.8830 C   0  0  0  0  0  0  0  0  0  0  0  0
   64.1830   32.7110   50.4190 C   0  0  0  0  0  0  0  0  0  0  0  0
   63.3320   31.5760   50.6260 O   0  0  0  0  0  0  0  0  0  0  0  0
   62.1610   31.2790   49.9110 C   0  0  0  0  0  0  0  0  0  0  0  0
   60.9350   31.4240   50.5740 C   0  0  0  0  0  0  0  0  0  0  0  0
   59.7310   31.1670   49.9070 C   0  0  0  0  0  0  0  0  0  0  0  0
   59.7440   30.7550   48.5720 C   0  0  0  0  0  0  0  0  0  0  0  0
   58.5780   30.4970   47.9300 F   0  0  0  0  0  0  0  0  0  0  0  0
   60.9620   30.5990   47.9030 C   0  0  0  0  0  0  0  0  0  0  0  0
   62.1680   30.8590   48.5650 C   0  0  0  0  0  0  0  0  0  0  0  0
   64.5430   32.7920   48.9180 C   0  0  0  0  0  0  0  0  0  0  0  0
   63.6700   33.7720   48.1070 C   0  0  0  0  0  0  0  0  0  0  0  0
   61.3210   33.9560   46.4270 C   0  0  0  0  0  0  0  0  0  0  0  0
   60.2100   34.0790   45.5880 C   0  0  0  0  0  0  0  0  0  0  0  0
   57.1390   30.6420   44.6520 C   0  0  0  0  0  0  0  0  0  0  0  0
   55.8260   30.2690   44.3700 C   0  0  0  0  0  0  0  0  0  0  0  0
   55.6400   28.9540   44.6230 N   0  0  0  0  0  0  0  0  0  0  0  0
   56.8290   28.4840   45.0400 C   0  0  0  0  0  0  0  0  0  0  0  0
   57.1400   27.1630   45.3620 C   0  0  0  0  0  0  0  0  0  0  0  0
   58.4690   26.8650   45.7090 C   0  0  0  0  0  0  0  0  0  0  0  0
   59.4490   27.8810   45.7210 C   0  0  0  0  0  0  0  0  0  0  0  0
   59.1080   29.2050   45.3860 C   0  0  0  0  0  0  0  0  0  0  0  0
   57.7750   29.4800   45.0660 C   0  0  0  0  0  0  0  0  0  0  0  0
   56.0710   33.0560   45.4200 H   0  0  0  0  0  0  0  0  0  0  0  0
   58.0544   34.7592   44.2335 H   0  0  0  0  0  0  0  0  0  0  0  0
   57.0302   35.1494   45.6651 H   0  0  0  0  0  0  0  0  0  0  0  0
   57.7989   34.6273   47.9507 H   0  0  0  0  0  0  0  0  0  0  0  0
   59.7780   34.4021   49.4469 H   0  0  0  0  0  0  0  0  0  0  0  0
   61.8189   35.2195   50.2578 H   0  0  0  0  0  0  0  0  0  0  0  0
   61.4335   33.4685   50.5277 H   0  0  0  0  0  0  0  0  0  0  0  0
   64.1391   34.8602   50.6882 H   0  0  0  0  0  0  0  0  0  0  0  0
   63.2714   33.9261   51.9600 H   0  0  0  0  0  0  0  0  0  0  0  0
   65.1034   32.6000   51.0111 H   0  0  0  0  0  0  0  0  0  0  0  0
   60.9184   31.7423   51.6268 H   0  0  0  0  0  0  0  0  0  0  0  0
   58.7737   31.2896   50.4347 H   0  0  0  0  0  0  0  0  0  0  0  0
   60.9727   30.2709   46.8531 H   0  0  0  0  0  0  0  0  0  0  0  0
   63.1233   30.7353   48.0338 H   0  0  0  0  0  0  0  0  0  0  0  0
   65.5916   33.1130   48.8322 H   0  0  0  0  0  0  0  0  0  0  0  0
   64.3661   31.7910   48.4975 H   0  0  0  0  0  0  0  0  0  0  0  0
   64.1589   34.7573   48.0950 H   0  0  0  0  0  0  0  0  0  0  0  0
   63.5625   33.3699   47.0888 H   0  0  0  0  0  0  0  0  0  0  0  0
   62.3146   33.7722   45.9924 H   0  0  0  0  0  0  0  0  0  0  0  0
   60.3344   33.9910   44.4986 H   0  0  0  0  0  0  0  0  0  0  0  0
   55.0487   30.9503   43.9937 H   0  0  0  0  0  0  0  0  0  0  0  0
   54.7570   28.4120   44.4900 H   0  0  0  0  0  0  0  0  0  0  0  0
   56.3690   26.3786   45.3449 H   0  0  0  0  0  0  0  0  0  0  0  0
   58.7471   25.8340   45.9728 H   0  0  0  0  0  0  0  0  0  0  0  0
   60.4861   27.6364   45.9940 H   0  0  0  0  0  0  0  0  0  0  0  0
   59.8681   30.0001   45.3763 H   0  0  0  0  0  0  0  0  0  0  0  0
  1  2  2  0
  2  3  1  0
  3  4  1  0
  4  5  1  0
  5  6  2  0
  6  7  1  0
  7  8  2  0
  8  9  1  0
  9 10  1  0
 10 11  1  0
 11 12  1  0
 12 13  1  0
 13 14  1  0
 14 15  2  0
 15 16  1  0
 16 17  2  0
 17 18  1  0
 17 19  1  0
 19 20  2  0
 12 21  1  0
 21 22  1  0
  8 23  1  0
 23 24  2  0
  2 25  1  0
 25 26  2  0
 26 27  1  0
 27 28  1  0
 28 29  2  0
 29 30  1  0
 30 31  2  0
 31 32  1  0
 32 33  2  0
 24  5  1  0
 33 25  1  0
 22  9  1  0
 33 28  1  0
 20 14  1  0
  3 34  1  0
  4 35  1  0
  4 36  1  0
  6 37  1  0
  7 38  1  0
 10 39  1  0
 10 40  1  0
 11 41  1  0
 11 42  1  0
 12 43  1  0
 15 44  1  0
 16 45  1  0
 19 46  1  0
 20 47  1  0
 21 48  1  0
 21 49  1  0
 22 50  1  0
 22 51  1  0
 23 52  1  0
 24 53  1  0
 26 54  1  0
 27 55  1  0
 29 56  1  0
 30 57  1  0
 31 58  1  0
 32 59  1  0
M  END
>  <UniqueID>  (19) 
16

>  <SMILES>  (19) 
O=C(NCc1ccc(N2CCC(Oc3ccc(F)cc3)CC2)cc1)c1c[nH]c2ccccc12

>  <Energy>  (19) 
104.06051078908487

>  <Genealogy>  (19) 
O=C(NCc1ccc(N2CCC(Oc3ccc(F)cc3)CC2)cc1)c1c[nH]c2ccccc12 (3D coordinates assigned)
O=C(NCc1ccc(N2CCC(Oc3ccc(F)cc3)CC2)cc1)c1c[nH]c2ccccc12 (nonaromatic ring conformer: 104.06051078908487 kcal/mol)

>  <smiles>  (19) 
O=C(NCc1ccc(N2CCC(Oc3ccc(F)cc3)CC2)cc1)c1c[nH]c2ccccc12

>  <score_type>  (19) 
oracle

>  <origin>  (19) 
adg

>  <m_score__min__energy>  (19) 
-9.25

>  <m_primary>  (19) 
energy

$$$$
19:0
     RDKit          3D

 48 50  0  0  0  0  0  0  0  0999 V2000
   55.6866   25.5841   46.8266 H   0  0  0  0  0  0  0  0  0  0  0  0
   56.4760   26.2780   46.5020 C   0  0  0  0  0  0  0  0  0  0  0  0
   56.1810   27.2850   45.6380 N   0  0  0  0  0  0  0  0  0  0  0  0
   57.1220   28.1790   45.2220 C   0  0  0  0  0  0  0  0  0  0  0  0
   56.8310   29.1310   44.3830 N   0  0  0  0  0  0  0  0  0  0  0  0
   56.7060   30.5370   44.6520 C   0  0  0  0  0  0  0  0  0  0  0  0
   55.5750   31.0730   44.5030 O   0  0  0  0  0  0  0  0  0  0  0  0
   57.9070   31.4260   44.9060 C   0  0  0  0  0  0  0  0  0  0  0  0
   58.5965   30.9022   45.5844 H   0  0  0  0  0  0  0  0  0  0  0  0
   58.3781   31.6371   43.9347 H   0  0  0  0  0  0  0  0  0  0  0  0
   57.5320   32.7280   45.5190 N   0  0  0  0  0  0  0  0  0  0  0  0
   56.5060   32.8620   45.3500 H   0  0  0  0  0  0  0  0  0  0  0  0
   57.7520   32.7360   47.0000 C   0  0  0  0  0  0  0  0  0  0  0  0
   56.7727   32.8120   47.4952 H   0  0  0  0  0  0  0  0  0  0  0  0
   58.2802   31.8039   47.2494 H   0  0  0  0  0  0  0  0  0  0  0  0
   58.6320   33.8910   47.4910 C   0  0  0  0  0  0  0  0  0  0  0  0
   58.0764   34.8372   47.4132 H   0  0  0  0  0  0  0  0  0  0  0  0
   58.9138   33.7241   48.5411 H   0  0  0  0  0  0  0  0  0  0  0  0
   59.8360   33.9580   46.6590 N   0  0  0  0  0  0  0  0  0  0  0  0
   61.1540   33.8380   47.2340 C   0  0  0  0  0  0  0  0  0  0  0  0
   62.2800   33.6790   46.4090 C   0  0  0  0  0  0  0  0  0  0  0  0
   62.1564   33.6378   45.3167 H   0  0  0  0  0  0  0  0  0  0  0  0
   63.5550   33.5730   46.9680 C   0  0  0  0  0  0  0  0  0  0  0  0
   64.4303   33.4409   46.3151 H   0  0  0  0  0  0  0  0  0  0  0  0
   63.7230   33.6340   48.3520 C   0  0  0  0  0  0  0  0  0  0  0  0
   64.7287   33.5320   48.7857 H   0  0  0  0  0  0  0  0  0  0  0  0
   62.6150   33.8250   49.1950 C   0  0  0  0  0  0  0  0  0  0  0  0
   62.7870   33.8430   50.6930 C   0  0  0  0  0  0  0  0  0  0  0  0
   63.4690   34.9890   51.0580 F   0  0  0  0  0  0  0  0  0  0  0  0
   61.5580   33.8270   51.3290 F   0  0  0  0  0  0  0  0  0  0  0  0
   63.5050   32.7380   51.1140 F   0  0  0  0  0  0  0  0  0  0  0  0
   61.3310   33.9060   48.6270 C   0  0  0  0  0  0  0  0  0  0  0  0
   60.4543   34.0240   49.2808 H   0  0  0  0  0  0  0  0  0  0  0  0
   59.6740   34.0140   45.2020 C   0  0  0  0  0  0  0  0  0  0  0  0
   60.0393   34.9852   44.8368 H   0  0  0  0  0  0  0  0  0  0  0  0
   60.2507   33.1913   44.7540 H   0  0  0  0  0  0  0  0  0  0  0  0
   58.1960   33.8500   44.8030 C   0  0  0  0  0  0  0  0  0  0  0  0
   57.6621   34.7827   45.0374 H   0  0  0  0  0  0  0  0  0  0  0  0
   58.1642   33.6241   43.7269 H   0  0  0  0  0  0  0  0  0  0  0  0
   58.4420   28.0460   45.6700 C   0  0  0  0  0  0  0  0  0  0  0  0
   59.2127   28.7560   45.3354 H   0  0  0  0  0  0  0  0  0  0  0  0
   58.7780   27.0040   46.5470 C   0  0  0  0  0  0  0  0  0  0  0  0
   60.1780   26.8780   47.0710 C   0  0  0  0  0  0  0  0  0  0  0  0
   60.1594   26.8797   48.1708 H   0  0  0  0  0  0  0  0  0  0  0  0
   60.6201   25.9364   46.7132 H   0  0  0  0  0  0  0  0  0  0  0  0
   60.7811   27.7255   46.7132 H   0  0  0  0  0  0  0  0  0  0  0  0
   57.7790   26.1230   46.9780 C   0  0  0  0  0  0  0  0  0  0  0  0
   58.0188   25.3157   47.6856 H   0  0  0  0  0  0  0  0  0  0  0  0
  1  2  1  0
  2  3  1  0
  3  4  1  0
  4  5  2  0
  5  6  1  0
  6  7  2  0
  6  8  1  0
  8  9  1  0
  8 10  1  0
  8 11  1  0
 11 12  1  0
 11 13  1  0
 13 14  1  0
 13 15  1  0
 13 16  1  0
 16 17  1  0
 16 18  1  0
 16 19  1  0
 19 20  1  0
 20 21  2  0
 21 22  1  0
 21 23  1  0
 23 24  1  0
 23 25  2  0
 25 26  1  0
 25 27  1  0
 27 28  1  0
 28 29  1  0
 28 30  1  0
 28 31  1  0
 27 32  2  0
 32 33  1  0
 19 34  1  0
 34 35  1  0
 34 36  1  0
 34 37  1  0
 37 38  1  0
 37 39  1  0
  4 40  1  0
 40 41  1  0
 40 42  2  0
 42 43  1  0
 43 44  1  0
 43 45  1  0
 43 46  1  0
 42 47  1  0
 47 48  1  0
 47  2  2  0
 37 11  1  0
 32 20  1  0
M  CHG  2   3  -1  11   1
M  END
>  <UniqueID>  (20) 
17

>  <SMILES>  (20) 
Cc1cc[n-]/c(=N\C(=O)C[NH+]2CCN(c3cccc(C(F)(F)F)c3)CC2)c1

>  <Energy>  (20) 
68.85281950810098

>  <Genealogy>  (20) 
Cc1cc[n-]c(=NC(=O)C[NH+]2CCN(c3cccc(C(F)(F)F)c3)CC2)c1 (protonated)
Cc1cc[n-]/c(=N\C(=O)C[NH+]2CCN(c3cccc(C(F)(F)F)c3)CC2)c1 (cis-trans isomerization)
Cc1cc[n-]/c(=N\C(=O)C[NH+]2CCN(c3cccc(C(F)(F)F)c3)CC2)c1 (3D coordinates assigned)
Cc1cc[n-]/c(=N\C(=O)C[NH+]2CCN(c3cccc(C(F)(F)F)c3)CC2)c1 (nonaromatic ring conformer: 68.85281950810098 kcal/mol)

>  <smiles>  (20) 
Cc1cc[nH]c(=NC(=O)CN2CCN(c3cccc(C(F)(F)F)c3)CC2)c1

>  <score_type>  (20) 
oracle

>  <origin>  (20) 
adg

>  <m_score__min__energy>  (20) 
-8.3200000000000003

>  <m_primary>  (20) 
energy

$$$$
20:0
     RDKit          3D

 57 58  0  0  0  0  0  0  0  0999 V2000
   61.1250   30.1220   47.8180 C   0  0  0  0  0  0  0  0  0  0  0  0
   60.3820   30.2280   49.1450 C   0  0  0  0  0  0  0  0  0  0  0  0
   58.8980   29.8870   48.9790 C   0  0  0  0  0  0  0  0  0  0  0  0
   58.4590   30.1900   47.6560 O   0  0  0  0  0  0  0  0  0  0  0  0
   58.2870   29.2650   46.6100 C   0  0  0  0  0  0  0  0  0  0  0  0
   58.1030   27.8870   46.8560 C   0  0  0  0  0  0  0  0  0  0  0  0
   57.9420   26.9940   45.7950 C   0  0  0  0  0  0  0  0  0  0  0  0
   57.9650   27.4560   44.4800 C   0  0  0  0  0  0  0  0  0  0  0  0
   58.1390   28.8150   44.2210 C   0  0  0  0  0  0  0  0  0  0  0  0
   58.2890   29.7320   45.2770 C   0  0  0  0  0  0  0  0  0  0  0  0
   58.3950   31.2080   44.9530 C   0  0  0  0  0  0  0  0  0  0  0  0
   57.8850   32.0460   46.0550 N   0  0  0  0  0  0  0  0  0  0  0  0
   57.4680   33.3980   45.6070 C   0  0  0  0  0  0  0  0  0  0  0  0
   58.6220   34.4170   45.6350 C   0  0  0  0  0  0  0  0  0  0  0  0
   59.0930   34.7170   47.0700 C   0  0  0  0  0  0  0  0  0  0  0  0
   59.9560   33.6370   47.6020 N   0  0  0  0  0  0  0  0  0  0  0  0
   60.8260   33.0920   46.5320 C   0  0  0  0  0  0  0  0  0  0  0  0
   62.1500   33.8840   46.4080 C   0  0  0  0  0  0  0  0  0  0  0  0
   63.3240   33.2680   47.1960 C   0  0  0  0  0  0  0  0  0  0  0  0
   63.1930   33.4020   48.6670 N   0  0  0  0  0  0  0  0  0  0  0  0
   64.2410   32.6350   49.3570 C   0  0  0  0  0  0  0  0  0  0  0  0
   61.8490   33.1310   49.2320 C   0  0  0  0  0  0  0  0  0  0  0  0
   60.7400   34.1060   48.7720 C   0  0  0  0  0  0  0  0  0  0  0  0
   62.1974   29.9690   48.0094 H   0  0  0  0  0  0  0  0  0  0  0  0
   60.7300   29.2711   47.2436 H   0  0  0  0  0  0  0  0  0  0  0  0
   60.9837   31.0494   47.2436 H   0  0  0  0  0  0  0  0  0  0  0  0
   60.8323   29.5287   49.8649 H   0  0  0  0  0  0  0  0  0  0  0  0
   60.4626   31.2636   49.5070 H   0  0  0  0  0  0  0  0  0  0  0  0
   58.7495   28.8144   49.1726 H   0  0  0  0  0  0  0  0  0  0  0  0
   58.3140   30.4865   49.6928 H   0  0  0  0  0  0  0  0  0  0  0  0
   58.0864   27.5144   47.8908 H   0  0  0  0  0  0  0  0  0  0  0  0
   57.7966   25.9226   45.9973 H   0  0  0  0  0  0  0  0  0  0  0  0
   57.8458   26.7482   43.6464 H   0  0  0  0  0  0  0  0  0  0  0  0
   58.1591   29.1733   43.1812 H   0  0  0  0  0  0  0  0  0  0  0  0
   59.4509   31.4588   44.7736 H   0  0  0  0  0  0  0  0  0  0  0  0
   57.7853   31.4078   44.0595 H   0  0  0  0  0  0  0  0  0  0  0  0
   58.5940   32.0870   46.8240 H   0  0  0  0  0  0  0  0  0  0  0  0
   57.0480   31.5630   46.4570 H   0  0  0  0  0  0  0  0  0  0  0  0
   57.0878   33.3255   44.5774 H   0  0  0  0  0  0  0  0  0  0  0  0
   56.6942   33.7540   46.3031 H   0  0  0  0  0  0  0  0  0  0  0  0
   59.4681   34.0109   45.0613 H   0  0  0  0  0  0  0  0  0  0  0  0
   58.2562   35.3562   45.1945 H   0  0  0  0  0  0  0  0  0  0  0  0
   59.6611   35.6589   47.0688 H   0  0  0  0  0  0  0  0  0  0  0  0
   58.2039   34.7928   47.7132 H   0  0  0  0  0  0  0  0  0  0  0  0
   61.0595   32.0422   46.7632 H   0  0  0  0  0  0  0  0  0  0  0  0
   60.2867   33.1762   45.5770 H   0  0  0  0  0  0  0  0  0  0  0  0
   62.4304   33.9254   45.3451 H   0  0  0  0  0  0  0  0  0  0  0  0
   61.9667   34.8806   46.8361 H   0  0  0  0  0  0  0  0  0  0  0  0
   63.3837   32.1977   46.9492 H   0  0  0  0  0  0  0  0  0  0  0  0
   64.2302   33.8187   46.9035 H   0  0  0  0  0  0  0  0  0  0  0  0
   64.1096   32.7311   50.4449 H   0  0  0  0  0  0  0  0  0  0  0  0
   64.1682   31.5753   49.0711 H   0  0  0  0  0  0  0  0  0  0  0  0
   65.2291   33.0248   49.0711 H   0  0  0  0  0  0  0  0  0  0  0  0
   61.5532   32.1134   48.9369 H   0  0  0  0  0  0  0  0  0  0  0  0
   61.9405   33.2597   50.3206 H   0  0  0  0  0  0  0  0  0  0  0  0
   60.0463   34.2585   49.6119 H   0  0  0  0  0  0  0  0  0  0  0  0
   61.2461   35.0313   48.4595 H   0  0  0  0  0  0  0  0  0  0  0  0
  1  2  1  0
  2  3  1  0
  3  4  1  0
  4  5  1  0
  5  6  2  0
  6  7  1  0
  7  8  2  0
  8  9  1  0
  9 10  2  0
 10 11  1  0
 11 12  1  0
 12 13  1  0
 13 14  1  0
 14 15  1  0
 15 16  1  0
 16 17  1  0
 17 18  1  0
 18 19  1  0
 19 20  1  0
 20 21  1  0
 20 22  1  0
 22 23  1  0
 10  5  1  0
 23 16  1  0
  1 24  1  0
  1 25  1  0
  1 26  1  0
  2 27  1  0
  2 28  1  0
  3 29  1  0
  3 30  1  0
  6 31  1  0
  7 32  1  0
  8 33  1  0
  9 34  1  0
 11 35  1  0
 11 36  1  0
 12 37  1  0
 12 38  1  0
 13 39  1  0
 13 40  1  0
 14 41  1  0
 14 42  1  0
 15 43  1  0
 15 44  1  0
 17 45  1  0
 17 46  1  0
 18 47  1  0
 18 48  1  0
 19 49  1  0
 19 50  1  0
 21 51  1  0
 21 52  1  0
 21 53  1  0
 22 54  1  0
 22 55  1  0
 23 56  1  0
 23 57  1  0
M  CHG  1  12   1
M  END
>  <UniqueID>  (21) 
18

>  <SMILES>  (21) 
CCCOc1ccccc1C[NH2+]CCCN1CCCN(C)CC1

>  <Energy>  (21) 
67.26586795275784

>  <Genealogy>  (21) 
CCCOc1ccccc1C[NH2+]CCCN1CCCN(C)CC1 (protonated)
CCCOc1ccccc1C[NH2+]CCCN1CCCN(C)CC1 (3D coordinates assigned)
CCCOc1ccccc1C[NH2+]CCCN1CCCN(C)CC1 (nonaromatic ring conformer: 67.26586795275784 kcal/mol)

>  <smiles>  (21) 
CCCOc1ccccc1CNCCCN1CCCN(C)CC1

>  <score_type>  (21) 
oracle

>  <origin>  (21) 
adg

>  <m_score__min__energy>  (21) 
-2.4500000000000002

>  <m_primary>  (21) 
energy

$$$$
21:0
     RDKit          3D

 36 37  0  0  0  0  0  0  0  0999 V2000
   64.0960   33.0710   48.2080 C   0  0  0  0  0  0  0  0  0  0  0  0
   62.7160   33.4880   48.0010 N   0  0  0  0  0  0  0  0  0  0  0  0
   61.8060   33.7720   48.9540 C   0  0  0  0  0  0  0  0  0  0  0  0
   60.6550   34.2130   48.3340 C   0  0  0  0  0  0  0  0  0  0  0  0
   60.8650   34.2060   47.0010 N   0  0  0  0  0  0  0  0  0  0  0  0
   59.9240   34.6090   45.9570 C   0  0  0  0  0  0  0  0  0  0  0  0
   58.4720   34.5690   46.4560 C   0  0  0  0  0  0  0  0  0  0  0  0
   57.5490   33.6230   45.6600 C   0  0  0  0  0  0  0  0  0  0  0  0
   58.1650   33.0930   44.3540 C   0  0  0  0  0  0  0  0  0  0  0  0
   57.4980   31.8790   43.8740 N   0  0  0  0  0  0  0  0  0  0  0  0
   57.0480   30.8820   44.6620 C   0  0  0  0  0  0  0  0  0  0  0  0
   56.5190   29.8860   43.8620 C   0  0  0  0  0  0  0  0  0  0  0  0
   56.6930   30.3350   42.5670 C   0  0  0  0  0  0  0  0  0  0  0  0
   57.3040   31.5350   42.6040 N   0  0  0  0  0  0  0  0  0  0  0  0
   57.6270   32.3400   41.4260 C   0  0  0  0  0  0  0  0  0  0  0  0
   62.1300   33.7790   46.8250 C   0  0  0  0  0  0  0  0  0  0  0  0
   64.3023   33.0087   49.2867 H   0  0  0  0  0  0  0  0  0  0  0  0
   64.2542   32.0849   47.7468 H   0  0  0  0  0  0  0  0  0  0  0  0
   64.7738   33.8044   47.7468 H   0  0  0  0  0  0  0  0  0  0  0  0
   61.9553   33.6698   50.0390 H   0  0  0  0  0  0  0  0  0  0  0  0
   59.7265   34.5177   48.8391 H   0  0  0  0  0  0  0  0  0  0  0  0
   60.1632   35.6341   45.6376 H   0  0  0  0  0  0  0  0  0  0  0  0
   60.0184   33.9032   45.1186 H   0  0  0  0  0  0  0  0  0  0  0  0
   58.4782   34.2404   47.5058 H   0  0  0  0  0  0  0  0  0  0  0  0
   58.0679   35.5838   46.3260 H   0  0  0  0  0  0  0  0  0  0  0  0
   57.3028   32.7625   46.2994 H   0  0  0  0  0  0  0  0  0  0  0  0
   56.6632   34.2103   45.3763 H   0  0  0  0  0  0  0  0  0  0  0  0
   58.0799   33.8717   43.5818 H   0  0  0  0  0  0  0  0  0  0  0  0
   59.2161   32.8402   44.5573 H   0  0  0  0  0  0  0  0  0  0  0  0
   57.0941   30.8638   45.7609 H   0  0  0  0  0  0  0  0  0  0  0  0
   56.0592   28.9408   44.1864 H   0  0  0  0  0  0  0  0  0  0  0  0
   56.3838   29.8010   41.6564 H   0  0  0  0  0  0  0  0  0  0  0  0
   58.0189   33.3168   41.7457 H   0  0  0  0  0  0  0  0  0  0  0  0
   58.3860   31.8198   40.8233 H   0  0  0  0  0  0  0  0  0  0  0  0
   56.7189   32.4887   40.8233 H   0  0  0  0  0  0  0  0  0  0  0  0
   62.6212   33.6807   45.8457 H   0  0  0  0  0  0  0  0  0  0  0  0
  1  2  1  0
  2  3  1  0
  3  4  2  0
  4  5  1  0
  5  6  1  0
  6  7  1  0
  7  8  1  0
  8  9  1  0
  9 10  1  0
 10 11  1  0
 11 12  2  0
 12 13  1  0
 13 14  2  0
 14 15  1  0
  5 16  1  0
 16  2  2  0
 14 10  1  0
  1 17  1  0
  1 18  1  0
  1 19  1  0
  3 20  1  0
  4 21  1  0
  6 22  1  0
  6 23  1  0
  7 24  1  0
  7 25  1  0
  8 26  1  0
  8 27  1  0
  9 28  1  0
  9 29  1  0
 11 30  1  0
 12 31  1  0
 13 32  1  0
 15 33  1  0
 15 34  1  0
 15 35  1  0
 16 36  1  0
M  CHG  2   2   1  14   1
M  END
>  <UniqueID>  (22) 
19

>  <SMILES>  (22) 
C[n+]1ccn(CCCCn2ccc[n+]2C)c1

>  <Energy>  (22) 
89.23866721492782

>  <Genealogy>  (22) 
C[n+]1ccn(CCCCn2ccc[n+]2C)c1 (3D coordinates assigned)
C[n+]1ccn(CCCCn2ccc[n+]2C)c1 (optimized conformer: 89.23866721492782 kcal/mol)

>  <smiles>  (22) 
C[n+]1ccn(CCCCn2ccc[n+]2C)c1

>  <score_type>  (22) 
oracle

>  <origin>  (22) 
adg

>  <m_score__min__energy>  (22) 
-2.6699999999999999

>  <m_primary>  (22) 
energy

$$$$
22:0
     RDKit          3D

 45 48  0  0  0  0  0  0  0  0999 V2000
   62.4150   34.9700   49.4380 O   0  0  0  0  0  0  0  0  0  0  0  0
   62.0680   33.8200   49.0580 C   0  0  0  0  0  0  0  0  0  0  0  0
   63.1140   32.7620   48.8510 C   0  0  0  0  0  0  0  0  0  0  0  0
   63.0830   32.1370   47.1310 S   0  0  0  0  0  0  0  0  0  0  0  0
   61.6530   31.0850   47.3720 C   0  0  0  0  0  0  0  0  0  0  0  0
   60.6710   31.0480   46.4380 N   0  0  0  0  0  0  0  0  0  0  0  0
   59.5700   30.2610   46.5900 C   0  0  0  0  0  0  0  0  0  0  0  0
   58.5190   30.2700   45.5410 C   0  0  0  0  0  0  0  0  0  0  0  0
   57.4670   29.3340   45.5960 C   0  0  0  0  0  0  0  0  0  0  0  0
   56.4620   29.3360   44.6250 C   0  0  0  0  0  0  0  0  0  0  0  0
   56.4900   30.2720   43.5890 C   0  0  0  0  0  0  0  0  0  0  0  0
   57.5200   31.2130   43.5270 C   0  0  0  0  0  0  0  0  0  0  0  0
   58.5270   31.2170   44.4970 C   0  0  0  0  0  0  0  0  0  0  0  0
   59.4530   29.4770   47.7520 C   0  0  0  0  0  0  0  0  0  0  0  0
   60.4810   29.5160   48.7010 C   0  0  0  0  0  0  0  0  0  0  0  0
   60.3910   28.6950   49.9540 C   0  0  0  0  0  0  0  0  0  0  0  0
   61.5000   28.9280   50.7460 F   0  0  0  0  0  0  0  0  0  0  0  0
   60.3400   27.3520   49.6250 F   0  0  0  0  0  0  0  0  0  0  0  0
   59.2530   29.0250   50.6710 F   0  0  0  0  0  0  0  0  0  0  0  0
   61.5580   30.3200   48.4900 N   0  0  0  0  0  0  0  0  0  0  0  0
   60.6740   33.5410   48.8580 N   0  0  0  0  0  0  0  0  0  0  0  0
   59.8380   32.8570   49.8470 C   0  0  0  0  0  0  0  0  0  0  0  0
   58.4770   32.6060   49.1550 C   0  0  0  0  0  0  0  0  0  0  0  0
   58.6310   33.2770   47.8350 C   0  0  0  0  0  0  0  0  0  0  0  0
   57.6620   33.4490   46.8450 C   0  0  0  0  0  0  0  0  0  0  0  0
   57.9980   34.1890   45.7010 C   0  0  0  0  0  0  0  0  0  0  0  0
   59.2790   34.7580   45.5770 C   0  0  0  0  0  0  0  0  0  0  0  0
   60.2340   34.5790   46.5900 C   0  0  0  0  0  0  0  0  0  0  0  0
   59.8910   33.8000   47.7020 C   0  0  0  0  0  0  0  0  0  0  0  0
   64.1053   33.1903   49.0603 H   0  0  0  0  0  0  0  0  0  0  0  0
   62.9047   31.9241   49.5323 H   0  0  0  0  0  0  0  0  0  0  0  0
   57.4366   28.5953   46.4105 H   0  0  0  0  0  0  0  0  0  0  0  0
   55.6472   28.5988   44.6768 H   0  0  0  0  0  0  0  0  0  0  0  0
   55.7013   30.2681   42.8223 H   0  0  0  0  0  0  0  0  0  0  0  0
   57.5391   31.9528   42.7131 H   0  0  0  0  0  0  0  0  0  0  0  0
   59.3318   31.9651   44.4450 H   0  0  0  0  0  0  0  0  0  0  0  0
   58.5680   28.8436   47.9122 H   0  0  0  0  0  0  0  0  0  0  0  0
   60.2985   31.9026   50.1420 H   0  0  0  0  0  0  0  0  0  0  0  0
   59.7206   33.4587   50.7603 H   0  0  0  0  0  0  0  0  0  0  0  0
   58.2921   31.5289   49.0296 H   0  0  0  0  0  0  0  0  0  0  0  0
   57.6240   32.9893   49.7342 H   0  0  0  0  0  0  0  0  0  0  0  0
   56.6580   33.0144   46.9590 H   0  0  0  0  0  0  0  0  0  0  0  0
   57.2577   34.3247   44.8987 H   0  0  0  0  0  0  0  0  0  0  0  0
   59.5330   35.3456   44.6824 H   0  0  0  0  0  0  0  0  0  0  0  0
   61.2296   35.0403   46.5121 H   0  0  0  0  0  0  0  0  0  0  0  0
  1  2  2  0
  2  3  1  0
  3  4  1  0
  4  5  1  0
  5  6  2  0
  6  7  1  0
  7  8  1  0
  8  9  2  0
  9 10  1  0
 10 11  2  0
 11 12  1  0
 12 13  2  0
  7 14  2  0
 14 15  1  0
 15 16  1  0
 16 17  1  0
 16 18  1  0
 16 19  1  0
 15 20  2  0
  2 21  1  0
 21 22  1  0
 22 23  1  0
 23 24  1  0
 24 25  2  0
 25 26  1  0
 26 27  2  0
 27 28  1  0
 28 29  2  0
 20  5  1  0
 29 21  1  0
 13  8  1  0
 29 24  1  0
  3 30  1  0
  3 31  1  0
  9 32  1  0
 10 33  1  0
 11 34  1  0
 12 35  1  0
 13 36  1  0
 14 37  1  0
 22 38  1  0
 22 39  1  0
 23 40  1  0
 23 41  1  0
 25 42  1  0
 26 43  1  0
 27 44  1  0
 28 45  1  0
M  END
>  <UniqueID>  (23) 
20

>  <SMILES>  (23) 
O=C(CSc1nc(-c2ccccc2)cc(C(F)(F)F)n1)N1CCc2ccccc21

>  <Energy>  (23) 
67.98814754911902

>  <Genealogy>  (23) 
O=C(CSc1nc(-c2ccccc2)cc(C(F)(F)F)n1)N1CCc2ccccc21 (3D coordinates assigned)
O=C(CSc1nc(-c2ccccc2)cc(C(F)(F)F)n1)N1CCc2ccccc21 (nonaromatic ring conformer: 67.98814754911902 kcal/mol)

>  <smiles>  (23) 
O=C(CSc1nc(-c2ccccc2)cc(C(F)(F)F)n1)N1CCc2ccccc21

>  <score_type>  (23) 
oracle

>  <origin>  (23) 
adg

>  <m_score__min__energy>  (23) 
-8.5700000000000003

>  <m_primary>  (23) 
energy

$$$$
23:0
     RDKit          3D

 54 57  0  0  0  0  0  0  0  0999 V2000
   62.9730   33.6780   46.3880 C   0  0  0  0  0  0  0  0  0  0  0  0
   62.8460   33.5690   47.8830 C   0  0  0  0  0  0  0  0  0  0  0  0
   64.0040   33.4690   48.6720 C   0  0  0  0  0  0  0  0  0  0  0  0
   63.9070   33.3710   50.0620 C   0  0  0  0  0  0  0  0  0  0  0  0
   62.6540   33.3830   50.6790 C   0  0  0  0  0  0  0  0  0  0  0  0
   61.4960   33.4980   49.9080 C   0  0  0  0  0  0  0  0  0  0  0  0
   61.5810   33.6010   48.5110 C   0  0  0  0  0  0  0  0  0  0  0  0
   60.3800   33.7390   47.7390 N   0  0  0  0  0  0  0  0  0  0  0  0
   60.0210   35.0410   47.1710 C   0  0  0  0  0  0  0  0  0  0  0  0
   59.4690   34.8750   45.7420 C   0  0  0  0  0  0  0  0  0  0  0  0
   58.7440   33.5970   45.5380 N   0  0  0  0  0  0  0  0  0  0  0  0
   57.7410   33.6510   44.4520 C   0  0  0  0  0  0  0  0  0  0  0  0
   57.7700   32.4580   43.5140 C   0  0  0  0  0  0  0  0  0  0  0  0
   57.9110   32.6400   42.2740 O   0  0  0  0  0  0  0  0  0  0  0  0
   57.6950   31.0680   44.0300 C   0  0  0  0  0  0  0  0  0  0  0  0
   56.4740   30.3710   44.0800 C   0  0  0  0  0  0  0  0  0  0  0  0
   56.4220   29.0630   44.5710 C   0  0  0  0  0  0  0  0  0  0  0  0
   57.5870   28.4240   45.0290 C   0  0  0  0  0  0  0  0  0  0  0  0
   57.5300   27.0340   45.5500 C   0  0  0  0  0  0  0  0  0  0  0  0
   58.6910   26.2400   45.6000 C   0  0  0  0  0  0  0  0  0  0  0  0
   58.6340   24.9330   46.0920 C   0  0  0  0  0  0  0  0  0  0  0  0
   57.4210   24.4020   46.5360 C   0  0  0  0  0  0  0  0  0  0  0  0
   56.2610   25.1790   46.4910 C   0  0  0  0  0  0  0  0  0  0  0  0
   56.3130   26.4880   46.0020 C   0  0  0  0  0  0  0  0  0  0  0  0
   58.8040   29.1240   44.9890 C   0  0  0  0  0  0  0  0  0  0  0  0
   58.8570   30.4310   44.4980 C   0  0  0  0  0  0  0  0  0  0  0  0
   58.2490   32.9640   46.7740 C   0  0  0  0  0  0  0  0  0  0  0  0
   59.4380   32.6170   47.6710 C   0  0  0  0  0  0  0  0  0  0  0  0
   63.7860   34.3758   46.1390 H   0  0  0  0  0  0  0  0  0  0  0  0
   63.1979   32.6874   45.9659 H   0  0  0  0  0  0  0  0  0  0  0  0
   62.0280   34.0505   45.9659 H   0  0  0  0  0  0  0  0  0  0  0  0
   64.9937   33.4679   48.1920 H   0  0  0  0  0  0  0  0  0  0  0  0
   64.8186   33.2843   50.6715 H   0  0  0  0  0  0  0  0  0  0  0  0
   62.5796   33.3018   51.7735 H   0  0  0  0  0  0  0  0  0  0  0  0
   60.5113   33.5079   50.3982 H   0  0  0  0  0  0  0  0  0  0  0  0
   59.2534   35.5119   47.8027 H   0  0  0  0  0  0  0  0  0  0  0  0
   60.9213   35.6719   47.1326 H   0  0  0  0  0  0  0  0  0  0  0  0
   58.7776   35.7054   45.5361 H   0  0  0  0  0  0  0  0  0  0  0  0
   60.3305   34.8737   45.0580 H   0  0  0  0  0  0  0  0  0  0  0  0
   56.7417   33.7059   44.9086 H   0  0  0  0  0  0  0  0  0  0  0  0
   57.9828   34.5352   43.8440 H   0  0  0  0  0  0  0  0  0  0  0  0
   55.5525   30.8592   43.7299 H   0  0  0  0  0  0  0  0  0  0  0  0
   55.4606   28.5292   44.5991 H   0  0  0  0  0  0  0  0  0  0  0  0
   59.6494   26.6507   45.2496 H   0  0  0  0  0  0  0  0  0  0  0  0
   59.5472   24.3209   46.1296 H   0  0  0  0  0  0  0  0  0  0  0  0
   57.3791   23.3724   46.9210 H   0  0  0  0  0  0  0  0  0  0  0  0
   55.3056   24.7607   46.8406 H   0  0  0  0  0  0  0  0  0  0  0  0
   55.3967   27.0957   45.9701 H   0  0  0  0  0  0  0  0  0  0  0  0
   59.7238   28.6388   45.3475 H   0  0  0  0  0  0  0  0  0  0  0  0
   59.8176   30.9666   44.4776 H   0  0  0  0  0  0  0  0  0  0  0  0
   57.5805   33.6601   47.3018 H   0  0  0  0  0  0  0  0  0  0  0  0
   57.6944   32.0476   46.5239 H   0  0  0  0  0  0  0  0  0  0  0  0
   59.0726   32.3903   48.6835 H   0  0  0  0  0  0  0  0  0  0  0  0
   59.9572   31.7441   47.2486 H   0  0  0  0  0  0  0  0  0  0  0  0
  1  2  1  0
  2  3  2  0
  3  4  1  0
  4  5  2  0
  5  6  1  0
  6  7  2  0
  7  8  1  0
  8  9  1  0
  9 10  1  0
 10 11  1  0
 11 12  1  0
 12 13  1  0
 13 14  2  0
 13 15  1  0
 15 16  2  0
 16 17  1  0
 17 18  2  0
 18 19  1  0
 19 20  2  0
 20 21  1  0
 21 22  2  0
 22 23  1  0
 23 24  2  0
 18 25  1  0
 25 26  2  0
 11 27  1  0
 27 28  1  0
  7  2  1  0
 28  8  1  0
 26 15  1  0
 24 19  1  0
  1 29  1  0
  1 30  1  0
  1 31  1  0
  3 32  1  0
  4 33  1  0
  5 34  1  0
  6 35  1  0
  9 36  1  0
  9 37  1  0
 10 38  1  0
 10 39  1  0
 12 40  1  0
 12 41  1  0
 16 42  1  0
 17 43  1  0
 20 44  1  0
 21 45  1  0
 22 46  1  0
 23 47  1  0
 24 48  1  0
 25 49  1  0
 26 50  1  0
 27 51  1  0
 27 52  1  0
 28 53  1  0
 28 54  1  0
M  END
>  <UniqueID>  (24) 
21

>  <SMILES>  (24) 
Cc1ccccc1N1CCN(CC(=O)c2ccc(-c3ccccc3)cc2)CC1

>  <Energy>  (24) 
79.430168922824

>  <Genealogy>  (24) 
Cc1ccccc1N1CCN(CC(=O)c2ccc(-c3ccccc3)cc2)CC1 (3D coordinates assigned)
Cc1ccccc1N1CCN(CC(=O)c2ccc(-c3ccccc3)cc2)CC1 (nonaromatic ring conformer: 79.430168922824 kcal/mol)

>  <smiles>  (24) 
Cc1ccccc1N1CCN(CC(=O)c2ccc(-c3ccccc3)cc2)CC1

>  <score_type>  (24) 
oracle

>  <origin>  (24) 
adg

>  <m_score__min__energy>  (24) 
-9.0600000000000005

>  <m_primary>  (24) 
energy

$$$$
24:0
     RDKit          3D

 31 33  0  0  0  0  0  0  0  0999 V2000
   55.6240   29.3900   44.2300 C   0  0  0  0  0  0  0  0  0  0  0  0
   56.4960   30.5580   43.8920 C   0  0  0  0  0  0  0  0  0  0  0  0
   56.8030   30.8500   42.5570 C   0  0  0  0  0  0  0  0  0  0  0  0
   57.6330   31.9330   42.2690 C   0  0  0  0  0  0  0  0  0  0  0  0
   58.1440   32.7150   43.3060 C   0  0  0  0  0  0  0  0  0  0  0  0
   57.8090   32.4060   44.6340 C   0  0  0  0  0  0  0  0  0  0  0  0
   58.3330   33.1790   45.7300 N   0  0  0  0  0  0  0  0  0  0  0  0
   58.9380   34.4970   45.5050 C   0  0  0  0  0  0  0  0  0  0  0  0
   60.2420   34.5950   46.2940 C   0  0  0  0  0  0  0  0  0  0  0  0
   60.0440   34.1740   47.7260 C   0  0  0  0  0  0  0  0  0  0  0  0
   60.9480   34.5850   48.7120 C   0  0  0  0  0  0  0  0  0  0  0  0
   60.7970   34.1620   49.9930 N   0  0  0  0  0  0  0  0  0  0  0  0
   59.7800   33.3310   50.3400 C   0  0  0  0  0  0  0  0  0  0  0  0
   58.8990   32.9040   49.3980 N   0  0  0  0  0  0  0  0  0  0  0  0
   59.0090   33.2930   48.1000 C   0  0  0  0  0  0  0  0  0  0  0  0
   57.9850   32.8060   47.1070 C   0  0  0  0  0  0  0  0  0  0  0  0
   57.0070   31.3330   44.8860 N   0  0  0  0  0  0  0  0  0  0  0  0
   55.5505   29.2915   45.3231 H   0  0  0  0  0  0  0  0  0  0  0  0
   54.6205   29.5472   43.8077 H   0  0  0  0  0  0  0  0  0  0  0  0
   56.0599   28.4726   43.8077 H   0  0  0  0  0  0  0  0  0  0  0  0
   56.3938   30.2317   41.7444 H   0  0  0  0  0  0  0  0  0  0  0  0
   57.8849   32.1708   41.2250 H   0  0  0  0  0  0  0  0  0  0  0  0
   58.8040   33.5667   43.0846 H   0  0  0  0  0  0  0  0  0  0  0  0
   59.1465   34.6274   44.4329 H   0  0  0  0  0  0  0  0  0  0  0  0
   58.2448   35.2827   45.8397 H   0  0  0  0  0  0  0  0  0  0  0  0
   60.9935   33.9406   45.8281 H   0  0  0  0  0  0  0  0  0  0  0  0
   60.5790   35.6420   46.2818 H   0  0  0  0  0  0  0  0  0  0  0  0
   61.7822   35.2519   48.4486 H   0  0  0  0  0  0  0  0  0  0  0  0
   59.6697   33.0036   51.3843 H   0  0  0  0  0  0  0  0  0  0  0  0
   57.9202   31.7099   47.1724 H   0  0  0  0  0  0  0  0  0  0  0  0
   57.0220   33.2770   47.3535 H   0  0  0  0  0  0  0  0  0  0  0  0
  1  2  1  0
  2  3  2  0
  3  4  1  0
  4  5  2  0
  5  6  1  0
  6  7  1  0
  7  8  1  0
  8  9  1  0
  9 10  1  0
 10 11  2  0
 11 12  1  0
 12 13  2  0
 13 14  1  0
 14 15  2  0
 15 16  1  0
  6 17  2  0
 17  2  1  0
 16  7  1  0
 15 10  1  0
  1 18  1  0
  1 19  1  0
  1 20  1  0
  3 21  1  0
  4 22  1  0
  5 23  1  0
  8 24  1  0
  8 25  1  0
  9 26  1  0
  9 27  1  0
 11 28  1  0
 13 29  1  0
 16 30  1  0
 16 31  1  0
M  END
>  <UniqueID>  (25) 
22

>  <SMILES>  (25) 
Cc1cccc(N2CCc3cncnc3C2)n1

>  <Energy>  (25) 
37.90098543565334

>  <Genealogy>  (25) 
Cc1cccc(N2CCc3cncnc3C2)n1 (3D coordinates assigned)
Cc1cccc(N2CCc3cncnc3C2)n1 (nonaromatic ring conformer: 37.90098543565334 kcal/mol)

>  <smiles>  (25) 
Cc1cccc(N2CCc3cncnc3C2)n1

>  <score_type>  (25) 
oracle

>  <origin>  (25) 
adg

>  <m_score__min__energy>  (25) 
-6.6399999999999997

>  <m_primary>  (25) 
energy

$$$$
25:0
     RDKit          3D

 46 48  0  0  0  0  0  0  0  0999 V2000
   60.0640   34.3800   47.0796 H   0  0  0  0  0  0  0  0  0  0  0  0
   59.9600   33.2960   47.2350 C   0  0  0  0  0  0  0  0  0  0  0  0
   60.7650   32.5430   47.9900 C   0  0  0  0  0  0  0  0  0  0  0  0
   61.9740   33.0560   48.7430 C   0  0  0  0  0  0  0  0  0  0  0  0
   61.8134   34.1209   48.9671 H   0  0  0  0  0  0  0  0  0  0  0  0
   62.0666   32.4367   49.6474 H   0  0  0  0  0  0  0  0  0  0  0  0
   63.2640   32.9240   48.0020 N   0  0  0  0  0  0  0  0  0  0  0  0
   63.3920   33.9700   46.9580 C   0  0  0  0  0  0  0  0  0  0  0  0
   63.5123   34.9530   47.4367 H   0  0  0  0  0  0  0  0  0  0  0  0
   64.2708   33.7572   46.3316 H   0  0  0  0  0  0  0  0  0  0  0  0
   62.4878   33.9754   46.3316 H   0  0  0  0  0  0  0  0  0  0  0  0
   63.3890   31.5860   47.3770 C   0  0  0  0  0  0  0  0  0  0  0  0
   63.4606   30.8195   48.1627 H   0  0  0  0  0  0  0  0  0  0  0  0
   62.5053   31.3892   46.7522 H   0  0  0  0  0  0  0  0  0  0  0  0
   64.2938   31.5562   46.7522 H   0  0  0  0  0  0  0  0  0  0  0  0
   64.3740   33.0940   48.9700 C   0  0  0  0  0  0  0  0  0  0  0  0
   63.9792   33.0335   49.9949 H   0  0  0  0  0  0  0  0  0  0  0  0
   65.1192   32.2995   48.8166 H   0  0  0  0  0  0  0  0  0  0  0  0
   64.8472   34.0751   48.8166 H   0  0  0  0  0  0  0  0  0  0  0  0
   60.2850   31.1590   47.9510 C   0  0  0  0  0  0  0  0  0  0  0  0
   60.7710   30.0210   48.5950 C   0  0  0  0  0  0  0  0  0  0  0  0
   61.6494   30.0798   49.2546 H   0  0  0  0  0  0  0  0  0  0  0  0
   60.1130   28.7980   48.3820 C   0  0  0  0  0  0  0  0  0  0  0  0
   60.4814   27.8868   48.8760 H   0  0  0  0  0  0  0  0  0  0  0  0
   58.9760   28.7290   47.5340 C   0  0  0  0  0  0  0  0  0  0  0  0
   58.2920   27.5270   47.2960 O   0  0  0  0  0  0  0  0  0  0  0  0
   58.0680   26.9720   46.0050 C   0  0  0  0  0  0  0  0  0  0  0  0
   57.6581   25.9565   46.1085 H   0  0  0  0  0  0  0  0  0  0  0  0
   57.3535   27.6014   45.4542 H   0  0  0  0  0  0  0  0  0  0  0  0
   59.0192   26.9291   45.4542 H   0  0  0  0  0  0  0  0  0  0  0  0
   58.5070   29.8960   46.9060 C   0  0  0  0  0  0  0  0  0  0  0  0
   57.6256   29.8634   46.2486 H   0  0  0  0  0  0  0  0  0  0  0  0
   59.1820   31.0980   47.1330 C   0  0  0  0  0  0  0  0  0  0  0  0
   58.9110   32.4470   46.6430 C   0  0  0  0  0  0  0  0  0  0  0  0
   57.9540   32.8000   45.7730 C   0  0  0  0  0  0  0  0  0  0  0  0
   57.4567   33.7701   45.9197 H   0  0  0  0  0  0  0  0  0  0  0  0
   57.5260   31.9700   44.6320 C   0  0  0  0  0  0  0  0  0  0  0  0
   56.7230   30.8960   44.8680 N   0  0  0  0  0  0  0  0  0  0  0  0
   56.2580   30.1080   43.8630 C   0  0  0  0  0  0  0  0  0  0  0  0
   55.6219   29.2409   44.0942 H   0  0  0  0  0  0  0  0  0  0  0  0
   56.5870   30.3980   42.5370 C   0  0  0  0  0  0  0  0  0  0  0  0
   56.2222   29.7583   41.7199 H   0  0  0  0  0  0  0  0  0  0  0  0
   57.3840   31.5090   42.2620 C   0  0  0  0  0  0  0  0  0  0  0  0
   57.6448   31.7553   41.2221 H   0  0  0  0  0  0  0  0  0  0  0  0
   57.8510   32.3090   43.3080 C   0  0  0  0  0  0  0  0  0  0  0  0
   58.4671   33.1955   43.0969 H   0  0  0  0  0  0  0  0  0  0  0  0
  1  2  1  0
  2  3  2  0
  3  4  1  0
  4  5  1  0
  4  6  1  0
  4  7  1  0
  7  8  1  0
  8  9  1  0
  8 10  1  0
  8 11  1  0
  7 12  1  0
 12 13  1  0
 12 14  1  0
 12 15  1  0
  7 16  1  0
 16 17  1  0
 16 18  1  0
 16 19  1  0
  3 20  1  0
 20 21  2  0
 21 22  1  0
 21 23  1  0
 23 24  1  0
 23 25  2  0
 25 26  1  0
 26 27  1  0
 27 28  1  0
 27 29  1  0
 27 30  1  0
 25 31  1  0
 31 32  1  0
 31 33  2  0
 33 34  1  0
 34 35  2  0
 35 36  1  0
 35 37  1  0
 37 38  2  0
 38 39  1  0
 39 40  1  0
 39 41  2  0
 41 42  1  0
 41 43  1  0
 43 44  1  0
 43 45  2  0
 45 46  1  0
 34  2  1  0
 45 37  1  0
 33 20  1  0
M  CHG  1   7   1
M  END
>  <UniqueID>  (26) 
23

>  <SMILES>  (26) 
COc1ccc2c(c1)/C(=C/c1ccccn1)C=C2C[N+](C)(C)C

>  <Energy>  (26) 
83.83217303070406

>  <Genealogy>  (26) 
COc1ccc2c(c1)/C(=C/c1ccccn1)C=C2C[N+](C)(C)C (cis-trans isomerization)
COc1ccc2c(c1)/C(=C/c1ccccn1)C=C2C[N+](C)(C)C (3D coordinates assigned)
COc1ccc2c(c1)/C(=C/c1ccccn1)C=C2C[N+](C)(C)C (nonaromatic ring conformer: 83.83217303070406 kcal/mol)

>  <smiles>  (26) 
COc1ccc2c(c1)C(=Cc1ccccn1)C=C2C[N+](C)(C)C

>  <score_type>  (26) 
oracle

>  <origin>  (26) 
adg

>  <m_score__min__energy>  (26) 
-6.25

>  <m_primary>  (26) 
energy

$$$$
26:0
     RDKit          3D

 61 64  0  0  0  0  0  0  0  0999 V2000
   63.0370   33.4290   46.7660 C   0  0  0  0  0  0  0  0  0  0  0  0
   61.6970   32.7020   46.9590 C   0  0  1  0  0  0  0  0  0  0  0  0
   61.9400   31.3170   47.5950 C   0  0  0  0  0  0  0  0  0  0  0  0
   60.6870   30.7900   48.1520 N   0  0  0  0  0  0  0  0  0  0  0  0
   60.0920   29.5790   47.6430 C   0  0  0  0  0  0  0  0  0  0  0  0
   60.4640   29.0720   46.3860 C   0  0  0  0  0  0  0  0  0  0  0  0
   59.8720   27.9090   45.8870 C   0  0  0  0  0  0  0  0  0  0  0  0
   58.8830   27.2380   46.6260 C   0  0  0  0  0  0  0  0  0  0  0  0
   58.2840   26.0320   46.1100 N   0  0  0  0  0  0  0  0  0  0  0  0
   59.0290   24.8790   45.6290 C   0  0  0  0  0  0  0  0  0  0  0  0
   57.9950   23.7580   45.4270 C   0  0  0  0  0  0  0  0  0  0  0  0
   56.6070   24.4080   45.4950 C   0  0  0  0  0  0  0  0  0  0  0  0
   56.8950   25.7700   45.9840 C   0  0  0  0  0  0  0  0  0  0  0  0
   56.0030   26.6340   46.1940 O   0  0  0  0  0  0  0  0  0  0  0  0
   58.5160   27.7430   47.8830 C   0  0  0  0  0  0  0  0  0  0  0  0
   59.1080   28.9050   48.3830 C   0  0  0  0  0  0  0  0  0  0  0  0
   59.9930   31.5640   49.1910 C   0  0  0  0  0  0  0  0  0  0  0  0
   60.4610   33.0300   49.2080 C   0  0  0  0  0  0  0  0  0  0  0  0
   60.6880   33.5760   47.7820 C   0  0  2  0  0  0  0  0  0  0  0  0
   59.3650   33.7300   47.0640 C   0  0  0  0  0  0  0  0  0  0  0  0
   58.2830   33.5290   47.6810 O   0  0  0  0  0  0  0  0  0  0  0  0
   59.3390   34.1440   45.6900 N   0  0  0  0  0  0  0  0  0  0  0  0
   58.1110   34.1600   44.8960 C   0  0  0  0  0  0  0  0  0  0  0  0
   58.2380   33.2630   43.6580 C   0  0  0  0  0  0  0  0  0  0  0  0
   57.7540   31.8610   43.9380 C   0  0  0  0  0  0  0  0  0  0  0  0
   57.8850   31.3240   45.2300 C   0  0  0  0  0  0  0  0  0  0  0  0
   57.4030   30.0420   45.5140 C   0  0  0  0  0  0  0  0  0  0  0  0
   56.7840   29.2880   44.5140 C   0  0  0  0  0  0  0  0  0  0  0  0
   56.6430   29.8160   43.2280 C   0  0  0  0  0  0  0  0  0  0  0  0
   57.1240   31.0970   42.9360 C   0  0  0  0  0  0  0  0  0  0  0  0
   56.9730   31.5870   41.6800 F   0  0  0  0  0  0  0  0  0  0  0  0
   63.4712   33.6646   47.7488 H   0  0  0  0  0  0  0  0  0  0  0  0
   63.7278   32.7820   46.2055 H   0  0  0  0  0  0  0  0  0  0  0  0
   62.8712   34.3609   46.2055 H   0  0  0  0  0  0  0  0  0  0  0  0
   61.2294   32.5409   45.9764 H   0  0  0  0  0  0  0  0  0  0  0  0
   62.3161   30.6250   46.8271 H   0  0  0  0  0  0  0  0  0  0  0  0
   62.6792   31.4169   48.4034 H   0  0  0  0  0  0  0  0  0  0  0  0
   61.2270   29.5948   45.7906 H   0  0  0  0  0  0  0  0  0  0  0  0
   60.1826   27.5155   44.9079 H   0  0  0  0  0  0  0  0  0  0  0  0
   59.5265   25.1158   44.6769 H   0  0  0  0  0  0  0  0  0  0  0  0
   59.8120   24.5803   46.3415 H   0  0  0  0  0  0  0  0  0  0  0  0
   58.1412   23.2819   44.4462 H   0  0  0  0  0  0  0  0  0  0  0  0
   58.1025   22.9820   46.1992 H   0  0  0  0  0  0  0  0  0  0  0  0
   56.1362   24.4372   44.5013 H   0  0  0  0  0  0  0  0  0  0  0  0
   55.9048   23.8584   46.1391 H   0  0  0  0  0  0  0  0  0  0  0  0
   57.7551   27.2188   48.4799 H   0  0  0  0  0  0  0  0  0  0  0  0
   58.8007   29.2951   49.3645 H   0  0  0  0  0  0  0  0  0  0  0  0
   58.9110   31.5363   48.9948 H   0  0  0  0  0  0  0  0  0  0  0  0
   60.2249   31.1159   50.1685 H   0  0  0  0  0  0  0  0  0  0  0  0
   59.6950   33.6425   49.7060 H   0  0  0  0  0  0  0  0  0  0  0  0
   61.4179   33.0771   49.7485 H   0  0  0  0  0  0  0  0  0  0  0  0
   61.1519   34.5691   47.8748 H   0  0  0  0  0  0  0  0  0  0  0  0
   60.2250   34.4590   45.2360 H   0  0  0  0  0  0  0  0  0  0  0  0
   57.2778   33.7987   45.5167 H   0  0  0  0  0  0  0  0  0  0  0  0
   57.9268   35.1914   44.5609 H   0  0  0  0  0  0  0  0  0  0  0  0
   57.6373   33.6922   42.8426 H   0  0  0  0  0  0  0  0  0  0  0  0
   59.3002   33.2115   43.3770 H   0  0  0  0  0  0  0  0  0  0  0  0
   58.3689   31.9147   46.0218 H   0  0  0  0  0  0  0  0  0  0  0  0
   57.5116   29.6267   46.5268 H   0  0  0  0  0  0  0  0  0  0  0  0
   56.4078   28.2791   44.7389 H   0  0  0  0  0  0  0  0  0  0  0  0
   56.1522   29.2225   42.4426 H   0  0  0  0  0  0  0  0  0  0  0  0
  1  2  1  0
  2  3  1  0
  3  4  1  0
  4  5  1  0
  5  6  2  0
  6  7  1  0
  7  8  2  0
  8  9  1  0
  9 10  1  0
 10 11  1  0
 11 12  1  0
 12 13  1  0
 13 14  2  0
  8 15  1  0
 15 16  2  0
  4 17  1  0
 17 18  1  0
 18 19  1  0
 19 20  1  0
 20 21  2  0
 20 22  1  0
 22 23  1  0
 23 24  1  0
 24 25  1  0
 25 26  2  0
 26 27  1  0
 27 28  2  0
 28 29  1  0
 29 30  2  0
 30 31  1  0
 19  2  1  0
 30 25  1  0
 16  5  1  0
 13  9  1  0
  1 32  1  0
  1 33  1  0
  1 34  1  0
  2 35  1  6
  3 36  1  0
  3 37  1  0
  6 38  1  0
  7 39  1  0
 10 40  1  0
 10 41  1  0
 11 42  1  0
 11 43  1  0
 12 44  1  0
 12 45  1  0
 15 46  1  0
 16 47  1  0
 17 48  1  0
 17 49  1  0
 18 50  1  0
 18 51  1  0
 19 52  1  1
 22 53  1  0
 23 54  1  0
 23 55  1  0
 24 56  1  0
 24 57  1  0
 26 58  1  0
 27 59  1  0
 28 60  1  0
 29 61  1  0
M  END
>  <UniqueID>  (27) 
24

>  <SMILES>  (27) 
C[C@H]1CN(c2ccc(N3CCCC3=O)cc2)CC[C@@H]1C(=O)NCCc1ccccc1F

>  <Energy>  (27) 
73.73945658343796

>  <Genealogy>  (27) 
C[C@H]1CN(c2ccc(N3CCCC3=O)cc2)CC[C@@H]1C(=O)NCCc1ccccc1F (chirality)
C[C@H]1CN(c2ccc(N3CCCC3=O)cc2)CC[C@@H]1C(=O)NCCc1ccccc1F (3D coordinates assigned)
C[C@H]1CN(c2ccc(N3CCCC3=O)cc2)CC[C@@H]1C(=O)NCCc1ccccc1F (nonaromatic ring conformer: 73.73945658343796 kcal/mol)

>  <smiles>  (27) 
CC1CN(c2ccc(N3CCCC3=O)cc2)CCC1C(=O)NCCc1ccccc1F

>  <score_type>  (27) 
oracle

>  <origin>  (27) 
adg

>  <m_score__min__energy>  (27) 
-9.3599999999999994

>  <m_primary>  (27) 
energy

$$$$
27:0
     RDKit          3D

 30 31  0  0  0  0  0  0  0  0999 V2000
   55.1560   30.0850   45.6210 H   0  0  0  0  0  0  0  0  0  0  0  0
   55.1460   29.3620   44.9400 O   0  0  0  0  0  0  0  0  0  0  0  0
   55.8040   29.8650   43.8100 C   0  0  0  0  0  0  0  0  0  0  0  0
   55.9650   29.0495   43.0895 H   0  0  0  0  0  0  0  0  0  0  0  0
   55.1851   30.6512   43.3529 H   0  0  0  0  0  0  0  0  0  0  0  0
   57.1360   30.4520   44.2050 C   0  0  0  0  0  0  0  0  0  0  0  0
   57.3550   31.7670   44.0030 C   0  0  0  0  0  0  0  0  0  0  0  0
   57.0540   32.1892   43.0329 H   0  0  0  0  0  0  0  0  0  0  0  0
   57.9700   32.6860   44.9880 C   0  0  0  0  0  0  0  0  0  0  0  0
   58.7070   33.8150   44.5850 C   0  0  0  0  0  0  0  0  0  0  0  0
   58.8504   34.0221   43.5142 H   0  0  0  0  0  0  0  0  0  0  0  0
   59.2580   34.6750   45.5410 C   0  0  0  0  0  0  0  0  0  0  0  0
   59.8449   35.5485   45.2208 H   0  0  0  0  0  0  0  0  0  0  0  0
   59.0640   34.4260   46.9010 C   0  0  0  0  0  0  0  0  0  0  0  0
   59.5060   35.0982   47.6512 H   0  0  0  0  0  0  0  0  0  0  0  0
   58.3090   33.3240   47.3100 C   0  0  0  0  0  0  0  0  0  0  0  0
   58.1493   33.1341   48.3816 H   0  0  0  0  0  0  0  0  0  0  0  0
   57.7560   32.4620   46.3570 C   0  0  0  0  0  0  0  0  0  0  0  0
   57.1499   31.6036   46.6824 H   0  0  0  0  0  0  0  0  0  0  0  0
   58.0870   29.5930   44.9520 C   0  0  0  0  0  0  0  0  0  0  0  0
   57.6710   28.8980   46.1020 C   0  0  0  0  0  0  0  0  0  0  0  0
   56.6323   28.9903   46.4522 H   0  0  0  0  0  0  0  0  0  0  0  0
   58.5720   28.0910   46.8010 C   0  0  0  0  0  0  0  0  0  0  0  0
   58.2428   27.5551   47.7035 H   0  0  0  0  0  0  0  0  0  0  0  0
   59.8910   27.9630   46.3560 C   0  0  0  0  0  0  0  0  0  0  0  0
   60.5993   27.3285   46.9088 H   0  0  0  0  0  0  0  0  0  0  0  0
   60.3090   28.6420   45.2080 C   0  0  0  0  0  0  0  0  0  0  0  0
   61.3461   28.5387   44.8563 H   0  0  0  0  0  0  0  0  0  0  0  0
   59.4120   29.4520   44.5060 C   0  0  0  0  0  0  0  0  0  0  0  0
   59.7446   29.9812   43.6008 H   0  0  0  0  0  0  0  0  0  0  0  0
  1  2  1  0
  2  3  1  0
  3  4  1  0
  3  5  1  0
  3  6  1  0
  6  7  2  0
  7  8  1  0
  7  9  1  0
  9 10  2  0
 10 11  1  0
 10 12  1  0
 12 13  1  0
 12 14  2  0
 14 15  1  0
 14 16  1  0
 16 17  1  0
 16 18  2  0
 18 19  1  0
  6 20  1  0
 20 21  2  0
 21 22  1  0
 21 23  1  0
 23 24  1  0
 23 25  2  0
 25 26  1  0
 25 27  1  0
 27 28  1  0
 27 29  2  0
 29 30  1  0
 18  9  1  0
 29 20  1  0
M  END
>  <UniqueID>  (28) 
25

>  <SMILES>  (28) 
OC/C(=C/c1ccccc1)c1ccccc1

>  <Energy>  (28) 
40.64040048542899

>  <Genealogy>  (28) 
OC/C(=C/c1ccccc1)c1ccccc1 (cis-trans isomerization)
OC/C(=C/c1ccccc1)c1ccccc1 (3D coordinates assigned)
OC/C(=C/c1ccccc1)c1ccccc1 (optimized conformer: 40.64040048542899 kcal/mol)

>  <smiles>  (28) 
OCC(=Cc1ccccc1)c1ccccc1

>  <score_type>  (28) 
oracle

>  <origin>  (28) 
adg

>  <m_score__min__energy>  (28) 
-7.6100000000000003

>  <m_primary>  (28) 
energy

$$$$
28:0
     RDKit          3D

 40 42  0  0  0  0  0  0  0  0999 V2000
   57.0350   28.1290   45.6240 C   0  0  0  0  0  0  0  0  0  0  0  0
   56.3090   29.2950   45.2470 O   0  0  0  0  0  0  0  0  0  0  0  0
   56.7970   30.2850   44.3830 C   0  0  0  0  0  0  0  0  0  0  0  0
   56.6180   30.2240   42.9870 C   0  0  0  0  0  0  0  0  0  0  0  0
   57.1100   31.2450   42.1710 C   0  0  0  0  0  0  0  0  0  0  0  0
   57.7700   32.3390   42.7350 C   0  0  0  0  0  0  0  0  0  0  0  0
   57.9390   32.4240   44.1250 C   0  0  0  0  0  0  0  0  0  0  0  0
   58.5600   33.6530   44.7360 C   0  0  0  0  0  0  0  0  0  0  0  0
   57.8430   34.0260   45.9680 N   0  0  0  0  0  0  0  0  0  0  0  0
   58.7370   34.1990   47.1260 C   0  0  0  0  0  0  0  0  0  0  0  0
   59.5270   32.9390   47.4260 C   0  0  0  0  0  0  0  0  0  0  0  0
   58.8340   31.8210   47.9240 C   0  0  0  0  0  0  0  0  0  0  0  0
   59.5160   30.6660   48.3020 C   0  0  0  0  0  0  0  0  0  0  0  0
   60.9040   30.6020   48.1940 C   0  0  0  0  0  0  0  0  0  0  0  0
   61.6230   31.6900   47.6840 C   0  0  0  0  0  0  0  0  0  0  0  0
   63.0210   31.6210   47.5890 C   0  0  0  0  0  0  0  0  0  0  0  0
   63.7470   32.7000   47.0820 C   0  0  0  0  0  0  0  0  0  0  0  0
   63.0840   33.8510   46.6580 C   0  0  0  0  0  0  0  0  0  0  0  0
   61.6930   33.9370   46.7470 C   0  0  0  0  0  0  0  0  0  0  0  0
   60.9390   32.8670   47.2750 C   0  0  0  0  0  0  0  0  0  0  0  0
   57.4740   31.3780   44.9390 C   0  0  0  0  0  0  0  0  0  0  0  0
   57.0768   28.0619   46.7212 H   0  0  0  0  0  0  0  0  0  0  0  0
   56.5320   27.2376   45.2210 H   0  0  0  0  0  0  0  0  0  0  0  0
   58.0569   28.1870   45.2210 H   0  0  0  0  0  0  0  0  0  0  0  0
   56.0893   29.3700   42.5385 H   0  0  0  0  0  0  0  0  0  0  0  0
   56.9773   31.1874   41.0806 H   0  0  0  0  0  0  0  0  0  0  0  0
   58.1591   33.1376   42.0863 H   0  0  0  0  0  0  0  0  0  0  0  0
   59.6133   33.4465   44.9768 H   0  0  0  0  0  0  0  0  0  0  0  0
   58.4951   34.4833   44.0174 H   0  0  0  0  0  0  0  0  0  0  0  0
   57.3790   34.9500   45.7990 H   0  0  0  0  0  0  0  0  0  0  0  0
   59.4406   35.0172   46.9126 H   0  0  0  0  0  0  0  0  0  0  0  0
   58.1156   34.4282   48.0043 H   0  0  0  0  0  0  0  0  0  0  0  0
   57.7385   31.8588   48.0164 H   0  0  0  0  0  0  0  0  0  0  0  0
   58.9563   29.8010   48.6873 H   0  0  0  0  0  0  0  0  0  0  0  0
   61.4368   29.6932   48.5106 H   0  0  0  0  0  0  0  0  0  0  0  0
   63.5476   30.7121   47.9157 H   0  0  0  0  0  0  0  0  0  0  0  0
   64.8435   32.6422   47.0169 H   0  0  0  0  0  0  0  0  0  0  0  0
   63.6596   34.6956   46.2513 H   0  0  0  0  0  0  0  0  0  0  0  0
   61.1802   34.8471   46.4024 H   0  0  0  0  0  0  0  0  0  0  0  0
   57.6434   31.4176   46.0252 H   0  0  0  0  0  0  0  0  0  0  0  0
  1  2  1  0
  2  3  1  0
  3  4  2  0
  4  5  1  0
  5  6  2  0
  6  7  1  0
  7  8  1  0
  8  9  1  0
  9 10  1  0
 10 11  1  0
 11 12  2  0
 12 13  1  0
 13 14  2  0
 14 15  1  0
 15 16  2  0
 16 17  1  0
 17 18  2  0
 18 19  1  0
 19 20  2  0
  7 21  2  0
 21  3  1  0
 20 11  1  0
 20 15  1  0
  1 22  1  0
  1 23  1  0
  1 24  1  0
  4 25  1  0
  5 26  1  0
  6 27  1  0
  8 28  1  0
  8 29  1  0
  9 30  1  0
 10 31  1  0
 10 32  1  0
 12 33  1  0
 13 34  1  0
 14 35  1  0
 16 36  1  0
 17 37  1  0
 18 38  1  0
 19 39  1  0
 21 40  1  0
M  END
>  <UniqueID>  (29) 
26

>  <SMILES>  (29) 
COc1cccc(CNCc2cccc3ccccc23)c1

>  <Energy>  (29) 
42.40661891963377

>  <Genealogy>  (29) 
COc1cccc(CNCc2cccc3ccccc23)c1 (3D coordinates assigned)
COc1cccc(CNCc2cccc3ccccc23)c1 (optimized conformer: 42.40661891963377 kcal/mol)

>  <smiles>  (29) 
COc1cccc(CNCc2cccc3ccccc23)c1

>  <score_type>  (29) 
oracle

>  <origin>  (29) 
adg

>  <m_score__min__energy>  (29) 
-7.7400000000000002

>  <m_primary>  (29) 
energy

$$$$
29:0
     RDKit          3D

 53 57  0  0  0  0  0  0  0  0999 V2000
   59.9720   34.1800   49.5660 O   0  0  0  0  0  0  0  0  0  0  0  0
   60.8440   33.8040   48.7370 C   0  0  0  0  0  0  0  0  0  0  0  0
   62.1970   33.4050   49.2050 C   0  0  0  0  0  0  0  0  0  0  0  0
   63.2080   33.0980   48.2570 C   0  0  0  0  0  0  0  0  0  0  0  0
   64.4910   32.7030   48.6940 C   0  0  0  0  0  0  0  0  0  0  0  0
   64.7900   32.6380   50.0620 C   0  0  0  0  0  0  0  0  0  0  0  0
   66.5270   32.1100   50.6550 Br  0  0  0  0  0  0  0  0  0  0  0  0
   63.7880   32.9590   50.9730 C   0  0  0  0  0  0  0  0  0  0  0  0
   62.5360   33.3320   50.5710 C   0  0  0  0  0  0  0  0  0  0  0  0
   61.6980   33.6000   51.7780 C   0  0  0  0  0  0  0  0  0  0  0  0
   62.6680   33.3200   52.9490 C   0  0  0  0  0  0  0  0  0  0  0  0
   63.9020   32.9430   52.3460 O   0  0  0  0  0  0  0  0  0  0  0  0
   62.9090   33.1140   46.7790 C   0  0  0  0  0  0  0  0  0  0  0  0
   61.7570   34.0650   46.4380 C   0  0  0  0  0  0  0  0  0  0  0  0
   60.4930   33.7220   47.2640 C   0  0  2  0  0  0  0  0  0  0  0  0
   59.3020   34.5880   46.9820 N   0  0  0  0  0  0  0  0  0  0  0  0
   58.0290   33.8450   47.1500 C   0  0  0  0  0  0  0  0  0  0  0  0
   57.6860   32.9690   45.9200 C   0  0  0  0  0  0  0  0  0  0  0  0
   58.7650   33.0260   44.9180 N   0  0  0  0  0  0  0  0  0  0  0  0
   58.4820   32.1440   43.7700 C   0  0  0  0  0  0  0  0  0  0  0  0
   57.9710   30.8140   44.2600 C   0  0  0  0  0  0  0  0  0  0  0  0
   58.8230   29.9220   44.9320 C   0  0  0  0  0  0  0  0  0  0  0  0
   58.3290   28.7030   45.4090 C   0  0  0  0  0  0  0  0  0  0  0  0
   56.9850   28.3700   45.2210 C   0  0  0  0  0  0  0  0  0  0  0  0
   56.1310   29.2530   44.5550 C   0  0  0  0  0  0  0  0  0  0  0  0
   56.6210   30.4720   44.0740 C   0  0  0  0  0  0  0  0  0  0  0  0
   58.9800   34.4210   44.4890 C   0  0  0  0  0  0  0  0  0  0  0  0
   59.2750   35.3330   45.7010 C   0  0  0  0  0  0  0  0  0  0  0  0
   65.2629   32.4439   47.9544 H   0  0  0  0  0  0  0  0  0  0  0  0
   61.3511   34.6437   51.7938 H   0  0  0  0  0  0  0  0  0  0  0  0
   60.7863   32.9856   51.8160 H   0  0  0  0  0  0  0  0  0  0  0  0
   62.8009   34.2240   53.5614 H   0  0  0  0  0  0  0  0  0  0  0  0
   62.2842   32.5327   53.6145 H   0  0  0  0  0  0  0  0  0  0  0  0
   63.8099   33.4386   46.2377 H   0  0  0  0  0  0  0  0  0  0  0  0
   62.6110   32.0979   46.4810 H   0  0  0  0  0  0  0  0  0  0  0  0
   62.0641   35.0973   46.6619 H   0  0  0  0  0  0  0  0  0  0  0  0
   61.5179   33.9578   45.3697 H   0  0  0  0  0  0  0  0  0  0  0  0
   60.1915   32.7068   46.9667 H   0  0  0  0  0  0  0  0  0  0  0  0
   58.1141   33.1949   48.0332 H   0  0  0  0  0  0  0  0  0  0  0  0
   57.2236   34.5849   47.2680 H   0  0  0  0  0  0  0  0  0  0  0  0
   57.5515   31.9270   46.2459 H   0  0  0  0  0  0  0  0  0  0  0  0
   56.7609   33.3505   45.4632 H   0  0  0  0  0  0  0  0  0  0  0  0
   57.7217   32.6130   43.1282 H   0  0  0  0  0  0  0  0  0  0  0  0
   59.4073   31.9877   43.1961 H   0  0  0  0  0  0  0  0  0  0  0  0
   59.8809   30.1825   45.0835 H   0  0  0  0  0  0  0  0  0  0  0  0
   58.9995   28.0058   45.9327 H   0  0  0  0  0  0  0  0  0  0  0  0
   56.5987   27.4114   45.5978 H   0  0  0  0  0  0  0  0  0  0  0  0
   55.0731   28.9896   44.4088 H   0  0  0  0  0  0  0  0  0  0  0  0
   55.9472   31.1648   43.5486 H   0  0  0  0  0  0  0  0  0  0  0  0
   59.8332   34.4568   43.7956 H   0  0  0  0  0  0  0  0  0  0  0  0
   58.0660   34.7805   43.9937 H   0  0  0  0  0  0  0  0  0  0  0  0
   60.2539   35.8120   45.5514 H   0  0  0  0  0  0  0  0  0  0  0  0
   58.4655   36.0751   45.7643 H   0  0  0  0  0  0  0  0  0  0  0  0
  1  2  2  0
  2  3  1  0
  3  4  2  0
  4  5  1  0
  5  6  2  0
  6  7  1  0
  6  8  1  0
  8  9  2  0
  9 10  1  0
 10 11  1  0
 11 12  1  0
  4 13  1  0
 13 14  1  0
 14 15  1  0
 15 16  1  0
 16 17  1  0
 17 18  1  0
 18 19  1  0
 19 20  1  0
 20 21  1  0
 21 22  2  0
 22 23  1  0
 23 24  2  0
 24 25  1  0
 25 26  2  0
 19 27  1  0
 27 28  1  0
 15  2  1  0
 28 16  1  0
  9  3  1  0
 26 21  1  0
 12  8  1  0
  5 29  1  0
 10 30  1  0
 10 31  1  0
 11 32  1  0
 11 33  1  0
 13 34  1  0
 13 35  1  0
 14 36  1  0
 14 37  1  0
 15 38  1  6
 17 39  1  0
 17 40  1  0
 18 41  1  0
 18 42  1  0
 20 43  1  0
 20 44  1  0
 22 45  1  0
 23 46  1  0
 24 47  1  0
 25 48  1  0
 26 49  1  0
 27 50  1  0
 27 51  1  0
 28 52  1  0
 28 53  1  0
M  END
>  <UniqueID>  (30) 
27

>  <SMILES>  (30) 
O=C1c2c(cc(Br)c3c2CCO3)CC[C@@H]1N1CCN(Cc2ccccc2)CC1

>  <Energy>  (30) 
92.61749757945823

>  <Genealogy>  (30) 
O=C1c2c(cc(Br)c3c2CCO3)CC[C@@H]1N1CCN(Cc2ccccc2)CC1 (chirality)
O=C1c2c(cc(Br)c3c2CCO3)CC[C@@H]1N1CCN(Cc2ccccc2)CC1 (3D coordinates assigned)
O=C1c2c(cc(Br)c3c2CCO3)CC[C@@H]1N1CCN(Cc2ccccc2)CC1 (nonaromatic ring conformer: 92.61749757945823 kcal/mol)

>  <smiles>  (30) 
O=C1c2c(cc(Br)c3c2CCO3)CCC1N1CCN(Cc2ccccc2)CC1

>  <score_type>  (30) 
oracle

>  <origin>  (30) 
adg

>  <m_score__min__energy>  (30) 
-9.0500000000000007

>  <m_primary>  (30) 
energy

$$$$
30:0
     RDKit          3D

 43 44  0  0  0  0  0  0  0  0999 V2000
   63.3850   33.8260   46.3610 C   0  0  0  0  0  0  0  0  0  0  0  0
   63.1200   32.8670   47.5210 C   0  0  0  0  0  0  0  0  0  0  0  0
   62.2560   33.4920   48.6360 C   0  0  0  0  0  0  0  0  0  0  0  0
   60.8010   33.3260   48.4400 N   0  0  0  0  0  0  0  0  0  0  0  0
   60.0590   34.5660   48.1300 C   0  0  0  0  0  0  0  0  0  0  0  0
   59.9920   34.9350   46.6280 C   0  0  0  0  0  0  0  0  0  0  0  0
   58.7250   34.4720   45.8780 C   0  0  0  0  0  0  0  0  0  0  0  0
   57.8090   33.5420   46.6900 C   0  0  0  0  0  0  0  0  0  0  0  0
   58.0740   32.1260   46.4300 N   0  0  0  0  0  0  0  0  0  0  0  0
   57.7970   31.4080   45.3230 C   0  0  0  0  0  0  0  0  0  0  0  0
   58.1450   30.1000   45.5610 C   0  0  0  0  0  0  0  0  0  0  0  0
   58.6470   30.0030   46.7700 O   0  0  0  0  0  0  0  0  0  0  0  0
   58.5930   31.2140   47.2850 C   0  0  0  0  0  0  0  0  0  0  0  0
   58.9840   31.4860   48.4500 O   0  0  0  0  0  0  0  0  0  0  0  0
   57.9890   28.9920   44.5660 C   0  0  0  0  0  0  0  0  0  0  0  0
   56.9510   29.3780   43.4930 C   0  0  0  0  0  0  0  0  0  0  0  0
   57.1690   30.8170   42.9780 C   0  0  0  0  0  0  0  0  0  0  0  0
   57.0310   31.8550   44.1100 C   0  0  0  0  0  0  0  0  0  0  0  0
   63.6582   34.8149   46.7579 H   0  0  0  0  0  0  0  0  0  0  0  0
   64.2094   33.4375   45.7451 H   0  0  0  0  0  0  0  0  0  0  0  0
   62.4780   33.9159   45.7451 H   0  0  0  0  0  0  0  0  0  0  0  0
   62.5998   31.9800   47.1304 H   0  0  0  0  0  0  0  0  0  0  0  0
   64.0935   32.6108   47.9644 H   0  0  0  0  0  0  0  0  0  0  0  0
   62.5314   33.0205   49.5909 H   0  0  0  0  0  0  0  0  0  0  0  0
   62.4554   34.5737   48.6214 H   0  0  0  0  0  0  0  0  0  0  0  0
   60.6420   32.6250   47.6810 H   0  0  0  0  0  0  0  0  0  0  0  0
   60.3870   32.9010   49.3010 H   0  0  0  0  0  0  0  0  0  0  0  0
   59.0291   34.4474   48.4977 H   0  0  0  0  0  0  0  0  0  0  0  0
   60.6092   35.3822   48.6210 H   0  0  0  0  0  0  0  0  0  0  0  0
   60.0508   36.0304   46.5467 H   0  0  0  0  0  0  0  0  0  0  0  0
   60.8307   34.4052   46.1527 H   0  0  0  0  0  0  0  0  0  0  0  0
   58.1466   35.3644   45.5967 H   0  0  0  0  0  0  0  0  0  0  0  0
   59.0695   33.8920   45.0092 H   0  0  0  0  0  0  0  0  0  0  0  0
   57.9660   33.7393   47.7607 H   0  0  0  0  0  0  0  0  0  0  0  0
   56.7716   33.7484   46.3882 H   0  0  0  0  0  0  0  0  0  0  0  0
   58.9577   28.8005   44.0814 H   0  0  0  0  0  0  0  0  0  0  0  0
   57.6437   28.0878   45.0888 H   0  0  0  0  0  0  0  0  0  0  0  0
   57.0365   28.6800   42.6471 H   0  0  0  0  0  0  0  0  0  0  0  0
   55.9513   29.3251   43.9488 H   0  0  0  0  0  0  0  0  0  0  0  0
   58.1780   30.8922   42.5465 H   0  0  0  0  0  0  0  0  0  0  0  0
   56.3997   31.0306   42.2213 H   0  0  0  0  0  0  0  0  0  0  0  0
   57.4275   32.8218   43.7663 H   0  0  0  0  0  0  0  0  0  0  0  0
   55.9682   31.9566   44.3750 H   0  0  0  0  0  0  0  0  0  0  0  0
  1  2  1  0
  2  3  1  0
  3  4  1  0
  4  5  1  0
  5  6  1  0
  6  7  1  0
  7  8  1  0
  8  9  1  0
  9 10  1  0
 10 11  2  0
 11 12  1  0
 12 13  1  0
 13 14  2  0
 11 15  1  0
 15 16  1  0
 16 17  1  0
 17 18  1  0
 13  9  1  0
 18 10  1  0
  1 19  1  0
  1 20  1  0
  1 21  1  0
  2 22  1  0
  2 23  1  0
  3 24  1  0
  3 25  1  0
  4 26  1  0
  4 27  1  0
  5 28  1  0
  5 29  1  0
  6 30  1  0
  6 31  1  0
  7 32  1  0
  7 33  1  0
  8 34  1  0
  8 35  1  0
 15 36  1  0
 15 37  1  0
 16 38  1  0
 16 39  1  0
 17 40  1  0
 17 41  1  0
 18 42  1  0
 18 43  1  0
M  CHG  1   4   1
M  END
>  <UniqueID>  (31) 
28

>  <SMILES>  (31) 
CCC[NH2+]CCCCn1c2c(oc1=O)CCCC2

>  <Energy>  (31) 
70.4283989183785

>  <Genealogy>  (31) 
CCC[NH2+]CCCCn1c2c(oc1=O)CCCC2 (protonated)
CCC[NH2+]CCCCn1c2c(oc1=O)CCCC2 (3D coordinates assigned)
CCC[NH2+]CCCCn1c2c(oc1=O)CCCC2 (nonaromatic ring conformer: 70.4283989183785 kcal/mol)

>  <smiles>  (31) 
CCCNCCCCn1c2c(oc1=O)CCCC2

>  <score_type>  (31) 
oracle

>  <origin>  (31) 
adg

>  <m_score__min__energy>  (31) 
-5.21

>  <m_primary>  (31) 
energy

$$$$
31:0
     RDKit          3D

 52 54  0  0  0  0  0  0  0  0999 V2000
   64.3608   31.3926   47.0772 H   0  0  0  0  0  0  0  0  0  0  0  0
   63.3910   31.9040   47.1660 C   0  0  0  0  0  0  0  0  0  0  0  0
   63.2790   33.2520   46.8210 C   0  0  0  0  0  0  0  0  0  0  0  0
   64.1641   33.8051   46.4737 H   0  0  0  0  0  0  0  0  0  0  0  0
   62.0450   33.9000   46.9160 C   0  0  0  0  0  0  0  0  0  0  0  0
   61.9637   34.9629   46.6446 H   0  0  0  0  0  0  0  0  0  0  0  0
   60.9070   33.2030   47.3560 C   0  0  0  0  0  0  0  0  0  0  0  0
   59.5910   33.9250   47.4550 C   0  0  0  0  0  0  0  0  0  0  0  0
   59.3301   34.0682   48.5140 H   0  0  0  0  0  0  0  0  0  0  0  0
   59.6723   34.9048   46.9617 H   0  0  0  0  0  0  0  0  0  0  0  0
   58.8083   33.3300   46.9617 H   0  0  0  0  0  0  0  0  0  0  0  0
   61.0350   31.8500   47.7480 C   0  0  0  0  0  0  0  0  0  0  0  0
   59.9110   31.1070   48.2460 N   0  0  0  0  0  0  0  0  0  0  0  0
   59.1830   30.2410   47.5950 C   0  0  0  0  0  0  0  0  0  0  0  0
   59.4270   28.9220   47.8050 N   0  0  0  0  0  0  0  0  0  0  0  0
   58.7330   27.9500   47.1630 C   0  0  0  0  0  0  0  0  0  0  0  0
   59.0150   26.6020   47.4160 C   0  0  0  0  0  0  0  0  0  0  0  0
   59.7926   26.3297   48.1449 H   0  0  0  0  0  0  0  0  0  0  0  0
   58.3080   25.6030   46.7420 C   0  0  0  0  0  0  0  0  0  0  0  0
   58.5299   24.5441   46.9410 H   0  0  0  0  0  0  0  0  0  0  0  0
   57.3200   25.9460   45.8160 C   0  0  0  0  0  0  0  0  0  0  0  0
   56.7663   25.1559   45.2877 H   0  0  0  0  0  0  0  0  0  0  0  0
   57.0320   27.2900   45.5580 C   0  0  0  0  0  0  0  0  0  0  0  0
   56.2536   27.5536   44.8268 H   0  0  0  0  0  0  0  0  0  0  0  0
   57.7360   28.3070   46.2320 C   0  0  0  0  0  0  0  0  0  0  0  0
   57.4820   29.6300   45.9980 N   0  0  0  0  0  0  0  0  0  0  0  0
   56.5030   29.9890   45.0890 O   0  0  0  0  0  0  0  0  0  0  0  0
   56.7920   30.1630   43.7030 C   0  0  0  0  0  0  0  0  0  0  0  0
   55.9654   30.7086   43.2244 H   0  0  0  0  0  0  0  0  0  0  0  0
   56.9098   29.1758   43.2324 H   0  0  0  0  0  0  0  0  0  0  0  0
   58.0860   30.9560   43.5340 C   0  0  0  0  0  0  0  0  0  0  0  0
   58.7106   30.4749   42.7669 H   0  0  0  0  0  0  0  0  0  0  0  0
   58.6242   30.9779   44.4931 H   0  0  0  0  0  0  0  0  0  0  0  0
   57.7770   32.3500   43.1150 N   0  0  0  0  0  0  0  0  0  0  0  0
   58.1830   32.6040   41.7130 C   0  0  0  0  0  0  0  0  0  0  0  0
   59.0084   31.9263   41.4495 H   0  0  0  0  0  0  0  0  0  0  0  0
   58.5017   33.6532   41.6260 H   0  0  0  0  0  0  0  0  0  0  0  0
   57.0180   32.3690   40.7520 C   0  0  0  0  0  0  0  0  0  0  0  0
   56.0993   32.1837   41.3279 H   0  0  0  0  0  0  0  0  0  0  0  0
   56.8805   33.2575   40.1182 H   0  0  0  0  0  0  0  0  0  0  0  0
   57.2357   31.4967   40.1182 H   0  0  0  0  0  0  0  0  0  0  0  0
   58.3980   33.3490   44.0170 C   0  0  0  0  0  0  0  0  0  0  0  0
   59.0982   32.8344   44.6914 H   0  0  0  0  0  0  0  0  0  0  0  0
   58.9225   34.0919   43.3982 H   0  0  0  0  0  0  0  0  0  0  0  0
   57.3490   34.0800   44.8550 C   0  0  0  0  0  0  0  0  0  0  0  0
   57.5638   33.9303   45.9234 H   0  0  0  0  0  0  0  0  0  0  0  0
   57.3777   35.1547   44.6223 H   0  0  0  0  0  0  0  0  0  0  0  0
   56.3507   33.6810   44.6223 H   0  0  0  0  0  0  0  0  0  0  0  0
   58.1500   30.6010   46.6920 C   0  0  0  0  0  0  0  0  0  0  0  0
   57.8100   31.8070   46.5450 O   0  0  0  0  0  0  0  0  0  0  0  0
   62.2720   31.2040   47.6240 C   0  0  0  0  0  0  0  0  0  0  0  0
   62.3627   30.1402   47.8886 H   0  0  0  0  0  0  0  0  0  0  0  0
  1  2  1  0
  2  3  2  0
  3  4  1  0
  3  5  1  0
  5  6  1  0
  5  7  2  0
  7  8  1  0
  8  9  1  0
  8 10  1  0
  8 11  1  0
  7 12  1  0
 12 13  1  0
 13 14  2  0
 14 15  1  0
 15 16  1  0
 16 17  2  0
 17 18  1  0
 17 19  1  0
 19 20  1  0
 19 21  2  0
 21 22  1  0
 21 23  1  0
 23 24  1  0
 23 25  2  0
 25 26  1  0
 26 27  1  0
 27 28  1  0
 28 29  1  0
 28 30  1  0
 28 31  1  0
 31 32  1  0
 31 33  1  0
 31 34  1  0
 34 35  1  0
 35 36  1  0
 35 37  1  0
 35 38  1  0
 38 39  1  0
 38 40  1  0
 38 41  1  0
 34 42  1  0
 42 43  1  0
 42 44  1  0
 42 45  1  0
 45 46  1  0
 45 47  1  0
 45 48  1  0
 26 49  1  0
 49 50  2  0
 12 51  2  0
 51 52  1  0
 51  2  1  0
 49 14  1  0
 25 16  1  0
M  CHG  1  15  -1
M  END
>  <UniqueID>  (32) 
29

>  <SMILES>  (32) 
CCN(CC)CCOn1c(=O)/c(=N\c2ccccc2C)[n-]c2ccccc21

>  <Energy>  (32) 
74.64915057264204

>  <Genealogy>  (32) 
CCN(CC)CCOn1c(=O)c(=Nc2ccccc2C)[n-]c2ccccc21 (protonated)
CCN(CC)CCOn1c(=O)/c(=N\c2ccccc2C)[n-]c2ccccc21 (cis-trans isomerization)
CCN(CC)CCOn1c(=O)/c(=N\c2ccccc2C)[n-]c2ccccc21 (3D coordinates assigned)
CCN(CC)CCOn1c(=O)/c(=N\c2ccccc2C)[n-]c2ccccc21 (optimized conformer: 74.64915057264204 kcal/mol)

>  <smiles>  (32) 
CCN(CC)CCOn1c(=O)c(=Nc2ccccc2C)[nH]c2ccccc21

>  <score_type>  (32) 
oracle

>  <origin>  (32) 
adg

>  <m_score__min__energy>  (32) 
-8.75

>  <m_primary>  (32) 
energy

$$$$
32:0
     RDKit          3D

 55 56  0  0  0  0  0  0  0  0999 V2000
   63.3560   33.7710   46.3600 C   0  0  0  0  0  0  0  0  0  0  0  0
   63.4900   32.9640   47.6510 C   0  0  0  0  0  0  0  0  0  0  0  0
   63.3990   33.8390   48.9110 C   0  0  0  0  0  0  0  0  0  0  0  0
   62.0680   33.6620   49.6560 C   0  0  0  0  0  0  0  0  0  0  0  0
   60.8530   34.0970   48.8200 C   0  0  0  0  0  0  0  0  0  0  0  0
   60.3290   32.9870   47.9930 N   0  0  0  0  0  0  0  0  0  0  0  0
   60.5840   31.7220   48.4500 C   0  0  0  0  0  0  0  0  0  0  0  0
   60.1610   30.5990   47.7540 C   0  0  0  0  0  0  0  0  0  0  0  0
   59.4540   30.7370   46.5600 C   0  0  0  0  0  0  0  0  0  0  0  0
   59.0600   29.5620   45.8290 N   0  0  0  0  0  0  0  0  0  0  0  0
   58.1940   28.5320   46.4030 C   0  0  0  0  0  0  0  0  0  0  0  0
   57.3580   27.8630   45.3100 C   0  0  0  0  0  0  0  0  0  0  0  0
   57.8590   28.2570   43.9690 N   0  0  0  0  0  0  0  0  0  0  0  0
   58.1290   27.0930   43.0950 C   0  0  0  0  0  0  0  0  0  0  0  0
   57.7650   25.7440   43.7340 C   0  0  0  0  0  0  0  0  0  0  0  0
   57.0220   29.2800   43.3020 C   0  0  0  0  0  0  0  0  0  0  0  0
   55.8900   29.7450   44.2130 C   0  0  0  0  0  0  0  0  0  0  0  0
   59.1640   32.0310   46.0820 C   0  0  0  0  0  0  0  0  0  0  0  0
   58.4110   32.2150   44.9040 C   0  0  0  0  0  0  0  0  0  0  0  0
   58.1100   33.4950   44.4450 C   0  0  0  0  0  0  0  0  0  0  0  0
   58.5380   34.6090   45.1560 C   0  0  0  0  0  0  0  0  0  0  0  0
   59.2740   34.4560   46.3310 C   0  0  0  0  0  0  0  0  0  0  0  0
   59.6080   33.1680   46.8230 C   0  0  0  0  0  0  0  0  0  0  0  0
   63.1804   34.8288   46.6054 H   0  0  0  0  0  0  0  0  0  0  0  0
   64.2816   33.6796   45.7727 H   0  0  0  0  0  0  0  0  0  0  0  0
   62.5096   33.3854   45.7727 H   0  0  0  0  0  0  0  0  0  0  0  0
   62.6842   32.2160   47.6834 H   0  0  0  0  0  0  0  0  0  0  0  0
   64.4838   32.4924   47.6457 H   0  0  0  0  0  0  0  0  0  0  0  0
   64.2215   33.5674   49.5891 H   0  0  0  0  0  0  0  0  0  0  0  0
   63.4666   34.8899   48.5932 H   0  0  0  0  0  0  0  0  0  0  0  0
   61.9513   32.6003   49.9191 H   0  0  0  0  0  0  0  0  0  0  0  0
   62.1013   34.3033   50.5491 H   0  0  0  0  0  0  0  0  0  0  0  0
   60.0586   34.4411   49.4987 H   0  0  0  0  0  0  0  0  0  0  0  0
   61.1737   34.9043   48.1451 H   0  0  0  0  0  0  0  0  0  0  0  0
   61.1376   31.5929   49.3917 H   0  0  0  0  0  0  0  0  0  0  0  0
   60.3842   29.5956   48.1456 H   0  0  0  0  0  0  0  0  0  0  0  0
   59.4830   29.3850   44.8900 H   0  0  0  0  0  0  0  0  0  0  0  0
   58.8155   27.7721   46.8992 H   0  0  0  0  0  0  0  0  0  0  0  0
   57.5164   29.0026   47.1306 H   0  0  0  0  0  0  0  0  0  0  0  0
   57.4269   26.7704   45.4172 H   0  0  0  0  0  0  0  0  0  0  0  0
   56.3109   28.1846   45.4111 H   0  0  0  0  0  0  0  0  0  0  0  0
   57.5434   27.2090   42.1711 H   0  0  0  0  0  0  0  0  0  0  0  0
   59.2125   27.0774   42.9056 H   0  0  0  0  0  0  0  0  0  0  0  0
   57.7905   25.8385   44.8296 H   0  0  0  0  0  0  0  0  0  0  0  0
   56.7548   25.4478   43.4149 H   0  0  0  0  0  0  0  0  0  0  0  0
   58.4891   24.9799   43.4149 H   0  0  0  0  0  0  0  0  0  0  0  0
   57.6509   30.1440   43.0412 H   0  0  0  0  0  0  0  0  0  0  0  0
   56.5814   28.8346   42.3979 H   0  0  0  0  0  0  0  0  0  0  0  0
   56.1908   29.6215   45.2638 H   0  0  0  0  0  0  0  0  0  0  0  0
   55.6728   30.8052   44.0160 H   0  0  0  0  0  0  0  0  0  0  0  0
   54.9903   29.1436   44.0160 H   0  0  0  0  0  0  0  0  0  0  0  0
   58.0576   31.3382   44.3416 H   0  0  0  0  0  0  0  0  0  0  0  0
   57.5323   33.6241   43.5178 H   0  0  0  0  0  0  0  0  0  0  0  0
   58.2951   35.6176   44.7903 H   0  0  0  0  0  0  0  0  0  0  0  0
   59.6007   35.3484   46.8850 H   0  0  0  0  0  0  0  0  0  0  0  0
  1  2  1  0
  2  3  1  0
  3  4  1  0
  4  5  1  0
  5  6  1  0
  6  7  2  0
  7  8  1  0
  8  9  2  0
  9 10  1  0
 10 11  1  0
 11 12  1  0
 12 13  1  0
 13 14  1  0
 14 15  1  0
 13 16  1  0
 16 17  1  0
  9 18  1  0
 18 19  2  0
 19 20  1  0
 20 21  2  0
 21 22  1  0
 22 23  2  0
 23  6  1  0
 23 18  1  0
  1 24  1  0
  1 25  1  0
  1 26  1  0
  2 27  1  0
  2 28  1  0
  3 29  1  0
  3 30  1  0
  4 31  1  0
  4 32  1  0
  5 33  1  0
  5 34  1  0
  7 35  1  0
  8 36  1  0
 10 37  1  0
 11 38  1  0
 11 39  1  0
 12 40  1  0
 12 41  1  0
 14 42  1  0
 14 43  1  0
 15 44  1  0
 15 45  1  0
 15 46  1  0
 16 47  1  0
 16 48  1  0
 17 49  1  0
 17 50  1  0
 17 51  1  0
 19 52  1  0
 20 53  1  0
 21 54  1  0
 22 55  1  0
M  CHG  1   6   1
M  END
>  <UniqueID>  (33) 
30

>  <SMILES>  (33) 
CCCCC[n+]1ccc(NCCN(CC)CC)c2ccccc21

>  <Energy>  (33) 
58.695438833882676

>  <Genealogy>  (33) 
CCCCC[n+]1ccc(NCCN(CC)CC)c2ccccc21 (3D coordinates assigned)
CCCCC[n+]1ccc(NCCN(CC)CC)c2ccccc21 (optimized conformer: 58.695438833882676 kcal/mol)

>  <smiles>  (33) 
CCCCC[n+]1ccc(NCCN(CC)CC)c2ccccc21

>  <score_type>  (33) 
oracle

>  <origin>  (33) 
adg

>  <m_score__min__energy>  (33) 
-5

>  <m_primary>  (33) 
energy

$$$$
33:0
     RDKit          3D

 32 34  0  0  0  0  0  0  0  0999 V2000
   57.7690   28.5230   45.9210 C   0  0  0  0  0  0  0  0  0  0  0  0
   57.0230   29.7080   45.6630 O   0  0  0  0  0  0  0  0  0  0  0  0
   57.2500   30.5720   44.5800 C   0  0  0  0  0  0  0  0  0  0  0  0
   56.8320   30.2510   43.2730 C   0  0  0  0  0  0  0  0  0  0  0  0
   57.0700   31.1330   42.2170 C   0  0  0  0  0  0  0  0  0  0  0  0
   57.7320   32.3390   42.4480 C   0  0  0  0  0  0  0  0  0  0  0  0
   58.1530   32.6700   43.7370 C   0  0  0  0  0  0  0  0  0  0  0  0
   57.9070   31.7990   44.8150 C   0  0  0  0  0  0  0  0  0  0  0  0
   58.3620   32.1270   46.1410 N   0  0  0  0  0  0  0  0  0  0  0  0
   59.7450   32.1300   46.5330 C   0  0  0  0  0  0  0  0  0  0  0  0
   60.3840   30.8990   46.8570 C   0  0  0  0  0  0  0  0  0  0  0  0
   61.7560   30.8540   47.1610 C   0  0  0  0  0  0  0  0  0  0  0  0
   62.4550   32.0510   47.1160 C   0  0  0  0  0  0  0  0  0  0  0  0
   63.7470   32.2910   47.3670 N   0  0  0  0  0  0  0  0  0  0  0  0
   63.9030   33.5780   47.2080 O   0  0  0  0  0  0  0  0  0  0  0  0
   62.8010   34.2010   46.8680 N   0  0  0  0  0  0  0  0  0  0  0  0
   61.8680   33.2330   46.8020 C   0  0  0  0  0  0  0  0  0  0  0  0
   60.5030   33.3370   46.5040 C   0  0  0  0  0  0  0  0  0  0  0  0
   59.9000   34.6130   46.2240 N   0  0  0  0  0  0  0  0  0  0  0  0
   59.5070   35.3440   47.1560 O   0  0  0  0  0  0  0  0  0  0  0  0
   59.6340   34.9910   44.9280 O   0  0  0  0  0  0  0  0  0  0  0  0
   57.8610   28.3769   47.0074 H   0  0  0  0  0  0  0  0  0  0  0  0
   57.2511   27.6598   45.4775 H   0  0  0  0  0  0  0  0  0  0  0  0
   58.7712   28.6168   45.4775 H   0  0  0  0  0  0  0  0  0  0  0  0
   56.3146   29.2990   43.0834 H   0  0  0  0  0  0  0  0  0  0  0  0
   56.7349   30.8764   41.2012 H   0  0  0  0  0  0  0  0  0  0  0  0
   57.9224   33.0298   41.6135 H   0  0  0  0  0  0  0  0  0  0  0  0
   58.6812   33.6190   43.9117 H   0  0  0  0  0  0  0  0  0  0  0  0
   57.6560   32.4210   46.8540 H   0  0  0  0  0  0  0  0  0  0  0  0
   59.7954   29.9698   46.8696 H   0  0  0  0  0  0  0  0  0  0  0  0
   62.2541   29.9090   47.4235 H   0  0  0  0  0  0  0  0  0  0  0  0
   64.4900   31.6100   47.6410 H   0  0  0  0  0  0  0  0  0  0  0  0
  1  2  1  0
  2  3  1  0
  3  4  2  0
  4  5  1  0
  5  6  2  0
  6  7  1  0
  7  8  2  0
  8  9  1  0
  9 10  1  0
 10 11  1  0
 11 12  2  0
 12 13  1  0
 13 14  2  0
 14 15  1  0
 15 16  1  0
 16 17  2  0
 17 18  1  0
 18 19  1  0
 19 20  2  0
 19 21  1  0
  8  3  1  0
 18 10  2  0
 17 13  1  0
  1 22  1  0
  1 23  1  0
  1 24  1  0
  4 25  1  0
  5 26  1  0
  6 27  1  0
  7 28  1  0
  9 29  1  0
 11 30  1  0
 12 31  1  0
 14 32  1  0
M  CHG  3  14   1  19   1  21  -1
M  END
>  <UniqueID>  (34) 
31

>  <SMILES>  (34) 
COc1ccccc1Nc1ccc2[nH+]onc2c1[N+](=O)[O-]

>  <Energy>  (34) 
88.63485531706998

>  <Genealogy>  (34) 
COc1ccccc1Nc1ccc2[nH+]onc2c1[N+](=O)[O-] (protonated)
COc1ccccc1Nc1ccc2[nH+]onc2c1[N+](=O)[O-] (3D coordinates assigned)
COc1ccccc1Nc1ccc2[nH+]onc2c1[N+](=O)[O-] (optimized conformer: 88.63485531706998 kcal/mol)

>  <smiles>  (34) 
COc1ccccc1Nc1ccc2nonc2c1[N+](=O)[O-]

>  <score_type>  (34) 
oracle

>  <origin>  (34) 
adg

>  <m_score__min__energy>  (34) 
-6.4199999999999999

>  <m_primary>  (34) 
energy

$$$$
34:0
     RDKit          3D

 61 65  0  0  0  0  0  0  0  0999 V2000
   57.9520   27.0130   42.9830 C   0  0  0  0  0  0  0  0  0  0  0  0
   58.5150   27.6190   44.1870 N   0  0  0  0  0  0  0  0  0  0  0  0
   59.5320   28.5150   44.2080 C   0  0  0  0  0  0  0  0  0  0  0  0
   59.7940   28.8620   45.5140 C   0  0  0  0  0  0  0  0  0  0  0  0
   60.7420   29.7310   46.0470 C   0  0  0  0  0  0  0  0  0  0  0  0
   60.7780   29.8880   47.4440 C   0  0  0  0  0  0  0  0  0  0  0  0
   59.8760   29.1750   48.2750 C   0  0  0  0  0  0  0  0  0  0  0  0
   59.8860   29.3900   49.7650 C   0  0  0  0  0  0  0  0  0  0  0  0
   59.4460   30.8260   50.1020 C   0  0  0  0  0  0  0  0  0  0  0  0
   60.5410   31.6560   50.6710 N   0  0  0  0  0  0  0  0  0  0  0  0
   60.1090   33.0160   51.0760 C   0  0  0  0  0  0  0  0  0  0  0  0
   59.5810   33.8260   49.8780 C   0  0  0  0  0  0  0  0  0  0  0  0
   60.3440   33.5020   48.6660 N   0  0  0  0  0  0  0  0  0  0  0  0
   59.7360   33.6380   47.3660 C   0  0  0  0  0  0  0  0  0  0  0  0
   59.9540   34.7950   46.5980 C   0  0  0  0  0  0  0  0  0  0  0  0
   59.3460   34.9350   45.3470 C   0  0  0  0  0  0  0  0  0  0  0  0
   58.5080   33.9290   44.8580 C   0  0  0  0  0  0  0  0  0  0  0  0
   58.2750   32.7770   45.6170 C   0  0  0  0  0  0  0  0  0  0  0  0
   57.4080   31.7430   45.1150 C   0  0  0  0  0  0  0  0  0  0  0  0
   56.7090   30.9140   44.7090 N   0  0  0  0  0  0  0  0  0  0  0  0
   58.8850   32.6310   46.8690 C   0  0  0  0  0  0  0  0  0  0  0  0
   61.7010   32.9680   48.8200 C   0  0  0  0  0  0  0  0  0  0  0  0
   61.7020   31.7230   49.7330 C   0  0  0  0  0  0  0  0  0  0  0  0
   58.9210   28.3100   47.6950 C   0  0  0  0  0  0  0  0  0  0  0  0
   58.9140   28.1740   46.3080 C   0  0  0  0  0  0  0  0  0  0  0  0
   58.1240   27.4060   45.4700 C   0  0  0  0  0  0  0  0  0  0  0  0
   57.0630   26.4310   45.9090 C   0  0  0  0  0  0  0  0  0  0  0  0
   57.3720   25.0510   45.4000 C   0  0  0  0  0  0  0  0  0  0  0  0
   58.5320   24.3460   45.7520 C   0  0  0  0  0  0  0  0  0  0  0  0
   58.6140   23.0870   45.1750 C   0  0  0  0  0  0  0  0  0  0  0  0
   57.2480   22.8600   44.2250 S   0  0  0  0  0  0  0  0  0  0  0  0
   56.5380   24.3510   44.5380 C   0  0  0  0  0  0  0  0  0  0  0  0
   57.2289   26.2346   43.2680 H   0  0  0  0  0  0  0  0  0  0  0  0
   57.4436   27.7853   42.3872 H   0  0  0  0  0  0  0  0  0  0  0  0
   58.7596   26.5627   42.3872 H   0  0  0  0  0  0  0  0  0  0  0  0
   60.0617   28.9019   43.3250 H   0  0  0  0  0  0  0  0  0  0  0  0
   61.4406   30.2774   45.3962 H   0  0  0  0  0  0  0  0  0  0  0  0
   61.5126   30.5702   47.8967 H   0  0  0  0  0  0  0  0  0  0  0  0
   59.1940   28.6781   50.2387 H   0  0  0  0  0  0  0  0  0  0  0  0
   60.9072   29.2316   50.1419 H   0  0  0  0  0  0  0  0  0  0  0  0
   59.0858   31.3066   49.1805 H   0  0  0  0  0  0  0  0  0  0  0  0
   58.6582   30.7556   50.8665 H   0  0  0  0  0  0  0  0  0  0  0  0
   60.8770   31.1690   51.5370 H   0  0  0  0  0  0  0  0  0  0  0  0
   59.3097   32.9274   51.8265 H   0  0  0  0  0  0  0  0  0  0  0  0
   60.9810   33.5439   51.4893 H   0  0  0  0  0  0  0  0  0  0  0  0
   58.5207   33.5827   49.7148 H   0  0  0  0  0  0  0  0  0  0  0  0
   59.6933   34.8986   50.0947 H   0  0  0  0  0  0  0  0  0  0  0  0
   60.6055   35.5933   46.9829 H   0  0  0  0  0  0  0  0  0  0  0  0
   59.5275   35.8385   44.7464 H   0  0  0  0  0  0  0  0  0  0  0  0
   58.0304   34.0433   43.8737 H   0  0  0  0  0  0  0  0  0  0  0  0
   58.6991   31.7266   47.4668 H   0  0  0  0  0  0  0  0  0  0  0  0
   62.0930   32.6896   47.8307 H   0  0  0  0  0  0  0  0  0  0  0  0
   62.3335   33.7418   49.2796 H   0  0  0  0  0  0  0  0  0  0  0  0
   61.6838   30.8267   49.0956 H   0  0  0  0  0  0  0  0  0  0  0  0
   62.6087   31.7838   50.3529 H   0  0  0  0  0  0  0  0  0  0  0  0
   58.2032   27.7594   48.3207 H   0  0  0  0  0  0  0  0  0  0  0  0
   57.0227   26.4107   47.0081 H   0  0  0  0  0  0  0  0  0  0  0  0
   56.0939   26.7521   45.4995 H   0  0  0  0  0  0  0  0  0  0  0  0
   59.3038   24.7527   46.4221 H   0  0  0  0  0  0  0  0  0  0  0  0
   59.4310   22.3639   45.3153 H   0  0  0  0  0  0  0  0  0  0  0  0
   55.5808   24.7094   44.1314 H   0  0  0  0  0  0  0  0  0  0  0  0
  1  2  1  0
  2  3  1  0
  3  4  2  0
  4  5  1  0
  5  6  2  0
  6  7  1  0
  7  8  1  0
  8  9  1  0
  9 10  1  0
 10 11  1  0
 11 12  1  0
 12 13  1  0
 13 14  1  0
 14 15  2  0
 15 16  1  0
 16 17  2  0
 17 18  1  0
 18 19  1  0
 19 20  3  0
 18 21  2  0
 13 22  1  0
 22 23  1  0
  7 24  2  0
 24 25  1  0
 25 26  2  0
 26 27  1  0
 27 28  1  0
 28 29  1  0
 29 30  2  0
 30 31  1  0
 31 32  1  0
 26  2  1  0
 32 28  2  0
 25  4  1  0
 23 10  1  0
 21 14  1  0
  1 33  1  0
  1 34  1  0
  1 35  1  0
  3 36  1  0
  5 37  1  0
  6 38  1  0
  8 39  1  0
  8 40  1  0
  9 41  1  0
  9 42  1  0
 10 43  1  0
 11 44  1  0
 11 45  1  0
 12 46  1  0
 12 47  1  0
 15 48  1  0
 16 49  1  0
 17 50  1  0
 21 51  1  0
 22 52  1  0
 22 53  1  0
 23 54  1  0
 23 55  1  0
 24 56  1  0
 27 57  1  0
 27 58  1  0
 29 59  1  0
 30 60  1  0
 32 61  1  0
M  CHG  1  10   1
M  END
>  <UniqueID>  (35) 
32

>  <SMILES>  (35) 
Cn1cc2ccc(CC[NH+]3CCN(c4cccc(C#N)c4)CC3)cc2c1Cc1ccsc1

>  <Energy>  (35) 
133.15311885532174

>  <Genealogy>  (35) 
Cn1cc2ccc(CC[NH+]3CCN(c4cccc(C#N)c4)CC3)cc2c1Cc1ccsc1 (protonated)
Cn1cc2ccc(CC[NH+]3CCN(c4cccc(C#N)c4)CC3)cc2c1Cc1ccsc1 (3D coordinates assigned)
Cn1cc2ccc(CC[NH+]3CCN(c4cccc(C#N)c4)CC3)cc2c1Cc1ccsc1 (nonaromatic ring conformer: 133.15311885532174 kcal/mol)

>  <smiles>  (35) 
Cn1cc2ccc(CCN3CCN(c4cccc(C#N)c4)CC3)cc2c1Cc1ccsc1

>  <score_type>  (35) 
oracle

>  <origin>  (35) 
adg

>  <m_score__min__energy>  (35) 
-7.8200000000000003

>  <m_primary>  (35) 
energy

$$$$
35:0
     RDKit          3D

 30 32  0  0  0  0  0  0  0  0999 V2000
   59.7030   27.5590   45.5720 C   0  0  0  0  0  0  0  0  0  0  0  0
   58.2050   27.4360   45.3270 C   0  0  0  0  0  0  0  0  0  0  0  0
   57.7130   28.6110   44.6130 N   0  0  0  0  0  0  0  0  0  0  0  0
   57.0160   28.5930   43.4790 N   0  0  0  0  0  0  0  0  0  0  0  0
   56.7920   29.8220   43.0130 N   0  0  0  0  0  0  0  0  0  0  0  0
   57.3850   30.6450   43.9000 C   0  0  0  0  0  0  0  0  0  0  0  0
   57.5030   32.0260   43.8870 C   0  0  0  0  0  0  0  0  0  0  0  0
   58.2350   32.6210   44.9350 C   0  0  0  0  0  0  0  0  0  0  0  0
   58.5030   34.5210   44.8710 Br  0  0  0  0  0  0  0  0  0  0  0  0
   58.8140   31.7960   45.9530 C   0  0  0  0  0  0  0  0  0  0  0  0
   59.5880   32.3640   47.0750 C   0  0  0  0  0  0  0  0  0  0  0  0
   58.9220   33.0290   48.1180 C   0  0  0  0  0  0  0  0  0  0  0  0
   59.6470   33.5970   49.1690 C   0  0  0  0  0  0  0  0  0  0  0  0
   61.0420   33.5190   49.1810 C   0  0  0  0  0  0  0  0  0  0  0  0
   61.7150   32.8790   48.1360 C   0  0  0  0  0  0  0  0  0  0  0  0
   60.9930   32.3100   47.0830 C   0  0  0  0  0  0  0  0  0  0  0  0
   58.6720   30.4350   45.8910 N   0  0  0  0  0  0  0  0  0  0  0  0
   57.9540   29.9000   44.8750 C   0  0  0  0  0  0  0  0  0  0  0  0
   59.8974   27.5750   46.6546 H   0  0  0  0  0  0  0  0  0  0  0  0
   60.2203   26.7003   45.1192 H   0  0  0  0  0  0  0  0  0  0  0  0
   60.0733   28.4906   45.1192 H   0  0  0  0  0  0  0  0  0  0  0  0
   58.0078   26.5363   44.7256 H   0  0  0  0  0  0  0  0  0  0  0  0
   57.6878   27.3613   46.2949 H   0  0  0  0  0  0  0  0  0  0  0  0
   56.6950   27.7230   42.9990 H   0  0  0  0  0  0  0  0  0  0  0  0
   57.0446   32.6326   43.0921 H   0  0  0  0  0  0  0  0  0  0  0  0
   57.8245   33.1029   48.1073 H   0  0  0  0  0  0  0  0  0  0  0  0
   59.1185   34.1064   49.9883 H   0  0  0  0  0  0  0  0  0  0  0  0
   61.6106   33.9610   50.0125 H   0  0  0  0  0  0  0  0  0  0  0  0
   62.8136   32.8232   48.1425 H   0  0  0  0  0  0  0  0  0  0  0  0
   61.5266   31.8176   46.2566 H   0  0  0  0  0  0  0  0  0  0  0  0
  1  2  1  0
  2  3  1  0
  3  4  1  0
  4  5  2  0
  5  6  1  0
  6  7  2  0
  7  8  1  0
  8  9  1  0
  8 10  2  0
 10 11  1  0
 11 12  2  0
 12 13  1  0
 13 14  2  0
 14 15  1  0
 15 16  2  0
 10 17  1  0
 17 18  2  0
 18  3  1  0
 18  6  1  0
 16 11  1  0
  1 19  1  0
  1 20  1  0
  1 21  1  0
  2 22  1  0
  2 23  1  0
  4 24  1  0
  7 25  1  0
 12 26  1  0
 13 27  1  0
 14 28  1  0
 15 29  1  0
 16 30  1  0
M  CHG  1   4   1
M  END
>  <UniqueID>  (36) 
33

>  <SMILES>  (36) 
CCn1[nH+]nc2cc(Br)c(-c3ccccc3)nc21

>  <Energy>  (36) 
82.89641449550376

>  <Genealogy>  (36) 
CCn1[nH+]nc2cc(Br)c(-c3ccccc3)nc21 (protonated)
CCn1[nH+]nc2cc(Br)c(-c3ccccc3)nc21 (3D coordinates assigned)
CCn1[nH+]nc2cc(Br)c(-c3ccccc3)nc21 (optimized conformer: 82.89641449550376 kcal/mol)

>  <smiles>  (36) 
CCn1nnc2cc(Br)c(-c3ccccc3)nc21

>  <score_type>  (36) 
oracle

>  <origin>  (36) 
adg

>  <m_score__min__energy>  (36) 
-6.2300000000000004

>  <m_primary>  (36) 
energy

$$$$
36:0
     RDKit          3D

 40 43  0  0  0  0  0  0  0  0999 V2000
   56.9620   24.8370   47.8730 C   0  0  0  0  0  0  0  0  0  0  0  0
   55.9800   24.9270   46.8450 O   0  0  0  0  0  0  0  0  0  0  0  0
   56.1120   24.3730   45.5600 C   0  0  0  0  0  0  0  0  0  0  0  0
   55.4660   23.1690   45.2150 C   0  0  0  0  0  0  0  0  0  0  0  0
   55.6080   22.6250   43.9380 C   0  0  0  0  0  0  0  0  0  0  0  0
   56.3960   23.2720   42.9890 C   0  0  0  0  0  0  0  0  0  0  0  0
   57.0420   24.4650   43.3110 C   0  0  0  0  0  0  0  0  0  0  0  0
   56.9110   25.0340   44.5930 C   0  0  0  0  0  0  0  0  0  0  0  0
   57.5940   26.2730   44.8910 N   0  0  0  0  0  0  0  0  0  0  0  0
   58.8500   26.3550   45.3230 N   0  0  0  0  0  0  0  0  0  0  0  0
   59.0950   27.6660   45.4730 C   0  0  0  0  0  0  0  0  0  0  0  0
   57.9640   28.3430   45.1620 C   0  0  0  0  0  0  0  0  0  0  0  0
   57.0180   27.4690   44.7910 N   0  0  0  0  0  0  0  0  0  0  0  0
   57.8740   29.7880   45.3020 C   0  0  0  0  0  0  0  0  0  0  0  0
   56.8000   30.3970   45.0490 O   0  0  0  0  0  0  0  0  0  0  0  0
   59.0610   30.4890   45.7380 N   0  0  0  0  0  0  0  0  0  0  0  0
   58.9990   31.8870   46.0850 C   0  0  0  0  0  0  0  0  0  0  0  0
   58.4760   32.8260   45.1780 C   0  0  0  0  0  0  0  0  0  0  0  0
   58.4240   34.1820   45.5160 C   0  0  0  0  0  0  0  0  0  0  0  0
   58.8980   34.6140   46.7580 C   0  0  0  0  0  0  0  0  0  0  0  0
   59.4250   33.6890   47.6660 C   0  0  0  0  0  0  0  0  0  0  0  0
   60.0260   34.2320   49.2220 Cl  0  0  0  0  0  0  0  0  0  0  0  0
   59.4770   32.3320   47.3300 C   0  0  0  0  0  0  0  0  0  0  0  0
   60.3740   29.8050   45.6510 C   0  0  0  0  0  0  0  0  0  0  0  0
   60.3030   28.3140   46.0700 C   0  0  0  0  0  0  0  0  0  0  0  0
   56.4695   24.8821   48.8555 H   0  0  0  0  0  0  0  0  0  0  0  0
   57.5054   23.8853   47.7786 H   0  0  0  0  0  0  0  0  0  0  0  0
   57.6694   25.6741   47.7786 H   0  0  0  0  0  0  0  0  0  0  0  0
   54.8432   22.6526   45.9603 H   0  0  0  0  0  0  0  0  0  0  0  0
   55.0976   21.6851   43.6807 H   0  0  0  0  0  0  0  0  0  0  0  0
   56.5089   22.8409   41.9833 H   0  0  0  0  0  0  0  0  0  0  0  0
   57.6618   24.9683   42.5543 H   0  0  0  0  0  0  0  0  0  0  0  0
   58.1059   32.4920   44.1975 H   0  0  0  0  0  0  0  0  0  0  0  0
   58.0093   34.9100   44.8032 H   0  0  0  0  0  0  0  0  0  0  0  0
   58.8567   35.6812   47.0216 H   0  0  0  0  0  0  0  0  0  0  0  0
   59.8949   31.6080   48.0450 H   0  0  0  0  0  0  0  0  0  0  0  0
   60.7318   29.8616   44.6124 H   0  0  0  0  0  0  0  0  0  0  0  0
   61.0588   30.3124   46.3464 H   0  0  0  0  0  0  0  0  0  0  0  0
   61.2059   27.7941   45.7170 H   0  0  0  0  0  0  0  0  0  0  0  0
   60.2381   28.2523   47.1663 H   0  0  0  0  0  0  0  0  0  0  0  0
  1  2  1  0
  2  3  1  0
  3  4  2  0
  4  5  1  0
  5  6  2  0
  6  7  1  0
  7  8  2  0
  8  9  1  0
  9 10  1  0
 10 11  2  0
 11 12  1  0
 12 13  2  0
 12 14  1  0
 14 15  2  0
 14 16  1  0
 16 17  1  0
 17 18  2  0
 18 19  1  0
 19 20  2  0
 20 21  1  0
 21 22  1  0
 21 23  2  0
 16 24  1  0
 24 25  1  0
  8  3  1  0
 13  9  1  0
 23 17  1  0
 25 11  1  0
  1 26  1  0
  1 27  1  0
  1 28  1  0
  4 29  1  0
  5 30  1  0
  6 31  1  0
  7 32  1  0
 18 33  1  0
 19 34  1  0
 20 35  1  0
 23 36  1  0
 24 37  1  0
 24 38  1  0
 25 39  1  0
 25 40  1  0
M  END
>  <UniqueID>  (37) 
34

>  <SMILES>  (37) 
COc1ccccc1-n1nc2c(n1)C(=O)N(c1cccc(Cl)c1)CC2

>  <Energy>  (37) 
90.29581702506218

>  <Genealogy>  (37) 
COc1ccccc1-n1nc2c(n1)C(=O)N(c1cccc(Cl)c1)CC2 (3D coordinates assigned)
COc1ccccc1-n1nc2c(n1)C(=O)N(c1cccc(Cl)c1)CC2 (nonaromatic ring conformer: 90.29581702506218 kcal/mol)

>  <smiles>  (37) 
COc1ccccc1-n1nc2c(n1)C(=O)N(c1cccc(Cl)c1)CC2

>  <score_type>  (37) 
oracle

>  <origin>  (37) 
adg

>  <m_score__min__energy>  (37) 
-8.1699999999999999

>  <m_primary>  (37) 
energy

$$$$
37:0
     RDKit          3D

 59 61  0  0  0  0  0  0  0  0999 V2000
   65.0450   32.1450   50.2370 C   0  0  0  0  0  0  0  0  0  0  0  0
   64.7990   32.7110   48.9540 O   0  0  0  0  0  0  0  0  0  0  0  0
   63.5320   33.0850   48.4850 C   0  0  0  0  0  0  0  0  0  0  0  0
   63.2070   33.1030   47.1170 C   0  0  0  0  0  0  0  0  0  0  0  0
   61.9270   33.4730   46.7010 C   0  0  0  0  0  0  0  0  0  0  0  0
   60.9410   33.8240   47.6400 C   0  0  0  0  0  0  0  0  0  0  0  0
   59.5970   34.1370   47.2170 N   0  0  0  0  0  0  0  0  0  0  0  0
   59.2890   35.3400   46.4420 C   0  0  0  0  0  0  0  0  0  0  0  0
   58.8690   34.9340   45.0270 C   0  0  0  0  0  0  0  0  0  0  0  0
   58.0360   33.7050   44.9960 N   0  0  0  0  0  0  0  0  0  0  0  0
   58.5260   32.6350   44.0990 C   0  0  0  0  0  0  0  0  0  0  0  0
   57.4050   31.7630   43.5100 C   0  0  0  0  0  0  0  0  0  0  0  0
   57.6720   30.3430   43.7330 N   0  0  0  0  0  0  0  0  0  0  0  0
   56.8030   29.5460   44.5500 C   0  0  0  0  0  0  0  0  0  0  0  0
   55.8280   30.0860   45.1390 O   0  0  0  0  0  0  0  0  0  0  0  0
   57.0300   28.0930   44.6710 C   0  0  0  0  0  0  0  0  0  0  0  0
   57.7890   27.5260   43.8420 O   0  0  0  0  0  0  0  0  0  0  0  0
   56.4070   27.2900   45.6840 N   0  0  0  0  0  0  0  0  0  0  0  0
   57.0730   26.5150   46.7300 C   0  0  0  0  0  0  0  0  0  0  0  0
   58.5950   26.5060   46.5330 C   0  0  0  0  0  0  0  0  0  0  0  0
   59.2100   27.8650   46.7420 C   0  0  0  0  0  0  0  0  0  0  0  0
   60.1340   28.3810   45.8180 C   0  0  0  0  0  0  0  0  0  0  0  0
   60.6880   29.6510   46.0110 C   0  0  0  0  0  0  0  0  0  0  0  0
   60.3330   30.4070   47.1310 C   0  0  0  0  0  0  0  0  0  0  0  0
   59.4220   29.8960   48.0580 C   0  0  0  0  0  0  0  0  0  0  0  0
   58.8510   28.6360   47.8610 C   0  0  0  0  0  0  0  0  0  0  0  0
   57.4680   33.2530   46.2880 C   0  0  0  0  0  0  0  0  0  0  0  0
   58.5110   33.1730   47.4220 C   0  0  0  0  0  0  0  0  0  0  0  0
   61.2720   33.8110   49.0050 C   0  0  0  0  0  0  0  0  0  0  0  0
   62.5570   33.4480   49.4210 C   0  0  0  0  0  0  0  0  0  0  0  0
   64.7358   32.8564   51.0170 H   0  0  0  0  0  0  0  0  0  0  0  0
   64.4709   31.2127   50.3427 H   0  0  0  0  0  0  0  0  0  0  0  0
   66.1183   31.9287   50.3427 H   0  0  0  0  0  0  0  0  0  0  0  0
   63.9655   32.8240   46.3708 H   0  0  0  0  0  0  0  0  0  0  0  0
   61.6872   33.4902   45.6276 H   0  0  0  0  0  0  0  0  0  0  0  0
   58.4680   35.8892   46.9261 H   0  0  0  0  0  0  0  0  0  0  0  0
   60.1785   35.9852   46.3924 H   0  0  0  0  0  0  0  0  0  0  0  0
   58.2925   35.7588   44.5828 H   0  0  0  0  0  0  0  0  0  0  0  0
   59.7878   34.7215   44.4607 H   0  0  0  0  0  0  0  0  0  0  0  0
   59.0757   33.1022   43.2686 H   0  0  0  0  0  0  0  0  0  0  0  0
   59.1639   31.9742   44.7043 H   0  0  0  0  0  0  0  0  0  0  0  0
   56.4521   32.0294   43.9907 H   0  0  0  0  0  0  0  0  0  0  0  0
   57.3543   31.9435   42.4261 H   0  0  0  0  0  0  0  0  0  0  0  0
   58.5150   29.8980   43.3030 H   0  0  0  0  0  0  0  0  0  0  0  0
   56.8409   26.9602   47.7087 H   0  0  0  0  0  0  0  0  0  0  0  0
   56.7099   25.4779   46.6786 H   0  0  0  0  0  0  0  0  0  0  0  0
   59.0400   25.8027   47.2523 H   0  0  0  0  0  0  0  0  0  0  0  0
   58.7966   26.2031   45.4949 H   0  0  0  0  0  0  0  0  0  0  0  0
   60.4228   27.7845   44.9400 H   0  0  0  0  0  0  0  0  0  0  0  0
   61.4040   30.0549   45.2801 H   0  0  0  0  0  0  0  0  0  0  0  0
   60.7710   31.4046   47.2826 H   0  0  0  0  0  0  0  0  0  0  0  0
   59.1532   30.4872   48.9458 H   0  0  0  0  0  0  0  0  0  0  0  0
   58.1187   28.2465   48.5835 H   0  0  0  0  0  0  0  0  0  0  0  0
   56.6799   33.9592   46.5884 H   0  0  0  0  0  0  0  0  0  0  0  0
   57.0784   32.2360   46.1331 H   0  0  0  0  0  0  0  0  0  0  0  0
   58.0158   33.3897   48.3800 H   0  0  0  0  0  0  0  0  0  0  0  0
   58.9418   32.1609   47.4263 H   0  0  0  0  0  0  0  0  0  0  0  0
   60.5145   34.0885   49.7528 H   0  0  0  0  0  0  0  0  0  0  0  0
   62.8034   33.4478   50.4930 H   0  0  0  0  0  0  0  0  0  0  0  0
  1  2  1  0
  2  3  1  0
  3  4  2  0
  4  5  1  0
  5  6  2  0
  6  7  1  0
  7  8  1  0
  8  9  1  0
  9 10  1  0
 10 11  1  0
 11 12  1  0
 12 13  1  0
 13 14  1  0
 14 15  2  0
 14 16  1  0
 16 17  2  0
 16 18  1  0
 18 19  1  0
 19 20  1  0
 20 21  1  0
 21 22  2  0
 22 23  1  0
 23 24  2  0
 24 25  1  0
 25 26  2  0
 10 27  1  0
 27 28  1  0
  6 29  1  0
 29 30  2  0
 30  3  1  0
 28  7  1  0
 26 21  1  0
  1 31  1  0
  1 32  1  0
  1 33  1  0
  4 34  1  0
  5 35  1  0
  8 36  1  0
  8 37  1  0
  9 38  1  0
  9 39  1  0
 11 40  1  0
 11 41  1  0
 12 42  1  0
 12 43  1  0
 13 44  1  0
 19 45  1  0
 19 46  1  0
 20 47  1  0
 20 48  1  0
 22 49  1  0
 23 50  1  0
 24 51  1  0
 25 52  1  0
 26 53  1  0
 27 54  1  0
 27 55  1  0
 28 56  1  0
 28 57  1  0
 29 58  1  0
 30 59  1  0
M  CHG  1  18  -1
M  END
>  <UniqueID>  (38) 
35

>  <SMILES>  (38) 
COc1ccc(N2CCN(CCNC(=O)C(=O)[N-]CCc3ccccc3)CC2)cc1

>  <Energy>  (38) 
65.79328378636188

>  <Genealogy>  (38) 
COc1ccc(N2CCN(CCNC(=O)C(=O)[N-]CCc3ccccc3)CC2)cc1 (protonated)
COc1ccc(N2CCN(CCNC(=O)C(=O)[N-]CCc3ccccc3)CC2)cc1 (3D coordinates assigned)
COc1ccc(N2CCN(CCNC(=O)C(=O)[N-]CCc3ccccc3)CC2)cc1 (nonaromatic ring conformer: 65.79328378636188 kcal/mol)

>  <smiles>  (38) 
COc1ccc(N2CCN(CCNC(=O)C(=O)NCCc3ccccc3)CC2)cc1

>  <score_type>  (38) 
oracle

>  <origin>  (38) 
adg

>  <m_score__min__energy>  (38) 
-9.8699999999999992

>  <m_primary>  (38) 
energy

$$$$
38:0
     RDKit          3D

 50 52  0  0  0  0  0  0  0  0999 V2000
   64.8260   32.9220   49.4650 C   0  0  0  0  0  0  0  0  0  0  0  0
   63.7370   31.9050   49.1410 C   0  0  0  0  0  0  0  0  0  0  0  0
   62.9220   32.3650   48.0070 N   0  0  0  0  0  0  0  0  0  0  0  0
   63.5850   32.7740   46.7610 C   0  0  0  0  0  0  0  0  0  0  0  0
   63.1500   34.1800   46.3590 C   0  0  0  0  0  0  0  0  0  0  0  0
   61.4820   32.4100   48.1160 C   0  0  0  0  0  0  0  0  0  0  0  0
   60.8910   32.5840   49.3250 N   0  0  0  0  0  0  0  0  0  0  0  0
   59.5380   32.6420   49.4370 C   0  0  0  0  0  0  0  0  0  0  0  0
   58.9370   32.8290   50.7320 N   0  0  0  0  0  0  0  0  0  0  0  0
   59.5390   33.7540   51.6980 C   0  0  0  0  0  0  0  0  0  0  0  0
   58.4750   34.2250   52.6940 C   0  0  0  0  0  0  0  0  0  0  0  0
   57.8120   33.1200   53.2810 O   0  0  0  0  0  0  0  0  0  0  0  0
   57.0900   32.4140   52.2900 C   0  0  0  0  0  0  0  0  0  0  0  0
   58.0410   31.7960   51.2590 C   0  0  0  0  0  0  0  0  0  0  0  0
   58.7670   32.5030   48.3230 N   0  0  0  0  0  0  0  0  0  0  0  0
   59.3510   32.3080   47.1070 C   0  0  0  0  0  0  0  0  0  0  0  0
   58.5590   32.1790   45.9170 N   0  0  0  0  0  0  0  0  0  0  0  0
   57.8630   31.0860   45.6410 N   0  0  0  0  0  0  0  0  0  0  0  0
   57.2270   31.2940   44.4720 C   0  0  0  0  0  0  0  0  0  0  0  0
   56.3140   30.3040   43.8310 C   0  0  0  0  0  0  0  0  0  0  0  0
   57.5060   32.5600   43.9960 C   0  0  0  0  0  0  0  0  0  0  0  0
   58.3470   33.1010   44.9470 C   0  0  0  0  0  0  0  0  0  0  0  0
   58.8820   34.5000   44.9210 C   0  0  0  0  0  0  0  0  0  0  0  0
   60.7040   32.2810   47.0100 N   0  0  0  0  0  0  0  0  0  0  0  0
   64.9268   33.0161   50.5563 H   0  0  0  0  0  0  0  0  0  0  0  0
   65.7814   32.5853   49.0362 H   0  0  0  0  0  0  0  0  0  0  0  0
   64.5554   33.8982   49.0362 H   0  0  0  0  0  0  0  0  0  0  0  0
   64.2051   30.9434   48.8836 H   0  0  0  0  0  0  0  0  0  0  0  0
   63.0873   31.7878   50.0209 H   0  0  0  0  0  0  0  0  0  0  0  0
   64.6748   32.7613   46.9101 H   0  0  0  0  0  0  0  0  0  0  0  0
   63.3026   32.0728   45.9618 H   0  0  0  0  0  0  0  0  0  0  0  0
   62.9647   34.7790   47.2628 H   0  0  0  0  0  0  0  0  0  0  0  0
   63.9439   34.6528   45.7622 H   0  0  0  0  0  0  0  0  0  0  0  0
   62.2278   34.1219   45.7622 H   0  0  0  0  0  0  0  0  0  0  0  0
   60.3466   33.2411   52.2410 H   0  0  0  0  0  0  0  0  0  0  0  0
   59.9478   34.6240   51.1632 H   0  0  0  0  0  0  0  0  0  0  0  0
   58.9583   34.8174   53.4849 H   0  0  0  0  0  0  0  0  0  0  0  0
   57.7346   34.8358   52.1567 H   0  0  0  0  0  0  0  0  0  0  0  0
   56.5085   31.6129   52.7697 H   0  0  0  0  0  0  0  0  0  0  0  0
   56.4202   33.1176   51.7740 H   0  0  0  0  0  0  0  0  0  0  0  0
   58.6366   31.0054   51.7387 H   0  0  0  0  0  0  0  0  0  0  0  0
   57.4542   31.3669   50.4334 H   0  0  0  0  0  0  0  0  0  0  0  0
   57.7290   32.5490   48.3980 H   0  0  0  0  0  0  0  0  0  0  0  0
   55.7874   29.7330   44.6099 H   0  0  0  0  0  0  0  0  0  0  0  0
   55.5804   30.8333   43.2052 H   0  0  0  0  0  0  0  0  0  0  0  0
   56.9009   29.6156   43.2052 H   0  0  0  0  0  0  0  0  0  0  0  0
   57.1413   33.0297   43.0706 H   0  0  0  0  0  0  0  0  0  0  0  0
   59.0194   34.8592   45.9516 H   0  0  0  0  0  0  0  0  0  0  0  0
   59.8486   34.5132   44.3962 H   0  0  0  0  0  0  0  0  0  0  0  0
   58.1708   35.1548   44.3962 H   0  0  0  0  0  0  0  0  0  0  0  0
  1  2  1  0
  2  3  1  0
  3  4  1  0
  4  5  1  0
  3  6  1  0
  6  7  2  0
  7  8  1  0
  8  9  1  0
  9 10  1  0
 10 11  1  0
 11 12  1  0
 12 13  1  0
 13 14  1  0
  8 15  2  0
 15 16  1  0
 16 17  1  0
 17 18  1  0
 18 19  2  0
 19 20  1  0
 19 21  1  0
 21 22  2  0
 22 23  1  0
 16 24  2  0
 24  6  1  0
 14  9  1  0
 22 17  1  0
  1 25  1  0
  1 26  1  0
  1 27  1  0
  2 28  1  0
  2 29  1  0
  4 30  1  0
  4 31  1  0
  5 32  1  0
  5 33  1  0
  5 34  1  0
 10 35  1  0
 10 36  1  0
 11 37  1  0
 11 38  1  0
 13 39  1  0
 13 40  1  0
 14 41  1  0
 14 42  1  0
 15 43  1  0
 20 44  1  0
 20 45  1  0
 20 46  1  0
 21 47  1  0
 23 48  1  0
 23 49  1  0
 23 50  1  0
M  CHG  1  15   1
M  END
>  <UniqueID>  (39) 
36

>  <SMILES>  (39) 
CCN(CC)c1nc(N2CCOCC2)[nH+]c(-n2nc(C)cc2C)n1

>  <Energy>  (39) 
78.67068908429951

>  <Genealogy>  (39) 
CCN(CC)c1nc(N2CCOCC2)[nH+]c(-n2nc(C)cc2C)n1 (protonated)
CCN(CC)c1nc(N2CCOCC2)[nH+]c(-n2nc(C)cc2C)n1 (3D coordinates assigned)
CCN(CC)c1nc(N2CCOCC2)[nH+]c(-n2nc(C)cc2C)n1 (nonaromatic ring conformer: 78.67068908429951 kcal/mol)

>  <smiles>  (39) 
CCN(CC)c1nc(N2CCOCC2)nc(-n2nc(C)cc2C)n1

>  <score_type>  (39) 
oracle

>  <origin>  (39) 
adg

>  <m_score__min__energy>  (39) 
-5.3399999999999999

>  <m_primary>  (39) 
energy

$$$$
39:0
     RDKit          3D

 37 39  0  0  0  0  0  0  0  0999 V2000
   56.2510   26.1840   46.0150 C   0  0  0  0  0  0  0  0  0  0  0  0
   57.0020   27.4650   45.8420 C   0  0  0  0  0  0  0  0  0  0  0  0
   58.3450   27.5620   46.2730 C   0  0  0  0  0  0  0  0  0  0  0  0
   59.0360   28.7740   46.0880 C   0  0  0  0  0  0  0  0  0  0  0  0
   60.4640   28.9360   46.5150 C   0  0  0  0  0  0  0  0  0  0  0  0
   58.3560   29.7910   45.4950 N   0  0  0  0  0  0  0  0  0  0  0  0
   58.7720   31.0050   45.1930 N   0  0  0  0  0  0  0  0  0  0  0  0
   57.7200   31.6130   44.5990 C   0  0  0  0  0  0  0  0  0  0  0  0
   57.7730   32.9950   44.0310 C   0  0  0  0  0  0  0  0  0  0  0  0
   56.9900   34.1910   45.1670 S   0  0  0  0  0  0  0  0  0  0  0  0
   58.1440   33.9120   46.5240 C   0  0  0  0  0  0  0  0  0  0  0  0
   57.8210   32.9530   47.4940 C   0  0  0  0  0  0  0  0  0  0  0  0
   58.6940   32.6930   48.5500 C   0  0  0  0  0  0  0  0  0  0  0  0
   59.8940   33.4000   48.6550 C   0  0  0  0  0  0  0  0  0  0  0  0
   60.2190   34.3730   47.7060 C   0  0  0  0  0  0  0  0  0  0  0  0
   59.3460   34.6470   46.6390 C   0  0  0  0  0  0  0  0  0  0  0  0
   59.7110   35.7040   45.6320 C   0  0  0  0  0  0  0  0  0  0  0  0
   56.6280   30.8070   44.5070 N   0  0  0  0  0  0  0  0  0  0  0  0
   57.0890   29.6830   45.0890 C   0  0  0  0  0  0  0  0  0  0  0  0
   56.3910   28.5330   45.2470 N   0  0  0  0  0  0  0  0  0  0  0  0
   56.1275   25.9733   47.0876 H   0  0  0  0  0  0  0  0  0  0  0  0
   55.2616   26.2723   45.5424 H   0  0  0  0  0  0  0  0  0  0  0  0
   56.8113   25.3638   45.5424 H   0  0  0  0  0  0  0  0  0  0  0  0
   58.8426   26.7026   46.7461 H   0  0  0  0  0  0  0  0  0  0  0  0
   60.5197   28.9423   47.6136 H   0  0  0  0  0  0  0  0  0  0  0  0
   61.0612   28.0998   46.1224 H   0  0  0  0  0  0  0  0  0  0  0  0
   60.8587   29.8847   46.1224 H   0  0  0  0  0  0  0  0  0  0  0  0
   59.7260   31.3950   45.3640 H   0  0  0  0  0  0  0  0  0  0  0  0
   58.8236   33.2807   43.8741 H   0  0  0  0  0  0  0  0  0  0  0  0
   57.2275   33.0056   43.0758 H   0  0  0  0  0  0  0  0  0  0  0  0
   56.8720   32.4015   47.4217 H   0  0  0  0  0  0  0  0  0  0  0  0
   58.4374   31.9308   49.3005 H   0  0  0  0  0  0  0  0  0  0  0  0
   60.5841   33.1907   49.4857 H   0  0  0  0  0  0  0  0  0  0  0  0
   61.1644   34.9282   47.7946 H   0  0  0  0  0  0  0  0  0  0  0  0
   60.0265   36.6175   46.1573 H   0  0  0  0  0  0  0  0  0  0  0  0
   60.5356   35.3404   45.0013 H   0  0  0  0  0  0  0  0  0  0  0  0
   58.8377   35.9267   45.0013 H   0  0  0  0  0  0  0  0  0  0  0  0
  1  2  1  0
  2  3  1  0
  3  4  2  0
  4  5  1  0
  4  6  1  0
  6  7  1  0
  7  8  2  0
  8  9  1  0
  9 10  1  0
 10 11  1  0
 11 12  2  0
 12 13  1  0
 13 14  2  0
 14 15  1  0
 15 16  2  0
 16 17  1  0
  8 18  1  0
 18 19  2  0
 19 20  1  0
 20  2  2  0
 19  6  1  0
 16 11  1  0
  1 21  1  0
  1 22  1  0
  1 23  1  0
  3 24  1  0
  5 25  1  0
  5 26  1  0
  5 27  1  0
  7 28  1  0
  9 29  1  0
  9 30  1  0
 12 31  1  0
 13 32  1  0
 14 33  1  0
 15 34  1  0
 17 35  1  0
 17 36  1  0
 17 37  1  0
M  CHG  1   7   1
M  END
>  <UniqueID>  (40) 
37

>  <SMILES>  (40) 
Cc1cc(C)n2[nH+]c(CSc3ccccc3C)nc2n1

>  <Energy>  (40) 
72.79601172113064

>  <Genealogy>  (40) 
Cc1cc(C)n2[nH+]c(CSc3ccccc3C)nc2n1 (protonated)
Cc1cc(C)n2[nH+]c(CSc3ccccc3C)nc2n1 (3D coordinates assigned)
Cc1cc(C)n2[nH+]c(CSc3ccccc3C)nc2n1 (optimized conformer: 72.79601172113064 kcal/mol)

>  <smiles>  (40) 
Cc1cc(C)n2nc(CSc3ccccc3C)nc2n1

>  <score_type>  (40) 
oracle

>  <origin>  (40) 
adg

>  <m_score__min__energy>  (40) 
-6.4800000000000004

>  <m_primary>  (40) 
energy

$$$$
40:0
     RDKit          3D

 46 48  0  0  0  0  0  0  0  0999 V2000
   57.9944   32.6006   42.4291 H   0  0  0  0  0  0  0  0  0  0  0  0
   57.6910   31.6880   42.9630 C   0  0  0  0  0  0  0  0  0  0  0  0
   56.6850   30.8650   42.4220 C   0  0  0  0  0  0  0  0  0  0  0  0
   56.1855   31.1531   41.4853 H   0  0  0  0  0  0  0  0  0  0  0  0
   56.3180   29.6790   43.0740 C   0  0  0  0  0  0  0  0  0  0  0  0
   55.5654   29.0050   42.6390 H   0  0  0  0  0  0  0  0  0  0  0  0
   56.9330   29.3770   44.2890 C   0  0  0  0  0  0  0  0  0  0  0  0
   57.8550   30.2270   44.8760 C   0  0  0  0  0  0  0  0  0  0  0  0
   58.3110   31.3540   44.1790 C   0  0  0  0  0  0  0  0  0  0  0  0
   59.1363   31.9639   44.5752 H   0  0  0  0  0  0  0  0  0  0  0  0
   58.3100   29.5740   46.0260 C   0  0  0  0  0  0  0  0  0  0  0  0
   59.2260   29.8720   47.0700 C   0  0  0  0  0  0  0  0  0  0  0  0
   59.5470   31.0740   47.4680 N   0  0  0  0  0  0  0  0  0  0  0  0
   58.8360   32.0240   48.3190 C   0  0  0  0  0  0  0  0  0  0  0  0
   59.5581   32.5558   48.9560 H   0  0  0  0  0  0  0  0  0  0  0  0
   58.1169   31.4808   48.9497 H   0  0  0  0  0  0  0  0  0  0  0  0
   58.0790   33.0420   47.4420 C   0  0  0  0  0  0  0  0  0  0  0  0
   57.1969   33.3868   48.0016 H   0  0  0  0  0  0  0  0  0  0  0  0
   57.8232   32.5179   46.5093 H   0  0  0  0  0  0  0  0  0  0  0  0
   58.8720   34.2350   47.0480 N   0  0  0  0  0  0  0  0  0  0  0  0
   60.2830   34.2090   47.5020 C   0  0  0  0  0  0  0  0  0  0  0  0
   60.3815   33.4753   48.3156 H   0  0  0  0  0  0  0  0  0  0  0  0
   60.5498   35.2194   47.8454 H   0  0  0  0  0  0  0  0  0  0  0  0
   61.2370   33.8250   46.3720 C   0  0  0  0  0  0  0  0  0  0  0  0
   62.1775   33.4464   46.7989 H   0  0  0  0  0  0  0  0  0  0  0  0
   60.7748   33.0429   45.7518 H   0  0  0  0  0  0  0  0  0  0  0  0
   61.4455   34.7092   45.7518 H   0  0  0  0  0  0  0  0  0  0  0  0
   58.7670   34.5310   45.6010 C   0  0  0  0  0  0  0  0  0  0  0  0
   59.0048   35.5910   45.4285 H   0  0  0  0  0  0  0  0  0  0  0  0
   59.4753   33.8937   45.0513 H   0  0  0  0  0  0  0  0  0  0  0  0
   57.3530   34.2450   45.1080 C   0  0  0  0  0  0  0  0  0  0  0  0
   56.6842   34.1097   45.9708 H   0  0  0  0  0  0  0  0  0  0  0  0
   56.9992   35.0898   44.4987 H   0  0  0  0  0  0  0  0  0  0  0  0
   57.3553   33.3291   44.4987 H   0  0  0  0  0  0  0  0  0  0  0  0
   59.6620   28.8250   47.8370 N   0  0  0  0  0  0  0  0  0  0  0  0
   60.3700   29.0010   48.5860 H   0  0  0  0  0  0  0  0  0  0  0  0
   59.1300   27.5690   47.7480 C   0  0  0  0  0  0  0  0  0  0  0  0
   59.5182   26.7668   48.3928 H   0  0  0  0  0  0  0  0  0  0  0  0
   58.0940   27.2920   46.8430 C   0  0  0  0  0  0  0  0  0  0  0  0
   57.4940   25.9190   46.7480 C   0  0  0  0  0  0  0  0  0  0  0  0
   57.3212   25.5236   47.7598 H   0  0  0  0  0  0  0  0  0  0  0  0
   56.5376   25.9734   46.2073 H   0  0  0  0  0  0  0  0  0  0  0  0
   58.1836   25.2541   46.2073 H   0  0  0  0  0  0  0  0  0  0  0  0
   57.7130   28.3200   45.9780 C   0  0  0  0  0  0  0  0  0  0  0  0
   56.8390   28.2140   44.9530 N   0  0  0  0  0  0  0  0  0  0  0  0
   56.2840   27.3760   44.6710 H   0  0  0  0  0  0  0  0  0  0  0  0
  1  2  1  0
  2  3  2  0
  3  4  1  0
  3  5  1  0
  5  6  1  0
  5  7  2  0
  7  8  1  0
  8  9  2  0
  9 10  1  0
  8 11  1  0
 11 12  1  0
 12 13  2  0
 13 14  1  0
 14 15  1  0
 14 16  1  0
 14 17  1  0
 17 18  1  0
 17 19  1  0
 17 20  1  0
 20 21  1  0
 21 22  1  0
 21 23  1  0
 21 24  1  0
 24 25  1  0
 24 26  1  0
 24 27  1  0
 20 28  1  0
 28 29  1  0
 28 30  1  0
 28 31  1  0
 31 32  1  0
 31 33  1  0
 31 34  1  0
 12 35  1  0
 35 36  1  0
 35 37  1  0
 37 38  1  0
 37 39  2  0
 39 40  1  0
 40 41  1  0
 40 42  1  0
 40 43  1  0
 39 44  1  0
 44 45  1  0
 45 46  1  0
  9  2  1  0
 44 11  2  0
 45  7  1  0
M  END
>  <UniqueID>  (41) 
38

>  <SMILES>  (41) 
CCN(CC)CC/N=c1/[nH]cc(C)c2[nH]c3ccccc3c12

>  <Energy>  (41) 
108.55863844077825

>  <Genealogy>  (41) 
CCN(CC)CC/N=c1/[nH]cc(C)c2[nH]c3ccccc3c12 (cis-trans isomerization)
CCN(CC)CC/N=c1/[nH]cc(C)c2[nH]c3ccccc3c12 (3D coordinates assigned)
CCN(CC)CC/N=c1/[nH]cc(C)c2[nH]c3ccccc3c12 (optimized conformer: 108.55863844077825 kcal/mol)

>  <smiles>  (41) 
CCN(CC)CCN=c1[nH]cc(C)c2[nH]c3ccccc3c12

>  <score_type>  (41) 
oracle

>  <origin>  (41) 
adg

>  <m_score__min__energy>  (41) 
-6.9000000000000004

>  <m_primary>  (41) 
energy

$$$$
41:0
     RDKit          3D

 41 43  0  0  0  0  0  0  0  0999 V2000
   57.3930   31.9630   41.7460 C   0  0  0  0  0  0  0  0  0  0  0  0
   57.7550   31.7640   43.1880 C   0  0  0  0  0  0  0  0  0  0  0  0
   57.7570   30.4800   43.7470 C   0  0  0  0  0  0  0  0  0  0  0  0
   58.0430   30.3020   45.1040 C   0  0  0  0  0  0  0  0  0  0  0  0
   58.3090   31.4080   45.9290 C   0  0  0  0  0  0  0  0  0  0  0  0
   58.6040   31.1920   47.3880 C   0  0  0  0  0  0  0  0  0  0  0  0
   58.2610   32.7060   45.3760 C   0  0  0  0  0  0  0  0  0  0  0  0
   58.5070   34.1790   46.3880 S   0  0  0  0  0  0  0  0  0  0  0  0
   60.2300   34.4800   45.8470 C   0  0  0  0  0  0  0  0  0  0  0  0
   61.1990   34.1760   46.9450 C   0  0  0  0  0  0  0  0  0  0  0  0
   60.8830   34.0540   48.2890 C   0  0  0  0  0  0  0  0  0  0  0  0
   61.9970   33.6460   48.9160 N   0  0  0  0  0  0  0  0  0  0  0  0
   62.2340   33.3480   50.2210 C   0  0  0  0  0  0  0  0  0  0  0  0
   61.1550   33.4770   51.2570 C   0  0  0  0  0  0  0  0  0  0  0  0
   63.5220   32.9020   50.5610 C   0  0  0  0  0  0  0  0  0  0  0  0
   64.4960   32.7730   49.5460 C   0  0  0  0  0  0  0  0  0  0  0  0
   65.8840   32.3270   49.8960 C   0  0  0  0  0  0  0  0  0  0  0  0
   64.1880   33.1050   48.2540 N   0  0  0  0  0  0  0  0  0  0  0  0
   62.9350   33.5350   47.9640 C   0  0  0  0  0  0  0  0  0  0  0  0
   62.4950   33.8450   46.7280 N   0  0  0  0  0  0  0  0  0  0  0  0
   58.0090   32.8720   44.0070 C   0  0  0  0  0  0  0  0  0  0  0  0
   56.4308   32.4919   41.6791 H   0  0  0  0  0  0  0  0  0  0  0  0
   58.1740   32.5586   41.2507 H   0  0  0  0  0  0  0  0  0  0  0  0
   57.3087   30.9844   41.2507 H   0  0  0  0  0  0  0  0  0  0  0  0
   57.5326   29.6076   43.1157 H   0  0  0  0  0  0  0  0  0  0  0  0
   58.0599   29.2877   45.5293 H   0  0  0  0  0  0  0  0  0  0  0  0
   57.8642   31.7337   47.9958 H   0  0  0  0  0  0  0  0  0  0  0  0
   58.5512   30.1175   47.6176 H   0  0  0  0  0  0  0  0  0  0  0  0
   59.6123   31.5668   47.6176 H   0  0  0  0  0  0  0  0  0  0  0  0
   60.4529   33.8371   44.9827 H   0  0  0  0  0  0  0  0  0  0  0  0
   60.3310   35.5411   45.5752 H   0  0  0  0  0  0  0  0  0  0  0  0
   59.9058   34.2535   48.7530 H   0  0  0  0  0  0  0  0  0  0  0  0
   61.6020   33.4236   52.2606 H   0  0  0  0  0  0  0  0  0  0  0  0
   60.6428   34.4428   51.1347 H   0  0  0  0  0  0  0  0  0  0  0  0
   60.4296   32.6592   51.1347 H   0  0  0  0  0  0  0  0  0  0  0  0
   63.7690   32.6563   51.6044 H   0  0  0  0  0  0  0  0  0  0  0  0
   65.9930   32.2920   50.9900 H   0  0  0  0  0  0  0  0  0  0  0  0
   66.0639   31.3258   49.4774 H   0  0  0  0  0  0  0  0  0  0  0  0
   66.6135   33.0360   49.4774 H   0  0  0  0  0  0  0  0  0  0  0  0
   64.9000   33.0250   47.4930 H   0  0  0  0  0  0  0  0  0  0  0  0
   58.0107   33.8821   43.5715 H   0  0  0  0  0  0  0  0  0  0  0  0
  1  2  1  0
  2  3  2  0
  3  4  1  0
  4  5  2  0
  5  6  1  0
  5  7  1  0
  7  8  1  0
  8  9  1  0
  9 10  1  0
 10 11  2  0
 11 12  1  0
 12 13  1  0
 13 14  1  0
 13 15  2  0
 15 16  1  0
 16 17  1  0
 16 18  2  0
 18 19  1  0
 19 20  2  0
  7 21  2  0
 21  2  1  0
 20 10  1  0
 19 12  1  0
  1 22  1  0
  1 23  1  0
  1 24  1  0
  3 25  1  0
  4 26  1  0
  6 27  1  0
  6 28  1  0
  6 29  1  0
  9 30  1  0
  9 31  1  0
 11 32  1  0
 14 33  1  0
 14 34  1  0
 14 35  1  0
 15 36  1  0
 17 37  1  0
 17 38  1  0
 17 39  1  0
 18 40  1  0
 21 41  1  0
M  CHG  1  18   1
M  END
>  <UniqueID>  (42) 
39

>  <SMILES>  (42) 
Cc1ccc(C)c(SCc2cn3c(C)cc(C)[nH+]c3n2)c1

>  <Energy>  (42) 
69.34457317273993

>  <Genealogy>  (42) 
Cc1ccc(C)c(SCc2cn3c(C)cc(C)[nH+]c3n2)c1 (protonated)
Cc1ccc(C)c(SCc2cn3c(C)cc(C)[nH+]c3n2)c1 (3D coordinates assigned)
Cc1ccc(C)c(SCc2cn3c(C)cc(C)[nH+]c3n2)c1 (optimized conformer: 69.34457317273993 kcal/mol)

>  <smiles>  (42) 
Cc1ccc(C)c(SCc2cn3c(C)cc(C)nc3n2)c1

>  <score_type>  (42) 
oracle

>  <origin>  (42) 
adg

>  <m_score__min__energy>  (42) 
-6.54

>  <m_primary>  (42) 
energy

$$$$
42:0
     RDKit          3D

 38 40  0  0  0  0  0  0  0  0999 V2000
   57.0510   28.1980   45.5060 C   0  0  0  0  0  0  0  0  0  0  0  0
   56.3320   29.3960   45.2260 O   0  0  0  0  0  0  0  0  0  0  0  0
   56.7940   30.4170   44.3810 C   0  0  0  0  0  0  0  0  0  0  0  0
   56.6510   30.2540   43.0000 C   0  0  0  0  0  0  0  0  0  0  0  0
   57.1310   31.2270   42.1190 C   0  0  0  0  0  0  0  0  0  0  0  0
   57.7600   32.3720   42.6120 C   0  0  0  0  0  0  0  0  0  0  0  0
   57.8960   32.5650   43.9970 C   0  0  0  0  0  0  0  0  0  0  0  0
   58.5980   33.7180   44.5100 N   0  0  0  0  0  0  0  0  0  0  0  0
   58.4710   33.8200   45.9740 C   0  0  0  0  0  0  0  0  0  0  0  0
   59.8140   33.8130   46.6580 C   0  0  0  0  0  0  0  0  0  0  0  0
   60.9680   34.0050   45.9670 N   0  0  0  0  0  0  0  0  0  0  0  0
   61.9200   33.7590   46.8850 C   0  0  0  0  0  0  0  0  0  0  0  0
   63.2990   33.7610   46.6960 C   0  0  0  0  0  0  0  0  0  0  0  0
   64.1110   33.4010   47.7880 C   0  0  0  0  0  0  0  0  0  0  0  0
   63.5280   33.0420   49.0240 C   0  0  0  0  0  0  0  0  0  0  0  0
   62.1290   33.0430   49.1800 C   0  0  0  0  0  0  0  0  0  0  0  0
   61.3560   33.4190   48.0790 C   0  0  0  0  0  0  0  0  0  0  0  0
   60.0180   33.4640   47.9590 N   0  0  0  0  0  0  0  0  0  0  0  0
   59.0310   33.0480   48.9550 C   0  0  0  0  0  0  0  0  0  0  0  0
   57.4020   31.5840   44.8780 C   0  0  0  0  0  0  0  0  0  0  0  0
   57.1311   28.0645   46.5949 H   0  0  0  0  0  0  0  0  0  0  0  0
   56.5183   27.3402   45.0696 H   0  0  0  0  0  0  0  0  0  0  0  0
   58.0585   28.2646   45.0696 H   0  0  0  0  0  0  0  0  0  0  0  0
   56.1575   29.3541   42.6042 H   0  0  0  0  0  0  0  0  0  0  0  0
   57.0129   31.0904   41.0339 H   0  0  0  0  0  0  0  0  0  0  0  0
   58.1507   33.1262   41.9130 H   0  0  0  0  0  0  0  0  0  0  0  0
   59.6130   33.6440   44.2670 H   0  0  0  0  0  0  0  0  0  0  0  0
   58.2400   34.5910   44.0560 H   0  0  0  0  0  0  0  0  0  0  0  0
   57.9513   34.7574   46.2211 H   0  0  0  0  0  0  0  0  0  0  0  0
   57.9043   32.9462   46.3281 H   0  0  0  0  0  0  0  0  0  0  0  0
   63.7395   34.0347   45.7259 H   0  0  0  0  0  0  0  0  0  0  0  0
   65.2055   33.3991   47.6785 H   0  0  0  0  0  0  0  0  0  0  0  0
   64.1718   32.7598   49.8701 H   0  0  0  0  0  0  0  0  0  0  0  0
   61.6616   32.7581   50.1341 H   0  0  0  0  0  0  0  0  0  0  0  0
   59.4344   33.2180   49.9642 H   0  0  0  0  0  0  0  0  0  0  0  0
   58.1093   33.6342   48.8250 H   0  0  0  0  0  0  0  0  0  0  0  0
   58.8070   31.9789   48.8250 H   0  0  0  0  0  0  0  0  0  0  0  0
   57.4923   31.7315   45.9643 H   0  0  0  0  0  0  0  0  0  0  0  0
  1  2  1  0
  2  3  1  0
  3  4  2  0
  4  5  1  0
  5  6  2  0
  6  7  1  0
  7  8  1  0
  8  9  1  0
  9 10  1  0
 10 11  2  0
 11 12  1  0
 12 13  2  0
 13 14  1  0
 14 15  2  0
 15 16  1  0
 16 17  2  0
 17 18  1  0
 18 19  1  0
  7 20  2  0
 20  3  1  0
 18 10  1  0
 17 12  1  0
  1 21  1  0
  1 22  1  0
  1 23  1  0
  4 24  1  0
  5 25  1  0
  6 26  1  0
  8 27  1  0
  8 28  1  0
  9 29  1  0
  9 30  1  0
 13 31  1  0
 14 32  1  0
 15 33  1  0
 16 34  1  0
 19 35  1  0
 19 36  1  0
 19 37  1  0
 20 38  1  0
M  CHG  1   8   1
M  END
>  <UniqueID>  (43) 
40

>  <SMILES>  (43) 
COc1cccc([NH2+]Cc2nc3ccccc3n2C)c1

>  <Energy>  (43) 
75.28976986937481

>  <Genealogy>  (43) 
COc1cccc([NH2+]Cc2nc3ccccc3n2C)c1 (protonated)
COc1cccc([NH2+]Cc2nc3ccccc3n2C)c1 (3D coordinates assigned)
COc1cccc([NH2+]Cc2nc3ccccc3n2C)c1 (optimized conformer: 75.28976986937481 kcal/mol)

>  <smiles>  (43) 
COc1cccc(NCc2nc3ccccc3n2C)c1

>  <score_type>  (43) 
oracle

>  <origin>  (43) 
adg

>  <m_score__min__energy>  (43) 
-6.29

>  <m_primary>  (43) 
energy

$$$$
43:0
     RDKit          3D

 25 26  0  0  0  0  0  0  0  0999 V2000
   56.9428   31.1243   42.9887 H   0  0  0  0  0  0  0  0  0  0  0  0
   56.9980   30.9980   44.0800 C   0  0  0  0  0  0  0  0  0  0  0  0
   56.6650   31.9840   44.8560 N   0  0  0  0  0  0  0  0  0  0  0  0
   57.5930   32.9630   45.3360 C   0  0  0  0  0  0  0  0  0  0  0  0
   58.2230   33.8710   44.5600 N   0  0  0  0  0  0  0  0  0  0  0  0
   58.9930   34.5540   45.4350 C   0  0  0  0  0  0  0  0  0  0  0  0
   59.6617   35.3784   45.1464 H   0  0  0  0  0  0  0  0  0  0  0  0
   58.8510   34.1130   46.7020 N   0  0  0  0  0  0  0  0  0  0  0  0
   59.5950   34.5640   47.8710 C   0  0  0  0  0  0  0  0  0  0  0  0
   59.0707   34.2462   48.7843 H   0  0  0  0  0  0  0  0  0  0  0  0
   60.6035   34.1251   47.8556 H   0  0  0  0  0  0  0  0  0  0  0  0
   59.6724   35.6612   47.8556 H   0  0  0  0  0  0  0  0  0  0  0  0
   57.9780   33.0950   46.6480 C   0  0  0  0  0  0  0  0  0  0  0  0
   57.6354   32.4820   47.4947 H   0  0  0  0  0  0  0  0  0  0  0  0
   57.4510   29.7060   44.6430 C   0  0  0  0  0  0  0  0  0  0  0  0
   58.8230   29.4260   44.7930 C   0  0  0  0  0  0  0  0  0  0  0  0
   59.5698   30.1738   44.4880 H   0  0  0  0  0  0  0  0  0  0  0  0
   59.2420   28.2040   45.3270 C   0  0  0  0  0  0  0  0  0  0  0  0
   60.3158   27.9942   45.4403 H   0  0  0  0  0  0  0  0  0  0  0  0
   58.3010   27.2490   45.7170 C   0  0  0  0  0  0  0  0  0  0  0  0
   58.6335   26.2884   46.1374 H   0  0  0  0  0  0  0  0  0  0  0  0
   56.9380   27.5140   45.5730 C   0  0  0  0  0  0  0  0  0  0  0  0
   56.1983   26.7598   45.8798 H   0  0  0  0  0  0  0  0  0  0  0  0
   56.5080   28.7350   45.0400 C   0  0  0  0  0  0  0  0  0  0  0  0
   55.1440   28.9720   44.9090 O   0  0  0  0  0  0  0  0  0  0  0  0
  1  2  1  0
  2  3  2  0
  3  4  1  0
  4  5  1  0
  5  6  2  0
  6  7  1  0
  6  8  1  0
  8  9  1  0
  9 10  1  0
  9 11  1  0
  9 12  1  0
  8 13  1  0
 13 14  1  0
  2 15  1  0
 15 16  2  0
 16 17  1  0
 16 18  1  0
 18 19  1  0
 18 20  2  0
 20 21  1  0
 20 22  1  0
 22 23  1  0
 22 24  2  0
 24 25  1  0
 13  4  2  0
 24 15  1  0
M  CHG  1  25  -1
M  END
>  <UniqueID>  (44) 
41

>  <SMILES>  (44) 
Cn1cnc(/N=C/c2ccccc2[O-])c1

>  <Energy>  (44) 
54.93056416370704

>  <Genealogy>  (44) 
Cn1cnc(N=Cc2ccccc2[O-])c1 (protonated)
Cn1cnc(/N=C/c2ccccc2[O-])c1 (cis-trans isomerization)
Cn1cnc(/N=C/c2ccccc2[O-])c1 (3D coordinates assigned)
Cn1cnc(/N=C/c2ccccc2[O-])c1 (optimized conformer: 54.93056416370704 kcal/mol)

>  <smiles>  (44) 
Cn1cnc(N=Cc2ccccc2O)c1

>  <score_type>  (44) 
oracle

>  <origin>  (44) 
adg

>  <m_score__min__energy>  (44) 
-9.7799999999999994

>  <m_primary>  (44) 
energy

$$$$
44:0
     RDKit          3D

 26 27  0  0  0  0  0  0  0  0999 V2000
   59.9670   22.6100   45.4260 O   0  0  0  0  0  0  0  0  0  0  0  0
   58.8960   22.6940   44.7890 N   0  0  0  0  0  0  0  0  0  0  0  0
   58.6460   21.7830   43.7890 O   0  0  0  0  0  0  0  0  0  0  0  0
   57.9380   23.7240   45.0960 C   0  0  0  0  0  0  0  0  0  0  0  0
   56.5670   23.4260   45.1830 C   0  0  0  0  0  0  0  0  0  0  0  0
   55.6430   24.4300   45.4830 C   0  0  0  0  0  0  0  0  0  0  0  0
   56.0690   25.7420   45.6970 C   0  0  0  0  0  0  0  0  0  0  0  0
   55.1280   26.7260   45.9820 O   0  0  0  0  0  0  0  0  0  0  0  0
   57.4370   26.0610   45.6100 C   0  0  0  0  0  0  0  0  0  0  0  0
   57.9110   27.4420   45.8540 C   0  0  0  0  0  0  0  0  0  0  0  0
   58.2180   27.8230   47.1720 C   0  0  0  0  0  0  0  0  0  0  0  0
   58.7480   29.0850   47.4420 C   0  0  0  0  0  0  0  0  0  0  0  0
   58.9870   29.9800   46.4000 C   0  0  0  0  0  0  0  0  0  0  0  0
   58.6840   29.6220   45.0860 C   0  0  0  0  0  0  0  0  0  0  0  0
   58.1320   28.3610   44.7940 C   0  0  0  0  0  0  0  0  0  0  0  0
   57.7830   28.0500   43.4320 N   0  0  0  0  0  0  0  0  0  0  0  0
   58.1740   26.9910   42.8990 O   0  0  0  0  0  0  0  0  0  0  0  0
   56.8710   28.8300   42.7590 O   0  0  0  0  0  0  0  0  0  0  0  0
   58.3630   25.0460   45.3150 C   0  0  0  0  0  0  0  0  0  0  0  0
   56.2196   22.3961   45.0138 H   0  0  0  0  0  0  0  0  0  0  0  0
   54.5728   24.1850   45.5510 H   0  0  0  0  0  0  0  0  0  0  0  0
   58.0386   27.1194   47.9983 H   0  0  0  0  0  0  0  0  0  0  0  0
   58.9776   29.3742   48.4782 H   0  0  0  0  0  0  0  0  0  0  0  0
   59.4153   30.9703   46.6143 H   0  0  0  0  0  0  0  0  0  0  0  0
   58.8787   30.3330   44.2696 H   0  0  0  0  0  0  0  0  0  0  0  0
   59.4341   25.2890   45.2547 H   0  0  0  0  0  0  0  0  0  0  0  0
  1  2  2  0
  2  3  1  0
  2  4  1  0
  4  5  2  0
  5  6  1  0
  6  7  2  0
  7  8  1  0
  7  9  1  0
  9 10  1  0
 10 11  2  0
 11 12  1  0
 12 13  2  0
 13 14  1  0
 14 15  2  0
 15 16  1  0
 16 17  2  0
 16 18  1  0
  9 19  2  0
 19  4  1  0
 15 10  1  0
  5 20  1  0
  6 21  1  0
 11 22  1  0
 12 23  1  0
 13 24  1  0
 14 25  1  0
 19 26  1  0
M  CHG  5   2   1   3  -1   8  -1  16   1  18  -1
M  END
>  <UniqueID>  (45) 
42

>  <SMILES>  (45) 
O=[N+]([O-])c1ccc([O-])c(-c2ccccc2[N+](=O)[O-])c1

>  <Energy>  (45) 
40.00094468823876

>  <Genealogy>  (45) 
O=[N+]([O-])c1ccc([O-])c(-c2ccccc2[N+](=O)[O-])c1 (protonated)
O=[N+]([O-])c1ccc([O-])c(-c2ccccc2[N+](=O)[O-])c1 (3D coordinates assigned)
O=[N+]([O-])c1ccc([O-])c(-c2ccccc2[N+](=O)[O-])c1 (optimized conformer: 40.00094468823876 kcal/mol)

>  <smiles>  (45) 
O=[N+]([O-])c1ccc(O)c(-c2ccccc2[N+](=O)[O-])c1

>  <score_type>  (45) 
oracle

>  <origin>  (45) 
adg

>  <m_score__min__energy>  (45) 
-10.24

>  <m_primary>  (45) 
energy

$$$$
45:0
     RDKit          3D

 45 48  0  0  0  0  0  0  0  0999 V2000
   57.5270   26.7320   45.2390 C   0  0  0  0  0  0  0  0  0  0  0  0
   56.6950   27.8380   45.5750 O   0  0  0  0  0  0  0  0  0  0  0  0
   57.0020   29.1780   45.2930 C   0  0  0  0  0  0  0  0  0  0  0  0
   56.3140   29.9130   44.3160 C   0  0  0  0  0  0  0  0  0  0  0  0
   56.6560   31.2390   44.0730 C   0  0  0  0  0  0  0  0  0  0  0  0
   57.6860   31.8570   44.7980 C   0  0  0  0  0  0  0  0  0  0  0  0
   58.0070   33.1870   44.5330 C   0  0  0  0  0  0  0  0  0  0  0  0
   59.0000   33.8280   45.2120 N   0  0  0  0  0  0  0  0  0  0  0  0
   59.2710   35.2340   44.8660 C   0  0  0  0  0  0  0  0  0  0  0  0
   59.7210   33.1700   46.1880 C   0  0  0  0  0  0  0  0  0  0  0  0
   60.7500   33.8190   46.8990 C   0  0  0  0  0  0  0  0  0  0  0  0
   61.4760   33.1510   47.8840 C   0  0  0  0  0  0  0  0  0  0  0  0
   62.4940   33.8090   48.5780 C   0  0  0  0  0  0  0  0  0  0  0  0
   63.2170   33.1430   49.5610 C   0  0  0  0  0  0  0  0  0  0  0  0
   62.9410   31.7990   49.8740 C   0  0  0  0  0  0  0  0  0  0  0  0
   63.6750   31.1310   50.8670 O   0  0  0  0  0  0  0  0  0  0  0  0
   65.0830   31.2390   51.0580 C   0  0  0  0  0  0  0  0  0  0  0  0
   61.9080   31.1200   49.1730 C   0  0  0  0  0  0  0  0  0  0  0  0
   61.5660   29.7750   49.4240 O   0  0  0  0  0  0  0  0  0  0  0  0
   61.2590   29.1910   50.6860 C   0  0  0  0  0  0  0  0  0  0  0  0
   61.1750   31.8090   48.1730 C   0  0  0  0  0  0  0  0  0  0  0  0
   60.1740   31.1820   47.4810 N   0  0  0  0  0  0  0  0  0  0  0  0
   59.4380   31.8090   46.5020 C   0  0  0  0  0  0  0  0  0  0  0  0
   58.3970   31.1410   45.7900 C   0  0  0  0  0  0  0  0  0  0  0  0
   58.0310   29.7890   46.0200 C   0  0  0  0  0  0  0  0  0  0  0  0
   57.8883   26.2517   46.1603 H   0  0  0  0  0  0  0  0  0  0  0  0
   56.9499   26.0051   44.6486 H   0  0  0  0  0  0  0  0  0  0  0  0
   58.3854   27.0849   44.6486 H   0  0  0  0  0  0  0  0  0  0  0  0
   55.5036   29.4403   43.7418 H   0  0  0  0  0  0  0  0  0  0  0  0
   56.1134   31.8091   43.3045 H   0  0  0  0  0  0  0  0  0  0  0  0
   57.4466   33.7315   43.7588 H   0  0  0  0  0  0  0  0  0  0  0  0
   59.3846   35.8232   45.7880 H   0  0  0  0  0  0  0  0  0  0  0  0
   60.1973   35.2944   44.2758 H   0  0  0  0  0  0  0  0  0  0  0  0
   58.4335   35.6344   44.2758 H   0  0  0  0  0  0  0  0  0  0  0  0
   60.9842   34.8698   46.6732 H   0  0  0  0  0  0  0  0  0  0  0  0
   62.7247   34.8591   48.3456 H   0  0  0  0  0  0  0  0  0  0  0  0
   64.0151   33.6734   50.1011 H   0  0  0  0  0  0  0  0  0  0  0  0
   65.3067   31.2562   52.1349 H   0  0  0  0  0  0  0  0  0  0  0  0
   65.5833   30.3766   50.5933 H   0  0  0  0  0  0  0  0  0  0  0  0
   65.4459   32.1676   50.5933 H   0  0  0  0  0  0  0  0  0  0  0  0
   61.6076   29.8541   51.4914 H   0  0  0  0  0  0  0  0  0  0  0  0
   60.1711   29.0518   50.7707 H   0  0  0  0  0  0  0  0  0  0  0  0
   61.7611   28.2160   50.7707 H   0  0  0  0  0  0  0  0  0  0  0  0
   59.9840   30.1920   47.7240 H   0  0  0  0  0  0  0  0  0  0  0  0
   58.5671   29.2089   46.7856 H   0  0  0  0  0  0  0  0  0  0  0  0
  1  2  1  0
  2  3  1  0
  3  4  2  0
  4  5  1  0
  5  6  2  0
  6  7  1  0
  7  8  2  0
  8  9  1  0
  8 10  1  0
 10 11  2  0
 11 12  1  0
 12 13  2  0
 13 14  1  0
 14 15  2  0
 15 16  1  0
 16 17  1  0
 15 18  1  0
 18 19  1  0
 19 20  1  0
 18 21  2  0
 21 22  1  0
 22 23  2  0
 23 24  1  0
 24 25  2  0
 25  3  1  0
 24  6  1  0
 23 10  1  0
 21 12  1  0
  1 26  1  0
  1 27  1  0
  1 28  1  0
  4 29  1  0
  5 30  1  0
  7 31  1  0
  9 32  1  0
  9 33  1  0
  9 34  1  0
 11 35  1  0
 13 36  1  0
 14 37  1  0
 17 38  1  0
 17 39  1  0
 17 40  1  0
 20 41  1  0
 20 42  1  0
 20 43  1  0
 22 44  1  0
 25 45  1  0
M  CHG  2   8   1  22   1
M  END
>  <UniqueID>  (46) 
43

>  <SMILES>  (46) 
COc1ccc2c[n+](C)c3cc4ccc(OC)c(OC)c4[nH+]c3c2c1

>  <Energy>  (46) 
70.98275622362763

>  <Genealogy>  (46) 
COc1ccc2c[n+](C)c3cc4ccc(OC)c(OC)c4[nH+]c3c2c1 (protonated)
COc1ccc2c[n+](C)c3cc4ccc(OC)c(OC)c4[nH+]c3c2c1 (3D coordinates assigned)
COc1ccc2c[n+](C)c3cc4ccc(OC)c(OC)c4[nH+]c3c2c1 (optimized conformer: 70.98275622362763 kcal/mol)

>  <smiles>  (46) 
COc1ccc2c[n+](C)c3cc4ccc(OC)c(OC)c4nc3c2c1

>  <score_type>  (46) 
oracle

>  <origin>  (46) 
adg

>  <m_score__min__energy>  (46) 
-3.77

>  <m_primary>  (46) 
energy

$$$$
46:0
     RDKit          3D

 38 40  0  0  0  0  0  0  0  0999 V2000
   59.1810   32.4970   50.0260 C   0  0  0  0  0  0  0  0  0  0  0  0
   58.6190   32.3500   48.7270 O   0  0  0  0  0  0  0  0  0  0  0  0
   58.9440   33.1950   47.6590 C   0  0  0  0  0  0  0  0  0  0  0  0
   59.2350   34.5080   47.8830 N   0  0  0  0  0  0  0  0  0  0  0  0
   59.5570   35.3570   46.8720 C   0  0  0  0  0  0  0  0  0  0  0  0
   59.5880   34.8960   45.5560 C   0  0  0  0  0  0  0  0  0  0  0  0
   59.2920   33.5580   45.2940 C   0  0  0  0  0  0  0  0  0  0  0  0
   58.9800   32.6850   46.3480 C   0  0  0  0  0  0  0  0  0  0  0  0
   58.6370   31.2720   46.0800 C   0  0  0  0  0  0  0  0  0  0  0  0
   57.3960   30.9850   45.6060 N   0  0  0  0  0  0  0  0  0  0  0  0
   56.9990   29.7150   45.3250 C   0  0  0  0  0  0  0  0  0  0  0  0
   55.7250   29.4750   44.8000 O   0  0  0  0  0  0  0  0  0  0  0  0
   55.3970   29.7160   43.4370 C   0  0  0  0  0  0  0  0  0  0  0  0
   57.8980   28.6560   45.5440 C   0  0  0  0  0  0  0  0  0  0  0  0
   57.5500   27.2860   45.2710 N   0  0  0  0  0  0  0  0  0  0  0  0
   57.9190   26.5920   44.1750 C   0  0  0  0  0  0  0  0  0  0  0  0
   57.4650   25.2930   44.2650 C   0  0  0  0  0  0  0  0  0  0  0  0
   56.8040   25.1890   45.4730 C   0  0  0  0  0  0  0  0  0  0  0  0
   56.8800   26.4310   46.0720 C   0  0  0  0  0  0  0  0  0  0  0  0
   59.1420   28.9420   46.0160 N   0  0  0  0  0  0  0  0  0  0  0  0
   59.5390   30.2100   46.3030 C   0  0  0  0  0  0  0  0  0  0  0  0
   60.9180   30.4210   46.8540 C   0  0  0  0  0  0  0  0  0  0  0  0
   58.4099   32.2953   50.7841 H   0  0  0  0  0  0  0  0  0  0  0  0
   60.0111   31.7858   50.1490 H   0  0  0  0  0  0  0  0  0  0  0  0
   59.5565   33.5236   50.1490 H   0  0  0  0  0  0  0  0  0  0  0  0
   59.7934   36.4086   47.0917 H   0  0  0  0  0  0  0  0  0  0  0  0
   59.8432   35.5802   44.7333 H   0  0  0  0  0  0  0  0  0  0  0  0
   59.3031   33.1862   44.2588 H   0  0  0  0  0  0  0  0  0  0  0  0
   54.5116   30.3665   43.3824 H   0  0  0  0  0  0  0  0  0  0  0  0
   56.2447   30.2077   42.9373 H   0  0  0  0  0  0  0  0  0  0  0  0
   55.1811   28.7601   42.9373 H   0  0  0  0  0  0  0  0  0  0  0  0
   58.4969   27.0017   43.3335 H   0  0  0  0  0  0  0  0  0  0  0  0
   57.6025   24.4954   43.5200 H   0  0  0  0  0  0  0  0  0  0  0  0
   56.3130   24.2922   45.8788 H   0  0  0  0  0  0  0  0  0  0  0  0
   56.4575   26.6855   47.0552 H   0  0  0  0  0  0  0  0  0  0  0  0
   60.8785   30.4150   47.9533 H   0  0  0  0  0  0  0  0  0  0  0  0
   61.5792   29.6136   46.5064 H   0  0  0  0  0  0  0  0  0  0  0  0
   61.3076   31.3892   46.5064 H   0  0  0  0  0  0  0  0  0  0  0  0
  1  2  1  0
  2  3  1  0
  3  4  2  0
  4  5  1  0
  5  6  2  0
  6  7  1  0
  7  8  2  0
  8  9  1  0
  9 10  2  0
 10 11  1  0
 11 12  1  0
 12 13  1  0
 11 14  2  0
 14 15  1  0
 15 16  1  0
 16 17  2  0
 17 18  1  0
 18 19  2  0
 14 20  1  0
 20 21  2  0
 21 22  1  0
  8  3  1  0
 21  9  1  0
 19 15  1  0
  1 23  1  0
  1 24  1  0
  1 25  1  0
  5 26  1  0
  6 27  1  0
  7 28  1  0
 13 29  1  0
 13 30  1  0
 13 31  1  0
 16 32  1  0
 17 33  1  0
 18 34  1  0
 19 35  1  0
 22 36  1  0
 22 37  1  0
 22 38  1  0
M  END
>  <UniqueID>  (47) 
44

>  <SMILES>  (47) 
COc1ncccc1-c1nc(OC)c(-n2cccc2)nc1C

>  <Energy>  (47) 
74.0274297378782

>  <Genealogy>  (47) 
COc1ncccc1-c1nc(OC)c(-n2cccc2)nc1C (3D coordinates assigned)
COc1ncccc1-c1nc(OC)c(-n2cccc2)nc1C (optimized conformer: 74.0274297378782 kcal/mol)

>  <smiles>  (47) 
COc1ncccc1-c1nc(OC)c(-n2cccc2)nc1C

>  <score_type>  (47) 
oracle

>  <origin>  (47) 
adg

>  <m_score__min__energy>  (47) 
-6.4400000000000004

>  <m_primary>  (47) 
energy

$$$$
47:0
     RDKit          3D

 51 55  0  0  0  0  0  0  0  0999 V2000
   59.7500   35.9680   45.7510 C   0  0  0  0  0  0  0  0  0  0  0  0
   59.3440   34.5690   45.6500 N   0  0  0  0  0  0  0  0  0  0  0  0
   58.3980   34.1530   44.8150 N   0  0  0  0  0  0  0  0  0  0  0  0
   58.2820   32.8250   44.9960 C   0  0  0  0  0  0  0  0  0  0  0  0
   57.4250   31.9540   44.3350 C   0  0  0  0  0  0  0  0  0  0  0  0
   57.4850   30.5800   44.6650 C   0  0  0  0  0  0  0  0  0  0  0  0
   58.3960   30.1230   45.6690 C   0  0  0  0  0  0  0  0  0  0  0  0
   59.2590   31.0480   46.3020 C   0  0  0  0  0  0  0  0  0  0  0  0
   59.1590   32.3910   45.9480 C   0  0  0  0  0  0  0  0  0  0  0  0
   59.8430   33.5190   46.3540 C   0  0  0  0  0  0  0  0  0  0  0  0
   60.9060   33.5880   47.3790 C   0  0  0  0  0  0  0  0  0  0  0  0
   62.2160   33.1950   47.0650 C   0  0  0  0  0  0  0  0  0  0  0  0
   63.2230   33.2620   48.0320 C   0  0  0  0  0  0  0  0  0  0  0  0
   62.9310   33.7150   49.3300 C   0  0  0  0  0  0  0  0  0  0  0  0
   63.9180   33.8120   50.3230 O   0  0  0  0  0  0  0  0  0  0  0  0
   64.8990   32.8460   50.5900 C   0  0  0  0  0  0  0  0  0  0  0  0
   66.2690   33.0960   50.3770 C   0  0  0  0  0  0  0  0  0  0  0  0
   67.2140   32.1000   50.6390 C   0  0  0  0  0  0  0  0  0  0  0  0
   66.8020   30.8470   51.1030 C   0  0  0  0  0  0  0  0  0  0  0  0
   65.4430   30.5860   51.2970 C   0  0  0  0  0  0  0  0  0  0  0  0
   64.4950   31.5810   51.0350 C   0  0  0  0  0  0  0  0  0  0  0  0
   61.6300   34.1300   49.6340 C   0  0  0  0  0  0  0  0  0  0  0  0
   60.6210   34.0630   48.6680 C   0  0  0  0  0  0  0  0  0  0  0  0
   58.5120   28.6520   46.0340 C   0  0  0  0  0  0  0  0  0  0  0  0
   58.8580   27.6760   44.8760 C   0  0  0  0  0  0  0  0  0  0  0  0
   57.7370   27.3890   43.9670 N   0  0  0  0  0  0  0  0  0  0  0  0
   57.3120   28.5600   43.1780 C   0  0  0  0  0  0  0  0  0  0  0  0
   56.5450   29.6180   43.9910 C   0  0  0  0  0  0  0  0  0  0  0  0
   59.8320   36.2504   46.8110 H   0  0  0  0  0  0  0  0  0  0  0  0
   60.7245   36.1034   45.2591 H   0  0  0  0  0  0  0  0  0  0  0  0
   58.9994   36.6041   45.2591 H   0  0  0  0  0  0  0  0  0  0  0  0
   56.7193   32.3227   43.5760 H   0  0  0  0  0  0  0  0  0  0  0  0
   59.9897   30.7152   47.0539 H   0  0  0  0  0  0  0  0  0  0  0  0
   62.4514   32.8326   46.0534 H   0  0  0  0  0  0  0  0  0  0  0  0
   64.2489   32.9587   47.7759 H   0  0  0  0  0  0  0  0  0  0  0  0
   66.5959   34.0777   50.0035 H   0  0  0  0  0  0  0  0  0  0  0  0
   68.2835   32.3022   50.4799 H   0  0  0  0  0  0  0  0  0  0  0  0
   67.5477   30.0667   51.3153 H   0  0  0  0  0  0  0  0  0  0  0  0
   65.1185   29.5981   51.6558 H   0  0  0  0  0  0  0  0  0  0  0  0
   63.4255   31.3684   51.1794 H   0  0  0  0  0  0  0  0  0  0  0  0
   61.3992   34.5115   50.6396 H   0  0  0  0  0  0  0  0  0  0  0  0
   59.5995   34.3841   48.9199 H   0  0  0  0  0  0  0  0  0  0  0  0
   59.2989   28.5579   46.7968 H   0  0  0  0  0  0  0  0  0  0  0  0
   57.5086   28.3563   46.3741 H   0  0  0  0  0  0  0  0  0  0  0  0
   59.6747   28.1178   44.2862 H   0  0  0  0  0  0  0  0  0  0  0  0
   59.1353   26.7198   45.3438 H   0  0  0  0  0  0  0  0  0  0  0  0
   56.9280   26.9740   44.4850 H   0  0  0  0  0  0  0  0  0  0  0  0
   58.2087   29.0341   42.7523 H   0  0  0  0  0  0  0  0  0  0  0  0
   56.6214   28.1898   42.4060 H   0  0  0  0  0  0  0  0  0  0  0  0
   55.8833   30.1788   43.3145 H   0  0  0  0  0  0  0  0  0  0  0  0
   55.9620   29.1019   44.7680 H   0  0  0  0  0  0  0  0  0  0  0  0
  1  2  1  0
  2  3  1  0
  3  4  2  0
  4  5  1  0
  5  6  2  0
  6  7  1  0
  7  8  2  0
  8  9  1  0
  9 10  2  0
 10 11  1  0
 11 12  2  0
 12 13  1  0
 13 14  2  0
 14 15  1  0
 15 16  1  0
 16 17  2  0
 17 18  1  0
 18 19  2  0
 19 20  1  0
 20 21  2  0
 14 22  1  0
 22 23  2  0
  7 24  1  0
 24 25  1  0
 25 26  1  0
 26 27  1  0
 27 28  1  0
 10  2  1  0
 23 11  1  0
  9  4  1  0
 21 16  1  0
 28  6  1  0
  1 29  1  0
  1 30  1  0
  1 31  1  0
  5 32  1  0
  8 33  1  0
 12 34  1  0
 13 35  1  0
 17 36  1  0
 18 37  1  0
 19 38  1  0
 20 39  1  0
 21 40  1  0
 22 41  1  0
 23 42  1  0
 24 43  1  0
 24 44  1  0
 25 45  1  0
 25 46  1  0
 26 47  1  0
 27 48  1  0
 27 49  1  0
 28 50  1  0
 28 51  1  0
M  END
>  <UniqueID>  (48) 
45

>  <SMILES>  (48) 
Cn1nc2cc3c(cc2c1-c1ccc(Oc2ccccc2)cc1)CCNCC3

>  <Energy>  (48) 
116.80467488340092

>  <Genealogy>  (48) 
Cn1nc2cc3c(cc2c1-c1ccc(Oc2ccccc2)cc1)CCNCC3 (3D coordinates assigned)
Cn1nc2cc3c(cc2c1-c1ccc(Oc2ccccc2)cc1)CCNCC3 (nonaromatic ring conformer: 116.80467488340092 kcal/mol)

>  <smiles>  (48) 
Cn1nc2cc3c(cc2c1-c1ccc(Oc2ccccc2)cc1)CCNCC3

>  <score_type>  (48) 
oracle

>  <origin>  (48) 
adg

>  <m_score__min__energy>  (48) 
-7.2000000000000002

>  <m_primary>  (48) 
energy

$$$$
48:0
     RDKit          3D

 37 39  0  0  0  0  0  0  0  0999 V2000
   58.0790   23.7110   46.2130 C   0  0  0  0  0  0  0  0  0  0  0  0
   57.8960   25.1480   45.8260 C   0  0  0  0  0  0  0  0  0  0  0  0
   57.9910   25.5360   44.4830 C   0  0  0  0  0  0  0  0  0  0  0  0
   57.7840   26.8690   44.1170 C   0  0  0  0  0  0  0  0  0  0  0  0
   57.4650   27.8380   45.0850 C   0  0  0  0  0  0  0  0  0  0  0  0
   57.2550   29.2100   44.6900 N   0  0  0  0  0  0  0  0  0  0  0  0
   58.0540   29.9890   43.9320 C   0  0  0  0  0  0  0  0  0  0  0  0
   57.4210   31.2070   43.8320 C   0  0  0  0  0  0  0  0  0  0  0  0
   57.8960   32.3850   43.1000 C   0  0  0  0  0  0  0  0  0  0  0  0
   57.7400   32.4490   41.8510 O   0  0  0  0  0  0  0  0  0  0  0  0
   58.5170   33.4280   43.7970 O   0  0  0  0  0  0  0  0  0  0  0  0
   57.8530   34.2120   44.7870 C   0  0  0  0  0  0  0  0  0  0  0  0
   58.4490   33.9550   46.1450 C   0  0  0  0  0  0  0  0  0  0  0  0
   59.4700   34.7870   46.6300 C   0  0  0  0  0  0  0  0  0  0  0  0
   60.0170   34.5670   47.8970 C   0  0  0  0  0  0  0  0  0  0  0  0
   59.5440   33.5160   48.6890 C   0  0  0  0  0  0  0  0  0  0  0  0
   58.5250   32.6860   48.2160 C   0  0  0  0  0  0  0  0  0  0  0  0
   57.9760   32.9040   46.9480 C   0  0  0  0  0  0  0  0  0  0  0  0
   56.2640   31.1470   44.5190 N   0  0  0  0  0  0  0  0  0  0  0  0
   56.1900   29.9260   45.0270 N   0  0  0  0  0  0  0  0  0  0  0  0
   57.3510   27.4370   46.4300 C   0  0  0  0  0  0  0  0  0  0  0  0
   57.5580   26.1030   46.7940 C   0  0  0  0  0  0  0  0  0  0  0  0
   58.0899   23.6251   47.3096 H   0  0  0  0  0  0  0  0  0  0  0  0
   57.2497   23.1134   45.8067 H   0  0  0  0  0  0  0  0  0  0  0  0
   59.0316   23.3403   45.8067 H   0  0  0  0  0  0  0  0  0  0  0  0
   58.2297   24.7878   43.7128 H   0  0  0  0  0  0  0  0  0  0  0  0
   57.8715   27.1632   43.0607 H   0  0  0  0  0  0  0  0  0  0  0  0
   59.0182   29.7072   43.4837 H   0  0  0  0  0  0  0  0  0  0  0  0
   57.9624   35.2780   44.5388 H   0  0  0  0  0  0  0  0  0  0  0  0
   56.7883   33.9362   44.8061 H   0  0  0  0  0  0  0  0  0  0  0  0
   59.8414   35.6162   46.0099 H   0  0  0  0  0  0  0  0  0  0  0  0
   60.8191   35.2202   48.2711 H   0  0  0  0  0  0  0  0  0  0  0  0
   59.9751   33.3427   49.6860 H   0  0  0  0  0  0  0  0  0  0  0  0
   58.1540   31.8604   48.8410 H   0  0  0  0  0  0  0  0  0  0  0  0
   57.1718   32.2507   46.5787 H   0  0  0  0  0  0  0  0  0  0  0  0
   57.0970   28.1795   47.2008 H   0  0  0  0  0  0  0  0  0  0  0  0
   57.4549   25.8014   47.8468 H   0  0  0  0  0  0  0  0  0  0  0  0
  1  2  1  0
  2  3  2  0
  3  4  1  0
  4  5  2  0
  5  6  1  0
  6  7  1  0
  7  8  2  0
  8  9  1  0
  9 10  2  0
  9 11  1  0
 11 12  1  0
 12 13  1  0
 13 14  2  0
 14 15  1  0
 15 16  2  0
 16 17  1  0
 17 18  2  0
  8 19  1  0
 19 20  2  0
  5 21  1  0
 21 22  2  0
 22  2  1  0
 20  6  1  0
 18 13  1  0
  1 23  1  0
  1 24  1  0
  1 25  1  0
  3 26  1  0
  4 27  1  0
  7 28  1  0
 12 29  1  0
 12 30  1  0
 14 31  1  0
 15 32  1  0
 16 33  1  0
 17 34  1  0
 18 35  1  0
 21 36  1  0
 22 37  1  0
M  END
>  <UniqueID>  (49) 
46

>  <SMILES>  (49) 
Cc1ccc(-n2cc(C(=O)OCc3ccccc3)nn2)cc1

>  <Energy>  (49) 
73.06319799825528

>  <Genealogy>  (49) 
Cc1ccc(-n2cc(C(=O)OCc3ccccc3)nn2)cc1 (3D coordinates assigned)
Cc1ccc(-n2cc(C(=O)OCc3ccccc3)nn2)cc1 (optimized conformer: 73.06319799825528 kcal/mol)

>  <smiles>  (49) 
Cc1ccc(-n2cc(C(=O)OCc3ccccc3)nn2)cc1

>  <score_type>  (49) 
oracle

>  <origin>  (49) 
adg

>  <m_score__min__energy>  (49) 
-7.7400000000000002

>  <m_primary>  (49) 
energy

$$$$
