0:0
     RDKit          3D

 86 90  0  0  0  0  0  0  0  0999 V2000
   63.1080   33.7490   50.7580 C   0  0  0  0  0  0  0  0  0  0  0  0
   62.7040   33.6130   49.2790 C   0  0  0  0  0  0  0  0  0  0  0  0
   62.5860   32.2160   48.7980 N   0  0  0  0  0  0  0  0  0  0  0  0
   63.2180   31.9410   47.4850 C   0  0  0  0  0  0  0  0  0  0  0  0
   63.7030   33.1890   46.7420 C   0  0  0  0  0  0  0  0  0  0  0  0
   62.7470   31.1730   49.8340 C   0  0  0  0  0  0  0  0  0  0  0  0
   61.6280   30.1210   49.7480 C   0  0  0  0  0  0  0  0  0  0  0  0
   60.7040   30.4170   48.6420 N   0  0  0  0  0  0  0  0  0  0  0  0
   60.0240   29.2130   48.2280 C   0  0  0  0  0  0  0  0  0  0  0  0
   58.6620   29.2400   47.8830 C   0  0  0  0  0  0  0  0  0  0  0  0
   58.0000   28.0650   47.5160 C   0  0  0  0  0  0  0  0  0  0  0  0
   58.6810   26.8360   47.5200 C   0  0  0  0  0  0  0  0  0  0  0  0
   57.9660   25.5790   47.2040 C   0  0  0  0  0  0  0  0  0  0  0  0
   57.5290   24.8510   48.1370 O   0  0  0  0  0  0  0  0  0  0  0  0
   57.7610   25.1540   45.8030 C   0  0  0  0  0  0  0  0  0  0  0  0
   57.6500   26.0380   44.7090 C   0  0  0  0  0  0  0  0  0  0  0  0
   57.7960   27.5160   44.6960 C   0  0  0  0  0  0  0  0  0  0  0  0
   59.0410   28.1340   44.4820 C   0  0  0  0  0  0  0  0  0  0  0  0
   59.1380   29.5290   44.3990 C   0  0  0  0  0  0  0  0  0  0  0  0
   57.9900   30.3300   44.4830 C   0  0  0  0  0  0  0  0  0  0  0  0
   58.1100   31.7950   44.3240 C   0  0  0  0  0  0  0  0  0  0  0  0
   57.7260   32.6450   45.2870 C   0  0  0  0  0  0  0  0  0  0  0  0
   58.2470   34.0210   45.4420 C   0  0  0  0  0  0  0  0  0  0  0  0
   57.6260   34.9580   44.8730 O   0  0  0  0  0  0  0  0  0  0  0  0
   59.4340   34.3660   46.3030 C   0  0  0  0  0  0  0  0  0  0  0  0
   59.7100   33.3130   47.3460 C   0  0  0  0  0  0  0  0  0  0  0  0
   60.0210   32.1440   46.9930 O   0  0  0  0  0  0  0  0  0  0  0  0
   59.5530   33.6190   48.7830 C   0  0  0  0  0  0  0  0  0  0  0  0
   59.6440   34.8140   49.1750 O   0  0  0  0  0  0  0  0  0  0  0  0
   59.3510   32.5880   49.7600 N   0  0  0  0  0  0  0  0  0  0  0  0
   59.1200   32.7720   51.1670 C   0  0  0  0  0  0  0  0  0  0  0  0
   59.7010   33.8630   51.8430 C   0  0  0  0  0  0  0  0  0  0  0  0
   59.4790   34.0550   53.2060 C   0  0  0  0  0  0  0  0  0  0  0  0
   58.6860   33.1570   53.9170 C   0  0  0  0  0  0  0  0  0  0  0  0
   58.1360   32.0480   53.2730 C   0  0  0  0  0  0  0  0  0  0  0  0
   58.3530   31.8290   51.8980 C   0  0  0  0  0  0  0  0  0  0  0  0
   57.7790   30.6620   51.2720 N   0  0  0  0  0  0  0  0  0  0  0  0
   58.4500   29.9510   50.4940 O   0  0  0  0  0  0  0  0  0  0  0  0
   56.5210   30.2340   51.6250 O   0  0  0  0  0  0  0  0  0  0  0  0
   56.7460   29.7150   44.7050 C   0  0  0  0  0  0  0  0  0  0  0  0
   56.6520   28.3250   44.8110 C   0  0  0  0  0  0  0  0  0  0  0  0
   57.3850   25.1210   43.3070 S   0  0  0  0  0  0  0  0  0  0  0  0
   57.4070   23.6300   44.0610 C   0  0  0  0  0  0  0  0  0  0  0  0
   57.2250   22.3780   43.4820 C   0  0  0  0  0  0  0  0  0  0  0  0
   57.2580   21.2520   44.3170 C   0  0  0  0  0  0  0  0  0  0  0  0
   57.4630   21.4000   45.7010 C   0  0  0  0  0  0  0  0  0  0  0  0
   57.6340   22.6750   46.2620 C   0  0  0  0  0  0  0  0  0  0  0  0
   57.6170   23.8010   45.4220 C   0  0  0  0  0  0  0  0  0  0  0  0
   60.0460   26.8110   47.8540 C   0  0  0  0  0  0  0  0  0  0  0  0
   60.7120   27.9890   48.1980 C   0  0  0  0  0  0  0  0  0  0  0  0
   62.2598   33.4635   51.3975 H   0  0  0  0  0  0  0  0  0  0  0  0
   63.9630   33.0892   50.9667 H   0  0  0  0  0  0  0  0  0  0  0  0
   63.3899   34.7916   50.9667 H   0  0  0  0  0  0  0  0  0  0  0  0
   61.7304   34.1064   49.1424 H   0  0  0  0  0  0  0  0  0  0  0  0
   63.5093   34.0782   48.6916 H   0  0  0  0  0  0  0  0  0  0  0  0
   64.0828   31.2817   47.6509 H   0  0  0  0  0  0  0  0  0  0  0  0
   62.4430   31.4816   46.8539 H   0  0  0  0  0  0  0  0  0  0  0  0
   64.0014   33.9569   47.4709 H   0  0  0  0  0  0  0  0  0  0  0  0
   64.5651   32.9280   46.1107 H   0  0  0  0  0  0  0  0  0  0  0  0
   62.8908   33.5787   46.1107 H   0  0  0  0  0  0  0  0  0  0  0  0
   63.7179   30.6754   49.6934 H   0  0  0  0  0  0  0  0  0  0  0  0
   62.6952   31.6544   50.8217 H   0  0  0  0  0  0  0  0  0  0  0  0
   62.0782   29.1308   49.5843 H   0  0  0  0  0  0  0  0  0  0  0  0
   61.0606   30.1379   50.6902 H   0  0  0  0  0  0  0  0  0  0  0  0
   61.2330   30.8000   47.8250 H   0  0  0  0  0  0  0  0  0  0  0  0
   60.0090   31.1400   48.9500 H   0  0  0  0  0  0  0  0  0  0  0  0
   58.1128   30.1929   47.9019 H   0  0  0  0  0  0  0  0  0  0  0  0
   56.9405   28.1026   47.2226 H   0  0  0  0  0  0  0  0  0  0  0  0
   59.9459   27.5171   44.3790 H   0  0  0  0  0  0  0  0  0  0  0  0
   60.1231   30.0002   44.2668 H   0  0  0  0  0  0  0  0  0  0  0  0
   58.5261   32.1989   43.3893 H   0  0  0  0  0  0  0  0  0  0  0  0
   56.9737   32.2963   46.0098 H   0  0  0  0  0  0  0  0  0  0  0  0
   60.3203   34.4672   45.6594 H   0  0  0  0  0  0  0  0  0  0  0  0
   59.2079   35.3067   46.8264 H   0  0  0  0  0  0  0  0  0  0  0  0
   60.3362   34.5705   51.2899 H   0  0  0  0  0  0  0  0  0  0  0  0
   59.9304   34.9162   53.7204 H   0  0  0  0  0  0  0  0  0  0  0  0
   58.4932   33.3224   54.9873 H   0  0  0  0  0  0  0  0  0  0  0  0
   57.5249   31.3353   53.8463 H   0  0  0  0  0  0  0  0  0  0  0  0
   55.8400   30.3322   44.7959 H   0  0  0  0  0  0  0  0  0  0  0  0
   55.6715   27.8582   44.9865 H   0  0  0  0  0  0  0  0  0  0  0  0
   57.0598   22.2744   42.3994 H   0  0  0  0  0  0  0  0  0  0  0  0
   57.1230   20.2482   43.8879 H   0  0  0  0  0  0  0  0  0  0  0  0
   57.4894   20.5105   46.3476 H   0  0  0  0  0  0  0  0  0  0  0  0
   57.7796   22.7913   47.3461 H   0  0  0  0  0  0  0  0  0  0  0  0
   60.5934   25.8569   47.8443 H   0  0  0  0  0  0  0  0  0  0  0  0
   61.7830   27.9581   48.4472 H   0  0  0  0  0  0  0  0  0  0  0  0
  1  2  1  0
  2  3  1  0
  3  4  1  0
  4  5  1  0
  3  6  1  0
  6  7  1  0
  7  8  1  0
  8  9  1  0
  9 10  2  0
 10 11  1  0
 11 12  2  0
 12 13  1  0
 13 14  2  0
 13 15  1  0
 15 16  2  0
 16 17  1  0
 17 18  2  0
 18 19  1  0
 19 20  2  0
 20 21  1  0
 21 22  2  3
 22 23  1  0
 23 24  2  0
 23 25  1  0
 25 26  1  0
 26 27  2  0
 26 28  1  0
 28 29  2  0
 28 30  1  0
 30 31  1  0
 31 32  2  0
 32 33  1  0
 33 34  2  0
 34 35  1  0
 35 36  2  0
 36 37  1  0
 37 38  2  0
 37 39  1  0
 20 40  1  0
 40 41  2  0
 16 42  1  0
 42 43  1  0
 43 44  2  0
 44 45  1  0
 45 46  2  0
 46 47  1  0
 47 48  2  0
 12 49  1  0
 49 50  2  0
 50  9  1  0
 48 15  1  0
 41 17  1  0
 48 43  1  0
 36 31  1  0
  1 51  1  0
  1 52  1  0
  1 53  1  0
  2 54  1  0
  2 55  1  0
  4 56  1  0
  4 57  1  0
  5 58  1  0
  5 59  1  0
  5 60  1  0
  6 61  1  0
  6 62  1  0
  7 63  1  0
  7 64  1  0
  8 65  1  0
  8 66  1  0
 10 67  1  0
 11 68  1  0
 18 69  1  0
 19 70  1  0
 21 71  1  0
 22 72  1  0
 25 73  1  0
 25 74  1  0
 32 75  1  0
 33 76  1  0
 34 77  1  0
 35 78  1  0
 40 79  1  0
 41 80  1  0
 44 81  1  0
 45 82  1  0
 46 83  1  0
 47 84  1  0
 49 85  1  0
 50 86  1  0
M  CHG  4   8   1  30  -1  37   1  39  -1
M  END
>  <UniqueID>  (1) 
1

>  <SMILES>  (1) 
CCN(CC)CC[NH2+]c1ccc(C(=O)c2c(-c3ccc(C=CC(=O)CC(=O)C(=O)[N-]c4ccccc4[N+](=O)[O-])cc3)sc3ccccc23)cc1

>  <Energy>  (1) 
154.02769823983328

>  <Genealogy>  (1) 
CCN(CC)CC[NH2+]c1ccc(C(=O)c2c(-c3ccc(C=CC(=O)CC(=O)C(=O)[N-]c4ccccc4[N+](=O)[O-])cc3)sc3ccccc23)cc1 (protonated)
CCN(CC)CC[NH2+]c1ccc(C(=O)c2c(-c3ccc(C=CC(=O)CC(=O)C(=O)[N-]c4ccccc4[N+](=O)[O-])cc3)sc3ccccc23)cc1 (3D coordinates assigned)
CCN(CC)CC[NH2+]c1ccc(C(=O)c2c(-c3ccc(C=CC(=O)CC(=O)C(=O)[N-]c4ccccc4[N+](=O)[O-])cc3)sc3ccccc23)cc1 (optimized conformer: 154.02769823983328 kcal/mol)

>  <smiles>  (1) 
CCN(CC)CCNc1ccc(C(=O)c2c(-c3ccc(C=CC(=O)CC(=O)C(=O)Nc4ccccc4[N+](=O)[O-])cc3)sc3ccccc23)cc1

>  <score_type>  (1) 
oracle

>  <origin>  (1) 
adg

>  <m_score__min__energy>  (1) 
-13.34

>  <m_primary>  (1) 
energy

$$$$
1:0
     RDKit          3D

 58 61  0  0  0  0  0  0  0  0999 V2000
   61.8390   28.6620   51.1550 C   0  0  0  0  0  0  0  0  0  0  0  0
   60.5530   28.6260   50.5450 O   0  0  0  0  0  0  0  0  0  0  0  0
   59.8720   29.7520   50.0500 C   0  0  0  0  0  0  0  0  0  0  0  0
   59.5300   29.8710   48.6930 C   0  0  0  0  0  0  0  0  0  0  0  0
   58.8730   31.0110   48.2180 C   0  0  0  0  0  0  0  0  0  0  0  0
   58.5170   31.1470   46.7870 C   0  0  0  0  0  0  0  0  0  0  0  0
   57.9010   30.1670   46.0790 N   0  0  0  0  0  0  0  0  0  0  0  0
   57.7550   30.7010   44.8490 C   0  0  0  0  0  0  0  0  0  0  0  0
   57.1340   30.0800   43.7670 C   0  0  0  0  0  0  0  0  0  0  0  0
   57.0140   30.8130   42.5750 C   0  0  0  0  0  0  0  0  0  0  0  0
   57.4970   32.1320   42.5000 C   0  0  0  0  0  0  0  0  0  0  0  0
   58.1100   32.7080   43.6220 C   0  0  0  0  0  0  0  0  0  0  0  0
   58.2340   31.9550   44.7470 N   0  0  0  0  0  0  0  0  0  0  0  0
   58.7330   32.2460   45.9600 C   0  0  0  0  0  0  0  0  0  0  0  0
   59.2100   33.5350   46.3650 N   0  0  0  0  0  0  0  0  0  0  0  0
   60.3280   34.1800   45.6780 C   0  0  0  0  0  0  0  0  0  0  0  0
   61.6450   33.9150   46.4090 C   0  0  0  0  0  0  0  0  0  0  0  0
   61.4050   33.0660   47.6030 N   0  0  0  0  0  0  0  0  0  0  0  0
   62.2530   31.8530   47.6260 C   0  0  0  0  0  0  0  0  0  0  0  0
   63.6020   32.0930   48.3350 C   0  0  0  0  0  0  0  0  0  0  0  0
   63.9270   33.4670   48.3430 O   0  0  0  0  0  0  0  0  0  0  0  0
   63.0140   34.1750   49.1640 C   0  0  0  0  0  0  0  0  0  0  0  0
   61.5380   33.8180   48.8660 C   0  0  0  0  0  0  0  0  0  0  0  0
   58.5160   32.0200   49.1210 C   0  0  0  0  0  0  0  0  0  0  0  0
   58.8400   31.9190   50.4880 C   0  0  0  0  0  0  0  0  0  0  0  0
   58.4820   32.9370   51.3870 O   0  0  0  0  0  0  0  0  0  0  0  0
   59.3930   33.8320   52.0160 C   0  0  0  0  0  0  0  0  0  0  0  0
   59.5340   30.7730   50.9530 C   0  0  0  0  0  0  0  0  0  0  0  0
   59.9170   30.5820   52.2950 O   0  0  0  0  0  0  0  0  0  0  0  0
   59.0520   30.4940   53.4210 C   0  0  0  0  0  0  0  0  0  0  0  0
   61.7260   28.6588   52.2492 H   0  0  0  0  0  0  0  0  0  0  0  0
   62.4174   27.7797   50.8435 H   0  0  0  0  0  0  0  0  0  0  0  0
   62.3671   29.5753   50.8435 H   0  0  0  0  0  0  0  0  0  0  0  0
   59.7817   29.0584   47.9956 H   0  0  0  0  0  0  0  0  0  0  0  0
   56.7512   29.0516   43.8438 H   0  0  0  0  0  0  0  0  0  0  0  0
   56.5398   30.3532   41.6954 H   0  0  0  0  0  0  0  0  0  0  0  0
   57.3946   32.7074   41.5681 H   0  0  0  0  0  0  0  0  0  0  0  0
   58.4812   33.7431   43.5926 H   0  0  0  0  0  0  0  0  0  0  0  0
   59.0180   33.8340   47.3470 H   0  0  0  0  0  0  0  0  0  0  0  0
   60.3984   33.7837   44.6543 H   0  0  0  0  0  0  0  0  0  0  0  0
   60.1493   35.2652   45.6589 H   0  0  0  0  0  0  0  0  0  0  0  0
   62.3404   33.3996   45.7302 H   0  0  0  0  0  0  0  0  0  0  0  0
   62.0770   34.8741   46.7307 H   0  0  0  0  0  0  0  0  0  0  0  0
   61.7128   31.0541   48.1552 H   0  0  0  0  0  0  0  0  0  0  0  0
   62.4665   31.5728   46.5839 H   0  0  0  0  0  0  0  0  0  0  0  0
   63.5335   31.7326   49.3720 H   0  0  0  0  0  0  0  0  0  0  0  0
   64.3878   31.5481   47.7913 H   0  0  0  0  0  0  0  0  0  0  0  0
   63.2282   33.9349   50.2159 H   0  0  0  0  0  0  0  0  0  0  0  0
   63.1439   35.2472   48.9555 H   0  0  0  0  0  0  0  0  0  0  0  0
   61.1459   33.2038   49.6901 H   0  0  0  0  0  0  0  0  0  0  0  0
   60.9701   34.7552   48.7697 H   0  0  0  0  0  0  0  0  0  0  0  0
   57.9740   32.9053   48.7570 H   0  0  0  0  0  0  0  0  0  0  0  0
   59.3008   33.7414   53.1084 H   0  0  0  0  0  0  0  0  0  0  0  0
   60.4205   33.5824   51.7128 H   0  0  0  0  0  0  0  0  0  0  0  0
   59.1617   34.8638   51.7128 H   0  0  0  0  0  0  0  0  0  0  0  0
   59.6457   30.5544   54.3451 H   0  0  0  0  0  0  0  0  0  0  0  0
   58.3298   31.3233   53.3943 H   0  0  0  0  0  0  0  0  0  0  0  0
   58.5116   29.5362   53.3943 H   0  0  0  0  0  0  0  0  0  0  0  0
  1  2  1  0
  2  3  1  0
  3  4  2  0
  4  5  1  0
  5  6  1  0
  6  7  1  0
  7  8  2  0
  8  9  1  0
  9 10  2  0
 10 11  1  0
 11 12  2  0
 12 13  1  0
 13 14  1  0
 14 15  1  0
 15 16  1  0
 16 17  1  0
 17 18  1  0
 18 19  1  0
 19 20  1  0
 20 21  1  0
 21 22  1  0
 22 23  1  0
  5 24  2  0
 24 25  1  0
 25 26  1  0
 26 27  1  0
 25 28  2  0
 28 29  1  0
 29 30  1  0
 28  3  1  0
 14  6  2  0
 23 18  1  0
 13  8  1  0
  1 31  1  0
  1 32  1  0
  1 33  1  0
  4 34  1  0
  9 35  1  0
 10 36  1  0
 11 37  1  0
 12 38  1  0
 15 39  1  0
 16 40  1  0
 16 41  1  0
 17 42  1  0
 17 43  1  0
 19 44  1  0
 19 45  1  0
 20 46  1  0
 20 47  1  0
 22 48  1  0
 22 49  1  0
 23 50  1  0
 23 51  1  0
 24 52  1  0
 27 53  1  0
 27 54  1  0
 27 55  1  0
 30 56  1  0
 30 57  1  0
 30 58  1  0
M  END
>  <UniqueID>  (2) 
2

>  <SMILES>  (2) 
COc1cc(-c2nc3ccccn3c2NCCN2CCOCC2)cc(OC)c1OC

>  <Energy>  (2) 
114.97158249842445

>  <Genealogy>  (2) 
COc1cc(-c2nc3ccccn3c2NCCN2CCOCC2)cc(OC)c1OC (3D coordinates assigned)
COc1cc(-c2nc3ccccn3c2NCCN2CCOCC2)cc(OC)c1OC (nonaromatic ring conformer: 114.97158249842445 kcal/mol)

>  <smiles>  (2) 
COc1cc(-c2nc3ccccn3c2NCCN2CCOCC2)cc(OC)c1OC

>  <score_type>  (2) 
oracle

>  <origin>  (2) 
adg

>  <m_score__min__energy>  (2) 
-6.7800000000000002

>  <m_primary>  (2) 
energy

$$$$
2:0
     RDKit          3D

 45 47  0  0  0  0  0  0  0  0999 V2000
   55.7190   25.3250   45.6540 C   0  0  0  0  0  0  0  0  0  0  0  0
   56.2620   26.6030   45.9670 O   0  0  0  0  0  0  0  0  0  0  0  0
   57.6250   26.8550   46.1950 C   0  0  0  0  0  0  0  0  0  0  0  0
   58.2420   26.5470   47.4240 C   0  0  0  0  0  0  0  0  0  0  0  0
   59.5960   26.8250   47.6270 C   0  0  0  0  0  0  0  0  0  0  0  0
   60.3480   27.4180   46.6130 C   0  0  0  0  0  0  0  0  0  0  0  0
   59.7520   27.7290   45.3900 C   0  0  0  0  0  0  0  0  0  0  0  0
   58.3960   27.4370   45.1650 C   0  0  0  0  0  0  0  0  0  0  0  0
   57.7650   27.8190   43.8520 C   0  0  0  0  0  0  0  0  0  0  0  0
   57.7350   29.2760   43.7270 N   0  0  0  0  0  0  0  0  0  0  0  0
   56.7050   30.0940   44.3010 C   0  0  0  0  0  0  0  0  0  0  0  0
   55.7140   29.5650   44.8740 O   0  0  0  0  0  0  0  0  0  0  0  0
   56.7790   31.5900   44.1830 C   0  0  0  0  0  0  0  0  0  0  0  0
   58.1940   32.1340   44.4360 C   0  0  0  0  0  0  0  0  0  0  0  0
   58.4010   32.6930   45.8540 C   0  0  0  0  0  0  0  0  0  0  0  0
   59.5020   32.0190   46.5470 N   0  0  0  0  0  0  0  0  0  0  0  0
   59.4870   30.7980   47.1420 C   0  0  0  0  0  0  0  0  0  0  0  0
   58.4820   30.0380   47.1540 O   0  0  0  0  0  0  0  0  0  0  0  0
   60.6400   30.4800   47.7060 O   0  0  0  0  0  0  0  0  0  0  0  0
   61.4350   31.4990   47.4800 C   0  0  0  0  0  0  0  0  0  0  0  0
   62.7610   31.6640   47.8650 C   0  0  0  0  0  0  0  0  0  0  0  0
   63.4060   32.8570   47.4900 C   0  0  0  0  0  0  0  0  0  0  0  0
   62.7160   33.8400   46.7450 C   0  0  0  0  0  0  0  0  0  0  0  0
   61.3750   33.6410   46.3690 C   0  0  0  0  0  0  0  0  0  0  0  0
   60.7590   32.4520   46.7670 C   0  0  0  0  0  0  0  0  0  0  0  0
   55.4899   24.7859   46.5851 H   0  0  0  0  0  0  0  0  0  0  0  0
   54.7971   25.4520   45.0675 H   0  0  0  0  0  0  0  0  0  0  0  0
   56.4503   24.7495   45.0675 H   0  0  0  0  0  0  0  0  0  0  0  0
   57.6531   26.0842   48.2296 H   0  0  0  0  0  0  0  0  0  0  0  0
   60.0697   26.5758   48.5880 H   0  0  0  0  0  0  0  0  0  0  0  0
   61.4125   27.6409   46.7775 H   0  0  0  0  0  0  0  0  0  0  0  0
   60.3474   28.2056   44.5973 H   0  0  0  0  0  0  0  0  0  0  0  0
   58.3529   27.3928   43.0257 H   0  0  0  0  0  0  0  0  0  0  0  0
   56.7376   27.4280   43.8132 H   0  0  0  0  0  0  0  0  0  0  0  0
   58.5350   29.7400   43.2400 H   0  0  0  0  0  0  0  0  0  0  0  0
   56.4666   31.8792   43.1687 H   0  0  0  0  0  0  0  0  0  0  0  0
   56.1159   32.0177   44.9494 H   0  0  0  0  0  0  0  0  0  0  0  0
   58.9130   31.3168   44.2772 H   0  0  0  0  0  0  0  0  0  0  0  0
   58.3450   32.9701   43.7373 H   0  0  0  0  0  0  0  0  0  0  0  0
   58.6281   33.7670   45.7841 H   0  0  0  0  0  0  0  0  0  0  0  0
   57.4785   32.5216   46.4281 H   0  0  0  0  0  0  0  0  0  0  0  0
   63.2870   30.8893   48.4422 H   0  0  0  0  0  0  0  0  0  0  0  0
   64.4540   33.0256   47.7785 H   0  0  0  0  0  0  0  0  0  0  0  0
   63.2315   34.7680   46.4569 H   0  0  0  0  0  0  0  0  0  0  0  0
   60.8305   34.3953   45.7821 H   0  0  0  0  0  0  0  0  0  0  0  0
  1  2  1  0
  2  3  1  0
  3  4  2  0
  4  5  1  0
  5  6  2  0
  6  7  1  0
  7  8  2  0
  8  9  1  0
  9 10  1  0
 10 11  1  0
 11 12  2  0
 11 13  1  0
 13 14  1  0
 14 15  1  0
 15 16  1  0
 16 17  1  0
 17 18  2  0
 17 19  1  0
 19 20  1  0
 20 21  2  0
 21 22  1  0
 22 23  2  0
 23 24  1  0
 24 25  2  0
  8  3  1  0
 25 16  1  0
 25 20  1  0
  1 26  1  0
  1 27  1  0
  1 28  1  0
  4 29  1  0
  5 30  1  0
  6 31  1  0
  7 32  1  0
  9 33  1  0
  9 34  1  0
 10 35  1  0
 13 36  1  0
 13 37  1  0
 14 38  1  0
 14 39  1  0
 15 40  1  0
 15 41  1  0
 21 42  1  0
 22 43  1  0
 23 44  1  0
 24 45  1  0
M  END
>  <UniqueID>  (3) 
3

>  <SMILES>  (3) 
COc1ccccc1CNC(=O)CCCn1c(=O)oc2ccccc21

>  <Energy>  (3) 
79.64273486461275

>  <Genealogy>  (3) 
COc1ccccc1CNC(=O)CCCn1c(=O)oc2ccccc21 (3D coordinates assigned)
COc1ccccc1CNC(=O)CCCn1c(=O)oc2ccccc21 (optimized conformer: 79.64273486461275 kcal/mol)

>  <smiles>  (3) 
COc1ccccc1CNC(=O)CCCn1c(=O)oc2ccccc21

>  <score_type>  (3) 
oracle

>  <origin>  (3) 
adg

>  <m_score__min__energy>  (3) 
-7.6100000000000003

>  <m_primary>  (3) 
energy

$$$$
3:0
     RDKit          3D

 45 48  0  0  0  0  0  0  0  0999 V2000
   59.6171   32.1554   45.8379 H   0  0  0  0  0  0  0  0  0  0  0  0
   58.8720   31.3570   45.7060 C   0  0  0  0  0  0  0  0  0  0  0  0
   59.1890   30.0360   46.0550 C   0  0  0  0  0  0  0  0  0  0  0  0
   60.1789   29.7781   46.4595 H   0  0  0  0  0  0  0  0  0  0  0  0
   58.2150   29.0650   45.8740 C   0  0  0  0  0  0  0  0  0  0  0  0
   58.2760   27.4200   46.1910 S   0  0  0  0  0  0  0  0  0  0  0  0
   56.6830   27.1890   45.6560 C   0  0  0  0  0  0  0  0  0  0  0  0
   56.0040   25.8860   45.6430 C   0  0  0  0  0  0  0  0  0  0  0  0
   54.7020   25.7380   45.6610 O   0  0  0  0  0  0  0  0  0  0  0  0
   54.4620   24.4450   45.6440 C   0  0  0  0  0  0  0  0  0  0  0  0
   53.0910   23.8610   45.6320 C   0  0  0  0  0  0  0  0  0  0  0  0
   52.7460   23.7140   46.6661 H   0  0  0  0  0  0  0  0  0  0  0  0
   52.4055   24.5452   45.1105 H   0  0  0  0  0  0  0  0  0  0  0  0
   53.1095   22.8926   45.1105 H   0  0  0  0  0  0  0  0  0  0  0  0
   55.5880   23.6990   45.6060 N   0  0  0  0  0  0  0  0  0  0  0  0
   56.5690   24.6230   45.6080 C   0  0  0  0  0  0  0  0  0  0  0  0
   58.0240   24.2840   45.5730 C   0  0  0  0  0  0  0  0  0  0  0  0
   58.4047   24.1953   46.6012 H   0  0  0  0  0  0  0  0  0  0  0  0
   58.1654   23.3289   45.0460 H   0  0  0  0  0  0  0  0  0  0  0  0
   58.5730   25.0783   45.0460 H   0  0  0  0  0  0  0  0  0  0  0  0
   56.1090   28.3450   45.2410 N   0  0  0  0  0  0  0  0  0  0  0  0
   56.9720   29.3830   45.3690 C   0  0  0  0  0  0  0  0  0  0  0  0
   56.6670   30.6610   45.0300 N   0  0  0  0  0  0  0  0  0  0  0  0
   57.5850   31.6630   45.1810 C   0  0  0  0  0  0  0  0  0  0  0  0
   57.2360   32.8730   44.8410 N   0  0  0  0  0  0  0  0  0  0  0  0
   57.7310   34.1310   45.4010 C   0  0  0  0  0  0  0  0  0  0  0  0
   57.1646   34.9684   44.9675 H   0  0  0  0  0  0  0  0  0  0  0  0
   57.6003   34.1113   46.4930 H   0  0  0  0  0  0  0  0  0  0  0  0
   59.2270   34.3100   45.0800 C   0  0  0  0  0  0  0  0  0  0  0  0
   59.6257   33.3448   44.7345 H   0  0  0  0  0  0  0  0  0  0  0  0
   59.2988   35.0938   44.3116 H   0  0  0  0  0  0  0  0  0  0  0  0
   60.0340   34.7620   46.2340 N   0  0  0  0  0  0  0  0  0  0  0  0
   61.3390   34.0830   46.3840 C   0  0  0  0  0  0  0  0  0  0  0  0
   61.6705   33.7395   45.3930 H   0  0  0  0  0  0  0  0  0  0  0  0
   62.0375   34.8101   46.8239 H   0  0  0  0  0  0  0  0  0  0  0  0
   61.2850   32.8630   47.3350 C   0  0  0  0  0  0  0  0  0  0  0  0
   61.4707   31.9529   46.7458 H   0  0  0  0  0  0  0  0  0  0  0  0
   62.0506   33.0200   48.1091 H   0  0  0  0  0  0  0  0  0  0  0  0
   60.0440   32.7230   47.9970 O   0  0  0  0  0  0  0  0  0  0  0  0
   59.6810   33.9520   48.5820 C   0  0  0  0  0  0  0  0  0  0  0  0
   58.8319   33.7941   49.2632 H   0  0  0  0  0  0  0  0  0  0  0  0
   60.5395   34.3524   49.1411 H   0  0  0  0  0  0  0  0  0  0  0  0
   59.2780   34.9560   47.4920 C   0  0  0  0  0  0  0  0  0  0  0  0
   58.2052   34.8355   47.2808 H   0  0  0  0  0  0  0  0  0  0  0  0
   59.5061   35.9648   47.8665 H   0  0  0  0  0  0  0  0  0  0  0  0
  1  2  1  0
  2  3  2  0
  3  4  1  0
  3  5  1  0
  5  6  1  0
  6  7  1  0
  7  8  1  0
  8  9  1  0
  9 10  1  0
 10 11  1  0
 11 12  1  0
 11 13  1  0
 11 14  1  0
 10 15  2  0
 15 16  1  0
 16 17  1  0
 17 18  1  0
 17 19  1  0
 17 20  1  0
  7 21  2  0
 21 22  1  0
 22 23  1  0
 23 24  1  0
 24 25  2  0
 25 26  1  0
 26 27  1  0
 26 28  1  0
 26 29  1  0
 29 30  1  0
 29 31  1  0
 29 32  1  0
 32 33  1  0
 33 34  1  0
 33 35  1  0
 33 36  1  0
 36 37  1  0
 36 38  1  0
 36 39  1  0
 39 40  1  0
 40 41  1  0
 40 42  1  0
 40 43  1  0
 43 44  1  0
 43 45  1  0
 24  2  1  0
 43 32  1  0
 22  5  2  0
 16  8  2  0
M  CHG  1  23  -1
M  END
>  <UniqueID>  (4) 
4

>  <SMILES>  (4) 
Cc1nc(C)c(-c2nc3[n-]/c(=N/CCN4CCOCC4)ccc3s2)o1

>  <Energy>  (4) 
126.6963321167476

>  <Genealogy>  (4) 
Cc1nc(C)c(-c2nc3[n-]c(=NCCN4CCOCC4)ccc3s2)o1 (protonated)
Cc1nc(C)c(-c2nc3[n-]/c(=N/CCN4CCOCC4)ccc3s2)o1 (cis-trans isomerization)
Cc1nc(C)c(-c2nc3[n-]/c(=N/CCN4CCOCC4)ccc3s2)o1 (3D coordinates assigned)
Cc1nc(C)c(-c2nc3[n-]/c(=N/CCN4CCOCC4)ccc3s2)o1 (nonaromatic ring conformer: 126.6963321167476 kcal/mol)

>  <smiles>  (4) 
Cc1nc(C)c(-c2nc3[nH]c(=NCCN4CCOCC4)ccc3s2)o1

>  <score_type>  (4) 
oracle

>  <origin>  (4) 
adg

>  <m_score__min__energy>  (4) 
-10.449999999999999

>  <m_primary>  (4) 
energy

$$$$
4:0
     RDKit          3D

 49 52  0  0  0  0  0  0  0  0999 V2000
   56.2400   29.7060   42.6210 C   0  0  0  0  0  0  0  0  0  0  0  0
   56.0540   30.1930   44.0560 C   0  0  0  0  0  0  0  0  0  0  0  0
   57.3240   30.7000   44.6000 N   0  0  0  0  0  0  0  0  0  0  0  0
   58.4780   29.7880   44.6360 C   0  0  0  0  0  0  0  0  0  0  0  0
   58.1110   28.4760   45.3250 C   0  0  0  0  0  0  0  0  0  0  0  0
   57.3840   32.0440   45.1390 C   0  0  0  0  0  0  0  0  0  0  0  0
   56.3210   32.7120   45.2550 O   0  0  0  0  0  0  0  0  0  0  0  0
   58.6580   32.6830   45.5380 C   0  0  0  0  0  0  0  0  0  0  0  0
   59.1290   33.8210   44.9870 N   0  0  0  0  0  0  0  0  0  0  0  0
   60.2560   34.0940   45.6780 C   0  0  0  0  0  0  0  0  0  0  0  0
   60.5020   33.1880   46.6470 N   0  0  0  0  0  0  0  0  0  0  0  0
   59.5070   32.2920   46.5600 C   0  0  0  0  0  0  0  0  0  0  0  0
   59.4250   31.0890   47.4430 C   0  0  0  0  0  0  0  0  0  0  0  0
   59.3180   31.5350   48.8250 N   0  0  0  0  0  0  0  0  0  0  0  0
   60.2130   32.2290   49.4730 C   0  0  0  0  0  0  0  0  0  0  0  0
   59.9070   32.6160   50.8750 C   0  0  0  0  0  0  0  0  0  0  0  0
   60.2720   31.7810   51.9480 C   0  0  0  0  0  0  0  0  0  0  0  0
   59.9910   32.1570   53.2650 C   0  0  0  0  0  0  0  0  0  0  0  0
   59.3520   33.3710   53.5270 C   0  0  0  0  0  0  0  0  0  0  0  0
   59.0820   33.7330   54.8050 F   0  0  0  0  0  0  0  0  0  0  0  0
   58.9960   34.2130   52.4710 C   0  0  0  0  0  0  0  0  0  0  0  0
   59.2750   33.8430   51.1520 C   0  0  0  0  0  0  0  0  0  0  0  0
   61.5240   32.6180   48.8560 C   0  0  0  0  0  0  0  0  0  0  0  0
   62.6860   32.5160   49.6450 C   0  0  0  0  0  0  0  0  0  0  0  0
   63.9260   32.9370   49.1570 C   0  0  0  0  0  0  0  0  0  0  0  0
   65.3550   32.8080   50.1660 Cl  0  0  0  0  0  0  0  0  0  0  0  0
   64.0250   33.4630   47.8710 C   0  0  0  0  0  0  0  0  0  0  0  0
   62.8920   33.5570   47.0640 C   0  0  0  0  0  0  0  0  0  0  0  0
   61.6360   33.1310   47.5320 C   0  0  0  0  0  0  0  0  0  0  0  0
   56.6325   28.6784   42.6305 H   0  0  0  0  0  0  0  0  0  0  0  0
   55.2717   29.7239   42.0993 H   0  0  0  0  0  0  0  0  0  0  0  0
   56.9498   30.3648   42.0993 H   0  0  0  0  0  0  0  0  0  0  0  0
   55.3070   31.0003   44.0697 H   0  0  0  0  0  0  0  0  0  0  0  0
   55.7146   29.3497   44.6754 H   0  0  0  0  0  0  0  0  0  0  0  0
   58.8025   29.5762   43.6065 H   0  0  0  0  0  0  0  0  0  0  0  0
   59.2895   30.2685   45.2021 H   0  0  0  0  0  0  0  0  0  0  0  0
   58.1489   28.6116   46.4159 H   0  0  0  0  0  0  0  0  0  0  0  0
   57.0949   28.1775   45.0277 H   0  0  0  0  0  0  0  0  0  0  0  0
   58.8248   27.6936   45.0277 H   0  0  0  0  0  0  0  0  0  0  0  0
   60.9028   34.9600   45.4735 H   0  0  0  0  0  0  0  0  0  0  0  0
   58.5399   30.4928   47.1762 H   0  0  0  0  0  0  0  0  0  0  0  0
   60.3238   30.4675   47.3167 H   0  0  0  0  0  0  0  0  0  0  0  0
   60.7815   30.8266   51.7490 H   0  0  0  0  0  0  0  0  0  0  0  0
   60.2739   31.4951   54.0968 H   0  0  0  0  0  0  0  0  0  0  0  0
   58.4946   35.1700   52.6778 H   0  0  0  0  0  0  0  0  0  0  0  0
   58.9990   34.5146   50.3257 H   0  0  0  0  0  0  0  0  0  0  0  0
   62.6166   32.0988   50.6604 H   0  0  0  0  0  0  0  0  0  0  0  0
   64.9991   33.8049   47.4914 H   0  0  0  0  0  0  0  0  0  0  0  0
   62.9816   33.9696   46.0483 H   0  0  0  0  0  0  0  0  0  0  0  0
  1  2  1  0
  2  3  1  0
  3  4  1  0
  4  5  1  0
  3  6  1  0
  6  7  2  0
  6  8  1  0
  8  9  1  0
  9 10  2  0
 10 11  1  0
 11 12  1  0
 12 13  1  0
 13 14  1  0
 14 15  2  0
 15 16  1  0
 16 17  2  0
 17 18  1  0
 18 19  2  0
 19 20  1  0
 19 21  1  0
 21 22  2  0
 15 23  1  0
 23 24  2  0
 24 25  1  0
 25 26  1  0
 25 27  2  0
 27 28  1  0
 28 29  2  0
 12  8  2  0
 22 16  1  0
 29 23  1  0
 29 11  1  0
  1 30  1  0
  1 31  1  0
  1 32  1  0
  2 33  1  0
  2 34  1  0
  4 35  1  0
  4 36  1  0
  5 37  1  0
  5 38  1  0
  5 39  1  0
 10 40  1  0
 13 41  1  0
 13 42  1  0
 17 43  1  0
 18 44  1  0
 21 45  1  0
 22 46  1  0
 24 47  1  0
 27 48  1  0
 28 49  1  0
M  END
>  <UniqueID>  (5) 
5

>  <SMILES>  (5) 
CCN(CC)C(=O)c1ncn2c1CN=C(c1ccc(F)cc1)c1cc(Cl)ccc1-2

>  <Energy>  (5) 
97.16984498505279

>  <Genealogy>  (5) 
CCN(CC)C(=O)c1ncn2c1CN=C(c1ccc(F)cc1)c1cc(Cl)ccc1-2 (3D coordinates assigned)
CCN(CC)C(=O)c1ncn2c1CN=C(c1ccc(F)cc1)c1cc(Cl)ccc1-2 (nonaromatic ring conformer: 97.16984498505279 kcal/mol)

>  <smiles>  (5) 
CCN(CC)C(=O)c1ncn2c1CN=C(c1ccc(F)cc1)c1cc(Cl)ccc1-2

>  <score_type>  (5) 
oracle

>  <origin>  (5) 
adg

>  <m_score__min__energy>  (5) 
-7.9100000000000001

>  <m_primary>  (5) 
energy

$$$$
5:0
     RDKit          3D

 38 39  0  0  0  0  0  0  0  0999 V2000
   60.7250   26.4020   46.7480 C   0  0  0  0  0  0  0  0  0  0  0  0
   59.8360   27.3920   46.0550 C   0  0  0  0  0  0  0  0  0  0  0  0
   58.4410   27.2740   46.1470 C   0  0  0  0  0  0  0  0  0  0  0  0
   57.6110   28.1870   45.4900 C   0  0  0  0  0  0  0  0  0  0  0  0
   58.1670   29.2290   44.7330 C   0  0  0  0  0  0  0  0  0  0  0  0
   57.1320   30.3780   43.8880 S   0  0  0  0  0  0  0  0  0  0  0  0
   56.2340   31.0820   44.8670 O   0  0  0  0  0  0  0  0  0  0  0  0
   56.2750   29.6190   42.9150 O   0  0  0  0  0  0  0  0  0  0  0  0
   58.0900   31.5970   42.9860 C   0  0  0  0  0  0  0  0  0  0  0  0
   57.7680   33.0390   43.4040 C   0  0  0  0  0  0  0  0  0  0  0  0
   58.6050   33.4860   44.5670 C   0  0  0  0  0  0  0  0  0  0  0  0
   59.1820   34.6050   44.5130 O   0  0  0  0  0  0  0  0  0  0  0  0
   58.7150   32.6600   45.7370 N   0  0  0  0  0  0  0  0  0  0  0  0
   59.7100   32.8140   46.7670 C   0  0  0  0  0  0  0  0  0  0  0  0
   60.7290   31.8550   46.8790 C   0  0  0  0  0  0  0  0  0  0  0  0
   61.7490   32.0070   47.8230 C   0  0  0  0  0  0  0  0  0  0  0  0
   61.7670   33.1250   48.6610 C   0  0  0  0  0  0  0  0  0  0  0  0
   63.1750   33.3460   49.9320 Br  0  0  0  0  0  0  0  0  0  0  0  0
   60.7660   34.0930   48.5510 C   0  0  0  0  0  0  0  0  0  0  0  0
   59.7450   33.9450   47.6070 C   0  0  0  0  0  0  0  0  0  0  0  0
   59.5600   29.3310   44.6180 C   0  0  0  0  0  0  0  0  0  0  0  0
   60.3900   28.4140   45.2680 C   0  0  0  0  0  0  0  0  0  0  0  0
   60.6222   26.5165   47.8372 H   0  0  0  0  0  0  0  0  0  0  0  0
   60.4341   25.3817   46.4575 H   0  0  0  0  0  0  0  0  0  0  0  0
   61.7706   26.5819   46.4575 H   0  0  0  0  0  0  0  0  0  0  0  0
   57.9984   26.4593   46.7389 H   0  0  0  0  0  0  0  0  0  0  0  0
   56.5182   28.0880   45.5669 H   0  0  0  0  0  0  0  0  0  0  0  0
   59.1583   31.4089   43.1686 H   0  0  0  0  0  0  0  0  0  0  0  0
   57.8327   31.4968   41.9212 H   0  0  0  0  0  0  0  0  0  0  0  0
   57.9587   33.7072   42.5513 H   0  0  0  0  0  0  0  0  0  0  0  0
   56.7121   33.0770   43.7100 H   0  0  0  0  0  0  0  0  0  0  0  0
   58.0040   31.9030   45.8580 H   0  0  0  0  0  0  0  0  0  0  0  0
   60.7249   30.9758   46.2179 H   0  0  0  0  0  0  0  0  0  0  0  0
   62.5384   31.2455   47.9062 H   0  0  0  0  0  0  0  0  0  0  0  0
   60.7809   34.9744   49.2090 H   0  0  0  0  0  0  0  0  0  0  0  0
   58.9649   34.7156   47.5196 H   0  0  0  0  0  0  0  0  0  0  0  0
   60.0019   30.1366   44.0133 H   0  0  0  0  0  0  0  0  0  0  0  0
   61.4821   28.4932   45.1626 H   0  0  0  0  0  0  0  0  0  0  0  0
  1  2  1  0
  2  3  2  0
  3  4  1  0
  4  5  2  0
  5  6  1  0
  6  7  2  0
  6  8  2  0
  6  9  1  0
  9 10  1  0
 10 11  1  0
 11 12  2  0
 11 13  1  0
 13 14  1  0
 14 15  2  0
 15 16  1  0
 16 17  2  0
 17 18  1  0
 17 19  1  0
 19 20  2  0
  5 21  1  0
 21 22  2  0
 22  2  1  0
 20 14  1  0
  1 23  1  0
  1 24  1  0
  1 25  1  0
  3 26  1  0
  4 27  1  0
  9 28  1  0
  9 29  1  0
 10 30  1  0
 10 31  1  0
 13 32  1  0
 15 33  1  0
 16 34  1  0
 19 35  1  0
 20 36  1  0
 21 37  1  0
 22 38  1  0
M  END
>  <UniqueID>  (6) 
6

>  <SMILES>  (6) 
Cc1ccc(S(=O)(=O)CCC(=O)Nc2ccc(Br)cc2)cc1

>  <Energy>  (6) 
30.316146231784472

>  <Genealogy>  (6) 
Cc1ccc(S(=O)(=O)CCC(=O)Nc2ccc(Br)cc2)cc1 (3D coordinates assigned)
Cc1ccc(S(=O)(=O)CCC(=O)Nc2ccc(Br)cc2)cc1 (optimized conformer: 30.316146231784472 kcal/mol)

>  <smiles>  (6) 
Cc1ccc(S(=O)(=O)CCC(=O)Nc2ccc(Br)cc2)cc1

>  <score_type>  (6) 
oracle

>  <origin>  (6) 
adg

>  <m_score__min__energy>  (6) 
-7.8899999999999997

>  <m_primary>  (6) 
energy

$$$$
6:0
     RDKit          3D

 46 48  0  0  0  0  0  0  0  0999 V2000
   57.7680   32.3330   41.9870 C   0  0  0  0  0  0  0  0  0  0  0  0
   58.3580   31.8520   43.1910 O   0  0  0  0  0  0  0  0  0  0  0  0
   58.3370   32.5360   44.4180 C   0  0  0  0  0  0  0  0  0  0  0  0
   58.4190   33.9420   44.4870 C   0  0  0  0  0  0  0  0  0  0  0  0
   58.3630   34.5930   45.7210 C   0  0  0  0  0  0  0  0  0  0  0  0
   58.2240   33.8550   46.8960 C   0  0  0  0  0  0  0  0  0  0  0  0
   58.1480   32.4630   46.8420 C   0  0  0  0  0  0  0  0  0  0  0  0
   58.2110   31.7940   45.6090 C   0  0  0  0  0  0  0  0  0  0  0  0
   58.1450   30.3580   45.5730 N   0  0  0  0  0  0  0  0  0  0  0  0
   57.1870   29.7030   44.6760 C   0  0  0  0  0  0  0  0  0  0  0  0
   57.4990   28.2090   44.5420 C   0  0  0  0  0  0  0  0  0  0  0  0
   57.6440   27.5820   45.8770 N   0  0  0  0  0  0  0  0  0  0  0  0
   57.8840   26.1200   45.7790 C   0  0  0  0  0  0  0  0  0  0  0  0
   56.6320   25.2750   45.6110 C   0  0  0  0  0  0  0  0  0  0  0  0
   55.5260   25.6990   46.0440 O   0  0  0  0  0  0  0  0  0  0  0  0
   56.6690   23.9750   44.8940 C   0  0  0  0  0  0  0  0  0  0  0  0
   57.0890   22.8130   45.5690 C   0  0  0  0  0  0  0  0  0  0  0  0
   57.1240   21.5810   44.9080 C   0  0  0  0  0  0  0  0  0  0  0  0
   56.7370   21.4930   43.5690 C   0  0  0  0  0  0  0  0  0  0  0  0
   56.3090   22.6360   42.8900 C   0  0  0  0  0  0  0  0  0  0  0  0
   56.2720   23.8700   43.5460 C   0  0  0  0  0  0  0  0  0  0  0  0
   58.6140   28.2660   46.7870 C   0  0  0  0  0  0  0  0  0  0  0  0
   59.2010   29.5640   46.2090 C   0  0  0  0  0  0  0  0  0  0  0  0
   56.9367   33.0107   42.2313 H   0  0  0  0  0  0  0  0  0  0  0  0
   58.5234   32.8760   41.4000 H   0  0  0  0  0  0  0  0  0  0  0  0
   57.3883   31.4837   41.4000 H   0  0  0  0  0  0  0  0  0  0  0  0
   58.5277   34.5294   43.5633 H   0  0  0  0  0  0  0  0  0  0  0  0
   58.4287   35.6901   45.7664 H   0  0  0  0  0  0  0  0  0  0  0  0
   58.1742   34.3708   47.8663 H   0  0  0  0  0  0  0  0  0  0  0  0
   58.0380   31.8855   47.7717 H   0  0  0  0  0  0  0  0  0  0  0  0
   56.1720   29.8242   45.0822 H   0  0  0  0  0  0  0  0  0  0  0  0
   57.2604   30.1685   43.6821 H   0  0  0  0  0  0  0  0  0  0  0  0
   56.6791   27.7163   43.9988 H   0  0  0  0  0  0  0  0  0  0  0  0
   58.4449   28.0933   43.9925 H   0  0  0  0  0  0  0  0  0  0  0  0
   56.7030   27.6720   46.3320 H   0  0  0  0  0  0  0  0  0  0  0  0
   58.5373   25.9384   44.9129 H   0  0  0  0  0  0  0  0  0  0  0  0
   58.3342   25.8169   46.7358 H   0  0  0  0  0  0  0  0  0  0  0  0
   57.3920   22.8746   46.6246 H   0  0  0  0  0  0  0  0  0  0  0  0
   57.4569   20.6798   45.4437 H   0  0  0  0  0  0  0  0  0  0  0  0
   56.7693   20.5240   43.0494 H   0  0  0  0  0  0  0  0  0  0  0  0
   56.0003   22.5651   41.8366 H   0  0  0  0  0  0  0  0  0  0  0  0
   55.9305   24.7654   43.0060 H   0  0  0  0  0  0  0  0  0  0  0  0
   58.0958   28.5085   47.7265 H   0  0  0  0  0  0  0  0  0  0  0  0
   59.4555   27.5733   46.9356 H   0  0  0  0  0  0  0  0  0  0  0  0
   59.6570   30.1497   47.0208 H   0  0  0  0  0  0  0  0  0  0  0  0
   59.9618   29.3099   45.4562 H   0  0  0  0  0  0  0  0  0  0  0  0
  1  2  1  0
  2  3  1  0
  3  4  2  0
  4  5  1  0
  5  6  2  0
  6  7  1  0
  7  8  2  0
  8  9  1  0
  9 10  1  0
 10 11  1  0
 11 12  1  0
 12 13  1  0
 13 14  1  0
 14 15  2  0
 14 16  1  0
 16 17  2  0
 17 18  1  0
 18 19  2  0
 19 20  1  0
 20 21  2  0
 12 22  1  0
 22 23  1  0
  8  3  1  0
 23  9  1  0
 21 16  1  0
  1 24  1  0
  1 25  1  0
  1 26  1  0
  4 27  1  0
  5 28  1  0
  6 29  1  0
  7 30  1  0
 10 31  1  0
 10 32  1  0
 11 33  1  0
 11 34  1  0
 12 35  1  0
 13 36  1  0
 13 37  1  0
 17 38  1  0
 18 39  1  0
 19 40  1  0
 20 41  1  0
 21 42  1  0
 22 43  1  0
 22 44  1  0
 23 45  1  0
 23 46  1  0
M  CHG  1  12   1
M  END
>  <UniqueID>  (7) 
7

>  <SMILES>  (7) 
COc1ccccc1N1CC[NH+](CC(=O)c2ccccc2)CC1

>  <Energy>  (7) 
64.94933162059843

>  <Genealogy>  (7) 
COc1ccccc1N1CC[NH+](CC(=O)c2ccccc2)CC1 (protonated)
COc1ccccc1N1CC[NH+](CC(=O)c2ccccc2)CC1 (3D coordinates assigned)
COc1ccccc1N1CC[NH+](CC(=O)c2ccccc2)CC1 (nonaromatic ring conformer: 64.94933162059843 kcal/mol)

>  <smiles>  (7) 
COc1ccccc1N1CCN(CC(=O)c2ccccc2)CC1

>  <score_type>  (7) 
oracle

>  <origin>  (7) 
adg

>  <m_score__min__energy>  (7) 
-5.6900000000000004

>  <m_primary>  (7) 
energy

$$$$
7:0
     RDKit          3D

 45 47  0  0  0  0  0  0  0  0999 V2000
   65.0120   32.6860   50.3350 C   0  0  0  0  0  0  0  0  0  0  0  0
   64.5240   32.1720   49.1000 O   0  0  0  0  0  0  0  0  0  0  0  0
   63.1950   32.2790   48.6610 C   0  0  0  0  0  0  0  0  0  0  0  0
   62.7980   33.2350   47.7050 C   0  0  0  0  0  0  0  0  0  0  0  0
   61.4590   33.3130   47.2970 C   0  0  0  0  0  0  0  0  0  0  0  0
   61.0360   34.2670   46.3620 C   0  0  0  0  0  0  0  0  0  0  0  0
   59.6860   34.3440   45.9880 C   0  0  0  0  0  0  0  0  0  0  0  0
   59.2770   35.3310   44.9260 C   0  0  0  0  0  0  0  0  0  0  0  0
   58.7750   33.4220   46.5530 C   0  0  0  0  0  0  0  0  0  0  0  0
   57.0240   33.4260   46.1360 S   0  0  0  0  0  0  0  0  0  0  0  0
   57.2250   32.4080   44.6300 C   0  0  0  0  0  0  0  0  0  0  0  0
   57.4000   30.9650   44.9860 C   0  0  0  0  0  0  0  0  0  0  0  0
   56.4190   30.1800   44.8820 O   0  0  0  0  0  0  0  0  0  0  0  0
   58.6750   30.4940   45.4570 N   0  0  0  0  0  0  0  0  0  0  0  0
   58.9640   29.1200   45.7590 C   0  0  0  0  0  0  0  0  0  0  0  0
   58.5560   28.0690   44.9150 C   0  0  0  0  0  0  0  0  0  0  0  0
   58.8630   26.7470   45.2470 C   0  0  0  0  0  0  0  0  0  0  0  0
   59.5870   26.4860   46.4140 C   0  0  0  0  0  0  0  0  0  0  0  0
   59.9980   27.5140   47.2050 N   0  0  0  0  0  0  0  0  0  0  0  0
   59.7120   28.8090   46.9020 C   0  0  0  0  0  0  0  0  0  0  0  0
   59.2140   32.4950   47.4460 N   0  0  0  0  0  0  0  0  0  0  0  0
   60.5120   32.4220   47.8350 C   0  0  0  0  0  0  0  0  0  0  0  0
   60.9030   31.4680   48.7760 C   0  0  0  0  0  0  0  0  0  0  0  0
   62.2450   31.3950   49.2010 C   0  0  0  0  0  0  0  0  0  0  0  0
   62.6720   30.4630   50.1620 O   0  0  0  0  0  0  0  0  0  0  0  0
   61.8130   29.5530   50.8430 C   0  0  0  0  0  0  0  0  0  0  0  0
   64.5183   32.1660   51.1692 H   0  0  0  0  0  0  0  0  0  0  0  0
   66.0987   32.5261   50.3949 H   0  0  0  0  0  0  0  0  0  0  0  0
   64.7960   33.7629   50.3949 H   0  0  0  0  0  0  0  0  0  0  0  0
   63.5419   33.9231   47.2770 H   0  0  0  0  0  0  0  0  0  0  0  0
   61.7666   34.9596   45.9186 H   0  0  0  0  0  0  0  0  0  0  0  0
   58.8976   36.2467   45.4030 H   0  0  0  0  0  0  0  0  0  0  0  0
   60.1471   35.5774   44.2997 H   0  0  0  0  0  0  0  0  0  0  0  0
   58.4877   34.8897   44.2997 H   0  0  0  0  0  0  0  0  0  0  0  0
   56.3315   32.5181   43.9979 H   0  0  0  0  0  0  0  0  0  0  0  0
   58.1198   32.7497   44.0891 H   0  0  0  0  0  0  0  0  0  0  0  0
   59.3900   31.2130   45.7200 H   0  0  0  0  0  0  0  0  0  0  0  0
   57.9956   28.2889   43.9944 H   0  0  0  0  0  0  0  0  0  0  0  0
   58.5386   25.9208   44.5973 H   0  0  0  0  0  0  0  0  0  0  0  0
   59.8246   25.4488   46.6930 H   0  0  0  0  0  0  0  0  0  0  0  0
   60.0700   29.6162   47.5579 H   0  0  0  0  0  0  0  0  0  0  0  0
   60.1599   30.7695   49.1881 H   0  0  0  0  0  0  0  0  0  0  0  0
   61.9322   29.6793   51.9292 H   0  0  0  0  0  0  0  0  0  0  0  0
   60.7687   29.7551   50.5628 H   0  0  0  0  0  0  0  0  0  0  0  0
   62.0749   28.5220   50.5628 H   0  0  0  0  0  0  0  0  0  0  0  0
  1  2  1  0
  2  3  1  0
  3  4  2  0
  4  5  1  0
  5  6  2  0
  6  7  1  0
  7  8  1  0
  7  9  2  0
  9 10  1  0
 10 11  1  0
 11 12  1  0
 12 13  2  0
 12 14  1  0
 14 15  1  0
 15 16  2  0
 16 17  1  0
 17 18  2  0
 18 19  1  0
 19 20  2  0
  9 21  1  0
 21 22  2  0
 22 23  1  0
 23 24  2  0
 24 25  1  0
 25 26  1  0
 24  3  1  0
 22  5  1  0
 20 15  1  0
  1 27  1  0
  1 28  1  0
  1 29  1  0
  4 30  1  0
  6 31  1  0
  8 32  1  0
  8 33  1  0
  8 34  1  0
 11 35  1  0
 11 36  1  0
 14 37  1  0
 16 38  1  0
 17 39  1  0
 18 40  1  0
 20 41  1  0
 23 42  1  0
 26 43  1  0
 26 44  1  0
 26 45  1  0
M  END
>  <UniqueID>  (8) 
8

>  <SMILES>  (8) 
COc1cc2cc(C)c(SCC(=O)Nc3cccnc3)nc2cc1OC

>  <Energy>  (8) 
48.61284834385282

>  <Genealogy>  (8) 
COc1cc2cc(C)c(SCC(=O)Nc3cccnc3)nc2cc1OC (3D coordinates assigned)
COc1cc2cc(C)c(SCC(=O)Nc3cccnc3)nc2cc1OC (optimized conformer: 48.61284834385282 kcal/mol)

>  <smiles>  (8) 
COc1cc2cc(C)c(SCC(=O)Nc3cccnc3)nc2cc1OC

>  <score_type>  (8) 
oracle

>  <origin>  (8) 
adg

>  <m_score__min__energy>  (8) 
-6.8499999999999996

>  <m_primary>  (8) 
energy

$$$$
8:0
     RDKit          3D

 39 40  0  0  0  0  0  0  0  0999 V2000
   62.1355   34.9077   47.3229 H   0  0  0  0  0  0  0  0  0  0  0  0
   62.3180   33.8400   47.1310 C   0  0  0  0  0  0  0  0  0  0  0  0
   61.3600   33.0840   46.7210 N   0  0  0  0  0  0  0  0  0  0  0  0
   59.9620   33.4140   46.9270 C   0  0  2  0  0  0  0  0  0  0  0  0
   59.8251   34.4702   46.6520 H   0  0  0  0  0  0  0  0  0  0  0  0
   59.5620   33.2440   48.3790 C   0  0  0  0  0  0  0  0  0  0  0  0
   60.0120   34.1410   49.3670 C   0  0  0  0  0  0  0  0  0  0  0  0
   60.6426   34.9962   49.0826 H   0  0  0  0  0  0  0  0  0  0  0  0
   59.6620   33.9510   50.7070 C   0  0  0  0  0  0  0  0  0  0  0  0
   60.0094   34.6616   51.4714 H   0  0  0  0  0  0  0  0  0  0  0  0
   58.8710   32.8590   51.0770 C   0  0  0  0  0  0  0  0  0  0  0  0
   58.4340   32.6210   52.7600 Cl  0  0  0  0  0  0  0  0  0  0  0  0
   58.4320   31.9550   50.1050 C   0  0  0  0  0  0  0  0  0  0  0  0
   57.8113   31.0947   50.3960 H   0  0  0  0  0  0  0  0  0  0  0  0
   58.7800   32.1420   48.7650 C   0  0  0  0  0  0  0  0  0  0  0  0
   58.4395   31.4216   48.0067 H   0  0  0  0  0  0  0  0  0  0  0  0
   59.0820   32.5480   46.0510 C   0  0  0  0  0  0  0  0  0  0  0  0
   57.9410   33.1020   45.4440 C   0  0  0  0  0  0  0  0  0  0  0  0
   57.7124   34.1692   45.5810 H   0  0  0  0  0  0  0  0  0  0  0  0
   57.0950   32.3040   44.6670 C   0  0  0  0  0  0  0  0  0  0  0  0
   56.2099   32.7477   44.1877 H   0  0  0  0  0  0  0  0  0  0  0  0
   57.3710   30.9450   44.4980 C   0  0  0  0  0  0  0  0  0  0  0  0
   56.2130   29.8580   43.4380 Br  0  0  0  0  0  0  0  0  0  0  0  0
   58.4930   30.3800   45.1110 C   0  0  0  0  0  0  0  0  0  0  0  0
   58.7088   29.3092   44.9817 H   0  0  0  0  0  0  0  0  0  0  0  0
   59.3410   31.1740   45.8880 C   0  0  0  0  0  0  0  0  0  0  0  0
   60.2172   30.7219   46.3757 H   0  0  0  0  0  0  0  0  0  0  0  0
   63.6840   33.2590   47.3460 C   0  0  0  0  0  0  0  0  0  0  0  0
   64.4406   34.0336   47.1519 H   0  0  0  0  0  0  0  0  0  0  0  0
   63.8204   32.4117   46.6580 H   0  0  0  0  0  0  0  0  0  0  0  0
   63.8320   32.7730   48.7340 N   0  0  0  0  0  0  0  0  0  0  0  0
   63.4670   33.8360   49.6830 C   0  0  0  0  0  0  0  0  0  0  0  0
   63.5933   33.4682   50.7119 H   0  0  0  0  0  0  0  0  0  0  0  0
   64.1168   34.7091   49.5234 H   0  0  0  0  0  0  0  0  0  0  0  0
   62.4179   34.1257   49.5234 H   0  0  0  0  0  0  0  0  0  0  0  0
   62.9810   31.5930   48.9680 C   0  0  0  0  0  0  0  0  0  0  0  0
   62.8656   31.4330   50.0502 H   0  0  0  0  0  0  0  0  0  0  0  0
   61.9926   31.7580   48.5143 H   0  0  0  0  0  0  0  0  0  0  0  0
   63.4495   30.7072   48.5143 H   0  0  0  0  0  0  0  0  0  0  0  0
  1  2  1  0
  2  3  2  0
  3  4  1  0
  4  5  1  6
  4  6  1  0
  6  7  2  0
  7  8  1  0
  7  9  1  0
  9 10  1  0
  9 11  2  0
 11 12  1  0
 11 13  1  0
 13 14  1  0
 13 15  2  0
 15 16  1  0
  4 17  1  0
 17 18  2  0
 18 19  1  0
 18 20  1  0
 20 21  1  0
 20 22  2  0
 22 23  1  0
 22 24  1  0
 24 25  1  0
 24 26  2  0
 26 27  1  0
  2 28  1  0
 28 29  1  0
 28 30  1  0
 28 31  1  0
 31 32  1  0
 32 33  1  0
 32 34  1  0
 32 35  1  0
 31 36  1  0
 36 37  1  0
 36 38  1  0
 36 39  1  0
 15  6  1  0
 26 17  1  0
M  END
>  <UniqueID>  (9) 
9

>  <SMILES>  (9) 
CN(C)C/C=N/[C@H](c1ccc(Cl)cc1)c1ccc(Br)cc1

>  <Energy>  (9) 
36.32572644420468

>  <Genealogy>  (9) 
CN(C)CC=N[C@H](c1ccc(Cl)cc1)c1ccc(Br)cc1 (chirality)
CN(C)C/C=N/[C@H](c1ccc(Cl)cc1)c1ccc(Br)cc1 (cis-trans isomerization)
CN(C)C/C=N/[C@H](c1ccc(Cl)cc1)c1ccc(Br)cc1 (3D coordinates assigned)
CN(C)C/C=N/[C@H](c1ccc(Cl)cc1)c1ccc(Br)cc1 (optimized conformer: 36.32572644420468 kcal/mol)

>  <smiles>  (9) 
CN(C)CC=NC(c1ccc(Cl)cc1)c1ccc(Br)cc1

>  <score_type>  (9) 
oracle

>  <origin>  (9) 
adg

>  <m_score__min__energy>  (9) 
-6.7699999999999996

>  <m_primary>  (9) 
energy

$$$$
9:0
     RDKit          3D

 31 32  0  0  0  0  0  0  0  0999 V2000
   61.1950   33.8450   46.7440 C   0  0  0  0  0  0  0  0  0  0  0  0
   59.8220   33.8910   46.2440 N   0  0  0  0  0  0  0  0  0  0  0  0
   59.2750   34.8990   45.5370 C   0  0  0  0  0  0  0  0  0  0  0  0
   57.9690   34.5890   45.2110 C   0  0  0  0  0  0  0  0  0  0  0  0
   57.7140   33.3370   45.7360 C   0  0  0  0  0  0  0  0  0  0  0  0
   58.8820   32.9280   46.3530 C   0  0  0  0  0  0  0  0  0  0  0  0
   59.0490   31.6390   47.1090 C   0  0  0  0  0  0  0  0  0  0  0  0
   60.0630   30.7910   46.4620 N   0  0  0  0  0  0  0  0  0  0  0  0
   59.4930   29.5230   45.9790 C   0  0  0  0  0  0  0  0  0  0  0  0
   58.2320   29.7430   45.1770 C   0  0  0  0  0  0  0  0  0  0  0  0
   58.2480   30.5570   44.0340 C   0  0  0  0  0  0  0  0  0  0  0  0
   57.0720   30.7750   43.3150 C   0  0  0  0  0  0  0  0  0  0  0  0
   55.8860   30.1800   43.7470 C   0  0  0  0  0  0  0  0  0  0  0  0
   55.8830   29.3970   44.8580 N   0  0  0  0  0  0  0  0  0  0  0  0
   57.0150   29.1680   45.5760 C   0  0  0  0  0  0  0  0  0  0  0  0
   61.1849   33.8453   47.8440 H   0  0  0  0  0  0  0  0  0  0  0  0
   61.6865   32.9299   46.3821 H   0  0  0  0  0  0  0  0  0  0  0  0
   61.7467   34.7252   46.3821 H   0  0  0  0  0  0  0  0  0  0  0  0
   59.7914   35.8301   45.2606 H   0  0  0  0  0  0  0  0  0  0  0  0
   57.2675   35.2177   44.6430 H   0  0  0  0  0  0  0  0  0  0  0  0
   56.7694   32.7766   45.6753 H   0  0  0  0  0  0  0  0  0  0  0  0
   59.3662   31.8614   48.1385 H   0  0  0  0  0  0  0  0  0  0  0  0
   58.0884   31.1032   47.1162 H   0  0  0  0  0  0  0  0  0  0  0  0
   60.8080   30.5660   47.1630 H   0  0  0  0  0  0  0  0  0  0  0  0
   60.5110   31.3050   45.6670 H   0  0  0  0  0  0  0  0  0  0  0  0
   60.2355   29.0183   45.3434 H   0  0  0  0  0  0  0  0  0  0  0  0
   59.2379   28.9079   46.8545 H   0  0  0  0  0  0  0  0  0  0  0  0
   59.1881   31.0235   43.7046 H   0  0  0  0  0  0  0  0  0  0  0  0
   57.0799   31.4096   42.4166 H   0  0  0  0  0  0  0  0  0  0  0  0
   54.9530   30.3447   43.1881 H   0  0  0  0  0  0  0  0  0  0  0  0
   56.9770   28.5306   46.4717 H   0  0  0  0  0  0  0  0  0  0  0  0
  1  2  1  0
  2  3  1  0
  3  4  2  0
  4  5  1  0
  5  6  2  0
  6  7  1  0
  7  8  1  0
  8  9  1  0
  9 10  1  0
 10 11  2  0
 11 12  1  0
 12 13  2  0
 13 14  1  0
 14 15  2  0
  6  2  1  0
 15 10  1  0
  1 16  1  0
  1 17  1  0
  1 18  1  0
  3 19  1  0
  4 20  1  0
  5 21  1  0
  7 22  1  0
  7 23  1  0
  8 24  1  0
  8 25  1  0
  9 26  1  0
  9 27  1  0
 11 28  1  0
 12 29  1  0
 13 30  1  0
 15 31  1  0
M  CHG  1   8   1
M  END
>  <UniqueID>  (10) 
10

>  <SMILES>  (10) 
Cn1cccc1C[NH2+]Cc1cccnc1

>  <Energy>  (10) 
55.01511916209752

>  <Genealogy>  (10) 
Cn1cccc1C[NH2+]Cc1cccnc1 (protonated)
Cn1cccc1C[NH2+]Cc1cccnc1 (3D coordinates assigned)
Cn1cccc1C[NH2+]Cc1cccnc1 (optimized conformer: 55.01511916209752 kcal/mol)

>  <smiles>  (10) 
Cn1cccc1CNCc1cccnc1

>  <score_type>  (10) 
oracle

>  <origin>  (10) 
adg

>  <m_score__min__energy>  (10) 
-4.2400000000000002

>  <m_primary>  (10) 
energy

$$$$
10:0
     RDKit          3D

 51 53  0  0  1  0  0  0  0  0999 V2000
   59.9610   33.9810   45.6850 C   0  0  0  0  0  0  0  0  0  0  0  0
   59.4020   33.5310   46.9260 N   0  0  0  0  0  0  0  0  0  0  0  0
   59.6670   34.5570   47.9380 C   0  0  0  0  0  0  0  0  0  0  0  0
   57.9320   33.5850   46.7420 C   0  0  0  0  0  0  0  0  0  0  0  0
   59.7340   32.2260   47.3540 C   0  0  0  0  0  0  0  0  0  0  0  0
   58.5160   31.4370   47.9380 C   0  0  0  0  0  0  0  0  0  0  0  0
   59.1420   30.2500   48.4570 N   0  0  0  0  0  0  0  0  0  0  0  0
   60.4590   28.2050   49.7410 C   0  0  0  0  0  0  0  0  0  0  0  0
   59.5660   31.4800   50.3510 O   0  0  0  0  0  0  0  0  0  0  0  0
   60.3090   29.3940   50.3450 N   0  0  0  0  0  0  0  0  0  0  0  0
   59.6690   30.3880   49.7180 C   0  0  0  0  0  0  0  0  0  0  0  0
   61.0710   27.2580   50.3350 N   0  0  0  0  0  0  0  0  0  0  0  0
   59.9230   28.0790   48.4770 C   0  0  0  0  0  0  0  0  0  0  0  0
   59.9030   27.0180   47.6760 N   0  0  0  0  0  0  0  0  0  0  0  0
   59.2470   27.3580   46.5690 C   0  0  0  0  0  0  0  0  0  0  0  0
   58.8140   28.6620   46.6080 N   0  0  0  0  0  0  0  0  0  0  0  0
   58.0380   29.2990   45.6200 C   0  0  1  0  0  0  0  0  0  0  0  0
   58.1880   30.6260   45.3070 O   0  0  0  0  0  0  0  0  0  0  0  0
   57.0050   30.9290   44.6400 C   0  0  1  0  0  0  0  0  0  0  0  0
   57.2580   31.8920   43.4900 C   0  0  0  0  0  0  0  0  0  0  0  0
   58.1420   31.2830   42.6150 O   0  0  0  0  0  0  0  0  0  0  0  0
   56.3820   29.6660   44.1300 C   0  0  2  0  0  0  0  0  0  0  0  0
   55.2030   29.3890   44.8210 O   0  0  0  0  0  0  0  0  0  0  0  0
   57.3980   28.5580   44.5270 C   0  0  1  0  0  0  0  0  0  0  0  0
   58.0150   28.2380   43.3870 O   0  0  0  0  0  0  0  0  0  0  0  0
   59.2600   29.0860   47.8180 C   0  0  0  0  0  0  0  0  0  0  0  0
   60.8033   34.6591   45.8867 H   0  0  0  0  0  0  0  0  0  0  0  0
   60.3175   33.1150   45.1080 H   0  0  0  0  0  0  0  0  0  0  0  0
   59.1911   34.5142   45.1080 H   0  0  0  0  0  0  0  0  0  0  0  0
   59.5542   34.1202   48.9412 H   0  0  0  0  0  0  0  0  0  0  0  0
   60.6925   34.9359   47.8162 H   0  0  0  0  0  0  0  0  0  0  0  0
   58.9533   35.3851   47.8162 H   0  0  0  0  0  0  0  0  0  0  0  0
   57.4398   33.6031   47.7256 H   0  0  0  0  0  0  0  0  0  0  0  0
   57.6657   34.4935   46.1820 H   0  0  0  0  0  0  0  0  0  0  0  0
   57.5998   32.6985   46.1820 H   0  0  0  0  0  0  0  0  0  0  0  0
   60.1319   31.6673   46.4940 H   0  0  0  0  0  0  0  0  0  0  0  0
   60.4741   32.3267   48.1616 H   0  0  0  0  0  0  0  0  0  0  0  0
   58.0179   32.0066   48.7364 H   0  0  0  0  0  0  0  0  0  0  0  0
   57.7274   31.2326   47.1988 H   0  0  0  0  0  0  0  0  0  0  0  0
   60.7010   29.5420   51.3180 H   0  0  0  0  0  0  0  0  0  0  0  0
   61.2800   26.3220   49.9590 H   0  0  0  0  0  0  0  0  0  0  0  0
   59.0721   26.6765   45.7234 H   0  0  0  0  0  0  0  0  0  0  0  0
   57.3382   29.2670   46.4681 H   0  0  0  0  0  0  0  0  0  0  0  0
   56.3180   31.4185   45.3460 H   0  0  0  0  0  0  0  0  0  0  0  0
   56.3128   32.1140   42.9729 H   0  0  0  0  0  0  0  0  0  0  0  0
   57.6781   32.8368   43.8652 H   0  0  0  0  0  0  0  0  0  0  0  0
   58.4360   30.4320   43.0170 H   0  0  0  0  0  0  0  0  0  0  0  0
   56.1614   29.7330   43.0544 H   0  0  0  0  0  0  0  0  0  0  0  0
   54.7410   28.5740   44.4970 H   0  0  0  0  0  0  0  0  0  0  0  0
   57.1468   27.5545   44.9009 H   0  0  0  0  0  0  0  0  0  0  0  0
   58.1380   29.0530   42.8380 H   0  0  0  0  0  0  0  0  0  0  0  0
  1  2  1  0
  2  3  1  0
  2  4  1  0
  2  5  1  0
  5  6  1  0
  6  7  1  0
  7  8  1  0
  8  9  2  0
  8 10  1  0
 10 11  1  0
 11 12  2  3
 11 13  1  0
 13 14  1  0
 14 15  2  0
 15 16  1  0
 16 17  1  0
 17 18  1  0
 18 19  1  0
 19 20  1  0
 20 21  1  0
 19 22  1  0
 22 23  1  0
 22 24  1  0
 24 25  1  0
 16 26  1  0
 26  7  1  0
 26 13  2  0
 24 17  1  0
  1 27  1  0
  1 28  1  0
  1 29  1  0
  3 30  1  0
  3 31  1  0
  3 32  1  0
  4 33  1  0
  4 34  1  0
  4 35  1  0
  5 36  1  0
  5 37  1  0
  6 38  1  0
  6 39  1  0
 10 40  1  0
 12 41  1  0
 15 42  1  0
 17 43  1  1
 19 44  1  1
 20 45  1  0
 20 46  1  0
 21 47  1  0
 22 48  1  6
 23 49  1  0
 24 50  1  1
 25 51  1  0
M  CHG  1   2   1
M  END
>  <smiles>  (11) 
C[N+](C)(C)CCn1c(=O)[nH]c(=N)c2ncn(C3OC(CO)C(O)C3O)c21

>  <score_type>  (11) 
oracle

>  <origin>  (11) 
adg

>  <m_score__min__energy>  (11) 
-5.0700000000000003

>  <m_primary>  (11) 
energy

$$$$
11:0
     RDKit          3D

 39 40  0  0  0  0  0  0  0  0999 V2000
   57.8303   24.5682   47.0179 H   0  0  0  0  0  0  0  0  0  0  0  0
   56.9810   25.2360   46.8110 C   0  0  0  0  0  0  0  0  0  0  0  0
   55.7930   24.7150   46.7390 N   0  0  0  0  0  0  0  0  0  0  0  0
   54.7820   25.2580   45.9770 O   0  0  0  0  0  0  0  0  0  0  0  0
   53.8740   24.4160   45.2840 C   0  0  0  0  0  0  0  0  0  0  0  0
   53.0585   25.0236   44.8647 H   0  0  0  0  0  0  0  0  0  0  0  0
   53.4590   23.6737   45.9817 H   0  0  0  0  0  0  0  0  0  0  0  0
   54.6010   23.6990   44.1580 C   0  0  0  0  0  0  0  0  0  0  0  0
   55.3234   22.9866   44.5831 H   0  0  0  0  0  0  0  0  0  0  0  0
   53.8722   23.1563   43.5380 H   0  0  0  0  0  0  0  0  0  0  0  0
   55.1336   24.4352   43.5380 H   0  0  0  0  0  0  0  0  0  0  0  0
   57.2530   26.6770   46.6300 C   0  0  0  0  0  0  0  0  0  0  0  0
   57.9870   27.2990   47.4460 O   0  0  0  0  0  0  0  0  0  0  0  0
   56.6380   27.3760   45.5360 N   0  0  0  0  0  0  0  0  0  0  0  0
   55.8260   26.9200   45.0620 H   0  0  0  0  0  0  0  0  0  0  0  0
   56.9920   28.7090   45.1300 C   0  0  0  0  0  0  0  0  0  0  0  0
   58.3020   29.2000   45.2820 C   0  0  0  0  0  0  0  0  0  0  0  0
   59.0757   28.5637   45.7365 H   0  0  0  0  0  0  0  0  0  0  0  0
   58.6250   30.4930   44.8580 C   0  0  0  0  0  0  0  0  0  0  0  0
   59.6473   30.8747   44.9964 H   0  0  0  0  0  0  0  0  0  0  0  0
   57.6520   31.3060   44.2570 C   0  0  0  0  0  0  0  0  0  0  0  0
   57.9900   32.7110   43.8380 C   0  0  0  0  0  0  0  0  0  0  0  0
   58.7990   32.6834   43.0931 H   0  0  0  0  0  0  0  0  0  0  0  0
   57.0954   33.1810   43.4036 H   0  0  0  0  0  0  0  0  0  0  0  0
   58.4380   33.5150   45.0290 C   0  0  0  0  0  0  0  0  0  0  0  0
   58.0390   33.1440   46.3240 C   0  0  0  0  0  0  0  0  0  0  0  0
   57.3731   32.2801   46.4663 H   0  0  0  0  0  0  0  0  0  0  0  0
   58.4860   33.8700   47.4330 C   0  0  0  0  0  0  0  0  0  0  0  0
   58.1671   33.5792   48.4448 H   0  0  0  0  0  0  0  0  0  0  0  0
   59.3370   34.9640   47.2570 C   0  0  0  0  0  0  0  0  0  0  0  0
   59.6846   35.5361   48.1299 H   0  0  0  0  0  0  0  0  0  0  0  0
   59.7470   35.3320   45.9720 C   0  0  0  0  0  0  0  0  0  0  0  0
   60.4189   36.1921   45.8349 H   0  0  0  0  0  0  0  0  0  0  0  0
   59.3040   34.6080   44.8610 C   0  0  0  0  0  0  0  0  0  0  0  0
   59.6348   34.8953   43.8520 H   0  0  0  0  0  0  0  0  0  0  0  0
   56.3490   30.8140   44.0950 C   0  0  0  0  0  0  0  0  0  0  0  0
   55.5776   31.4482   43.6338 H   0  0  0  0  0  0  0  0  0  0  0  0
   56.0260   29.5210   44.5170 C   0  0  0  0  0  0  0  0  0  0  0  0
   55.0061   29.1371   44.3672 H   0  0  0  0  0  0  0  0  0  0  0  0
  1  2  1  0
  2  3  2  0
  3  4  1  0
  4  5  1  0
  5  6  1  0
  5  7  1  0
  5  8  1  0
  8  9  1  0
  8 10  1  0
  8 11  1  0
  2 12  1  0
 12 13  2  0
 12 14  1  0
 14 15  1  0
 14 16  1  0
 16 17  2  0
 17 18  1  0
 17 19  1  0
 19 20  1  0
 19 21  2  0
 21 22  1  0
 22 23  1  0
 22 24  1  0
 22 25  1  0
 25 26  2  0
 26 27  1  0
 26 28  1  0
 28 29  1  0
 28 30  2  0
 30 31  1  0
 30 32  1  0
 32 33  1  0
 32 34  2  0
 34 35  1  0
 21 36  1  0
 36 37  1  0
 36 38  2  0
 38 39  1  0
 38 16  1  0
 34 25  1  0
M  END
>  <UniqueID>  (12) 
11

>  <SMILES>  (12) 
CCO/N=C\C(=O)Nc1ccc(Cc2ccccc2)cc1

>  <Energy>  (12) 
34.9098962462259

>  <Genealogy>  (12) 
CCO/N=C\C(=O)Nc1ccc(Cc2ccccc2)cc1 (cis-trans isomerization)
CCO/N=C\C(=O)Nc1ccc(Cc2ccccc2)cc1 (3D coordinates assigned)
CCO/N=C\C(=O)Nc1ccc(Cc2ccccc2)cc1 (optimized conformer: 34.9098962462259 kcal/mol)

>  <smiles>  (12) 
CCON=CC(=O)Nc1ccc(Cc2ccccc2)cc1

>  <score_type>  (12) 
oracle

>  <origin>  (12) 
adg

>  <m_score__min__energy>  (12) 
-7.8499999999999996

>  <m_primary>  (12) 
energy

$$$$
12:0
     RDKit          3D

 46 48  0  0  0  0  0  0  0  0999 V2000
   58.8930   32.6970   49.2560 C   0  0  0  0  0  0  0  0  0  0  0  0
   60.3860   32.9920   49.0750 C   0  0  0  0  0  0  0  0  0  0  0  0
   60.9680   32.3320   47.8750 N   0  0  0  0  0  0  0  0  0  0  0  0
   62.4490   32.4550   47.7960 C   0  0  0  0  0  0  0  0  0  0  0  0
   62.9480   33.5080   46.7930 C   0  0  0  0  0  0  0  0  0  0  0  0
   60.5440   30.9080   47.7980 C   0  0  0  0  0  0  0  0  0  0  0  0
   60.6470   30.3430   46.3700 C   0  0  0  0  0  0  0  0  0  0  0  0
   59.3230   29.9290   45.8910 N   0  0  0  0  0  0  0  0  0  0  0  0
   58.2700   30.7210   45.5290 C   0  0  0  0  0  0  0  0  0  0  0  0
   58.3020   32.1900   45.4320 C   0  0  0  0  0  0  0  0  0  0  0  0
   57.4410   32.9980   44.7090 C   0  0  0  0  0  0  0  0  0  0  0  0
   57.8560   34.2930   44.9420 C   0  0  0  0  0  0  0  0  0  0  0  0
   58.9350   34.1900   45.7970 C   0  0  0  0  0  0  0  0  0  0  0  0
   59.7170   35.3340   46.3490 C   0  0  0  0  0  0  0  0  0  0  0  0
   59.1720   32.9310   46.0790 O   0  0  0  0  0  0  0  0  0  0  0  0
   57.1120   30.0310   45.3590 N   0  0  0  0  0  0  0  0  0  0  0  0
   57.4690   28.7610   45.6170 C   0  0  0  0  0  0  0  0  0  0  0  0
   56.6480   27.6360   45.6170 C   0  0  0  0  0  0  0  0  0  0  0  0
   57.2230   26.4050   45.9780 C   0  0  0  0  0  0  0  0  0  0  0  0
   58.5870   26.3320   46.3370 C   0  0  0  0  0  0  0  0  0  0  0  0
   59.3890   27.4890   46.3340 C   0  0  0  0  0  0  0  0  0  0  0  0
   58.7910   28.6940   45.9510 C   0  0  0  0  0  0  0  0  0  0  0  0
   58.6560   32.6502   50.3291 H   0  0  0  0  0  0  0  0  0  0  0  0
   58.3016   33.4957   48.7844 H   0  0  0  0  0  0  0  0  0  0  0  0
   58.6498   31.7334   48.7844 H   0  0  0  0  0  0  0  0  0  0  0  0
   60.5189   34.0794   48.9760 H   0  0  0  0  0  0  0  0  0  0  0  0
   60.9094   32.5928   49.9563 H   0  0  0  0  0  0  0  0  0  0  0  0
   60.5940   32.8280   47.0300 H   0  0  0  0  0  0  0  0  0  0  0  0
   62.8251   32.7253   48.7937 H   0  0  0  0  0  0  0  0  0  0  0  0
   62.8256   31.4835   47.4434 H   0  0  0  0  0  0  0  0  0  0  0  0
   63.3567   34.3705   47.3398 H   0  0  0  0  0  0  0  0  0  0  0  0
   63.7338   33.0688   46.1608 H   0  0  0  0  0  0  0  0  0  0  0  0
   62.1105   33.8380   46.1608 H   0  0  0  0  0  0  0  0  0  0  0  0
   61.1871   30.3113   48.4615 H   0  0  0  0  0  0  0  0  0  0  0  0
   59.4891   30.8544   48.1053 H   0  0  0  0  0  0  0  0  0  0  0  0
   61.0493   31.1180   45.7010 H   0  0  0  0  0  0  0  0  0  0  0  0
   61.3149   29.4690   46.3776 H   0  0  0  0  0  0  0  0  0  0  0  0
   56.5996   32.6742   44.0788 H   0  0  0  0  0  0  0  0  0  0  0  0
   57.4184   35.2152   44.5320 H   0  0  0  0  0  0  0  0  0  0  0  0
   59.6926   35.2984   47.4482 H   0  0  0  0  0  0  0  0  0  0  0  0
   60.7590   35.2668   46.0030 H   0  0  0  0  0  0  0  0  0  0  0  0
   59.2760   36.2805   46.0030 H   0  0  0  0  0  0  0  0  0  0  0  0
   55.5850   27.7083   45.3436 H   0  0  0  0  0  0  0  0  0  0  0  0
   56.6071   25.4936   45.9809 H   0  0  0  0  0  0  0  0  0  0  0  0
   59.0259   25.3641   46.6210 H   0  0  0  0  0  0  0  0  0  0  0  0
   60.4495   27.4468   46.6229 H   0  0  0  0  0  0  0  0  0  0  0  0
  1  2  1  0
  2  3  1  0
  3  4  1  0
  4  5  1  0
  3  6  1  0
  6  7  1  0
  7  8  1  0
  8  9  1  0
  9 10  1  0
 10 11  2  0
 11 12  1  0
 12 13  2  0
 13 14  1  0
 13 15  1  0
  9 16  2  0
 16 17  1  0
 17 18  2  0
 18 19  1  0
 19 20  2  0
 20 21  1  0
 21 22  2  0
 22  8  1  0
 15 10  1  0
 22 17  1  0
  1 23  1  0
  1 24  1  0
  1 25  1  0
  2 26  1  0
  2 27  1  0
  3 28  1  0
  4 29  1  0
  4 30  1  0
  5 31  1  0
  5 32  1  0
  5 33  1  0
  6 34  1  0
  6 35  1  0
  7 36  1  0
  7 37  1  0
 11 38  1  0
 12 39  1  0
 14 40  1  0
 14 41  1  0
 14 42  1  0
 18 43  1  0
 19 44  1  0
 20 45  1  0
 21 46  1  0
M  CHG  1   3   1
M  END
>  <UniqueID>  (13) 
12

>  <SMILES>  (13) 
CC[NH+](CC)CCn1c(-c2ccc(C)o2)nc2ccccc21

>  <Energy>  (13) 
114.37521555961224

>  <Genealogy>  (13) 
CC[NH+](CC)CCn1c(-c2ccc(C)o2)nc2ccccc21 (protonated)
CC[NH+](CC)CCn1c(-c2ccc(C)o2)nc2ccccc21 (3D coordinates assigned)
CC[NH+](CC)CCn1c(-c2ccc(C)o2)nc2ccccc21 (optimized conformer: 114.37521555961224 kcal/mol)

>  <smiles>  (13) 
CCN(CC)CCn1c(-c2ccc(C)o2)nc2ccccc21

>  <score_type>  (13) 
oracle

>  <origin>  (13) 
adg

>  <m_score__min__energy>  (13) 
-4.71

>  <m_primary>  (13) 
energy

$$$$
13:0
     RDKit          3D

 27 28  0  0  0  0  0  0  0  0999 V2000
   57.3750   27.9130   45.2160 C   0  0  0  0  0  0  0  0  0  0  0  0
   56.2530   28.9140   44.9600 C   0  0  0  0  0  0  0  0  0  0  0  0
   56.7890   30.1360   44.3530 N   0  0  0  0  0  0  0  0  0  0  0  0
   57.3550   31.0430   45.1550 N   0  0  0  0  0  0  0  0  0  0  0  0
   57.9010   32.2000   44.6870 C   0  0  0  0  0  0  0  0  0  0  0  0
   58.5140   33.1570   45.6440 C   0  0  0  0  0  0  0  0  0  0  0  0
   58.5940   32.8260   47.0100 C   0  0  0  0  0  0  0  0  0  0  0  0
   59.1620   33.7170   47.9260 C   0  0  0  0  0  0  0  0  0  0  0  0
   59.6490   34.9510   47.4910 C   0  0  0  0  0  0  0  0  0  0  0  0
   59.5650   35.2990   46.1420 C   0  0  0  0  0  0  0  0  0  0  0  0
   60.0270   36.5040   45.7240 F   0  0  0  0  0  0  0  0  0  0  0  0
   58.9990   34.4110   45.2210 C   0  0  0  0  0  0  0  0  0  0  0  0
   57.8870   32.4360   43.3060 C   0  0  0  0  0  0  0  0  0  0  0  0
   57.3090   31.4960   42.4600 C   0  0  0  0  0  0  0  0  0  0  0  0
   56.7590   30.3340   42.9980 C   0  0  0  0  0  0  0  0  0  0  0  0
   56.2460   29.4770   42.2290 O   0  0  0  0  0  0  0  0  0  0  0  0
   57.5148   27.7882   46.2999 H   0  0  0  0  0  0  0  0  0  0  0  0
   57.1118   26.9442   44.7664 H   0  0  0  0  0  0  0  0  0  0  0  0
   58.3076   28.2846   44.7664 H   0  0  0  0  0  0  0  0  0  0  0  0
   55.5144   28.4649   44.2797 H   0  0  0  0  0  0  0  0  0  0  0  0
   55.7768   29.1699   45.9180 H   0  0  0  0  0  0  0  0  0  0  0  0
   58.2063   31.8579   47.3599 H   0  0  0  0  0  0  0  0  0  0  0  0
   59.2251   33.4454   48.9901 H   0  0  0  0  0  0  0  0  0  0  0  0
   60.0992   35.6494   48.2119 H   0  0  0  0  0  0  0  0  0  0  0  0
   58.9320   34.6932   44.1599 H   0  0  0  0  0  0  0  0  0  0  0  0
   58.3289   33.3558   42.8951 H   0  0  0  0  0  0  0  0  0  0  0  0
   57.2860   31.6683   41.3738 H   0  0  0  0  0  0  0  0  0  0  0  0
  1  2  1  0
  2  3  1  0
  3  4  1  0
  4  5  2  0
  5  6  1  0
  6  7  2  0
  7  8  1  0
  8  9  2  0
  9 10  1  0
 10 11  1  0
 10 12  2  0
  5 13  1  0
 13 14  2  0
 14 15  1  0
 15 16  2  0
 15  3  1  0
 12  6  1  0
  1 17  1  0
  1 18  1  0
  1 19  1  0
  2 20  1  0
  2 21  1  0
  7 22  1  0
  8 23  1  0
  9 24  1  0
 12 25  1  0
 13 26  1  0
 14 27  1  0
M  END
>  <UniqueID>  (14) 
13

>  <SMILES>  (14) 
CCn1nc(-c2cccc(F)c2)ccc1=O

>  <Energy>  (14) 
30.001859326084006

>  <Genealogy>  (14) 
CCn1nc(-c2cccc(F)c2)ccc1=O (3D coordinates assigned)
CCn1nc(-c2cccc(F)c2)ccc1=O (optimized conformer: 30.001859326084006 kcal/mol)

>  <smiles>  (14) 
CCn1nc(-c2cccc(F)c2)ccc1=O

>  <score_type>  (14) 
oracle

>  <origin>  (14) 
adg

>  <m_score__min__energy>  (14) 
-6.3399999999999999

>  <m_primary>  (14) 
energy

$$$$
14:0
     RDKit          3D

 50 53  0  0  0  0  0  0  0  0999 V2000
   64.2768   34.1682   46.5997 H   0  0  0  0  0  0  0  0  0  0  0  0
   63.4610   33.5220   46.9560 C   0  0  0  0  0  0  0  0  0  0  0  0
   63.7500   32.3920   47.7240 C   0  0  0  0  0  0  0  0  0  0  0  0
   64.7945   32.1438   47.9638 H   0  0  0  0  0  0  0  0  0  0  0  0
   62.7140   31.5750   48.1890 C   0  0  0  0  0  0  0  0  0  0  0  0
   62.9467   30.6746   48.7766 H   0  0  0  0  0  0  0  0  0  0  0  0
   61.3810   31.9010   47.9080 C   0  0  0  0  0  0  0  0  0  0  0  0
   60.3330   31.0350   48.3640 N   0  0  0  0  0  0  0  0  0  0  0  0
   59.6420   30.1320   47.7140 C   0  0  0  0  0  0  0  0  0  0  0  0
   59.7630   28.8230   48.1650 C   0  0  0  0  0  0  0  0  0  0  0  0
   60.2874   28.6198   49.1103 H   0  0  0  0  0  0  0  0  0  0  0  0
   59.2310   27.7720   47.4380 C   0  0  0  0  0  0  0  0  0  0  0  0
   59.3640   26.7449   47.8087 H   0  0  0  0  0  0  0  0  0  0  0  0
   58.5430   27.9740   46.2690 N   0  0  0  0  0  0  0  0  0  0  0  0
   57.9370   26.7720   45.6230 C   0  0  0  0  0  0  0  0  0  0  0  0
   58.0183   26.9637   44.5429 H   0  0  0  0  0  0  0  0  0  0  0  0
   56.4610   26.5690   46.0060 C   0  0  0  0  0  0  0  0  0  0  0  0
   56.2206   27.1350   46.9181 H   0  0  0  0  0  0  0  0  0  0  0  0
   55.7847   26.9262   45.2154 H   0  0  0  0  0  0  0  0  0  0  0  0
   56.2980   25.0780   46.2500 C   0  0  0  0  0  0  0  0  0  0  0  0
   55.5480   24.8972   47.0341 H   0  0  0  0  0  0  0  0  0  0  0  0
   55.9526   24.5536   45.3468 H   0  0  0  0  0  0  0  0  0  0  0  0
   57.6620   24.5850   46.6980 C   0  0  0  0  0  0  0  0  0  0  0  0
   57.7580   24.6668   47.7908 H   0  0  0  0  0  0  0  0  0  0  0  0
   57.8145   23.5277   46.4354 H   0  0  0  0  0  0  0  0  0  0  0  0
   58.6800   25.4830   46.0090 C   0  0  0  0  0  0  0  0  0  0  0  0
   59.5088   25.7133   46.6947 H   0  0  0  0  0  0  0  0  0  0  0  0
   59.1082   24.9911   45.1232 H   0  0  0  0  0  0  0  0  0  0  0  0
   58.4040   29.2650   45.7750 C   0  0  0  0  0  0  0  0  0  0  0  0
   57.8350   29.5380   44.5060 C   0  0  0  0  0  0  0  0  0  0  0  0
   57.6363   28.7050   43.8156 H   0  0  0  0  0  0  0  0  0  0  0  0
   57.5190   30.8480   44.1100 C   0  0  0  0  0  0  0  0  0  0  0  0
   56.9470   31.1370   42.8600 O   0  0  0  0  0  0  0  0  0  0  0  0
   57.5400   31.9670   41.8660 C   0  0  0  0  0  0  0  0  0  0  0  0
   58.1134   32.7696   42.3529 H   0  0  0  0  0  0  0  0  0  0  0  0
   58.2131   31.3641   41.2387 H   0  0  0  0  0  0  0  0  0  0  0  0
   56.7515   32.4083   41.2387 H   0  0  0  0  0  0  0  0  0  0  0  0
   57.7620   31.9100   44.9810 C   0  0  0  0  0  0  0  0  0  0  0  0
   57.3630   33.1980   44.5890 O   0  0  0  0  0  0  0  0  0  0  0  0
   58.0740   34.3940   44.8960 C   0  0  0  0  0  0  0  0  0  0  0  0
   58.1428   34.5097   45.9877 H   0  0  0  0  0  0  0  0  0  0  0  0
   59.0861   34.3389   44.4686 H   0  0  0  0  0  0  0  0  0  0  0  0
   57.5420   35.2568   44.4686 H   0  0  0  0  0  0  0  0  0  0  0  0
   58.3990   31.6670   46.2040 C   0  0  0  0  0  0  0  0  0  0  0  0
   58.5535   32.5002   46.9053 H   0  0  0  0  0  0  0  0  0  0  0  0
   58.8470   30.3760   46.5560 C   0  0  0  0  0  0  0  0  0  0  0  0
   61.0960   33.0180   47.1030 C   0  0  0  0  0  0  0  0  0  0  0  0
   60.0546   33.2520   46.8370 H   0  0  0  0  0  0  0  0  0  0  0  0
   62.1350   33.8320   46.6400 C   0  0  0  0  0  0  0  0  0  0  0  0
   61.9085   34.7167   46.0268 H   0  0  0  0  0  0  0  0  0  0  0  0
  1  2  1  0
  2  3  2  0
  3  4  1  0
  3  5  1  0
  5  6  1  0
  5  7  2  0
  7  8  1  0
  8  9  2  0
  9 10  1  0
 10 11  1  0
 10 12  2  0
 12 13  1  0
 12 14  1  0
 14 15  1  0
 15 16  1  0
 15 17  1  0
 17 18  1  0
 17 19  1  0
 17 20  1  0
 20 21  1  0
 20 22  1  0
 20 23  1  0
 23 24  1  0
 23 25  1  0
 23 26  1  0
 26 27  1  0
 26 28  1  0
 14 29  1  0
 29 30  2  0
 30 31  1  0
 30 32  1  0
 32 33  1  0
 33 34  1  0
 34 35  1  0
 34 36  1  0
 34 37  1  0
 32 38  2  0
 38 39  1  0
 39 40  1  0
 40 41  1  0
 40 42  1  0
 40 43  1  0
 38 44  1  0
 44 45  1  0
 44 46  2  0
  7 47  1  0
 47 48  1  0
 47 49  2  0
 49 50  1  0
 49  2  1  0
 46  9  1  0
 26 15  1  0
 46 29  1  0
M  END
>  <UniqueID>  (15) 
14

>  <SMILES>  (15) 
COc1cc2/c(=N\c3ccccc3)ccn(C3CCCC3)c2cc1OC

>  <Energy>  (15) 
88.34160896312774

>  <Genealogy>  (15) 
COc1cc2/c(=N\c3ccccc3)ccn(C3CCCC3)c2cc1OC (cis-trans isomerization)
COc1cc2/c(=N\c3ccccc3)ccn(C3CCCC3)c2cc1OC (3D coordinates assigned)
COc1cc2/c(=N\c3ccccc3)ccn(C3CCCC3)c2cc1OC (nonaromatic ring conformer: 88.34160896312774 kcal/mol)

>  <smiles>  (15) 
COc1cc2c(=Nc3ccccc3)ccn(C3CCCC3)c2cc1OC

>  <score_type>  (15) 
oracle

>  <origin>  (15) 
adg

>  <m_score__min__energy>  (15) 
-7.3700000000000001

>  <m_primary>  (15) 
energy

$$$$
15:0
     RDKit          3D

 43 44  0  0  0  0  0  0  0  0999 V2000
   63.6640   33.0540   46.7690 C   0  0  0  0  0  0  0  0  0  0  0  0
   62.9290   33.8570   47.8550 C   0  0  0  0  0  0  0  0  0  0  0  0
   61.7180   33.1920   48.3950 N   0  0  0  0  0  0  0  0  0  0  0  0
   61.9720   32.2550   49.5120 C   0  0  0  0  0  0  0  0  0  0  0  0
   61.3640   30.8680   49.2570 C   0  0  0  0  0  0  0  0  0  0  0  0
   60.5890   30.8450   48.0170 N   0  0  0  0  0  0  0  0  0  0  0  0
   60.1750   29.6100   47.4170 C   0  0  0  0  0  0  0  0  0  0  0  0
   60.6630   28.5190   47.8210 O   0  0  0  0  0  0  0  0  0  0  0  0
   59.2150   29.6020   46.2940 C   0  0  0  0  0  0  0  0  0  0  0  0
   59.2230   30.6740   45.3860 C   0  0  0  0  0  0  0  0  0  0  0  0
   58.3180   30.7120   44.3220 C   0  0  0  0  0  0  0  0  0  0  0  0
   57.4010   29.6730   44.1450 C   0  0  0  0  0  0  0  0  0  0  0  0
   56.2680   29.7210   42.8070 Cl  0  0  0  0  0  0  0  0  0  0  0  0
   57.3960   28.5900   45.0280 C   0  0  0  0  0  0  0  0  0  0  0  0
   58.2980   28.5420   46.0980 C   0  0  0  0  0  0  0  0  0  0  0  0
   58.3040   27.0990   47.1090 Cl  0  0  0  0  0  0  0  0  0  0  0  0
   60.5390   34.0790   48.5380 C   0  0  0  0  0  0  0  0  0  0  0  0
   59.5990   34.0510   47.3560 C   0  0  0  0  0  0  0  0  0  0  0  0
   58.3430   33.4280   47.4590 C   0  0  0  0  0  0  0  0  0  0  0  0
   57.4780   33.4000   46.3600 C   0  0  0  0  0  0  0  0  0  0  0  0
   57.8640   33.9820   45.1490 C   0  0  0  0  0  0  0  0  0  0  0  0
   59.1170   34.5880   45.0340 C   0  0  0  0  0  0  0  0  0  0  0  0
   59.9850   34.6180   46.1290 C   0  0  0  0  0  0  0  0  0  0  0  0
   64.3338   32.3222   47.2442 H   0  0  0  0  0  0  0  0  0  0  0  0
   62.9295   32.5263   46.1429 H   0  0  0  0  0  0  0  0  0  0  0  0
   64.2545   33.7391   46.1429 H   0  0  0  0  0  0  0  0  0  0  0  0
   63.6272   34.0289   48.6875 H   0  0  0  0  0  0  0  0  0  0  0  0
   62.5897   34.7895   47.3802 H   0  0  0  0  0  0  0  0  0  0  0  0
   63.0588   32.1465   49.6429 H   0  0  0  0  0  0  0  0  0  0  0  0
   61.4989   32.6698   50.4143 H   0  0  0  0  0  0  0  0  0  0  0  0
   62.1757   30.1290   49.1855 H   0  0  0  0  0  0  0  0  0  0  0  0
   60.6892   30.6270   50.0916 H   0  0  0  0  0  0  0  0  0  0  0  0
   60.3400   31.7420   47.5400 H   0  0  0  0  0  0  0  0  0  0  0  0
   59.9484   31.4910   45.5138 H   0  0  0  0  0  0  0  0  0  0  0  0
   58.3276   31.5612   43.6228 H   0  0  0  0  0  0  0  0  0  0  0  0
   56.6784   27.7693   44.8815 H   0  0  0  0  0  0  0  0  0  0  0  0
   59.9790   33.7677   49.4321 H   0  0  0  0  0  0  0  0  0  0  0  0
   60.9229   35.1071   48.6136 H   0  0  0  0  0  0  0  0  0  0  0  0
   58.0393   32.9608   48.4074 H   0  0  0  0  0  0  0  0  0  0  0  0
   56.4926   32.9193   46.4488 H   0  0  0  0  0  0  0  0  0  0  0  0
   57.1810   33.9627   44.2869 H   0  0  0  0  0  0  0  0  0  0  0  0
   59.4214   35.0426   44.0797 H   0  0  0  0  0  0  0  0  0  0  0  0
   60.9749   35.0875   46.0302 H   0  0  0  0  0  0  0  0  0  0  0  0
  1  2  1  0
  2  3  1  0
  3  4  1  0
  4  5  1  0
  5  6  1  0
  6  7  1  0
  7  8  2  0
  7  9  1  0
  9 10  2  0
 10 11  1  0
 11 12  2  0
 12 13  1  0
 12 14  1  0
 14 15  2  0
 15 16  1  0
  3 17  1  0
 17 18  1  0
 18 19  2  0
 19 20  1  0
 20 21  2  0
 21 22  1  0
 22 23  2  0
 15  9  1  0
 23 18  1  0
  1 24  1  0
  1 25  1  0
  1 26  1  0
  2 27  1  0
  2 28  1  0
  4 29  1  0
  4 30  1  0
  5 31  1  0
  5 32  1  0
  6 33  1  0
 10 34  1  0
 11 35  1  0
 14 36  1  0
 17 37  1  0
 17 38  1  0
 19 39  1  0
 20 40  1  0
 21 41  1  0
 22 42  1  0
 23 43  1  0
M  END
>  <UniqueID>  (16) 
15

>  <SMILES>  (16) 
CCN(CCNC(=O)c1ccc(Cl)cc1Cl)Cc1ccccc1

>  <Energy>  (16) 
51.717428234074575

>  <Genealogy>  (16) 
CCN(CCNC(=O)c1ccc(Cl)cc1Cl)Cc1ccccc1 (3D coordinates assigned)
CCN(CCNC(=O)c1ccc(Cl)cc1Cl)Cc1ccccc1 (optimized conformer: 51.717428234074575 kcal/mol)

>  <smiles>  (16) 
CCN(CCNC(=O)c1ccc(Cl)cc1Cl)Cc1ccccc1

>  <score_type>  (16) 
oracle

>  <origin>  (16) 
adg

>  <m_score__min__energy>  (16) 
-7.3600000000000003

>  <m_primary>  (16) 
energy

$$$$
16:0
     RDKit          3D

 47 48  0  0  0  0  0  0  0  0999 V2000
   63.1080   32.1280   47.5140 C   0  0  0  0  0  0  0  0  0  0  0  0
   61.6470   32.3410   47.4610 N   0  0  2  0  0  0  0  0  0  0  0  0
   61.1960   33.3420   48.4610 C   0  0  0  0  0  0  0  0  0  0  0  0
   59.6630   33.3730   48.6050 C   0  0  0  0  0  0  0  0  0  0  0  0
   59.0160   33.6890   47.2820 C   0  0  0  0  0  0  0  0  0  0  0  0
   59.6430   34.5590   46.3760 C   0  0  0  0  0  0  0  0  0  0  0  0
   59.0570   34.8240   45.1340 C   0  0  0  0  0  0  0  0  0  0  0  0
   57.8490   34.2150   44.7850 C   0  0  0  0  0  0  0  0  0  0  0  0
   57.2260   33.3360   45.6760 C   0  0  0  0  0  0  0  0  0  0  0  0
   57.8080   33.0680   46.9190 C   0  0  0  0  0  0  0  0  0  0  0  0
   60.9020   31.0610   47.5840 C   0  0  0  0  0  0  0  0  0  0  0  0
   60.9250   30.1880   46.3110 C   0  0  0  0  0  0  0  0  0  0  0  0
   59.6030   29.4900   46.1350 C   0  0  0  0  0  0  0  0  0  0  0  0
   58.8190   29.7350   44.9970 C   0  0  0  0  0  0  0  0  0  0  0  0
   57.6070   29.0630   44.8140 C   0  0  0  0  0  0  0  0  0  0  0  0
   57.1660   28.1240   45.7650 C   0  0  0  0  0  0  0  0  0  0  0  0
   55.9330   27.4070   45.6210 N   0  0  0  0  0  0  0  0  0  0  0  0
   55.7320   25.6910   45.7700 S   0  0  0  0  0  0  0  0  0  0  0  0
   56.6970   24.8500   44.5340 C   0  0  0  0  0  0  0  0  0  0  0  0
   54.2790   25.3300   45.6360 O   0  0  0  0  0  0  0  0  0  0  0  0
   56.2120   25.2660   47.1290 O   0  0  0  0  0  0  0  0  0  0  0  0
   57.9570   27.8730   46.8930 C   0  0  0  0  0  0  0  0  0  0  0  0
   59.1690   28.5450   47.0760 C   0  0  0  0  0  0  0  0  0  0  0  0
   63.4338   32.0805   48.5636 H   0  0  0  0  0  0  0  0  0  0  0  0
   63.3594   31.1837   47.0089 H   0  0  0  0  0  0  0  0  0  0  0  0
   63.6186   32.9612   47.0089 H   0  0  0  0  0  0  0  0  0  0  0  0
   61.4240   32.7080   46.5050 H   0  0  0  0  0  0  0  0  0  0  0  0
   61.6381   33.0917   49.4366 H   0  0  0  0  0  0  0  0  0  0  0  0
   61.5221   34.3341   48.1154 H   0  0  0  0  0  0  0  0  0  0  0  0
   59.3121   32.3907   48.9543 H   0  0  0  0  0  0  0  0  0  0  0  0
   59.3892   34.1530   49.3307 H   0  0  0  0  0  0  0  0  0  0  0  0
   60.5984   35.0339   46.6438 H   0  0  0  0  0  0  0  0  0  0  0  0
   59.5480   35.5129   44.4309 H   0  0  0  0  0  0  0  0  0  0  0  0
   57.3880   34.4271   43.8090 H   0  0  0  0  0  0  0  0  0  0  0  0
   56.2766   32.8545   45.3989 H   0  0  0  0  0  0  0  0  0  0  0  0
   57.3195   32.3696   47.6144 H   0  0  0  0  0  0  0  0  0  0  0  0
   61.3458   30.4817   48.4071 H   0  0  0  0  0  0  0  0  0  0  0  0
   59.8498   31.3251   47.7660 H   0  0  0  0  0  0  0  0  0  0  0  0
   61.1181   30.8263   45.4362 H   0  0  0  0  0  0  0  0  0  0  0  0
   61.7192   29.4331   46.4079 H   0  0  0  0  0  0  0  0  0  0  0  0
   59.1605   30.4606   44.2441 H   0  0  0  0  0  0  0  0  0  0  0  0
   56.9955   29.2690   43.9231 H   0  0  0  0  0  0  0  0  0  0  0  0
   57.4389   24.2034   45.0254 H   0  0  0  0  0  0  0  0  0  0  0  0
   56.0342   24.2363   43.9063 H   0  0  0  0  0  0  0  0  0  0  0  0
   57.2144   25.5904   43.9063 H   0  0  0  0  0  0  0  0  0  0  0  0
   57.6215   27.1404   47.6418 H   0  0  0  0  0  0  0  0  0  0  0  0
   59.7851   28.3317   47.9620 H   0  0  0  0  0  0  0  0  0  0  0  0
  1  2  1  0
  2  3  1  0
  3  4  1  0
  4  5  1  0
  5  6  2  0
  6  7  1  0
  7  8  2  0
  8  9  1  0
  9 10  2  0
  2 11  1  0
 11 12  1  0
 12 13  1  0
 13 14  2  0
 14 15  1  0
 15 16  2  0
 16 17  1  0
 17 18  1  0
 18 19  1  0
 18 20  2  0
 18 21  2  0
 16 22  1  0
 22 23  2  0
 10  5  1  0
 23 13  1  0
  1 24  1  0
  1 25  1  0
  1 26  1  0
  2 27  1  6
  3 28  1  0
  3 29  1  0
  4 30  1  0
  4 31  1  0
  6 32  1  0
  7 33  1  0
  8 34  1  0
  9 35  1  0
 10 36  1  0
 11 37  1  0
 11 38  1  0
 12 39  1  0
 12 40  1  0
 14 41  1  0
 15 42  1  0
 19 43  1  0
 19 44  1  0
 19 45  1  0
 22 46  1  0
 23 47  1  0
M  CHG  2   2   1  17  -1
M  END
>  <UniqueID>  (17) 
16

>  <SMILES>  (17) 
C[N@H+](CCc1ccccc1)CCc1ccc([N-]S(C)(=O)=O)cc1

>  <Energy>  (17) 
45.913713307971555

>  <Genealogy>  (17) 
C[NH+](CCc1ccccc1)CCc1ccc([N-]S(C)(=O)=O)cc1 (protonated)
C[N@H+](CCc1ccccc1)CCc1ccc([N-]S(C)(=O)=O)cc1 (chirality)
C[N@H+](CCc1ccccc1)CCc1ccc([N-]S(C)(=O)=O)cc1 (3D coordinates assigned)
C[N@H+](CCc1ccccc1)CCc1ccc([N-]S(C)(=O)=O)cc1 (optimized conformer: 45.913713307971555 kcal/mol)

>  <smiles>  (17) 
CN(CCc1ccccc1)CCc1ccc(NS(C)(=O)=O)cc1

>  <score_type>  (17) 
oracle

>  <origin>  (17) 
adg

>  <m_score__min__energy>  (17) 
-8.4299999999999997

>  <m_primary>  (17) 
energy

$$$$
17:0
     RDKit          3D

 33 34  0  0  0  0  0  0  0  0999 V2000
   56.5390   30.2220   43.0410 C   0  0  0  0  0  0  0  0  0  0  0  0
   56.3190   29.3470   44.2330 C   0  0  0  0  0  0  0  0  0  0  0  0
   55.1920   29.3520   44.7980 O   0  0  0  0  0  0  0  0  0  0  0  0
   57.3840   28.5520   44.7760 N   0  0  0  0  0  0  0  0  0  0  0  0
   58.0270   27.4480   44.1520 C   0  0  0  0  0  0  0  0  0  0  0  0
   57.7720   27.0220   42.8110 N   0  0  0  0  0  0  0  0  0  0  0  0
   58.8020   26.7920   44.9420 N   0  0  0  0  0  0  0  0  0  0  0  0
   58.7790   27.3680   46.2780 C   0  0  0  0  0  0  0  0  0  0  0  0
   57.7970   28.5590   46.1770 C   0  0  1  0  0  0  0  0  0  0  0  0
   58.4840   29.8880   46.5410 C   0  0  0  0  0  0  0  0  0  0  0  0
   57.7760   31.0020   45.9970 O   0  0  0  0  0  0  0  0  0  0  0  0
   58.2910   32.3000   45.8400 C   0  0  0  0  0  0  0  0  0  0  0  0
   57.5600   33.2100   45.0670 C   0  0  0  0  0  0  0  0  0  0  0  0
   58.0230   34.5160   44.8810 C   0  0  0  0  0  0  0  0  0  0  0  0
   59.2240   34.9230   45.4660 C   0  0  0  0  0  0  0  0  0  0  0  0
   59.9650   34.0240   46.2370 C   0  0  0  0  0  0  0  0  0  0  0  0
   61.1320   34.4190   46.8030 F   0  0  0  0  0  0  0  0  0  0  0  0
   59.5050   32.7150   46.4250 C   0  0  0  0  0  0  0  0  0  0  0  0
   56.7946   31.2386   43.3745 H   0  0  0  0  0  0  0  0  0  0  0  0
   57.3632   29.8166   42.4357 H   0  0  0  0  0  0  0  0  0  0  0  0
   55.6211   30.2546   42.4357 H   0  0  0  0  0  0  0  0  0  0  0  0
   57.0250   27.4590   42.2320 H   0  0  0  0  0  0  0  0  0  0  0  0
   58.2920   26.2100   42.4120 H   0  0  0  0  0  0  0  0  0  0  0  0
   59.3350   25.9360   44.6730 H   0  0  0  0  0  0  0  0  0  0  0  0
   58.4204   26.6311   47.0117 H   0  0  0  0  0  0  0  0  0  0  0  0
   59.7789   27.6811   46.6128 H   0  0  0  0  0  0  0  0  0  0  0  0
   56.9510   28.4653   46.8738 H   0  0  0  0  0  0  0  0  0  0  0  0
   58.5191   29.9854   47.6361 H   0  0  0  0  0  0  0  0  0  0  0  0
   59.4998   29.8816   46.1190 H   0  0  0  0  0  0  0  0  0  0  0  0
   56.6140   32.8950   44.6024 H   0  0  0  0  0  0  0  0  0  0  0  0
   57.4405   35.2239   44.2731 H   0  0  0  0  0  0  0  0  0  0  0  0
   59.5865   35.9512   45.3197 H   0  0  0  0  0  0  0  0  0  0  0  0
   60.0920   32.0087   47.0305 H   0  0  0  0  0  0  0  0  0  0  0  0
  1  2  1  0
  2  3  2  0
  2  4  1  0
  4  5  1  0
  5  6  1  0
  5  7  2  0
  7  8  1  0
  8  9  1  0
  9 10  1  0
 10 11  1  0
 11 12  1  0
 12 13  2  0
 13 14  1  0
 14 15  2  0
 15 16  1  0
 16 17  1  0
 16 18  2  0
  9  4  1  0
 18 12  1  0
  1 19  1  0
  1 20  1  0
  1 21  1  0
  6 22  1  0
  6 23  1  0
  7 24  1  0
  8 25  1  0
  8 26  1  0
  9 27  1  1
 10 28  1  0
 10 29  1  0
 13 30  1  0
 14 31  1  0
 15 32  1  0
 18 33  1  0
M  CHG  1   7   1
M  END
>  <UniqueID>  (18) 
17

>  <SMILES>  (18) 
CC(=O)N1C(N)=[NH+]C[C@H]1COc1cccc(F)c1

>  <Energy>  (18) 
44.98469106668007

>  <Genealogy>  (18) 
CC(=O)N1C(N)=[NH+]CC1COc1cccc(F)c1 (protonated)
CC(=O)N1C(N)=[NH+]C[C@H]1COc1cccc(F)c1 (chirality)
CC(=O)N1C(N)=[NH+]C[C@H]1COc1cccc(F)c1 (3D coordinates assigned)
CC(=O)N1C(N)=[NH+]C[C@H]1COc1cccc(F)c1 (nonaromatic ring conformer: 44.98469106668007 kcal/mol)

>  <smiles>  (18) 
CC(=O)N1C(N)=NCC1COc1cccc(F)c1

>  <score_type>  (18) 
oracle

>  <origin>  (18) 
adg

>  <m_score__min__energy>  (18) 
-4.9900000000000002

>  <m_primary>  (18) 
energy

$$$$
18:0
     RDKit          3D

 37 39  0  0  0  0  0  0  0  0999 V2000
   63.2370   33.5630   46.7680 C   0  0  0  0  0  0  0  0  0  0  0  0
   61.7820   33.3360   47.1710 C   0  0  0  0  0  0  0  0  0  0  0  0
   61.4020   34.2010   48.3770 C   0  0  0  0  0  0  0  0  0  0  0  0
   59.9170   34.5730   48.3420 C   0  0  0  0  0  0  0  0  0  0  0  0
   59.4480   34.6300   46.9610 N   0  0  0  0  0  0  0  0  0  0  0  0
   59.7730   35.5780   46.0820 N   0  0  0  0  0  0  0  0  0  0  0  0
   59.2550   35.2350   44.8690 C   0  0  0  0  0  0  0  0  0  0  0  0
   58.6090   34.0270   45.0190 C   0  0  0  0  0  0  0  0  0  0  0  0
   57.9720   33.0760   44.2360 C   0  0  0  0  0  0  0  0  0  0  0  0
   57.6350   31.9560   45.0250 C   0  0  0  0  0  0  0  0  0  0  0  0
   56.9510   30.7540   44.5050 C   0  0  0  0  0  0  0  0  0  0  0  0
   56.3640   30.8150   43.3930 O   0  0  0  0  0  0  0  0  0  0  0  0
   56.9020   29.5230   45.2400 N   0  0  0  0  0  0  0  0  0  0  0  0
   58.0300   28.8350   45.7970 C   0  0  0  0  0  0  0  0  0  0  0  0
   58.4240   29.1470   47.1050 C   0  0  0  0  0  0  0  0  0  0  0  0
   59.5380   28.5250   47.6770 C   0  0  0  0  0  0  0  0  0  0  0  0
   60.0850   28.9850   49.4480 Br  0  0  0  0  0  0  0  0  0  0  0  0
   60.2540   27.5710   46.9510 C   0  0  0  0  0  0  0  0  0  0  0  0
   59.8480   27.2260   45.6590 C   0  0  0  0  0  0  0  0  0  0  0  0
   58.7340   27.8430   45.0780 C   0  0  0  0  0  0  0  0  0  0  0  0
   58.1730   27.2390   43.3470 Br  0  0  0  0  0  0  0  0  0  0  0  0
   58.1260   32.1930   46.6570 S   0  0  0  0  0  0  0  0  0  0  0  0
   58.7470   33.7030   46.3020 C   0  0  0  0  0  0  0  0  0  0  0  0
   63.8569   33.6597   47.6715 H   0  0  0  0  0  0  0  0  0  0  0  0
   63.5896   32.7090   46.1711 H   0  0  0  0  0  0  0  0  0  0  0  0
   63.3127   34.4838   46.1711 H   0  0  0  0  0  0  0  0  0  0  0  0
   61.1300   33.5948   46.3237 H   0  0  0  0  0  0  0  0  0  0  0  0
   61.6568   32.2784   47.4465 H   0  0  0  0  0  0  0  0  0  0  0  0
   61.6105   33.6412   49.3007 H   0  0  0  0  0  0  0  0  0  0  0  0
   61.9952   35.1268   48.3439 H   0  0  0  0  0  0  0  0  0  0  0  0
   59.3389   33.8157   48.8919 H   0  0  0  0  0  0  0  0  0  0  0  0
   59.7812   35.5592   48.8100 H   0  0  0  0  0  0  0  0  0  0  0  0
   59.3376   35.8168   43.9391 H   0  0  0  0  0  0  0  0  0  0  0  0
   57.7612   33.1794   43.1614 H   0  0  0  0  0  0  0  0  0  0  0  0
   57.8530   29.8863   47.6858 H   0  0  0  0  0  0  0  0  0  0  0  0
   61.1379   27.0909   47.3962 H   0  0  0  0  0  0  0  0  0  0  0  0
   60.4073   26.4649   45.0952 H   0  0  0  0  0  0  0  0  0  0  0  0
  1  2  1  0
  2  3  1  0
  3  4  1  0
  4  5  1  0
  5  6  1  0
  6  7  2  0
  7  8  1  0
  8  9  1  0
  9 10  2  0
 10 11  1  0
 11 12  2  0
 11 13  1  0
 13 14  1  0
 14 15  2  0
 15 16  1  0
 16 17  1  0
 16 18  2  0
 18 19  1  0
 19 20  2  0
 20 21  1  0
 10 22  1  0
 22 23  1  0
 23  5  1  0
 23  8  2  0
 20 14  1  0
  1 24  1  0
  1 25  1  0
  1 26  1  0
  2 27  1  0
  2 28  1  0
  3 29  1  0
  3 30  1  0
  4 31  1  0
  4 32  1  0
  7 33  1  0
  9 34  1  0
 15 35  1  0
 18 36  1  0
 19 37  1  0
M  CHG  1  13  -1
M  END
>  <UniqueID>  (19) 
18

>  <SMILES>  (19) 
CCCCn1ncc2cc(C(=O)[N-]c3cc(Br)ccc3Br)sc21

>  <Energy>  (19) 
120.10245377689293

>  <Genealogy>  (19) 
CCCCn1ncc2cc(C(=O)[N-]c3cc(Br)ccc3Br)sc21 (protonated)
CCCCn1ncc2cc(C(=O)[N-]c3cc(Br)ccc3Br)sc21 (3D coordinates assigned)
CCCCn1ncc2cc(C(=O)[N-]c3cc(Br)ccc3Br)sc21 (optimized conformer: 120.10245377689293 kcal/mol)

>  <smiles>  (19) 
CCCCn1ncc2cc(C(=O)Nc3cc(Br)ccc3Br)sc21

>  <score_type>  (19) 
oracle

>  <origin>  (19) 
adg

>  <m_score__min__energy>  (19) 
-9.5099999999999998

>  <m_primary>  (19) 
energy

$$$$
19:0
     RDKit          3D

 37 40  0  0  0  0  0  0  0  0999 V2000
   66.2720   34.2250   52.9030 C   0  0  0  0  0  0  0  0  0  0  0  0
   65.7390   33.7870   51.6200 N   0  0  0  0  0  0  0  0  0  0  0  0
   64.5100   34.0570   51.1460 C   0  0  0  0  0  0  0  0  0  0  0  0
   64.3630   33.4070   49.9320 C   0  0  0  0  0  0  0  0  0  0  0  0
   63.1770   33.4110   49.0360 C   0  0  0  0  0  0  0  0  0  0  0  0
   61.9490   33.9420   49.4740 C   0  0  0  0  0  0  0  0  0  0  0  0
   60.8340   33.9420   48.6310 C   0  0  0  0  0  0  0  0  0  0  0  0
   60.9220   33.4110   47.3370 C   0  0  0  0  0  0  0  0  0  0  0  0
   59.7440   33.4110   46.4440 C   0  0  0  0  0  0  0  0  0  0  0  0
   59.3310   34.5980   45.7940 C   0  0  0  0  0  0  0  0  0  0  0  0
   59.9920   35.7640   46.0090 F   0  0  0  0  0  0  0  0  0  0  0  0
   58.2190   34.5900   44.9280 C   0  0  0  0  0  0  0  0  0  0  0  0
   57.5120   33.4040   44.6880 C   0  0  0  0  0  0  0  0  0  0  0  0
   57.9360   32.2460   45.3360 C   0  0  0  0  0  0  0  0  0  0  0  0
   59.0150   32.2360   46.1960 C   0  0  0  0  0  0  0  0  0  0  0  0
   59.2750   30.8370   46.6970 C   0  0  0  0  0  0  0  0  0  0  0  0
   58.2370   30.0370   46.0440 N   0  0  0  0  0  0  0  0  0  0  0  0
   57.4450   30.8960   45.2390 C   0  0  0  0  0  0  0  0  0  0  0  0
   56.4680   30.5120   44.5440 O   0  0  0  0  0  0  0  0  0  0  0  0
   62.1440   32.8890   46.8920 C   0  0  0  0  0  0  0  0  0  0  0  0
   63.2600   32.8860   47.7330 C   0  0  0  0  0  0  0  0  0  0  0  0
   65.5670   32.7420   49.7440 C   0  0  0  0  0  0  0  0  0  0  0  0
   66.3820   32.9830   50.7900 N   0  0  0  0  0  0  0  0  0  0  0  0
   65.7005   33.7553   53.7171 H   0  0  0  0  0  0  0  0  0  0  0  0
   67.3292   33.9313   52.9804 H   0  0  0  0  0  0  0  0  0  0  0  0
   66.1888   35.3191   52.9804 H   0  0  0  0  0  0  0  0  0  0  0  0
   63.7526   34.6853   51.6374 H   0  0  0  0  0  0  0  0  0  0  0  0
   61.8662   34.3604   50.4880 H   0  0  0  0  0  0  0  0  0  0  0  0
   59.8810   34.3616   48.9856 H   0  0  0  0  0  0  0  0  0  0  0  0
   57.9035   35.5222   44.4366 H   0  0  0  0  0  0  0  0  0  0  0  0
   56.6476   33.3880   44.0079 H   0  0  0  0  0  0  0  0  0  0  0  0
   60.2779   30.4946   46.4021 H   0  0  0  0  0  0  0  0  0  0  0  0
   59.2431   30.7639   47.7941 H   0  0  0  0  0  0  0  0  0  0  0  0
   58.1020   29.0070   46.1520 H   0  0  0  0  0  0  0  0  0  0  0  0
   62.2252   32.4791   45.8745 H   0  0  0  0  0  0  0  0  0  0  0  0
   64.2123   32.4694   47.3731 H   0  0  0  0  0  0  0  0  0  0  0  0
   65.8172   32.1151   48.8754 H   0  0  0  0  0  0  0  0  0  0  0  0
  1  2  1  0
  2  3  1  0
  3  4  2  0
  4  5  1  0
  5  6  2  0
  6  7  1  0
  7  8  2  0
  8  9  1  0
  9 10  2  0
 10 11  1  0
 10 12  1  0
 12 13  2  0
 13 14  1  0
 14 15  2  0
 15 16  1  0
 16 17  1  0
 17 18  1  0
 18 19  2  0
  8 20  1  0
 20 21  2  0
  4 22  1  0
 22 23  2  0
 23  2  1  0
 21  5  1  0
 15  9  1  0
 18 14  1  0
  1 24  1  0
  1 25  1  0
  1 26  1  0
  3 27  1  0
  6 28  1  0
  7 29  1  0
 12 30  1  0
 13 31  1  0
 16 32  1  0
 16 33  1  0
 17 34  1  0
 20 35  1  0
 21 36  1  0
 22 37  1  0
M  END
>  <UniqueID>  (20) 
19

>  <SMILES>  (20) 
Cn1cc(-c2ccc(-c3c(F)ccc4c3CNC4=O)cc2)cn1

>  <Energy>  (20) 
100.2464329839363

>  <Genealogy>  (20) 
Cn1cc(-c2ccc(-c3c(F)ccc4c3CNC4=O)cc2)cn1 (3D coordinates assigned)
Cn1cc(-c2ccc(-c3c(F)ccc4c3CNC4=O)cc2)cn1 (nonaromatic ring conformer: 100.2464329839363 kcal/mol)

>  <smiles>  (20) 
Cn1cc(-c2ccc(-c3c(F)ccc4c3CNC4=O)cc2)cn1

>  <score_type>  (20) 
oracle

>  <origin>  (20) 
adg

>  <m_score__min__energy>  (20) 
-7.8399999999999999

>  <m_primary>  (20) 
energy

$$$$
20:0
     RDKit          3D

 47 49  0  0  0  0  0  0  0  0999 V2000
   59.3510   34.6240   45.2490 C   0  0  0  0  0  0  0  0  0  0  0  0
   59.1280   34.6570   46.7030 N   0  0  0  0  0  0  0  0  0  0  0  0
   58.0570   33.7060   47.0530 C   0  0  0  0  0  0  0  0  0  0  0  0
   60.3830   34.3280   47.4150 C   0  0  0  0  0  0  0  0  0  0  0  0
   61.4430   33.7940   46.4370 C   0  0  0  0  0  0  0  0  0  0  0  0
   62.7290   33.3050   47.1340 C   0  0  0  0  0  0  0  0  0  0  0  0
   62.7110   31.8730   47.4890 N   0  0  0  0  0  0  0  0  0  0  0  0
   61.6610   31.5120   48.4720 C   0  0  0  0  0  0  0  0  0  0  0  0
   60.6180   30.5840   47.8680 C   0  0  0  0  0  0  0  0  0  0  0  0
   59.9250   31.0270   46.7200 C   0  0  0  0  0  0  0  0  0  0  0  0
   59.0220   30.1690   46.1020 C   0  0  0  0  0  0  0  0  0  0  0  0
   58.8110   28.9060   46.6230 C   0  0  0  0  0  0  0  0  0  0  0  0
   57.6850   28.0610   45.6860 S   0  0  0  0  0  0  0  0  0  0  0  0
   57.4640   29.3270   44.5950 C   0  0  0  0  0  0  0  0  0  0  0  0
   56.6290   29.3540   43.4800 C   0  0  0  0  0  0  0  0  0  0  0  0
   56.5980   30.5200   42.7010 C   0  0  0  0  0  0  0  0  0  0  0  0
   57.3910   31.6300   43.0490 C   0  0  0  0  0  0  0  0  0  0  0  0
   58.2240   31.5850   44.1780 C   0  0  0  0  0  0  0  0  0  0  0  0
   58.2560   30.4170   44.9500 C   0  0  0  0  0  0  0  0  0  0  0  0
   59.4680   28.4780   47.7710 C   0  0  0  0  0  0  0  0  0  0  0  0
   59.2290   27.3250   48.2250 O   0  0  0  0  0  0  0  0  0  0  0  0
   60.3670   29.3220   48.3920 N   0  0  0  0  0  0  0  0  0  0  0  0
   61.0230   28.8960   49.6440 C   0  0  0  0  0  0  0  0  0  0  0  0
   60.4204   34.4657   45.0456 H   0  0  0  0  0  0  0  0  0  0  0  0
   58.7682   33.8023   44.8072 H   0  0  0  0  0  0  0  0  0  0  0  0
   59.0312   35.5793   44.8072 H   0  0  0  0  0  0  0  0  0  0  0  0
   57.9747   33.6330   48.1475 H   0  0  0  0  0  0  0  0  0  0  0  0
   57.1023   34.0594   46.6363 H   0  0  0  0  0  0  0  0  0  0  0  0
   58.2950   32.7162   46.6363 H   0  0  0  0  0  0  0  0  0  0  0  0
   60.7682   35.2348   47.9042 H   0  0  0  0  0  0  0  0  0  0  0  0
   60.1701   33.5499   48.1628 H   0  0  0  0  0  0  0  0  0  0  0  0
   61.0084   32.9527   45.8772 H   0  0  0  0  0  0  0  0  0  0  0  0
   61.7275   34.6286   45.7793 H   0  0  0  0  0  0  0  0  0  0  0  0
   63.5782   33.4832   46.4579 H   0  0  0  0  0  0  0  0  0  0  0  0
   62.8135   33.8658   48.0765 H   0  0  0  0  0  0  0  0  0  0  0  0
   63.6410   31.6570   47.9180 H   0  0  0  0  0  0  0  0  0  0  0  0
   62.6550   31.2950   46.6200 H   0  0  0  0  0  0  0  0  0  0  0  0
   62.1329   31.0081   49.3284 H   0  0  0  0  0  0  0  0  0  0  0  0
   61.1551   32.4364   48.7874 H   0  0  0  0  0  0  0  0  0  0  0  0
   60.0972   32.0372   46.3201 H   0  0  0  0  0  0  0  0  0  0  0  0
   56.0101   28.4834   43.2174 H   0  0  0  0  0  0  0  0  0  0  0  0
   55.9504   30.5674   41.8131 H   0  0  0  0  0  0  0  0  0  0  0  0
   57.3576   32.5396   42.4314 H   0  0  0  0  0  0  0  0  0  0  0  0
   58.8416   32.4531   44.4519 H   0  0  0  0  0  0  0  0  0  0  0  0
   60.4483   29.2692   50.5045 H   0  0  0  0  0  0  0  0  0  0  0  0
   61.0656   27.7974   49.6802 H   0  0  0  0  0  0  0  0  0  0  0  0
   62.0439   29.3039   49.6802 H   0  0  0  0  0  0  0  0  0  0  0  0
  1  2  1  0
  2  3  1  0
  2  4  1  0
  4  5  1  0
  5  6  1  0
  6  7  1  0
  7  8  1  0
  8  9  1  0
  9 10  2  0
 10 11  1  0
 11 12  2  0
 12 13  1  0
 13 14  1  0
 14 15  2  0
 15 16  1  0
 16 17  2  0
 17 18  1  0
 18 19  2  0
 12 20  1  0
 20 21  2  0
 20 22  1  0
 22 23  1  0
 22  9  1  0
 19 11  1  0
 19 14  1  0
  1 24  1  0
  1 25  1  0
  1 26  1  0
  3 27  1  0
  3 28  1  0
  3 29  1  0
  4 30  1  0
  4 31  1  0
  5 32  1  0
  5 33  1  0
  6 34  1  0
  6 35  1  0
  7 36  1  0
  7 37  1  0
  8 38  1  0
  8 39  1  0
 10 40  1  0
 15 41  1  0
 16 42  1  0
 17 43  1  0
 18 44  1  0
 23 45  1  0
 23 46  1  0
 23 47  1  0
M  CHG  1   7   1
M  END
>  <UniqueID>  (21) 
20

>  <SMILES>  (21) 
CN(C)CCC[NH2+]Cc1cc2c(sc3ccccc32)c(=O)n1C

>  <Energy>  (21) 
89.4070561669264

>  <Genealogy>  (21) 
CN(C)CCC[NH2+]Cc1cc2c(sc3ccccc32)c(=O)n1C (protonated)
CN(C)CCC[NH2+]Cc1cc2c(sc3ccccc32)c(=O)n1C (3D coordinates assigned)
CN(C)CCC[NH2+]Cc1cc2c(sc3ccccc32)c(=O)n1C (optimized conformer: 89.4070561669264 kcal/mol)

>  <smiles>  (21) 
CN(C)CCCNCc1cc2c(sc3ccccc32)c(=O)n1C

>  <score_type>  (21) 
oracle

>  <origin>  (21) 
adg

>  <m_score__min__energy>  (21) 
-5.6500000000000004

>  <m_primary>  (21) 
energy

$$$$
21:0
     RDKit          3D

 47 49  0  0  0  0  0  0  0  0999 V2000
   58.2543   27.9005   43.9992 H   0  0  0  0  0  0  0  0  0  0  0  0
   58.4120   27.4840   45.0050 C   0  0  0  0  0  0  0  0  0  0  0  0
   58.3260   26.1450   45.1020 C   0  0  0  0  0  0  0  0  0  0  0  0
   57.3490   25.4550   44.2260 C   0  0  0  0  0  0  0  0  0  0  0  0
   57.4930   25.5522   43.1398 H   0  0  0  0  0  0  0  0  0  0  0  0
   56.3040   24.7220   44.6420 C   0  0  0  0  0  0  0  0  0  0  0  0
   56.1326   23.7602   44.1365 H   0  0  0  0  0  0  0  0  0  0  0  0
   55.3670   25.0930   45.7160 C   0  0  0  0  0  0  0  0  0  0  0  0
   55.0800   26.2990   45.9390 O   0  0  0  0  0  0  0  0  0  0  0  0
   54.8310   24.0640   46.5510 N   0  0  0  0  0  0  0  0  0  0  0  0
   53.6300   23.3150   46.2040 C   0  0  0  0  0  0  0  0  0  0  0  0
   52.8273   23.5602   46.9150 H   0  0  0  0  0  0  0  0  0  0  0  0
   53.8453   22.2372   46.2497 H   0  0  0  0  0  0  0  0  0  0  0  0
   53.1870   23.6850   44.7890 C   0  0  0  0  0  0  0  0  0  0  0  0
   53.4290   22.8551   44.1087 H   0  0  0  0  0  0  0  0  0  0  0  0
   53.7158   24.6010   44.4868 H   0  0  0  0  0  0  0  0  0  0  0  0
   51.6850   23.9530   44.7330 C   0  0  0  0  0  0  0  0  0  0  0  0
   51.2868   24.0240   45.7559 H   0  0  0  0  0  0  0  0  0  0  0  0
   51.5008   24.8982   44.2014 H   0  0  0  0  0  0  0  0  0  0  0  0
   51.1852   23.1298   44.2014 H   0  0  0  0  0  0  0  0  0  0  0  0
   58.9870   25.3640   46.2000 C   0  0  0  0  0  0  0  0  0  0  0  0
   60.0674   25.5703   46.1907 H   0  0  0  0  0  0  0  0  0  0  0  0
   58.8034   24.2923   46.0337 H   0  0  0  0  0  0  0  0  0  0  0  0
   58.4160   25.7550   47.5500 C   0  0  0  0  0  0  0  0  0  0  0  0
   58.5780   24.9360   48.2662 H   0  0  0  0  0  0  0  0  0  0  0  0
   57.3382   25.9487   47.4463 H   0  0  0  0  0  0  0  0  0  0  0  0
   59.0580   26.9250   48.0210 O   0  0  0  0  0  0  0  0  0  0  0  0
   58.9570   28.2030   47.4610 C   0  0  0  0  0  0  0  0  0  0  0  0
   59.1370   29.2650   48.3550 C   0  0  0  0  0  0  0  0  0  0  0  0
   59.3113   29.0493   49.4195 H   0  0  0  0  0  0  0  0  0  0  0  0
   59.1000   30.5880   47.9250 C   0  0  0  0  0  0  0  0  0  0  0  0
   59.2477   31.4029   48.6490 H   0  0  0  0  0  0  0  0  0  0  0  0
   58.8760   30.8870   46.5770 C   0  0  0  0  0  0  0  0  0  0  0  0
   58.8440   32.2980   46.1140 C   0  0  0  0  0  0  0  0  0  0  0  0
   57.8140   32.7520   45.2700 C   0  0  0  0  0  0  0  0  0  0  0  0
   57.0240   32.0566   44.9501 H   0  0  0  0  0  0  0  0  0  0  0  0
   57.7870   34.0800   44.8350 C   0  0  0  0  0  0  0  0  0  0  0  0
   56.9782   34.4248   44.1740 H   0  0  0  0  0  0  0  0  0  0  0  0
   58.7850   34.9700   45.2380 C   0  0  0  0  0  0  0  0  0  0  0  0
   58.7618   36.0150   44.8952 H   0  0  0  0  0  0  0  0  0  0  0  0
   59.8130   34.5320   46.0770 C   0  0  0  0  0  0  0  0  0  0  0  0
   60.5988   35.2333   46.3944 H   0  0  0  0  0  0  0  0  0  0  0  0
   59.8450   33.2040   46.5140 C   0  0  0  0  0  0  0  0  0  0  0  0
   60.6570   32.8651   47.1742 H   0  0  0  0  0  0  0  0  0  0  0  0
   58.6750   29.8330   45.6730 C   0  0  0  0  0  0  0  0  0  0  0  0
   58.4975   30.0654   44.6126 H   0  0  0  0  0  0  0  0  0  0  0  0
   58.6940   28.4830   46.0850 C   0  0  0  0  0  0  0  0  0  0  0  0
  1  2  1  0
  2  3  2  0
  3  4  1  0
  4  5  1  0
  4  6  2  0
  6  7  1  0
  6  8  1  0
  8  9  2  0
  8 10  1  0
 10 11  1  0
 11 12  1  0
 11 13  1  0
 11 14  1  0
 14 15  1  0
 14 16  1  0
 14 17  1  0
 17 18  1  0
 17 19  1  0
 17 20  1  0
  3 21  1  0
 21 22  1  0
 21 23  1  0
 21 24  1  0
 24 25  1  0
 24 26  1  0
 24 27  1  0
 27 28  1  0
 28 29  2  0
 29 30  1  0
 29 31  1  0
 31 32  1  0
 31 33  2  0
 33 34  1  0
 34 35  2  0
 35 36  1  0
 35 37  1  0
 37 38  1  0
 37 39  2  0
 39 40  1  0
 39 41  1  0
 41 42  1  0
 41 43  2  0
 43 44  1  0
 33 45  1  0
 45 46  1  0
 45 47  2  0
 47  2  1  0
 47 28  1  0
 43 34  1  0
M  CHG  1  10  -1
M  END
>  <UniqueID>  (22) 
21

>  <SMILES>  (22) 
CCC[N-]C(=O)/C=C\C1=Cc2cc(-c3ccccc3)ccc2OCC1

>  <Energy>  (22) 
64.8466664564473

>  <Genealogy>  (22) 
CCC[N-]C(=O)C=CC1=Cc2cc(-c3ccccc3)ccc2OCC1 (protonated)
CCC[N-]C(=O)/C=C\C1=Cc2cc(-c3ccccc3)ccc2OCC1 (cis-trans isomerization)
CCC[N-]C(=O)/C=C\C1=Cc2cc(-c3ccccc3)ccc2OCC1 (3D coordinates assigned)
CCC[N-]C(=O)/C=C\C1=Cc2cc(-c3ccccc3)ccc2OCC1 (nonaromatic ring conformer: 64.8466664564473 kcal/mol)

>  <smiles>  (22) 
CCCNC(=O)C=CC1=Cc2cc(-c3ccccc3)ccc2OCC1

>  <score_type>  (22) 
oracle

>  <origin>  (22) 
adg

>  <m_score__min__energy>  (22) 
-9.2400000000000002

>  <m_primary>  (22) 
energy

$$$$
22:0
     RDKit          3D

 33 34  0  0  0  0  0  0  0  0999 V2000
   53.1684   24.1983   46.1895 H   0  0  0  0  0  0  0  0  0  0  0  0
   54.1980   24.0070   45.8530 C   0  0  0  0  0  0  0  0  0  0  0  0
   55.1820   24.0300   46.7680 C   0  0  0  0  0  0  0  0  0  0  0  0
   56.4280   24.7820   46.4800 C   0  0  0  0  0  0  0  0  0  0  0  0
   57.6750   24.1520   46.6210 C   0  0  0  0  0  0  0  0  0  0  0  0
   57.7580   22.8290   47.0420 O   0  0  0  0  0  0  0  0  0  0  0  0
   58.8460   24.8520   46.3530 C   0  0  0  0  0  0  0  0  0  0  0  0
   59.8175   24.3467   46.4575 H   0  0  0  0  0  0  0  0  0  0  0  0
   58.8030   26.1880   45.9530 C   0  0  0  0  0  0  0  0  0  0  0  0
   59.9510   26.8070   45.7100 O   0  0  0  0  0  0  0  0  0  0  0  0
   60.0170   28.0700   45.3260 C   0  0  0  0  0  0  0  0  0  0  0  0
   61.1410   28.5950   45.1090 O   0  0  0  0  0  0  0  0  0  0  0  0
   58.8560   28.8200   45.1600 C   0  0  0  0  0  0  0  0  0  0  0  0
   58.9220   29.8695   44.8371 H   0  0  0  0  0  0  0  0  0  0  0  0
   57.5950   28.2370   45.4050 C   0  0  0  0  0  0  0  0  0  0  0  0
   56.3200   29.0610   45.2410 C   0  0  0  0  0  0  0  0  0  0  0  0
   55.4647   28.3770   45.3439 H   0  0  0  0  0  0  0  0  0  0  0  0
   56.3771   29.8417   46.0139 H   0  0  0  0  0  0  0  0  0  0  0  0
   56.1570   29.8130   43.9180 C   0  0  0  0  0  0  0  0  0  0  0  0
   55.9280   30.8693   44.1224 H   0  0  0  0  0  0  0  0  0  0  0  0
   57.0907   29.7453   43.3403 H   0  0  0  0  0  0  0  0  0  0  0  0
   55.3351   29.3648   43.3403 H   0  0  0  0  0  0  0  0  0  0  0  0
   57.5600   26.8640   45.8080 C   0  0  0  0  0  0  0  0  0  0  0  0
   56.3660   26.1310   46.0700 C   0  0  0  0  0  0  0  0  0  0  0  0
   55.1080   26.7050   45.9100 O   0  0  0  0  0  0  0  0  0  0  0  0
   55.0360   23.3400   48.1000 C   0  0  0  0  0  0  0  0  0  0  0  0
   55.1902   24.0688   48.9093 H   0  0  0  0  0  0  0  0  0  0  0  0
   54.0269   22.9097   48.1814 H   0  0  0  0  0  0  0  0  0  0  0  0
   55.7843   22.5379   48.1814 H   0  0  0  0  0  0  0  0  0  0  0  0
   54.4310   23.7340   44.3970 C   0  0  0  0  0  0  0  0  0  0  0  0
   55.1417   22.9013   44.2892 H   0  0  0  0  0  0  0  0  0  0  0  0
   53.4780   23.4672   43.9169 H   0  0  0  0  0  0  0  0  0  0  0  0
   54.8443   24.6333   43.9169 H   0  0  0  0  0  0  0  0  0  0  0  0
  1  2  1  0
  2  3  2  0
  3  4  1  0
  4  5  2  0
  5  6  1  0
  5  7  1  0
  7  8  1  0
  7  9  2  0
  9 10  1  0
 10 11  1  0
 11 12  2  0
 11 13  1  0
 13 14  1  0
 13 15  2  0
 15 16  1  0
 16 17  1  0
 16 18  1  0
 16 19  1  0
 19 20  1  0
 19 21  1  0
 19 22  1  0
 15 23  1  0
 23 24  2  0
 24 25  1  0
  3 26  1  0
 26 27  1  0
 26 28  1  0
 26 29  1  0
  2 30  1  0
 30 31  1  0
 30 32  1  0
 30 33  1  0
 24  4  1  0
 23  9  1  0
M  CHG  2   6  -1  25  -1
M  END
>  <UniqueID>  (23) 
22

>  <SMILES>  (23) 
C/C=C(\C)c1c([O-])cc2oc(=O)cc(CC)c2c1[O-]

>  <Energy>  (23) 
49.461637085959765

>  <Genealogy>  (23) 
CC=C(C)c1c([O-])cc2oc(=O)cc(CC)c2c1[O-] (protonated)
C/C=C(\C)c1c([O-])cc2oc(=O)cc(CC)c2c1[O-] (cis-trans isomerization)
C/C=C(\C)c1c([O-])cc2oc(=O)cc(CC)c2c1[O-] (3D coordinates assigned)
C/C=C(\C)c1c([O-])cc2oc(=O)cc(CC)c2c1[O-] (optimized conformer: 49.461637085959765 kcal/mol)

>  <smiles>  (23) 
CC=C(C)c1c(O)cc2oc(=O)cc(CC)c2c1O

>  <score_type>  (23) 
oracle

>  <origin>  (23) 
adg

>  <m_score__min__energy>  (23) 
-10.85

>  <m_primary>  (23) 
energy

$$$$
23:0
     RDKit          3D

 35 37  0  0  0  0  0  0  0  0999 V2000
   56.7920   28.4320   45.2050 C   0  0  0  0  0  0  0  0  0  0  0  0
   55.8890   29.4120   44.4630 C   0  0  0  0  0  0  0  0  0  0  0  0
   56.6760   30.5990   44.0030 C   0  0  0  0  0  0  0  0  0  0  0  0
   57.0020   30.8250   42.6670 C   0  0  0  0  0  0  0  0  0  0  0  0
   57.7660   32.3200   42.5710 S   0  0  0  0  0  0  0  0  0  0  0  0
   57.6480   32.6120   44.2240 C   0  0  0  0  0  0  0  0  0  0  0  0
   58.0650   33.8780   44.9030 C   0  0  0  0  0  0  0  0  0  0  0  0
   58.0020   33.7820   46.3740 N   0  0  0  0  0  0  0  0  0  0  0  0
   59.2760   33.5850   47.1100 C   0  0  2  0  0  0  0  0  0  0  0  0
   59.4570   34.5290   48.3260 C   0  0  0  0  0  0  0  0  0  0  0  0
   60.6820   34.1250   49.1640 C   0  0  0  0  0  0  0  0  0  0  0  0
   61.8600   33.8770   48.2730 C   0  0  0  0  0  0  0  0  0  0  0  0
   63.1400   33.8280   48.6840 N   0  0  0  0  0  0  0  0  0  0  0  0
   63.7890   33.5150   47.5370 C   0  0  0  0  0  0  0  0  0  0  0  0
   62.9530   33.3710   46.4870 N   0  0  0  0  0  0  0  0  0  0  0  0
   61.7450   33.5790   46.9710 N   0  0  0  0  0  0  0  0  0  0  0  0
   60.5160   33.6200   46.1810 C   0  0  0  0  0  0  0  0  0  0  0  0
   57.0280   31.5950   44.8590 N   0  0  0  0  0  0  0  0  0  0  0  0
   56.6672   28.5674   46.2895 H   0  0  0  0  0  0  0  0  0  0  0  0
   56.5195   27.4023   44.9303 H   0  0  0  0  0  0  0  0  0  0  0  0
   57.8405   28.6195   44.9303 H   0  0  0  0  0  0  0  0  0  0  0  0
   55.4478   28.9089   43.5899 H   0  0  0  0  0  0  0  0  0  0  0  0
   55.0948   29.7519   45.1439 H   0  0  0  0  0  0  0  0  0  0  0  0
   56.7963   30.1468   41.8257 H   0  0  0  0  0  0  0  0  0  0  0  0
   59.0992   34.1107   44.6094 H   0  0  0  0  0  0  0  0  0  0  0  0
   57.3663   34.6683   44.5912 H   0  0  0  0  0  0  0  0  0  0  0  0
   57.3060   33.0510   46.6520 H   0  0  0  0  0  0  0  0  0  0  0  0
   59.1980   32.5686   47.5232 H   0  0  0  0  0  0  0  0  0  0  0  0
   59.5932   35.5588   47.9641 H   0  0  0  0  0  0  0  0  0  0  0  0
   58.5611   34.4571   48.9602 H   0  0  0  0  0  0  0  0  0  0  0  0
   60.9234   34.9348   49.8683 H   0  0  0  0  0  0  0  0  0  0  0  0
   60.4500   33.2027   49.7168 H   0  0  0  0  0  0  0  0  0  0  0  0
   64.8799   33.3915   47.4685 H   0  0  0  0  0  0  0  0  0  0  0  0
   60.4977   34.5454   45.5866 H   0  0  0  0  0  0  0  0  0  0  0  0
   60.4892   32.7438   45.5165 H   0  0  0  0  0  0  0  0  0  0  0  0
  1  2  1  0
  2  3  1  0
  3  4  2  0
  4  5  1  0
  5  6  1  0
  6  7  1  0
  7  8  1  0
  8  9  1  0
  9 10  1  0
 10 11  1  0
 11 12  1  0
 12 13  2  0
 13 14  1  0
 14 15  2  0
 15 16  1  0
 16 17  1  0
  6 18  2  0
 18  3  1  0
 17  9  1  0
 16 12  1  0
  1 19  1  0
  1 20  1  0
  1 21  1  0
  2 22  1  0
  2 23  1  0
  4 24  1  0
  7 25  1  0
  7 26  1  0
  8 27  1  0
  9 28  1  1
 10 29  1  0
 10 30  1  0
 11 31  1  0
 11 32  1  0
 14 33  1  0
 17 34  1  0
 17 35  1  0
M  END
>  <UniqueID>  (24) 
23

>  <SMILES>  (24) 
CCc1csc(CN[C@@H]2CCc3ncnn3C2)n1

>  <Energy>  (24) 
98.22969319287336

>  <Genealogy>  (24) 
CCc1csc(CN[C@@H]2CCc3ncnn3C2)n1 (chirality)
CCc1csc(CN[C@@H]2CCc3ncnn3C2)n1 (3D coordinates assigned)
CCc1csc(CN[C@@H]2CCc3ncnn3C2)n1 (nonaromatic ring conformer: 98.22969319287336 kcal/mol)

>  <smiles>  (24) 
CCc1csc(CNC2CCc3ncnn3C2)n1

>  <score_type>  (24) 
oracle

>  <origin>  (24) 
adg

>  <m_score__min__energy>  (24) 
-6.9299999999999997

>  <m_primary>  (24) 
energy

$$$$
24:0
     RDKit          3D

 44 47  0  0  0  0  0  0  0  0999 V2000
   57.8700   32.4000   41.2200 C   0  0  0  0  0  0  0  0  0  0  0  0
   57.3990   31.6090   42.4070 C   0  0  0  0  0  0  0  0  0  0  0  0
   56.6510   30.4260   42.2440 C   0  0  0  0  0  0  0  0  0  0  0  0
   56.1590   29.7280   43.3670 C   0  0  0  0  0  0  0  0  0  0  0  0
   56.4090   30.2290   44.6530 C   0  0  0  0  0  0  0  0  0  0  0  0
   57.1220   31.3770   44.7630 N   0  0  0  0  0  0  0  0  0  0  0  0
   57.4150   32.0270   45.8690 N   0  0  0  0  0  0  0  0  0  0  0  0
   58.1010   33.1180   45.4500 C   0  0  0  0  0  0  0  0  0  0  0  0
   58.5010   34.2310   46.3710 C   0  0  0  0  0  0  0  0  0  0  0  0
   59.1960   33.6930   47.6290 C   0  0  0  0  0  0  0  0  0  0  0  0
   59.9120   32.3910   47.3710 C   0  0  0  0  0  0  0  0  0  0  0  0
   59.2740   31.2040   47.3940 N   0  0  0  0  0  0  0  0  0  0  0  0
   60.2000   30.2910   47.0460 C   0  0  0  0  0  0  0  0  0  0  0  0
   59.9300   28.8510   46.9020 C   0  0  0  0  0  0  0  0  0  0  0  0
   59.8810   28.1350   45.7100 C   0  0  0  0  0  0  0  0  0  0  0  0
   59.5840   26.7780   45.8940 C   0  0  0  0  0  0  0  0  0  0  0  0
   59.3930   26.4220   47.2230 C   0  0  0  0  0  0  0  0  0  0  0  0
   59.5940   27.7960   48.1710 S   0  0  0  0  0  0  0  0  0  0  0  0
   61.3990   30.9360   46.8150 C   0  0  0  0  0  0  0  0  0  0  0  0
   61.2120   32.2580   47.0040 N   0  0  0  0  0  0  0  0  0  0  0  0
   62.2260   33.3010   46.8140 C   0  0  0  0  0  0  0  0  0  0  0  0
   63.1530   33.4070   48.0280 C   0  0  0  0  0  0  0  0  0  0  0  0
   62.8470   34.5310   48.7730 F   0  0  0  0  0  0  0  0  0  0  0  0
   62.9980   32.2860   48.8210 F   0  0  0  0  0  0  0  0  0  0  0  0
   64.4720   33.4820   47.6190 F   0  0  0  0  0  0  0  0  0  0  0  0
   58.2280   33.1880   44.0990 N   0  0  0  0  0  0  0  0  0  0  0  0
   57.5990   32.0590   43.7170 C   0  0  0  0  0  0  0  0  0  0  0  0
   58.4042   33.2972   41.5659 H   0  0  0  0  0  0  0  0  0  0  0  0
   58.5470   31.7815   40.6125 H   0  0  0  0  0  0  0  0  0  0  0  0
   57.0036   32.7005   40.6125 H   0  0  0  0  0  0  0  0  0  0  0  0
   56.4490   30.0435   41.2326 H   0  0  0  0  0  0  0  0  0  0  0  0
   55.5845   28.7992   43.2352 H   0  0  0  0  0  0  0  0  0  0  0  0
   56.0374   29.7057   45.5464 H   0  0  0  0  0  0  0  0  0  0  0  0
   59.1909   34.9040   45.8408 H   0  0  0  0  0  0  0  0  0  0  0  0
   57.5925   34.7686   46.6800 H   0  0  0  0  0  0  0  0  0  0  0  0
   59.9281   34.4374   47.9751 H   0  0  0  0  0  0  0  0  0  0  0  0
   58.4229   33.5085   48.3894 H   0  0  0  0  0  0  0  0  0  0  0  0
   58.2670   31.0350   47.6090 H   0  0  0  0  0  0  0  0  0  0  0  0
   60.0575   28.5882   44.7234 H   0  0  0  0  0  0  0  0  0  0  0  0
   59.5091   26.0611   45.0630 H   0  0  0  0  0  0  0  0  0  0  0  0
   59.1517   25.4142   47.5919 H   0  0  0  0  0  0  0  0  0  0  0  0
   62.3446   30.4539   46.5263 H   0  0  0  0  0  0  0  0  0  0  0  0
   62.8268   33.0583   45.9251 H   0  0  0  0  0  0  0  0  0  0  0  0
   61.7114   34.2648   46.6863 H   0  0  0  0  0  0  0  0  0  0  0  0
  1  2  1  0
  2  3  2  0
  3  4  1  0
  4  5  2  0
  5  6  1  0
  6  7  1  0
  7  8  2  0
  8  9  1  0
  9 10  1  0
 10 11  1  0
 11 12  2  0
 12 13  1  0
 13 14  1  0
 14 15  2  0
 15 16  1  0
 16 17  2  0
 17 18  1  0
 13 19  2  0
 19 20  1  0
 20 21  1  0
 21 22  1  0
 22 23  1  0
 22 24  1  0
 22 25  1  0
  8 26  1  0
 26 27  2  0
 27  2  1  0
 27  6  1  0
 20 11  1  0
 18 14  1  0
  1 28  1  0
  1 29  1  0
  1 30  1  0
  3 31  1  0
  4 32  1  0
  5 33  1  0
  9 34  1  0
  9 35  1  0
 10 36  1  0
 10 37  1  0
 12 38  1  0
 15 39  1  0
 16 40  1  0
 17 41  1  0
 19 42  1  0
 21 43  1  0
 21 44  1  0
M  CHG  1  12   1
M  END
>  <UniqueID>  (25) 
24

>  <SMILES>  (25) 
Cc1cccn2nc(CCc3[nH+]c(-c4cccs4)cn3CC(F)(F)F)nc12

>  <Energy>  (25) 
134.01169221514982

>  <Genealogy>  (25) 
Cc1cccn2nc(CCc3[nH+]c(-c4cccs4)cn3CC(F)(F)F)nc12 (protonated)
Cc1cccn2nc(CCc3[nH+]c(-c4cccs4)cn3CC(F)(F)F)nc12 (3D coordinates assigned)
Cc1cccn2nc(CCc3[nH+]c(-c4cccs4)cn3CC(F)(F)F)nc12 (optimized conformer: 134.01169221514982 kcal/mol)

>  <smiles>  (25) 
Cc1cccn2nc(CCc3nc(-c4cccs4)cn3CC(F)(F)F)nc12

>  <score_type>  (25) 
oracle

>  <origin>  (25) 
adg

>  <m_score__min__energy>  (25) 
-5.8099999999999996

>  <m_primary>  (25) 
energy

$$$$
25:0
     RDKit          3D

 51 54  0  0  0  0  0  0  0  0999 V2000
   64.0170   32.8000   48.6120 C   0  0  0  0  0  0  0  0  0  0  0  0
   63.7520   33.7310   47.4280 C   0  0  0  0  0  0  0  0  0  0  0  0
   62.3880   33.4930   46.7550 C   0  0  0  0  0  0  0  0  0  0  0  0
   61.3750   32.7400   47.6430 C   0  0  0  0  0  0  0  0  0  0  0  0
   60.0570   32.4520   46.9550 C   0  0  0  0  0  0  0  0  0  0  0  0
   59.3950   33.4610   46.4730 N   0  0  0  0  0  0  0  0  0  0  0  0
   57.9010   33.2520   45.6510 S   0  0  0  0  0  0  0  0  0  0  0  0
   57.9210   34.0320   44.3670 O   0  0  0  0  0  0  0  0  0  0  0  0
   56.7610   33.7000   46.5230 O   0  0  0  0  0  0  0  0  0  0  0  0
   57.7630   31.5750   45.3100 N   0  0  0  0  0  0  0  0  0  0  0  0
   58.5160   30.7120   45.9180 C   0  0  0  0  0  0  0  0  0  0  0  0
   59.5150   31.1010   46.8890 N   0  0  0  0  0  0  0  0  0  0  0  0
   59.9410   30.0560   47.8330 C   0  0  0  0  0  0  0  0  0  0  0  0
   59.6890   28.6690   47.2870 C   0  0  0  0  0  0  0  0  0  0  0  0
   58.7790   27.8190   47.9370 C   0  0  0  0  0  0  0  0  0  0  0  0
   58.5420   26.5300   47.4520 C   0  0  0  0  0  0  0  0  0  0  0  0
   59.2130   26.0700   46.3090 C   0  0  0  0  0  0  0  0  0  0  0  0
   58.9620   24.7040   45.7940 C   0  0  0  0  0  0  0  0  0  0  0  0
   60.0630   23.8440   45.6380 C   0  0  0  0  0  0  0  0  0  0  0  0
   59.9000   22.5790   45.0730 C   0  0  0  0  0  0  0  0  0  0  0  0
   58.6400   22.1570   44.6540 C   0  0  0  0  0  0  0  0  0  0  0  0
   57.5340   22.9920   44.8160 C   0  0  0  0  0  0  0  0  0  0  0  0
   57.6700   24.2650   45.4000 C   0  0  0  0  0  0  0  0  0  0  0  0
   56.4470   25.0730   45.6260 C   0  0  0  0  0  0  0  0  0  0  0  0
   56.4260   26.4070   45.8120 N   0  0  0  0  0  0  0  0  0  0  0  0
   55.1540   26.7010   46.0220 N   0  0  0  0  0  0  0  0  0  0  0  0
   54.4270   25.5970   45.9760 N   0  0  0  0  0  0  0  0  0  0  0  0
   55.2070   24.5570   45.7340 N   0  0  0  0  0  0  0  0  0  0  0  0
   60.1490   26.9010   45.6790 C   0  0  0  0  0  0  0  0  0  0  0  0
   60.3860   28.1900   46.1640 C   0  0  0  0  0  0  0  0  0  0  0  0
   63.8607   33.3490   49.5523 H   0  0  0  0  0  0  0  0  0  0  0  0
   63.3266   31.9448   48.5677 H   0  0  0  0  0  0  0  0  0  0  0  0
   65.0543   32.4365   48.5677 H   0  0  0  0  0  0  0  0  0  0  0  0
   63.7868   34.7701   47.7872 H   0  0  0  0  0  0  0  0  0  0  0  0
   64.5260   33.5250   46.6740 H   0  0  0  0  0  0  0  0  0  0  0  0
   61.9573   34.4700   46.4903 H   0  0  0  0  0  0  0  0  0  0  0  0
   62.5727   32.8601   45.8745 H   0  0  0  0  0  0  0  0  0  0  0  0
   61.8242   31.7830   47.9471 H   0  0  0  0  0  0  0  0  0  0  0  0
   61.1536   33.3918   48.5010 H   0  0  0  0  0  0  0  0  0  0  0  0
   57.0430   31.2520   44.6280 H   0  0  0  0  0  0  0  0  0  0  0  0
   58.3903   29.6440   45.6866 H   0  0  0  0  0  0  0  0  0  0  0  0
   61.0172   30.1711   48.0296 H   0  0  0  0  0  0  0  0  0  0  0  0
   59.3556   30.1710   48.7571 H   0  0  0  0  0  0  0  0  0  0  0  0
   58.2490   28.1706   48.8345 H   0  0  0  0  0  0  0  0  0  0  0  0
   57.8264   25.8734   47.9685 H   0  0  0  0  0  0  0  0  0  0  0  0
   61.0613   24.1712   45.9641 H   0  0  0  0  0  0  0  0  0  0  0  0
   60.7681   21.9133   44.9580 H   0  0  0  0  0  0  0  0  0  0  0  0
   58.5171   21.1648   44.1952 H   0  0  0  0  0  0  0  0  0  0  0  0
   56.5428   22.6507   44.4828 H   0  0  0  0  0  0  0  0  0  0  0  0
   60.6996   26.5372   44.7989 H   0  0  0  0  0  0  0  0  0  0  0  0
   61.1234   28.8346   45.6633 H   0  0  0  0  0  0  0  0  0  0  0  0
  1  2  1  0
  2  3  1  0
  3  4  1  0
  4  5  1  0
  5  6  2  0
  6  7  1  0
  7  8  2  0
  7  9  2  0
  7 10  1  0
 10 11  2  0
 11 12  1  0
 12 13  1  0
 13 14  1  0
 14 15  2  0
 15 16  1  0
 16 17  2  0
 17 18  1  0
 18 19  2  0
 19 20  1  0
 20 21  2  0
 21 22  1  0
 22 23  2  0
 23 24  1  0
 24 25  1  0
 25 26  2  0
 26 27  1  0
 27 28  1  0
 17 29  1  0
 29 30  2  0
 12  5  1  0
 30 14  1  0
 23 18  1  0
 28 24  2  0
  1 31  1  0
  1 32  1  0
  1 33  1  0
  2 34  1  0
  2 35  1  0
  3 36  1  0
  3 37  1  0
  4 38  1  0
  4 39  1  0
 10 40  1  0
 11 41  1  0
 13 42  1  0
 13 43  1  0
 15 44  1  0
 16 45  1  0
 19 46  1  0
 20 47  1  0
 21 48  1  0
 22 49  1  0
 29 50  1  0
 30 51  1  0
M  CHG  2  10   1  27  -1
M  END
>  <UniqueID>  (26) 
25

>  <SMILES>  (26) 
CCCCC1=NS(=O)(=O)[NH+]=CN1Cc1ccc(-c2ccccc2-c2nn[n-]n2)cc1

>  <Energy>  (26) 
105.30138608345494

>  <Genealogy>  (26) 
CCCCC1=NS(=O)(=O)[NH+]=CN1Cc1ccc(-c2ccccc2-c2nn[n-]n2)cc1 (protonated)
CCCCC1=NS(=O)(=O)[NH+]=CN1Cc1ccc(-c2ccccc2-c2nn[n-]n2)cc1 (3D coordinates assigned)
CCCCC1=NS(=O)(=O)[NH+]=CN1Cc1ccc(-c2ccccc2-c2nn[n-]n2)cc1 (nonaromatic ring conformer: 105.30138608345494 kcal/mol)

>  <smiles>  (26) 
CCCCC1=NS(=O)(=O)N=CN1Cc1ccc(-c2ccccc2-c2nn[nH]n2)cc1

>  <score_type>  (26) 
oracle

>  <origin>  (26) 
adg

>  <m_score__min__energy>  (26) 
-9.6099999999999994

>  <m_primary>  (26) 
energy

$$$$
26:0
     RDKit          3D

 40 41  0  0  0  0  0  0  0  0999 V2000
   59.0400   26.9370   47.5020 C   0  0  0  0  0  0  0  0  0  0  0  0
   57.8200   27.3760   46.6960 C   0  0  0  0  0  0  0  0  0  0  0  0
   58.0720   28.6610   46.0230 N   0  0  0  0  0  0  0  0  0  0  0  0
   59.3750   29.3210   46.2020 C   0  0  0  0  0  0  0  0  0  0  0  0
   60.3140   28.9840   45.0500 C   0  0  0  0  0  0  0  0  0  0  0  0
   57.0290   29.2660   45.2210 C   0  0  0  0  0  0  0  0  0  0  0  0
   55.8600   28.7920   45.2410 O   0  0  0  0  0  0  0  0  0  0  0  0
   57.2920   30.4330   44.3620 C   0  0  0  0  0  0  0  0  0  0  0  0
   57.9330   31.5490   44.9190 C   0  0  0  0  0  0  0  0  0  0  0  0
   58.1770   32.6850   44.1420 C   0  0  0  0  0  0  0  0  0  0  0  0
   58.9560   34.1250   44.8730 S   0  0  0  0  0  0  0  0  0  0  0  0
   59.2820   33.2660   46.4070 C   0  0  0  0  0  0  0  0  0  0  0  0
   60.4580   32.6670   46.6960 N   0  0  0  0  0  0  0  0  0  0  0  0
   60.4700   32.1190   47.9090 N   0  0  0  0  0  0  0  0  0  0  0  0
   59.3190   32.2860   48.5970 C   0  0  0  0  0  0  0  0  0  0  0  0
   59.0660   31.7160   49.9530 C   0  0  0  0  0  0  0  0  0  0  0  0
   58.1850   33.1250   47.6770 S   0  0  0  0  0  0  0  0  0  0  0  0
   57.8060   32.7020   42.7940 C   0  0  0  0  0  0  0  0  0  0  0  0
   57.1870   31.5860   42.2250 C   0  0  0  0  0  0  0  0  0  0  0  0
   56.9250   30.4440   42.9970 C   0  0  0  0  0  0  0  0  0  0  0  0
   56.2850   29.3160   42.3880 N   0  0  0  0  0  0  0  0  0  0  0  0
   58.8178   27.0169   48.5764 H   0  0  0  0  0  0  0  0  0  0  0  0
   59.2865   25.8938   47.2552 H   0  0  0  0  0  0  0  0  0  0  0  0
   59.8947   27.5840   47.2552 H   0  0  0  0  0  0  0  0  0  0  0  0
   57.5937   26.6108   45.9389 H   0  0  0  0  0  0  0  0  0  0  0  0
   56.9696   27.4988   47.3828 H   0  0  0  0  0  0  0  0  0  0  0  0
   59.2257   30.4102   46.2390 H   0  0  0  0  0  0  0  0  0  0  0  0
   59.8253   28.9647   47.1402 H   0  0  0  0  0  0  0  0  0  0  0  0
   61.2778   28.6381   45.4518 H   0  0  0  0  0  0  0  0  0  0  0  0
   59.8676   28.1900   44.4334 H   0  0  0  0  0  0  0  0  0  0  0  0
   60.4744   29.8807   44.4334 H   0  0  0  0  0  0  0  0  0  0  0  0
   58.2456   31.5303   45.9735 H   0  0  0  0  0  0  0  0  0  0  0  0
   61.3020   31.6080   48.2800 H   0  0  0  0  0  0  0  0  0  0  0  0
   59.3861   32.4372   50.7195 H   0  0  0  0  0  0  0  0  0  0  0  0
   57.9918   31.5097   50.0695 H   0  0  0  0  0  0  0  0  0  0  0  0
   59.6336   30.7810   50.0695 H   0  0  0  0  0  0  0  0  0  0  0  0
   58.0015   33.5943   42.1812 H   0  0  0  0  0  0  0  0  0  0  0  0
   56.9026   31.6029   41.1625 H   0  0  0  0  0  0  0  0  0  0  0  0
   55.8840   29.3650   41.4250 H   0  0  0  0  0  0  0  0  0  0  0  0
   56.2060   28.4090   42.8990 H   0  0  0  0  0  0  0  0  0  0  0  0
  1  2  1  0
  2  3  1  0
  3  4  1  0
  4  5  1  0
  3  6  1  0
  6  7  2  0
  6  8  1  0
  8  9  2  0
  9 10  1  0
 10 11  1  0
 11 12  1  0
 12 13  2  0
 13 14  1  0
 14 15  2  0
 15 16  1  0
 15 17  1  0
 10 18  2  0
 18 19  1  0
 19 20  2  0
 20 21  1  0
 20  8  1  0
 17 12  1  0
  1 22  1  0
  1 23  1  0
  1 24  1  0
  2 25  1  0
  2 26  1  0
  4 27  1  0
  4 28  1  0
  5 29  1  0
  5 30  1  0
  5 31  1  0
  9 32  1  0
 14 33  1  0
 16 34  1  0
 16 35  1  0
 16 36  1  0
 18 37  1  0
 19 38  1  0
 21 39  1  0
 21 40  1  0
M  CHG  1  14   1
M  END
>  <UniqueID>  (27) 
26

>  <SMILES>  (27) 
CCN(CC)C(=O)c1cc(Sc2n[nH+]c(C)s2)ccc1N

>  <Energy>  (27) 
66.75231482330119

>  <Genealogy>  (27) 
CCN(CC)C(=O)c1cc(Sc2n[nH+]c(C)s2)ccc1N (protonated)
CCN(CC)C(=O)c1cc(Sc2n[nH+]c(C)s2)ccc1N (3D coordinates assigned)
CCN(CC)C(=O)c1cc(Sc2n[nH+]c(C)s2)ccc1N (optimized conformer: 66.75231482330119 kcal/mol)

>  <smiles>  (27) 
CCN(CC)C(=O)c1cc(Sc2nnc(C)s2)ccc1N

>  <score_type>  (27) 
oracle

>  <origin>  (27) 
adg

>  <m_score__min__energy>  (27) 
-6.5

>  <m_primary>  (27) 
energy

$$$$
27:0
     RDKit          3D

 26 26  0  0  0  0  0  0  0  0999 V2000
   60.7098   34.2358   49.1904 H   0  0  0  0  0  0  0  0  0  0  0  0
   61.6450   33.8980   48.7200 C   0  0  0  0  0  0  0  0  0  0  0  0
   62.7390   33.5500   49.5130 C   0  0  0  0  0  0  0  0  0  0  0  0
   62.6686   33.6021   50.6095 H   0  0  0  0  0  0  0  0  0  0  0  0
   63.9240   33.1350   48.9020 C   0  0  0  0  0  0  0  0  0  0  0  0
   65.3080   32.6970   49.8880 Cl  0  0  0  0  0  0  0  0  0  0  0  0
   64.0070   33.0740   47.5440 N   0  0  0  0  0  0  0  0  0  0  0  0
   64.9000   32.7690   47.0970 H   0  0  0  0  0  0  0  0  0  0  0  0
   62.9530   33.4090   46.7510 C   0  0  0  0  0  0  0  0  0  0  0  0
   63.0534   33.3599   45.6567 H   0  0  0  0  0  0  0  0  0  0  0  0
   61.7380   33.8170   47.3240 C   0  0  0  0  0  0  0  0  0  0  0  0
   60.5830   34.2240   46.4560 C   0  0  0  0  0  0  0  0  0  0  0  0
   60.8598   34.1097   45.3976 H   0  0  0  0  0  0  0  0  0  0  0  0
   60.3252   35.2752   46.6522 H   0  0  0  0  0  0  0  0  0  0  0  0
   59.4450   33.3800   46.7530 N   0  0  0  0  0  0  0  0  0  0  0  0
   59.0910   32.3270   46.0890 C   0  0  0  0  0  0  0  0  0  0  0  0
   59.6190   31.0010   46.5670 C   0  0  0  0  0  0  0  0  0  0  0  0
   59.6258   30.9840   47.6668 H   0  0  0  0  0  0  0  0  0  0  0  0
   58.9741   30.1927   46.1917 H   0  0  0  0  0  0  0  0  0  0  0  0
   60.6430   30.8572   46.1917 H   0  0  0  0  0  0  0  0  0  0  0  0
   58.1800   32.3840   44.8680 C   0  0  0  0  0  0  0  0  0  0  0  0
   58.8054   32.3626   43.9634 H   0  0  0  0  0  0  0  0  0  0  0  0
   57.2750   31.2290   44.8580 C   0  0  0  0  0  0  0  0  0  0  0  0
   56.5620   30.3180   44.8510 N   0  0  0  0  0  0  0  0  0  0  0  0
   57.3920   33.6220   44.8830 C   0  0  0  0  0  0  0  0  0  0  0  0
   56.7720   34.5990   44.8950 N   0  0  0  0  0  0  0  0  0  0  0  0
  1  2  1  0
  2  3  2  0
  3  4  1  0
  3  5  1  0
  5  6  1  0
  5  7  2  0
  7  8  1  0
  7  9  1  0
  9 10  1  0
  9 11  2  0
 11 12  1  0
 12 13  1  0
 12 14  1  0
 12 15  1  0
 15 16  2  0
 16 17  1  0
 17 18  1  0
 17 19  1  0
 17 20  1  0
 16 21  1  0
 21 22  1  0
 21 23  1  0
 23 24  3  0
 21 25  1  0
 25 26  3  0
 11  2  1  0
M  CHG  1   7   1
M  END
>  <UniqueID>  (28) 
27

>  <SMILES>  (28) 
C/C(=N/Cc1ccc(Cl)[nH+]c1)C(C#N)C#N

>  <Energy>  (28) 
19.853748113026843

>  <Genealogy>  (28) 
CC(=NCc1ccc(Cl)[nH+]c1)C(C#N)C#N (protonated)
C/C(=N/Cc1ccc(Cl)[nH+]c1)C(C#N)C#N (cis-trans isomerization)
C/C(=N/Cc1ccc(Cl)[nH+]c1)C(C#N)C#N (3D coordinates assigned)
C/C(=N/Cc1ccc(Cl)[nH+]c1)C(C#N)C#N (optimized conformer: 19.853748113026843 kcal/mol)

>  <smiles>  (28) 
CC(=NCc1ccc(Cl)nc1)C(C#N)C#N

>  <score_type>  (28) 
oracle

>  <origin>  (28) 
adg

>  <m_score__min__energy>  (28) 
-4.9699999999999998

>  <m_primary>  (28) 
energy

$$$$
28:0
     RDKit          3D

 52 54  0  0  0  0  0  0  0  0999 V2000
   63.4480   31.8730   49.3380 C   0  0  0  0  0  0  0  0  0  0  0  0
   63.3340   31.9670   47.8180 C   0  0  0  0  0  0  0  0  0  0  0  0
   64.0490   33.1510   47.3180 N   0  0  0  0  0  0  0  0  0  0  0  0
   63.1770   33.9890   46.4830 C   0  0  0  0  0  0  0  0  0  0  0  0
   61.7470   33.4440   46.5140 C   0  0  0  0  0  0  0  0  0  0  0  0
   60.8900   34.2740   47.3690 N   0  0  0  0  0  0  0  0  0  0  0  0
   59.8360   35.1050   46.7650 C   0  0  0  0  0  0  0  0  0  0  0  0
   58.8550   34.2630   46.0040 C   0  0  0  0  0  0  0  0  0  0  0  0
   58.9130   33.9600   44.6480 C   0  0  0  0  0  0  0  0  0  0  0  0
   57.8830   33.1090   44.2280 C   0  0  0  0  0  0  0  0  0  0  0  0
   57.0180   32.7330   45.2500 C   0  0  0  0  0  0  0  0  0  0  0  0
   57.5360   33.4610   46.6760 S   0  0  0  0  0  0  0  0  0  0  0  0
   61.0230   34.1730   48.8010 C   0  0  0  0  0  0  0  0  0  0  0  0
   61.9600   34.7880   49.3790 O   0  0  0  0  0  0  0  0  0  0  0  0
   60.0810   33.3700   49.6110 C   0  0  0  0  0  0  0  0  0  0  0  0
   59.6830   33.8080   50.8810 C   0  0  0  0  0  0  0  0  0  0  0  0
   58.7950   33.0450   51.6410 C   0  0  0  0  0  0  0  0  0  0  0  0
   58.2850   31.8480   51.1140 C   0  0  0  0  0  0  0  0  0  0  0  0
   57.3850   31.0230   51.8780 N   0  0  0  0  0  0  0  0  0  0  0  0
   55.9430   31.2790   51.7820 C   0  0  0  0  0  0  0  0  0  0  0  0
   55.1550   30.2150   52.5500 C   0  0  0  0  0  0  0  0  0  0  0  0
   55.7780   28.9600   52.3820 O   0  0  0  0  0  0  0  0  0  0  0  0
   56.9760   28.9090   53.1380 C   0  0  0  0  0  0  0  0  0  0  0  0
   57.8900   30.1410   52.9410 C   0  0  0  0  0  0  0  0  0  0  0  0
   58.6790   31.4460   49.8740 N   0  0  0  0  0  0  0  0  0  0  0  0
   59.5450   32.1710   49.1180 C   0  0  0  0  0  0  0  0  0  0  0  0
   62.6790   32.5071   49.8033 H   0  0  0  0  0  0  0  0  0  0  0  0
   63.3022   30.8291   49.6528 H   0  0  0  0  0  0  0  0  0  0  0  0
   64.4450   32.2151   49.6528 H   0  0  0  0  0  0  0  0  0  0  0  0
   63.7699   31.0638   47.3661 H   0  0  0  0  0  0  0  0  0  0  0  0
   62.2715   32.0532   47.5465 H   0  0  0  0  0  0  0  0  0  0  0  0
   64.8350   32.8140   46.7110 H   0  0  0  0  0  0  0  0  0  0  0  0
   63.1832   35.0193   46.8683 H   0  0  0  0  0  0  0  0  0  0  0  0
   63.5469   33.9775   45.4471 H   0  0  0  0  0  0  0  0  0  0  0  0
   61.3406   33.4400   45.4918 H   0  0  0  0  0  0  0  0  0  0  0  0
   61.7682   32.4228   46.9223 H   0  0  0  0  0  0  0  0  0  0  0  0
   59.3037   35.6454   47.5616 H   0  0  0  0  0  0  0  0  0  0  0  0
   60.3060   35.8123   46.0658 H   0  0  0  0  0  0  0  0  0  0  0  0
   59.6896   34.3495   43.9733 H   0  0  0  0  0  0  0  0  0  0  0  0
   57.7690   32.7700   43.1878 H   0  0  0  0  0  0  0  0  0  0  0  0
   56.1446   32.0727   45.1443 H   0  0  0  0  0  0  0  0  0  0  0  0
   60.0716   34.7564   51.2805 H   0  0  0  0  0  0  0  0  0  0  0  0
   58.4970   33.3793   52.6457 H   0  0  0  0  0  0  0  0  0  0  0  0
   55.7225   32.2693   52.2071 H   0  0  0  0  0  0  0  0  0  0  0  0
   55.6463   31.2449   50.7233 H   0  0  0  0  0  0  0  0  0  0  0  0
   55.1334   30.4742   53.6188 H   0  0  0  0  0  0  0  0  0  0  0  0
   54.1258   30.1695   52.1645 H   0  0  0  0  0  0  0  0  0  0  0  0
   56.7113   28.8401   54.2035 H   0  0  0  0  0  0  0  0  0  0  0  0
   57.5397   28.0319   52.7873 H   0  0  0  0  0  0  0  0  0  0  0  0
   57.9352   30.7067   53.8833 H   0  0  0  0  0  0  0  0  0  0  0  0
   58.8893   29.7859   52.6488 H   0  0  0  0  0  0  0  0  0  0  0  0
   59.8267   31.8162   48.1156 H   0  0  0  0  0  0  0  0  0  0  0  0
  1  2  1  0
  2  3  1  0
  3  4  1  0
  4  5  1  0
  5  6  1  0
  6  7  1  0
  7  8  1  0
  8  9  2  0
  9 10  1  0
 10 11  2  0
 11 12  1  0
  6 13  1  0
 13 14  2  0
 13 15  1  0
 15 16  2  0
 16 17  1  0
 17 18  2  0
 18 19  1  0
 19 20  1  0
 20 21  1  0
 21 22  1  0
 22 23  1  0
 23 24  1  0
 18 25  1  0
 25 26  2  0
 12  8  1  0
 26 15  1  0
 24 19  1  0
  1 27  1  0
  1 28  1  0
  1 29  1  0
  2 30  1  0
  2 31  1  0
  3 32  1  0
  4 33  1  0
  4 34  1  0
  5 35  1  0
  5 36  1  0
  7 37  1  0
  7 38  1  0
  9 39  1  0
 10 40  1  0
 11 41  1  0
 16 42  1  0
 17 43  1  0
 20 44  1  0
 20 45  1  0
 21 46  1  0
 21 47  1  0
 23 48  1  0
 23 49  1  0
 24 50  1  0
 24 51  1  0
 26 52  1  0
M  END
>  <UniqueID>  (29) 
28

>  <SMILES>  (29) 
CCNCCN(Cc1cccs1)C(=O)c1ccc(N2CCOCC2)nc1

>  <Energy>  (29) 
85.75243528800536

>  <Genealogy>  (29) 
CCNCCN(Cc1cccs1)C(=O)c1ccc(N2CCOCC2)nc1 (3D coordinates assigned)
CCNCCN(Cc1cccs1)C(=O)c1ccc(N2CCOCC2)nc1 (nonaromatic ring conformer: 85.75243528800536 kcal/mol)

>  <smiles>  (29) 
CCNCCN(Cc1cccs1)C(=O)c1ccc(N2CCOCC2)nc1

>  <score_type>  (29) 
oracle

>  <origin>  (29) 
adg

>  <m_score__min__energy>  (29) 
-7.3099999999999996

>  <m_primary>  (29) 
energy

$$$$
29:0
     RDKit          3D

 53 56  0  0  0  0  0  0  0  0999 V2000
   56.3610   30.0680   43.0470 C   0  0  0  0  0  0  0  0  0  0  0  0
   56.7090   29.7010   44.4970 C   0  0  0  0  0  0  0  0  0  0  0  0
   57.3790   30.7920   45.2490 N   0  0  0  0  0  0  0  0  0  0  0  0
   58.7180   30.4370   45.7830 C   0  0  0  0  0  0  0  0  0  0  0  0
   58.6260   29.6440   47.0890 C   0  0  0  0  0  0  0  0  0  0  0  0
   57.4180   32.0620   44.4820 C   0  0  0  0  0  0  0  0  0  0  0  0
   58.4100   33.0420   45.1240 C   0  0  0  0  0  0  0  0  0  0  0  0
   57.7800   33.8060   46.3060 C   0  0  0  0  0  0  0  0  0  0  0  0
   58.8280   34.5390   47.1590 C   0  0  0  0  0  0  0  0  0  0  0  0
   59.7610   33.5870   47.7750 N   0  0  0  0  0  0  0  0  0  0  0  0
   61.0760   33.3920   47.4820 C   0  0  0  0  0  0  0  0  0  0  0  0
   61.8360   34.0130   46.4850 C   0  0  0  0  0  0  0  0  0  0  0  0
   63.1970   33.6640   46.3740 C   0  0  0  0  0  0  0  0  0  0  0  0
   63.7700   32.7140   47.2500 C   0  0  0  0  0  0  0  0  0  0  0  0
   62.9910   32.0970   48.2460 C   0  0  0  0  0  0  0  0  0  0  0  0
   61.6470   32.4570   48.3320 C   0  0  0  0  0  0  0  0  0  0  0  0
   60.6420   32.0630   49.1830 C   0  0  0  0  0  0  0  0  0  0  0  0
   60.6480   31.1890   50.2200 N   0  0  0  0  0  0  0  0  0  0  0  0
   59.4770   31.0000   50.9090 C   0  0  0  0  0  0  0  0  0  0  0  0
   59.4150   30.1050   51.9880 C   0  0  0  0  0  0  0  0  0  0  0  0
   58.2120   29.9210   52.6790 C   0  0  0  0  0  0  0  0  0  0  0  0
   57.0640   30.6280   52.3020 C   0  0  0  0  0  0  0  0  0  0  0  0
   57.1070   31.5270   51.2300 C   0  0  0  0  0  0  0  0  0  0  0  0
   58.3010   31.7230   50.5280 C   0  0  0  0  0  0  0  0  0  0  0  0
   58.3460   32.6010   49.4800 N   0  0  0  0  0  0  0  0  0  0  0  0
   59.5200   32.7600   48.8200 C   0  0  0  0  0  0  0  0  0  0  0  0
   55.6041   30.8662   43.0424 H   0  0  0  0  0  0  0  0  0  0  0  0
   57.2665   30.4183   42.5300 H   0  0  0  0  0  0  0  0  0  0  0  0
   55.9631   29.1824   42.5300 H   0  0  0  0  0  0  0  0  0  0  0  0
   55.7779   29.4399   45.0213 H   0  0  0  0  0  0  0  0  0  0  0  0
   57.4181   28.8612   44.4527 H   0  0  0  0  0  0  0  0  0  0  0  0
   59.2480   29.8286   45.0354 H   0  0  0  0  0  0  0  0  0  0  0  0
   59.2578   31.3723   45.9923 H   0  0  0  0  0  0  0  0  0  0  0  0
   58.7059   30.3330   47.9427 H   0  0  0  0  0  0  0  0  0  0  0  0
   57.6608   29.1181   47.1314 H   0  0  0  0  0  0  0  0  0  0  0  0
   59.4451   28.9110   47.1314 H   0  0  0  0  0  0  0  0  0  0  0  0
   57.7321   31.8524   43.4488 H   0  0  0  0  0  0  0  0  0  0  0  0
   56.4150   32.5137   44.4867 H   0  0  0  0  0  0  0  0  0  0  0  0
   59.2812   32.4782   45.4888 H   0  0  0  0  0  0  0  0  0  0  0  0
   58.7048   33.7775   44.3610 H   0  0  0  0  0  0  0  0  0  0  0  0
   57.0686   34.5452   45.9092 H   0  0  0  0  0  0  0  0  0  0  0  0
   57.2798   33.0691   46.9516 H   0  0  0  0  0  0  0  0  0  0  0  0
   59.3921   35.2330   46.5186 H   0  0  0  0  0  0  0  0  0  0  0  0
   58.3088   35.0891   47.9577 H   0  0  0  0  0  0  0  0  0  0  0  0
   61.3844   34.7524   45.8072 H   0  0  0  0  0  0  0  0  0  0  0  0
   63.8190   34.1352   45.5987 H   0  0  0  0  0  0  0  0  0  0  0  0
   64.8345   32.4548   47.1521 H   0  0  0  0  0  0  0  0  0  0  0  0
   63.4271   31.3566   48.9327 H   0  0  0  0  0  0  0  0  0  0  0  0
   61.5230   30.6770   50.4790 H   0  0  0  0  0  0  0  0  0  0  0  0
   60.3133   29.5472   52.2911 H   0  0  0  0  0  0  0  0  0  0  0  0
   58.1682   29.2170   53.5230 H   0  0  0  0  0  0  0  0  0  0  0  0
   56.1231   30.4762   52.8512 H   0  0  0  0  0  0  0  0  0  0  0  0
   56.2014   32.0797   50.9394 H   0  0  0  0  0  0  0  0  0  0  0  0
  1  2  1  0
  2  3  1  0
  3  4  1  0
  4  5  1  0
  3  6  1  0
  6  7  1  0
  7  8  1  0
  8  9  1  0
  9 10  1  0
 10 11  1  0
 11 12  2  0
 12 13  1  0
 13 14  2  0
 14 15  1  0
 15 16  2  0
 16 17  1  0
 17 18  2  0
 18 19  1  0
 19 20  2  0
 20 21  1  0
 21 22  2  0
 22 23  1  0
 23 24  2  0
 24 25  1  0
 25 26  2  0
 26 10  1  0
 16 11  1  0
 26 17  1  0
 24 19  1  0
  1 27  1  0
  1 28  1  0
  1 29  1  0
  2 30  1  0
  2 31  1  0
  4 32  1  0
  4 33  1  0
  5 34  1  0
  5 35  1  0
  5 36  1  0
  6 37  1  0
  6 38  1  0
  7 39  1  0
  7 40  1  0
  8 41  1  0
  8 42  1  0
  9 43  1  0
  9 44  1  0
 12 45  1  0
 13 46  1  0
 14 47  1  0
 15 48  1  0
 18 49  1  0
 20 50  1  0
 21 51  1  0
 22 52  1  0
 23 53  1  0
M  CHG  1  18   1
M  END
>  <UniqueID>  (30) 
29

>  <SMILES>  (30) 
CCN(CC)CCCCn1c2ccccc2c2[nH+]c3ccccc3nc21

>  <Energy>  (30) 
98.85115251357921

>  <Genealogy>  (30) 
CCN(CC)CCCCn1c2ccccc2c2[nH+]c3ccccc3nc21 (protonated)
CCN(CC)CCCCn1c2ccccc2c2[nH+]c3ccccc3nc21 (3D coordinates assigned)
CCN(CC)CCCCn1c2ccccc2c2[nH+]c3ccccc3nc21 (optimized conformer: 98.85115251357921 kcal/mol)

>  <smiles>  (30) 
CCN(CC)CCCCn1c2ccccc2c2nc3ccccc3nc21

>  <score_type>  (30) 
oracle

>  <origin>  (30) 
adg

>  <m_score__min__energy>  (30) 
-6.5199999999999996

>  <m_primary>  (30) 
energy

$$$$
30:0
     RDKit          3D

 44 46  0  0  1  0  0  0  0  0999 V2000
   54.1130   24.7900   45.6230 C   0  0  0  0  0  0  0  0  0  0  0  0
   54.7530   26.0080   45.8630 O   0  0  0  0  0  0  0  0  0  0  0  0
   56.1550   26.0220   45.8780 C   0  0  0  0  0  0  0  0  0  0  0  0
   56.8240   24.9370   45.3560 C   0  0  0  0  0  0  0  0  0  0  0  0
   58.2030   24.9320   45.3610 C   0  0  0  0  0  0  0  0  0  0  0  0
   58.9020   26.0190   45.8930 C   0  0  0  0  0  0  0  0  0  0  0  0
   58.2630   27.1020   46.4140 C   0  0  0  0  0  0  0  0  0  0  0  0
   58.9390   28.2410   46.9710 C   0  0  0  0  0  0  0  0  0  0  0  0
   59.6260   28.1460   48.1280 N   0  0  0  0  0  0  0  0  0  0  0  0
   60.2810   29.1680   48.7070 C   0  0  0  0  0  0  0  0  0  0  0  0
   61.0180   28.9600   49.9960 C   0  0  0  0  0  0  0  0  0  0  0  0
   60.2700   30.4000   48.1070 C   0  0  0  0  0  0  0  0  0  0  0  0
   59.5740   30.5230   46.9230 C   0  0  0  0  0  0  0  0  0  0  0  0
   59.5260   31.6560   46.3120 N   0  0  0  0  0  0  0  0  0  0  0  0
   58.5590   32.6820   46.5700 C   0  0  0  0  0  0  0  0  0  0  0  0
   58.0040   33.1190   45.2080 C   0  0  0  0  0  0  0  0  0  0  0  0
   57.4320   31.9800   44.4530 C   0  0  0  0  0  0  0  0  0  0  0  0
   57.5470   31.9320   43.0720 C   0  0  0  0  0  0  0  0  0  0  0  0
   56.9980   30.8490   42.4070 C   0  0  0  0  0  0  0  0  0  0  0  0
   56.3500   29.8280   43.0690 C   0  0  0  0  0  0  0  0  0  0  0  0
   56.2580   29.9150   44.4560 C   0  0  0  0  0  0  0  0  0  0  0  0
   56.7970   30.9750   45.0780 N   0  0  0  0  0  0  0  0  0  0  0  0
   58.9270   29.4500   46.3820 N   0  0  0  0  0  0  0  0  0  0  0  0
   56.8690   27.0820   46.3960 C   0  0  0  0  0  0  0  0  0  0  0  0
   53.8621   24.3125   46.5817 H   0  0  0  0  0  0  0  0  0  0  0  0
   53.1914   24.9669   45.0492 H   0  0  0  0  0  0  0  0  0  0  0  0
   54.7815   24.1313   45.0492 H   0  0  0  0  0  0  0  0  0  0  0  0
   56.2654   24.0854   44.9404 H   0  0  0  0  0  0  0  0  0  0  0  0
   58.7521   24.0736   44.9468 H   0  0  0  0  0  0  0  0  0  0  0  0
   60.0018   25.9987   45.8906 H   0  0  0  0  0  0  0  0  0  0  0  0
   60.3401   29.1513   50.8409 H   0  0  0  0  0  0  0  0  0  0  0  0
   61.3833   27.9237   50.0464 H   0  0  0  0  0  0  0  0  0  0  0  0
   61.8712   29.6524   50.0464 H   0  0  0  0  0  0  0  0  0  0  0  0
   60.7959   31.2573   48.5525 H   0  0  0  0  0  0  0  0  0  0  0  0
   57.7483   32.2886   47.2009 H   0  0  0  0  0  0  0  0  0  0  0  0
   59.0151   33.5302   47.1015 H   0  0  0  0  0  0  0  0  0  0  0  0
   57.2166   33.8700   45.3693 H   0  0  0  0  0  0  0  0  0  0  0  0
   58.8347   33.5353   44.6192 H   0  0  0  0  0  0  0  0  0  0  0  0
   58.0606   32.7328   42.5198 H   0  0  0  0  0  0  0  0  0  0  0  0
   57.0818   30.8014   41.3112 H   0  0  0  0  0  0  0  0  0  0  0  0
   55.9212   28.9756   42.5217 H   0  0  0  0  0  0  0  0  0  0  0  0
   55.7514   29.1271   45.0327 H   0  0  0  0  0  0  0  0  0  0  0  0
   58.4220   29.6190   45.4850 H   0  0  0  0  0  0  0  0  0  0  0  0
   56.3200   27.9411   46.8091 H   0  0  0  0  0  0  0  0  0  0  0  0
  1  2  1  0
  2  3  1  0
  3  4  2  0
  4  5  1  0
  5  6  2  0
  6  7  1  0
  7  8  1  0
  8  9  2  0
  9 10  1  0
 10 11  1  0
 10 12  2  0
 12 13  1  0
 13 14  2  0
 14 15  1  0
 15 16  1  0
 16 17  1  0
 17 18  2  0
 18 19  1  0
 19 20  2  0
 20 21  1  0
 21 22  2  0
 13 23  1  0
  7 24  2  0
 24  3  1  0
 23  8  1  0
 22 17  1  0
  1 25  1  0
  1 26  1  0
  1 27  1  0
  4 28  1  0
  5 29  1  0
  6 30  1  0
 11 31  1  0
 11 32  1  0
 11 33  1  0
 12 34  1  0
 15 35  1  0
 15 36  1  0
 16 37  1  0
 16 38  1  0
 18 39  1  0
 19 40  1  0
 20 41  1  0
 21 42  1  0
 23 43  1  0
 24 44  1  0
M  END
>  <smiles>  (31) 
COc1cccc(-c2nc(C)cc(=NCCc3ccccn3)[nH]2)c1

>  <score_type>  (31) 
oracle

>  <origin>  (31) 
adg

>  <m_score__min__energy>  (31) 
-7.5999999999999996

>  <m_primary>  (31) 
energy

$$$$
31:0
     RDKit          3D

 39 39  0  0  0  0  0  0  0  0999 V2000
   59.3060   34.6280   45.6040 C   0  0  0  0  0  0  0  0  0  0  0  0
   59.6790   33.9040   46.9090 C   0  0  0  0  0  0  0  0  0  0  0  0
   60.6970   32.8360   46.7540 N   0  0  0  0  0  0  0  0  0  0  0  0
   61.9050   33.0060   47.5970 C   0  0  0  0  0  0  0  0  0  0  0  0
   63.1260   33.5480   46.8500 C   0  0  0  0  0  0  0  0  0  0  0  0
   60.1570   31.4610   46.6680 C   0  0  0  0  0  0  0  0  0  0  0  0
   58.6230   31.4520   46.7110 C   0  0  0  0  0  0  0  0  0  0  0  0
   58.1010   30.2590   46.0490 N   0  0  0  0  0  0  0  0  0  0  0  0
   57.1290   30.3250   44.9960 C   0  0  0  0  0  0  0  0  0  0  0  0
   56.6710   31.4370   44.6170 O   0  0  0  0  0  0  0  0  0  0  0  0
   56.6790   29.0720   44.3150 C   0  0  0  0  0  0  0  0  0  0  0  0
   55.9010   28.2740   45.2510 N   0  0  0  0  0  0  0  0  0  0  0  0
   56.3570   27.1240   45.9790 C   0  0  0  0  0  0  0  0  0  0  0  0
   55.5640   26.1570   46.1220 O   0  0  0  0  0  0  0  0  0  0  0  0
   57.7220   26.9890   46.5280 C   0  0  0  0  0  0  0  0  0  0  0  0
   58.7340   26.1480   46.0940 C   0  0  0  0  0  0  0  0  0  0  0  0
   59.8180   26.4150   46.9030 C   0  0  0  0  0  0  0  0  0  0  0  0
   59.4060   27.4020   47.7700 C   0  0  0  0  0  0  0  0  0  0  0  0
   60.4740   28.2000   49.1320 Br  0  0  0  0  0  0  0  0  0  0  0  0
   58.1600   27.7280   47.5230 O   0  0  0  0  0  0  0  0  0  0  0  0
   58.8141   35.5827   45.8420 H   0  0  0  0  0  0  0  0  0  0  0  0
   60.2170   34.8209   45.0184 H   0  0  0  0  0  0  0  0  0  0  0  0
   58.6201   33.9982   45.0184 H   0  0  0  0  0  0  0  0  0  0  0  0
   60.0701   34.6507   47.6158 H   0  0  0  0  0  0  0  0  0  0  0  0
   58.7622   33.4113   47.2649 H   0  0  0  0  0  0  0  0  0  0  0  0
   61.6612   33.7050   48.4106 H   0  0  0  0  0  0  0  0  0  0  0  0
   62.1782   32.0042   47.9599 H   0  0  0  0  0  0  0  0  0  0  0  0
   63.8811   33.8832   47.5762 H   0  0  0  0  0  0  0  0  0  0  0  0
   63.5516   32.7543   46.2185 H   0  0  0  0  0  0  0  0  0  0  0  0
   62.8228   34.3961   46.2185 H   0  0  0  0  0  0  0  0  0  0  0  0
   60.4902   31.0052   45.7240 H   0  0  0  0  0  0  0  0  0  0  0  0
   60.5285   30.8911   47.5325 H   0  0  0  0  0  0  0  0  0  0  0  0
   58.2899   31.4596   47.7593 H   0  0  0  0  0  0  0  0  0  0  0  0
   58.2466   32.3434   46.1878 H   0  0  0  0  0  0  0  0  0  0  0  0
   58.4230   29.3230   46.3820 H   0  0  0  0  0  0  0  0  0  0  0  0
   56.0574   29.3288   43.4446 H   0  0  0  0  0  0  0  0  0  0  0  0
   57.5550   28.4984   43.9781 H   0  0  0  0  0  0  0  0  0  0  0  0
   58.6831   25.4177   45.2730 H   0  0  0  0  0  0  0  0  0  0  0  0
   60.8083   25.9377   46.8638 H   0  0  0  0  0  0  0  0  0  0  0  0
  1  2  1  0
  2  3  1  0
  3  4  1  0
  4  5  1  0
  3  6  1  0
  6  7  1  0
  7  8  1  0
  8  9  1  0
  9 10  2  0
  9 11  1  0
 11 12  1  0
 12 13  1  0
 13 14  2  0
 13 15  1  0
 15 16  2  0
 16 17  1  0
 17 18  2  0
 18 19  1  0
 18 20  1  0
 20 15  1  0
  1 21  1  0
  1 22  1  0
  1 23  1  0
  2 24  1  0
  2 25  1  0
  4 26  1  0
  4 27  1  0
  5 28  1  0
  5 29  1  0
  5 30  1  0
  6 31  1  0
  6 32  1  0
  7 33  1  0
  7 34  1  0
  8 35  1  0
 11 36  1  0
 11 37  1  0
 16 38  1  0
 17 39  1  0
M  CHG  1  12  -1
M  END
>  <UniqueID>  (32) 
30

>  <SMILES>  (32) 
CCN(CC)CCNC(=O)C[N-]C(=O)c1ccc(Br)o1

>  <Energy>  (32) 
65.41693063961986

>  <Genealogy>  (32) 
CCN(CC)CCNC(=O)C[N-]C(=O)c1ccc(Br)o1 (protonated)
CCN(CC)CCNC(=O)C[N-]C(=O)c1ccc(Br)o1 (3D coordinates assigned)
CCN(CC)CCNC(=O)C[N-]C(=O)c1ccc(Br)o1 (optimized conformer: 65.41693063961986 kcal/mol)

>  <smiles>  (32) 
CCN(CC)CCNC(=O)CNC(=O)c1ccc(Br)o1

>  <score_type>  (32) 
oracle

>  <origin>  (32) 
adg

>  <m_score__min__energy>  (32) 
-7.8099999999999996

>  <m_primary>  (32) 
energy

$$$$
32:0
     RDKit          3D

 50 51  0  0  0  0  0  0  0  0999 V2000
   57.3950   34.0970   44.8630 C   0  0  0  0  0  0  0  0  0  0  0  0
   57.4130   33.7920   46.3660 C   0  0  0  0  0  0  0  0  0  0  0  0
   58.4540   32.7840   46.7280 N   0  0  0  0  0  0  0  0  0  0  0  0
   59.8120   33.1690   46.2650 C   0  0  0  0  0  0  0  0  0  0  0  0
   60.2300   34.5590   46.7560 C   0  0  0  0  0  0  0  0  0  0  0  0
   58.4340   32.4370   48.1780 C   0  0  0  0  0  0  0  0  0  0  0  0
   59.6140   31.5770   48.7060 C   0  0  0  0  0  0  0  0  0  0  0  0
   59.5310   30.0790   48.3880 C   0  0  0  0  0  0  0  0  0  0  0  0
   59.1390   29.8420   46.9960 N   0  0  0  0  0  0  0  0  0  0  0  0
   58.7810   28.5380   46.4980 C   0  0  0  0  0  0  0  0  0  0  0  0
   59.5240   27.4060   46.8810 C   0  0  0  0  0  0  0  0  0  0  0  0
   59.2370   26.1490   46.3480 C   0  0  0  0  0  0  0  0  0  0  0  0
   58.2040   25.9890   45.4130 C   0  0  0  0  0  0  0  0  0  0  0  0
   57.9040   24.6510   44.8430 C   0  0  0  0  0  0  0  0  0  0  0  0
   58.5980   23.5100   45.2880 C   0  0  0  0  0  0  0  0  0  0  0  0
   58.3140   22.2530   44.7480 C   0  0  0  0  0  0  0  0  0  0  0  0
   57.3350   22.1180   43.7610 C   0  0  0  0  0  0  0  0  0  0  0  0
   56.6380   23.2420   43.3120 C   0  0  0  0  0  0  0  0  0  0  0  0
   56.9190   24.5030   43.8470 C   0  0  0  0  0  0  0  0  0  0  0  0
   57.4540   27.1130   45.0310 C   0  0  0  0  0  0  0  0  0  0  0  0
   57.7190   28.3830   45.5730 C   0  0  0  0  0  0  0  0  0  0  0  0
   56.8840   29.4900   45.1930 N   0  0  0  0  0  0  0  0  0  0  0  0
   57.3110   30.6600   45.2730 O   0  0  0  0  0  0  0  0  0  0  0  0
   55.5450   29.2900   44.9480 O   0  0  0  0  0  0  0  0  0  0  0  0
   57.3308   35.1845   44.7103 H   0  0  0  0  0  0  0  0  0  0  0  0
   58.3172   33.7156   44.4004 H   0  0  0  0  0  0  0  0  0  0  0  0
   56.5240   33.6097   44.4004 H   0  0  0  0  0  0  0  0  0  0  0  0
   57.6176   34.7239   46.9135 H   0  0  0  0  0  0  0  0  0  0  0  0
   56.4320   33.3741   46.6361 H   0  0  0  0  0  0  0  0  0  0  0  0
   58.2240   31.8810   46.2460 H   0  0  0  0  0  0  0  0  0  0  0  0
   60.5351   32.4303   46.6412 H   0  0  0  0  0  0  0  0  0  0  0  0
   59.7940   33.1956   45.1655 H   0  0  0  0  0  0  0  0  0  0  0  0
   60.2343   34.5734   47.8559 H   0  0  0  0  0  0  0  0  0  0  0  0
   61.2380   34.7921   46.3823 H   0  0  0  0  0  0  0  0  0  0  0  0
   59.5178   35.3094   46.3823 H   0  0  0  0  0  0  0  0  0  0  0  0
   58.4279   33.3790   48.7460 H   0  0  0  0  0  0  0  0  0  0  0  0
   57.5384   31.8128   48.3133 H   0  0  0  0  0  0  0  0  0  0  0  0
   60.5425   31.9668   48.2634 H   0  0  0  0  0  0  0  0  0  0  0  0
   59.5794   31.6561   49.8026 H   0  0  0  0  0  0  0  0  0  0  0  0
   60.5160   29.6220   48.5638 H   0  0  0  0  0  0  0  0  0  0  0  0
   58.7670   29.6314   49.0407 H   0  0  0  0  0  0  0  0  0  0  0  0
   59.1720   30.6440   46.3270 H   0  0  0  0  0  0  0  0  0  0  0  0
   60.3411   27.5135   47.6096 H   0  0  0  0  0  0  0  0  0  0  0  0
   59.8263   25.2755   46.6640 H   0  0  0  0  0  0  0  0  0  0  0  0
   59.3692   23.6086   46.0662 H   0  0  0  0  0  0  0  0  0  0  0  0
   58.8628   21.3675   45.1011 H   0  0  0  0  0  0  0  0  0  0  0  0
   57.1131   21.1273   43.3377 H   0  0  0  0  0  0  0  0  0  0  0  0
   55.8661   23.1350   42.5356 H   0  0  0  0  0  0  0  0  0  0  0  0
   56.3676   25.3845   43.4880 H   0  0  0  0  0  0  0  0  0  0  0  0
   56.6449   26.9979   44.2947 H   0  0  0  0  0  0  0  0  0  0  0  0
  1  2  1  0
  2  3  1  0
  3  4  1  0
  4  5  1  0
  3  6  1  0
  6  7  1  0
  7  8  1  0
  8  9  1  0
  9 10  1  0
 10 11  2  0
 11 12  1  0
 12 13  2  0
 13 14  1  0
 14 15  2  0
 15 16  1  0
 16 17  2  0
 17 18  1  0
 18 19  2  0
 13 20  1  0
 20 21  2  0
 21 22  1  0
 22 23  2  0
 22 24  1  0
 21 10  1  0
 19 14  1  0
  1 25  1  0
  1 26  1  0
  1 27  1  0
  2 28  1  0
  2 29  1  0
  3 30  1  0
  4 31  1  0
  4 32  1  0
  5 33  1  0
  5 34  1  0
  5 35  1  0
  6 36  1  0
  6 37  1  0
  7 38  1  0
  7 39  1  0
  8 40  1  0
  8 41  1  0
  9 42  1  0
 11 43  1  0
 12 44  1  0
 15 45  1  0
 16 46  1  0
 17 47  1  0
 18 48  1  0
 19 49  1  0
 20 50  1  0
M  CHG  3   3   1  22   1  24  -1
M  END
>  <UniqueID>  (33) 
31

>  <SMILES>  (33) 
CC[NH+](CC)CCCNc1ccc(-c2ccccc2)cc1[N+](=O)[O-]

>  <Energy>  (33) 
64.62937640407446

>  <Genealogy>  (33) 
CC[NH+](CC)CCCNc1ccc(-c2ccccc2)cc1[N+](=O)[O-] (protonated)
CC[NH+](CC)CCCNc1ccc(-c2ccccc2)cc1[N+](=O)[O-] (3D coordinates assigned)
CC[NH+](CC)CCCNc1ccc(-c2ccccc2)cc1[N+](=O)[O-] (optimized conformer: 64.62937640407446 kcal/mol)

>  <smiles>  (33) 
CCN(CC)CCCNc1ccc(-c2ccccc2)cc1[N+](=O)[O-]

>  <score_type>  (33) 
oracle

>  <origin>  (33) 
adg

>  <m_score__min__energy>  (33) 
-6.0800000000000001

>  <m_primary>  (33) 
energy

$$$$
33:0
     RDKit          3D

 24 25  0  0  0  0  0  0  0  0999 V2000
   57.4910   32.3420   40.7870 C   0  0  0  0  0  0  0  0  0  0  0  0
   57.3940   31.8870   42.2070 C   0  0  0  0  0  0  0  0  0  0  0  0
   58.0740   32.5780   43.2200 C   0  0  0  0  0  0  0  0  0  0  0  0
   57.9780   32.1340   44.5470 C   0  0  0  0  0  0  0  0  0  0  0  0
   58.6980   32.8370   45.6310 C   0  0  0  0  0  0  0  0  0  0  0  0
   58.5300   34.2260   45.7740 C   0  0  0  0  0  0  0  0  0  0  0  0
   59.1820   34.9170   46.7970 C   0  0  0  0  0  0  0  0  0  0  0  0
   60.0120   34.2320   47.6850 C   0  0  0  0  0  0  0  0  0  0  0  0
   60.1980   32.8560   47.5470 C   0  0  0  0  0  0  0  0  0  0  0  0
   59.5500   32.1510   46.5260 C   0  0  0  0  0  0  0  0  0  0  0  0
   59.9210   30.2760   46.3510 Br  0  0  0  0  0  0  0  0  0  0  0  0
   57.2230   30.9870   44.8300 C   0  0  0  0  0  0  0  0  0  0  0  0
   56.5660   30.3210   43.7930 C   0  0  0  0  0  0  0  0  0  0  0  0
   56.6650   30.7800   42.5180 N   0  0  0  0  0  0  0  0  0  0  0  0
   57.7203   33.4175   40.7614 H   0  0  0  0  0  0  0  0  0  0  0  0
   58.2905   31.7844   40.2771 H   0  0  0  0  0  0  0  0  0  0  0  0
   56.5337   32.1590   40.2771 H   0  0  0  0  0  0  0  0  0  0  0  0
   58.6793   33.4633   42.9754 H   0  0  0  0  0  0  0  0  0  0  0  0
   57.8800   34.7721   45.0745 H   0  0  0  0  0  0  0  0  0  0  0  0
   59.0412   36.0028   46.9031 H   0  0  0  0  0  0  0  0  0  0  0  0
   60.5200   34.7770   48.4943 H   0  0  0  0  0  0  0  0  0  0  0  0
   60.8586   32.3215   48.2455 H   0  0  0  0  0  0  0  0  0  0  0  0
   57.1486   30.6140   45.8622 H   0  0  0  0  0  0  0  0  0  0  0  0
   55.9676   29.4236   44.0088 H   0  0  0  0  0  0  0  0  0  0  0  0
  1  2  1  0
  2  3  2  0
  3  4  1  0
  4  5  1  0
  5  6  2  0
  6  7  1  0
  7  8  2  0
  8  9  1  0
  9 10  2  0
 10 11  1  0
  4 12  2  0
 12 13  1  0
 13 14  2  0
 14  2  1  0
 10  5  1  0
  1 15  1  0
  1 16  1  0
  1 17  1  0
  3 18  1  0
  6 19  1  0
  7 20  1  0
  8 21  1  0
  9 22  1  0
 12 23  1  0
 13 24  1  0
M  END
>  <UniqueID>  (34) 
32

>  <SMILES>  (34) 
Cc1cc(-c2ccccc2Br)ccn1

>  <Energy>  (34) 
31.78767580969566

>  <Genealogy>  (34) 
Cc1cc(-c2ccccc2Br)ccn1 (3D coordinates assigned)
Cc1cc(-c2ccccc2Br)ccn1 (optimized conformer: 31.78767580969566 kcal/mol)

>  <smiles>  (34) 
Cc1cc(-c2ccccc2Br)ccn1

>  <score_type>  (34) 
oracle

>  <origin>  (34) 
adg

>  <m_score__min__energy>  (34) 
-6.2999999999999998

>  <m_primary>  (34) 
energy

$$$$
34:0
     RDKit          3D

 33 35  0  0  0  0  0  0  0  0999 V2000
   57.2160   30.8690   44.0320 C   0  0  0  0  0  0  0  0  0  0  0  0
   57.3930   31.4770   45.3060 O   0  0  0  0  0  0  0  0  0  0  0  0
   58.1810   32.6160   45.5380 C   0  0  0  0  0  0  0  0  0  0  0  0
   58.3070   33.6520   44.5920 C   0  0  0  0  0  0  0  0  0  0  0  0
   59.1010   34.7660   44.8730 C   0  0  0  0  0  0  0  0  0  0  0  0
   59.7740   34.8610   46.0930 C   0  0  0  0  0  0  0  0  0  0  0  0
   59.6640   33.8330   47.0420 C   0  0  0  0  0  0  0  0  0  0  0  0
   60.3570   33.9430   48.3730 C   0  0  0  0  0  0  0  0  0  0  0  0
   61.7720   33.5990   48.2310 N   0  0  0  0  0  0  0  0  0  0  0  0
   62.3700   33.0600   47.1380 C   0  0  0  0  0  0  0  0  0  0  0  0
   63.6770   32.7760   47.3520 N   0  0  0  0  0  0  0  0  0  0  0  0
   63.8940   33.1410   48.6270 C   0  0  0  0  0  0  0  0  0  0  0  0
   65.0730   33.0430   49.3620 C   0  0  0  0  0  0  0  0  0  0  0  0
   65.0440   33.4780   50.7010 C   0  0  0  0  0  0  0  0  0  0  0  0
   63.8530   33.9920   51.2610 C   0  0  0  0  0  0  0  0  0  0  0  0
   62.6770   34.0750   50.4900 C   0  0  0  0  0  0  0  0  0  0  0  0
   62.7410   33.6360   49.1660 C   0  0  0  0  0  0  0  0  0  0  0  0
   58.8590   32.7170   46.7590 C   0  0  0  0  0  0  0  0  0  0  0  0
   56.9108   29.8206   44.1653 H   0  0  0  0  0  0  0  0  0  0  0  0
   56.4378   31.4092   43.4729 H   0  0  0  0  0  0  0  0  0  0  0  0
   58.1625   30.9071   43.4729 H   0  0  0  0  0  0  0  0  0  0  0  0
   57.7787   33.5834   43.6296 H   0  0  0  0  0  0  0  0  0  0  0  0
   59.1967   35.5718   44.1304 H   0  0  0  0  0  0  0  0  0  0  0  0
   60.3922   35.7444   46.3108 H   0  0  0  0  0  0  0  0  0  0  0  0
   60.2685   34.9742   48.7455 H   0  0  0  0  0  0  0  0  0  0  0  0
   59.8862   33.2477   49.0835 H   0  0  0  0  0  0  0  0  0  0  0  0
   61.8515   32.8747   46.1857 H   0  0  0  0  0  0  0  0  0  0  0  0
   64.3550   32.3530   46.6800 H   0  0  0  0  0  0  0  0  0  0  0  0
   65.9930   32.6406   48.9130 H   0  0  0  0  0  0  0  0  0  0  0  0
   65.9546   33.4172   51.3150 H   0  0  0  0  0  0  0  0  0  0  0  0
   63.8440   34.3302   52.3077 H   0  0  0  0  0  0  0  0  0  0  0  0
   61.7429   34.4709   50.9152 H   0  0  0  0  0  0  0  0  0  0  0  0
   58.7603   31.9141   47.5044 H   0  0  0  0  0  0  0  0  0  0  0  0
  1  2  1  0
  2  3  1  0
  3  4  2  0
  4  5  1  0
  5  6  2  0
  6  7  1  0
  7  8  1  0
  8  9  1  0
  9 10  1  0
 10 11  2  0
 11 12  1  0
 12 13  2  0
 13 14  1  0
 14 15  2  0
 15 16  1  0
 16 17  2  0
  7 18  2  0
 18  3  1  0
 17  9  1  0
 17 12  1  0
  1 19  1  0
  1 20  1  0
  1 21  1  0
  4 22  1  0
  5 23  1  0
  6 24  1  0
  8 25  1  0
  8 26  1  0
 10 27  1  0
 11 28  1  0
 13 29  1  0
 14 30  1  0
 15 31  1  0
 16 32  1  0
 18 33  1  0
M  CHG  1  11   1
M  END
>  <UniqueID>  (35) 
33

>  <SMILES>  (35) 
COc1cccc(Cn2c[nH+]c3ccccc32)c1

>  <Energy>  (35) 
71.80779533584027

>  <Genealogy>  (35) 
COc1cccc(Cn2c[nH+]c3ccccc32)c1 (protonated)
COc1cccc(Cn2c[nH+]c3ccccc32)c1 (3D coordinates assigned)
COc1cccc(Cn2c[nH+]c3ccccc32)c1 (optimized conformer: 71.80779533584027 kcal/mol)

>  <smiles>  (35) 
COc1cccc(Cn2cnc3ccccc32)c1

>  <score_type>  (35) 
oracle

>  <origin>  (35) 
adg

>  <m_score__min__energy>  (35) 
-5.4699999999999998

>  <m_primary>  (35) 
energy

$$$$
35:0
     RDKit          3D

 62 62  0  0  0  0  0  0  0  0999 V2000
   63.1460   31.2670   49.8510 C   0  0  0  0  0  0  0  0  0  0  0  0
   64.4270   32.0650   49.6450 C   0  0  0  0  0  0  0  0  0  0  0  0
   64.2340   33.0820   48.5540 C   0  0  0  0  0  0  0  0  0  0  0  0
   63.5470   32.7950   47.4350 C   0  0  0  0  0  0  0  0  0  0  0  0
   63.3530   33.8240   46.3650 C   0  0  0  0  0  0  0  0  0  0  0  0
   61.9650   33.9840   46.1450 O   0  0  0  0  0  0  0  0  0  0  0  0
   61.1780   33.3290   47.1330 C   0  0  1  0  0  0  0  0  0  0  0  0
   60.7620   34.3640   48.2520 C   0  0  1  0  0  0  0  0  0  0  0  0
   59.3040   34.8500   48.2320 C   0  0  0  0  0  0  0  0  0  0  0  0
   61.2160   33.9510   49.6370 C   0  0  0  0  0  0  0  0  0  0  0  0
   62.1850   34.5530   50.1760 O   0  0  0  0  0  0  0  0  0  0  0  0
   60.5270   32.9580   50.3460 O   0  0  0  0  0  0  0  0  0  0  0  0
   60.2360   33.0440   51.7410 C   0  0  0  0  0  0  0  0  0  0  0  0
   58.7840   33.4740   51.9660 C   0  0  0  0  0  0  0  0  0  0  0  0
   57.8130   32.3730   51.5260 C   0  0  0  0  0  0  0  0  0  0  0  0
   58.4520   30.9920   51.6360 C   0  0  0  0  0  0  0  0  0  0  0  0
   60.0770   32.4640   46.3910 C   0  0  2  0  0  0  0  0  0  0  0  0
   58.9520   33.1970   45.6160 C   0  0  0  0  0  0  0  0  0  0  0  0
   59.0330   34.6280   45.1350 C   0  0  0  0  0  0  0  0  0  0  0  0
   57.9060   32.4940   45.1410 C   0  0  0  0  0  0  0  0  0  0  0  0
   57.7600   31.0490   45.3580 C   0  0  0  0  0  0  0  0  0  0  0  0
   56.7630   30.4460   44.8820 O   0  0  0  0  0  0  0  0  0  0  0  0
   58.8140   30.2800   46.0940 C   0  0  0  0  0  0  0  0  0  0  0  0
   59.5350   31.1720   47.1400 C   0  0  0  0  0  0  0  0  0  0  0  0
   60.6810   30.3260   47.7440 C   0  0  0  0  0  0  0  0  0  0  0  0
   58.5240   31.4930   48.2660 C   0  0  0  0  0  0  0  0  0  0  0  0
   62.9567   31.1491   50.9282 H   0  0  0  0  0  0  0  0  0  0  0  0
   62.3032   31.8002   49.3868 H   0  0  0  0  0  0  0  0  0  0  0  0
   63.2530   30.2755   49.3868 H   0  0  0  0  0  0  0  0  0  0  0  0
   64.6885   32.5808   50.5807 H   0  0  0  0  0  0  0  0  0  0  0  0
   65.2362   31.3778   49.3569 H   0  0  0  0  0  0  0  0  0  0  0  0
   64.6661   34.0863   48.6749 H   0  0  0  0  0  0  0  0  0  0  0  0
   63.1211   31.7894   47.3034 H   0  0  0  0  0  0  0  0  0  0  0  0
   63.7908   34.7807   46.6860 H   0  0  0  0  0  0  0  0  0  0  0  0
   63.8478   33.5017   45.4369 H   0  0  0  0  0  0  0  0  0  0  0  0
   61.7124   32.5775   47.7326 H   0  0  0  0  0  0  0  0  0  0  0  0
   61.3289   35.2629   47.9682 H   0  0  0  0  0  0  0  0  0  0  0  0
   58.9434   34.9702   49.2642 H   0  0  0  0  0  0  0  0  0  0  0  0
   59.2466   35.8159   47.7087 H   0  0  0  0  0  0  0  0  0  0  0  0
   58.6786   34.1118   47.7087 H   0  0  0  0  0  0  0  0  0  0  0  0
   60.3969   32.0596   52.2047 H   0  0  0  0  0  0  0  0  0  0  0  0
   60.9009   33.7934   52.1952 H   0  0  0  0  0  0  0  0  0  0  0  0
   58.6317   33.6823   53.0353 H   0  0  0  0  0  0  0  0  0  0  0  0
   58.5877   34.3756   51.3671 H   0  0  0  0  0  0  0  0  0  0  0  0
   56.9197   32.4063   52.1670 H   0  0  0  0  0  0  0  0  0  0  0  0
   57.5445   32.5479   50.4737 H   0  0  0  0  0  0  0  0  0  0  0  0
   58.5742   30.7280   52.6968 H   0  0  0  0  0  0  0  0  0  0  0  0
   57.8062   30.2490   51.1452 H   0  0  0  0  0  0  0  0  0  0  0  0
   59.4364   31.0033   51.1452 H   0  0  0  0  0  0  0  0  0  0  0  0
   60.7461   32.0945   45.5999 H   0  0  0  0  0  0  0  0  0  0  0  0
   59.0713   35.3045   46.0015 H   0  0  0  0  0  0  0  0  0  0  0  0
   59.9400   34.7596   44.5267 H   0  0  0  0  0  0  0  0  0  0  0  0
   58.1466   34.8611   44.5267 H   0  0  0  0  0  0  0  0  0  0  0  0
   57.1304   33.0232   44.5679 H   0  0  0  0  0  0  0  0  0  0  0  0
   58.3430   29.4309   46.6108 H   0  0  0  0  0  0  0  0  0  0  0  0
   59.5590   29.9272   45.3657 H   0  0  0  0  0  0  0  0  0  0  0  0
   60.6269   30.3660   48.8419 H   0  0  0  0  0  0  0  0  0  0  0  0
   60.5820   29.2827   47.4097 H   0  0  0  0  0  0  0  0  0  0  0  0
   61.6489   30.7279   47.4097 H   0  0  0  0  0  0  0  0  0  0  0  0
   59.0039   31.3406   49.2440 H   0  0  0  0  0  0  0  0  0  0  0  0
   58.1964   32.5393   48.1773 H   0  0  0  0  0  0  0  0  0  0  0  0
   57.6528   30.8273   48.1773 H   0  0  0  0  0  0  0  0  0  0  0  0
  1  2  1  0
  2  3  1  0
  3  4  2  3
  4  5  1  0
  5  6  1  0
  6  7  1  0
  7  8  1  0
  8  9  1  0
  8 10  1  0
 10 11  2  0
 10 12  1  0
 12 13  1  0
 13 14  1  0
 14 15  1  0
 15 16  1  0
  7 17  1  0
 17 18  1  0
 18 19  1  0
 18 20  2  0
 20 21  1  0
 21 22  2  0
 21 23  1  0
 23 24  1  0
 24 25  1  0
 24 26  1  0
 24 17  1  0
  1 27  1  0
  1 28  1  0
  1 29  1  0
  2 30  1  0
  2 31  1  0
  3 32  1  0
  4 33  1  0
  5 34  1  0
  5 35  1  0
  7 36  1  1
  8 37  1  6
  9 38  1  0
  9 39  1  0
  9 40  1  0
 13 41  1  0
 13 42  1  0
 14 43  1  0
 14 44  1  0
 15 45  1  0
 15 46  1  0
 16 47  1  0
 16 48  1  0
 16 49  1  0
 17 50  1  6
 19 51  1  0
 19 52  1  0
 19 53  1  0
 20 54  1  0
 23 55  1  0
 23 56  1  0
 25 57  1  0
 25 58  1  0
 25 59  1  0
 26 60  1  0
 26 61  1  0
 26 62  1  0
M  END
>  <UniqueID>  (36) 
34

>  <SMILES>  (36) 
CCC=CCO[C@H](C1C(C)=CC(=O)CC1(C)C)[C@@H](C)C(=O)OCCCC

>  <Energy>  (36) 
69.19711563151733

>  <Genealogy>  (36) 
CCC=CCO[C@H](C1C(C)=CC(=O)CC1(C)C)[C@@H](C)C(=O)OCCCC (chirality)
CCC=CCO[C@H](C1C(C)=CC(=O)CC1(C)C)[C@@H](C)C(=O)OCCCC (3D coordinates assigned)
CCC=CCO[C@H](C1C(C)=CC(=O)CC1(C)C)[C@@H](C)C(=O)OCCCC (nonaromatic ring conformer: 69.19711563151733 kcal/mol)

>  <smiles>  (36) 
CCC=CCOC(C(C)C(=O)OCCCC)C1C(C)=CC(=O)CC1(C)C

>  <score_type>  (36) 
oracle

>  <origin>  (36) 
adg

>  <m_score__min__energy>  (36) 
-7.4100000000000001

>  <m_primary>  (36) 
energy

$$$$
36:0
     RDKit          3D

 38 39  0  0  0  0  0  0  0  0999 V2000
   55.1940   28.1960   44.8920 H   0  0  0  0  0  0  0  0  0  0  0  0
   55.8910   27.8570   45.5910 N   0  0  0  0  0  0  0  0  0  0  0  0
   57.1810   27.8810   45.4220 C   0  0  0  0  0  0  0  0  0  0  0  0
   57.8250   29.0360   44.9130 C   0  0  0  0  0  0  0  0  0  0  0  0
   56.9360   30.4910   44.4630 S   0  0  0  0  0  0  0  0  0  0  0  0
   55.2820   30.3790   44.7420 O   0  0  0  0  0  0  0  0  0  0  0  0
   55.2030   30.0690   45.6780 H   0  0  0  0  0  0  0  0  0  0  0  0
   57.6470   31.9780   45.0610 C   0  0  0  0  0  0  0  0  0  0  0  0
   57.7850   33.0880   44.2170 C   0  0  0  0  0  0  0  0  0  0  0  0
   57.4499   33.0281   43.1710 H   0  0  0  0  0  0  0  0  0  0  0  0
   58.3490   34.2730   44.7040 C   0  0  0  0  0  0  0  0  0  0  0  0
   58.4563   35.1440   44.0407 H   0  0  0  0  0  0  0  0  0  0  0  0
   58.7760   34.3500   46.0330 C   0  0  0  0  0  0  0  0  0  0  0  0
   59.2194   35.2812   46.4156 H   0  0  0  0  0  0  0  0  0  0  0  0
   58.6390   33.2420   46.8760 C   0  0  0  0  0  0  0  0  0  0  0  0
   58.9748   33.3031   47.9217 H   0  0  0  0  0  0  0  0  0  0  0  0
   58.0760   32.0570   46.3920 C   0  0  0  0  0  0  0  0  0  0  0  0
   57.9700   31.1869   47.0566 H   0  0  0  0  0  0  0  0  0  0  0  0
   59.2120   29.0310   44.7590 C   0  0  0  0  0  0  0  0  0  0  0  0
   59.7233   29.9197   44.3605 H   0  0  0  0  0  0  0  0  0  0  0  0
   59.9480   27.9060   45.1080 C   0  0  0  0  0  0  0  0  0  0  0  0
   61.0418   27.9018   44.9916 H   0  0  0  0  0  0  0  0  0  0  0  0
   59.2920   26.7840   45.6060 C   0  0  0  0  0  0  0  0  0  0  0  0
   59.8757   25.8965   45.8918 H   0  0  0  0  0  0  0  0  0  0  0  0
   57.9300   26.7700   45.7450 N   0  0  0  0  0  0  0  0  0  0  0  0
   57.3020   25.5580   46.3010 C   0  0  0  0  0  0  0  0  0  0  0  0
   57.2035   25.6675   47.3911 H   0  0  0  0  0  0  0  0  0  0  0  0
   56.3096   25.4271   45.8450 H   0  0  0  0  0  0  0  0  0  0  0  0
   58.1620   24.3240   45.9910 C   0  0  0  0  0  0  0  0  0  0  0  0
   59.2146   24.6365   45.9244 H   0  0  0  0  0  0  0  0  0  0  0  0
   58.0035   23.5970   46.8012 H   0  0  0  0  0  0  0  0  0  0  0  0
   57.7680   23.6420   44.6730 C   0  0  0  0  0  0  0  0  0  0  0  0
   58.5753   23.7968   43.9420 H   0  0  0  0  0  0  0  0  0  0  0  0
   57.6103   22.5745   44.8863 H   0  0  0  0  0  0  0  0  0  0  0  0
   56.4670   24.1920   44.0880 C   0  0  0  0  0  0  0  0  0  0  0  0
   55.7895   24.4784   44.9059 H   0  0  0  0  0  0  0  0  0  0  0  0
   56.6875   25.0739   43.4686 H   0  0  0  0  0  0  0  0  0  0  0  0
   55.9880   23.4194   43.4686 H   0  0  0  0  0  0  0  0  0  0  0  0
  1  2  1  0
  2  3  2  0
  3  4  1  0
  4  5  1  0
  5  6  1  1
  6  7  1  0
  5  8  1  0
  8  9  2  0
  9 10  1  0
  9 11  1  0
 11 12  1  0
 11 13  2  0
 13 14  1  0
 13 15  1  0
 15 16  1  0
 15 17  2  0
 17 18  1  0
  4 19  2  0
 19 20  1  0
 19 21  1  0
 21 22  1  0
 21 23  2  0
 23 24  1  0
 23 25  1  0
 25 26  1  0
 26 27  1  0
 26 28  1  0
 26 29  1  0
 29 30  1  0
 29 31  1  0
 29 32  1  0
 32 33  1  0
 32 34  1  0
 32 35  1  0
 35 36  1  0
 35 37  1  0
 35 38  1  0
 25  3  1  0
 17  8  1  0
M  CHG  1   5   1
M  END
>  <UniqueID>  (37) 
35

>  <SMILES>  (37) 
[H]/N=c1\c([S@@+](O)c2ccccc2)cccn1CCCC

>  <Energy>  (37) 
34.93010186800017

>  <Genealogy>  (37) 
CCCCn1cccc([S+](O)c2ccccc2)c1=N (protonated)
CCCCn1cccc([S@@+](O)c2ccccc2)c1=N (chirality)
[H]/N=c1\c([S@@+](O)c2ccccc2)cccn1CCCC (cis-trans isomerization)
[H]/N=c1\c([S@@+](O)c2ccccc2)cccn1CCCC (3D coordinates assigned)
[H]/N=c1\c([S@@+](O)c2ccccc2)cccn1CCCC (optimized conformer: 34.93010186800017 kcal/mol)

>  <smiles>  (37) 
CCCCn1cccc([S+]([O-])c2ccccc2)c1=N

>  <score_type>  (37) 
oracle

>  <origin>  (37) 
adg

>  <m_score__min__energy>  (37) 
-5.5999999999999996

>  <m_primary>  (37) 
energy

$$$$
37:0
     RDKit          3D

 35 37  0  0  0  0  0  0  0  0999 V2000
   64.1390   33.5500   49.8470 C   0  0  0  0  0  0  0  0  0  0  0  0
   62.9350   33.5680   48.9530 C   0  0  0  0  0  0  0  0  0  0  0  0
   61.6550   33.7580   49.4950 C   0  0  0  0  0  0  0  0  0  0  0  0
   60.5290   33.7360   48.6670 C   0  0  0  0  0  0  0  0  0  0  0  0
   60.6640   33.5200   47.2860 C   0  0  0  0  0  0  0  0  0  0  0  0
   59.4640   33.4860   46.4170 C   0  0  0  0  0  0  0  0  0  0  0  0
   58.9880   34.6230   45.7630 C   0  0  0  0  0  0  0  0  0  0  0  0
   57.6230   34.2090   44.8750 S   0  0  0  0  0  0  0  0  0  0  0  0
   57.6200   32.5800   45.2980 C   0  0  0  0  0  0  0  0  0  0  0  0
   56.6750   31.6000   44.8400 N   0  0  0  0  0  0  0  0  0  0  0  0
   57.0000   30.6080   43.8180 C   0  0  0  0  0  0  0  0  0  0  0  0
   57.1260   29.2510   44.4340 C   0  0  0  0  0  0  0  0  0  0  0  0
   58.1490   28.3530   44.2040 C   0  0  0  0  0  0  0  0  0  0  0  0
   57.8450   27.2440   44.9650 C   0  0  0  0  0  0  0  0  0  0  0  0
   56.6580   27.5360   45.6080 C   0  0  0  0  0  0  0  0  0  0  0  0
   56.2550   28.7390   45.2720 O   0  0  0  0  0  0  0  0  0  0  0  0
   58.6930   32.3330   46.1490 C   0  0  0  0  0  0  0  0  0  0  0  0
   59.0180   31.0130   46.6330 C   0  0  0  0  0  0  0  0  0  0  0  0
   59.2780   29.9540   47.0220 N   0  0  0  0  0  0  0  0  0  0  0  0
   61.9450   33.2990   46.7520 C   0  0  0  0  0  0  0  0  0  0  0  0
   63.0710   33.3200   47.5800 C   0  0  0  0  0  0  0  0  0  0  0  0
   63.8152   33.5548   50.8983 H   0  0  0  0  0  0  0  0  0  0  0  0
   64.7290   32.6429   49.6492 H   0  0  0  0  0  0  0  0  0  0  0  0
   64.7559   34.4390   49.6492 H   0  0  0  0  0  0  0  0  0  0  0  0
   61.5370   33.9249   50.5758 H   0  0  0  0  0  0  0  0  0  0  0  0
   59.5296   33.8890   49.1004 H   0  0  0  0  0  0  0  0  0  0  0  0
   59.4338   35.6270   45.8196 H   0  0  0  0  0  0  0  0  0  0  0  0
   55.7120   31.5920   45.2440 H   0  0  0  0  0  0  0  0  0  0  0  0
   56.2012   30.5907   43.0620 H   0  0  0  0  0  0  0  0  0  0  0  0
   57.9573   30.8783   43.3483 H   0  0  0  0  0  0  0  0  0  0  0  0
   59.0230   28.4928   43.5509 H   0  0  0  0  0  0  0  0  0  0  0  0
   58.4292   26.3153   45.0439 H   0  0  0  0  0  0  0  0  0  0  0  0
   56.1298   26.8616   46.2980 H   0  0  0  0  0  0  0  0  0  0  0  0
   62.0624   33.1082   45.6751 H   0  0  0  0  0  0  0  0  0  0  0  0
   64.0685   33.1411   47.1522 H   0  0  0  0  0  0  0  0  0  0  0  0
  1  2  1  0
  2  3  2  0
  3  4  1  0
  4  5  2  0
  5  6  1  0
  6  7  2  0
  7  8  1  0
  8  9  1  0
  9 10  1  0
 10 11  1  0
 11 12  1  0
 12 13  2  0
 13 14  1  0
 14 15  2  0
 15 16  1  0
  9 17  2  0
 17 18  1  0
 18 19  3  0
  5 20  1  0
 20 21  2  0
 21  2  1  0
 17  6  1  0
 16 12  1  0
  1 22  1  0
  1 23  1  0
  1 24  1  0
  3 25  1  0
  4 26  1  0
  7 27  1  0
 10 28  1  0
 11 29  1  0
 11 30  1  0
 13 31  1  0
 14 32  1  0
 15 33  1  0
 20 34  1  0
 21 35  1  0
M  END
>  <UniqueID>  (38) 
36

>  <SMILES>  (38) 
Cc1ccc(-c2csc(NCc3ccco3)c2C#N)cc1

>  <Energy>  (38) 
90.87715690689033

>  <Genealogy>  (38) 
Cc1ccc(-c2csc(NCc3ccco3)c2C#N)cc1 (3D coordinates assigned)
Cc1ccc(-c2csc(NCc3ccco3)c2C#N)cc1 (optimized conformer: 90.87715690689033 kcal/mol)

>  <smiles>  (38) 
Cc1ccc(-c2csc(NCc3ccco3)c2C#N)cc1

>  <score_type>  (38) 
oracle

>  <origin>  (38) 
adg

>  <m_score__min__energy>  (38) 
-7.5099999999999998

>  <m_primary>  (38) 
energy

$$$$
38:0
     RDKit          3D

 41 43  0  0  0  0  0  0  0  0999 V2000
   59.7590   30.5430   49.4260 O   0  0  0  0  0  0  0  0  0  0  0  0
   59.3550   31.5870   50.0070 C   0  0  0  0  0  0  0  0  0  0  0  0
   59.9140   32.8660   49.6750 N   0  0  0  0  0  0  0  0  0  0  0  0
   60.9800   33.0410   48.7290 C   0  0  0  0  0  0  0  0  0  0  0  0
   62.2990   32.6890   49.0650 C   0  0  0  0  0  0  0  0  0  0  0  0
   63.3400   32.9050   48.1580 C   0  0  0  0  0  0  0  0  0  0  0  0
   63.0770   33.4800   46.9140 C   0  0  0  0  0  0  0  0  0  0  0  0
   61.7720   33.8410   46.5720 C   0  0  0  0  0  0  0  0  0  0  0  0
   60.7200   33.6280   47.4740 C   0  0  0  0  0  0  0  0  0  0  0  0
   59.3790   33.9690   47.0930 N   0  0  0  0  0  0  0  0  0  0  0  0
   59.1860   34.9550   46.0240 C   0  0  0  0  0  0  0  0  0  0  0  0
   58.0770   34.5410   45.0460 C   0  0  0  0  0  0  0  0  0  0  0  0
   58.4170   33.2440   44.2960 C   0  0  0  0  0  0  0  0  0  0  0  0
   58.8980   32.0980   45.2060 C   0  0  0  0  0  0  0  0  0  0  0  0
   58.1290   31.9150   46.5270 C   0  0  0  0  0  0  0  0  0  0  0  0
   58.2850   33.0820   47.5100 C   0  0  0  0  0  0  0  0  0  0  0  0
   58.2760   31.4920   51.0030 C   0  0  0  0  0  0  0  0  0  0  0  0
   58.0290   32.3930   52.0190 C   0  0  0  0  0  0  0  0  0  0  0  0
   56.9350   31.8990   52.6960 C   0  0  0  0  0  0  0  0  0  0  0  0
   56.5830   30.7290   52.0530 C   0  0  0  0  0  0  0  0  0  0  0  0
   57.4000   30.5150   51.0480 O   0  0  0  0  0  0  0  0  0  0  0  0
   59.4590   33.7230   50.0640 H   0  0  0  0  0  0  0  0  0  0  0  0
   62.5127   32.2413   50.0468 H   0  0  0  0  0  0  0  0  0  0  0  0
   64.3686   32.6212   48.4252 H   0  0  0  0  0  0  0  0  0  0  0  0
   63.8984   33.6491   46.2021 H   0  0  0  0  0  0  0  0  0  0  0  0
   61.5686   34.2944   45.5907 H   0  0  0  0  0  0  0  0  0  0  0  0
   58.9165   35.9204   46.4771 H   0  0  0  0  0  0  0  0  0  0  0  0
   60.1261   35.0271   45.4575 H   0  0  0  0  0  0  0  0  0  0  0  0
   57.1454   34.3894   45.6109 H   0  0  0  0  0  0  0  0  0  0  0  0
   57.9683   35.3427   44.3007 H   0  0  0  0  0  0  0  0  0  0  0  0
   57.5156   32.9068   43.7633 H   0  0  0  0  0  0  0  0  0  0  0  0
   59.2494   33.4797   43.6166 H   0  0  0  0  0  0  0  0  0  0  0  0
   58.8168   31.1601   44.6370 H   0  0  0  0  0  0  0  0  0  0  0  0
   59.9257   32.3620   45.4961 H   0  0  0  0  0  0  0  0  0  0  0  0
   57.0604   31.8022   46.2917 H   0  0  0  0  0  0  0  0  0  0  0  0
   58.5520   31.0270   47.0196 H   0  0  0  0  0  0  0  0  0  0  0  0
   57.3469   33.6557   47.5413 H   0  0  0  0  0  0  0  0  0  0  0  0
   58.5180   32.6770   48.5058 H   0  0  0  0  0  0  0  0  0  0  0  0
   58.5886   33.3134   52.2419 H   0  0  0  0  0  0  0  0  0  0  0  0
   56.4419   32.3464   53.5716 H   0  0  0  0  0  0  0  0  0  0  0  0
   55.7456   30.0757   52.3392 H   0  0  0  0  0  0  0  0  0  0  0  0
  1  2  2  0
  2  3  1  0
  3  4  1  0
  4  5  2  0
  5  6  1  0
  6  7  2  0
  7  8  1  0
  8  9  2  0
  9 10  1  0
 10 11  1  0
 11 12  1  0
 12 13  1  0
 13 14  1  0
 14 15  1  0
 15 16  1  0
  2 17  1  0
 17 18  2  0
 18 19  1  0
 19 20  2  0
 20 21  1  0
  9  4  1  0
 16 10  1  0
 21 17  1  0
  3 22  1  0
  5 23  1  0
  6 24  1  0
  7 25  1  0
  8 26  1  0
 11 27  1  0
 11 28  1  0
 12 29  1  0
 12 30  1  0
 13 31  1  0
 13 32  1  0
 14 33  1  0
 14 34  1  0
 15 35  1  0
 15 36  1  0
 16 37  1  0
 16 38  1  0
 18 39  1  0
 19 40  1  0
 20 41  1  0
M  END
>  <UniqueID>  (39) 
37

>  <SMILES>  (39) 
O=C(Nc1ccccc1N1CCCCCC1)c1ccco1

>  <Energy>  (39) 
77.24524539006914

>  <Genealogy>  (39) 
O=C(Nc1ccccc1N1CCCCCC1)c1ccco1 (3D coordinates assigned)
O=C(Nc1ccccc1N1CCCCCC1)c1ccco1 (nonaromatic ring conformer: 77.24524539006914 kcal/mol)

>  <smiles>  (39) 
O=C(Nc1ccccc1N1CCCCCC1)c1ccco1

>  <score_type>  (39) 
oracle

>  <origin>  (39) 
adg

>  <m_score__min__energy>  (39) 
-5.1299999999999999

>  <m_primary>  (39) 
energy

$$$$
39:0
     RDKit          3D

 48 50  0  0  0  0  0  0  0  0999 V2000
   61.1980   31.0810   46.7420 O   0  0  0  0  0  0  0  0  0  0  0  0
   59.9790   30.6440   47.2970 C   0  0  1  0  0  0  0  0  0  0  0  0
   58.9300   31.7860   47.3470 C   0  0  0  0  0  0  0  0  0  0  0  0
   59.3180   32.9770   46.5420 N   0  0  0  0  0  0  0  0  0  0  0  0
   59.9470   34.0620   47.3520 C   0  0  0  0  0  0  0  0  0  0  0  0
   61.4020   33.8180   47.7100 C   0  0  0  0  0  0  0  0  0  0  0  0
   61.7820   33.6560   49.0550 C   0  0  0  0  0  0  0  0  0  0  0  0
   63.1220   33.4340   49.3890 C   0  0  0  0  0  0  0  0  0  0  0  0
   64.0940   33.3640   48.3850 C   0  0  0  0  0  0  0  0  0  0  0  0
   63.7240   33.5090   47.0440 C   0  0  0  0  0  0  0  0  0  0  0  0
   62.3840   33.7290   46.7040 C   0  0  0  0  0  0  0  0  0  0  0  0
   58.1570   33.5000   45.7730 C   0  0  0  0  0  0  0  0  0  0  0  0
   57.7500   32.5690   44.6500 C   0  0  0  0  0  0  0  0  0  0  0  0
   56.9760   31.4260   44.9140 C   0  0  0  0  0  0  0  0  0  0  0  0
   56.6100   30.5670   43.8730 C   0  0  0  0  0  0  0  0  0  0  0  0
   57.0100   30.8420   42.5630 C   0  0  0  0  0  0  0  0  0  0  0  0
   57.7820   31.9750   42.2910 C   0  0  0  0  0  0  0  0  0  0  0  0
   58.1520   32.8370   43.3290 C   0  0  0  0  0  0  0  0  0  0  0  0
   59.4460   29.4470   46.5320 C   0  0  0  0  0  0  0  0  0  0  0  0
   58.6130   28.5120   47.1770 C   0  0  0  0  0  0  0  0  0  0  0  0
   58.1040   27.4150   46.4760 C   0  0  0  0  0  0  0  0  0  0  0  0
   58.4160   27.2400   45.1240 C   0  0  0  0  0  0  0  0  0  0  0  0
   57.7780   25.8610   44.2470 Cl  0  0  0  0  0  0  0  0  0  0  0  0
   59.2390   28.1640   44.4730 C   0  0  0  0  0  0  0  0  0  0  0  0
   59.7520   29.2620   45.1700 C   0  0  0  0  0  0  0  0  0  0  0  0
   61.7220   30.2800   46.4740 H   0  0  0  0  0  0  0  0  0  0  0  0
   60.1734   30.3356   48.3348 H   0  0  0  0  0  0  0  0  0  0  0  0
   57.9748   31.4000   46.9615 H   0  0  0  0  0  0  0  0  0  0  0  0
   58.8524   32.1118   48.3948 H   0  0  0  0  0  0  0  0  0  0  0  0
   60.0440   32.6760   45.8490 H   0  0  0  0  0  0  0  0  0  0  0  0
   59.8869   34.9982   46.7777 H   0  0  0  0  0  0  0  0  0  0  0  0
   59.3940   34.1036   48.3020 H   0  0  0  0  0  0  0  0  0  0  0  0
   61.0212   33.7042   49.8481 H   0  0  0  0  0  0  0  0  0  0  0  0
   63.4123   33.3142   50.4432 H   0  0  0  0  0  0  0  0  0  0  0  0
   65.1481   33.1951   48.6501 H   0  0  0  0  0  0  0  0  0  0  0  0
   64.4878   33.4500   46.2546 H   0  0  0  0  0  0  0  0  0  0  0  0
   62.0968   33.8328   45.6472 H   0  0  0  0  0  0  0  0  0  0  0  0
   57.3049   33.6233   46.4576 H   0  0  0  0  0  0  0  0  0  0  0  0
   58.4526   34.4605   45.3257 H   0  0  0  0  0  0  0  0  0  0  0  0
   56.6569   31.2062   45.9435 H   0  0  0  0  0  0  0  0  0  0  0  0
   56.0058   29.6728   44.0861 H   0  0  0  0  0  0  0  0  0  0  0  0
   56.7173   30.1668   41.7454 H   0  0  0  0  0  0  0  0  0  0  0  0
   58.0990   32.1892   41.2597 H   0  0  0  0  0  0  0  0  0  0  0  0
   58.7596   33.7277   43.1112 H   0  0  0  0  0  0  0  0  0  0  0  0
   58.3614   28.6460   48.2394 H   0  0  0  0  0  0  0  0  0  0  0  0
   57.4569   26.6881   46.9887 H   0  0  0  0  0  0  0  0  0  0  0  0
   59.4836   28.0266   43.4094 H   0  0  0  0  0  0  0  0  0  0  0  0
   60.3983   29.9855   44.6515 H   0  0  0  0  0  0  0  0  0  0  0  0
  1  2  1  0
  2  3  1  0
  3  4  1  0
  4  5  1  0
  5  6  1  0
  6  7  2  0
  7  8  1  0
  8  9  2  0
  9 10  1  0
 10 11  2  0
  4 12  1  0
 12 13  1  0
 13 14  2  0
 14 15  1  0
 15 16  2  0
 16 17  1  0
 17 18  2  0
  2 19  1  0
 19 20  2  0
 20 21  1  0
 21 22  2  0
 22 23  1  0
 22 24  1  0
 24 25  2  0
 11  6  1  0
 18 13  1  0
 25 19  1  0
  1 26  1  0
  2 27  1  1
  3 28  1  0
  3 29  1  0
  4 30  1  0
  5 31  1  0
  5 32  1  0
  7 33  1  0
  8 34  1  0
  9 35  1  0
 10 36  1  0
 11 37  1  0
 12 38  1  0
 12 39  1  0
 14 40  1  0
 15 41  1  0
 16 42  1  0
 17 43  1  0
 18 44  1  0
 20 45  1  0
 21 46  1  0
 24 47  1  0
 25 48  1  0
M  CHG  1   4   1
M  END
>  <UniqueID>  (40) 
38

>  <SMILES>  (40) 
O[C@@H](C[NH+](Cc1ccccc1)Cc1ccccc1)c1ccc(Cl)cc1

>  <Energy>  (40) 
56.96407101023592

>  <Genealogy>  (40) 
OC(C[NH+](Cc1ccccc1)Cc1ccccc1)c1ccc(Cl)cc1 (protonated)
O[C@@H](C[NH+](Cc1ccccc1)Cc1ccccc1)c1ccc(Cl)cc1 (chirality)
O[C@@H](C[NH+](Cc1ccccc1)Cc1ccccc1)c1ccc(Cl)cc1 (3D coordinates assigned)
O[C@@H](C[NH+](Cc1ccccc1)Cc1ccccc1)c1ccc(Cl)cc1 (optimized conformer: 56.96407101023592 kcal/mol)

>  <smiles>  (40) 
OC(CN(Cc1ccccc1)Cc1ccccc1)c1ccc(Cl)cc1

>  <score_type>  (40) 
oracle

>  <origin>  (40) 
adg

>  <m_score__min__energy>  (40) 
-6.1500000000000004

>  <m_primary>  (40) 
energy

$$$$
40:0
     RDKit          3D

 27 28  0  0  0  0  0  0  0  0999 V2000
   55.1550   29.3340   45.0230 O   0  0  0  0  0  0  0  0  0  0  0  0
   56.3620   29.5950   44.7770 C   0  0  0  0  0  0  0  0  0  0  0  0
   56.6730   30.7980   44.0620 N   0  0  0  0  0  0  0  0  0  0  0  0
   57.4130   31.9210   44.5690 C   0  0  0  0  0  0  0  0  0  0  0  0
   57.3960   32.2490   45.9350 C   0  0  0  0  0  0  0  0  0  0  0  0
   58.1120   33.3520   46.4070 C   0  0  0  0  0  0  0  0  0  0  0  0
   58.8470   34.1570   45.5200 C   0  0  0  0  0  0  0  0  0  0  0  0
   59.5870   35.2940   46.0030 N   0  0  0  0  0  0  0  0  0  0  0  0
   60.1150   35.2760   47.1340 O   0  0  0  0  0  0  0  0  0  0  0  0
   59.7280   36.4190   45.2230 O   0  0  0  0  0  0  0  0  0  0  0  0
   58.8420   33.8410   44.1510 C   0  0  0  0  0  0  0  0  0  0  0  0
   58.1260   32.7360   43.6770 C   0  0  0  0  0  0  0  0  0  0  0  0
   58.1510   32.3760   41.9560 Cl  0  0  0  0  0  0  0  0  0  0  0  0
   57.4100   28.6360   45.1980 C   0  0  0  0  0  0  0  0  0  0  0  0
   58.7640   28.9850   45.0610 C   0  0  0  0  0  0  0  0  0  0  0  0
   59.7680   28.0910   45.4430 C   0  0  0  0  0  0  0  0  0  0  0  0
   59.4300   26.8460   45.9770 C   0  0  0  0  0  0  0  0  0  0  0  0
   58.0880   26.4940   46.1350 C   0  0  0  0  0  0  0  0  0  0  0  0
   57.0780   27.3850   45.7550 C   0  0  0  0  0  0  0  0  0  0  0  0
   55.7830   27.0370   45.9670 F   0  0  0  0  0  0  0  0  0  0  0  0
   56.8151   31.6333   46.6375 H   0  0  0  0  0  0  0  0  0  0  0  0
   58.1003   33.5920   47.4804 H   0  0  0  0  0  0  0  0  0  0  0  0
   59.4062   34.4681   43.4451 H   0  0  0  0  0  0  0  0  0  0  0  0
   59.0357   29.9686   44.6503 H   0  0  0  0  0  0  0  0  0  0  0  0
   60.8256   28.3685   45.3228 H   0  0  0  0  0  0  0  0  0  0  0  0
   60.2214   26.1419   46.2735 H   0  0  0  0  0  0  0  0  0  0  0  0
   57.8241   25.5140   46.5592 H   0  0  0  0  0  0  0  0  0  0  0  0
  1  2  2  0
  2  3  1  0
  3  4  1  0
  4  5  2  0
  5  6  1  0
  6  7  2  0
  7  8  1  0
  8  9  2  0
  8 10  1  0
  7 11  1  0
 11 12  2  0
 12 13  1  0
  2 14  1  0
 14 15  2  0
 15 16  1  0
 16 17  2  0
 17 18  1  0
 18 19  2  0
 19 20  1  0
 12  4  1  0
 19 14  1  0
  5 21  1  0
  6 22  1  0
 11 23  1  0
 15 24  1  0
 16 25  1  0
 17 26  1  0
 18 27  1  0
M  CHG  3   3  -1   8   1  10  -1
M  END
>  <UniqueID>  (41) 
39

>  <SMILES>  (41) 
O=C([N-]c1ccc([N+](=O)[O-])cc1Cl)c1ccccc1F

>  <Energy>  (41) 
37.63514837549053

>  <Genealogy>  (41) 
O=C([N-]c1ccc([N+](=O)[O-])cc1Cl)c1ccccc1F (protonated)
O=C([N-]c1ccc([N+](=O)[O-])cc1Cl)c1ccccc1F (3D coordinates assigned)
O=C([N-]c1ccc([N+](=O)[O-])cc1Cl)c1ccccc1F (optimized conformer: 37.63514837549053 kcal/mol)

>  <smiles>  (41) 
O=C(Nc1ccc([N+](=O)[O-])cc1Cl)c1ccccc1F

>  <score_type>  (41) 
oracle

>  <origin>  (41) 
adg

>  <m_score__min__energy>  (41) 
-9.0099999999999998

>  <m_primary>  (41) 
energy

$$$$
41:0
     RDKit          3D

 29 31  0  0  0  0  0  0  0  0999 V2000
   55.5450   26.8000   44.9470 H   0  0  0  0  0  0  0  0  0  0  0  0
   55.9790   27.4770   45.6150 N   0  0  0  0  0  0  0  0  0  0  0  0
   56.3220   28.6670   45.2420 C   0  0  0  0  0  0  0  0  0  0  0  0
   55.6010   29.3380   44.2940 N   0  0  0  0  0  0  0  0  0  0  0  0
   55.9430   30.5990   43.8800 C   0  0  0  0  0  0  0  0  0  0  0  0
   55.3381   31.1040   43.1125 H   0  0  0  0  0  0  0  0  0  0  0  0
   57.0620   31.2530   44.4290 C   0  0  0  0  0  0  0  0  0  0  0  0
   57.3490   32.2658   44.1099 H   0  0  0  0  0  0  0  0  0  0  0  0
   57.7920   30.5590   45.3970 C   0  0  0  0  0  0  0  0  0  0  0  0
   57.4330   29.3040   45.7920 C   0  0  0  0  0  0  0  0  0  0  0  0
   58.2880   28.8570   46.7260 N   0  0  0  0  0  0  0  0  0  0  0  0
   58.2790   27.9370   47.2210 H   0  0  0  0  0  0  0  0  0  0  0  0
   59.1690   29.8720   46.8850 C   0  0  0  0  0  0  0  0  0  0  0  0
   60.0150   29.8411   47.5874 H   0  0  0  0  0  0  0  0  0  0  0  0
   58.8940   30.9350   46.0810 N   0  0  0  0  0  0  0  0  0  0  0  0
   59.6350   32.2020   45.9900 C   0  0  0  0  0  0  0  0  0  0  0  0
   60.1362   32.1540   45.0120 H   0  0  0  0  0  0  0  0  0  0  0  0
   60.6380   32.3660   47.1250 C   0  0  0  0  0  0  0  0  0  0  0  0
   60.2562   31.9008   48.0458 H   0  0  0  0  0  0  0  0  0  0  0  0
   61.5978   31.8804   46.8950 H   0  0  0  0  0  0  0  0  0  0  0  0
   60.7960   33.8700   47.3140 C   0  0  0  0  0  0  0  0  0  0  0  0
   60.8128   34.1164   48.3859 H   0  0  0  0  0  0  0  0  0  0  0  0
   61.7386   34.2245   46.8715 H   0  0  0  0  0  0  0  0  0  0  0  0
   59.5930   34.5340   46.6410 C   0  0  0  0  0  0  0  0  0  0  0  0
   59.0280   35.1262   47.3759 H   0  0  0  0  0  0  0  0  0  0  0  0
   59.9168   35.2131   45.8385 H   0  0  0  0  0  0  0  0  0  0  0  0
   58.7200   33.4150   46.0880 C   0  0  0  0  0  0  0  0  0  0  0  0
   57.8800   33.2099   46.7680 H   0  0  0  0  0  0  0  0  0  0  0  0
   58.2837   33.6791   45.1134 H   0  0  0  0  0  0  0  0  0  0  0  0
  1  2  1  0
  2  3  2  0
  3  4  1  0
  4  5  1  0
  5  6  1  0
  5  7  2  0
  7  8  1  0
  7  9  1  0
  9 10  2  0
 10 11  1  0
 11 12  1  0
 11 13  2  0
 13 14  1  0
 13 15  1  0
 15 16  1  0
 16 17  1  0
 16 18  1  0
 18 19  1  0
 18 20  1  0
 18 21  1  0
 21 22  1  0
 21 23  1  0
 21 24  1  0
 24 25  1  0
 24 26  1  0
 24 27  1  0
 27 28  1  0
 27 29  1  0
 10  3  1  0
 27 16  1  0
 15  9  1  0
M  CHG  2   4  -1  11   1
M  END
>  <UniqueID>  (42) 
40

>  <SMILES>  (42) 
[H]/N=c1\[n-]ccc2c1[nH+]cn2C1CCCC1

>  <Energy>  (42) 
71.8881524608879

>  <Genealogy>  (42) 
N=c1[n-]ccc2c1[nH+]cn2C1CCCC1 (protonated)
[H]/N=c1\[n-]ccc2c1[nH+]cn2C1CCCC1 (cis-trans isomerization)
[H]/N=c1\[n-]ccc2c1[nH+]cn2C1CCCC1 (3D coordinates assigned)
[H]/N=c1\[n-]ccc2c1[nH+]cn2C1CCCC1 (nonaromatic ring conformer: 71.8881524608879 kcal/mol)

>  <smiles>  (42) 
N=c1[nH]ccc2c1ncn2C1CCCC1

>  <score_type>  (42) 
oracle

>  <origin>  (42) 
adg

>  <m_score__min__energy>  (42) 
-6.9500000000000002

>  <m_primary>  (42) 
energy

$$$$
42:0
     RDKit          3D

 30 31  0  0  0  0  0  0  0  0999 V2000
   56.4950   30.3610   42.7400 C   0  0  0  0  0  0  0  0  0  0  0  0
   57.2530   30.0140   43.9460 N   0  0  0  0  0  0  0  0  0  0  0  0
   58.5030   30.7190   44.2570 C   0  0  0  0  0  0  0  0  0  0  0  0
   58.2080   31.9910   44.9960 C   0  0  0  0  0  0  0  0  0  0  0  0
   57.8060   33.1720   44.3540 C   0  0  0  0  0  0  0  0  0  0  0  0
   57.5470   34.2180   45.2290 C   0  0  0  0  0  0  0  0  0  0  0  0
   57.8100   33.6650   46.7940 S   0  0  0  0  0  0  0  0  0  0  0  0
   58.2560   32.0980   46.3820 C   0  0  0  0  0  0  0  0  0  0  0  0
   56.7380   29.0110   44.8430 C   0  0  0  0  0  0  0  0  0  0  0  0
   55.5160   29.0090   45.1580 O   0  0  0  0  0  0  0  0  0  0  0  0
   57.6110   28.0140   45.3820 N   0  0  0  0  0  0  0  0  0  0  0  0
   57.2490   27.1760   46.5160 C   0  0  0  0  0  0  0  0  0  0  0  0
   56.2700   26.1400   46.0710 C   0  0  0  0  0  0  0  0  0  0  0  0
   56.5750   24.8460   45.7040 C   0  0  0  0  0  0  0  0  0  0  0  0
   55.3690   24.2530   45.4020 C   0  0  0  0  0  0  0  0  0  0  0  0
   54.4050   25.2190   45.6060 C   0  0  0  0  0  0  0  0  0  0  0  0
   54.9720   26.3340   46.0070 O   0  0  0  0  0  0  0  0  0  0  0  0
   55.5297   30.8029   43.0281 H   0  0  0  0  0  0  0  0  0  0  0  0
   57.0671   31.0869   42.1435 H   0  0  0  0  0  0  0  0  0  0  0  0
   56.3194   29.4536   42.1435 H   0  0  0  0  0  0  0  0  0  0  0  0
   59.1384   30.0743   44.8819 H   0  0  0  0  0  0  0  0  0  0  0  0
   59.0230   30.9606   43.3183 H   0  0  0  0  0  0  0  0  0  0  0  0
   57.7057   33.2605   43.2622 H   0  0  0  0  0  0  0  0  0  0  0  0
   57.2258   35.2316   44.9473 H   0  0  0  0  0  0  0  0  0  0  0  0
   58.5362   31.2987   47.0839 H   0  0  0  0  0  0  0  0  0  0  0  0
   58.1498   26.6844   46.9120 H   0  0  0  0  0  0  0  0  0  0  0  0
   56.7965   27.7967   47.3034 H   0  0  0  0  0  0  0  0  0  0  0  0
   57.5725   24.3842   45.6614 H   0  0  0  0  0  0  0  0  0  0  0  0
   55.2070   23.2182   45.0660 H   0  0  0  0  0  0  0  0  0  0  0  0
   53.3247   25.0768   45.4555 H   0  0  0  0  0  0  0  0  0  0  0  0
  1  2  1  0
  2  3  1  0
  3  4  1  0
  4  5  1  0
  5  6  2  0
  6  7  1  0
  7  8  1  0
  2  9  1  0
  9 10  2  0
  9 11  1  0
 11 12  1  0
 12 13  1  0
 13 14  2  0
 14 15  1  0
 15 16  2  0
 16 17  1  0
  8  4  2  0
 17 13  1  0
  1 18  1  0
  1 19  1  0
  1 20  1  0
  3 21  1  0
  3 22  1  0
  5 23  1  0
  6 24  1  0
  8 25  1  0
 12 26  1  0
 12 27  1  0
 14 28  1  0
 15 29  1  0
 16 30  1  0
M  CHG  1  11  -1
M  END
>  <UniqueID>  (43) 
41

>  <SMILES>  (43) 
CN(Cc1ccsc1)C(=O)[N-]Cc1ccco1

>  <Energy>  (43) 
73.91522636887623

>  <Genealogy>  (43) 
CN(Cc1ccsc1)C(=O)[N-]Cc1ccco1 (protonated)
CN(Cc1ccsc1)C(=O)[N-]Cc1ccco1 (3D coordinates assigned)
CN(Cc1ccsc1)C(=O)[N-]Cc1ccco1 (optimized conformer: 73.91522636887623 kcal/mol)

>  <smiles>  (43) 
CN(Cc1ccsc1)C(=O)NCc1ccco1

>  <score_type>  (43) 
oracle

>  <origin>  (43) 
adg

>  <m_score__min__energy>  (43) 
-8.0099999999999998

>  <m_primary>  (43) 
energy

$$$$
43:0
     RDKit          3D

 42 44  0  0  1  0  0  0  0  0999 V2000
   57.3940   33.9310   44.5800 C   0  0  0  0  0  0  0  0  0  0  0  0
   57.7950   32.7160   45.2620 N   0  0  0  0  0  0  0  0  0  0  0  0
   58.1590   32.7820   46.5640 C   0  0  0  0  0  0  0  0  0  0  0  0
   58.2020   33.8760   47.0910 N   0  0  0  0  0  0  0  0  0  0  0  0
   59.2440   34.6540   47.5570 C   0  0  0  0  0  0  0  0  0  0  0  0
   60.0080   34.9300   46.1790 C   0  0  0  0  0  0  0  0  0  0  0  0
   61.0030   34.0320   46.0210 O   0  0  0  0  0  0  0  0  0  0  0  0
   61.9620   33.4510   46.7610 C   0  0  0  0  0  0  0  0  0  0  0  0
   61.6600   32.1770   47.2900 C   0  0  0  0  0  0  0  0  0  0  0  0
   62.5270   31.4680   48.0530 C   0  0  0  0  0  0  0  0  0  0  0  0
   63.7600   31.9730   48.3470 C   0  0  0  0  0  0  0  0  0  0  0  0
   64.1080   33.1940   47.8670 C   0  0  0  0  0  0  0  0  0  0  0  0
   63.2050   33.9230   47.0770 C   0  0  0  0  0  0  0  0  0  0  0  0
   58.5260   31.6620   47.2210 C   0  0  0  0  0  0  0  0  0  0  0  0
   58.4950   30.4940   46.4380 C   0  0  0  0  0  0  0  0  0  0  0  0
   58.8670   29.5200   47.2420 N   0  0  0  0  0  0  0  0  0  0  0  0
   59.1070   30.0410   48.4400 C   0  0  0  0  0  0  0  0  0  0  0  0
   58.8910   31.4170   48.4540 N   0  0  0  0  0  0  0  0  0  0  0  0
   59.0590   32.0340   49.7250 C   0  0  0  0  0  0  0  0  0  0  0  0
   58.1360   30.4580   45.1560 N   0  0  0  0  0  0  0  0  0  0  0  0
   58.1390   29.1930   44.4310 C   0  0  0  0  0  0  0  0  0  0  0  0
   57.7760   31.5860   44.5500 C   0  0  0  0  0  0  0  0  0  0  0  0
   57.4340   31.5740   43.3560 O   0  0  0  0  0  0  0  0  0  0  0  0
   57.1397   34.7015   45.3227 H   0  0  0  0  0  0  0  0  0  0  0  0
   58.2219   34.2881   43.9499 H   0  0  0  0  0  0  0  0  0  0  0  0
   56.5161   33.7252   43.9499 H   0  0  0  0  0  0  0  0  0  0  0  0
   58.8852   35.5849   48.0203 H   0  0  0  0  0  0  0  0  0  0  0  0
   59.8556   34.1918   48.3458 H   0  0  0  0  0  0  0  0  0  0  0  0
   59.2983   34.8398   45.3434 H   0  0  0  0  0  0  0  0  0  0  0  0
   60.4331   35.9444   46.1958 H   0  0  0  0  0  0  0  0  0  0  0  0
   60.6745   31.7394   47.0725 H   0  0  0  0  0  0  0  0  0  0  0  0
   62.2350   30.4796   48.4375 H   0  0  0  0  0  0  0  0  0  0  0  0
   64.4639   31.3972   48.9659 H   0  0  0  0  0  0  0  0  0  0  0  0
   65.0987   33.6128   48.0973 H   0  0  0  0  0  0  0  0  0  0  0  0
   63.5090   34.9101   46.6986 H   0  0  0  0  0  0  0  0  0  0  0  0
   59.4356   29.4580   49.3130 H   0  0  0  0  0  0  0  0  0  0  0  0
   58.8589   31.2991   50.5187 H   0  0  0  0  0  0  0  0  0  0  0  0
   60.0906   32.4040   49.8195 H   0  0  0  0  0  0  0  0  0  0  0  0
   58.3574   32.8759   49.8195 H   0  0  0  0  0  0  0  0  0  0  0  0
   58.1410   28.3592   45.1485 H   0  0  0  0  0  0  0  0  0  0  0  0
   57.2410   29.1306   43.7988 H   0  0  0  0  0  0  0  0  0  0  0  0
   59.0373   29.1348   43.7988 H   0  0  0  0  0  0  0  0  0  0  0  0
  1  2  1  0
  2  3  1  0
  3  4  2  0
  4  5  1  0
  5  6  1  0
  6  7  1  0
  7  8  1  0
  8  9  2  0
  9 10  1  0
 10 11  2  0
 11 12  1  0
 12 13  2  0
  3 14  1  0
 14 15  2  0
 15 16  1  0
 16 17  2  0
 17 18  1  0
 18 19  1  0
 15 20  1  0
 20 21  1  0
 20 22  1  0
 22 23  2  0
 22  2  1  0
 13  8  1  0
 18 14  1  0
  1 24  1  0
  1 25  1  0
  1 26  1  0
  5 27  1  0
  5 28  1  0
  6 29  1  0
  6 30  1  0
  9 31  1  0
 10 32  1  0
 11 33  1  0
 12 34  1  0
 13 35  1  0
 17 36  1  0
 19 37  1  0
 19 38  1  0
 19 39  1  0
 21 40  1  0
 21 41  1  0
 21 42  1  0
M  END
>  <smiles>  (44) 
Cn1c(=NCCOc2ccccc2)c2c(ncn2C)n(C)c1=O

>  <score_type>  (44) 
oracle

>  <origin>  (44) 
adg

>  <m_score__min__energy>  (44) 
-6.1500000000000004

>  <m_primary>  (44) 
energy

$$$$
44:0
     RDKit          3D

 58 61  0  0  0  0  0  0  0  0999 V2000
   58.1250   27.0930   43.4320 C   0  0  0  0  0  0  0  0  0  0  0  0
   59.3000   27.8400   43.7290 O   0  0  0  0  0  0  0  0  0  0  0  0
   59.5370   28.4870   44.9510 C   0  0  0  0  0  0  0  0  0  0  0  0
   60.6500   29.3230   45.1580 C   0  0  0  0  0  0  0  0  0  0  0  0
   60.8320   29.9640   46.3870 C   0  0  0  0  0  0  0  0  0  0  0  0
   59.8920   29.8040   47.4160 C   0  0  0  0  0  0  0  0  0  0  0  0
   60.0750   30.4570   48.7260 C   0  0  0  0  0  0  0  0  0  0  0  0
   60.7100   29.8560   49.7530 N   0  0  0  0  0  0  0  0  0  0  0  0
   60.7490   30.7150   50.7580 N   0  0  0  0  0  0  0  0  0  0  0  0
   61.3020   30.4050   52.0690 C   0  0  0  0  0  0  0  0  0  0  0  0
   60.1270   31.8560   50.4170 C   0  0  0  0  0  0  0  0  0  0  0  0
   59.6670   31.7330   49.1200 C   0  0  0  0  0  0  0  0  0  0  0  0
   58.8450   32.7570   48.3690 C   0  0  0  0  0  0  0  0  0  0  0  0
   59.5440   33.3910   47.2190 N   0  0  0  0  0  0  0  0  0  0  0  0
   58.6220   33.9670   46.2140 C   0  0  0  0  0  0  0  0  0  0  0  0
   58.2540   32.9770   45.1310 C   0  0  0  0  0  0  0  0  0  0  0  0
   58.5210   33.2380   43.7730 C   0  0  0  0  0  0  0  0  0  0  0  0
   58.1330   32.3230   42.7890 C   0  0  0  0  0  0  0  0  0  0  0  0
   57.4460   31.1600   43.1450 C   0  0  0  0  0  0  0  0  0  0  0  0
   57.1310   30.9170   44.4830 C   0  0  0  0  0  0  0  0  0  0  0  0
   57.5260   31.8250   45.4710 C   0  0  0  0  0  0  0  0  0  0  0  0
   60.5810   34.3690   47.6120 C   0  0  0  0  0  0  0  0  0  0  0  0
   61.9350   33.7250   47.7470 C   0  0  0  0  0  0  0  0  0  0  0  0
   62.6260   33.0800   46.7390 C   0  0  0  0  0  0  0  0  0  0  0  0
   63.7780   32.6090   47.2510 N   0  0  0  0  0  0  0  0  0  0  0  0
   63.7730   32.9540   48.5520 C   0  0  0  0  0  0  0  0  0  0  0  0
   62.6490   33.6190   48.8880 N   0  0  0  0  0  0  0  0  0  0  0  0
   62.3390   34.1770   50.2000 C   0  0  0  0  0  0  0  0  0  0  0  0
   58.8040   28.9390   47.2210 C   0  0  0  0  0  0  0  0  0  0  0  0
   58.6270   28.2910   45.9960 C   0  0  0  0  0  0  0  0  0  0  0  0
   57.6398   26.7845   44.3698 H   0  0  0  0  0  0  0  0  0  0  0  0
   57.4318   27.7166   42.8484 H   0  0  0  0  0  0  0  0  0  0  0  0
   58.3955   26.2007   42.8484 H   0  0  0  0  0  0  0  0  0  0  0  0
   61.3802   29.4728   44.3490 H   0  0  0  0  0  0  0  0  0  0  0  0
   61.7170   30.5972   46.5480 H   0  0  0  0  0  0  0  0  0  0  0  0
   60.6268   30.7835   52.8506 H   0  0  0  0  0  0  0  0  0  0  0  0
   61.4093   29.3152   52.1734 H   0  0  0  0  0  0  0  0  0  0  0  0
   62.2876   30.8821   52.1734 H   0  0  0  0  0  0  0  0  0  0  0  0
   60.0046   32.7390   51.0615 H   0  0  0  0  0  0  0  0  0  0  0  0
   57.9411   32.2589   47.9885 H   0  0  0  0  0  0  0  0  0  0  0  0
   58.6253   33.5643   49.0832 H   0  0  0  0  0  0  0  0  0  0  0  0
   57.7024   34.2906   46.7235 H   0  0  0  0  0  0  0  0  0  0  0  0
   59.1369   34.8120   45.7335 H   0  0  0  0  0  0  0  0  0  0  0  0
   59.0371   34.1657   43.4850 H   0  0  0  0  0  0  0  0  0  0  0  0
   58.3693   32.5195   41.7328 H   0  0  0  0  0  0  0  0  0  0  0  0
   57.1532   30.4355   42.3708 H   0  0  0  0  0  0  0  0  0  0  0  0
   56.5720   30.0112   44.7605 H   0  0  0  0  0  0  0  0  0  0  0  0
   57.2644   31.6353   46.5225 H   0  0  0  0  0  0  0  0  0  0  0  0
   60.6362   35.1565   46.8460 H   0  0  0  0  0  0  0  0  0  0  0  0
   60.3026   34.7876   48.5904 H   0  0  0  0  0  0  0  0  0  0  0  0
   62.2917   32.9704   45.6968 H   0  0  0  0  0  0  0  0  0  0  0  0
   64.5220   32.0810   46.7430 H   0  0  0  0  0  0  0  0  0  0  0  0
   64.5864   32.7219   49.2552 H   0  0  0  0  0  0  0  0  0  0  0  0
   62.7140   33.5020   50.9834 H   0  0  0  0  0  0  0  0  0  0  0  0
   62.8198   35.1610   50.3029 H   0  0  0  0  0  0  0  0  0  0  0  0
   61.2495   34.2887   50.3029 H   0  0  0  0  0  0  0  0  0  0  0  0
   58.0865   28.7703   48.0375 H   0  0  0  0  0  0  0  0  0  0  0  0
   57.7660   27.6218   45.8518 H   0  0  0  0  0  0  0  0  0  0  0  0
  1  2  1  0
  2  3  1  0
  3  4  2  0
  4  5  1  0
  5  6  2  0
  6  7  1  0
  7  8  2  0
  8  9  1  0
  9 10  1  0
  9 11  1  0
 11 12  2  0
 12 13  1  0
 13 14  1  0
 14 15  1  0
 15 16  1  0
 16 17  2  0
 17 18  1  0
 18 19  2  0
 19 20  1  0
 20 21  2  0
 14 22  1  0
 22 23  1  0
 23 24  2  0
 24 25  1  0
 25 26  2  0
 26 27  1  0
 27 28  1  0
  6 29  1  0
 29 30  2  0
 30  3  1  0
 12  7  1  0
 21 16  1  0
 27 23  1  0
  1 31  1  0
  1 32  1  0
  1 33  1  0
  4 34  1  0
  5 35  1  0
 10 36  1  0
 10 37  1  0
 10 38  1  0
 11 39  1  0
 13 40  1  0
 13 41  1  0
 15 42  1  0
 15 43  1  0
 17 44  1  0
 18 45  1  0
 19 46  1  0
 20 47  1  0
 21 48  1  0
 22 49  1  0
 22 50  1  0
 24 51  1  0
 25 52  1  0
 26 53  1  0
 28 54  1  0
 28 55  1  0
 28 56  1  0
 29 57  1  0
 30 58  1  0
M  CHG  1  25   1
M  END
>  <UniqueID>  (45) 
42

>  <SMILES>  (45) 
COc1ccc(-c2nn(C)cc2CN(Cc2ccccc2)Cc2c[nH+]cn2C)cc1

>  <Energy>  (45) 
124.32454286335613

>  <Genealogy>  (45) 
COc1ccc(-c2nn(C)cc2CN(Cc2ccccc2)Cc2c[nH+]cn2C)cc1 (protonated)
COc1ccc(-c2nn(C)cc2CN(Cc2ccccc2)Cc2c[nH+]cn2C)cc1 (3D coordinates assigned)
COc1ccc(-c2nn(C)cc2CN(Cc2ccccc2)Cc2c[nH+]cn2C)cc1 (optimized conformer: 124.32454286335613 kcal/mol)

>  <smiles>  (45) 
COc1ccc(-c2nn(C)cc2CN(Cc2ccccc2)Cc2cncn2C)cc1

>  <score_type>  (45) 
oracle

>  <origin>  (45) 
adg

>  <m_score__min__energy>  (45) 
-7.0899999999999999

>  <m_primary>  (45) 
energy

$$$$
45:0
     RDKit          3D

 48 51  0  0  0  0  0  0  0  0999 V2000
   59.7690   33.7890   50.2830 C   0  0  0  0  0  0  0  0  0  0  0  0
   60.2830   32.7950   49.4030 O   0  0  0  0  0  0  0  0  0  0  0  0
   61.3600   32.9880   48.5240 C   0  0  0  0  0  0  0  0  0  0  0  0
   62.6850   32.6750   48.8870 C   0  0  0  0  0  0  0  0  0  0  0  0
   63.7360   32.9090   47.9980 C   0  0  0  0  0  0  0  0  0  0  0  0
   63.4810   33.4590   46.7410 C   0  0  0  0  0  0  0  0  0  0  0  0
   62.1720   33.7710   46.3680 C   0  0  0  0  0  0  0  0  0  0  0  0
   61.1050   33.5290   47.2470 C   0  0  0  0  0  0  0  0  0  0  0  0
   59.7620   33.8570   46.8510 N   0  0  0  0  0  0  0  0  0  0  0  0
   58.6640   32.9350   47.1530 C   0  0  0  0  0  0  0  0  0  0  0  0
   57.4390   33.2520   46.2800 C   0  0  0  0  0  0  0  0  0  0  0  0
   57.8290   33.7030   44.9240 N   0  0  0  0  0  0  0  0  0  0  0  0
   58.5020   32.6510   44.1250 C   0  0  0  0  0  0  0  0  0  0  0  0
   58.0380   31.2820   44.5330 C   0  0  0  0  0  0  0  0  0  0  0  0
   56.7220   30.8720   44.3170 C   0  0  0  0  0  0  0  0  0  0  0  0
   56.3420   29.5830   44.6950 C   0  0  0  0  0  0  0  0  0  0  0  0
   55.1510   29.2180   44.4950 O   0  0  0  0  0  0  0  0  0  0  0  0
   57.2560   28.7330   45.2700 N   0  0  0  0  0  0  0  0  0  0  0  0
   56.8950   27.4630   45.6450 C   0  0  0  0  0  0  0  0  0  0  0  0
   57.8250   26.5990   46.2270 C   0  0  0  0  0  0  0  0  0  0  0  0
   59.1320   27.0310   46.4300 C   0  0  0  0  0  0  0  0  0  0  0  0
   59.5000   28.3190   46.0500 C   0  0  0  0  0  0  0  0  0  0  0  0
   58.5500   29.1660   45.4690 C   0  0  0  0  0  0  0  0  0  0  0  0
   58.9200   30.4200   45.1000 N   0  0  0  0  0  0  0  0  0  0  0  0
   58.6160   34.9640   44.9550 C   0  0  0  0  0  0  0  0  0  0  0  0
   59.4570   35.1500   46.2360 C   0  0  0  0  0  0  0  0  0  0  0  0
   59.9311   33.4756   51.3249 H   0  0  0  0  0  0  0  0  0  0  0  0
   60.2872   34.7423   50.1021 H   0  0  0  0  0  0  0  0  0  0  0  0
   58.6916   33.9172   50.1021 H   0  0  0  0  0  0  0  0  0  0  0  0
   62.8928   32.2435   49.8773 H   0  0  0  0  0  0  0  0  0  0  0  0
   64.7670   32.6593   48.2890 H   0  0  0  0  0  0  0  0  0  0  0  0
   64.3111   33.6467   46.0441 H   0  0  0  0  0  0  0  0  0  0  0  0
   61.9758   34.2095   45.3784 H   0  0  0  0  0  0  0  0  0  0  0  0
   58.9924   31.9040   46.9552 H   0  0  0  0  0  0  0  0  0  0  0  0
   58.3855   33.0480   48.2111 H   0  0  0  0  0  0  0  0  0  0  0  0
   56.8225   32.3455   46.1897 H   0  0  0  0  0  0  0  0  0  0  0  0
   56.8783   34.0664   46.7621 H   0  0  0  0  0  0  0  0  0  0  0  0
   58.2718   32.8059   43.0606 H   0  0  0  0  0  0  0  0  0  0  0  0
   59.5858   32.7191   44.3001 H   0  0  0  0  0  0  0  0  0  0  0  0
   55.9939   31.5551   43.8552 H   0  0  0  0  0  0  0  0  0  0  0  0
   55.8615   27.1219   45.4853 H   0  0  0  0  0  0  0  0  0  0  0  0
   57.5260   25.5827   46.5233 H   0  0  0  0  0  0  0  0  0  0  0  0
   59.8713   26.3579   46.8887 H   0  0  0  0  0  0  0  0  0  0  0  0
   60.5313   28.6685   46.2056 H   0  0  0  0  0  0  0  0  0  0  0  0
   59.2969   34.9677   44.0911 H   0  0  0  0  0  0  0  0  0  0  0  0
   57.8914   35.7912   44.9281 H   0  0  0  0  0  0  0  0  0  0  0  0
   60.3983   35.6578   45.9787 H   0  0  0  0  0  0  0  0  0  0  0  0
   58.8794   35.7531   46.9520 H   0  0  0  0  0  0  0  0  0  0  0  0
  1  2  1  0
  2  3  1  0
  3  4  2  0
  4  5  1  0
  5  6  2  0
  6  7  1  0
  7  8  2  0
  8  9  1  0
  9 10  1  0
 10 11  1  0
 11 12  1  0
 12 13  1  0
 13 14  1  0
 14 15  2  0
 15 16  1  0
 16 17  2  0
 16 18  1  0
 18 19  1  0
 19 20  2  0
 20 21  1  0
 21 22  2  0
 22 23  1  0
 23 24  2  0
 12 25  1  0
 25 26  1  0
  8  3  1  0
 26  9  1  0
 24 14  1  0
 23 18  1  0
  1 27  1  0
  1 28  1  0
  1 29  1  0
  4 30  1  0
  5 31  1  0
  6 32  1  0
  7 33  1  0
 10 34  1  0
 10 35  1  0
 11 36  1  0
 11 37  1  0
 13 38  1  0
 13 39  1  0
 15 40  1  0
 19 41  1  0
 20 42  1  0
 21 43  1  0
 22 44  1  0
 25 45  1  0
 25 46  1  0
 26 47  1  0
 26 48  1  0
M  END
>  <UniqueID>  (46) 
43

>  <SMILES>  (46) 
COc1ccccc1N1CCN(Cc2cc(=O)n3ccccc3n2)CC1

>  <Energy>  (46) 
68.75244467307148

>  <Genealogy>  (46) 
COc1ccccc1N1CCN(Cc2cc(=O)n3ccccc3n2)CC1 (3D coordinates assigned)
COc1ccccc1N1CCN(Cc2cc(=O)n3ccccc3n2)CC1 (nonaromatic ring conformer: 68.75244467307148 kcal/mol)

>  <smiles>  (46) 
COc1ccccc1N1CCN(Cc2cc(=O)n3ccccc3n2)CC1

>  <score_type>  (46) 
oracle

>  <origin>  (46) 
adg

>  <m_score__min__energy>  (46) 
-8.3900000000000006

>  <m_primary>  (46) 
energy

$$$$
