0:0
     RDKit          3D

 50 52  0  0  0  0  0  0  0  0999 V2000
   57.0180   33.6710   46.2860 C   0  0  0  0  0  0  0  0  0  0  0  0
   57.4770   34.0670   44.8820 C   0  0  0  0  0  0  0  0  0  0  0  0
   58.2860   32.9520   44.1940 C   0  0  0  0  0  0  0  0  0  0  0  0
   57.7940   31.5680   44.5840 C   0  0  0  0  0  0  0  0  0  0  0  0
   56.6530   31.0920   43.9180 C   0  0  0  0  0  0  0  0  0  0  0  0
   56.1000   29.8640   44.2700 C   0  0  0  0  0  0  0  0  0  0  0  0
   55.0770   29.4400   43.6720 O   0  0  0  0  0  0  0  0  0  0  0  0
   56.6420   29.1410   45.2390 O   0  0  0  0  0  0  0  0  0  0  0  0
   57.7180   29.5270   45.9160 C   0  0  0  0  0  0  0  0  0  0  0  0
   58.1910   28.6900   46.9300 C   0  0  0  0  0  0  0  0  0  0  0  0
   59.3020   29.0590   47.6970 C   0  0  0  0  0  0  0  0  0  0  0  0
   59.8080   28.2540   48.7310 O   0  0  0  0  0  0  0  0  0  0  0  0
   60.6880   28.7120   49.7560 C   0  0  0  0  0  0  0  0  0  0  0  0
   59.9490   30.2630   47.4220 C   0  0  0  0  0  0  0  0  0  0  0  0
   59.5350   31.1050   46.3670 C   0  0  0  0  0  0  0  0  0  0  0  0
   60.2870   32.2460   46.0410 O   0  0  0  0  0  0  0  0  0  0  0  0
   60.1960   33.5150   46.6940 C   0  0  0  0  0  0  0  0  0  0  0  0
   61.5600   33.8790   47.3340 C   0  0  0  0  0  0  0  0  0  0  0  0
   62.3970   32.7010   47.6840 N   0  0  0  0  0  0  0  0  0  0  0  0
   63.8500   32.9710   47.6160 C   0  0  0  0  0  0  0  0  0  0  0  0
   64.4430   32.7200   48.9960 C   0  0  0  0  0  0  0  0  0  0  0  0
   63.4260   31.8520   49.7100 C   0  0  0  0  0  0  0  0  0  0  0  0
   62.0990   32.1530   49.0270 C   0  0  0  0  0  0  0  0  0  0  0  0
   58.3710   30.7580   45.6170 C   0  0  0  0  0  0  0  0  0  0  0  0
   57.6289   34.1980   47.0337 H   0  0  0  0  0  0  0  0  0  0  0  0
   55.9608   33.9451   46.4171 H   0  0  0  0  0  0  0  0  0  0  0  0
   57.1342   32.5850   46.4171 H   0  0  0  0  0  0  0  0  0  0  0  0
   56.5905   34.2896   44.2700 H   0  0  0  0  0  0  0  0  0  0  0  0
   58.1310   34.9463   44.9779 H   0  0  0  0  0  0  0  0  0  0  0  0
   58.1940   33.0675   43.1039 H   0  0  0  0  0  0  0  0  0  0  0  0
   59.3335   33.0436   44.5169 H   0  0  0  0  0  0  0  0  0  0  0  0
   56.1954   31.6907   43.1166 H   0  0  0  0  0  0  0  0  0  0  0  0
   57.6859   27.7329   47.1271 H   0  0  0  0  0  0  0  0  0  0  0  0
   60.2532   28.4857   50.7407 H   0  0  0  0  0  0  0  0  0  0  0  0
   61.6594   28.2050   49.6588 H   0  0  0  0  0  0  0  0  0  0  0  0
   60.8301   29.7985   49.6588 H   0  0  0  0  0  0  0  0  0  0  0  0
   60.8048   30.5650   48.0436 H   0  0  0  0  0  0  0  0  0  0  0  0
   59.9216   34.2850   45.9579 H   0  0  0  0  0  0  0  0  0  0  0  0
   59.4295   33.4626   47.4812 H   0  0  0  0  0  0  0  0  0  0  0  0
   62.1207   34.5026   46.6222 H   0  0  0  0  0  0  0  0  0  0  0  0
   61.3401   34.4042   48.2751 H   0  0  0  0  0  0  0  0  0  0  0  0
   62.1790   31.9530   46.9800 H   0  0  0  0  0  0  0  0  0  0  0  0
   64.3197   32.3010   46.8809 H   0  0  0  0  0  0  0  0  0  0  0  0
   64.0302   34.0113   47.3073 H   0  0  0  0  0  0  0  0  0  0  0  0
   65.4070   32.1968   48.9129 H   0  0  0  0  0  0  0  0  0  0  0  0
   64.6382   33.6572   49.5378 H   0  0  0  0  0  0  0  0  0  0  0  0
   63.6831   30.7879   49.6025 H   0  0  0  0  0  0  0  0  0  0  0  0
   63.3909   32.0610   50.7894 H   0  0  0  0  0  0  0  0  0  0  0  0
   61.5087   31.2297   48.9322 H   0  0  0  0  0  0  0  0  0  0  0  0
   61.5175   32.8763   49.6175 H   0  0  0  0  0  0  0  0  0  0  0  0
  1  2  1  0
  2  3  1  0
  3  4  1  0
  4  5  2  0
  5  6  1  0
  6  7  2  0
  6  8  1  0
  8  9  1  0
  9 10  2  0
 10 11  1  0
 11 12  1  0
 12 13  1  0
 11 14  2  0
 14 15  1  0
 15 16  1  0
 16 17  1  0
 17 18  1  0
 18 19  1  0
 19 20  1  0
 20 21  1  0
 21 22  1  0
 22 23  1  0
 15 24  2  0
 24  4  1  0
 24  9  1  0
 23 19  1  0
  1 25  1  0
  1 26  1  0
  1 27  1  0
  2 28  1  0
  2 29  1  0
  3 30  1  0
  3 31  1  0
  5 32  1  0
 10 33  1  0
 13 34  1  0
 13 35  1  0
 13 36  1  0
 14 37  1  0
 17 38  1  0
 17 39  1  0
 18 40  1  0
 18 41  1  0
 19 42  1  0
 20 43  1  0
 20 44  1  0
 21 45  1  0
 21 46  1  0
 22 47  1  0
 22 48  1  0
 23 49  1  0
 23 50  1  0
M  CHG  1  19   1
M  END
>  <UniqueID>  (1) 
1

>  <SMILES>  (1) 
CCCc1cc(=O)oc2cc(OC)cc(OCC[NH+]3CCCC3)c12

>  <Energy>  (1) 
63.7898173157204

>  <Genealogy>  (1) 
CCCc1cc(=O)oc2cc(OC)cc(OCC[NH+]3CCCC3)c12 (protonated)
CCCc1cc(=O)oc2cc(OC)cc(OCC[NH+]3CCCC3)c12 (3D coordinates assigned)
CCCc1cc(=O)oc2cc(OC)cc(OCC[NH+]3CCCC3)c12 (nonaromatic ring conformer: 63.7898173157204 kcal/mol)

>  <smiles>  (1) 
CCCc1cc(=O)oc2cc(OC)cc(OCCN3CCCC3)c12

>  <score_type>  (1) 
oracle

>  <origin>  (1) 
adg

>  <m_score__min__energy>  (1) 
-5.0700000000000003

>  <m_primary>  (1) 
energy

$$$$
1:0
     RDKit          3D

 52 54  0  0  0  0  0  0  0  0999 V2000
   62.6490   29.3080   51.8830 C   0  0  0  0  0  0  0  0  0  0  0  0
   62.5890   30.2790   50.7770 N   0  0  0  0  0  0  0  0  0  0  0  0
   61.5170   30.2670   49.9140 C   0  0  0  0  0  0  0  0  0  0  0  0
   60.5850   29.4310   50.0580 O   0  0  0  0  0  0  0  0  0  0  0  0
   61.4920   31.1970   48.8720 C   0  0  0  0  0  0  0  0  0  0  0  0
   62.5330   32.0500   48.7090 C   0  0  0  0  0  0  0  0  0  0  0  0
   62.3280   32.8630   47.6570 N   0  0  0  0  0  0  0  0  0  0  0  0
   61.1180   32.4650   47.1930 C   0  0  0  0  0  0  0  0  0  0  0  0
   60.4650   33.1450   46.0210 C   0  0  0  0  0  0  0  0  0  0  0  0
   59.6180   34.2740   46.4700 N   0  0  0  0  0  0  0  0  0  0  0  0
   58.8700   34.9110   45.3680 C   0  0  0  0  0  0  0  0  0  0  0  0
   57.7030   34.0250   44.8700 C   0  0  0  0  0  0  0  0  0  0  0  0
   57.4080   32.9530   45.7470 O   0  0  0  0  0  0  0  0  0  0  0  0
   57.3260   33.4260   47.0730 C   0  0  0  0  0  0  0  0  0  0  0  0
   58.7070   33.8960   47.5760 C   0  0  0  0  0  0  0  0  0  0  0  0
   60.5670   31.4450   47.9170 N   0  0  0  0  0  0  0  0  0  0  0  0
   59.2680   30.7880   47.6950 C   0  0  0  0  0  0  0  0  0  0  0  0
   59.2200   29.9940   46.3750 C   0  0  0  0  0  0  0  0  0  0  0  0
   57.9170   30.0550   45.6920 N   0  0  0  0  0  0  0  0  0  0  0  0
   58.0580   30.1630   44.2340 C   0  0  0  0  0  0  0  0  0  0  0  0
   56.7050   30.4700   43.5940 C   0  0  0  0  0  0  0  0  0  0  0  0
   55.7630   30.7940   44.5790 O   0  0  0  0  0  0  0  0  0  0  0  0
   63.6240   32.0420   49.5220 N   0  0  0  0  0  0  0  0  0  0  0  0
   64.7140   33.0070   49.3250 C   0  0  0  0  0  0  0  0  0  0  0  0
   63.6420   31.1550   50.5730 C   0  0  0  0  0  0  0  0  0  0  0  0
   64.6320   31.1390   51.3570 O   0  0  0  0  0  0  0  0  0  0  0  0
   62.6159   29.8435   52.8433 H   0  0  0  0  0  0  0  0  0  0  0  0
   61.7915   28.6223   51.8158 H   0  0  0  0  0  0  0  0  0  0  0  0
   63.5844   28.7331   51.8158 H   0  0  0  0  0  0  0  0  0  0  0  0
   61.2449   33.5262   45.3454 H   0  0  0  0  0  0  0  0  0  0  0  0
   59.8292   32.4140   45.4999 H   0  0  0  0  0  0  0  0  0  0  0  0
   58.4620   35.8688   45.7231 H   0  0  0  0  0  0  0  0  0  0  0  0
   59.5647   35.0607   44.5284 H   0  0  0  0  0  0  0  0  0  0  0  0
   56.8051   34.6524   44.7691 H   0  0  0  0  0  0  0  0  0  0  0  0
   58.0093   33.5880   43.9081 H   0  0  0  0  0  0  0  0  0  0  0  0
   56.6222   34.2705   47.1113 H   0  0  0  0  0  0  0  0  0  0  0  0
   56.9774   32.6059   47.7179 H   0  0  0  0  0  0  0  0  0  0  0  0
   58.5653   34.7692   48.2298 H   0  0  0  0  0  0  0  0  0  0  0  0
   59.1687   33.0559   48.1155 H   0  0  0  0  0  0  0  0  0  0  0  0
   59.0766   30.0964   48.5287 H   0  0  0  0  0  0  0  0  0  0  0  0
   58.5031   31.5764   47.6361 H   0  0  0  0  0  0  0  0  0  0  0  0
   59.9859   30.4002   45.6979 H   0  0  0  0  0  0  0  0  0  0  0  0
   59.3995   28.9389   46.6290 H   0  0  0  0  0  0  0  0  0  0  0  0
   57.3500   30.8550   46.0530 H   0  0  0  0  0  0  0  0  0  0  0  0
   58.7643   30.9721   43.9963 H   0  0  0  0  0  0  0  0  0  0  0  0
   58.4337   29.2079   43.8382 H   0  0  0  0  0  0  0  0  0  0  0  0
   56.8146   31.3193   42.9035 H   0  0  0  0  0  0  0  0  0  0  0  0
   56.3585   29.5811   43.0464 H   0  0  0  0  0  0  0  0  0  0  0  0
   56.2310   31.3630   45.2450 H   0  0  0  0  0  0  0  0  0  0  0  0
   65.0902   33.3400   50.3036 H   0  0  0  0  0  0  0  0  0  0  0  0
   65.5293   32.5293   48.7620 H   0  0  0  0  0  0  0  0  0  0  0  0
   64.3386   33.8742   48.7620 H   0  0  0  0  0  0  0  0  0  0  0  0
  1  2  1  0
  2  3  1  0
  3  4  2  0
  3  5  1  0
  5  6  2  0
  6  7  1  0
  7  8  2  0
  8  9  1  0
  9 10  1  0
 10 11  1  0
 11 12  1  0
 12 13  1  0
 13 14  1  0
 14 15  1  0
  8 16  1  0
 16 17  1  0
 17 18  1  0
 18 19  1  0
 19 20  1  0
 20 21  1  0
 21 22  1  0
  6 23  1  0
 23 24  1  0
 23 25  1  0
 25 26  2  0
 25  2  1  0
 16  5  1  0
 15 10  1  0
  1 27  1  0
  1 28  1  0
  1 29  1  0
  9 30  1  0
  9 31  1  0
 11 32  1  0
 11 33  1  0
 12 34  1  0
 12 35  1  0
 14 36  1  0
 14 37  1  0
 15 38  1  0
 15 39  1  0
 17 40  1  0
 17 41  1  0
 18 42  1  0
 18 43  1  0
 19 44  1  0
 20 45  1  0
 20 46  1  0
 21 47  1  0
 21 48  1  0
 22 49  1  0
 24 50  1  0
 24 51  1  0
 24 52  1  0
M  END
>  <UniqueID>  (2) 
2

>  <SMILES>  (2) 
Cn1c(=O)c2c(nc(CN3CCOCC3)n2CCNCCO)n(C)c1=O

>  <Energy>  (2) 
106.14199718547114

>  <Genealogy>  (2) 
Cn1c(=O)c2c(nc(CN3CCOCC3)n2CCNCCO)n(C)c1=O (3D coordinates assigned)
Cn1c(=O)c2c(nc(CN3CCOCC3)n2CCNCCO)n(C)c1=O (nonaromatic ring conformer: 106.14199718547114 kcal/mol)

>  <smiles>  (2) 
Cn1c(=O)c2c(nc(CN3CCOCC3)n2CCNCCO)n(C)c1=O

>  <score_type>  (2) 
oracle

>  <origin>  (2) 
adg

>  <m_score__min__energy>  (2) 
-6.79

>  <m_primary>  (2) 
energy

$$$$
2:0
     RDKit          3D

 50 53  0  0  0  0  0  0  0  0999 V2000
   56.2900   29.7170   42.6330 C   0  0  0  0  0  0  0  0  0  0  0  0
   57.0270   29.4840   43.9060 C   0  0  0  0  0  0  0  0  0  0  0  0
   56.9380   28.3440   44.6230 N   0  0  0  0  0  0  0  0  0  0  0  0
   57.6570   28.4020   45.7760 C   0  0  0  0  0  0  0  0  0  0  0  0
   57.7240   27.2220   46.6950 C   0  0  0  0  0  0  0  0  0  0  0  0
   58.3050   29.6270   46.0000 C   0  0  0  0  0  0  0  0  0  0  0  0
   59.1430   30.0160   47.1560 C   0  0  0  0  0  0  0  0  0  0  0  0
   60.5170   29.7340   47.1800 C   0  0  0  0  0  0  0  0  0  0  0  0
   61.2940   30.0940   48.2840 C   0  0  0  0  0  0  0  0  0  0  0  0
   60.7120   30.7290   49.3910 C   0  0  0  0  0  0  0  0  0  0  0  0
   61.5410   31.0820   50.5160 N   0  0  0  0  0  0  0  0  0  0  0  0
   62.4950   32.1940   50.5240 C   0  0  0  0  0  0  0  0  0  0  0  0
   62.6400   32.7830   49.1460 C   0  0  0  0  0  0  0  0  0  0  0  0
   63.7950   32.5450   48.3850 C   0  0  0  0  0  0  0  0  0  0  0  0
   63.9190   33.0880   47.1040 C   0  0  0  0  0  0  0  0  0  0  0  0
   62.9010   33.8880   46.5790 C   0  0  0  0  0  0  0  0  0  0  0  0
   61.7560   34.1630   47.3350 C   0  0  0  0  0  0  0  0  0  0  0  0
   60.7510   34.9600   46.7690 O   0  0  0  0  0  0  0  0  0  0  0  0
   59.5020   34.5020   46.3250 C   0  0  0  0  0  0  0  0  0  0  0  0
   59.1330   34.5450   44.9670 C   0  0  0  0  0  0  0  0  0  0  0  0
   57.8840   34.0660   44.5630 C   0  0  0  0  0  0  0  0  0  0  0  0
   57.0000   33.5300   45.5030 C   0  0  0  0  0  0  0  0  0  0  0  0
   57.3700   33.4640   46.8490 C   0  0  0  0  0  0  0  0  0  0  0  0
   58.6190   33.9430   47.2570 C   0  0  0  0  0  0  0  0  0  0  0  0
   61.6240   33.5960   48.6170 C   0  0  0  0  0  0  0  0  0  0  0  0
   59.3310   31.0010   49.3710 C   0  0  0  0  0  0  0  0  0  0  0  0
   58.5550   30.6400   48.2660 C   0  0  0  0  0  0  0  0  0  0  0  0
   57.9750   30.6310   44.6870 S   0  0  0  0  0  0  0  0  0  0  0  0
   55.2633   30.0416   42.8578 H   0  0  0  0  0  0  0  0  0  0  0  0
   56.8019   30.4971   42.0505 H   0  0  0  0  0  0  0  0  0  0  0  0
   56.2604   28.7844   42.0505 H   0  0  0  0  0  0  0  0  0  0  0  0
   57.7043   27.5686   47.7388 H   0  0  0  0  0  0  0  0  0  0  0  0
   56.8617   26.5643   46.5107 H   0  0  0  0  0  0  0  0  0  0  0  0
   58.6552   26.6661   46.5107 H   0  0  0  0  0  0  0  0  0  0  0  0
   60.9857   29.2262   46.3242 H   0  0  0  0  0  0  0  0  0  0  0  0
   62.3725   29.8774   48.2850 H   0  0  0  0  0  0  0  0  0  0  0  0
   61.4300   30.5450   51.4060 H   0  0  0  0  0  0  0  0  0  0  0  0
   62.1358   32.9725   51.2131 H   0  0  0  0  0  0  0  0  0  0  0  0
   63.4749   31.8160   50.8511 H   0  0  0  0  0  0  0  0  0  0  0  0
   64.6062   31.9281   48.7991 H   0  0  0  0  0  0  0  0  0  0  0  0
   64.8204   32.8852   46.5071 H   0  0  0  0  0  0  0  0  0  0  0  0
   63.0001   34.3041   45.5656 H   0  0  0  0  0  0  0  0  0  0  0  0
   59.8298   34.9568   44.2220 H   0  0  0  0  0  0  0  0  0  0  0  0
   57.5960   34.1110   43.5023 H   0  0  0  0  0  0  0  0  0  0  0  0
   56.0142   33.1605   45.1840 H   0  0  0  0  0  0  0  0  0  0  0  0
   56.6780   33.0348   47.5885 H   0  0  0  0  0  0  0  0  0  0  0  0
   58.9094   33.8803   48.3161 H   0  0  0  0  0  0  0  0  0  0  0  0
   60.7178   33.7913   49.2092 H   0  0  0  0  0  0  0  0  0  0  0  0
   58.8597   31.5007   50.2302 H   0  0  0  0  0  0  0  0  0  0  0  0
   57.4746   30.8469   48.2669 H   0  0  0  0  0  0  0  0  0  0  0  0
  1  2  1  0
  2  3  2  0
  3  4  1  0
  4  5  1  0
  4  6  2  0
  6  7  1  0
  7  8  2  0
  8  9  1  0
  9 10  2  0
 10 11  1  0
 11 12  1  0
 12 13  1  0
 13 14  2  0
 14 15  1  0
 15 16  2  0
 16 17  1  0
 17 18  1  0
 18 19  1  0
 19 20  2  0
 20 21  1  0
 21 22  2  0
 22 23  1  0
 23 24  2  0
 17 25  2  0
 10 26  1  0
 26 27  2  0
  6 28  1  0
 28  2  1  0
 27  7  1  0
 25 13  1  0
 24 19  1  0
  1 29  1  0
  1 30  1  0
  1 31  1  0
  5 32  1  0
  5 33  1  0
  5 34  1  0
  8 35  1  0
  9 36  1  0
 11 37  1  0
 12 38  1  0
 12 39  1  0
 14 40  1  0
 15 41  1  0
 16 42  1  0
 20 43  1  0
 21 44  1  0
 22 45  1  0
 23 46  1  0
 24 47  1  0
 25 48  1  0
 26 49  1  0
 27 50  1  0
M  END
>  <UniqueID>  (3) 
3

>  <SMILES>  (3) 
Cc1nc(C)c(-c2ccc(NCc3cccc(Oc4ccccc4)c3)cc2)s1

>  <Energy>  (3) 
91.68955699528692

>  <Genealogy>  (3) 
Cc1nc(C)c(-c2ccc(NCc3cccc(Oc4ccccc4)c3)cc2)s1 (3D coordinates assigned)
Cc1nc(C)c(-c2ccc(NCc3cccc(Oc4ccccc4)c3)cc2)s1 (optimized conformer: 91.68955699528692 kcal/mol)

>  <smiles>  (3) 
Cc1nc(C)c(-c2ccc(NCc3cccc(Oc4ccccc4)c3)cc2)s1

>  <score_type>  (3) 
oracle

>  <origin>  (3) 
adg

>  <m_score__min__energy>  (3) 
-8.7400000000000002

>  <m_primary>  (3) 
energy

$$$$
3:0
     RDKit          3D

 36 37  0  0  0  0  0  0  0  0999 V2000
   57.8690   28.6780   44.1280 C   0  0  0  0  0  0  0  0  0  0  0  0
   56.6490   29.1570   44.9010 C   0  0  0  0  0  0  0  0  0  0  0  0
   56.3460   30.4830   44.5210 O   0  0  0  0  0  0  0  0  0  0  0  0
   57.1680   30.8940   43.4450 C   0  0  0  0  0  0  0  0  0  0  0  0
   57.6750   32.3230   43.6600 C   0  0  0  0  0  0  0  0  0  0  0  0
   57.0190   33.0520   45.2060 S   0  0  0  0  0  0  0  0  0  0  0  0
   58.5860   33.7350   45.7570 C   0  0  0  0  0  0  0  0  0  0  0  0
   59.0020   34.9750   45.4340 N   0  0  0  0  0  0  0  0  0  0  0  0
   60.1800   35.1290   46.0130 N   0  0  0  0  0  0  0  0  0  0  0  0
   60.4850   33.9920   46.6680 C   0  0  0  0  0  0  0  0  0  0  0  0
   61.7220   33.8360   47.4630 C   0  0  0  0  0  0  0  0  0  0  0  0
   61.8520   33.8550   48.8480 C   0  0  0  0  0  0  0  0  0  0  0  0
   63.1620   33.6210   49.2870 C   0  0  0  0  0  0  0  0  0  0  0  0
   64.0660   33.4030   48.2560 C   0  0  0  0  0  0  0  0  0  0  0  0
   63.2310   33.4970   46.8020 S   0  0  0  0  0  0  0  0  0  0  0  0
   59.4880   33.0860   46.5270 N   0  0  0  0  0  0  0  0  0  0  0  0
   59.3650   31.7340   47.0810 C   0  0  0  0  0  0  0  0  0  0  0  0
   60.3390   30.7840   46.3930 C   0  0  0  0  0  0  0  0  0  0  0  0
   58.6534   28.3700   44.8350 H   0  0  0  0  0  0  0  0  0  0  0  0
   57.5895   27.8228   43.4951 H   0  0  0  0  0  0  0  0  0  0  0  0
   58.2460   29.4949   43.4951 H   0  0  0  0  0  0  0  0  0  0  0  0
   55.7920   28.5053   44.6754 H   0  0  0  0  0  0  0  0  0  0  0  0
   56.8598   29.1222   45.9801 H   0  0  0  0  0  0  0  0  0  0  0  0
   58.0292   30.2138   43.3693 H   0  0  0  0  0  0  0  0  0  0  0  0
   56.5748   30.8670   42.5191 H   0  0  0  0  0  0  0  0  0  0  0  0
   58.7736   32.3069   43.7121 H   0  0  0  0  0  0  0  0  0  0  0  0
   57.3281   32.9392   42.8174 H   0  0  0  0  0  0  0  0  0  0  0  0
   60.7570   35.9970   45.9530 H   0  0  0  0  0  0  0  0  0  0  0  0
   61.0092   34.0359   49.5314 H   0  0  0  0  0  0  0  0  0  0  0  0
   63.4475   33.6110   50.3493 H   0  0  0  0  0  0  0  0  0  0  0  0
   65.1416   33.2035   48.3714 H   0  0  0  0  0  0  0  0  0  0  0  0
   59.5871   31.7626   48.1580 H   0  0  0  0  0  0  0  0  0  0  0  0
   58.3392   31.3735   46.9146 H   0  0  0  0  0  0  0  0  0  0  0  0
   60.9083   30.2288   47.1530 H   0  0  0  0  0  0  0  0  0  0  0  0
   59.7786   30.0760   45.7648 H   0  0  0  0  0  0  0  0  0  0  0  0
   61.0328   31.3619   45.7648 H   0  0  0  0  0  0  0  0  0  0  0  0
  1  2  1  0
  2  3  1  0
  3  4  1  0
  4  5  1  0
  5  6  1  0
  6  7  1  0
  7  8  2  0
  8  9  1  0
  9 10  2  0
 10 11  1  0
 11 12  2  0
 12 13  1  0
 13 14  2  0
 14 15  1  0
 10 16  1  0
 16 17  1  0
 17 18  1  0
 16  7  1  0
 15 11  1  0
  1 19  1  0
  1 20  1  0
  1 21  1  0
  2 22  1  0
  2 23  1  0
  4 24  1  0
  4 25  1  0
  5 26  1  0
  5 27  1  0
  9 28  1  0
 12 29  1  0
 13 30  1  0
 14 31  1  0
 17 32  1  0
 17 33  1  0
 18 34  1  0
 18 35  1  0
 18 36  1  0
M  CHG  1   9   1
M  END
>  <UniqueID>  (4) 
4

>  <SMILES>  (4) 
CCOCCSc1n[nH+]c(-c2cccs2)n1CC

>  <Energy>  (4) 
90.44765972652145

>  <Genealogy>  (4) 
CCOCCSc1n[nH+]c(-c2cccs2)n1CC (protonated)
CCOCCSc1n[nH+]c(-c2cccs2)n1CC (3D coordinates assigned)
CCOCCSc1n[nH+]c(-c2cccs2)n1CC (optimized conformer: 90.44765972652145 kcal/mol)

>  <smiles>  (4) 
CCOCCSc1nnc(-c2cccs2)n1CC

>  <score_type>  (4) 
oracle

>  <origin>  (4) 
adg

>  <m_score__min__energy>  (4) 
-4.8700000000000001

>  <m_primary>  (4) 
energy

$$$$
4:0
     RDKit          3D

 86 87  0  0  0  0  0  0  0  0999 V2000
   63.3810   33.6820   46.6560 C   0  0  0  0  0  0  0  0  0  0  0  0
   63.4130   32.3950   47.5080 C   0  0  0  0  0  0  0  0  0  0  0  0
   63.4740   32.5700   49.0040 N   0  0  0  0  0  0  0  0  0  0  0  0
   64.8930   32.4300   49.4400 C   0  0  0  0  0  0  0  0  0  0  0  0
   62.9200   33.9510   49.2860 C   0  0  0  0  0  0  0  0  0  0  0  0
   63.1480   34.5260   50.7010 C   0  0  0  0  0  0  0  0  0  0  0  0
   62.6250   31.5070   49.6430 C   0  0  0  0  0  0  0  0  0  0  0  0
   61.5830   30.8290   48.7190 C   0  0  0  0  0  0  0  0  0  0  0  0
   60.7600   29.9110   49.4170 O   0  0  0  0  0  0  0  0  0  0  0  0
   60.1170   28.9640   48.5810 C   0  0  0  0  0  0  0  0  0  0  0  0
   60.3880   29.1310   47.0560 C   0  0  0  0  0  0  0  0  0  0  0  0
   59.3540   28.6120   46.0780 N   0  0  0  0  0  0  0  0  0  0  0  0
   60.0390   28.3720   44.7800 C   0  0  0  0  0  0  0  0  0  0  0  0
   58.7210   27.3270   46.4710 C   0  0  0  0  0  0  0  0  0  0  0  0
   58.2950   29.6430   45.8150 C   0  0  0  0  0  0  0  0  0  0  0  0
   58.5260   31.0030   46.5140 C   0  0  0  0  0  0  0  0  0  0  0  0
   59.1990   32.0840   45.6270 C   0  0  0  0  0  0  0  0  0  0  0  0
   58.3120   33.0870   44.9430 N   0  0  0  0  0  0  0  0  0  0  0  0
   56.9980   33.2020   45.6280 C   0  0  0  0  0  0  0  0  0  0  0  0
   58.0760   32.7200   43.5190 C   0  0  0  0  0  0  0  0  0  0  0  0
   58.9540   34.4410   45.0080 C   0  0  0  0  0  0  0  0  0  0  0  0
   60.1100   34.5700   46.0290 C   0  0  0  0  0  0  0  0  0  0  0  0
   59.5680   34.6880   47.4590 C   0  0  0  0  0  0  0  0  0  0  0  0
   59.8190   33.4870   48.1880 O   0  0  0  0  0  0  0  0  0  0  0  0
   59.3950   33.2260   49.5020 C   0  0  0  0  0  0  0  0  0  0  0  0
   59.7240   34.0600   50.5900 C   0  0  0  0  0  0  0  0  0  0  0  0
   59.2740   33.7580   51.8780 C   0  0  0  0  0  0  0  0  0  0  0  0
   58.4920   32.6170   52.1020 C   0  0  0  0  0  0  0  0  0  0  0  0
   58.0310   32.3050   53.3890 C   0  0  0  0  0  0  0  0  0  0  0  0
   57.2560   31.1620   53.5990 C   0  0  0  0  0  0  0  0  0  0  0  0
   56.9330   30.3250   52.5300 C   0  0  0  0  0  0  0  0  0  0  0  0
   57.3790   30.6250   51.2400 C   0  0  0  0  0  0  0  0  0  0  0  0
   58.1590   31.7730   51.0160 C   0  0  0  0  0  0  0  0  0  0  0  0
   58.6090   32.0900   49.7240 C   0  0  0  0  0  0  0  0  0  0  0  0
   63.3592   34.5599   47.3185 H   0  0  0  0  0  0  0  0  0  0  0  0
   64.2784   33.7239   46.0212 H   0  0  0  0  0  0  0  0  0  0  0  0
   62.4826   33.6793   46.0212 H   0  0  0  0  0  0  0  0  0  0  0  0
   62.5036   31.8207   47.2772 H   0  0  0  0  0  0  0  0  0  0  0  0
   64.3553   31.8956   47.2386 H   0  0  0  0  0  0  0  0  0  0  0  0
   64.9402   32.4253   50.5390 H   0  0  0  0  0  0  0  0  0  0  0  0
   65.3047   31.4869   49.0513 H   0  0  0  0  0  0  0  0  0  0  0  0
   65.4810   33.2745   49.0513 H   0  0  0  0  0  0  0  0  0  0  0  0
   63.3806   34.6456   48.5681 H   0  0  0  0  0  0  0  0  0  0  0  0
   61.8290   33.8435   49.1954 H   0  0  0  0  0  0  0  0  0  0  0  0
   62.8519   33.7792   51.4524 H   0  0  0  0  0  0  0  0  0  0  0  0
   64.2122   34.7731   50.8293 H   0  0  0  0  0  0  0  0  0  0  0  0
   62.5424   35.4353   50.8293 H   0  0  0  0  0  0  0  0  0  0  0  0
   63.2962   30.7241   50.0258 H   0  0  0  0  0  0  0  0  0  0  0  0
   62.0430   32.0192   50.4234 H   0  0  0  0  0  0  0  0  0  0  0  0
   60.9458   31.6074   48.2739 H   0  0  0  0  0  0  0  0  0  0  0  0
   62.1321   30.2688   47.9479 H   0  0  0  0  0  0  0  0  0  0  0  0
   60.4571   27.9612   48.8789 H   0  0  0  0  0  0  0  0  0  0  0  0
   59.0369   29.1212   48.7174 H   0  0  0  0  0  0  0  0  0  0  0  0
   60.5063   30.2075   46.8630 H   0  0  0  0  0  0  0  0  0  0  0  0
   61.2736   28.5057   46.8694 H   0  0  0  0  0  0  0  0  0  0  0  0
   61.0622   28.0135   44.9661 H   0  0  0  0  0  0  0  0  0  0  0  0
   59.4838   27.6149   44.2069 H   0  0  0  0  0  0  0  0  0  0  0  0
   60.0777   29.3101   44.2069 H   0  0  0  0  0  0  0  0  0  0  0  0
   58.6860   27.2559   47.5681 H   0  0  0  0  0  0  0  0  0  0  0  0
   57.6984   27.2836   46.0679 H   0  0  0  0  0  0  0  0  0  0  0  0
   59.3098   26.4898   46.0679 H   0  0  0  0  0  0  0  0  0  0  0  0
   58.2508   29.8190   44.7301 H   0  0  0  0  0  0  0  0  0  0  0  0
   57.3592   29.2379   46.2275 H   0  0  0  0  0  0  0  0  0  0  0  0
   57.5498   31.3891   46.8427 H   0  0  0  0  0  0  0  0  0  0  0  0
   59.2187   30.8099   47.3464 H   0  0  0  0  0  0  0  0  0  0  0  0
   59.8952   32.6457   46.2672 H   0  0  0  0  0  0  0  0  0  0  0  0
   59.6592   31.5173   44.8041 H   0  0  0  0  0  0  0  0  0  0  0  0
   57.1500   33.1887   46.7174 H   0  0  0  0  0  0  0  0  0  0  0  0
   56.5141   34.1459   45.3368 H   0  0  0  0  0  0  0  0  0  0  0  0
   56.3575   32.3565   45.3368 H   0  0  0  0  0  0  0  0  0  0  0  0
   57.4816   31.7956   43.4723 H   0  0  0  0  0  0  0  0  0  0  0  0
   57.5306   33.5324   43.0165 H   0  0  0  0  0  0  0  0  0  0  0  0
   59.0415   32.5609   43.0165 H   0  0  0  0  0  0  0  0  0  0  0  0
   59.3522   34.6778   44.0103 H   0  0  0  0  0  0  0  0  0  0  0  0
   58.1702   35.1365   45.3426 H   0  0  0  0  0  0  0  0  0  0  0  0
   60.7524   33.6797   45.9598 H   0  0  0  0  0  0  0  0  0  0  0  0
   60.6849   35.4783   45.7954 H   0  0  0  0  0  0  0  0  0  0  0  0
   60.0631   35.5295   47.9657 H   0  0  0  0  0  0  0  0  0  0  0  0
   58.4821   34.8581   47.4156 H   0  0  0  0  0  0  0  0  0  0  0  0
   60.3401   34.9560   50.4236 H   0  0  0  0  0  0  0  0  0  0  0  0
   59.5344   34.4180   52.7186 H   0  0  0  0  0  0  0  0  0  0  0  0
   58.2803   32.9620   54.2353 H   0  0  0  0  0  0  0  0  0  0  0  0
   56.8989   30.9207   54.6110 H   0  0  0  0  0  0  0  0  0  0  0  0
   56.3246   29.4251   52.7036 H   0  0  0  0  0  0  0  0  0  0  0  0
   57.1199   29.9633   50.4004 H   0  0  0  0  0  0  0  0  0  0  0  0
   58.3410   31.4391   48.8787 H   0  0  0  0  0  0  0  0  0  0  0  0
  1  2  1  0
  2  3  1  0
  3  4  1  0
  3  5  1  0
  5  6  1  0
  3  7  1  0
  7  8  1  0
  8  9  1  0
  9 10  1  0
 10 11  1  0
 11 12  1  0
 12 13  1  0
 12 14  1  0
 12 15  1  0
 15 16  1  0
 16 17  1  0
 17 18  1  0
 18 19  1  0
 18 20  1  0
 18 21  1  0
 21 22  1  0
 22 23  1  0
 23 24  1  0
 24 25  1  0
 25 26  2  0
 26 27  1  0
 27 28  2  0
 28 29  1  0
 29 30  2  0
 30 31  1  0
 31 32  2  0
 32 33  1  0
 33 34  2  0
 34 25  1  0
 33 28  1  0
  1 35  1  0
  1 36  1  0
  1 37  1  0
  2 38  1  0
  2 39  1  0
  4 40  1  0
  4 41  1  0
  4 42  1  0
  5 43  1  0
  5 44  1  0
  6 45  1  0
  6 46  1  0
  6 47  1  0
  7 48  1  0
  7 49  1  0
  8 50  1  0
  8 51  1  0
 10 52  1  0
 10 53  1  0
 11 54  1  0
 11 55  1  0
 13 56  1  0
 13 57  1  0
 13 58  1  0
 14 59  1  0
 14 60  1  0
 14 61  1  0
 15 62  1  0
 15 63  1  0
 16 64  1  0
 16 65  1  0
 17 66  1  0
 17 67  1  0
 19 68  1  0
 19 69  1  0
 19 70  1  0
 20 71  1  0
 20 72  1  0
 20 73  1  0
 21 74  1  0
 21 75  1  0
 22 76  1  0
 22 77  1  0
 23 78  1  0
 23 79  1  0
 26 80  1  0
 27 81  1  0
 29 82  1  0
 30 83  1  0
 31 84  1  0
 32 85  1  0
 34 86  1  0
M  CHG  3   3   1  12   1  18   1
M  END
>  <UniqueID>  (5) 
5

>  <SMILES>  (5) 
CC[N+](C)(CC)CCOCC[N+](C)(C)CCC[N+](C)(C)CCCOc1ccc2ccccc2c1

>  <Energy>  (5) 
141.75839918233657

>  <Genealogy>  (5) 
CC[N+](C)(CC)CCOCC[N+](C)(C)CCC[N+](C)(C)CCCOc1ccc2ccccc2c1 (3D coordinates assigned)
CC[N+](C)(CC)CCOCC[N+](C)(C)CCC[N+](C)(C)CCCOc1ccc2ccccc2c1 (optimized conformer: 141.75839918233657 kcal/mol)

>  <smiles>  (5) 
CC[N+](C)(CC)CCOCC[N+](C)(C)CCC[N+](C)(C)CCCOc1ccc2ccccc2c1

>  <score_type>  (5) 
oracle

>  <origin>  (5) 
adg

>  <m_score__min__energy>  (5) 
-3.1800000000000002

>  <m_primary>  (5) 
energy

$$$$
5:0
     RDKit          3D

 47 49  0  0  0  0  0  0  0  0999 V2000
   56.2530   29.7520   42.7320 C   0  0  0  0  0  0  0  0  0  0  0  0
   56.6660   29.3380   44.1400 C   0  0  0  0  0  0  0  0  0  0  0  0
   56.5070   30.4630   45.0660 N   0  0  0  0  0  0  0  0  0  0  0  0
   57.7170   31.6800   44.7660 S   0  0  0  0  0  0  0  0  0  0  0  0
   58.6880   31.2490   43.7030 O   0  0  0  0  0  0  0  0  0  0  0  0
   57.0190   32.9180   44.2760 O   0  0  0  0  0  0  0  0  0  0  0  0
   58.5980   32.0510   46.2580 C   0  0  0  0  0  0  0  0  0  0  0  0
   58.6680   33.3870   46.6890 C   0  0  0  0  0  0  0  0  0  0  0  0
   59.3580   33.7240   47.8560 C   0  0  0  0  0  0  0  0  0  0  0  0
   59.9830   32.7320   48.6100 C   0  0  0  0  0  0  0  0  0  0  0  0
   59.9160   31.4000   48.2020 C   0  0  0  0  0  0  0  0  0  0  0  0
   59.2230   31.0430   47.0340 C   0  0  0  0  0  0  0  0  0  0  0  0
   59.1680   29.6580   46.6590 N   0  0  0  0  0  0  0  0  0  0  0  0
   58.5210   28.7130   47.5820 C   0  0  0  0  0  0  0  0  0  0  0  0
   58.9010   27.2610   47.2730 C   0  0  0  0  0  0  0  0  0  0  0  0
   58.8640   27.0200   45.8240 N   0  0  0  0  0  0  0  0  0  0  0  0
   58.3360   25.7810   45.3110 C   0  0  0  0  0  0  0  0  0  0  0  0
   58.5020   24.5840   46.0290 C   0  0  0  0  0  0  0  0  0  0  0  0
   57.9870   23.3830   45.5300 C   0  0  0  0  0  0  0  0  0  0  0  0
   57.3000   23.3670   44.3140 C   0  0  0  0  0  0  0  0  0  0  0  0
   57.1270   24.5520   43.5940 C   0  0  0  0  0  0  0  0  0  0  0  0
   57.6420   25.7540   44.0880 C   0  0  0  0  0  0  0  0  0  0  0  0
   59.5150   27.9660   44.9050 C   0  0  0  0  0  0  0  0  0  0  0  0
   60.1120   29.1660   45.6490 C   0  0  0  0  0  0  0  0  0  0  0  0
   55.4772   30.5296   42.7912 H   0  0  0  0  0  0  0  0  0  0  0  0
   57.1277   30.1469   42.1945 H   0  0  0  0  0  0  0  0  0  0  0  0
   55.8560   28.8782   42.1945 H   0  0  0  0  0  0  0  0  0  0  0  0
   56.0340   28.5015   44.4728 H   0  0  0  0  0  0  0  0  0  0  0  0
   57.7218   29.0297   44.1281 H   0  0  0  0  0  0  0  0  0  0  0  0
   56.6400   30.1190   46.0430 H   0  0  0  0  0  0  0  0  0  0  0  0
   58.1745   34.1752   46.1015 H   0  0  0  0  0  0  0  0  0  0  0  0
   59.4082   34.7739   48.1805 H   0  0  0  0  0  0  0  0  0  0  0  0
   60.5290   32.9997   49.5267 H   0  0  0  0  0  0  0  0  0  0  0  0
   60.4109   30.6214   48.8011 H   0  0  0  0  0  0  0  0  0  0  0  0
   58.8319   28.9508   48.6100 H   0  0  0  0  0  0  0  0  0  0  0  0
   57.4319   28.8127   47.4637 H   0  0  0  0  0  0  0  0  0  0  0  0
   59.9164   27.0644   47.6475 H   0  0  0  0  0  0  0  0  0  0  0  0
   58.1808   26.5908   47.7651 H   0  0  0  0  0  0  0  0  0  0  0  0
   59.0398   24.5918   46.9885 H   0  0  0  0  0  0  0  0  0  0  0  0
   58.1233   22.4497   46.0961 H   0  0  0  0  0  0  0  0  0  0  0  0
   56.8952   22.4218   43.9232 H   0  0  0  0  0  0  0  0  0  0  0  0
   56.5847   24.5390   42.6370 H   0  0  0  0  0  0  0  0  0  0  0  0
   57.5037   26.6840   43.5170 H   0  0  0  0  0  0  0  0  0  0  0  0
   60.3207   27.4434   44.3685 H   0  0  0  0  0  0  0  0  0  0  0  0
   58.7529   28.3423   44.2067 H   0  0  0  0  0  0  0  0  0  0  0  0
   61.0455   28.8590   46.1434 H   0  0  0  0  0  0  0  0  0  0  0  0
   60.3158   29.9703   44.9268 H   0  0  0  0  0  0  0  0  0  0  0  0
  1  2  1  0
  2  3  1  0
  3  4  1  0
  4  5  2  0
  4  6  2  0
  4  7  1  0
  7  8  2  0
  8  9  1  0
  9 10  2  0
 10 11  1  0
 11 12  2  0
 12 13  1  0
 13 14  1  0
 14 15  1  0
 15 16  1  0
 16 17  1  0
 17 18  2  0
 18 19  1  0
 19 20  2  0
 20 21  1  0
 21 22  2  0
 16 23  1  0
 23 24  1  0
 12  7  1  0
 24 13  1  0
 22 17  1  0
  1 25  1  0
  1 26  1  0
  1 27  1  0
  2 28  1  0
  2 29  1  0
  3 30  1  0
  8 31  1  0
  9 32  1  0
 10 33  1  0
 11 34  1  0
 14 35  1  0
 14 36  1  0
 15 37  1  0
 15 38  1  0
 18 39  1  0
 19 40  1  0
 20 41  1  0
 21 42  1  0
 22 43  1  0
 23 44  1  0
 23 45  1  0
 24 46  1  0
 24 47  1  0
M  END
>  <UniqueID>  (6) 
6

>  <SMILES>  (6) 
CCNS(=O)(=O)c1ccccc1N1CCN(c2ccccc2)CC1

>  <Energy>  (6) 
53.354415042504854

>  <Genealogy>  (6) 
CCNS(=O)(=O)c1ccccc1N1CCN(c2ccccc2)CC1 (3D coordinates assigned)
CCNS(=O)(=O)c1ccccc1N1CCN(c2ccccc2)CC1 (nonaromatic ring conformer: 53.354415042504854 kcal/mol)

>  <smiles>  (6) 
CCNS(=O)(=O)c1ccccc1N1CCN(c2ccccc2)CC1

>  <score_type>  (6) 
oracle

>  <origin>  (6) 
adg

>  <m_score__min__energy>  (6) 
-8.4800000000000004

>  <m_primary>  (6) 
energy

$$$$
6:0
     RDKit          3D

 40 42  0  0  0  0  0  0  0  0999 V2000
   57.5120   32.3450   41.0000 C   0  0  0  0  0  0  0  0  0  0  0  0
   57.7410   32.0170   42.4710 C   0  0  0  0  0  0  0  0  0  0  0  0
   56.7000   31.1900   42.9570 O   0  0  0  0  0  0  0  0  0  0  0  0
   57.1310   29.8470   43.0390 C   0  0  0  0  0  0  0  0  0  0  0  0
   56.2980   29.1190   44.0930 C   0  0  0  0  0  0  0  0  0  0  0  0
   56.5520   29.6660   45.4270 N   0  0  0  0  0  0  0  0  0  0  0  0
   57.8340   30.1520   45.8810 C   0  0  0  0  0  0  0  0  0  0  0  0
   58.1470   31.5340   45.8290 C   0  0  0  0  0  0  0  0  0  0  0  0
   59.3930   31.9610   46.2920 C   0  0  0  0  0  0  0  0  0  0  0  0
   60.3130   31.0610   46.7830 C   0  0  0  0  0  0  0  0  0  0  0  0
   60.0510   29.6980   46.8530 C   0  0  0  0  0  0  0  0  0  0  0  0
   58.7990   29.2380   46.4030 C   0  0  0  0  0  0  0  0  0  0  0  0
   58.4760   27.3490   46.4780 Br  0  0  0  0  0  0  0  0  0  0  0  0
   61.4350   31.7890   47.1100 C   0  0  0  0  0  0  0  0  0  0  0  0
   62.6720   31.3980   47.6190 C   0  0  0  0  0  0  0  0  0  0  0  0
   63.6420   32.3960   47.8170 C   0  0  0  0  0  0  0  0  0  0  0  0
   63.3600   33.7420   47.5000 C   0  0  0  0  0  0  0  0  0  0  0  0
   62.1030   34.1090   46.9850 C   0  0  0  0  0  0  0  0  0  0  0  0
   61.1470   33.1040   46.8050 C   0  0  0  0  0  0  0  0  0  0  0  0
   59.8850   33.2260   46.3170 N   0  0  0  0  0  0  0  0  0  0  0  0
   59.2420   34.4370   45.8080 C   0  0  0  0  0  0  0  0  0  0  0  0
   56.8840   33.2444   40.9183 H   0  0  0  0  0  0  0  0  0  0  0  0
   58.4798   32.5278   40.5101 H   0  0  0  0  0  0  0  0  0  0  0  0
   57.0069   31.4995   40.5101 H   0  0  0  0  0  0  0  0  0  0  0  0
   58.7020   31.4932   42.5808 H   0  0  0  0  0  0  0  0  0  0  0  0
   57.7542   32.9529   43.0488 H   0  0  0  0  0  0  0  0  0  0  0  0
   56.9995   29.3575   42.0627 H   0  0  0  0  0  0  0  0  0  0  0  0
   58.1942   29.8151   43.3194 H   0  0  0  0  0  0  0  0  0  0  0  0
   55.2309   29.2358   43.8528 H   0  0  0  0  0  0  0  0  0  0  0  0
   56.5777   28.0552   44.0896 H   0  0  0  0  0  0  0  0  0  0  0  0
   55.7360   29.6990   46.0770 H   0  0  0  0  0  0  0  0  0  0  0  0
   57.4204   32.2574   45.4306 H   0  0  0  0  0  0  0  0  0  0  0  0
   60.8013   28.9979   47.2491 H   0  0  0  0  0  0  0  0  0  0  0  0
   62.8821   30.3449   47.8576 H   0  0  0  0  0  0  0  0  0  0  0  0
   64.6283   32.1258   48.2221 H   0  0  0  0  0  0  0  0  0  0  0  0
   64.1302   34.5115   47.6570 H   0  0  0  0  0  0  0  0  0  0  0  0
   61.8788   35.1556   46.7314 H   0  0  0  0  0  0  0  0  0  0  0  0
   58.9115   35.0594   46.6526 H   0  0  0  0  0  0  0  0  0  0  0  0
   59.9587   35.0024   45.1943 H   0  0  0  0  0  0  0  0  0  0  0  0
   58.3722   34.1600   45.1943 H   0  0  0  0  0  0  0  0  0  0  0  0
  1  2  1  0
  2  3  1  0
  3  4  1  0
  4  5  1  0
  5  6  1  0
  6  7  1  0
  7  8  2  0
  8  9  1  0
  9 10  2  0
 10 11  1  0
 11 12  2  0
 12 13  1  0
 10 14  1  0
 14 15  2  0
 15 16  1  0
 16 17  2  0
 17 18  1  0
 18 19  2  0
 19 20  1  0
 20 21  1  0
 12  7  1  0
 19 14  1  0
 20  9  1  0
  1 22  1  0
  1 23  1  0
  1 24  1  0
  2 25  1  0
  2 26  1  0
  4 27  1  0
  4 28  1  0
  5 29  1  0
  5 30  1  0
  6 31  1  0
  8 32  1  0
 11 33  1  0
 15 34  1  0
 16 35  1  0
 17 36  1  0
 18 37  1  0
 21 38  1  0
 21 39  1  0
 21 40  1  0
M  END
>  <UniqueID>  (7) 
7

>  <SMILES>  (7) 
CCOCCNc1cc2c(cc1Br)c1ccccc1n2C

>  <Energy>  (7) 
82.35487427995271

>  <Genealogy>  (7) 
CCOCCNc1cc2c(cc1Br)c1ccccc1n2C (3D coordinates assigned)
CCOCCNc1cc2c(cc1Br)c1ccccc1n2C (optimized conformer: 82.35487427995271 kcal/mol)

>  <smiles>  (7) 
CCOCCNc1cc2c(cc1Br)c1ccccc1n2C

>  <score_type>  (7) 
oracle

>  <origin>  (7) 
adg

>  <m_score__min__energy>  (7) 
-7.7800000000000002

>  <m_primary>  (7) 
energy

$$$$
7:0
     RDKit          3D

 67 71  0  0  0  0  0  0  0  0999 V2000
   59.6050   28.9990   48.0720 C   0  0  0  0  0  0  0  0  0  0  0  0
   58.7790   28.8070   46.8030 C   0  0  0  0  0  0  0  0  0  0  0  0
   58.3770   30.1080   46.2490 N   0  0  0  0  0  0  0  0  0  0  0  0
   58.3180   30.0720   44.7820 C   0  0  0  0  0  0  0  0  0  0  0  0
   57.4390   31.2110   44.2670 C   0  0  0  0  0  0  0  0  0  0  0  0
   57.0240   32.0290   45.3440 O   0  0  0  0  0  0  0  0  0  0  0  0
   57.5040   33.3470   45.1780 C   0  0  0  0  0  0  0  0  0  0  0  0
   58.2040   33.7970   46.4580 C   0  0  0  0  0  0  0  0  0  0  0  0
   58.7900   32.6590   47.1650 N   0  0  0  0  0  0  0  0  0  0  0  0
   59.7120   32.8650   48.2440 C   0  0  0  0  0  0  0  0  0  0  0  0
   59.2800   32.7010   49.5710 C   0  0  0  0  0  0  0  0  0  0  0  0
   60.1680   33.0020   50.6260 C   0  0  0  0  0  0  0  0  0  0  0  0
   61.5160   33.1430   50.3530 N   0  0  0  0  0  0  0  0  0  0  0  0
   62.5270   32.8470   51.3890 C   0  0  0  0  0  0  0  0  0  0  0  0
   61.9380   33.4020   49.0650 C   0  0  0  0  0  0  0  0  0  0  0  0
   63.2680   33.8020   48.7850 C   0  0  0  0  0  0  0  0  0  0  0  0
   63.6910   34.0160   47.4730 C   0  0  0  0  0  0  0  0  0  0  0  0
   62.8080   33.8350   46.4150 C   0  0  0  0  0  0  0  0  0  0  0  0
   61.4900   33.4520   46.6620 C   0  0  0  0  0  0  0  0  0  0  0  0
   61.0360   33.2550   47.9820 C   0  0  0  0  0  0  0  0  0  0  0  0
   59.6220   33.0750   52.0170 C   0  0  0  0  0  0  0  0  0  0  0  0
   60.2310   33.8390   53.0310 C   0  0  0  0  0  0  0  0  0  0  0  0
   59.8280   33.6970   54.3630 C   0  0  0  0  0  0  0  0  0  0  0  0
   58.8120   32.7970   54.6930 C   0  0  0  0  0  0  0  0  0  0  0  0
   58.1130   32.1300   53.6790 C   0  0  0  0  0  0  0  0  0  0  0  0
   58.4550   32.3690   52.3390 C   0  0  0  0  0  0  0  0  0  0  0  0
   57.4730   31.9390   51.2930 C   0  0  1  0  0  0  0  0  0  0  0  0
   57.8660   32.2100   49.8180 C   0  0  0  0  0  0  0  0  0  0  0  0
   57.0280   30.5490   51.5390 N   0  0  0  0  0  0  0  0  0  0  0  0
   58.1280   29.5640   51.4770 C   0  0  0  0  0  0  0  0  0  0  0  0
   56.3120   30.4810   52.8350 C   0  0  0  0  0  0  0  0  0  0  0  0
   57.1220   31.0420   54.0360 C   0  0  0  0  0  0  0  0  0  0  0  0
   58.9635   28.8499   48.9531 H   0  0  0  0  0  0  0  0  0  0  0  0
   60.4267   28.2679   48.0887 H   0  0  0  0  0  0  0  0  0  0  0  0
   60.0200   30.0176   48.0887 H   0  0  0  0  0  0  0  0  0  0  0  0
   59.3808   28.2664   46.0576 H   0  0  0  0  0  0  0  0  0  0  0  0
   57.8752   28.2309   47.0504 H   0  0  0  0  0  0  0  0  0  0  0  0
   57.4120   30.3180   46.5980 H   0  0  0  0  0  0  0  0  0  0  0  0
   59.3334   30.1821   44.3736 H   0  0  0  0  0  0  0  0  0  0  0  0
   57.8894   29.1112   44.4610 H   0  0  0  0  0  0  0  0  0  0  0  0
   58.0118   31.8169   43.5495 H   0  0  0  0  0  0  0  0  0  0  0  0
   56.5518   30.7869   43.7740 H   0  0  0  0  0  0  0  0  0  0  0  0
   58.2167   33.3752   44.3406 H   0  0  0  0  0  0  0  0  0  0  0  0
   56.6612   34.0207   44.9640 H   0  0  0  0  0  0  0  0  0  0  0  0
   59.0016   34.5092   46.2000 H   0  0  0  0  0  0  0  0  0  0  0  0
   57.4601   34.2713   47.1150 H   0  0  0  0  0  0  0  0  0  0  0  0
   58.4920   31.6810   46.9470 H   0  0  0  0  0  0  0  0  0  0  0  0
   62.0800   32.9779   52.3855 H   0  0  0  0  0  0  0  0  0  0  0  0
   62.8745   31.8094   51.2764 H   0  0  0  0  0  0  0  0  0  0  0  0
   63.3792   33.5333   51.2764 H   0  0  0  0  0  0  0  0  0  0  0  0
   63.9769   33.9458   49.6137 H   0  0  0  0  0  0  0  0  0  0  0  0
   64.7268   34.3290   47.2751 H   0  0  0  0  0  0  0  0  0  0  0  0
   63.1492   33.9941   45.3814 H   0  0  0  0  0  0  0  0  0  0  0  0
   60.7987   33.3023   45.8196 H   0  0  0  0  0  0  0  0  0  0  0  0
   61.0285   34.5518   52.7741 H   0  0  0  0  0  0  0  0  0  0  0  0
   60.3111   34.2940   55.1505 H   0  0  0  0  0  0  0  0  0  0  0  0
   58.5612   32.6123   55.7480 H   0  0  0  0  0  0  0  0  0  0  0  0
   56.6129   32.6136   51.4157 H   0  0  0  0  0  0  0  0  0  0  0  0
   57.7367   31.2708   49.2602 H   0  0  0  0  0  0  0  0  0  0  0  0
   57.2123   33.0316   49.4899 H   0  0  0  0  0  0  0  0  0  0  0  0
   58.4333   29.2906   52.4978 H   0  0  0  0  0  0  0  0  0  0  0  0
   57.7856   28.6650   50.9435 H   0  0  0  0  0  0  0  0  0  0  0  0
   58.9839   30.0032   50.9435 H   0  0  0  0  0  0  0  0  0  0  0  0
   55.3805   31.0593   52.7460 H   0  0  0  0  0  0  0  0  0  0  0  0
   56.1320   29.4160   53.0430 H   0  0  0  0  0  0  0  0  0  0  0  0
   56.4102   31.4534   54.7668 H   0  0  0  0  0  0  0  0  0  0  0  0
   57.7123   30.2023   54.4315 H   0  0  0  0  0  0  0  0  0  0  0  0
  1  2  1  0
  2  3  1  0
  3  4  1  0
  4  5  1  0
  5  6  1  0
  6  7  1  0
  7  8  1  0
  8  9  1  0
  9 10  1  0
 10 11  2  0
 11 12  1  0
 12 13  2  0
 13 14  1  0
 13 15  1  0
 15 16  2  0
 16 17  1  0
 17 18  2  0
 18 19  1  0
 19 20  2  0
 12 21  1  0
 21 22  2  0
 22 23  1  0
 23 24  2  0
 24 25  1  0
 25 26  2  0
 26 27  1  0
 27 28  1  0
 27 29  1  0
 29 30  1  0
 29 31  1  0
 31 32  1  0
 20 10  1  0
 26 21  1  0
 28 11  1  0
 20 15  1  0
 32 25  1  0
  1 33  1  0
  1 34  1  0
  1 35  1  0
  2 36  1  0
  2 37  1  0
  3 38  1  0
  4 39  1  0
  4 40  1  0
  5 41  1  0
  5 42  1  0
  7 43  1  0
  7 44  1  0
  8 45  1  0
  8 46  1  0
  9 47  1  0
 14 48  1  0
 14 49  1  0
 14 50  1  0
 16 51  1  0
 17 52  1  0
 18 53  1  0
 19 54  1  0
 22 55  1  0
 23 56  1  0
 24 57  1  0
 27 58  1  1
 28 59  1  0
 28 60  1  0
 30 61  1  0
 30 62  1  0
 30 63  1  0
 31 64  1  0
 31 65  1  0
 32 66  1  0
 32 67  1  0
M  CHG  1  13   1
M  END
>  <UniqueID>  (8) 
8

>  <SMILES>  (8) 
CCNCCOCCNc1c2c([n+](C)c3ccccc13)-c1cccc3c1[C@@H](C2)N(C)CC3

>  <Energy>  (8) 
118.94641205819407

>  <Genealogy>  (8) 
CCNCCOCCNc1c2c([n+](C)c3ccccc13)-c1cccc3c1[C@@H](C2)N(C)CC3 (chirality)
CCNCCOCCNc1c2c([n+](C)c3ccccc13)-c1cccc3c1[C@@H](C2)N(C)CC3 (3D coordinates assigned)
CCNCCOCCNc1c2c([n+](C)c3ccccc13)-c1cccc3c1[C@@H](C2)N(C)CC3 (nonaromatic ring conformer: 118.94641205819407 kcal/mol)

>  <smiles>  (8) 
CCNCCOCCNc1c2c([n+](C)c3ccccc13)-c1cccc3c1C(C2)N(C)CC3

>  <score_type>  (8) 
oracle

>  <origin>  (8) 
adg

>  <m_score__min__energy>  (8) 
-7.25

>  <m_primary>  (8) 
energy

$$$$
8:0
     RDKit          3D

 53 57  0  0  0  0  0  0  0  0999 V2000
   57.1340   20.3530   45.7520 C   0  0  0  0  0  0  0  0  0  0  0  0
   56.3020   20.2680   44.4770 C   0  0  0  0  0  0  0  0  0  0  0  0
   55.5920   21.4870   44.2530 O   0  0  0  0  0  0  0  0  0  0  0  0
   56.1300   22.7800   44.3680 C   0  0  0  0  0  0  0  0  0  0  0  0
   56.8610   23.3980   43.3360 C   0  0  0  0  0  0  0  0  0  0  0  0
   57.3740   24.6870   43.5080 C   0  0  0  0  0  0  0  0  0  0  0  0
   57.1710   25.3820   44.7110 C   0  0  0  0  0  0  0  0  0  0  0  0
   57.7160   26.7520   44.8880 C   0  0  0  0  0  0  0  0  0  0  0  0
   58.5690   27.0420   45.9660 C   0  0  0  0  0  0  0  0  0  0  0  0
   59.0810   28.3340   46.1140 C   0  0  0  0  0  0  0  0  0  0  0  0
   58.7160   29.3390   45.1940 C   0  0  0  0  0  0  0  0  0  0  0  0
   57.8750   29.0080   44.1290 C   0  0  0  0  0  0  0  0  0  0  0  0
   57.3970   27.7410   43.9980 N   0  0  0  0  0  0  0  0  0  0  0  0
   59.2740   30.7430   45.3440 C   0  0  0  0  0  0  0  0  0  0  0  0
   59.8760   30.9580   46.7550 C   0  0  2  0  0  0  0  0  0  0  0  0
   60.7360   29.7570   47.0660 C   0  0  0  0  0  0  0  0  0  0  0  0
   59.9650   28.6850   47.2580 C   0  0  0  0  0  0  0  0  0  0  0  0
   59.2770   28.7300   48.6030 C   0  0  0  0  0  0  0  0  0  0  0  0
   58.8870   30.1980   48.9630 C   0  0  0  0  0  0  0  0  0  0  0  0
   58.7570   31.0590   47.7490 N   0  0  0  0  0  0  0  0  0  0  0  0
   58.3660   32.4490   48.0620 C   0  0  0  0  0  0  0  0  0  0  0  0
   58.3390   33.3420   46.8530 C   0  0  0  0  0  0  0  0  0  0  0  0
   59.2910   34.2890   46.5260 C   0  0  0  0  0  0  0  0  0  0  0  0
   58.8640   34.8530   45.3450 C   0  0  0  0  0  0  0  0  0  0  0  0
   57.6810   34.2200   45.0240 C   0  0  0  0  0  0  0  0  0  0  0  0
   57.3940   33.3260   45.9410 O   0  0  0  0  0  0  0  0  0  0  0  0
   56.4450   24.7600   45.7410 C   0  0  0  0  0  0  0  0  0  0  0  0
   55.9310   23.4720   45.5690 C   0  0  0  0  0  0  0  0  0  0  0  0
   56.4714   20.2853   46.6274 H   0  0  0  0  0  0  0  0  0  0  0  0
   57.8567   19.5240   45.7742 H   0  0  0  0  0  0  0  0  0  0  0  0
   57.6741   21.3110   45.7742 H   0  0  0  0  0  0  0  0  0  0  0  0
   56.9688   20.0768   43.6233 H   0  0  0  0  0  0  0  0  0  0  0  0
   55.5740   19.4504   44.5846 H   0  0  0  0  0  0  0  0  0  0  0  0
   57.0295   22.8639   42.3892 H   0  0  0  0  0  0  0  0  0  0  0  0
   57.9417   25.1610   42.6937 H   0  0  0  0  0  0  0  0  0  0  0  0
   58.8324   26.2565   46.6896 H   0  0  0  0  0  0  0  0  0  0  0  0
   57.5976   29.7761   43.3921 H   0  0  0  0  0  0  0  0  0  0  0  0
   56.7500   27.5410   43.2020 H   0  0  0  0  0  0  0  0  0  0  0  0
   60.0602   30.8991   44.5907 H   0  0  0  0  0  0  0  0  0  0  0  0
   58.4532   31.4614   45.2020 H   0  0  0  0  0  0  0  0  0  0  0  0
   60.4759   31.8789   46.7999 H   0  0  0  0  0  0  0  0  0  0  0  0
   61.8344   29.7645   47.1255 H   0  0  0  0  0  0  0  0  0  0  0  0
   58.3680   28.1116   48.5665 H   0  0  0  0  0  0  0  0  0  0  0  0
   59.9647   28.3441   49.3699 H   0  0  0  0  0  0  0  0  0  0  0  0
   57.9248   30.1888   49.4960 H   0  0  0  0  0  0  0  0  0  0  0  0
   59.6872   30.6167   49.5910 H   0  0  0  0  0  0  0  0  0  0  0  0
   57.3618   32.4373   48.5107 H   0  0  0  0  0  0  0  0  0  0  0  0
   59.1213   32.8542   48.7514 H   0  0  0  0  0  0  0  0  0  0  0  0
   60.2005   34.5398   47.0916 H   0  0  0  0  0  0  0  0  0  0  0  0
   59.3649   35.6478   44.7729 H   0  0  0  0  0  0  0  0  0  0  0  0
   57.0705   34.4325   44.1340 H   0  0  0  0  0  0  0  0  0  0  0  0
   56.2800   25.2912   46.6900 H   0  0  0  0  0  0  0  0  0  0  0  0
   55.3651   22.9975   46.3842 H   0  0  0  0  0  0  0  0  0  0  0  0
  1  2  1  0
  2  3  1  0
  3  4  1  0
  4  5  2  0
  5  6  1  0
  6  7  2  0
  7  8  1  0
  8  9  2  0
  9 10  1  0
 10 11  2  0
 11 12  1  0
 12 13  2  0
 11 14  1  0
 14 15  1  0
 15 16  1  0
 16 17  2  0
 17 18  1  0
 18 19  1  0
 19 20  1  0
 20 21  1  0
 21 22  1  0
 22 23  2  0
 23 24  1  0
 24 25  2  0
 25 26  1  0
  7 27  1  0
 27 28  2  0
 28  4  1  0
 13  8  1  0
 20 15  1  0
 26 22  1  0
 17 10  1  0
  1 29  1  0
  1 30  1  0
  1 31  1  0
  2 32  1  0
  2 33  1  0
  5 34  1  0
  6 35  1  0
  9 36  1  0
 12 37  1  0
 13 38  1  0
 14 39  1  0
 14 40  1  0
 15 41  1  6
 16 42  1  0
 18 43  1  0
 18 44  1  0
 19 45  1  0
 19 46  1  0
 21 47  1  0
 21 48  1  0
 23 49  1  0
 24 50  1  0
 25 51  1  0
 27 52  1  0
 28 53  1  0
M  CHG  1  13   1
M  END
>  <UniqueID>  (9) 
9

>  <SMILES>  (9) 
CCOc1ccc(-c2cc3c(c[nH+]2)C[C@@H]2C=C3CCN2Cc2ccco2)cc1

>  <Energy>  (9) 
145.7903484246395

>  <Genealogy>  (9) 
CCOc1ccc(-c2cc3c(c[nH+]2)CC2C=C3CCN2Cc2ccco2)cc1 (protonated)
CCOc1ccc(-c2cc3c(c[nH+]2)C[C@@H]2C=C3CCN2Cc2ccco2)cc1 (chirality)
CCOc1ccc(-c2cc3c(c[nH+]2)C[C@@H]2C=C3CCN2Cc2ccco2)cc1 (3D coordinates assigned)
CCOc1ccc(-c2cc3c(c[nH+]2)C[C@@H]2C=C3CCN2Cc2ccco2)cc1 (nonaromatic ring conformer: 145.7903484246395 kcal/mol)

>  <smiles>  (9) 
CCOc1ccc(-c2cc3c(cn2)CC2C=C3CCN2Cc2ccco2)cc1

>  <score_type>  (9) 
oracle

>  <origin>  (9) 
adg

>  <m_score__min__energy>  (9) 
-7.8600000000000003

>  <m_primary>  (9) 
energy

$$$$
9:0
     RDKit          3D

 54 56  0  0  0  0  0  0  0  0999 V2000
   58.3889   33.4236   50.0112 H   0  0  0  0  0  0  0  0  0  0  0  0
   58.9100   32.6970   50.6520 C   0  0  0  0  0  0  0  0  0  0  0  0
   60.1700   32.8460   50.8990 N   0  0  0  0  0  0  0  0  0  0  0  0
   61.1110   32.1220   50.2020 O   0  0  0  0  0  0  0  0  0  0  0  0
   62.4450   32.5910   50.1030 C   0  0  0  0  0  0  0  0  0  0  0  0
   63.1018   31.9561   50.7159 H   0  0  0  0  0  0  0  0  0  0  0  0
   62.4927   33.6294   50.4627 H   0  0  0  0  0  0  0  0  0  0  0  0
   62.9020   32.5400   48.6550 C   0  0  0  0  0  0  0  0  0  0  0  0
   63.9946   32.4181   48.6194 H   0  0  0  0  0  0  0  0  0  0  0  0
   62.4215   31.6899   48.1486 H   0  0  0  0  0  0  0  0  0  0  0  0
   62.6207   33.4751   48.1486 H   0  0  0  0  0  0  0  0  0  0  0  0
   58.1550   31.5410   51.2330 C   0  0  0  0  0  0  0  0  0  0  0  0
   58.4271   31.4362   52.2937 H   0  0  0  0  0  0  0  0  0  0  0  0
   57.0802   31.7440   51.1160 H   0  0  0  0  0  0  0  0  0  0  0  0
   58.4710   30.2230   50.5070 C   0  0  0  0  0  0  0  0  0  0  0  0
   57.8263   29.4289   50.9117 H   0  0  0  0  0  0  0  0  0  0  0  0
   58.2864   30.3690   49.4325 H   0  0  0  0  0  0  0  0  0  0  0  0
   59.8820   29.8310   50.6840 N   0  0  0  0  0  0  0  0  0  0  0  0
   60.4710   30.6960   50.6970 H   0  0  0  0  0  0  0  0  0  0  0  0
   60.0040   29.3480   51.6020 H   0  0  0  0  0  0  0  0  0  0  0  0
   60.3650   28.9810   49.5780 C   0  0  0  0  0  0  0  0  0  0  0  0
   61.2260   28.3975   49.9360 H   0  0  0  0  0  0  0  0  0  0  0  0
   59.5276   28.3369   49.2714 H   0  0  0  0  0  0  0  0  0  0  0  0
   60.8000   29.7850   48.3400 C   0  0  0  0  0  0  0  0  0  0  0  0
   61.8594   30.0610   48.4476 H   0  0  0  0  0  0  0  0  0  0  0  0
   60.6464   29.1568   47.4502 H   0  0  0  0  0  0  0  0  0  0  0  0
   60.0050   31.0040   48.1830 N   0  0  0  0  0  0  0  0  0  0  0  0
   59.7330   31.5440   49.0350 H   0  0  0  0  0  0  0  0  0  0  0  0
   59.3850   31.3430   46.9300 C   0  0  0  0  0  0  0  0  0  0  0  0
   59.4310   32.6650   46.4530 C   0  0  0  0  0  0  0  0  0  0  0  0
   60.0910   33.6760   47.1860 C   0  0  0  0  0  0  0  0  0  0  0  0
   60.6242   33.4153   48.1121 H   0  0  0  0  0  0  0  0  0  0  0  0
   60.0750   34.9980   46.7510 C   0  0  0  0  0  0  0  0  0  0  0  0
   60.6036   35.7724   47.3262 H   0  0  0  0  0  0  0  0  0  0  0  0
   59.3920   35.3400   45.5910 C   0  0  0  0  0  0  0  0  0  0  0  0
   59.3600   36.3895   45.2630 H   0  0  0  0  0  0  0  0  0  0  0  0
   58.7470   34.3580   44.8410 C   0  0  0  0  0  0  0  0  0  0  0  0
   58.1992   34.6452   43.9313 H   0  0  0  0  0  0  0  0  0  0  0  0
   58.7850   32.9940   45.2310 C   0  0  0  0  0  0  0  0  0  0  0  0
   58.2000   32.0020   44.4650 N   0  0  0  0  0  0  0  0  0  0  0  0
   57.7800   32.2920   43.0750 C   0  0  0  0  0  0  0  0  0  0  0  0
   56.8749   32.9170   43.0883 H   0  0  0  0  0  0  0  0  0  0  0  0
   58.5869   32.8263   42.5521 H   0  0  0  0  0  0  0  0  0  0  0  0
   57.5662   31.3482   42.5521 H   0  0  0  0  0  0  0  0  0  0  0  0
   58.0450   30.7290   44.9810 C   0  0  0  0  0  0  0  0  0  0  0  0
   57.2490   29.7520   44.3300 C   0  0  0  0  0  0  0  0  0  0  0  0
   56.6841   30.0290   43.4277 H   0  0  0  0  0  0  0  0  0  0  0  0
   57.1700   28.4460   44.8140 C   0  0  0  0  0  0  0  0  0  0  0  0
   56.5481   27.7043   44.2914 H   0  0  0  0  0  0  0  0  0  0  0  0
   57.8750   28.0790   45.9550 C   0  0  0  0  0  0  0  0  0  0  0  0
   57.7880   26.2810   46.5930 Br  0  0  0  0  0  0  0  0  0  0  0  0
   58.6270   29.0290   46.6430 C   0  0  0  0  0  0  0  0  0  0  0  0
   59.1816   28.7329   47.5456 H   0  0  0  0  0  0  0  0  0  0  0  0
   58.6860   30.3670   46.1960 C   0  0  0  0  0  0  0  0  0  0  0  0
  1  2  1  0
  2  3  2  0
  3  4  1  0
  4  5  1  0
  5  6  1  0
  5  7  1  0
  5  8  1  0
  8  9  1  0
  8 10  1  0
  8 11  1  0
  2 12  1  0
 12 13  1  0
 12 14  1  0
 12 15  1  0
 15 16  1  0
 15 17  1  0
 15 18  1  0
 18 19  1  0
 18 20  1  0
 18 21  1  0
 21 22  1  0
 21 23  1  0
 21 24  1  0
 24 25  1  0
 24 26  1  0
 24 27  1  0
 27 28  1  0
 27 29  1  0
 29 30  2  0
 30 31  1  0
 31 32  1  0
 31 33  2  0
 33 34  1  0
 33 35  1  0
 35 36  1  0
 35 37  2  0
 37 38  1  0
 37 39  1  0
 39 40  2  0
 40 41  1  0
 41 42  1  0
 41 43  1  0
 41 44  1  0
 40 45  1  0
 45 46  2  0
 46 47  1  0
 46 48  1  0
 48 49  1  0
 48 50  2  0
 50 51  1  0
 50 52  1  0
 52 53  1  0
 52 54  2  0
 54 29  1  0
 39 30  1  0
 54 45  1  0
M  CHG  2  18   1  40   1
M  END
>  <UniqueID>  (10) 
10

>  <SMILES>  (10) 
CCO/N=C/CC[NH2+]CCNc1c2ccccc2[n+](C)c2ccc(Br)cc12

>  <Energy>  (10) 
70.0670519680555

>  <Genealogy>  (10) 
CCON=CCC[NH2+]CCNc1c2ccccc2[n+](C)c2ccc(Br)cc12 (protonated)
CCO/N=C/CC[NH2+]CCNc1c2ccccc2[n+](C)c2ccc(Br)cc12 (cis-trans isomerization)
CCO/N=C/CC[NH2+]CCNc1c2ccccc2[n+](C)c2ccc(Br)cc12 (3D coordinates assigned)
CCO/N=C/CC[NH2+]CCNc1c2ccccc2[n+](C)c2ccc(Br)cc12 (optimized conformer: 70.0670519680555 kcal/mol)

>  <smiles>  (10) 
CCON=CCCNCCNc1c2ccccc2[n+](C)c2ccc(Br)cc12

>  <score_type>  (10) 
oracle

>  <origin>  (10) 
adg

>  <m_score__min__energy>  (10) 
-3.9900000000000002

>  <m_primary>  (10) 
energy

$$$$
10:0
     RDKit          3D

 37 37  0  0  0  0  0  0  0  0999 V2000
   63.2420   33.2460   47.0780 C   0  0  0  0  0  0  0  0  0  0  0  0
   62.0230   32.5350   47.5710 C   0  0  0  0  0  0  0  0  0  0  0  0
   60.8030   33.2690   47.4400 N   0  0  0  0  0  0  0  0  0  0  0  0
   60.3240   33.7190   48.6930 C   0  0  0  0  0  0  0  0  0  0  0  0
   60.7670   34.2070   46.3590 C   0  0  0  0  0  0  0  0  0  0  0  0
   59.5800   35.0860   46.3160 C   0  0  0  0  0  0  0  0  0  0  0  0
   58.3250   34.2780   46.0730 C   0  0  0  0  0  0  0  0  0  0  0  0
   58.5260   32.8810   45.9080 N   0  0  0  0  0  0  0  0  0  0  0  0
   57.9450   32.2200   44.7840 C   0  0  0  0  0  0  0  0  0  0  0  0
   58.1320   32.6110   43.5110 N   0  0  0  0  0  0  0  0  0  0  0  0
   57.5500   31.9440   42.4790 C   0  0  0  0  0  0  0  0  0  0  0  0
   57.7390   32.3350   41.0630 C   0  0  0  0  0  0  0  0  0  0  0  0
   56.7520   30.8460   42.7710 C   0  0  0  0  0  0  0  0  0  0  0  0
   56.5620   30.4470   44.0980 C   0  0  0  0  0  0  0  0  0  0  0  0
   55.8260   29.4430   44.4060 N   0  0  0  0  0  0  0  0  0  0  0  0
   57.1630   31.1400   45.0910 N   0  0  0  0  0  0  0  0  0  0  0  0
   63.8365   33.5927   47.9361 H   0  0  0  0  0  0  0  0  0  0  0  0
   63.8458   32.5584   46.4675 H   0  0  0  0  0  0  0  0  0  0  0  0
   62.9408   34.1101   46.4675 H   0  0  0  0  0  0  0  0  0  0  0  0
   61.9208   31.5984   47.0033 H   0  0  0  0  0  0  0  0  0  0  0  0
   62.1733   32.3768   48.6491 H   0  0  0  0  0  0  0  0  0  0  0  0
   60.8692   33.2068   49.4994 H   0  0  0  0  0  0  0  0  0  0  0  0
   60.4801   34.8046   48.7768 H   0  0  0  0  0  0  0  0  0  0  0  0
   59.2502   33.4954   48.7768 H   0  0  0  0  0  0  0  0  0  0  0  0
   61.6589   34.8462   46.4357 H   0  0  0  0  0  0  0  0  0  0  0  0
   60.7292   33.6049   45.4392 H   0  0  0  0  0  0  0  0  0  0  0  0
   59.4881   35.6159   47.2756 H   0  0  0  0  0  0  0  0  0  0  0  0
   59.7023   35.8054   45.4929 H   0  0  0  0  0  0  0  0  0  0  0  0
   57.6537   34.4259   46.9318 H   0  0  0  0  0  0  0  0  0  0  0  0
   57.9087   34.6404   45.1215 H   0  0  0  0  0  0  0  0  0  0  0  0
   59.0870   32.2610   46.5580 H   0  0  0  0  0  0  0  0  0  0  0  0
   58.2173   33.3245   41.0165 H   0  0  0  0  0  0  0  0  0  0  0  0
   58.3787   31.5946   40.5604 H   0  0  0  0  0  0  0  0  0  0  0  0
   56.7614   32.3763   40.5604 H   0  0  0  0  0  0  0  0  0  0  0  0
   56.2676   30.2881   41.9561 H   0  0  0  0  0  0  0  0  0  0  0  0
   56.0050   28.5340   43.9490 H   0  0  0  0  0  0  0  0  0  0  0  0
   57.0180   30.8380   46.0850 H   0  0  0  0  0  0  0  0  0  0  0  0
  1  2  1  0
  2  3  1  0
  3  4  1  0
  3  5  1  0
  5  6  1  0
  6  7  1  0
  7  8  1  0
  8  9  1  0
  9 10  2  0
 10 11  1  0
 11 12  1  0
 11 13  2  0
 13 14  1  0
 14 15  2  3
 14 16  1  0
 16  9  1  0
  1 17  1  0
  1 18  1  0
  1 19  1  0
  2 20  1  0
  2 21  1  0
  4 22  1  0
  4 23  1  0
  4 24  1  0
  5 25  1  0
  5 26  1  0
  6 27  1  0
  6 28  1  0
  7 29  1  0
  7 30  1  0
  8 31  1  0
 12 32  1  0
 12 33  1  0
 12 34  1  0
 13 35  1  0
 15 36  1  0
 16 37  1  0
M  END
>  <smiles>  (11) 
CCN(C)CCCNc1nc(C)cc(=N)[nH]1

>  <score_type>  (11) 
oracle

>  <origin>  (11) 
adg

>  <m_score__min__energy>  (11) 
-5.9100000000000001

>  <m_primary>  (11) 
energy

$$$$
11:0
     RDKit          3D

 45 45  0  0  0  0  0  0  0  0999 V2000
   61.4160   33.8360   46.4270 C   0  0  0  0  0  0  0  0  0  0  0  0
   59.9710   34.3520   46.3220 C   0  0  0  0  0  0  0  0  0  0  0  0
   58.9400   33.4240   46.8580 N   0  0  0  0  0  0  0  0  0  0  0  0
   58.9850   33.2340   48.3250 C   0  0  0  0  0  0  0  0  0  0  0  0
   59.6750   34.4060   49.0230 C   0  0  0  0  0  0  0  0  0  0  0  0
   57.5780   33.7440   46.3710 C   0  0  0  0  0  0  0  0  0  0  0  0
   57.3850   33.2240   44.9330 C   0  0  0  0  0  0  0  0  0  0  0  0
   56.7790   31.9430   44.8770 O   0  0  0  0  0  0  0  0  0  0  0  0
   57.0040   31.2810   43.6430 C   0  0  0  0  0  0  0  0  0  0  0  0
   56.0570   30.0880   43.4160 C   0  0  0  0  0  0  0  0  0  0  0  0
   55.6480   29.5080   44.6360 O   0  0  0  0  0  0  0  0  0  0  0  0
   56.5930   28.5940   44.9920 N   0  0  0  0  0  0  0  0  0  0  0  0
   57.6770   28.9380   45.8640 C   0  0  0  0  0  0  0  0  0  0  0  0
   57.7670   30.0750   46.4610 N   0  0  0  0  0  0  0  0  0  0  0  0
   58.9520   30.1070   47.3100 C   0  0  0  0  0  0  0  0  0  0  0  0
   59.6130   28.7300   47.1170 C   0  0  0  0  0  0  0  0  0  0  0  0
   58.7350   28.0510   46.1790 N   0  0  0  0  0  0  0  0  0  0  0  0
   58.9560   26.7260   45.6140 C   0  0  0  0  0  0  0  0  0  0  0  0
   61.6938   33.7368   47.4867 H   0  0  0  0  0  0  0  0  0  0  0  0
   61.4918   32.8552   45.9347 H   0  0  0  0  0  0  0  0  0  0  0  0
   62.0959   34.5469   45.9347 H   0  0  0  0  0  0  0  0  0  0  0  0
   59.9035   35.2981   46.8792 H   0  0  0  0  0  0  0  0  0  0  0  0
   59.7588   34.4662   45.2487 H   0  0  0  0  0  0  0  0  0  0  0  0
   57.9566   33.1472   48.7055 H   0  0  0  0  0  0  0  0  0  0  0  0
   59.5603   32.3205   48.5363 H   0  0  0  0  0  0  0  0  0  0  0  0
   59.6003   34.2790   50.1131 H   0  0  0  0  0  0  0  0  0  0  0  0
   60.7346   34.4355   48.7291 H   0  0  0  0  0  0  0  0  0  0  0  0
   59.1867   35.3468   48.7291 H   0  0  0  0  0  0  0  0  0  0  0  0
   56.8365   33.2694   47.0305 H   0  0  0  0  0  0  0  0  0  0  0  0
   57.4448   34.8359   46.3762 H   0  0  0  0  0  0  0  0  0  0  0  0
   56.7485   33.9357   44.3867 H   0  0  0  0  0  0  0  0  0  0  0  0
   58.3843   33.1320   44.4826 H   0  0  0  0  0  0  0  0  0  0  0  0
   56.8587   32.0036   42.8265 H   0  0  0  0  0  0  0  0  0  0  0  0
   58.0302   30.8856   43.6653 H   0  0  0  0  0  0  0  0  0  0  0  0
   55.1675   30.4373   42.8712 H   0  0  0  0  0  0  0  0  0  0  0  0
   56.5985   29.3250   42.8375 H   0  0  0  0  0  0  0  0  0  0  0  0
   56.5730   27.6500   44.5440 H   0  0  0  0  0  0  0  0  0  0  0  0
   57.0850   30.8600   46.3640 H   0  0  0  0  0  0  0  0  0  0  0  0
   59.6330   30.9111   46.9943 H   0  0  0  0  0  0  0  0  0  0  0  0
   58.7024   30.3032   48.3632 H   0  0  0  0  0  0  0  0  0  0  0  0
   60.6251   28.8365   46.6994 H   0  0  0  0  0  0  0  0  0  0  0  0
   59.7322   28.1797   48.0620 H   0  0  0  0  0  0  0  0  0  0  0  0
   59.0778   25.9960   46.4278 H   0  0  0  0  0  0  0  0  0  0  0  0
   58.0926   26.4432   44.9939 H   0  0  0  0  0  0  0  0  0  0  0  0
   59.8644   26.7387   44.9939 H   0  0  0  0  0  0  0  0  0  0  0  0
  1  2  1  0
  2  3  1  0
  3  4  1  0
  4  5  1  0
  3  6  1  0
  6  7  1  0
  7  8  1  0
  8  9  1  0
  9 10  1  0
 10 11  1  0
 11 12  1  0
 12 13  1  0
 13 14  2  0
 14 15  1  0
 15 16  1  0
 16 17  1  0
 17 18  1  0
 17 13  1  0
  1 19  1  0
  1 20  1  0
  1 21  1  0
  2 22  1  0
  2 23  1  0
  4 24  1  0
  4 25  1  0
  5 26  1  0
  5 27  1  0
  5 28  1  0
  6 29  1  0
  6 30  1  0
  7 31  1  0
  7 32  1  0
  9 33  1  0
  9 34  1  0
 10 35  1  0
 10 36  1  0
 12 37  1  0
 14 38  1  0
 15 39  1  0
 15 40  1  0
 16 41  1  0
 16 42  1  0
 18 43  1  0
 18 44  1  0
 18 45  1  0
M  CHG  1  14   1
M  END
>  <UniqueID>  (12) 
11

>  <SMILES>  (12) 
CCN(CC)CCOCCONC1=[NH+]CCN1C

>  <Energy>  (12) 
53.723022543319296

>  <Genealogy>  (12) 
CCN(CC)CCOCCONC1=[NH+]CCN1C (protonated)
CCN(CC)CCOCCONC1=[NH+]CCN1C (3D coordinates assigned)
CCN(CC)CCOCCONC1=[NH+]CCN1C (nonaromatic ring conformer: 53.723022543319296 kcal/mol)

>  <smiles>  (12) 
CCN(CC)CCOCCONC1=NCCN1C

>  <score_type>  (12) 
oracle

>  <origin>  (12) 
adg

>  <m_score__min__energy>  (12) 
-4

>  <m_primary>  (12) 
energy

$$$$
12:0
     RDKit          3D

 25 26  0  0  0  0  0  0  0  0999 V2000
   57.4520   31.5750   42.6910 C   0  0  0  0  0  0  0  0  0  0  0  0
   56.8920   30.5900   43.7110 C   0  0  0  0  0  0  0  0  0  0  0  0
   57.0220   31.1030   45.0360 O   0  0  0  0  0  0  0  0  0  0  0  0
   58.2280   31.4580   45.6660 C   0  0  0  0  0  0  0  0  0  0  0  0
   59.1530   30.4990   46.1220 C   0  0  0  0  0  0  0  0  0  0  0  0
   60.3390   30.8980   46.7430 C   0  0  0  0  0  0  0  0  0  0  0  0
   60.6310   32.2630   46.9240 C   0  0  0  0  0  0  0  0  0  0  0  0
   61.8880   32.7090   47.5840 C   0  0  0  0  0  0  0  0  0  0  0  0
   61.9360   33.4530   48.7740 C   0  0  0  0  0  0  0  0  0  0  0  0
   63.5620   33.6770   49.0800 S   0  0  0  0  0  0  0  0  0  0  0  0
   64.1420   32.8650   47.7630 N   0  0  0  0  0  0  0  0  0  0  0  0
   63.1170   32.4030   47.0580 N   0  0  0  0  0  0  0  0  0  0  0  0
   59.7000   33.2150   46.4750 C   0  0  0  0  0  0  0  0  0  0  0  0
   58.5120   32.8170   45.8520 C   0  0  0  0  0  0  0  0  0  0  0  0
   57.2830   34.1580   45.2530 Br  0  0  0  0  0  0  0  0  0  0  0  0
   57.9296   32.4151   43.2165 H   0  0  0  0  0  0  0  0  0  0  0  0
   58.1960   31.0664   42.0603 H   0  0  0  0  0  0  0  0  0  0  0  0
   56.6344   31.9542   42.0603 H   0  0  0  0  0  0  0  0  0  0  0  0
   55.8278   30.4138   43.4954 H   0  0  0  0  0  0  0  0  0  0  0  0
   57.4582   29.6496   43.6402 H   0  0  0  0  0  0  0  0  0  0  0  0
   58.9401   29.4281   45.9882 H   0  0  0  0  0  0  0  0  0  0  0  0
   61.0521   30.1376   47.0942 H   0  0  0  0  0  0  0  0  0  0  0  0
   61.0865   33.8107   49.3744 H   0  0  0  0  0  0  0  0  0  0  0  0
   65.1440   32.7240   47.5060 H   0  0  0  0  0  0  0  0  0  0  0  0
   59.9077   34.2861   46.6150 H   0  0  0  0  0  0  0  0  0  0  0  0
  1  2  1  0
  2  3  1  0
  3  4  1  0
  4  5  2  0
  5  6  1  0
  6  7  2  0
  7  8  1  0
  8  9  2  0
  9 10  1  0
 10 11  1  0
 11 12  2  0
  7 13  1  0
 13 14  2  0
 14 15  1  0
 14  4  1  0
 12  8  1  0
  1 16  1  0
  1 17  1  0
  1 18  1  0
  2 19  1  0
  2 20  1  0
  5 21  1  0
  6 22  1  0
  9 23  1  0
 11 24  1  0
 13 25  1  0
M  CHG  1  11   1
M  END
>  <UniqueID>  (13) 
12

>  <SMILES>  (13) 
CCOc1ccc(-c2cs[nH+]n2)cc1Br

>  <Energy>  (13) 
62.82250888424122

>  <Genealogy>  (13) 
CCOc1ccc(-c2cs[nH+]n2)cc1Br (protonated)
CCOc1ccc(-c2cs[nH+]n2)cc1Br (3D coordinates assigned)
CCOc1ccc(-c2cs[nH+]n2)cc1Br (optimized conformer: 62.82250888424122 kcal/mol)

>  <smiles>  (13) 
CCOc1ccc(-c2csnn2)cc1Br

>  <score_type>  (13) 
oracle

>  <origin>  (13) 
adg

>  <m_score__min__energy>  (13) 
-5.6900000000000004

>  <m_primary>  (13) 
energy

$$$$
13:0
     RDKit          3D

 66 68  0  0  0  0  0  0  0  0999 V2000
   59.3560   34.5930   48.2240 C   0  0  0  0  0  0  0  0  0  0  0  0
   58.4780   33.7090   47.3410 C   0  0  0  0  0  0  0  0  0  0  0  0
   59.1700   33.3820   46.0760 N   0  0  0  0  0  0  0  0  0  0  0  0
   60.3740   34.2070   45.8650 C   0  0  0  0  0  0  0  0  0  0  0  0
   58.2670   33.3720   44.9010 C   0  0  0  0  0  0  0  0  0  0  0  0
   57.0540   32.4220   45.0160 C   0  0  0  0  0  0  0  0  0  0  0  0
   57.4710   31.0600   45.3590 N   0  0  0  0  0  0  0  0  0  0  0  0
   56.6520   29.8880   44.3650 S   0  0  0  0  0  0  0  0  0  0  0  0
   55.1720   30.1000   44.5150 O   0  0  0  0  0  0  0  0  0  0  0  0
   57.0140   30.0670   42.9150 O   0  0  0  0  0  0  0  0  0  0  0  0
   57.0240   28.2090   44.8770 C   0  0  0  0  0  0  0  0  0  0  0  0
   58.3830   28.0820   45.5890 C   0  0  0  0  0  0  0  0  0  0  0  0
   59.5630   28.4130   44.6600 C   0  0  0  0  0  0  0  0  0  0  0  0
   60.6000   29.3370   45.3210 C   0  0  0  0  0  0  0  0  0  0  0  0
   60.4330   29.4550   46.8430 C   0  0  0  0  0  0  0  0  0  0  0  0
   59.9230   30.7700   47.2280 N   0  0  0  0  0  0  0  0  0  0  0  0
   60.4390   31.4330   48.3910 C   0  0  0  0  0  0  0  0  0  0  0  0
   61.6670   32.1100   48.3290 C   0  0  0  0  0  0  0  0  0  0  0  0
   62.4420   32.0890   47.1510 C   0  0  0  0  0  0  0  0  0  0  0  0
   63.6810   32.7230   47.1020 C   0  0  0  0  0  0  0  0  0  0  0  0
   64.1740   33.3720   48.2290 C   0  0  0  0  0  0  0  0  0  0  0  0
   63.4230   33.4090   49.4040 C   0  0  0  0  0  0  0  0  0  0  0  0
   62.1400   32.8060   49.4740 C   0  0  0  0  0  0  0  0  0  0  0  0
   61.3660   32.8670   50.6170 N   0  0  0  0  0  0  0  0  0  0  0  0
   61.7170   33.8130   51.7000 C   0  0  0  0  0  0  0  0  0  0  0  0
   60.2500   32.0580   50.7410 C   0  0  0  0  0  0  0  0  0  0  0  0
   59.5810   31.8880   51.9800 C   0  0  0  0  0  0  0  0  0  0  0  0
   58.4270   31.1100   52.0750 C   0  0  0  0  0  0  0  0  0  0  0  0
   57.9170   30.4740   50.9490 C   0  0  0  0  0  0  0  0  0  0  0  0
   58.5740   30.5880   49.7260 C   0  0  0  0  0  0  0  0  0  0  0  0
   59.7500   31.3580   49.6110 C   0  0  0  0  0  0  0  0  0  0  0  0
   59.1442   34.3798   49.2822 H   0  0  0  0  0  0  0  0  0  0  0  0
   60.4153   34.3851   48.0129 H   0  0  0  0  0  0  0  0  0  0  0  0
   59.1409   35.6509   48.0129 H   0  0  0  0  0  0  0  0  0  0  0  0
   58.2482   32.7770   47.8782 H   0  0  0  0  0  0  0  0  0  0  0  0
   57.5511   34.2530   47.1065 H   0  0  0  0  0  0  0  0  0  0  0  0
   60.7958   34.4960   46.8390 H   0  0  0  0  0  0  0  0  0  0  0  0
   61.1198   33.6293   45.2993 H   0  0  0  0  0  0  0  0  0  0  0  0
   60.1045   35.1111   45.2993 H   0  0  0  0  0  0  0  0  0  0  0  0
   57.8871   34.3938   44.7542 H   0  0  0  0  0  0  0  0  0  0  0  0
   58.8669   33.0027   44.0562 H   0  0  0  0  0  0  0  0  0  0  0  0
   56.3788   32.7972   45.7991 H   0  0  0  0  0  0  0  0  0  0  0  0
   56.5444   32.3925   44.0416 H   0  0  0  0  0  0  0  0  0  0  0  0
   58.4960   30.9570   45.1840 H   0  0  0  0  0  0  0  0  0  0  0  0
   56.2354   27.8698   45.5648 H   0  0  0  0  0  0  0  0  0  0  0  0
   57.0710   27.5916   43.9678 H   0  0  0  0  0  0  0  0  0  0  0  0
   58.4006   28.7746   46.4434 H   0  0  0  0  0  0  0  0  0  0  0  0
   58.4950   27.0376   45.9155 H   0  0  0  0  0  0  0  0  0  0  0  0
   60.0600   27.4741   44.3747 H   0  0  0  0  0  0  0  0  0  0  0  0
   59.1577   28.9420   43.7849 H   0  0  0  0  0  0  0  0  0  0  0  0
   61.6041   28.9402   45.1106 H   0  0  0  0  0  0  0  0  0  0  0  0
   60.4523   30.3426   44.9003 H   0  0  0  0  0  0  0  0  0  0  0  0
   59.7271   28.6840   47.1855 H   0  0  0  0  0  0  0  0  0  0  0  0
   61.4200   29.3188   47.3091 H   0  0  0  0  0  0  0  0  0  0  0  0
   59.2520   31.2880   46.6160 H   0  0  0  0  0  0  0  0  0  0  0  0
   62.0635   31.5658   46.2605 H   0  0  0  0  0  0  0  0  0  0  0  0
   64.2693   32.7105   46.1726 H   0  0  0  0  0  0  0  0  0  0  0  0
   65.1601   33.8581   48.1937 H   0  0  0  0  0  0  0  0  0  0  0  0
   63.8321   33.9141   50.2914 H   0  0  0  0  0  0  0  0  0  0  0  0
   61.5400   33.3359   52.6752 H   0  0  0  0  0  0  0  0  0  0  0  0
   62.7780   34.0906   51.6148 H   0  0  0  0  0  0  0  0  0  0  0  0
   61.0939   34.7155   51.6148 H   0  0  0  0  0  0  0  0  0  0  0  0
   59.9787   32.3778   52.8811 H   0  0  0  0  0  0  0  0  0  0  0  0
   57.9188   30.9994   53.0443 H   0  0  0  0  0  0  0  0  0  0  0  0
   56.9940   29.8803   51.0238 H   0  0  0  0  0  0  0  0  0  0  0  0
   58.1717   30.0725   48.8414 H   0  0  0  0  0  0  0  0  0  0  0  0
  1  2  1  0
  2  3  1  0
  3  4  1  0
  3  5  1  0
  5  6  1  0
  6  7  1  0
  7  8  1  0
  8  9  2  0
  8 10  2  0
  8 11  1  0
 11 12  1  0
 12 13  1  0
 13 14  1  0
 14 15  1  0
 15 16  1  0
 16 17  1  0
 17 18  2  0
 18 19  1  0
 19 20  2  0
 20 21  1  0
 21 22  2  0
 22 23  1  0
 23 24  2  0
 24 25  1  0
 24 26  1  0
 26 27  2  0
 27 28  1  0
 28 29  2  0
 29 30  1  0
 30 31  2  0
 31 17  1  0
 23 18  1  0
 31 26  1  0
  1 32  1  0
  1 33  1  0
  1 34  1  0
  2 35  1  0
  2 36  1  0
  4 37  1  0
  4 38  1  0
  4 39  1  0
  5 40  1  0
  5 41  1  0
  6 42  1  0
  6 43  1  0
  7 44  1  0
 11 45  1  0
 11 46  1  0
 12 47  1  0
 12 48  1  0
 13 49  1  0
 13 50  1  0
 14 51  1  0
 14 52  1  0
 15 53  1  0
 15 54  1  0
 16 55  1  0
 19 56  1  0
 20 57  1  0
 21 58  1  0
 22 59  1  0
 25 60  1  0
 25 61  1  0
 25 62  1  0
 27 63  1  0
 28 64  1  0
 29 65  1  0
 30 66  1  0
M  CHG  1  24   1
M  END
>  <UniqueID>  (14) 
13

>  <SMILES>  (14) 
CCN(C)CCNS(=O)(=O)CCCCCNc1c2ccccc2[n+](C)c2ccccc12

>  <Energy>  (14) 
83.57200167685293

>  <Genealogy>  (14) 
CCN(C)CCNS(=O)(=O)CCCCCNc1c2ccccc2[n+](C)c2ccccc12 (3D coordinates assigned)
CCN(C)CCNS(=O)(=O)CCCCCNc1c2ccccc2[n+](C)c2ccccc12 (optimized conformer: 83.57200167685293 kcal/mol)

>  <smiles>  (14) 
CCN(C)CCNS(=O)(=O)CCCCCNc1c2ccccc2[n+](C)c2ccccc12

>  <score_type>  (14) 
oracle

>  <origin>  (14) 
adg

>  <m_score__min__energy>  (14) 
-7.9100000000000001

>  <m_primary>  (14) 
energy

$$$$
14:0
     RDKit          3D

 64 67  0  0  0  0  0  0  0  0999 V2000
   56.2660   30.0300   43.1330 C   0  0  0  0  0  0  0  0  0  0  0  0
   57.3890   29.9640   44.1540 C   0  0  0  0  0  0  0  0  0  0  0  0
   57.1090   30.8700   45.2180 O   0  0  0  0  0  0  0  0  0  0  0  0
   57.7730   32.0870   45.4370 C   0  0  0  0  0  0  0  0  0  0  0  0
   57.5100   33.2200   44.6410 C   0  0  0  0  0  0  0  0  0  0  0  0
   58.1530   34.4320   44.8980 C   0  0  0  0  0  0  0  0  0  0  0  0
   59.0650   34.5300   45.9470 C   0  0  0  0  0  0  0  0  0  0  0  0
   59.3420   33.4150   46.7400 C   0  0  0  0  0  0  0  0  0  0  0  0
   58.7090   32.1820   46.4930 C   0  0  0  0  0  0  0  0  0  0  0  0
   59.0150   31.0420   47.3310 N   0  0  0  0  0  0  0  0  0  0  0  0
   59.5390   29.7940   46.7590 C   0  0  0  0  0  0  0  0  0  0  0  0
   60.4270   29.0800   47.7870 C   0  0  0  0  0  0  0  0  0  0  0  0
   59.7130   28.7790   49.0620 N   0  0  0  0  0  0  0  0  0  0  0  0
   60.6650   28.7000   50.2020 C   0  0  0  0  0  0  0  0  0  0  0  0
   61.5550   29.9660   50.3390 C   0  0  2  0  0  0  0  0  0  0  0  0
   62.8300   29.6470   50.8510 O   0  0  0  0  0  0  0  0  0  0  0  0
   60.8510   31.0440   51.1950 C   0  0  0  0  0  0  0  0  0  0  0  0
   61.3160   32.3620   50.8890 O   0  0  0  0  0  0  0  0  0  0  0  0
   62.2500   32.6970   49.8870 C   0  0  0  0  0  0  0  0  0  0  0  0
   61.8440   32.9980   48.5670 C   0  0  0  0  0  0  0  0  0  0  0  0
   62.7820   33.3240   47.5850 C   0  0  0  0  0  0  0  0  0  0  0  0
   64.1400   33.3530   47.8930 C   0  0  0  0  0  0  0  0  0  0  0  0
   64.5730   33.0570   49.1870 C   0  0  0  0  0  0  0  0  0  0  0  0
   65.8760   33.0890   49.4540 O   0  0  0  0  0  0  0  0  0  0  0  0
   66.3740   32.8150   50.6550 C   0  0  0  0  0  0  0  0  0  0  0  0
   67.8590   32.8890   50.8650 C   0  0  0  0  0  0  0  0  0  0  0  0
   68.4490   33.6680   49.8610 O   0  0  0  0  0  0  0  0  0  0  0  0
   65.5170   32.4910   51.7140 C   0  0  0  0  0  0  0  0  0  0  0  0
   64.1390   32.4440   51.4880 C   0  0  0  0  0  0  0  0  0  0  0  0
   63.3760   32.1440   52.4480 O   0  0  0  0  0  0  0  0  0  0  0  0
   63.6340   32.7290   50.2010 C   0  0  0  0  0  0  0  0  0  0  0  0
   58.6050   29.7300   49.3680 C   0  0  0  0  0  0  0  0  0  0  0  0
   58.8390   31.1300   48.7850 C   0  0  0  0  0  0  0  0  0  0  0  0
   55.2992   30.0868   43.6545 H   0  0  0  0  0  0  0  0  0  0  0  0
   56.3955   30.9221   42.5026 H   0  0  0  0  0  0  0  0  0  0  0  0
   56.2902   29.1289   42.5026 H   0  0  0  0  0  0  0  0  0  0  0  0
   57.4648   28.9413   44.5520 H   0  0  0  0  0  0  0  0  0  0  0  0
   58.3404   30.2390   43.6752 H   0  0  0  0  0  0  0  0  0  0  0  0
   56.7922   33.1486   43.8105 H   0  0  0  0  0  0  0  0  0  0  0  0
   57.9395   35.3108   44.2717 H   0  0  0  0  0  0  0  0  0  0  0  0
   59.5673   35.4872   46.1505 H   0  0  0  0  0  0  0  0  0  0  0  0
   60.0626   33.5007   47.5667 H   0  0  0  0  0  0  0  0  0  0  0  0
   58.6997   29.1382   46.4842 H   0  0  0  0  0  0  0  0  0  0  0  0
   60.1363   30.0282   45.8655 H   0  0  0  0  0  0  0  0  0  0  0  0
   60.7786   28.1338   47.3499 H   0  0  0  0  0  0  0  0  0  0  0  0
   61.2615   29.7551   48.0276 H   0  0  0  0  0  0  0  0  0  0  0  0
   59.2660   27.8360   48.9550 H   0  0  0  0  0  0  0  0  0  0  0  0
   60.0896   28.5739   51.1310 H   0  0  0  0  0  0  0  0  0  0  0  0
   61.3334   27.8469   50.0137 H   0  0  0  0  0  0  0  0  0  0  0  0
   61.7060   30.3836   49.3326 H   0  0  0  0  0  0  0  0  0  0  0  0
   63.0730   30.3340   51.5270 H   0  0  0  0  0  0  0  0  0  0  0  0
   59.7685   30.9967   51.0051 H   0  0  0  0  0  0  0  0  0  0  0  0
   61.0799   30.8406   52.2515 H   0  0  0  0  0  0  0  0  0  0  0  0
   60.7748   32.9752   48.3097 H   0  0  0  0  0  0  0  0  0  0  0  0
   62.4469   33.5589   46.5640 H   0  0  0  0  0  0  0  0  0  0  0  0
   64.8735   33.6098   47.1146 H   0  0  0  0  0  0  0  0  0  0  0  0
   68.0656   33.3422   51.8458 H   0  0  0  0  0  0  0  0  0  0  0  0
   68.2792   31.8732   50.8261 H   0  0  0  0  0  0  0  0  0  0  0  0
   67.9560   33.4700   49.0220 H   0  0  0  0  0  0  0  0  0  0  0  0
   65.9242   32.2758   52.7129 H   0  0  0  0  0  0  0  0  0  0  0  0
   57.6713   29.3271   48.9486 H   0  0  0  0  0  0  0  0  0  0  0  0
   58.5525   29.8334   50.4619 H   0  0  0  0  0  0  0  0  0  0  0  0
   57.9717   31.7683   49.0095 H   0  0  0  0  0  0  0  0  0  0  0  0
   59.7451   31.5627   49.2341 H   0  0  0  0  0  0  0  0  0  0  0  0
  1  2  1  0
  2  3  1  0
  3  4  1  0
  4  5  2  0
  5  6  1  0
  6  7  2  0
  7  8  1  0
  8  9  2  0
  9 10  1  0
 10 11  1  0
 11 12  1  0
 12 13  1  0
 13 14  1  0
 14 15  1  0
 15 16  1  0
 15 17  1  0
 17 18  1  0
 18 19  1  0
 19 20  2  0
 20 21  1  0
 21 22  2  0
 22 23  1  0
 23 24  1  0
 24 25  1  0
 25 26  1  0
 26 27  1  0
 25 28  2  0
 28 29  1  0
 29 30  2  0
 29 31  1  0
 13 32  1  0
 32 33  1  0
  9  4  1  0
 33 10  1  0
 31 19  1  0
 31 23  2  0
  1 34  1  0
  1 35  1  0
  1 36  1  0
  2 37  1  0
  2 38  1  0
  5 39  1  0
  6 40  1  0
  7 41  1  0
  8 42  1  0
 11 43  1  0
 11 44  1  0
 12 45  1  0
 12 46  1  0
 13 47  1  0
 14 48  1  0
 14 49  1  0
 15 50  1  6
 16 51  1  0
 17 52  1  0
 17 53  1  0
 20 54  1  0
 21 55  1  0
 22 56  1  0
 26 57  1  0
 26 58  1  0
 27 59  1  0
 28 60  1  0
 32 61  1  0
 32 62  1  0
 33 63  1  0
 33 64  1  0
M  CHG  1  13   1
M  END
>  <UniqueID>  (15) 
14

>  <SMILES>  (15) 
CCOc1ccccc1N1CC[NH+](C[C@H](O)COc2cccc3oc(CO)cc(=O)c23)CC1

>  <Energy>  (15) 
85.83878225891326

>  <Genealogy>  (15) 
CCOc1ccccc1N1CC[NH+](CC(O)COc2cccc3oc(CO)cc(=O)c23)CC1 (protonated)
CCOc1ccccc1N1CC[NH+](C[C@H](O)COc2cccc3oc(CO)cc(=O)c23)CC1 (chirality)
CCOc1ccccc1N1CC[NH+](C[C@H](O)COc2cccc3oc(CO)cc(=O)c23)CC1 (3D coordinates assigned)
CCOc1ccccc1N1CC[NH+](C[C@H](O)COc2cccc3oc(CO)cc(=O)c23)CC1 (nonaromatic ring conformer: 85.83878225891326 kcal/mol)

>  <smiles>  (15) 
CCOc1ccccc1N1CCN(CC(O)COc2cccc3oc(CO)cc(=O)c23)CC1

>  <score_type>  (15) 
oracle

>  <origin>  (15) 
adg

>  <m_score__min__energy>  (15) 
-6.6900000000000004

>  <m_primary>  (15) 
energy

$$$$
15:0
     RDKit          3D

 93 97  0  0  0  0  0  0  0  0999 V2000
   56.6210   22.3860   42.8910 C   0  0  0  0  0  0  0  0  0  0  0  0
   57.3870   21.1160   43.2730 C   0  0  0  0  0  0  0  0  0  0  0  0
   57.7840   21.1070   44.7120 N   0  0  0  0  0  0  0  0  0  0  0  0
   56.7440   20.5030   45.5870 C   0  0  0  0  0  0  0  0  0  0  0  0
   55.8930   19.4620   44.8520 C   0  0  0  0  0  0  0  0  0  0  0  0
   58.1700   22.4620   45.1880 C   0  0  0  0  0  0  0  0  0  0  0  0
   57.1880   23.0890   46.2090 C   0  0  0  0  0  0  0  0  0  0  0  0
   56.5480   24.3860   45.6740 C   0  0  0  0  0  0  0  0  0  0  0  0
   56.7850   25.6230   46.5620 C   0  0  0  0  0  0  0  0  0  0  0  0
   58.0110   26.3610   46.2110 N   0  0  0  0  0  0  0  0  0  0  0  0
   59.2960   25.7500   46.6030 C   0  0  0  0  0  0  0  0  0  0  0  0
   60.5060   26.4910   46.0270 C   0  0  0  0  0  0  0  0  0  0  0  0
   60.3770   27.9930   46.2630 C   0  0  0  0  0  0  0  0  0  0  0  0
   59.1120   28.5020   45.6320 C   0  0  0  0  0  0  0  0  0  0  0  0
   59.0490   29.8180   45.1560 C   0  0  0  0  0  0  0  0  0  0  0  0
   57.8570   30.3190   44.6130 C   0  0  0  0  0  0  0  0  0  0  0  0
   57.7570   31.7590   44.1880 C   0  0  0  0  0  0  0  0  0  0  0  0
   57.6680   32.7960   45.3490 C   0  0  0  0  0  0  0  0  0  0  0  0
   58.9460   33.3680   45.9110 N   0  0  1  0  0  0  0  0  0  0  0  0
   59.6060   34.2160   44.8740 C   0  0  0  0  0  0  0  0  0  0  0  0
   58.5390   34.2710   47.0350 C   0  0  0  0  0  0  0  0  0  0  0  0
   59.7040   34.7580   47.9300 C   0  0  0  0  0  0  0  0  0  0  0  0
   60.6920   33.6960   48.3340 N   0  0  1  0  0  0  0  0  0  0  0  0
   62.0300   33.9690   47.6910 C   0  0  0  0  0  0  0  0  0  0  0  0
   63.0120   32.7780   47.6410 C   0  0  0  0  0  0  0  0  0  0  0  0
   60.8980   33.7010   49.8160 C   0  0  0  0  0  0  0  0  0  0  0  0
   59.6780   33.2850   50.5890 C   0  0  0  0  0  0  0  0  0  0  0  0
   59.4340   33.8170   51.8680 C   0  0  0  0  0  0  0  0  0  0  0  0
   58.3300   33.3930   52.6090 C   0  0  0  0  0  0  0  0  0  0  0  0
   57.4710   32.4240   52.0870 C   0  0  0  0  0  0  0  0  0  0  0  0
   57.7210   31.8770   50.8270 C   0  0  0  0  0  0  0  0  0  0  0  0
   58.8270   32.3040   50.0740 C   0  0  0  0  0  0  0  0  0  0  0  0
   59.0960   31.6730   48.7410 C   0  0  0  0  0  0  0  0  0  0  0  0
   60.2440   32.3260   47.8970 C   0  0  1  0  0  0  0  0  0  0  0  0
   59.8800   32.2810   46.3840 C   0  0  0  0  0  0  0  0  0  0  0  0
   56.7530   29.4650   44.4770 C   0  0  0  0  0  0  0  0  0  0  0  0
   56.8100   28.1550   44.9530 C   0  0  0  0  0  0  0  0  0  0  0  0
   57.9690   27.6740   45.5890 C   0  0  0  0  0  0  0  0  0  0  0  0
   56.3040   22.9116   43.8039 H   0  0  0  0  0  0  0  0  0  0  0  0
   57.2735   23.0432   42.2974 H   0  0  0  0  0  0  0  0  0  0  0  0
   55.7353   22.1154   42.2974 H   0  0  0  0  0  0  0  0  0  0  0  0
   56.7462   20.2436   43.0770 H   0  0  0  0  0  0  0  0  0  0  0  0
   58.3060   21.0821   42.6694 H   0  0  0  0  0  0  0  0  0  0  0  0
   58.6540   20.5310   44.8280 H   0  0  0  0  0  0  0  0  0  0  0  0
   57.2395   20.0156   46.4396 H   0  0  0  0  0  0  0  0  0  0  0  0
   56.0740   21.3105   45.9172 H   0  0  0  0  0  0  0  0  0  0  0  0
   55.3745   18.8278   45.5861 H   0  0  0  0  0  0  0  0  0  0  0  0
   55.1514   19.9739   44.2211 H   0  0  0  0  0  0  0  0  0  0  0  0
   56.5422   18.8370   44.2211 H   0  0  0  0  0  0  0  0  0  0  0  0
   59.1596   22.3902   45.6629 H   0  0  0  0  0  0  0  0  0  0  0  0
   58.1629   23.1173   44.3046 H   0  0  0  0  0  0  0  0  0  0  0  0
   56.3906   22.3631   46.4266 H   0  0  0  0  0  0  0  0  0  0  0  0
   57.7563   23.3401   47.1167 H   0  0  0  0  0  0  0  0  0  0  0  0
   56.9670   24.5915   44.6779 H   0  0  0  0  0  0  0  0  0  0  0  0
   55.4614   24.2161   45.6538 H   0  0  0  0  0  0  0  0  0  0  0  0
   55.9255   26.3010   46.4543 H   0  0  0  0  0  0  0  0  0  0  0  0
   56.9018   25.2665   47.5961 H   0  0  0  0  0  0  0  0  0  0  0  0
   59.3687   25.7583   47.7006 H   0  0  0  0  0  0  0  0  0  0  0  0
   59.3123   24.7264   46.2005 H   0  0  0  0  0  0  0  0  0  0  0  0
   61.4207   26.1252   46.5164 H   0  0  0  0  0  0  0  0  0  0  0  0
   60.5539   26.3046   44.9440 H   0  0  0  0  0  0  0  0  0  0  0  0
   60.3508   28.1915   47.3446 H   0  0  0  0  0  0  0  0  0  0  0  0
   61.2391   28.5062   45.8120 H   0  0  0  0  0  0  0  0  0  0  0  0
   59.9393   30.4619   45.2084 H   0  0  0  0  0  0  0  0  0  0  0  0
   58.6471   31.9979   43.5875 H   0  0  0  0  0  0  0  0  0  0  0  0
   56.8116   31.8453   43.6323 H   0  0  0  0  0  0  0  0  0  0  0  0
   57.0689   33.6423   44.9816 H   0  0  0  0  0  0  0  0  0  0  0  0
   57.2419   32.2231   46.1858 H   0  0  0  0  0  0  0  0  0  0  0  0
   60.2104   34.9925   45.3656 H   0  0  0  0  0  0  0  0  0  0  0  0
   60.2557   33.5884   44.2462 H   0  0  0  0  0  0  0  0  0  0  0  0
   58.8381   34.6917   44.2462 H   0  0  0  0  0  0  0  0  0  0  0  0
   58.0467   35.1548   46.6030 H   0  0  0  0  0  0  0  0  0  0  0  0
   57.8764   33.6791   47.6836 H   0  0  0  0  0  0  0  0  0  0  0  0
   60.2503   35.5395   47.3815 H   0  0  0  0  0  0  0  0  0  0  0  0
   59.2426   35.1150   48.8626 H   0  0  0  0  0  0  0  0  0  0  0  0
   61.8461   34.2973   46.6574 H   0  0  0  0  0  0  0  0  0  0  0  0
   62.5145   34.7268   48.3242 H   0  0  0  0  0  0  0  0  0  0  0  0
   63.2665   32.4693   48.6657 H   0  0  0  0  0  0  0  0  0  0  0  0
   62.5415   31.9368   47.1109 H   0  0  0  0  0  0  0  0  0  0  0  0
   63.9274   33.0796   47.1109 H   0  0  0  0  0  0  0  0  0  0  0  0
   61.7168   33.0070   50.0567 H   0  0  0  0  0  0  0  0  0  0  0  0
   61.1308   34.7356   50.1083 H   0  0  0  0  0  0  0  0  0  0  0  0
   60.1169   34.5711   52.2863 H   0  0  0  0  0  0  0  0  0  0  0  0
   58.1368   33.8218   53.6034 H   0  0  0  0  0  0  0  0  0  0  0  0
   56.5980   32.0918   52.6680 H   0  0  0  0  0  0  0  0  0  0  0  0
   57.0479   31.1072   50.4217 H   0  0  0  0  0  0  0  0  0  0  0  0
   59.3612   30.6195   48.9136 H   0  0  0  0  0  0  0  0  0  0  0  0
   58.1766   31.8122   48.1533 H   0  0  0  0  0  0  0  0  0  0  0  0
   61.1341   31.7084   48.0876 H   0  0  0  0  0  0  0  0  0  0  0  0
   60.8135   32.3610   45.8077 H   0  0  0  0  0  0  0  0  0  0  0  0
   59.3450   31.3325   46.2287 H   0  0  0  0  0  0  0  0  0  0  0  0
   55.8360   29.8306   43.9918 H   0  0  0  0  0  0  0  0  0  0  0  0
   55.9409   27.4921   44.8299 H   0  0  0  0  0  0  0  0  0  0  0  0
  1  2  1  0
  2  3  1  0
  3  4  1  0
  4  5  1  0
  3  6  1  0
  6  7  1  0
  7  8  1  0
  8  9  1  0
  9 10  1  0
 10 11  1  0
 11 12  1  0
 12 13  1  0
 13 14  1  0
 14 15  2  0
 15 16  1  0
 16 17  1  0
 17 18  1  0
 19 18  1  6
 19 20  1  0
 19 21  1  0
 21 22  1  0
 22 23  1  0
 23 24  1  6
 24 25  1  0
 23 26  1  0
 26 27  1  0
 27 28  2  0
 28 29  1  0
 29 30  2  0
 30 31  1  0
 31 32  2  0
 32 33  1  0
 33 34  1  0
 34 35  1  0
 16 36  2  0
 36 37  1  0
 37 38  2  0
 38 10  1  0
 38 14  1  0
 35 19  1  0
 34 23  1  0
 32 27  1  0
  1 39  1  0
  1 40  1  0
  1 41  1  0
  2 42  1  0
  2 43  1  0
  3 44  1  0
  4 45  1  0
  4 46  1  0
  5 47  1  0
  5 48  1  0
  5 49  1  0
  6 50  1  0
  6 51  1  0
  7 52  1  0
  7 53  1  0
  8 54  1  0
  8 55  1  0
  9 56  1  0
  9 57  1  0
 11 58  1  0
 11 59  1  0
 12 60  1  0
 12 61  1  0
 13 62  1  0
 13 63  1  0
 15 64  1  0
 17 65  1  0
 17 66  1  0
 18 67  1  0
 18 68  1  0
 20 69  1  0
 20 70  1  0
 20 71  1  0
 21 72  1  0
 21 73  1  0
 22 74  1  0
 22 75  1  0
 24 76  1  0
 24 77  1  0
 25 78  1  0
 25 79  1  0
 25 80  1  0
 26 81  1  0
 26 82  1  0
 28 83  1  0
 29 84  1  0
 30 85  1  0
 31 86  1  0
 33 87  1  0
 33 88  1  0
 34 89  1  6
 35 90  1  0
 35 91  1  0
 36 92  1  0
 37 93  1  0
M  CHG  3   3   1  19   1  23   1
M  END
>  <UniqueID>  (16) 
15

>  <SMILES>  (16) 
CC[NH+](CC)CCCCN1CCCc2cc(CC[N@@+]3(C)CC[N@@+]4(CC)Cc5ccccc5CC4C3)ccc21

>  <Energy>  (16) 
146.68624417495252

>  <Genealogy>  (16) 
CC[NH+](CC)CCCCN1CCCc2cc(CC[N+]3(C)CC[N+]4(CC)Cc5ccccc5CC4C3)ccc21 (protonated)
CC[NH+](CC)CCCCN1CCCc2cc(CC[N@@+]3(C)CC[N@@+]4(CC)Cc5ccccc5CC4C3)ccc21 (chirality)
CC[NH+](CC)CCCCN1CCCc2cc(CC[N@@+]3(C)CC[N@@+]4(CC)Cc5ccccc5CC4C3)ccc21 (3D coordinates assigned)
CC[NH+](CC)CCCCN1CCCc2cc(CC[N@@+]3(C)CC[N@@+]4(CC)Cc5ccccc5CC4C3)ccc21 (nonaromatic ring conformer: 146.68624417495252 kcal/mol)

>  <smiles>  (16) 
CCN(CC)CCCCN1CCCc2cc(CC[N+]3(C)CC[N+]4(CC)Cc5ccccc5CC4C3)ccc21

>  <score_type>  (16) 
oracle

>  <origin>  (16) 
adg

>  <m_score__min__energy>  (16) 
-6.0099999999999998

>  <m_primary>  (16) 
energy

$$$$
16:0
     RDKit          3D

 63 65  0  0  0  0  0  0  0  0999 V2000
   63.6520   33.1400   47.0220 C   0  0  0  0  0  0  0  0  0  0  0  0
   63.1040   31.9730   47.8260 C   0  0  0  0  0  0  0  0  0  0  0  0
   63.4290   32.1590   49.1860 O   0  0  0  0  0  0  0  0  0  0  0  0
   64.5370   33.0310   49.2920 C   0  0  0  0  0  0  0  0  0  0  0  0
   65.5930   32.4120   50.2070 C   0  0  0  0  0  0  0  0  0  0  0  0
   65.2720   31.0690   50.5110 O   0  0  0  0  0  0  0  0  0  0  0  0
   65.4020   30.8200   51.8970 C   0  0  0  0  0  0  0  0  0  0  0  0
   64.0140   30.6560   52.5230 C   0  0  0  0  0  0  0  0  0  0  0  0
   63.0630   31.6490   51.9920 N   0  0  0  0  0  0  0  0  0  0  0  0
   62.6260   32.6010   53.0290 C   0  0  0  0  0  0  0  0  0  0  0  0
   61.1040   32.8310   53.0490 C   0  0  0  0  0  0  0  0  0  0  0  0
   60.4780   32.2610   51.8970 O   0  0  0  0  0  0  0  0  0  0  0  0
   60.3510   32.8570   50.6300 C   0  0  0  0  0  0  0  0  0  0  0  0
   61.2910   33.8480   50.2820 C   0  0  0  0  0  0  0  0  0  0  0  0
   61.2280   34.4990   49.0410 C   0  0  0  0  0  0  0  0  0  0  0  0
   60.2140   34.1500   48.1490 C   0  0  0  0  0  0  0  0  0  0  0  0
   59.9920   34.7230   46.8910 C   0  0  0  0  0  0  0  0  0  0  0  0
   58.8890   34.1650   46.2450 C   0  0  0  0  0  0  0  0  0  0  0  0
   58.3680   34.5820   44.9040 C   0  0  0  0  0  0  0  0  0  0  0  0
   57.3390   33.6380   44.4570 N   0  0  0  0  0  0  0  0  0  0  0  0
   57.9250   32.5890   43.6140 C   0  0  0  0  0  0  0  0  0  0  0  0
   57.6640   31.2480   44.2420 C   0  0  0  0  0  0  0  0  0  0  0  0
   56.4390   30.5930   44.0350 C   0  0  0  0  0  0  0  0  0  0  0  0
   56.2260   29.3100   44.5510 C   0  0  0  0  0  0  0  0  0  0  0  0
   57.2410   28.6660   45.2640 C   0  0  0  0  0  0  0  0  0  0  0  0
   56.9800   27.0490   45.8930 Cl  0  0  0  0  0  0  0  0  0  0  0  0
   58.4700   29.3090   45.4640 C   0  0  0  0  0  0  0  0  0  0  0  0
   58.6800   30.5940   44.9540 C   0  0  0  0  0  0  0  0  0  0  0  0
   58.1780   32.9980   47.2450 S   0  0  0  0  0  0  0  0  0  0  0  0
   59.2910   33.1750   48.4880 C   0  0  0  0  0  0  0  0  0  0  0  0
   59.3260   32.5200   49.7170 C   0  0  0  0  0  0  0  0  0  0  0  0
   64.0175   33.9184   47.7080 H   0  0  0  0  0  0  0  0  0  0  0  0
   64.4806   32.7915   46.3880 H   0  0  0  0  0  0  0  0  0  0  0  0
   62.8546   33.5550   46.3880 H   0  0  0  0  0  0  0  0  0  0  0  0
   62.0110   31.9270   47.7110 H   0  0  0  0  0  0  0  0  0  0  0  0
   63.5452   31.0327   47.4639 H   0  0  0  0  0  0  0  0  0  0  0  0
   64.9692   33.1962   48.2941 H   0  0  0  0  0  0  0  0  0  0  0  0
   64.2062   33.9912   49.7145 H   0  0  0  0  0  0  0  0  0  0  0  0
   66.5700   32.4435   49.7025 H   0  0  0  0  0  0  0  0  0  0  0  0
   65.6263   32.9864   51.1445 H   0  0  0  0  0  0  0  0  0  0  0  0
   65.9837   29.8990   52.0503 H   0  0  0  0  0  0  0  0  0  0  0  0
   65.9192   31.6663   52.3728 H   0  0  0  0  0  0  0  0  0  0  0  0
   63.6383   29.6463   52.3007 H   0  0  0  0  0  0  0  0  0  0  0  0
   64.1039   30.8092   53.6086 H   0  0  0  0  0  0  0  0  0  0  0  0
   62.2400   31.1800   51.5540 H   0  0  0  0  0  0  0  0  0  0  0  0
   63.5460   32.1980   51.2430 H   0  0  0  0  0  0  0  0  0  0  0  0
   62.9322   32.2111   54.0109 H   0  0  0  0  0  0  0  0  0  0  0  0
   63.0965   33.5684   52.7992 H   0  0  0  0  0  0  0  0  0  0  0  0
   60.6831   32.3660   53.9527 H   0  0  0  0  0  0  0  0  0  0  0  0
   60.9163   33.9149   53.0460 H   0  0  0  0  0  0  0  0  0  0  0  0
   62.0858   34.1149   50.9941 H   0  0  0  0  0  0  0  0  0  0  0  0
   61.9653   35.2711   48.7760 H   0  0  0  0  0  0  0  0  0  0  0  0
   60.6155   35.5211   46.4617 H   0  0  0  0  0  0  0  0  0  0  0  0
   57.9323   35.5893   44.9783 H   0  0  0  0  0  0  0  0  0  0  0  0
   59.1949   34.5892   44.1786 H   0  0  0  0  0  0  0  0  0  0  0  0
   56.6520   34.1730   43.8730 H   0  0  0  0  0  0  0  0  0  0  0  0
   57.4680   32.6223   42.6140 H   0  0  0  0  0  0  0  0  0  0  0  0
   59.0093   32.7502   43.5231 H   0  0  0  0  0  0  0  0  0  0  0  0
   55.6422   31.0917   43.4637 H   0  0  0  0  0  0  0  0  0  0  0  0
   55.2596   28.8081   44.3955 H   0  0  0  0  0  0  0  0  0  0  0  0
   59.2705   28.8022   46.0229 H   0  0  0  0  0  0  0  0  0  0  0  0
   59.6468   31.0943   45.1120 H   0  0  0  0  0  0  0  0  0  0  0  0
   58.5738   31.7586   49.9709 H   0  0  0  0  0  0  0  0  0  0  0  0
  1  2  1  0
  2  3  1  0
  3  4  1  0
  4  5  1  0
  5  6  1  0
  6  7  1  0
  7  8  1  0
  8  9  1  0
  9 10  1  0
 10 11  1  0
 11 12  1  0
 12 13  1  0
 13 14  2  0
 14 15  1  0
 15 16  2  0
 16 17  1  0
 17 18  2  0
 18 19  1  0
 19 20  1  0
 20 21  1  0
 21 22  1  0
 22 23  2  0
 23 24  1  0
 24 25  2  0
 25 26  1  0
 25 27  1  0
 27 28  2  0
 18 29  1  0
 29 30  1  0
 30 31  2  0
 31 13  1  0
 30 16  1  0
 28 22  1  0
  1 32  1  0
  1 33  1  0
  1 34  1  0
  2 35  1  0
  2 36  1  0
  4 37  1  0
  4 38  1  0
  5 39  1  0
  5 40  1  0
  7 41  1  0
  7 42  1  0
  8 43  1  0
  8 44  1  0
  9 45  1  0
  9 46  1  0
 10 47  1  0
 10 48  1  0
 11 49  1  0
 11 50  1  0
 14 51  1  0
 15 52  1  0
 17 53  1  0
 19 54  1  0
 19 55  1  0
 20 56  1  0
 21 57  1  0
 21 58  1  0
 23 59  1  0
 24 60  1  0
 27 61  1  0
 28 62  1  0
 31 63  1  0
M  CHG  1   9   1
M  END
>  <UniqueID>  (17) 
16

>  <SMILES>  (17) 
CCOCCOCC[NH2+]CCOc1ccc2cc(CNCc3ccc(Cl)cc3)sc2c1

>  <Energy>  (17) 
86.09149675031165

>  <Genealogy>  (17) 
CCOCCOCC[NH2+]CCOc1ccc2cc(CNCc3ccc(Cl)cc3)sc2c1 (protonated)
CCOCCOCC[NH2+]CCOc1ccc2cc(CNCc3ccc(Cl)cc3)sc2c1 (3D coordinates assigned)
CCOCCOCC[NH2+]CCOc1ccc2cc(CNCc3ccc(Cl)cc3)sc2c1 (optimized conformer: 86.09149675031165 kcal/mol)

>  <smiles>  (17) 
CCOCCOCCNCCOc1ccc2cc(CNCc3ccc(Cl)cc3)sc2c1

>  <score_type>  (17) 
oracle

>  <origin>  (17) 
adg

>  <m_score__min__energy>  (17) 
-6.6699999999999999

>  <m_primary>  (17) 
energy

$$$$
17:0
     RDKit          3D

 40 43  0  0  0  0  0  0  0  0999 V2000
   57.9670   32.6840   40.7820 C   0  0  0  0  0  0  0  0  0  0  0  0
   57.0380   31.7530   41.5520 C   0  0  0  0  0  0  0  0  0  0  0  0
   57.5780   31.4890   42.9260 C   0  0  0  0  0  0  0  0  0  0  0  0
   57.8670   32.5450   43.7450 N   0  0  0  0  0  0  0  0  0  0  0  0
   58.3200   32.2820   44.9920 C   0  0  0  0  0  0  0  0  0  0  0  0
   58.4970   31.0090   45.4620 C   0  0  0  0  0  0  0  0  0  0  0  0
   59.0130   31.0190   46.7140 N   0  0  0  0  0  0  0  0  0  0  0  0
   59.1400   32.3320   47.0210 C   0  0  0  0  0  0  0  0  0  0  0  0
   59.6380   32.8770   48.2020 C   0  0  0  0  0  0  0  0  0  0  0  0
   59.7000   34.2800   48.3060 C   0  0  0  0  0  0  0  0  0  0  0  0
   59.2710   35.1010   47.2380 C   0  0  0  0  0  0  0  0  0  0  0  0
   58.7750   34.5300   46.0520 C   0  0  0  0  0  0  0  0  0  0  0  0
   58.7210   33.1400   45.9820 C   0  0  0  0  0  0  0  0  0  0  0  0
   58.1910   29.9230   44.6380 C   0  0  0  0  0  0  0  0  0  0  0  0
   58.3410   28.5220   45.0930 C   0  0  0  0  0  0  0  0  0  0  0  0
   59.6120   28.0190   45.4080 C   0  0  0  0  0  0  0  0  0  0  0  0
   59.7650   26.6940   45.8250 C   0  0  0  0  0  0  0  0  0  0  0  0
   58.6500   25.8460   45.9250 C   0  0  0  0  0  0  0  0  0  0  0  0
   58.8310   24.4230   46.3730 C   0  0  0  0  0  0  0  0  0  0  0  0
   57.3730   26.3430   45.5930 C   0  0  0  0  0  0  0  0  0  0  0  0
   55.8050   25.2440   45.6880 Br  0  0  0  0  0  0  0  0  0  0  0  0
   57.2270   27.6710   45.1770 C   0  0  0  0  0  0  0  0  0  0  0  0
   57.7360   30.1980   43.3740 N   0  0  0  0  0  0  0  0  0  0  0  0
   58.5606   33.2789   41.4917 H   0  0  0  0  0  0  0  0  0  0  0  0
   58.6412   32.0881   40.1493 H   0  0  0  0  0  0  0  0  0  0  0  0
   57.3697   33.3569   40.1493 H   0  0  0  0  0  0  0  0  0  0  0  0
   56.0460   32.2207   41.6368 H   0  0  0  0  0  0  0  0  0  0  0  0
   56.9627   30.7985   41.0104 H   0  0  0  0  0  0  0  0  0  0  0  0
   59.2840   30.2060   47.3090 H   0  0  0  0  0  0  0  0  0  0  0  0
   59.9724   32.2317   49.0277 H   0  0  0  0  0  0  0  0  0  0  0  0
   60.0859   34.7415   49.2269 H   0  0  0  0  0  0  0  0  0  0  0  0
   59.3255   36.1953   47.3353 H   0  0  0  0  0  0  0  0  0  0  0  0
   58.4425   35.1573   45.2118 H   0  0  0  0  0  0  0  0  0  0  0  0
   60.4937   28.6716   45.3263 H   0  0  0  0  0  0  0  0  0  0  0  0
   60.7656   26.3126   46.0766 H   0  0  0  0  0  0  0  0  0  0  0  0
   58.8362   24.3825   47.4722 H   0  0  0  0  0  0  0  0  0  0  0  0
   58.0037   23.8091   45.9873 H   0  0  0  0  0  0  0  0  0  0  0  0
   59.7856   24.0358   45.9873 H   0  0  0  0  0  0  0  0  0  0  0  0
   56.2295   28.0523   44.9131 H   0  0  0  0  0  0  0  0  0  0  0  0
   57.4830   29.4070   42.7380 H   0  0  0  0  0  0  0  0  0  0  0  0
  1  2  1  0
  2  3  1  0
  3  4  2  0
  4  5  1  0
  5  6  2  0
  6  7  1  0
  7  8  1  0
  8  9  2  0
  9 10  1  0
 10 11  2  0
 11 12  1  0
 12 13  2  0
  6 14  1  0
 14 15  1  0
 15 16  2  0
 16 17  1  0
 17 18  2  0
 18 19  1  0
 18 20  1  0
 20 21  1  0
 20 22  2  0
 14 23  2  0
 23  3  1  0
 13  5  1  0
 22 15  1  0
 13  8  1  0
  1 24  1  0
  1 25  1  0
  1 26  1  0
  2 27  1  0
  2 28  1  0
  7 29  1  0
  9 30  1  0
 10 31  1  0
 11 32  1  0
 12 33  1  0
 16 34  1  0
 17 35  1  0
 19 36  1  0
 19 37  1  0
 19 38  1  0
 22 39  1  0
 23 40  1  0
M  CHG  1  23   1
M  END
>  <UniqueID>  (18) 
17

>  <SMILES>  (18) 
CCc1nc2c([nH]c3ccccc32)c(-c2ccc(C)c(Br)c2)[nH+]1

>  <Energy>  (18) 
89.78736914625884

>  <Genealogy>  (18) 
CCc1nc2c([nH]c3ccccc32)c(-c2ccc(C)c(Br)c2)[nH+]1 (protonated)
CCc1nc2c([nH]c3ccccc32)c(-c2ccc(C)c(Br)c2)[nH+]1 (3D coordinates assigned)
CCc1nc2c([nH]c3ccccc32)c(-c2ccc(C)c(Br)c2)[nH+]1 (optimized conformer: 89.78736914625884 kcal/mol)

>  <smiles>  (18) 
CCc1nc(-c2ccc(C)c(Br)c2)c2[nH]c3ccccc3c2n1

>  <score_type>  (18) 
oracle

>  <origin>  (18) 
adg

>  <m_score__min__energy>  (18) 
-6.6399999999999997

>  <m_primary>  (18) 
energy

$$$$
18:0
     RDKit          3D

 40 40  0  0  0  0  0  0  0  0999 V2000
   57.6500   33.8930   45.2460 C   0  0  0  0  0  0  0  0  0  0  0  0
   58.0150   32.8540   46.3020 C   0  0  0  0  0  0  0  0  0  0  0  0
   57.5900   31.5680   45.8910 O   0  0  0  0  0  0  0  0  0  0  0  0
   57.4010   31.5300   44.4920 C   0  0  0  0  0  0  0  0  0  0  0  0
   56.2220   30.6130   44.1530 C   0  0  0  0  0  0  0  0  0  0  0  0
   56.6000   29.1250   44.1770 C   0  0  0  0  0  0  0  0  0  0  0  0
   55.9010   28.4200   45.2460 N   0  0  0  0  0  0  0  0  0  0  0  0
   56.2730   27.1200   45.7150 C   0  0  0  0  0  0  0  0  0  0  0  0
   55.4010   26.3420   46.1900 O   0  0  0  0  0  0  0  0  0  0  0  0
   57.7040   26.6660   45.5760 C   0  0  2  0  0  0  0  0  0  0  0  0
   57.8960   25.2330   46.1390 C   0  0  0  0  0  0  0  0  0  0  0  0
   59.3180   24.6720   45.9930 C   0  0  0  0  0  0  0  0  0  0  0  0
   58.6770   27.7290   46.0880 C   0  0  0  0  0  0  0  0  0  0  0  0
   58.6860   28.1890   47.4240 C   0  0  0  0  0  0  0  0  0  0  0  0
   59.5920   29.1710   47.8330 C   0  0  0  0  0  0  0  0  0  0  0  0
   60.5020   29.7100   46.9240 C   0  0  0  0  0  0  0  0  0  0  0  0
   60.5140   29.2640   45.6030 C   0  0  0  0  0  0  0  0  0  0  0  0
   59.6120   28.2810   45.1840 C   0  0  0  0  0  0  0  0  0  0  0  0
   59.6510   27.8660   43.8920 F   0  0  0  0  0  0  0  0  0  0  0  0
   57.3244   34.8199   45.7408 H   0  0  0  0  0  0  0  0  0  0  0  0
   58.5286   34.1018   44.6179 H   0  0  0  0  0  0  0  0  0  0  0  0
   56.8339   33.5064   44.6179 H   0  0  0  0  0  0  0  0  0  0  0  0
   59.1058   32.8479   46.4438 H   0  0  0  0  0  0  0  0  0  0  0  0
   57.5145   33.1120   47.2469 H   0  0  0  0  0  0  0  0  0  0  0  0
   57.1917   32.5453   44.1240 H   0  0  0  0  0  0  0  0  0  0  0  0
   58.3121   31.1427   44.0126 H   0  0  0  0  0  0  0  0  0  0  0  0
   55.4211   30.7841   44.8873 H   0  0  0  0  0  0  0  0  0  0  0  0
   55.8967   30.8558   43.1306 H   0  0  0  0  0  0  0  0  0  0  0  0
   56.3309   28.6709   43.2119 H   0  0  0  0  0  0  0  0  0  0  0  0
   57.6823   29.0435   44.3558 H   0  0  0  0  0  0  0  0  0  0  0  0
   57.9592   26.5681   44.5105 H   0  0  0  0  0  0  0  0  0  0  0  0
   57.6418   25.2483   47.2091 H   0  0  0  0  0  0  0  0  0  0  0  0
   57.2405   24.5764   45.5481 H   0  0  0  0  0  0  0  0  0  0  0  0
   59.7493   24.5019   46.9905 H   0  0  0  0  0  0  0  0  0  0  0  0
   59.2821   23.7207   45.4419 H   0  0  0  0  0  0  0  0  0  0  0  0
   59.9413   25.3916   45.4419 H   0  0  0  0  0  0  0  0  0  0  0  0
   57.9728   27.7700   48.1491 H   0  0  0  0  0  0  0  0  0  0  0  0
   59.5874   29.5203   48.8761 H   0  0  0  0  0  0  0  0  0  0  0  0
   61.2100   30.4866   47.2490 H   0  0  0  0  0  0  0  0  0  0  0  0
   61.2353   29.6867   44.8882 H   0  0  0  0  0  0  0  0  0  0  0  0
  1  2  1  0
  2  3  1  0
  3  4  1  0
  4  5  1  0
  5  6  1  0
  6  7  1  0
  7  8  1  0
  8  9  2  0
  8 10  1  0
 10 11  1  0
 11 12  1  0
 10 13  1  0
 13 14  2  0
 14 15  1  0
 15 16  2  0
 16 17  1  0
 17 18  2  0
 18 19  1  0
 18 13  1  0
  1 20  1  0
  1 21  1  0
  1 22  1  0
  2 23  1  0
  2 24  1  0
  4 25  1  0
  4 26  1  0
  5 27  1  0
  5 28  1  0
  6 29  1  0
  6 30  1  0
 10 31  1  6
 11 32  1  0
 11 33  1  0
 12 34  1  0
 12 35  1  0
 12 36  1  0
 14 37  1  0
 15 38  1  0
 16 39  1  0
 17 40  1  0
M  CHG  1   7  -1
M  END
>  <UniqueID>  (19) 
18

>  <SMILES>  (19) 
CCOCCC[N-]C(=O)[C@H](CC)c1ccccc1F

>  <Energy>  (19) 
34.098968982258896

>  <Genealogy>  (19) 
CCOCCC[N-]C(=O)C(CC)c1ccccc1F (protonated)
CCOCCC[N-]C(=O)[C@H](CC)c1ccccc1F (chirality)
CCOCCC[N-]C(=O)[C@H](CC)c1ccccc1F (3D coordinates assigned)
CCOCCC[N-]C(=O)[C@H](CC)c1ccccc1F (optimized conformer: 34.098968982258896 kcal/mol)

>  <smiles>  (19) 
CCOCCCNC(=O)C(CC)c1ccccc1F

>  <score_type>  (19) 
oracle

>  <origin>  (19) 
adg

>  <m_score__min__energy>  (19) 
-8.2799999999999994

>  <m_primary>  (19) 
energy

$$$$
19:0
     RDKit          3D

 56 57  0  0  0  0  0  0  0  0999 V2000
   58.1570   30.0890   42.7540 H   0  0  0  0  0  0  0  0  0  0  0  0
   58.0120   30.8630   43.3590 O   0  0  0  0  0  0  0  0  0  0  0  0
   57.1720   30.4160   44.3890 C   0  0  0  0  0  0  0  0  0  0  0  0
   57.0176   29.3322   44.2817 H   0  0  0  0  0  0  0  0  0  0  0  0
   56.2144   30.9524   44.3161 H   0  0  0  0  0  0  0  0  0  0  0  0
   57.7890   30.7020   45.7730 C   0  0  0  0  0  0  0  0  0  0  0  0
   57.6293   29.8224   46.4139 H   0  0  0  0  0  0  0  0  0  0  0  0
   57.2943   31.6014   46.1683 H   0  0  0  0  0  0  0  0  0  0  0  0
   59.2500   30.9910   45.7240 N   0  0  2  0  0  0  0  0  0  0  0  0
   59.5900   30.7020   44.7750 H   0  0  0  0  0  0  0  0  0  0  0  0
   59.9850   30.1650   46.7360 C   0  0  0  0  0  0  0  0  0  0  0  0
   60.2129   29.1869   46.2872 H   0  0  0  0  0  0  0  0  0  0  0  0
   59.3325   30.0792   47.6174 H   0  0  0  0  0  0  0  0  0  0  0  0
   61.3150   30.8070   47.2150 C   0  0  0  0  0  0  0  0  0  0  0  0
   62.0056   30.8345   46.3593 H   0  0  0  0  0  0  0  0  0  0  0  0
   61.6682   30.1835   48.0496 H   0  0  0  0  0  0  0  0  0  0  0  0
   61.1990   32.2050   47.7630 N   0  0  0  0  0  0  0  0  0  0  0  0
   62.5150   32.9630   47.6440 C   0  0  0  0  0  0  0  0  0  0  0  0
   62.8000   33.8450   48.8780 C   0  0  0  0  0  0  0  0  0  0  0  0
   62.6127   33.2655   49.7940 H   0  0  0  0  0  0  0  0  0  0  0  0
   63.8498   34.1729   48.8597 H   0  0  0  0  0  0  0  0  0  0  0  0
   62.1406   34.7252   48.8597 H   0  0  0  0  0  0  0  0  0  0  0  0
   63.7150   31.9640   47.6060 C   0  0  0  0  0  0  0  0  0  0  0  0
   64.0161   31.7133   48.6339 H   0  0  0  0  0  0  0  0  0  0  0  0
   63.4124   31.0473   47.0787 H   0  0  0  0  0  0  0  0  0  0  0  0
   64.5617   32.4278   47.0787 H   0  0  0  0  0  0  0  0  0  0  0  0
   62.6050   33.8420   46.3740 C   0  0  0  0  0  0  0  0  0  0  0  0
   62.7130   34.8972   46.6653 H   0  0  0  0  0  0  0  0  0  0  0  0
   63.4764   33.5354   45.7769 H   0  0  0  0  0  0  0  0  0  0  0  0
   61.6895   33.7184   45.7769 H   0  0  0  0  0  0  0  0  0  0  0  0
   59.8690   32.7890   47.3580 C   0  0  1  0  0  0  0  0  0  0  0  0
   59.2059   32.2686   48.0647 H   0  0  0  0  0  0  0  0  0  0  0  0
   59.3900   34.2150   47.7890 C   0  0  1  0  0  0  0  0  0  0  0  0
   58.2936   34.1361   47.8292 H   0  0  0  0  0  0  0  0  0  0  0  0
   59.7160   34.5910   49.2060 C   0  0  0  0  0  0  0  0  0  0  0  0
   59.9665   35.6347   49.4469 H   0  0  0  0  0  0  0  0  0  0  0  0
   59.7060   33.7030   50.1470 N   0  0  0  0  0  0  0  0  0  0  0  0
   58.7110   32.7550   50.2020 O   0  0  0  0  0  0  0  0  0  0  0  0
   58.8910   31.5680   50.9580 C   0  0  0  0  0  0  0  0  0  0  0  0
   58.0790   31.4770   51.6944 H   0  0  0  0  0  0  0  0  0  0  0  0
   59.8591   31.6113   51.4785 H   0  0  0  0  0  0  0  0  0  0  0  0
   58.8710   30.3630   50.0330 C   0  0  0  0  0  0  0  0  0  0  0  0
   58.8557   29.4408   50.6325 H   0  0  0  0  0  0  0  0  0  0  0  0
   57.9734   30.4028   49.3984 H   0  0  0  0  0  0  0  0  0  0  0  0
   59.7694   30.3729   49.3984 H   0  0  0  0  0  0  0  0  0  0  0  0
   59.6020   35.3100   46.7190 C   0  0  0  0  0  0  0  0  0  0  0  0
   59.0348   36.2042   47.0167 H   0  0  0  0  0  0  0  0  0  0  0  0
   60.6828   35.5065   46.6619 H   0  0  0  0  0  0  0  0  0  0  0  0
   59.1360   34.8790   45.3030 C   0  0  0  0  0  0  0  0  0  0  0  0
   58.3452   35.5701   44.9758 H   0  0  0  0  0  0  0  0  0  0  0  0
   60.0257   34.9090   44.6568 H   0  0  0  0  0  0  0  0  0  0  0  0
   58.5830   33.4410   45.2250 C   0  0  0  0  0  0  0  0  0  0  0  0
   57.6223   33.3922   45.7585 H   0  0  0  0  0  0  0  0  0  0  0  0
   58.4416   33.1687   44.1687 H   0  0  0  0  0  0  0  0  0  0  0  0
   59.5770   32.4480   45.8720 C   0  0  2  0  0  0  0  0  0  0  0  0
   60.4888   32.5963   45.2749 H   0  0  0  0  0  0  0  0  0  0  0  0
  1  2  1  0
  2  3  1  0
  3  4  1  0
  3  5  1  0
  3  6  1  0
  6  7  1  0
  6  8  1  0
  6  9  1  0
  9 10  1  6
  9 11  1  0
 11 12  1  0
 11 13  1  0
 11 14  1  0
 14 15  1  0
 14 16  1  0
 14 17  1  0
 17 18  1  0
 18 19  1  0
 19 20  1  0
 19 21  1  0
 19 22  1  0
 18 23  1  0
 23 24  1  0
 23 25  1  0
 23 26  1  0
 18 27  1  0
 27 28  1  0
 27 29  1  0
 27 30  1  0
 17 31  1  0
 31 32  1  1
 31 33  1  0
 33 34  1  1
 33 35  1  0
 35 36  1  0
 35 37  2  0
 37 38  1  0
 38 39  1  0
 39 40  1  0
 39 41  1  0
 39 42  1  0
 42 43  1  0
 42 44  1  0
 42 45  1  0
 33 46  1  0
 46 47  1  0
 46 48  1  0
 46 49  1  0
 49 50  1  0
 49 51  1  0
 49 52  1  0
 52 53  1  0
 52 54  1  0
 52 55  1  0
 55 56  1  6
 55  9  1  0
 55 31  1  0
M  CHG  1   9   1
M  END
>  <UniqueID>  (20) 
19

>  <SMILES>  (20) 
CCO/N=C/[C@H]1CCC[C@H]2C1N(C(C)(C)C)CC[NH+]2CCO

>  <Energy>  (20) 
108.56917372463487

>  <Genealogy>  (20) 
CCON=CC1CCCC2C1N(C(C)(C)C)CC[NH+]2CCO (protonated)
CCON=C[C@H]1CCC[C@H]2C1N(C(C)(C)C)CC[NH+]2CCO (chirality)
CCO/N=C/[C@H]1CCC[C@H]2C1N(C(C)(C)C)CC[NH+]2CCO (cis-trans isomerization)
CCO/N=C/[C@H]1CCC[C@H]2C1N(C(C)(C)C)CC[NH+]2CCO (3D coordinates assigned)
CCO/N=C/[C@H]1CCC[C@H]2C1N(C(C)(C)C)CC[NH+]2CCO (nonaromatic ring conformer: 108.56917372463487 kcal/mol)

>  <smiles>  (20) 
CCON=CC1CCCC2C1N(C(C)(C)C)CCN2CCO

>  <score_type>  (20) 
oracle

>  <origin>  (20) 
adg

>  <m_score__min__energy>  (20) 
-5.5199999999999996

>  <m_primary>  (20) 
energy

$$$$
20:0
     RDKit          3D

 35 36  0  0  0  0  0  0  0  0999 V2000
   60.9583   30.9637   46.8631 H   0  0  0  0  0  0  0  0  0  0  0  0
   60.0020   30.8230   46.3380 C   0  0  0  0  0  0  0  0  0  0  0  0
   59.5820   29.5270   45.9990 C   0  0  0  0  0  0  0  0  0  0  0  0
   60.3330   28.3840   46.3140 O   0  0  0  0  0  0  0  0  0  0  0  0
   60.1420   27.5880   47.4790 C   0  0  0  0  0  0  0  0  0  0  0  0
   60.2908   28.2082   48.3753 H   0  0  0  0  0  0  0  0  0  0  0  0
   59.1205   27.1800   47.4809 H   0  0  0  0  0  0  0  0  0  0  0  0
   60.8672   26.7609   47.4809 H   0  0  0  0  0  0  0  0  0  0  0  0
   58.3720   29.3560   45.3290 C   0  0  0  0  0  0  0  0  0  0  0  0
   58.0336   28.3402   45.0767 H   0  0  0  0  0  0  0  0  0  0  0  0
   57.5790   30.4530   44.9710 C   0  0  0  0  0  0  0  0  0  0  0  0
   56.3450   30.2100   44.2810 N   0  0  0  0  0  0  0  0  0  0  0  0
   56.2560   30.4570   43.0620 O   0  0  0  0  0  0  0  0  0  0  0  0
   55.3890   29.4160   44.8690 O   0  0  0  0  0  0  0  0  0  0  0  0
   58.0010   31.7660   45.3060 C   0  0  0  0  0  0  0  0  0  0  0  0
   59.2160   31.9440   46.0150 C   0  0  0  0  0  0  0  0  0  0  0  0
   59.6550   33.3110   46.4180 C   0  0  0  0  0  0  0  0  0  0  0  0
   60.7450   33.4590   47.1120 N   0  0  0  0  0  0  0  0  0  0  0  0
   61.9840   33.1110   46.6210 O   0  0  0  0  0  0  0  0  0  0  0  0
   63.1640   33.5660   47.2630 C   0  0  0  0  0  0  0  0  0  0  0  0
   62.9194   34.4134   47.9203 H   0  0  0  0  0  0  0  0  0  0  0  0
   63.8921   33.8867   46.5034 H   0  0  0  0  0  0  0  0  0  0  0  0
   63.7620   32.4400   48.0910 C   0  0  0  0  0  0  0  0  0  0  0  0
   63.6413   32.6673   49.1605 H   0  0  0  0  0  0  0  0  0  0  0  0
   63.2455   31.4977   47.8558 H   0  0  0  0  0  0  0  0  0  0  0  0
   64.8319   32.3402   47.8558 H   0  0  0  0  0  0  0  0  0  0  0  0
   58.7840   34.5040   46.1110 C   0  0  0  0  0  0  0  0  0  0  0  0
   58.1377   34.7088   46.9772 H   0  0  0  0  0  0  0  0  0  0  0  0
   59.4347   35.3655   45.9005 H   0  0  0  0  0  0  0  0  0  0  0  0
   57.9090   34.2480   44.8860 C   0  0  0  0  0  0  0  0  0  0  0  0
   57.2174   35.0932   44.7541 H   0  0  0  0  0  0  0  0  0  0  0  0
   58.5589   34.1432   44.0047 H   0  0  0  0  0  0  0  0  0  0  0  0
   57.1010   32.9610   45.0540 C   0  0  0  0  0  0  0  0  0  0  0  0
   56.4160   33.0782   45.9067 H   0  0  0  0  0  0  0  0  0  0  0  0
   56.5425   32.7812   44.1235 H   0  0  0  0  0  0  0  0  0  0  0  0
  1  2  1  0
  2  3  2  0
  3  4  1  0
  4  5  1  0
  5  6  1  0
  5  7  1  0
  5  8  1  0
  3  9  1  0
  9 10  1  0
  9 11  2  0
 11 12  1  0
 12 13  2  0
 12 14  1  0
 11 15  1  0
 15 16  2  0
 16 17  1  0
 17 18  2  0
 18 19  1  0
 19 20  1  0
 20 21  1  0
 20 22  1  0
 20 23  1  0
 23 24  1  0
 23 25  1  0
 23 26  1  0
 17 27  1  0
 27 28  1  0
 27 29  1  0
 27 30  1  0
 30 31  1  0
 30 32  1  0
 30 33  1  0
 33 34  1  0
 33 35  1  0
 16  2  1  0
 33 15  1  0
M  CHG  2  12   1  14  -1
M  END
>  <UniqueID>  (21) 
20

>  <SMILES>  (21) 
CCO/N=C1\CCCc2c1cc(OC)cc2[N+](=O)[O-]

>  <Energy>  (21) 
35.5667772582555

>  <Genealogy>  (21) 
CCO/N=C1\CCCc2c1cc(OC)cc2[N+](=O)[O-] (cis-trans isomerization)
CCO/N=C1\CCCc2c1cc(OC)cc2[N+](=O)[O-] (3D coordinates assigned)
CCO/N=C1\CCCc2c1cc(OC)cc2[N+](=O)[O-] (nonaromatic ring conformer: 35.5667772582555 kcal/mol)

>  <smiles>  (21) 
CCON=C1CCCc2c1cc(OC)cc2[N+](=O)[O-]

>  <score_type>  (21) 
oracle

>  <origin>  (21) 
adg

>  <m_score__min__energy>  (21) 
-6.6299999999999999

>  <m_primary>  (21) 
energy

$$$$
