0:0
     RDKit          3D

 35 36  0  0  0  0  0  0  0  0999 V2000
   58.6200   28.0160   44.0730 C   0  0  0  0  0  0  0  0  0  0  0  0
   57.4550   28.2420   44.9330 N   0  0  0  0  0  0  0  0  0  0  0  0
   57.0160   27.2080   45.8730 C   0  0  0  0  0  0  0  0  0  0  0  0
   56.6340   29.4110   44.7500 C   0  0  0  0  0  0  0  0  0  0  0  0
   55.3830   29.3170   44.8780 O   0  0  0  0  0  0  0  0  0  0  0  0
   57.2220   30.7270   44.4150 C   0  0  0  0  0  0  0  0  0  0  0  0
   57.4120   31.0920   43.0740 C   0  0  0  0  0  0  0  0  0  0  0  0
   57.9550   32.3390   42.7530 C   0  0  0  0  0  0  0  0  0  0  0  0
   58.2890   33.2400   43.7660 C   0  0  0  0  0  0  0  0  0  0  0  0
   58.0630   32.9100   45.1080 C   0  0  0  0  0  0  0  0  0  0  0  0
   58.4090   33.8640   46.1230 N   0  0  0  0  0  0  0  0  0  0  0  0
   59.6170   34.6370   46.1860 C   0  0  0  0  0  0  0  0  0  0  0  0
   59.6580   35.7410   45.5810 O   0  0  0  0  0  0  0  0  0  0  0  0
   60.7910   34.1990   46.9780 C   0  0  0  0  0  0  0  0  0  0  0  0
   60.7400   34.1610   48.3830 C   0  0  0  0  0  0  0  0  0  0  0  0
   61.8490   33.7340   49.1190 C   0  0  0  0  0  0  0  0  0  0  0  0
   63.0230   33.3540   48.4630 C   0  0  0  0  0  0  0  0  0  0  0  0
   64.4120   32.8160   49.3890 Cl  0  0  0  0  0  0  0  0  0  0  0  0
   63.0890   33.4070   47.0670 C   0  0  0  0  0  0  0  0  0  0  0  0
   61.9810   33.8320   46.3280 C   0  0  0  0  0  0  0  0  0  0  0  0
   57.5450   31.6430   45.4290 C   0  0  0  0  0  0  0  0  0  0  0  0
   59.5089   27.8436   44.6976 H   0  0  0  0  0  0  0  0  0  0  0  0
   58.4417   27.1357   43.4380 H   0  0  0  0  0  0  0  0  0  0  0  0
   58.7838   28.8991   43.4380 H   0  0  0  0  0  0  0  0  0  0  0  0
   57.1662   27.5618   46.9037 H   0  0  0  0  0  0  0  0  0  0  0  0
   55.9493   26.9938   45.7106 H   0  0  0  0  0  0  0  0  0  0  0  0
   57.6028   26.2918   45.7106 H   0  0  0  0  0  0  0  0  0  0  0  0
   57.1323   30.3936   42.2715 H   0  0  0  0  0  0  0  0  0  0  0  0
   58.1196   32.6113   41.7000 H   0  0  0  0  0  0  0  0  0  0  0  0
   58.7317   34.2136   43.5087 H   0  0  0  0  0  0  0  0  0  0  0  0
   59.8224   34.4690   48.9056 H   0  0  0  0  0  0  0  0  0  0  0  0
   61.7975   33.6970   50.2172 H   0  0  0  0  0  0  0  0  0  0  0  0
   64.0144   33.1138   46.5496 H   0  0  0  0  0  0  0  0  0  0  0  0
   62.0414   33.8793   45.2307 H   0  0  0  0  0  0  0  0  0  0  0  0
   57.3916   31.3671   46.4827 H   0  0  0  0  0  0  0  0  0  0  0  0
  1  2  1  0
  2  3  1  0
  2  4  1  0
  4  5  2  0
  4  6  1  0
  6  7  2  0
  7  8  1  0
  8  9  2  0
  9 10  1  0
 10 11  1  0
 11 12  1  0
 12 13  2  0
 12 14  1  0
 14 15  2  0
 15 16  1  0
 16 17  2  0
 17 18  1  0
 17 19  1  0
 19 20  2  0
 10 21  2  0
 21  6  1  0
 20 14  1  0
  1 22  1  0
  1 23  1  0
  1 24  1  0
  3 25  1  0
  3 26  1  0
  3 27  1  0
  7 28  1  0
  8 29  1  0
  9 30  1  0
 15 31  1  0
 16 32  1  0
 19 33  1  0
 20 34  1  0
 21 35  1  0
M  CHG  1  11  -1
M  END
>  <UniqueID>  (1) 
1

>  <SMILES>  (1) 
CN(C)C(=O)c1cccc([N-]C(=O)c2ccc(Cl)cc2)c1

>  <Energy>  (1) 
44.76683990774719

>  <Genealogy>  (1) 
CN(C)C(=O)c1cccc([N-]C(=O)c2ccc(Cl)cc2)c1 (protonated)
CN(C)C(=O)c1cccc([N-]C(=O)c2ccc(Cl)cc2)c1 (3D coordinates assigned)
CN(C)C(=O)c1cccc([N-]C(=O)c2ccc(Cl)cc2)c1 (optimized conformer: 44.76683990774719 kcal/mol)

>  <smiles>  (1) 
CN(C)C(=O)c1cccc(NC(=O)c2ccc(Cl)cc2)c1

>  <score_type>  (1) 
oracle

>  <origin>  (1) 
adg

>  <m_score__min__energy>  (1) 
-8.9800000000000004

>  <m_primary>  (1) 
energy

$$$$
1:0
     RDKit          3D

 40 42  0  0  0  0  0  0  0  0999 V2000
   56.0490   29.7720   43.3350 C   0  0  0  0  0  0  0  0  0  0  0  0
   56.1950   30.4450   44.5820 O   0  0  0  0  0  0  0  0  0  0  0  0
   57.4270   30.7600   45.1730 C   0  0  0  0  0  0  0  0  0  0  0  0
   58.4020   29.7830   45.4540 C   0  0  0  0  0  0  0  0  0  0  0  0
   59.6060   30.1430   46.0600 C   0  0  0  0  0  0  0  0  0  0  0  0
   59.8700   31.4850   46.3750 C   0  0  0  0  0  0  0  0  0  0  0  0
   58.9090   32.4700   46.0780 C   0  0  0  0  0  0  0  0  0  0  0  0
   57.6870   32.0960   45.4950 C   0  0  0  0  0  0  0  0  0  0  0  0
   59.1750   33.9030   46.4330 C   0  0  0  0  0  0  0  0  0  0  0  0
   60.6530   34.2250   46.2290 C   0  0  0  0  0  0  0  0  0  0  0  0
   61.5010   33.2780   46.9680 N   0  0  0  0  0  0  0  0  0  0  0  0
   62.7630   33.7070   47.5140 C   0  0  0  0  0  0  0  0  0  0  0  0
   63.7580   33.8230   46.7440 O   0  0  0  0  0  0  0  0  0  0  0  0
   62.8860   34.0670   48.9150 N   0  0  0  0  0  0  0  0  0  0  0  0
   63.6190   33.0330   49.6610 C   0  0  0  0  0  0  0  0  0  0  0  0
   62.5930   32.0860   50.2610 C   0  0  0  0  0  0  0  0  0  0  0  0
   61.2850   32.8620   50.2810 C   0  0  0  0  0  0  0  0  0  0  0  0
   61.5650   34.1750   49.5570 C   0  0  0  0  0  0  0  0  0  0  0  0
   61.1610   31.8470   47.0720 C   0  0  0  0  0  0  0  0  0  0  0  0
   55.8189   28.7116   43.5154 H   0  0  0  0  0  0  0  0  0  0  0  0
   55.2299   30.2328   42.7633 H   0  0  0  0  0  0  0  0  0  0  0  0
   56.9854   29.8520   42.7633 H   0  0  0  0  0  0  0  0  0  0  0  0
   58.2132   28.7309   45.1943 H   0  0  0  0  0  0  0  0  0  0  0  0
   60.3533   29.3700   46.2924 H   0  0  0  0  0  0  0  0  0  0  0  0
   56.9256   32.8628   45.2893 H   0  0  0  0  0  0  0  0  0  0  0  0
   58.5675   34.5566   45.7897 H   0  0  0  0  0  0  0  0  0  0  0  0
   58.9113   34.0689   47.4880 H   0  0  0  0  0  0  0  0  0  0  0  0
   60.8912   34.1615   45.1570 H   0  0  0  0  0  0  0  0  0  0  0  0
   60.8477   35.2401   46.6053 H   0  0  0  0  0  0  0  0  0  0  0  0
   63.3950   34.9760   49.0140 H   0  0  0  0  0  0  0  0  0  0  0  0
   64.2860   32.4820   48.9816 H   0  0  0  0  0  0  0  0  0  0  0  0
   64.2332   33.4889   50.4516 H   0  0  0  0  0  0  0  0  0  0  0  0
   62.4946   31.1830   49.6407 H   0  0  0  0  0  0  0  0  0  0  0  0
   62.8851   31.7533   51.2680 H   0  0  0  0  0  0  0  0  0  0  0  0
   60.4978   32.2980   49.7593 H   0  0  0  0  0  0  0  0  0  0  0  0
   60.9346   33.0352   51.3092 H   0  0  0  0  0  0  0  0  0  0  0  0
   60.7926   34.3530   48.7943 H   0  0  0  0  0  0  0  0  0  0  0  0
   61.5528   35.0141   50.2682 H   0  0  0  0  0  0  0  0  0  0  0  0
   61.9763   31.2613   46.6222 H   0  0  0  0  0  0  0  0  0  0  0  0
   61.0277   31.6216   48.1404 H   0  0  0  0  0  0  0  0  0  0  0  0
  1  2  1  0
  2  3  1  0
  3  4  2  0
  4  5  1  0
  5  6  2  0
  6  7  1  0
  7  8  2  0
  7  9  1  0
  9 10  1  0
 10 11  1  0
 11 12  1  0
 12 13  2  0
 12 14  1  0
 14 15  1  0
 15 16  1  0
 16 17  1  0
 17 18  1  0
 11 19  1  0
  8  3  1  0
 18 14  1  0
 19  6  1  0
  1 20  1  0
  1 21  1  0
  1 22  1  0
  4 23  1  0
  5 24  1  0
  8 25  1  0
  9 26  1  0
  9 27  1  0
 10 28  1  0
 10 29  1  0
 14 30  1  0
 15 31  1  0
 15 32  1  0
 16 33  1  0
 16 34  1  0
 17 35  1  0
 17 36  1  0
 18 37  1  0
 18 38  1  0
 19 39  1  0
 19 40  1  0
M  CHG  1  14   1
M  END
>  <UniqueID>  (2) 
2

>  <SMILES>  (2) 
COc1ccc2c(c1)CCN(C(=O)[NH+]1CCCC1)C2

>  <Energy>  (2) 
48.31554914036162

>  <Genealogy>  (2) 
COc1ccc2c(c1)CCN(C(=O)[NH+]1CCCC1)C2 (protonated)
COc1ccc2c(c1)CCN(C(=O)[NH+]1CCCC1)C2 (3D coordinates assigned)
COc1ccc2c(c1)CCN(C(=O)[NH+]1CCCC1)C2 (nonaromatic ring conformer: 48.31554914036162 kcal/mol)

>  <smiles>  (2) 
COc1ccc2c(c1)CCN(C(=O)N1CCCC1)C2

>  <score_type>  (2) 
oracle

>  <origin>  (2) 
adg

>  <m_score__min__energy>  (2) 
-5.1900000000000004

>  <m_primary>  (2) 
energy

$$$$
2:0
     RDKit          3D

 55 58  0  0  0  0  0  0  0  0999 V2000
   60.5560   30.0460   45.9900 C   0  0  0  0  0  0  0  0  0  0  0  0
   60.0040   30.3140   47.3510 C   0  0  0  0  0  0  0  0  0  0  0  0
   60.0620   29.4380   48.3760 N   0  0  0  0  0  0  0  0  0  0  0  0
   59.4190   29.9780   49.4030 N   0  0  0  0  0  0  0  0  0  0  0  0
   59.2400   29.3030   50.6830 C   0  0  0  0  0  0  0  0  0  0  0  0
   58.9180   31.1820   49.0530 C   0  0  0  0  0  0  0  0  0  0  0  0
   58.0910   32.0580   49.9440 C   0  0  0  0  0  0  0  0  0  0  0  0
   59.2830   31.4240   47.7450 C   0  0  0  0  0  0  0  0  0  0  0  0
   58.9370   32.5530   46.9330 N   0  0  0  0  0  0  0  0  0  0  0  0
   57.5500   32.7270   46.4940 C   0  0  0  0  0  0  0  0  0  0  0  0
   57.3580   32.1550   45.1220 C   0  0  0  0  0  0  0  0  0  0  0  0
   57.9360   32.7690   44.0020 C   0  0  0  0  0  0  0  0  0  0  0  0
   57.7870   32.1820   42.7450 C   0  0  0  0  0  0  0  0  0  0  0  0
   57.0660   30.9930   42.6150 C   0  0  0  0  0  0  0  0  0  0  0  0
   56.5030   30.4080   43.7510 C   0  0  0  0  0  0  0  0  0  0  0  0
   56.6640   30.9920   44.9690 N   0  0  0  0  0  0  0  0  0  0  0  0
   60.0310   33.8980   46.8540 S   0  0  0  0  0  0  0  0  0  0  0  0
   60.3880   34.1590   45.4160 O   0  0  0  0  0  0  0  0  0  0  0  0
   59.3750   35.1350   47.4030 O   0  0  0  0  0  0  0  0  0  0  0  0
   61.4870   33.5260   47.7840 C   0  0  0  0  0  0  0  0  0  0  0  0
   62.6190   33.0510   47.1070 C   0  0  0  0  0  0  0  0  0  0  0  0
   63.7650   32.6740   47.8110 C   0  0  0  0  0  0  0  0  0  0  0  0
   63.7970   32.7570   49.2110 C   0  0  0  0  0  0  0  0  0  0  0  0
   65.0070   32.3380   49.9580 C   0  0  0  0  0  0  0  0  0  0  0  0
   66.2120   33.0450   49.7970 C   0  0  0  0  0  0  0  0  0  0  0  0
   67.3580   32.6600   50.5000 C   0  0  0  0  0  0  0  0  0  0  0  0
   67.3140   31.5640   51.3650 C   0  0  0  0  0  0  0  0  0  0  0  0
   66.1250   30.8500   51.5280 C   0  0  0  0  0  0  0  0  0  0  0  0
   64.9740   31.2290   50.8280 C   0  0  0  0  0  0  0  0  0  0  0  0
   63.8420   30.4930   50.9750 F   0  0  0  0  0  0  0  0  0  0  0  0
   62.6700   33.2450   49.8920 C   0  0  0  0  0  0  0  0  0  0  0  0
   61.5200   33.6270   49.1920 C   0  0  0  0  0  0  0  0  0  0  0  0
   60.1500   34.2160   50.1250 Cl  0  0  0  0  0  0  0  0  0  0  0  0
   61.5421   29.5673   46.0820 H   0  0  0  0  0  0  0  0  0  0  0  0
   59.8741   29.3787   45.4426 H   0  0  0  0  0  0  0  0  0  0  0  0
   60.6586   30.9946   45.4426 H   0  0  0  0  0  0  0  0  0  0  0  0
   59.4283   30.0133   51.5016 H   0  0  0  0  0  0  0  0  0  0  0  0
   58.2102   28.9235   50.7565 H   0  0  0  0  0  0  0  0  0  0  0  0
   59.9464   28.4630   50.7565 H   0  0  0  0  0  0  0  0  0  0  0  0
   58.3120   31.8239   50.9958 H   0  0  0  0  0  0  0  0  0  0  0  0
   58.3300   33.1131   49.7451 H   0  0  0  0  0  0  0  0  0  0  0  0
   57.0239   31.8800   49.7451 H   0  0  0  0  0  0  0  0  0  0  0  0
   56.8801   32.2117   47.1980 H   0  0  0  0  0  0  0  0  0  0  0  0
   57.3175   33.8018   46.4671 H   0  0  0  0  0  0  0  0  0  0  0  0
   58.5021   33.7055   44.1133 H   0  0  0  0  0  0  0  0  0  0  0  0
   58.2361   32.6544   41.8589 H   0  0  0  0  0  0  0  0  0  0  0  0
   56.9430   30.5225   41.6284 H   0  0  0  0  0  0  0  0  0  0  0  0
   55.9288   29.4741   43.6609 H   0  0  0  0  0  0  0  0  0  0  0  0
   62.6046   32.9744   46.0098 H   0  0  0  0  0  0  0  0  0  0  0  0
   64.6475   32.3099   47.2645 H   0  0  0  0  0  0  0  0  0  0  0  0
   66.2534   33.9062   49.1139 H   0  0  0  0  0  0  0  0  0  0  0  0
   68.2954   33.2210   50.3716 H   0  0  0  0  0  0  0  0  0  0  0  0
   68.2162   31.2633   51.9179 H   0  0  0  0  0  0  0  0  0  0  0  0
   66.0930   29.9867   52.2090 H   0  0  0  0  0  0  0  0  0  0  0  0
   62.6914   33.3280   50.9887 H   0  0  0  0  0  0  0  0  0  0  0  0
  1  2  1  0
  2  3  2  0
  3  4  1  0
  4  5  1  0
  4  6  1  0
  6  7  1  0
  6  8  2  0
  8  9  1  0
  9 10  1  0
 10 11  1  0
 11 12  2  0
 12 13  1  0
 13 14  2  0
 14 15  1  0
 15 16  2  0
  9 17  1  0
 17 18  2  0
 17 19  2  0
 17 20  1  0
 20 21  2  0
 21 22  1  0
 22 23  2  0
 23 24  1  0
 24 25  2  0
 25 26  1  0
 26 27  2  0
 27 28  1  0
 28 29  2  0
 29 30  1  0
 23 31  1  0
 31 32  2  0
 32 33  1  0
  8  2  1  0
 16 11  1  0
 32 20  1  0
 29 24  1  0
  1 34  1  0
  1 35  1  0
  1 36  1  0
  5 37  1  0
  5 38  1  0
  5 39  1  0
  7 40  1  0
  7 41  1  0
  7 42  1  0
 10 43  1  0
 10 44  1  0
 12 45  1  0
 13 46  1  0
 14 47  1  0
 15 48  1  0
 21 49  1  0
 22 50  1  0
 25 51  1  0
 26 52  1  0
 27 53  1  0
 28 54  1  0
 31 55  1  0
M  END
>  <UniqueID>  (3) 
3

>  <SMILES>  (3) 
Cc1nn(C)c(C)c1N(Cc1ccccn1)S(=O)(=O)c1ccc(-c2ccccc2F)cc1Cl

>  <Energy>  (3) 
98.09174820044781

>  <Genealogy>  (3) 
Cc1nn(C)c(C)c1N(Cc1ccccn1)S(=O)(=O)c1ccc(-c2ccccc2F)cc1Cl (3D coordinates assigned)
Cc1nn(C)c(C)c1N(Cc1ccccn1)S(=O)(=O)c1ccc(-c2ccccc2F)cc1Cl (optimized conformer: 98.09174820044781 kcal/mol)

>  <smiles>  (3) 
Cc1nn(C)c(C)c1N(Cc1ccccn1)S(=O)(=O)c1ccc(-c2ccccc2F)cc1Cl

>  <score_type>  (3) 
oracle

>  <origin>  (3) 
adg

>  <m_score__min__energy>  (3) 
-9.4199999999999999

>  <m_primary>  (3) 
energy

$$$$
3:0
     RDKit          3D

 31 33  0  0  1  0  0  0  0  0999 V2000
   59.7200   25.2650   46.0170 C   0  0  0  0  0  0  0  0  0  0  0  0
   58.8280   26.4300   45.7230 C   0  0  0  0  0  0  0  0  0  0  0  0
   57.4500   26.3570   45.8950 C   0  0  0  0  0  0  0  0  0  0  0  0
   56.6400   27.4420   45.6190 C   0  0  0  0  0  0  0  0  0  0  0  0
   57.2080   28.6120   45.1670 C   0  0  0  0  0  0  0  0  0  0  0  0
   56.4570   29.7800   44.8570 N   0  0  0  0  0  0  0  0  0  0  0  0
   56.8740   30.6980   44.0580 C   0  0  0  0  0  0  0  0  0  0  0  0
   56.6560   30.5970   42.7350 N   0  0  0  0  0  0  0  0  0  0  0  0
   57.1130   31.5860   41.9500 C   0  0  0  0  0  0  0  0  0  0  0  0
   57.7760   32.6560   42.4520 N   0  0  0  0  0  0  0  0  0  0  0  0
   58.0030   32.7680   43.7890 C   0  0  0  0  0  0  0  0  0  0  0  0
   58.6860   33.8730   44.3080 C   0  0  0  0  0  0  0  0  0  0  0  0
   58.8700   33.9040   45.6710 C   0  0  0  0  0  0  0  0  0  0  0  0
   59.7200   35.2630   46.3790 Cl  0  0  0  0  0  0  0  0  0  0  0  0
   58.4250   32.9240   46.5250 C   0  0  0  0  0  0  0  0  0  0  0  0
   57.7470   31.8300   46.0020 C   0  0  0  0  0  0  0  0  0  0  0  0
   57.5460   31.7730   44.6280 C   0  0  0  0  0  0  0  0  0  0  0  0
   58.5910   28.7100   44.9860 C   0  0  0  0  0  0  0  0  0  0  0  0
   59.3910   27.6210   45.2650 C   0  0  0  0  0  0  0  0  0  0  0  0
   59.8147   25.1413   47.1059 H   0  0  0  0  0  0  0  0  0  0  0  0
   59.2874   24.3526   45.5806 H   0  0  0  0  0  0  0  0  0  0  0  0
   60.7136   25.4447   45.5806 H   0  0  0  0  0  0  0  0  0  0  0  0
   56.9980   25.4215   46.2562 H   0  0  0  0  0  0  0  0  0  0  0  0
   55.5512   27.3716   45.7591 H   0  0  0  0  0  0  0  0  0  0  0  0
   56.1440   29.7670   42.3640 H   0  0  0  0  0  0  0  0  0  0  0  0
   56.9438   31.5257   40.8648 H   0  0  0  0  0  0  0  0  0  0  0  0
   59.0580   34.6783   43.6576 H   0  0  0  0  0  0  0  0  0  0  0  0
   58.6030   33.0045   47.6075 H   0  0  0  0  0  0  0  0  0  0  0  0
   57.3783   31.0286   46.6592 H   0  0  0  0  0  0  0  0  0  0  0  0
   59.0377   29.6478   44.6241 H   0  0  0  0  0  0  0  0  0  0  0  0
   60.4797   27.6926   45.1253 H   0  0  0  0  0  0  0  0  0  0  0  0
  1  2  1  0
  2  3  2  0
  3  4  1  0
  4  5  2  0
  5  6  1  0
  6  7  2  0
  7  8  1  0
  8  9  1  0
  9 10  2  0
 10 11  1  0
 11 12  2  0
 12 13  1  0
 13 14  1  0
 13 15  2  0
 15 16  1  0
 16 17  2  0
  5 18  1  0
 18 19  2  0
 19  2  1  0
 17  7  1  0
 17 11  1  0
  1 20  1  0
  1 21  1  0
  1 22  1  0
  3 23  1  0
  4 24  1  0
  8 25  1  0
  9 26  1  0
 12 27  1  0
 15 28  1  0
 16 29  1  0
 18 30  1  0
 19 31  1  0
M  END
>  <smiles>  (4) 
Cc1ccc(N=c2[nH]cnc3cc(Cl)ccc23)cc1

>  <score_type>  (4) 
oracle

>  <origin>  (4) 
adg

>  <m_score__min__energy>  (4) 
-7.21

>  <m_primary>  (4) 
energy

$$$$
4:0
     RDKit          3D

 45 47  0  0  0  0  0  0  0  0999 V2000
   57.8788   24.2260   48.1370 H   0  0  0  0  0  0  0  0  0  0  0  0
   57.5620   25.0820   47.5230 C   0  0  0  0  0  0  0  0  0  0  0  0
   58.2280   26.2640   47.6130 N   0  0  0  0  0  0  0  0  0  0  0  0
   57.8840   27.3520   46.8720 C   0  0  0  0  0  0  0  0  0  0  0  0
   58.5830   28.4450   47.0140 N   0  0  0  0  0  0  0  0  0  0  0  0
   59.4800   29.0560   46.0320 C   0  0  0  0  0  0  0  0  0  0  0  0
   59.1331   28.7991   45.0202 H   0  0  0  0  0  0  0  0  0  0  0  0
   60.4967   28.6721   46.2019 H   0  0  0  0  0  0  0  0  0  0  0  0
   59.5050   30.5610   46.1780 C   0  0  0  0  0  0  0  0  0  0  0  0
   60.6570   31.1890   46.6760 C   0  0  0  0  0  0  0  0  0  0  0  0
   61.5353   30.5835   46.9441 H   0  0  0  0  0  0  0  0  0  0  0  0
   60.6980   32.5750   46.8340 C   0  0  0  0  0  0  0  0  0  0  0  0
   62.2650   33.4120   47.5320 Br  0  0  0  0  0  0  0  0  0  0  0  0
   59.5840   33.3480   46.5020 C   0  0  0  0  0  0  0  0  0  0  0  0
   59.6118   34.4383   46.6454 H   0  0  0  0  0  0  0  0  0  0  0  0
   58.4330   32.7430   45.9880 C   0  0  0  0  0  0  0  0  0  0  0  0
   57.0210   33.7490   45.6920 Cl  0  0  0  0  0  0  0  0  0  0  0  0
   58.3970   31.3470   45.7920 C   0  0  0  0  0  0  0  0  0  0  0  0
   57.2620   30.7280   45.2520 O   0  0  0  0  0  0  0  0  0  0  0  0
   57.1590   30.3490   43.8780 C   0  0  0  0  0  0  0  0  0  0  0  0
   57.9528   29.6249   43.6423 H   0  0  0  0  0  0  0  0  0  0  0  0
   57.2662   31.2480   43.2533 H   0  0  0  0  0  0  0  0  0  0  0  0
   55.8040   29.7150   43.5970 C   0  0  0  0  0  0  0  0  0  0  0  0
   55.9407   28.8258   42.9641 H   0  0  0  0  0  0  0  0  0  0  0  0
   55.1622   30.4426   43.0787 H   0  0  0  0  0  0  0  0  0  0  0  0
   55.2060   29.3440   44.7880 F   0  0  0  0  0  0  0  0  0  0  0  0
   56.7970   27.2570   45.9810 C   0  0  0  0  0  0  0  0  0  0  0  0
   56.4986   28.1262   45.3764 H   0  0  0  0  0  0  0  0  0  0  0  0
   56.1020   26.0530   45.8710 C   0  0  0  0  0  0  0  0  0  0  0  0
   55.2590   25.9686   45.1694 H   0  0  0  0  0  0  0  0  0  0  0  0
   56.4740   24.9510   46.6510 C   0  0  0  0  0  0  0  0  0  0  0  0
   55.7610   23.6340   46.5080 C   0  0  0  0  0  0  0  0  0  0  0  0
   55.9710   23.0095   47.3889 H   0  0  0  0  0  0  0  0  0  0  0  0
   54.6795   23.8181   46.4276 H   0  0  0  0  0  0  0  0  0  0  0  0
   56.2310   22.9210   45.2700 C   0  0  0  0  0  0  0  0  0  0  0  0
   55.7830   23.3320   44.0030 C   0  0  0  0  0  0  0  0  0  0  0  0
   55.1096   24.1972   43.9135 H   0  0  0  0  0  0  0  0  0  0  0  0
   56.1910   22.6440   42.8550 C   0  0  0  0  0  0  0  0  0  0  0  0
   55.8449   22.9745   41.8645 H   0  0  0  0  0  0  0  0  0  0  0  0
   57.0380   21.5370   42.9650 C   0  0  0  0  0  0  0  0  0  0  0  0
   57.3581   20.9974   42.0614 H   0  0  0  0  0  0  0  0  0  0  0  0
   57.4780   21.1160   44.2230 C   0  0  0  0  0  0  0  0  0  0  0  0
   58.1434   20.2443   44.3089 H   0  0  0  0  0  0  0  0  0  0  0  0
   57.0730   21.8020   45.3730 C   0  0  0  0  0  0  0  0  0  0  0  0
   57.4156   21.4634   46.3620 H   0  0  0  0  0  0  0  0  0  0  0  0
  1  2  1  0
  2  3  1  0
  3  4  1  0
  4  5  2  0
  5  6  1  0
  6  7  1  0
  6  8  1  0
  6  9  1  0
  9 10  2  0
 10 11  1  0
 10 12  1  0
 12 13  1  0
 12 14  2  0
 14 15  1  0
 14 16  1  0
 16 17  1  0
 16 18  2  0
 18 19  1  0
 19 20  1  0
 20 21  1  0
 20 22  1  0
 20 23  1  0
 23 24  1  0
 23 25  1  0
 23 26  1  0
  4 27  1  0
 27 28  1  0
 27 29  2  0
 29 30  1  0
 29 31  1  0
 31 32  1  0
 32 33  1  0
 32 34  1  0
 32 35  1  0
 35 36  2  0
 36 37  1  0
 36 38  1  0
 38 39  1  0
 38 40  2  0
 40 41  1  0
 40 42  1  0
 42 43  1  0
 42 44  2  0
 44 45  1  0
 31  2  2  0
 44 35  1  0
 18  9  1  0
M  CHG  1   3  -1
M  END
>  <UniqueID>  (5) 
4

>  <SMILES>  (5) 
FCCOc1c(Cl)cc(Br)cc1C/N=c1\ccc(Cc2ccccc2)c[n-]1

>  <Energy>  (5) 
52.16261539804137

>  <Genealogy>  (5) 
FCCOc1c(Cl)cc(Br)cc1CN=c1ccc(Cc2ccccc2)c[n-]1 (protonated)
FCCOc1c(Cl)cc(Br)cc1C/N=c1\ccc(Cc2ccccc2)c[n-]1 (cis-trans isomerization)
FCCOc1c(Cl)cc(Br)cc1C/N=c1\ccc(Cc2ccccc2)c[n-]1 (3D coordinates assigned)
FCCOc1c(Cl)cc(Br)cc1C/N=c1\ccc(Cc2ccccc2)c[n-]1 (optimized conformer: 52.16261539804137 kcal/mol)

>  <smiles>  (5) 
FCCOc1c(Cl)cc(Br)cc1CN=c1ccc(Cc2ccccc2)c[nH]1

>  <score_type>  (5) 
oracle

>  <origin>  (5) 
adg

>  <m_score__min__energy>  (5) 
-9.8499999999999996

>  <m_primary>  (5) 
energy

$$$$
5:0
     RDKit          3D

 27 27  0  0  0  0  0  0  0  0999 V2000
   59.5750   34.9230   47.4660 C   0  0  0  0  0  0  0  0  0  0  0  0
   59.6860   35.3370   45.9980 C   0  0  0  0  0  0  0  0  0  0  0  0
   58.6560   34.6200   45.1030 C   0  0  0  0  0  0  0  0  0  0  0  0
   57.6200   33.8080   45.8970 C   0  0  0  0  0  0  0  0  0  0  0  0
   57.8900   32.3620   45.8370 N   0  0  0  0  0  0  0  0  0  0  0  0
   58.5760   31.7100   46.9610 C   0  0  0  0  0  0  0  0  0  0  0  0
   57.3940   31.5810   44.7210 C   0  0  0  0  0  0  0  0  0  0  0  0
   57.6520   31.9440   43.3850 C   0  0  0  0  0  0  0  0  0  0  0  0
   57.1600   31.1810   42.3730 N   0  0  0  0  0  0  0  0  0  0  0  0
   56.4200   30.0710   42.6210 C   0  0  0  0  0  0  0  0  0  0  0  0
   56.1580   29.7030   43.9390 C   0  0  0  0  0  0  0  0  0  0  0  0
   56.6490   30.4630   44.9520 N   0  0  0  0  0  0  0  0  0  0  0  0
   59.8062   35.7853   48.1086 H   0  0  0  0  0  0  0  0  0  0  0  0
   58.5520   34.5755   47.6726 H   0  0  0  0  0  0  0  0  0  0  0  0
   60.2870   34.1104   47.6726 H   0  0  0  0  0  0  0  0  0  0  0  0
   59.5226   36.4223   45.9242 H   0  0  0  0  0  0  0  0  0  0  0  0
   60.6890   35.0542   45.6459 H   0  0  0  0  0  0  0  0  0  0  0  0
   58.1243   35.3768   44.5076 H   0  0  0  0  0  0  0  0  0  0  0  0
   59.2113   33.9105   44.4719 H   0  0  0  0  0  0  0  0  0  0  0  0
   57.6455   34.1308   46.9482 H   0  0  0  0  0  0  0  0  0  0  0  0
   56.6314   33.9882   45.4497 H   0  0  0  0  0  0  0  0  0  0  0  0
   58.1722   32.0938   47.9095 H   0  0  0  0  0  0  0  0  0  0  0  0
   58.4160   30.6230   46.9075 H   0  0  0  0  0  0  0  0  0  0  0  0
   59.6534   31.9250   46.9075 H   0  0  0  0  0  0  0  0  0  0  0  0
   58.2487   32.8406   43.1613 H   0  0  0  0  0  0  0  0  0  0  0  0
   56.0302   29.4668   41.7885 H   0  0  0  0  0  0  0  0  0  0  0  0
   55.5596   28.8061   44.1570 H   0  0  0  0  0  0  0  0  0  0  0  0
  1  2  1  0
  2  3  1  0
  3  4  1  0
  4  5  1  0
  5  6  1  0
  5  7  1  0
  7  8  2  0
  8  9  1  0
  9 10  2  0
 10 11  1  0
 11 12  2  0
 12  7  1  0
  1 13  1  0
  1 14  1  0
  1 15  1  0
  2 16  1  0
  2 17  1  0
  3 18  1  0
  3 19  1  0
  4 20  1  0
  4 21  1  0
  6 22  1  0
  6 23  1  0
  6 24  1  0
  8 25  1  0
 10 26  1  0
 11 27  1  0
M  END
>  <UniqueID>  (6) 
5

>  <SMILES>  (6) 
CCCCN(C)c1cnccn1

>  <Energy>  (6) 
21.65967038023457

>  <Genealogy>  (6) 
CCCCN(C)c1cnccn1 (3D coordinates assigned)
CCCCN(C)c1cnccn1 (optimized conformer: 21.65967038023457 kcal/mol)

>  <smiles>  (6) 
CCCCN(C)c1cnccn1

>  <score_type>  (6) 
oracle

>  <origin>  (6) 
adg

>  <m_score__min__energy>  (6) 
-4.7000000000000002

>  <m_primary>  (6) 
energy

$$$$
6:0
     RDKit          3D

 53 54  0  0  0  0  0  0  0  0999 V2000
   58.1350   32.3327   43.2998 H   0  0  0  0  0  0  0  0  0  0  0  0
   57.3800   31.8190   43.9130 C   0  0  0  0  0  0  0  0  0  0  0  0
   57.0820   32.2720   45.0940 N   0  0  0  0  0  0  0  0  0  0  0  0
   57.9940   32.4780   46.1880 C   0  0  0  0  0  0  0  0  0  0  0  0
   58.4850   31.3520   46.8600 C   0  0  0  0  0  0  0  0  0  0  0  0
   58.1601   30.3481   46.5491 H   0  0  0  0  0  0  0  0  0  0  0  0
   59.3830   31.4900   47.9210 C   0  0  0  0  0  0  0  0  0  0  0  0
   59.7470   30.5962   48.4488 H   0  0  0  0  0  0  0  0  0  0  0  0
   59.8240   32.7630   48.3180 C   0  0  0  0  0  0  0  0  0  0  0  0
   60.7330   32.9090   49.4270 N   0  0  0  0  0  0  0  0  0  0  0  0
   61.4570   32.1520   49.3910 H   0  0  0  0  0  0  0  0  0  0  0  0
   60.2090   32.8090   50.3280 H   0  0  0  0  0  0  0  0  0  0  0  0
   61.3840   34.2260   49.3760 C   0  0  0  0  0  0  0  0  0  0  0  0
   61.3296   34.6934   50.3703 H   0  0  0  0  0  0  0  0  0  0  0  0
   60.8643   34.8463   48.6309 H   0  0  0  0  0  0  0  0  0  0  0  0
   62.8520   34.0940   48.9640 C   0  0  0  0  0  0  0  0  0  0  0  0
   63.4976   34.3975   49.8013 H   0  0  0  0  0  0  0  0  0  0  0  0
   63.0518   34.7412   48.0973 H   0  0  0  0  0  0  0  0  0  0  0  0
   63.1340   32.6840   48.6070 N   0  0  0  0  0  0  0  0  0  0  0  0
   63.3730   32.5070   47.1570 C   0  0  0  0  0  0  0  0  0  0  0  0
   62.5968   31.8437   46.7477 H   0  0  0  0  0  0  0  0  0  0  0  0
   64.3757   32.0733   47.0287 H   0  0  0  0  0  0  0  0  0  0  0  0
   63.3340   33.8360   46.4030 C   0  0  0  0  0  0  0  0  0  0  0  0
   63.3096   34.6662   47.1242 H   0  0  0  0  0  0  0  0  0  0  0  0
   64.2299   33.9255   45.7711 H   0  0  0  0  0  0  0  0  0  0  0  0
   62.4344   33.8728   45.7711 H   0  0  0  0  0  0  0  0  0  0  0  0
   64.1560   32.0660   49.4900 C   0  0  0  0  0  0  0  0  0  0  0  0
   63.6671   31.7690   50.4296 H   0  0  0  0  0  0  0  0  0  0  0  0
   64.5747   31.2099   48.9407 H   0  0  0  0  0  0  0  0  0  0  0  0
   65.3320   32.9930   49.8300 C   0  0  0  0  0  0  0  0  0  0  0  0
   65.4325   33.0722   50.9225 H   0  0  0  0  0  0  0  0  0  0  0  0
   66.2590   32.5801   49.4055 H   0  0  0  0  0  0  0  0  0  0  0  0
   65.1470   33.9908   49.4055 H   0  0  0  0  0  0  0  0  0  0  0  0
   59.3320   33.8950   47.6480 C   0  0  0  0  0  0  0  0  0  0  0  0
   59.6589   34.8980   47.9596 H   0  0  0  0  0  0  0  0  0  0  0  0
   58.4300   33.7580   46.5880 C   0  0  0  0  0  0  0  0  0  0  0  0
   58.0594   34.6517   46.0646 H   0  0  0  0  0  0  0  0  0  0  0  0
   56.6930   30.5960   43.3890 C   0  0  0  0  0  0  0  0  0  0  0  0
   55.7127   30.8879   42.9843 H   0  0  0  0  0  0  0  0  0  0  0  0
   57.3365   30.1577   42.6120 H   0  0  0  0  0  0  0  0  0  0  0  0
   56.4840   29.5490   44.4570 C   0  0  0  0  0  0  0  0  0  0  0  0
   55.3120   29.3120   44.8700 O   0  0  0  0  0  0  0  0  0  0  0  0
   57.6170   28.7530   44.9980 C   0  0  0  0  0  0  0  0  0  0  0  0
   57.3800   27.7620   45.9710 C   0  0  0  0  0  0  0  0  0  0  0  0
   56.3551   27.5823   46.3278 H   0  0  0  0  0  0  0  0  0  0  0  0
   58.4360   27.0050   46.4870 C   0  0  0  0  0  0  0  0  0  0  0  0
   58.2391   26.2359   47.2484 H   0  0  0  0  0  0  0  0  0  0  0  0
   59.7400   27.2230   46.0380 C   0  0  0  0  0  0  0  0  0  0  0  0
   60.5698   26.6283   46.4477 H   0  0  0  0  0  0  0  0  0  0  0  0
   59.9900   28.1960   45.0690 C   0  0  0  0  0  0  0  0  0  0  0  0
   61.0173   28.3650   44.7139 H   0  0  0  0  0  0  0  0  0  0  0  0
   58.9380   28.9570   44.5480 C   0  0  0  0  0  0  0  0  0  0  0  0
   59.1425   29.7197   43.7822 H   0  0  0  0  0  0  0  0  0  0  0  0
  1  2  1  0
  2  3  2  0
  3  4  1  0
  4  5  2  0
  5  6  1  0
  5  7  1  0
  7  8  1  0
  7  9  2  0
  9 10  1  0
 10 11  1  0
 10 12  1  0
 10 13  1  0
 13 14  1  0
 13 15  1  0
 13 16  1  0
 16 17  1  0
 16 18  1  0
 16 19  1  0
 19 20  1  0
 20 21  1  0
 20 22  1  0
 20 23  1  0
 23 24  1  0
 23 25  1  0
 23 26  1  0
 19 27  1  0
 27 28  1  0
 27 29  1  0
 27 30  1  0
 30 31  1  0
 30 32  1  0
 30 33  1  0
  9 34  1  0
 34 35  1  0
 34 36  2  0
 36 37  1  0
  2 38  1  0
 38 39  1  0
 38 40  1  0
 38 41  1  0
 41 42  2  0
 41 43  1  0
 43 44  2  0
 44 45  1  0
 44 46  1  0
 46 47  1  0
 46 48  2  0
 48 49  1  0
 48 50  1  0
 50 51  1  0
 50 52  2  0
 52 53  1  0
 36  4  1  0
 52 43  1  0
M  CHG  1  10   1
M  END
>  <UniqueID>  (7) 
6

>  <SMILES>  (7) 
CCN(CC)CC[NH2+]c1ccc(/N=C/CC(=O)c2ccccc2)cc1

>  <Energy>  (7) 
57.70289821048126

>  <Genealogy>  (7) 
CCN(CC)CC[NH2+]c1ccc(N=CCC(=O)c2ccccc2)cc1 (protonated)
CCN(CC)CC[NH2+]c1ccc(/N=C/CC(=O)c2ccccc2)cc1 (cis-trans isomerization)
CCN(CC)CC[NH2+]c1ccc(/N=C/CC(=O)c2ccccc2)cc1 (3D coordinates assigned)
CCN(CC)CC[NH2+]c1ccc(/N=C/CC(=O)c2ccccc2)cc1 (optimized conformer: 57.70289821048126 kcal/mol)

>  <smiles>  (7) 
CCN(CC)CCNc1ccc(N=CCC(=O)c2ccccc2)cc1

>  <score_type>  (7) 
oracle

>  <origin>  (7) 
adg

>  <m_score__min__energy>  (7) 
-6.6799999999999997

>  <m_primary>  (7) 
energy

$$$$
7:0
     RDKit          3D

 42 44  0  0  0  0  0  0  0  0999 V2000
   55.7220   25.6050   45.9530 C   0  0  0  0  0  0  0  0  0  0  0  0
   56.0820   26.9810   45.9880 O   0  0  0  0  0  0  0  0  0  0  0  0
   57.4020   27.4620   45.9580 C   0  0  0  0  0  0  0  0  0  0  0  0
   58.3330   27.1370   46.9640 C   0  0  0  0  0  0  0  0  0  0  0  0
   59.6550   27.5820   46.8750 C   0  0  0  0  0  0  0  0  0  0  0  0
   60.0630   28.3490   45.7830 C   0  0  0  0  0  0  0  0  0  0  0  0
   59.1480   28.6850   44.7850 C   0  0  0  0  0  0  0  0  0  0  0  0
   57.8140   28.2680   44.8740 C   0  0  0  0  0  0  0  0  0  0  0  0
   56.9340   28.6410   43.8500 O   0  0  0  0  0  0  0  0  0  0  0  0
   56.3980   29.9250   43.6970 C   0  0  0  0  0  0  0  0  0  0  0  0
   55.5590   30.3780   44.5230 O   0  0  0  0  0  0  0  0  0  0  0  0
   56.9020   30.8050   42.5950 C   0  0  0  0  0  0  0  0  0  0  0  0
   58.1370   31.6040   43.0300 C   0  0  0  0  0  0  0  0  0  0  0  0
   57.7660   32.8840   43.7880 C   0  0  0  0  0  0  0  0  0  0  0  0
   58.4630   32.9310   45.0710 N   0  0  0  0  0  0  0  0  0  0  0  0
   58.2770   32.0320   46.1670 C   0  0  0  0  0  0  0  0  0  0  0  0
   57.6870   30.9220   46.0820 O   0  0  0  0  0  0  0  0  0  0  0  0
   58.8390   32.6040   47.3860 C   0  0  0  0  0  0  0  0  0  0  0  0
   58.9010   32.1010   48.6840 C   0  0  0  0  0  0  0  0  0  0  0  0
   59.5000   32.9020   49.6740 C   0  0  0  0  0  0  0  0  0  0  0  0
   60.0130   34.1760   49.3500 C   0  0  0  0  0  0  0  0  0  0  0  0
   59.9350   34.6630   48.0320 C   0  0  0  0  0  0  0  0  0  0  0  0
   59.3420   33.8490   47.0680 C   0  0  0  0  0  0  0  0  0  0  0  0
   59.1010   34.0740   45.6480 C   0  0  0  0  0  0  0  0  0  0  0  0
   59.3820   35.1240   45.0120 O   0  0  0  0  0  0  0  0  0  0  0  0
   55.6228   25.2257   46.9808 H   0  0  0  0  0  0  0  0  0  0  0  0
   54.7636   25.4900   45.4256 H   0  0  0  0  0  0  0  0  0  0  0  0
   56.5013   25.0354   45.4256 H   0  0  0  0  0  0  0  0  0  0  0  0
   58.0176   26.5292   47.8249 H   0  0  0  0  0  0  0  0  0  0  0  0
   60.3748   27.3272   47.6669 H   0  0  0  0  0  0  0  0  0  0  0  0
   61.1066   28.6888   45.7091 H   0  0  0  0  0  0  0  0  0  0  0  0
   59.4768   29.2820   43.9216 H   0  0  0  0  0  0  0  0  0  0  0  0
   57.1685   30.1781   41.7313 H   0  0  0  0  0  0  0  0  0  0  0  0
   56.1062   31.5177   42.3328 H   0  0  0  0  0  0  0  0  0  0  0  0
   58.7545   30.9717   43.6849 H   0  0  0  0  0  0  0  0  0  0  0  0
   58.6841   31.8978   42.1220 H   0  0  0  0  0  0  0  0  0  0  0  0
   58.0534   33.7588   43.1862 H   0  0  0  0  0  0  0  0  0  0  0  0
   56.6810   32.8922   43.9687 H   0  0  0  0  0  0  0  0  0  0  0  0
   58.4943   31.1084   48.9274 H   0  0  0  0  0  0  0  0  0  0  0  0
   59.5688   32.5323   50.7077 H   0  0  0  0  0  0  0  0  0  0  0  0
   60.4773   34.7930   50.1334 H   0  0  0  0  0  0  0  0  0  0  0  0
   60.3299   35.6558   47.7704 H   0  0  0  0  0  0  0  0  0  0  0  0
  1  2  1  0
  2  3  1  0
  3  4  2  0
  4  5  1  0
  5  6  2  0
  6  7  1  0
  7  8  2  0
  8  9  1  0
  9 10  1  0
 10 11  2  0
 10 12  1  0
 12 13  1  0
 13 14  1  0
 14 15  1  0
 15 16  1  0
 16 17  2  0
 16 18  1  0
 18 19  2  0
 19 20  1  0
 20 21  2  0
 21 22  1  0
 22 23  2  0
 23 24  1  0
 24 25  2  0
  8  3  1  0
 24 15  1  0
 23 18  1  0
  1 26  1  0
  1 27  1  0
  1 28  1  0
  4 29  1  0
  5 30  1  0
  6 31  1  0
  7 32  1  0
 12 33  1  0
 12 34  1  0
 13 35  1  0
 13 36  1  0
 14 37  1  0
 14 38  1  0
 19 39  1  0
 20 40  1  0
 21 41  1  0
 22 42  1  0
M  END
>  <UniqueID>  (8) 
7

>  <SMILES>  (8) 
COc1ccccc1OC(=O)CCCN1C(=O)c2ccccc2C1=O

>  <Energy>  (8) 
75.57843319307447

>  <Genealogy>  (8) 
COc1ccccc1OC(=O)CCCN1C(=O)c2ccccc2C1=O (3D coordinates assigned)
COc1ccccc1OC(=O)CCCN1C(=O)c2ccccc2C1=O (nonaromatic ring conformer: 75.57843319307447 kcal/mol)

>  <smiles>  (8) 
COc1ccccc1OC(=O)CCCN1C(=O)c2ccccc2C1=O

>  <score_type>  (8) 
oracle

>  <origin>  (8) 
adg

>  <m_score__min__energy>  (8) 
-8.4299999999999997

>  <m_primary>  (8) 
energy

$$$$
8:0
     RDKit          3D

 42 44  0  0  0  0  0  0  0  0999 V2000
   56.9820   30.6480   43.7550 C   0  0  0  0  0  0  0  0  0  0  0  0
   56.6340   31.6190   44.7370 O   0  0  0  0  0  0  0  0  0  0  0  0
   57.5590   32.4220   45.4200 C   0  0  0  0  0  0  0  0  0  0  0  0
   57.8690   33.6780   44.8890 C   0  0  0  0  0  0  0  0  0  0  0  0
   58.7860   34.5140   45.5310 C   0  0  0  0  0  0  0  0  0  0  0  0
   59.3990   34.1020   46.7170 C   0  0  0  0  0  0  0  0  0  0  0  0
   59.0910   32.8520   47.2740 C   0  0  0  0  0  0  0  0  0  0  0  0
   59.7540   32.4000   48.5490 C   0  0  0  0  0  0  0  0  0  0  0  0
   59.0960   31.2520   49.0870 O   0  0  0  0  0  0  0  0  0  0  0  0
   59.4540   29.9160   48.8370 C   0  0  0  0  0  0  0  0  0  0  0  0
   58.9030   29.1770   47.7710 C   0  0  0  0  0  0  0  0  0  0  0  0
   59.2760   27.8410   47.5580 C   0  0  0  0  0  0  0  0  0  0  0  0
   58.7430   27.0610   46.4210 C   0  0  0  0  0  0  0  0  0  0  0  0
   57.5490   26.4460   46.4200 C   0  0  0  0  0  0  0  0  0  0  0  0
   57.2830   24.7120   46.8300 S   0  0  0  0  0  0  0  0  0  0  0  0
   55.5650   24.9370   46.3600 C   0  0  0  0  0  0  0  0  0  0  0  0
   54.7310   23.9970   46.4110 O   0  0  0  0  0  0  0  0  0  0  0  0
   55.1910   26.2360   45.9250 N   0  0  0  0  0  0  0  0  0  0  0  0
   56.3190   27.0890   45.9580 C   0  0  0  0  0  0  0  0  0  0  0  0
   56.2480   28.2980   45.6100 O   0  0  0  0  0  0  0  0  0  0  0  0
   60.2410   27.2590   48.3880 C   0  0  0  0  0  0  0  0  0  0  0  0
   60.7900   27.9810   49.4500 C   0  0  0  0  0  0  0  0  0  0  0  0
   60.3960   29.3130   49.6830 C   0  0  0  0  0  0  0  0  0  0  0  0
   60.9250   30.0700   50.7410 O   0  0  0  0  0  0  0  0  0  0  0  0
   62.1390   30.8100   50.6750 C   0  0  0  0  0  0  0  0  0  0  0  0
   58.1800   32.0070   46.6160 C   0  0  0  0  0  0  0  0  0  0  0  0
   57.3129   29.7248   44.2533 H   0  0  0  0  0  0  0  0  0  0  0  0
   56.1055   30.4316   43.1266 H   0  0  0  0  0  0  0  0  0  0  0  0
   57.7965   31.0376   43.1266 H   0  0  0  0  0  0  0  0  0  0  0  0
   57.3868   34.0106   43.9580 H   0  0  0  0  0  0  0  0  0  0  0  0
   59.0257   35.4981   45.1020 H   0  0  0  0  0  0  0  0  0  0  0  0
   60.1257   34.7602   47.2157 H   0  0  0  0  0  0  0  0  0  0  0  0
   60.8039   32.1478   48.3391 H   0  0  0  0  0  0  0  0  0  0  0  0
   59.6942   33.2159   49.2843 H   0  0  0  0  0  0  0  0  0  0  0  0
   58.1731   29.6522   47.0991 H   0  0  0  0  0  0  0  0  0  0  0  0
   59.3646   26.9790   45.5172 H   0  0  0  0  0  0  0  0  0  0  0  0
   60.5693   26.2257   48.2026 H   0  0  0  0  0  0  0  0  0  0  0  0
   61.5336   27.5071   50.1076 H   0  0  0  0  0  0  0  0  0  0  0  0
   62.4928   31.0257   51.6940 H   0  0  0  0  0  0  0  0  0  0  0  0
   62.8987   30.2212   50.1400 H   0  0  0  0  0  0  0  0  0  0  0  0
   61.9638   31.7550   50.1400 H   0  0  0  0  0  0  0  0  0  0  0  0
   57.9505   31.0168   47.0365 H   0  0  0  0  0  0  0  0  0  0  0  0
  1  2  1  0
  2  3  1  0
  3  4  2  0
  4  5  1  0
  5  6  2  0
  6  7  1  0
  7  8  1  0
  8  9  1  0
  9 10  1  0
 10 11  2  0
 11 12  1  0
 12 13  1  0
 13 14  2  3
 14 15  1  0
 15 16  1  0
 16 17  2  0
 16 18  1  0
 18 19  1  0
 19 20  2  0
 12 21  2  0
 21 22  1  0
 22 23  2  0
 23 24  1  0
 24 25  1  0
  7 26  2  0
 26  3  1  0
 23 10  1  0
 19 14  1  0
  1 27  1  0
  1 28  1  0
  1 29  1  0
  4 30  1  0
  5 31  1  0
  6 32  1  0
  8 33  1  0
  8 34  1  0
 11 35  1  0
 13 36  1  0
 21 37  1  0
 22 38  1  0
 25 39  1  0
 25 40  1  0
 25 41  1  0
 26 42  1  0
M  CHG  1  18  -1
M  END
>  <UniqueID>  (9) 
8

>  <SMILES>  (9) 
COc1cccc(COc2cc(C=C3SC(=O)[N-]C3=O)ccc2OC)c1

>  <Energy>  (9) 
66.59662842804941

>  <Genealogy>  (9) 
COc1cccc(COc2cc(C=C3SC(=O)[N-]C3=O)ccc2OC)c1 (protonated)
COc1cccc(COc2cc(C=C3SC(=O)[N-]C3=O)ccc2OC)c1 (3D coordinates assigned)
COc1cccc(COc2cc(C=C3SC(=O)[N-]C3=O)ccc2OC)c1 (nonaromatic ring conformer: 66.59662842804941 kcal/mol)

>  <smiles>  (9) 
COc1cccc(COc2cc(C=C3SC(=O)NC3=O)ccc2OC)c1

>  <score_type>  (9) 
oracle

>  <origin>  (9) 
adg

>  <m_score__min__energy>  (9) 
-10.08

>  <m_primary>  (9) 
energy

$$$$
9:0
     RDKit          3D

 45 48  0  0  0  0  0  0  0  0999 V2000
   58.0900   35.1430   43.9439 H   0  0  0  0  0  0  0  0  0  0  0  0
   58.2830   34.5800   44.8690 C   0  0  0  0  0  0  0  0  0  0  0  0
   57.2000   34.0890   45.6300 C   0  0  0  0  0  0  0  0  0  0  0  0
   56.1683   34.2705   45.2944 H   0  0  0  0  0  0  0  0  0  0  0  0
   57.4340   33.3690   46.8150 C   0  0  0  0  0  0  0  0  0  0  0  0
   56.5992   32.9788   47.4157 H   0  0  0  0  0  0  0  0  0  0  0  0
   58.7570   33.1650   47.2050 C   0  0  0  0  0  0  0  0  0  0  0  0
   59.8100   33.6440   46.4730 C   0  0  0  0  0  0  0  0  0  0  0  0
   59.6070   34.3540   45.2860 C   0  0  0  0  0  0  0  0  0  0  0  0
   60.4577   34.7250   44.6956 H   0  0  0  0  0  0  0  0  0  0  0  0
   60.9710   33.2470   47.1240 C   0  0  0  0  0  0  0  0  0  0  0  0
   62.2470   33.3350   46.5910 C   0  0  0  0  0  0  0  0  0  0  0  0
   62.3279   33.7244   45.5654 H   0  0  0  0  0  0  0  0  0  0  0  0
   63.4340   32.9820   47.2190 C   0  0  0  0  0  0  0  0  0  0  0  0
   64.3153   32.9000   46.5659 H   0  0  0  0  0  0  0  0  0  0  0  0
   63.6550   32.7160   48.5810 C   0  0  0  0  0  0  0  0  0  0  0  0
   62.6570   32.3150   49.5260 C   0  0  0  0  0  0  0  0  0  0  0  0
   63.0230   32.3390   50.8910 C   0  0  0  0  0  0  0  0  0  0  0  0
   62.2497   32.1803   51.6570 H   0  0  0  0  0  0  0  0  0  0  0  0
   64.3350   32.5580   51.2880 C   0  0  0  0  0  0  0  0  0  0  0  0
   64.6032   32.5518   52.3548 H   0  0  0  0  0  0  0  0  0  0  0  0
   65.3000   32.7840   50.3240 C   0  0  0  0  0  0  0  0  0  0  0  0
   66.3540   32.8974   50.6177 H   0  0  0  0  0  0  0  0  0  0  0  0
   64.9490   32.8660   49.0180 N   0  0  0  0  0  0  0  0  0  0  0  0
   65.7130   33.0980   48.3420 H   0  0  0  0  0  0  0  0  0  0  0  0
   61.3380   31.8890   49.2010 C   0  0  0  0  0  0  0  0  0  0  0  0
   60.7690   30.8720   49.8020 N   0  0  0  0  0  0  0  0  0  0  0  0
   60.0160   30.8310   51.0580 C   0  0  0  0  0  0  0  0  0  0  0  0
   60.1238   31.7915   51.5831 H   0  0  0  0  0  0  0  0  0  0  0  0
   60.4041   30.0229   51.6954 H   0  0  0  0  0  0  0  0  0  0  0  0
   58.5400   30.5790   50.7510 C   0  0  0  0  0  0  0  0  0  0  0  0
   58.1630   29.7889   51.4171 H   0  0  0  0  0  0  0  0  0  0  0  0
   58.4466   30.2705   49.6993 H   0  0  0  0  0  0  0  0  0  0  0  0
   57.7420   31.8090   50.9570 N   0  0  0  0  0  0  0  0  0  0  0  0
   58.5810   32.9060   51.4710 C   0  0  0  0  0  0  0  0  0  0  0  0
   58.5700   32.8916   52.5709 H   0  0  0  0  0  0  0  0  0  0  0  0
   59.6131   32.7770   51.1129 H   0  0  0  0  0  0  0  0  0  0  0  0
   58.1862   33.8683   51.1129 H   0  0  0  0  0  0  0  0  0  0  0  0
   56.6450   31.5500   51.9050 C   0  0  0  0  0  0  0  0  0  0  0  0
   57.0216   31.6389   52.9347 H   0  0  0  0  0  0  0  0  0  0  0  0
   55.8407   32.2829   51.7442 H   0  0  0  0  0  0  0  0  0  0  0  0
   56.2534   30.5347   51.7442 H   0  0  0  0  0  0  0  0  0  0  0  0
   60.5480   32.5420   48.2500 C   0  0  0  0  0  0  0  0  0  0  0  0
   59.1900   32.4840   48.2750 N   0  0  0  0  0  0  0  0  0  0  0  0
   58.5870   32.0120   48.9870 H   0  0  0  0  0  0  0  0  0  0  0  0
  1  2  1  0
  2  3  2  0
  3  4  1  0
  3  5  1  0
  5  6  1  0
  5  7  2  0
  7  8  1  0
  8  9  2  0
  9 10  1  0
  8 11  1  0
 11 12  1  0
 12 13  1  0
 12 14  2  0
 14 15  1  0
 14 16  1  0
 16 17  2  0
 17 18  1  0
 18 19  1  0
 18 20  2  0
 20 21  1  0
 20 22  1  0
 22 23  1  0
 22 24  2  0
 24 25  1  0
 17 26  1  0
 26 27  2  0
 27 28  1  0
 28 29  1  0
 28 30  1  0
 28 31  1  0
 31 32  1  0
 31 33  1  0
 31 34  1  0
 34 35  1  0
 35 36  1  0
 35 37  1  0
 35 38  1  0
 34 39  1  0
 39 40  1  0
 39 41  1  0
 39 42  1  0
 26 43  1  0
 43 44  1  0
 44 45  1  0
  9  2  1  0
 43 11  2  0
 44  7  1  0
 24 16  1  0
M  CHG  1  24   1
M  END
>  <UniqueID>  (10) 
9

>  <SMILES>  (10) 
CN(C)CC/N=c1\c2ccc[nH+]c2ccc2c1[nH]c1ccccc12

>  <Energy>  (10) 
126.57012305032596

>  <Genealogy>  (10) 
CN(C)CCN=c1c2ccc[nH+]c2ccc2c1[nH]c1ccccc12 (protonated)
CN(C)CC/N=c1\c2ccc[nH+]c2ccc2c1[nH]c1ccccc12 (cis-trans isomerization)
CN(C)CC/N=c1\c2ccc[nH+]c2ccc2c1[nH]c1ccccc12 (3D coordinates assigned)
CN(C)CC/N=c1\c2ccc[nH+]c2ccc2c1[nH]c1ccccc12 (optimized conformer: 126.57012305032596 kcal/mol)

>  <smiles>  (10) 
CN(C)CCN=c1c2cccnc2ccc2c1[nH]c1ccccc12

>  <score_type>  (10) 
oracle

>  <origin>  (10) 
adg

>  <m_score__min__energy>  (10) 
-5.75

>  <m_primary>  (10) 
energy

$$$$
10:0
     RDKit          3D

 54 57  0  0  0  0  0  0  0  0999 V2000
   58.1440   31.6750   50.8460 C   0  0  0  0  0  0  0  0  0  0  0  0
   58.9390   32.9470   50.5750 C   0  0  0  0  0  0  0  0  0  0  0  0
   58.8920   33.2780   49.1530 N   0  0  0  0  0  0  0  0  0  0  0  0
   59.5190   34.3210   48.5600 C   0  0  0  0  0  0  0  0  0  0  0  0
   59.3070   34.2450   47.2010 C   0  0  0  0  0  0  0  0  0  0  0  0
   59.7630   35.0470   46.1620 C   0  0  0  0  0  0  0  0  0  0  0  0
   59.4060   34.6690   44.8550 C   0  0  0  0  0  0  0  0  0  0  0  0
   58.6410   33.5520   44.6360 N   0  0  0  0  0  0  0  0  0  0  0  0
   58.1970   32.7660   45.6670 C   0  0  0  0  0  0  0  0  0  0  0  0
   57.4080   31.5550   45.3970 C   0  0  0  0  0  0  0  0  0  0  0  0
   56.3060   31.6790   44.8010 O   0  0  0  0  0  0  0  0  0  0  0  0
   57.9060   30.2110   45.7980 C   0  0  0  0  0  0  0  0  0  0  0  0
   59.0140   30.1020   46.6500 C   0  0  0  0  0  0  0  0  0  0  0  0
   59.5120   28.8520   47.0150 C   0  0  0  0  0  0  0  0  0  0  0  0
   60.7330   28.7490   47.8910 C   0  0  0  0  0  0  0  0  0  0  0  0
   61.2700   30.1220   48.1980 C   0  0  0  0  0  0  0  0  0  0  0  0
   61.2660   30.6050   49.5170 C   0  0  0  0  0  0  0  0  0  0  0  0
   61.7940   31.8670   49.8070 C   0  0  0  0  0  0  0  0  0  0  0  0
   62.3390   32.6540   48.7860 C   0  0  0  0  0  0  0  0  0  0  0  0
   63.0000   34.2380   49.1510 Cl  0  0  0  0  0  0  0  0  0  0  0  0
   62.3600   32.1730   47.4730 C   0  0  0  0  0  0  0  0  0  0  0  0
   61.8320   30.9110   47.1790 C   0  0  0  0  0  0  0  0  0  0  0  0
   58.8910   27.7040   46.5160 C   0  0  0  0  0  0  0  0  0  0  0  0
   57.7940   27.7960   45.7060 N   0  0  0  0  0  0  0  0  0  0  0  0
   57.2000   26.5520   45.1870 C   0  0  0  0  0  0  0  0  0  0  0  0
   56.1830   25.9940   46.1800 C   0  0  0  0  0  0  0  0  0  0  0  0
   54.9540   26.6390   46.0060 O   0  0  0  0  0  0  0  0  0  0  0  0
   57.3020   29.0220   45.3290 C   0  0  0  0  0  0  0  0  0  0  0  0
   56.3140   29.0880   44.5440 O   0  0  0  0  0  0  0  0  0  0  0  0
   58.5410   33.1340   46.9690 C   0  0  0  0  0  0  0  0  0  0  0  0
   58.3000   32.5380   48.1880 C   0  0  0  0  0  0  0  0  0  0  0  0
   58.0505   31.5254   51.9318 H   0  0  0  0  0  0  0  0  0  0  0  0
   57.1423   31.7669   50.4009 H   0  0  0  0  0  0  0  0  0  0  0  0
   58.6655   30.8148   50.4009 H   0  0  0  0  0  0  0  0  0  0  0  0
   58.5075   33.7758   51.1554 H   0  0  0  0  0  0  0  0  0  0  0  0
   59.9859   32.7859   50.8716 H   0  0  0  0  0  0  0  0  0  0  0  0
   60.1003   35.0988   49.0767 H   0  0  0  0  0  0  0  0  0  0  0  0
   60.3770   35.9394   46.3534 H   0  0  0  0  0  0  0  0  0  0  0  0
   59.7434   35.2747   44.0010 H   0  0  0  0  0  0  0  0  0  0  0  0
   58.4030   33.2950   43.6520 H   0  0  0  0  0  0  0  0  0  0  0  0
   59.4958   31.0129   47.0348 H   0  0  0  0  0  0  0  0  0  0  0  0
   60.4642   28.2454   48.8313 H   0  0  0  0  0  0  0  0  0  0  0  0
   61.5058   28.1711   47.3631 H   0  0  0  0  0  0  0  0  0  0  0  0
   60.8459   29.9881   50.3250 H   0  0  0  0  0  0  0  0  0  0  0  0
   61.7809   32.2424   50.8409 H   0  0  0  0  0  0  0  0  0  0  0  0
   62.7924   32.7879   46.6699 H   0  0  0  0  0  0  0  0  0  0  0  0
   61.8567   30.5344   46.1458 H   0  0  0  0  0  0  0  0  0  0  0  0
   59.2903   26.7132   46.7785 H   0  0  0  0  0  0  0  0  0  0  0  0
   56.6966   26.7616   44.2317 H   0  0  0  0  0  0  0  0  0  0  0  0
   57.9983   25.8099   45.0384 H   0  0  0  0  0  0  0  0  0  0  0  0
   56.0576   24.9148   46.0079 H   0  0  0  0  0  0  0  0  0  0  0  0
   56.5427   26.1642   47.2055 H   0  0  0  0  0  0  0  0  0  0  0  0
   55.1470   27.4640   45.4930 H   0  0  0  0  0  0  0  0  0  0  0  0
   57.7231   31.6154   48.3491 H   0  0  0  0  0  0  0  0  0  0  0  0
  1  2  1  0
  2  3  1  0
  3  4  1  0
  4  5  2  0
  5  6  1  0
  6  7  2  0
  7  8  1  0
  8  9  2  0
  9 10  1  0
 10 11  2  0
 10 12  1  0
 12 13  2  0
 13 14  1  0
 14 15  1  0
 15 16  1  0
 16 17  2  0
 17 18  1  0
 18 19  2  0
 19 20  1  0
 19 21  1  0
 21 22  2  0
 14 23  2  0
 23 24  1  0
 24 25  1  0
 25 26  1  0
 26 27  1  0
 24 28  1  0
 28 29  2  0
  9 30  1  0
 30 31  2  0
 31  3  1  0
 30  5  1  0
 28 12  1  0
 22 16  1  0
  1 32  1  0
  1 33  1  0
  1 34  1  0
  2 35  1  0
  2 36  1  0
  4 37  1  0
  6 38  1  0
  7 39  1  0
  8 40  1  0
 13 41  1  0
 15 42  1  0
 15 43  1  0
 17 44  1  0
 18 45  1  0
 21 46  1  0
 22 47  1  0
 23 48  1  0
 25 49  1  0
 25 50  1  0
 26 51  1  0
 26 52  1  0
 27 53  1  0
 31 54  1  0
M  CHG  1   8   1
M  END
>  <UniqueID>  (11) 
10

>  <SMILES>  (11) 
CCn1cc2cc[nH+]c(C(=O)c3cc(Cc4ccc(Cl)cc4)cn(CCO)c3=O)c2c1

>  <Energy>  (11) 
96.42720405213052

>  <Genealogy>  (11) 
CCn1cc2cc[nH+]c(C(=O)c3cc(Cc4ccc(Cl)cc4)cn(CCO)c3=O)c2c1 (protonated)
CCn1cc2cc[nH+]c(C(=O)c3cc(Cc4ccc(Cl)cc4)cn(CCO)c3=O)c2c1 (3D coordinates assigned)
CCn1cc2cc[nH+]c(C(=O)c3cc(Cc4ccc(Cl)cc4)cn(CCO)c3=O)c2c1 (optimized conformer: 96.42720405213052 kcal/mol)

>  <smiles>  (11) 
CCn1cc2ccnc(C(=O)c3cc(Cc4ccc(Cl)cc4)cn(CCO)c3=O)c2c1

>  <score_type>  (11) 
oracle

>  <origin>  (11) 
adg

>  <m_score__min__energy>  (11) 
-8.0399999999999991

>  <m_primary>  (11) 
energy

$$$$
11:0
     RDKit          3D

 38 40  0  0  0  0  0  0  0  0999 V2000
   59.2070   28.9230   44.5390 C   0  0  0  0  0  0  0  0  0  0  0  0
   57.7740   28.6020   44.5930 N   0  0  0  0  0  0  0  0  0  0  0  0
   57.3700   28.0160   45.8870 C   0  0  0  0  0  0  0  0  0  0  0  0
   56.7400   26.6560   45.7610 C   0  0  0  0  0  0  0  0  0  0  0  0
   57.2840   25.6350   45.0710 N   0  0  0  0  0  0  0  0  0  0  0  0
   56.3540   24.6710   45.2440 C   0  0  0  0  0  0  0  0  0  0  0  0
   56.4600   23.3140   44.6680 C   0  0  0  0  0  0  0  0  0  0  0  0
   56.4420   22.1820   45.5030 C   0  0  0  0  0  0  0  0  0  0  0  0
   56.5440   20.8990   44.9570 C   0  0  0  0  0  0  0  0  0  0  0  0
   56.6640   20.7330   43.5750 C   0  0  0  0  0  0  0  0  0  0  0  0
   56.6820   21.8510   42.7370 C   0  0  0  0  0  0  0  0  0  0  0  0
   56.5810   23.1360   43.2780 C   0  0  0  0  0  0  0  0  0  0  0  0
   55.3150   25.0900   45.9960 N   0  0  0  0  0  0  0  0  0  0  0  0
   55.5930   26.3210   46.2960 O   0  0  0  0  0  0  0  0  0  0  0  0
   56.8150   30.0010   44.1710 S   0  0  0  0  0  0  0  0  0  0  0  0
   55.4310   29.8870   44.7500 O   0  0  0  0  0  0  0  0  0  0  0  0
   56.7010   30.1200   42.6760 O   0  0  0  0  0  0  0  0  0  0  0  0
   57.5990   31.4480   44.7960 C   0  0  0  0  0  0  0  0  0  0  0  0
   57.7460   32.5860   43.9880 C   0  0  0  0  0  0  0  0  0  0  0  0
   58.3550   33.7370   44.4980 C   0  0  0  0  0  0  0  0  0  0  0  0
   58.8170   33.7590   45.8180 C   0  0  0  0  0  0  0  0  0  0  0  0
   59.6480   35.3310   46.5140 Br  0  0  0  0  0  0  0  0  0  0  0  0
   58.6660   32.6290   46.6300 C   0  0  0  0  0  0  0  0  0  0  0  0
   58.0570   31.4770   46.1200 C   0  0  0  0  0  0  0  0  0  0  0  0
   59.6017   29.0114   45.5619 H   0  0  0  0  0  0  0  0  0  0  0  0
   59.7423   28.1225   44.0073 H   0  0  0  0  0  0  0  0  0  0  0  0
   59.3496   29.8754   44.0073 H   0  0  0  0  0  0  0  0  0  0  0  0
   58.2631   27.9281   46.5230 H   0  0  0  0  0  0  0  0  0  0  0  0
   56.6117   28.6841   46.3212 H   0  0  0  0  0  0  0  0  0  0  0  0
   56.3471   22.3070   46.5917 H   0  0  0  0  0  0  0  0  0  0  0  0
   56.5297   20.0188   45.6166 H   0  0  0  0  0  0  0  0  0  0  0  0
   56.7443   19.7229   43.1469 H   0  0  0  0  0  0  0  0  0  0  0  0
   56.7759   21.7196   41.6489 H   0  0  0  0  0  0  0  0  0  0  0  0
   56.5962   24.0124   42.6133 H   0  0  0  0  0  0  0  0  0  0  0  0
   57.3811   32.5726   42.9504 H   0  0  0  0  0  0  0  0  0  0  0  0
   58.4708   34.6259   43.8604 H   0  0  0  0  0  0  0  0  0  0  0  0
   59.0261   32.6465   47.6692 H   0  0  0  0  0  0  0  0  0  0  0  0
   57.9374   30.5909   46.7608 H   0  0  0  0  0  0  0  0  0  0  0  0
  1  2  1  0
  2  3  1  0
  3  4  1  0
  4  5  2  0
  5  6  1  0
  6  7  1  0
  7  8  2  0
  8  9  1  0
  9 10  2  0
 10 11  1  0
 11 12  2  0
  6 13  2  0
 13 14  1  0
  2 15  1  0
 15 16  2  0
 15 17  2  0
 15 18  1  0
 18 19  2  0
 19 20  1  0
 20 21  2  0
 21 22  1  0
 21 23  1  0
 23 24  2  0
 14  4  1  0
 24 18  1  0
 12  7  1  0
  1 25  1  0
  1 26  1  0
  1 27  1  0
  3 28  1  0
  3 29  1  0
  8 30  1  0
  9 31  1  0
 10 32  1  0
 11 33  1  0
 12 34  1  0
 19 35  1  0
 20 36  1  0
 23 37  1  0
 24 38  1  0
M  END
>  <UniqueID>  (12) 
11

>  <SMILES>  (12) 
CN(Cc1nc(-c2ccccc2)no1)S(=O)(=O)c1ccc(Br)cc1

>  <Energy>  (12) 
74.20055620000447

>  <Genealogy>  (12) 
CN(Cc1nc(-c2ccccc2)no1)S(=O)(=O)c1ccc(Br)cc1 (3D coordinates assigned)
CN(Cc1nc(-c2ccccc2)no1)S(=O)(=O)c1ccc(Br)cc1 (optimized conformer: 74.20055620000447 kcal/mol)

>  <smiles>  (12) 
CN(Cc1nc(-c2ccccc2)no1)S(=O)(=O)c1ccc(Br)cc1

>  <score_type>  (12) 
oracle

>  <origin>  (12) 
adg

>  <m_score__min__energy>  (12) 
-9.8800000000000008

>  <m_primary>  (12) 
energy

$$$$
12:0
     RDKit          3D

 39 41  0  0  0  0  0  0  0  0999 V2000
   58.5310   26.6930   47.2180 O   0  0  0  0  0  0  0  0  0  0  0  0
   57.8910   27.5950   46.6090 C   0  0  0  0  0  0  0  0  0  0  0  0
   56.8840   27.2030   45.5670 C   0  0  0  0  0  0  0  0  0  0  0  0
   56.0290   28.3000   45.2520 O   0  0  0  0  0  0  0  0  0  0  0  0
   56.4410   29.4080   44.5010 C   0  0  0  0  0  0  0  0  0  0  0  0
   56.2580   29.4090   43.1220 C   0  0  0  0  0  0  0  0  0  0  0  0
   56.6640   30.5160   42.3860 C   0  0  0  0  0  0  0  0  0  0  0  0
   57.2400   31.6040   43.0450 C   0  0  0  0  0  0  0  0  0  0  0  0
   57.5770   32.6210   42.3800 O   0  0  0  0  0  0  0  0  0  0  0  0
   57.4090   31.5600   44.4050 N   0  0  0  0  0  0  0  0  0  0  0  0
   57.9770   32.6640   45.1300 C   0  0  0  0  0  0  0  0  0  0  0  0
   58.8090   33.5980   44.4870 C   0  0  0  0  0  0  0  0  0  0  0  0
   59.3550   34.6670   45.2050 C   0  0  0  0  0  0  0  0  0  0  0  0
   59.0770   34.8110   46.5660 C   0  0  0  0  0  0  0  0  0  0  0  0
   58.2620   33.8790   47.2150 C   0  0  0  0  0  0  0  0  0  0  0  0
   57.7210   32.8040   46.5030 C   0  0  0  0  0  0  0  0  0  0  0  0
   57.0110   30.4880   45.0980 N   0  0  0  0  0  0  0  0  0  0  0  0
   58.1090   28.9810   46.9200 N   0  0  0  0  0  0  0  0  0  0  0  0
   59.2090   29.4600   47.7140 C   0  0  0  0  0  0  0  0  0  0  0  0
   59.3850   29.0330   49.0450 C   0  0  0  0  0  0  0  0  0  0  0  0
   60.4680   29.4980   49.7980 C   0  0  0  0  0  0  0  0  0  0  0  0
   61.3880   30.3830   49.2310 C   0  0  0  0  0  0  0  0  0  0  0  0
   61.2420   30.7870   47.9000 C   0  0  0  0  0  0  0  0  0  0  0  0
   60.1670   30.3140   47.1370 C   0  0  0  0  0  0  0  0  0  0  0  0
   60.0440   30.7130   45.8440 F   0  0  0  0  0  0  0  0  0  0  0  0
   57.4125   26.8844   44.6564 H   0  0  0  0  0  0  0  0  0  0  0  0
   56.2706   26.3794   45.9612 H   0  0  0  0  0  0  0  0  0  0  0  0
   55.7979   28.5448   42.6205 H   0  0  0  0  0  0  0  0  0  0  0  0
   56.5327   30.5348   41.2940 H   0  0  0  0  0  0  0  0  0  0  0  0
   59.0312   33.4874   43.4154 H   0  0  0  0  0  0  0  0  0  0  0  0
   60.0042   35.3953   44.6970 H   0  0  0  0  0  0  0  0  0  0  0  0
   59.4993   35.6576   47.1272 H   0  0  0  0  0  0  0  0  0  0  0  0
   58.0459   33.9915   48.2877 H   0  0  0  0  0  0  0  0  0  0  0  0
   57.0922   32.0649   47.0210 H   0  0  0  0  0  0  0  0  0  0  0  0
   57.3910   29.6740   46.6030 H   0  0  0  0  0  0  0  0  0  0  0  0
   58.6673   28.3306   49.4941 H   0  0  0  0  0  0  0  0  0  0  0  0
   60.5955   29.1661   50.8389 H   0  0  0  0  0  0  0  0  0  0  0  0
   62.2278   30.7624   49.8317 H   0  0  0  0  0  0  0  0  0  0  0  0
   61.9722   31.4770   47.4520 H   0  0  0  0  0  0  0  0  0  0  0  0
  1  2  2  0
  2  3  1  0
  3  4  1  0
  4  5  1  0
  5  6  1  0
  6  7  2  0
  7  8  1  0
  8  9  2  0
  8 10  1  0
 10 11  1  0
 11 12  2  0
 12 13  1  0
 13 14  2  0
 14 15  1  0
 15 16  2  0
 10 17  1  0
  2 18  1  0
 18 19  1  0
 19 20  2  0
 20 21  1  0
 21 22  2  0
 22 23  1  0
 23 24  2  0
 24 25  1  0
 17  5  2  0
 24 19  1  0
 16 11  1  0
  3 26  1  0
  3 27  1  0
  6 28  1  0
  7 29  1  0
 12 30  1  0
 13 31  1  0
 14 32  1  0
 15 33  1  0
 16 34  1  0
 18 35  1  0
 20 36  1  0
 21 37  1  0
 22 38  1  0
 23 39  1  0
M  END
>  <UniqueID>  (13) 
12

>  <SMILES>  (13) 
O=C(COc1ccc(=O)n(-c2ccccc2)n1)Nc1ccccc1F

>  <Energy>  (13) 
49.62499876526596

>  <Genealogy>  (13) 
O=C(COc1ccc(=O)n(-c2ccccc2)n1)Nc1ccccc1F (3D coordinates assigned)
O=C(COc1ccc(=O)n(-c2ccccc2)n1)Nc1ccccc1F (optimized conformer: 49.62499876526596 kcal/mol)

>  <smiles>  (13) 
O=C(COc1ccc(=O)n(-c2ccccc2)n1)Nc1ccccc1F

>  <score_type>  (13) 
oracle

>  <origin>  (13) 
adg

>  <m_score__min__energy>  (13) 
-8.6300000000000008

>  <m_primary>  (13) 
energy

$$$$
13:0
     RDKit          3D

 54 55  0  0  0  0  0  0  0  0999 V2000
   61.3200   30.2850   51.9300 C   0  0  0  0  0  0  0  0  0  0  0  0
   62.2550   29.8750   50.8960 N   0  0  0  0  0  0  0  0  0  0  0  0
   62.2300   30.4070   49.7870 N   0  0  0  0  0  0  0  0  0  0  0  0
   62.2070   30.9370   48.6760 N   0  0  0  0  0  0  0  0  0  0  0  0
   63.2040   31.9330   48.3000 C   0  0  0  0  0  0  0  0  0  0  0  0
   62.9830   33.2380   49.0740 C   0  0  0  0  0  0  0  0  0  0  0  0
   62.1110   34.1510   48.3060 N   0  0  0  0  0  0  0  0  0  0  0  0
   62.1420   33.8680   46.8470 C   0  0  0  0  0  0  0  0  0  0  0  0
   60.9160   33.0670   46.3730 C   0  0  0  0  0  0  0  0  0  0  0  0
   59.6320   33.7470   46.6890 N   0  0  0  0  0  0  0  0  0  0  0  0
   59.0470   34.4220   45.5110 C   0  0  0  0  0  0  0  0  0  0  0  0
   57.6690   33.8240   45.1850 C   0  0  0  0  0  0  0  0  0  0  0  0
   57.7600   32.6720   44.1720 C   0  0  0  0  0  0  0  0  0  0  0  0
   57.3970   31.3430   44.7840 C   0  0  0  0  0  0  0  0  0  0  0  0
   56.2710   30.8520   44.4970 O   0  0  0  0  0  0  0  0  0  0  0  0
   58.2920   30.6130   45.7280 C   0  0  0  0  0  0  0  0  0  0  0  0
   59.0160   29.4950   45.2750 C   0  0  0  0  0  0  0  0  0  0  0  0
   59.8580   28.7930   46.1390 C   0  0  0  0  0  0  0  0  0  0  0  0
   59.9950   29.1920   47.4730 C   0  0  0  0  0  0  0  0  0  0  0  0
   60.8340   28.4880   48.3340 O   0  0  0  0  0  0  0  0  0  0  0  0
   59.2860   30.3020   47.9480 C   0  0  0  0  0  0  0  0  0  0  0  0
   59.4490   30.6700   49.2940 O   0  0  0  0  0  0  0  0  0  0  0  0
   58.6390   31.6210   49.9760 C   0  0  0  0  0  0  0  0  0  0  0  0
   58.4390   31.0110   47.0730 C   0  0  0  0  0  0  0  0  0  0  0  0
   59.7270   34.6750   47.8390 C   0  0  0  0  0  0  0  0  0  0  0  0
   60.7420   34.1720   48.8700 C   0  0  0  0  0  0  0  0  0  0  0  0
   61.7599   30.0921   52.9196 H   0  0  0  0  0  0  0  0  0  0  0  0
   61.1068   31.3592   51.8266 H   0  0  0  0  0  0  0  0  0  0  0  0
   60.3855   29.7141   51.8266 H   0  0  0  0  0  0  0  0  0  0  0  0
   64.2074   31.5436   48.5272 H   0  0  0  0  0  0  0  0  0  0  0  0
   63.1102   32.1393   47.2236 H   0  0  0  0  0  0  0  0  0  0  0  0
   62.5084   33.0106   50.0399 H   0  0  0  0  0  0  0  0  0  0  0  0
   63.9555   33.7257   49.2362 H   0  0  0  0  0  0  0  0  0  0  0  0
   62.1700   34.8238   46.3033 H   0  0  0  0  0  0  0  0  0  0  0  0
   63.0359   33.2597   46.6446 H   0  0  0  0  0  0  0  0  0  0  0  0
   60.9838   32.9308   45.2836 H   0  0  0  0  0  0  0  0  0  0  0  0
   60.9221   32.1033   46.9034 H   0  0  0  0  0  0  0  0  0  0  0  0
   58.9356   35.4951   45.7255 H   0  0  0  0  0  0  0  0  0  0  0  0
   59.7135   34.2781   44.6478 H   0  0  0  0  0  0  0  0  0  0  0  0
   57.2192   33.4438   46.1141 H   0  0  0  0  0  0  0  0  0  0  0  0
   57.0537   34.6186   44.7377 H   0  0  0  0  0  0  0  0  0  0  0  0
   57.0716   32.8779   43.3391 H   0  0  0  0  0  0  0  0  0  0  0  0
   58.8021   32.6098   43.8253 H   0  0  0  0  0  0  0  0  0  0  0  0
   58.9174   29.1706   44.2286 H   0  0  0  0  0  0  0  0  0  0  0  0
   60.4171   27.9210   45.7689 H   0  0  0  0  0  0  0  0  0  0  0  0
   61.1870   28.9040   49.1890 H   0  0  0  0  0  0  0  0  0  0  0  0
   58.7526   31.4877   51.0620 H   0  0  0  0  0  0  0  0  0  0  0  0
   58.9529   32.6375   49.6966 H   0  0  0  0  0  0  0  0  0  0  0  0
   57.5855   31.4728   49.6966 H   0  0  0  0  0  0  0  0  0  0  0  0
   57.8853   31.8862   47.4438 H   0  0  0  0  0  0  0  0  0  0  0  0
   60.0426   35.6647   47.4771 H   0  0  0  0  0  0  0  0  0  0  0  0
   58.7402   34.7367   48.3210 H   0  0  0  0  0  0  0  0  0  0  0  0
   60.7245   34.8379   49.7454 H   0  0  0  0  0  0  0  0  0  0  0  0
   60.4676   33.1464   49.1579 H   0  0  0  0  0  0  0  0  0  0  0  0
  1  2  1  0
  2  3  2  0
  3  4  2  0
  4  5  1  0
  5  6  1  0
  6  7  1  0
  7  8  1  0
  8  9  1  0
  9 10  1  0
 10 11  1  0
 11 12  1  0
 12 13  1  0
 13 14  1  0
 14 15  2  0
 14 16  1  0
 16 17  2  0
 17 18  1  0
 18 19  2  0
 19 20  1  0
 19 21  1  0
 21 22  1  0
 22 23  1  0
 21 24  2  0
 10 25  1  0
 25 26  1  0
 26  7  1  0
 24 16  1  0
  1 27  1  0
  1 28  1  0
  1 29  1  0
  5 30  1  0
  5 31  1  0
  6 32  1  0
  6 33  1  0
  8 34  1  0
  8 35  1  0
  9 36  1  0
  9 37  1  0
 11 38  1  0
 11 39  1  0
 12 40  1  0
 12 41  1  0
 13 42  1  0
 13 43  1  0
 17 44  1  0
 18 45  1  0
 20 46  1  0
 23 47  1  0
 23 48  1  0
 23 49  1  0
 24 50  1  0
 25 51  1  0
 25 52  1  0
 26 53  1  0
 26 54  1  0
M  CHG  1   3   1
M  END
>  <UniqueID>  (14) 
13

>  <SMILES>  (14) 
CN=[N+]=NCCN1CCN(CCCC(=O)c2ccc(O)c(OC)c2)CC1

>  <Energy>  (14) 
55.80114324813701

>  <Genealogy>  (14) 
CN=[N+]=NCCN1CCN(CCCC(=O)c2ccc(O)c(OC)c2)CC1 (3D coordinates assigned)
CN=[N+]=NCCN1CCN(CCCC(=O)c2ccc(O)c(OC)c2)CC1 (nonaromatic ring conformer: 55.80114324813701 kcal/mol)

>  <smiles>  (14) 
CN=[N+]=NCCN1CCN(CCCC(=O)c2ccc(O)c(OC)c2)CC1

>  <score_type>  (14) 
oracle

>  <origin>  (14) 
adg

>  <m_score__min__energy>  (14) 
-6.7599999999999998

>  <m_primary>  (14) 
energy

$$$$
14:0
     RDKit          3D

 45 47  0  0  0  0  0  0  0  0999 V2000
   59.2620   33.1330   48.7300 C   0  0  0  0  0  0  0  0  0  0  0  0
   58.8630   33.2400   47.2880 C   0  0  0  0  0  0  0  0  0  0  0  0
   58.9170   34.4770   46.6280 C   0  0  0  0  0  0  0  0  0  0  0  0
   58.5950   34.5650   45.2730 C   0  0  0  0  0  0  0  0  0  0  0  0
   58.2240   33.4210   44.5630 C   0  0  0  0  0  0  0  0  0  0  0  0
   58.1690   32.1730   45.2050 C   0  0  0  0  0  0  0  0  0  0  0  0
   57.8190   30.9880   44.4670 N   0  0  0  0  0  0  0  0  0  0  0  0
   58.8470   29.9960   44.1340 C   0  0  0  0  0  0  0  0  0  0  0  0
   58.2080   28.6150   43.9120 C   0  0  0  0  0  0  0  0  0  0  0  0
   57.0470   28.3920   44.8090 N   0  0  0  0  0  0  0  0  0  0  0  0
   57.3940   28.4180   46.2560 C   0  0  0  0  0  0  0  0  0  0  0  0
   58.0130   27.1020   46.7540 C   0  0  0  0  0  0  0  0  0  0  0  0
   57.3950   25.9660   46.0720 N   0  0  0  0  0  0  0  0  0  0  0  0
   58.0730   24.7370   45.6920 C   0  0  0  0  0  0  0  0  0  0  0  0
   56.9780   23.8410   45.0620 C   0  0  0  0  0  0  0  0  0  0  0  0
   55.7240   24.5830   45.1600 N   0  0  0  0  0  0  0  0  0  0  0  0
   56.0270   25.8210   45.7610 C   0  0  0  0  0  0  0  0  0  0  0  0
   55.1580   26.6990   46.0030 O   0  0  0  0  0  0  0  0  0  0  0  0
   55.9490   29.3540   44.5100 C   0  0  0  0  0  0  0  0  0  0  0  0
   56.4400   30.7410   44.0340 C   0  0  0  0  0  0  0  0  0  0  0  0
   58.5050   32.0890   46.5680 C   0  0  0  0  0  0  0  0  0  0  0  0
   58.3966   33.3651   49.3681 H   0  0  0  0  0  0  0  0  0  0  0  0
   59.6084   32.1102   48.9397 H   0  0  0  0  0  0  0  0  0  0  0  0
   60.0737   33.8452   48.9397 H   0  0  0  0  0  0  0  0  0  0  0  0
   59.2142   35.3805   47.1805 H   0  0  0  0  0  0  0  0  0  0  0  0
   58.6335   35.5386   44.7625 H   0  0  0  0  0  0  0  0  0  0  0  0
   57.9734   33.4978   43.4947 H   0  0  0  0  0  0  0  0  0  0  0  0
   59.3665   30.3068   43.2155 H   0  0  0  0  0  0  0  0  0  0  0  0
   59.5611   29.9286   44.9680 H   0  0  0  0  0  0  0  0  0  0  0  0
   57.8696   28.5434   42.8678 H   0  0  0  0  0  0  0  0  0  0  0  0
   58.9647   27.8490   44.1369 H   0  0  0  0  0  0  0  0  0  0  0  0
   56.6780   27.4330   44.6010 H   0  0  0  0  0  0  0  0  0  0  0  0
   58.1151   29.2307   46.4281 H   0  0  0  0  0  0  0  0  0  0  0  0
   56.4583   28.5708   46.8138 H   0  0  0  0  0  0  0  0  0  0  0  0
   59.0933   27.1068   46.5468 H   0  0  0  0  0  0  0  0  0  0  0  0
   57.8397   27.0097   47.8363 H   0  0  0  0  0  0  0  0  0  0  0  0
   58.8673   24.9461   44.9603 H   0  0  0  0  0  0  0  0  0  0  0  0
   58.5530   24.2512   46.5543 H   0  0  0  0  0  0  0  0  0  0  0  0
   57.2159   23.6354   44.0079 H   0  0  0  0  0  0  0  0  0  0  0  0
   56.9086   22.8744   45.5824 H   0  0  0  0  0  0  0  0  0  0  0  0
   55.3158   28.9218   43.7212 H   0  0  0  0  0  0  0  0  0  0  0  0
   55.4026   29.5156   45.4509 H   0  0  0  0  0  0  0  0  0  0  0  0
   56.3954   30.7808   42.9356 H   0  0  0  0  0  0  0  0  0  0  0  0
   55.7912   31.5123   44.4746 H   0  0  0  0  0  0  0  0  0  0  0  0
   58.4872   31.1128   47.0746 H   0  0  0  0  0  0  0  0  0  0  0  0
  1  2  1  0
  2  3  2  0
  3  4  1  0
  4  5  2  0
  5  6  1  0
  6  7  1  0
  7  8  1  0
  8  9  1  0
  9 10  1  0
 10 11  1  0
 11 12  1  0
 12 13  1  0
 13 14  1  0
 14 15  1  0
 15 16  1  0
 16 17  1  0
 17 18  2  0
 10 19  1  0
 19 20  1  0
  6 21  2  0
 21  2  1  0
 20  7  1  0
 17 13  1  0
  1 22  1  0
  1 23  1  0
  1 24  1  0
  3 25  1  0
  4 26  1  0
  5 27  1  0
  8 28  1  0
  8 29  1  0
  9 30  1  0
  9 31  1  0
 10 32  1  0
 11 33  1  0
 11 34  1  0
 12 35  1  0
 12 36  1  0
 14 37  1  0
 14 38  1  0
 15 39  1  0
 15 40  1  0
 19 41  1  0
 19 42  1  0
 20 43  1  0
 20 44  1  0
 21 45  1  0
M  CHG  2  10   1  16  -1
M  END
>  <UniqueID>  (15) 
14

>  <SMILES>  (15) 
Cc1cccc(N2CC[NH+](CCN3CC[N-]C3=O)CC2)c1

>  <Energy>  (15) 
67.75033911820321

>  <Genealogy>  (15) 
Cc1cccc(N2CC[NH+](CCN3CC[N-]C3=O)CC2)c1 (protonated)
Cc1cccc(N2CC[NH+](CCN3CC[N-]C3=O)CC2)c1 (3D coordinates assigned)
Cc1cccc(N2CC[NH+](CCN3CC[N-]C3=O)CC2)c1 (nonaromatic ring conformer: 67.75033911820321 kcal/mol)

>  <smiles>  (15) 
Cc1cccc(N2CCN(CCN3CCNC3=O)CC2)c1

>  <score_type>  (15) 
oracle

>  <origin>  (15) 
adg

>  <m_score__min__energy>  (15) 
-7.3899999999999997

>  <m_primary>  (15) 
energy

$$$$
15:0
     RDKit          3D

 53 56  0  0  0  0  0  0  0  0999 V2000
   57.0030   34.5750   44.8930 C   0  0  0  0  0  0  0  0  0  0  0  0
   58.3590   34.1850   44.7050 O   0  0  0  0  0  0  0  0  0  0  0  0
   59.0310   33.2280   45.4850 C   0  0  0  0  0  0  0  0  0  0  0  0
   60.0810   33.5820   46.3540 C   0  0  0  0  0  0  0  0  0  0  0  0
   60.7250   32.5950   47.1220 C   0  0  0  0  0  0  0  0  0  0  0  0
   61.8320   32.9300   48.0570 C   0  0  0  0  0  0  0  0  0  0  0  0
   63.0820   32.3050   47.9140 C   0  0  0  0  0  0  0  0  0  0  0  0
   64.1300   32.5960   48.7900 C   0  0  0  0  0  0  0  0  0  0  0  0
   63.9590   33.5210   49.8400 C   0  0  0  0  0  0  0  0  0  0  0  0
   65.0490   33.8260   50.7490 N   0  0  0  0  0  0  0  0  0  0  0  0
   64.8210   34.6640   51.9320 C   0  0  0  0  0  0  0  0  0  0  0  0
   66.3950   33.3010   50.4990 C   0  0  0  0  0  0  0  0  0  0  0  0
   62.7010   34.1370   49.9870 C   0  0  0  0  0  0  0  0  0  0  0  0
   61.6520   33.8430   49.1120 C   0  0  0  0  0  0  0  0  0  0  0  0
   60.3370   31.2970   46.9960 N   0  0  0  0  0  0  0  0  0  0  0  0
   59.3320   30.9160   46.1650 C   0  0  0  0  0  0  0  0  0  0  0  0
   58.9870   29.6050   46.0810 N   0  0  0  0  0  0  0  0  0  0  0  0
   57.9850   29.1610   45.2720 C   0  0  0  0  0  0  0  0  0  0  0  0
   57.6740   27.7470   45.2250 N   0  0  0  0  0  0  0  0  0  0  0  0
   57.8040   26.9990   43.9600 C   0  0  0  0  0  0  0  0  0  0  0  0
   57.7700   25.4840   44.1890 C   0  0  0  0  0  0  0  0  0  0  0  0
   56.5340   25.0810   45.0010 C   0  0  0  0  0  0  0  0  0  0  0  0
   56.3090   25.9580   46.2550 C   0  0  0  0  0  0  0  0  0  0  0  0
   57.4000   27.0170   46.4750 C   0  0  0  0  0  0  0  0  0  0  0  0
   57.2760   30.0950   44.4950 C   0  0  0  0  0  0  0  0  0  0  0  0
   57.6130   31.4490   44.5560 C   0  0  0  0  0  0  0  0  0  0  0  0
   58.6510   31.8770   45.3950 C   0  0  0  0  0  0  0  0  0  0  0  0
   56.7853   34.6376   45.9694 H   0  0  0  0  0  0  0  0  0  0  0  0
   56.8361   35.5575   44.4274 H   0  0  0  0  0  0  0  0  0  0  0  0
   56.3396   33.8312   44.4274 H   0  0  0  0  0  0  0  0  0  0  0  0
   60.3982   34.6323   46.4324 H   0  0  0  0  0  0  0  0  0  0  0  0
   63.2370   31.5783   47.1029 H   0  0  0  0  0  0  0  0  0  0  0  0
   65.1015   32.0970   48.6590 H   0  0  0  0  0  0  0  0  0  0  0  0
   64.9835   34.0667   52.8413 H   0  0  0  0  0  0  0  0  0  0  0  0
   65.5209   35.5125   51.9207 H   0  0  0  0  0  0  0  0  0  0  0  0
   63.7877   35.0409   51.9207 H   0  0  0  0  0  0  0  0  0  0  0  0
   66.8963   33.1055   51.4584 H   0  0  0  0  0  0  0  0  0  0  0  0
   66.3229   32.3651   49.9255 H   0  0  0  0  0  0  0  0  0  0  0  0
   66.9756   34.0386   49.9255 H   0  0  0  0  0  0  0  0  0  0  0  0
   62.5422   34.8591   50.8014 H   0  0  0  0  0  0  0  0  0  0  0  0
   60.6755   34.3304   49.2495 H   0  0  0  0  0  0  0  0  0  0  0  0
   56.9734   27.2773   43.2947 H   0  0  0  0  0  0  0  0  0  0  0  0
   58.7742   27.2551   43.5093 H   0  0  0  0  0  0  0  0  0  0  0  0
   57.7434   24.9731   43.2152 H   0  0  0  0  0  0  0  0  0  0  0  0
   58.6698   25.1933   44.7510 H   0  0  0  0  0  0  0  0  0  0  0  0
   55.6489   25.1653   44.3534 H   0  0  0  0  0  0  0  0  0  0  0  0
   56.6974   24.0509   45.3507 H   0  0  0  0  0  0  0  0  0  0  0  0
   55.3425   26.4725   46.1495 H   0  0  0  0  0  0  0  0  0  0  0  0
   56.3352   25.2855   47.1251 H   0  0  0  0  0  0  0  0  0  0  0  0
   57.0631   27.7289   47.2429 H   0  0  0  0  0  0  0  0  0  0  0  0
   58.3221   26.5136   46.8010 H   0  0  0  0  0  0  0  0  0  0  0  0
   56.4578   29.7596   43.8407 H   0  0  0  0  0  0  0  0  0  0  0  0
   57.0633   32.1802   43.9451 H   0  0  0  0  0  0  0  0  0  0  0  0
  1  2  1  0
  2  3  1  0
  3  4  2  0
  4  5  1  0
  5  6  1  0
  6  7  2  0
  7  8  1  0
  8  9  2  0
  9 10  1  0
 10 11  1  0
 10 12  1  0
  9 13  1  0
 13 14  2  0
  5 15  2  0
 15 16  1  0
 16 17  2  0
 17 18  1  0
 18 19  1  0
 19 20  1  0
 20 21  1  0
 21 22  1  0
 22 23  1  0
 23 24  1  0
 18 25  2  0
 25 26  1  0
 26 27  2  0
 27  3  1  0
 14  6  1  0
 27 16  1  0
 24 19  1  0
  1 28  1  0
  1 29  1  0
  1 30  1  0
  4 31  1  0
  7 32  1  0
  8 33  1  0
 11 34  1  0
 11 35  1  0
 11 36  1  0
 12 37  1  0
 12 38  1  0
 12 39  1  0
 13 40  1  0
 14 41  1  0
 20 42  1  0
 20 43  1  0
 21 44  1  0
 21 45  1  0
 22 46  1  0
 22 47  1  0
 23 48  1  0
 23 49  1  0
 24 50  1  0
 24 51  1  0
 25 52  1  0
 26 53  1  0
M  END
>  <UniqueID>  (16) 
15

>  <SMILES>  (16) 
COc1cc(-c2ccc(N(C)C)cc2)nc2nc(N3CCCCC3)ccc12

>  <Energy>  (16) 
68.02755469922977

>  <Genealogy>  (16) 
COc1cc(-c2ccc(N(C)C)cc2)nc2nc(N3CCCCC3)ccc12 (3D coordinates assigned)
COc1cc(-c2ccc(N(C)C)cc2)nc2nc(N3CCCCC3)ccc12 (nonaromatic ring conformer: 68.02755469922977 kcal/mol)

>  <smiles>  (16) 
COc1cc(-c2ccc(N(C)C)cc2)nc2nc(N3CCCCC3)ccc12

>  <score_type>  (16) 
oracle

>  <origin>  (16) 
adg

>  <m_score__min__energy>  (16) 
-7.4000000000000004

>  <m_primary>  (16) 
energy

$$$$
16:0
     RDKit          3D

 25 26  0  0  0  0  0  0  0  0999 V2000
   55.1460   29.3360   44.8680 O   0  0  0  0  0  0  0  0  0  0  0  0
   56.4300   29.8180   44.2510 S   0  0  0  0  0  0  0  0  0  0  0  0
   56.3960   29.5340   42.7750 O   0  0  0  0  0  0  0  0  0  0  0  0
   56.5690   31.5330   44.4940 N   0  0  0  0  0  0  0  0  0  0  0  0
   57.4270   32.1400   45.2630 C   0  0  0  0  0  0  0  0  0  0  0  0
   58.0040   33.3820   44.9270 C   0  0  0  0  0  0  0  0  0  0  0  0
   58.9120   33.9780   45.8060 C   0  0  0  0  0  0  0  0  0  0  0  0
   59.2440   33.3410   47.0020 C   0  0  0  0  0  0  0  0  0  0  0  0
   60.3840   34.0790   48.1130 Cl  0  0  0  0  0  0  0  0  0  0  0  0
   58.6570   32.1110   47.3040 C   0  0  0  0  0  0  0  0  0  0  0  0
   57.7740   31.5480   46.4380 N   0  0  0  0  0  0  0  0  0  0  0  0
   57.8120   28.9870   44.9570 C   0  0  0  0  0  0  0  0  0  0  0  0
   59.1150   29.3030   44.5450 C   0  0  0  0  0  0  0  0  0  0  0  0
   60.2090   28.6350   45.1040 C   0  0  0  0  0  0  0  0  0  0  0  0
   60.0070   27.6510   46.0780 C   0  0  0  0  0  0  0  0  0  0  0  0
   61.0680   27.0030   46.6190 F   0  0  0  0  0  0  0  0  0  0  0  0
   58.7100   27.3380   46.4950 C   0  0  0  0  0  0  0  0  0  0  0  0
   57.6140   28.0050   45.9380 C   0  0  0  0  0  0  0  0  0  0  0  0
   57.7415   33.8776   43.9807 H   0  0  0  0  0  0  0  0  0  0  0  0
   59.3647   34.9487   45.5552 H   0  0  0  0  0  0  0  0  0  0  0  0
   58.9093   31.5973   48.2434 H   0  0  0  0  0  0  0  0  0  0  0  0
   59.2766   30.0776   43.7809 H   0  0  0  0  0  0  0  0  0  0  0  0
   61.2296   28.8835   44.7776 H   0  0  0  0  0  0  0  0  0  0  0  0
   58.5511   26.5660   47.2623 H   0  0  0  0  0  0  0  0  0  0  0  0
   56.5947   27.7587   46.2702 H   0  0  0  0  0  0  0  0  0  0  0  0
  1  2  2  0
  2  3  2  0
  2  4  1  0
  4  5  2  3
  5  6  1  0
  6  7  2  0
  7  8  1  0
  8  9  1  0
  8 10  2  0
 10 11  1  0
  2 12  1  0
 12 13  2  0
 13 14  1  0
 14 15  2  0
 15 16  1  0
 15 17  1  0
 17 18  2  0
 11  5  1  0
 18 12  1  0
  6 19  1  0
  7 20  1  0
 10 21  1  0
 13 22  1  0
 14 23  1  0
 17 24  1  0
 18 25  1  0
M  CHG  1  11  -1
M  END
>  <UniqueID>  (17) 
16

>  <SMILES>  (17) 
O=S(=O)(N=c1ccc(Cl)c[n-]1)c1ccc(F)cc1

>  <Energy>  (17) 
31.823009241092898

>  <Genealogy>  (17) 
O=S(=O)(N=c1ccc(Cl)c[n-]1)c1ccc(F)cc1 (protonated)
O=S(=O)(N=c1ccc(Cl)c[n-]1)c1ccc(F)cc1 (3D coordinates assigned)
O=S(=O)(N=c1ccc(Cl)c[n-]1)c1ccc(F)cc1 (optimized conformer: 31.823009241092898 kcal/mol)

>  <smiles>  (17) 
O=S(=O)(N=c1ccc(Cl)c[nH]1)c1ccc(F)cc1

>  <score_type>  (17) 
oracle

>  <origin>  (17) 
adg

>  <m_score__min__energy>  (17) 
-8.4700000000000006

>  <m_primary>  (17) 
energy

$$$$
17:0
     RDKit          3D

 49 51  0  0  0  0  0  0  0  0999 V2000
   57.0540   31.6840   44.4980 C   0  0  0  0  0  0  0  0  0  0  0  0
   56.4050   30.3870   44.7530 N   0  0  0  0  0  0  0  0  0  0  0  0
   55.9340   29.8060   43.4830 C   0  0  0  0  0  0  0  0  0  0  0  0
   57.3410   29.4780   45.4570 C   0  0  0  0  0  0  0  0  0  0  0  0
   58.8050   29.7370   45.0270 C   0  0  0  0  0  0  0  0  0  0  0  0
   59.7490   29.6480   46.1670 N   0  0  0  0  0  0  0  0  0  0  0  0
   59.3900   28.4860   47.0380 C   0  0  0  0  0  0  0  0  0  0  0  0
   59.7390   28.7050   48.5450 C   0  0  0  0  0  0  0  0  0  0  0  0
   59.2410   29.9140   49.1240 O   0  0  0  0  0  0  0  0  0  0  0  0
   58.9000   30.8780   48.1430 C   0  0  1  0  0  0  0  0  0  0  0  0
   58.9710   32.3110   48.6510 C   0  0  0  0  0  0  0  0  0  0  0  0
   59.2900   33.1590   47.4790 N   0  0  0  0  0  0  0  0  0  0  0  0
   60.2430   34.2640   47.7310 C   0  0  0  0  0  0  0  0  0  0  0  0
   61.6970   33.8440   47.7540 C   0  0  0  0  0  0  0  0  0  0  0  0
   62.5410   33.8230   46.6560 C   0  0  0  0  0  0  0  0  0  0  0  0
   63.7710   33.3960   47.1120 C   0  0  0  0  0  0  0  0  0  0  0  0
   63.6390   33.1860   48.4700 C   0  0  0  0  0  0  0  0  0  0  0  0
   62.3800   33.4580   48.8580 N   0  0  0  0  0  0  0  0  0  0  0  0
   61.9100   33.4550   50.2440 C   0  0  0  0  0  0  0  0  0  0  0  0
   59.6590   32.2630   46.3650 C   0  0  0  0  0  0  0  0  0  0  0  0
   59.8830   30.8850   46.9900 C   0  0  2  0  0  0  0  0  0  0  0  0
   57.2960   32.1676   45.4559 H   0  0  0  0  0  0  0  0  0  0  0  0
   57.9786   31.5247   43.9238 H   0  0  0  0  0  0  0  0  0  0  0  0
   56.3722   32.3286   43.9238 H   0  0  0  0  0  0  0  0  0  0  0  0
   55.2541   28.9673   43.6933 H   0  0  0  0  0  0  0  0  0  0  0  0
   55.4005   30.5741   42.9039 H   0  0  0  0  0  0  0  0  0  0  0  0
   56.7959   29.4430   42.9039 H   0  0  0  0  0  0  0  0  0  0  0  0
   57.2516   29.6409   46.5412 H   0  0  0  0  0  0  0  0  0  0  0  0
   57.0805   28.4414   45.1970 H   0  0  0  0  0  0  0  0  0  0  0  0
   59.0899   28.9892   44.2723 H   0  0  0  0  0  0  0  0  0  0  0  0
   58.8616   30.7579   44.6213 H   0  0  0  0  0  0  0  0  0  0  0  0
   58.3076   28.3089   46.9535 H   0  0  0  0  0  0  0  0  0  0  0  0
   59.9819   27.6264   46.6906 H   0  0  0  0  0  0  0  0  0  0  0  0
   59.3241   27.8606   49.1149 H   0  0  0  0  0  0  0  0  0  0  0  0
   60.8356   28.7771   48.5931 H   0  0  0  0  0  0  0  0  0  0  0  0
   57.8790   30.5881   47.8539 H   0  0  0  0  0  0  0  0  0  0  0  0
   58.0044   32.6089   49.0835 H   0  0  0  0  0  0  0  0  0  0  0  0
   59.7334   32.4165   49.4368 H   0  0  0  0  0  0  0  0  0  0  0  0
   60.1148   35.0160   46.9385 H   0  0  0  0  0  0  0  0  0  0  0  0
   60.0133   34.6535   48.7338 H   0  0  0  0  0  0  0  0  0  0  0  0
   62.2812   34.0940   45.6220 H   0  0  0  0  0  0  0  0  0  0  0  0
   64.6804   33.2510   46.5103 H   0  0  0  0  0  0  0  0  0  0  0  0
   64.4450   32.8461   49.1369 H   0  0  0  0  0  0  0  0  0  0  0  0
   62.7744   33.4605   50.9243 H   0  0  0  0  0  0  0  0  0  0  0  0
   61.2954   34.3492   50.4247 H   0  0  0  0  0  0  0  0  0  0  0  0
   61.3069   32.5530   50.4247 H   0  0  0  0  0  0  0  0  0  0  0  0
   58.8470   32.2195   45.6243 H   0  0  0  0  0  0  0  0  0  0  0  0
   60.5585   32.6195   45.8417 H   0  0  0  0  0  0  0  0  0  0  0  0
   60.9532   30.8039   47.2310 H   0  0  0  0  0  0  0  0  0  0  0  0
  1  2  1  0
  2  3  1  0
  2  4  1  0
  4  5  1  0
  5  6  1  0
  6  7  1  0
  7  8  1  0
  8  9  1  0
  9 10  1  0
 10 11  1  0
 11 12  1  0
 12 13  1  0
 13 14  1  0
 14 15  2  0
 15 16  1  0
 16 17  2  0
 17 18  1  0
 18 19  1  0
 12 20  1  0
 20 21  1  0
 21  6  1  0
 21 10  1  0
 18 14  1  0
  1 22  1  0
  1 23  1  0
  1 24  1  0
  3 25  1  0
  3 26  1  0
  3 27  1  0
  4 28  1  0
  4 29  1  0
  5 30  1  0
  5 31  1  0
  7 32  1  0
  7 33  1  0
  8 34  1  0
  8 35  1  0
 10 36  1  6
 11 37  1  0
 11 38  1  0
 13 39  1  0
 13 40  1  0
 15 41  1  0
 16 42  1  0
 17 43  1  0
 19 44  1  0
 19 45  1  0
 19 46  1  0
 20 47  1  0
 20 48  1  0
 21 49  1  1
M  END
>  <UniqueID>  (18) 
17

>  <SMILES>  (18) 
CN(C)CCN1CCO[C@H]2CN(Cc3cccn3C)C[C@@H]21

>  <Energy>  (18) 
110.42285700016572

>  <Genealogy>  (18) 
CN(C)CCN1CCO[C@H]2CN(Cc3cccn3C)C[C@@H]21 (chirality)
CN(C)CCN1CCO[C@H]2CN(Cc3cccn3C)C[C@@H]21 (3D coordinates assigned)
CN(C)CCN1CCO[C@H]2CN(Cc3cccn3C)C[C@@H]21 (nonaromatic ring conformer: 110.42285700016572 kcal/mol)

>  <smiles>  (18) 
CN(C)CCN1CCOC2CN(Cc3cccn3C)CC21

>  <score_type>  (18) 
oracle

>  <origin>  (18) 
adg

>  <m_score__min__energy>  (18) 
-6.21

>  <m_primary>  (18) 
energy

$$$$
18:0
     RDKit          3D

 53 55  0  0  0  0  0  0  0  0999 V2000
   60.1700   27.9850   45.2490 C   0  0  0  0  0  0  0  0  0  0  0  0
   59.0010   27.1730   45.7430 C   0  0  0  0  0  0  0  0  0  0  0  0
   59.1340   26.4510   46.9430 C   0  0  0  0  0  0  0  0  0  0  0  0
   58.0710   25.6960   47.4380 C   0  0  0  0  0  0  0  0  0  0  0  0
   56.8640   25.6480   46.7440 C   0  0  0  0  0  0  0  0  0  0  0  0
   56.7130   26.3580   45.5510 C   0  0  0  0  0  0  0  0  0  0  0  0
   57.7720   27.1340   45.0300 C   0  0  0  0  0  0  0  0  0  0  0  0
   57.6230   27.9120   43.7310 C   0  0  0  0  0  0  0  0  0  0  0  0
   58.1290   29.2820   43.8270 N   0  0  0  0  0  0  0  0  0  0  0  0
   57.4450   30.3070   44.5630 C   0  0  0  0  0  0  0  0  0  0  0  0
   56.3170   30.0700   45.0780 O   0  0  0  0  0  0  0  0  0  0  0  0
   58.0760   31.6660   44.7400 C   0  0  0  0  0  0  0  0  0  0  0  0
   59.3290   31.5900   45.6470 C   0  0  0  0  0  0  0  0  0  0  0  0
   59.0070   31.9790   47.0990 C   0  0  0  0  0  0  0  0  0  0  0  0
   58.4180   33.3360   47.2210 N   0  0  0  0  0  0  0  0  0  0  0  0
   59.6170   34.4960   47.7380 S   0  0  0  0  0  0  0  0  0  0  0  0
   59.2700   34.9940   49.1150 O   0  0  0  0  0  0  0  0  0  0  0  0
   59.6380   35.6620   46.7870 O   0  0  0  0  0  0  0  0  0  0  0  0
   61.1890   33.7400   47.7620 N   0  0  0  0  0  0  0  0  0  0  0  0
   61.9310   34.1700   48.9590 C   0  0  0  0  0  0  0  0  0  0  0  0
   63.4040   33.7180   48.8840 C   0  0  0  0  0  0  0  0  0  0  0  0
   63.6110   32.8190   47.8120 O   0  0  0  0  0  0  0  0  0  0  0  0
   63.3480   33.4740   46.5840 C   0  0  0  0  0  0  0  0  0  0  0  0
   61.9350   34.0970   46.5450 C   0  0  0  0  0  0  0  0  0  0  0  0
   57.7330   33.8250   46.0050 C   0  0  0  0  0  0  0  0  0  0  0  0
   57.0370   32.6830   45.2590 C   0  0  0  0  0  0  0  0  0  0  0  0
   60.7338   28.3766   46.1085 H   0  0  0  0  0  0  0  0  0  0  0  0
   60.8272   27.3480   44.6389 H   0  0  0  0  0  0  0  0  0  0  0  0
   59.8025   28.8233   44.6389 H   0  0  0  0  0  0  0  0  0  0  0  0
   60.0846   26.4822   47.4956 H   0  0  0  0  0  0  0  0  0  0  0  0
   58.1859   25.1372   48.3785 H   0  0  0  0  0  0  0  0  0  0  0  0
   56.0284   25.0498   47.1364 H   0  0  0  0  0  0  0  0  0  0  0  0
   55.7565   26.3123   45.0097 H   0  0  0  0  0  0  0  0  0  0  0  0
   58.1799   27.3866   42.9412 H   0  0  0  0  0  0  0  0  0  0  0  0
   56.5485   27.9719   43.5032 H   0  0  0  0  0  0  0  0  0  0  0  0
   59.0670   29.4860   43.4150 H   0  0  0  0  0  0  0  0  0  0  0  0
   58.4206   32.0213   43.7577 H   0  0  0  0  0  0  0  0  0  0  0  0
   59.7177   30.5611   45.6318 H   0  0  0  0  0  0  0  0  0  0  0  0
   60.0748   32.3000   45.2601 H   0  0  0  0  0  0  0  0  0  0  0  0
   58.2922   31.2491   47.5067 H   0  0  0  0  0  0  0  0  0  0  0  0
   59.9555   31.9817   47.6560 H   0  0  0  0  0  0  0  0  0  0  0  0
   61.8939   35.2670   49.0312 H   0  0  0  0  0  0  0  0  0  0  0  0
   61.4668   33.7113   49.8445 H   0  0  0  0  0  0  0  0  0  0  0  0
   64.0431   34.6015   48.7394 H   0  0  0  0  0  0  0  0  0  0  0  0
   63.6580   33.2038   49.8227 H   0  0  0  0  0  0  0  0  0  0  0  0
   64.0911   34.2726   46.4424 H   0  0  0  0  0  0  0  0  0  0  0  0
   63.4082   32.7237   45.7818 H   0  0  0  0  0  0  0  0  0  0  0  0
   62.0221   35.1916   46.4801 H   0  0  0  0  0  0  0  0  0  0  0  0
   61.3963   33.7106   45.6672 H   0  0  0  0  0  0  0  0  0  0  0  0
   56.9813   34.5742   46.2943 H   0  0  0  0  0  0  0  0  0  0  0  0
   58.4868   34.2667   45.3367 H   0  0  0  0  0  0  0  0  0  0  0  0
   56.3421   32.1739   45.9430 H   0  0  0  0  0  0  0  0  0  0  0  0
   56.4873   33.0997   44.4022 H   0  0  0  0  0  0  0  0  0  0  0  0
  1  2  1  0
  2  3  2  0
  3  4  1  0
  4  5  2  0
  5  6  1  0
  6  7  2  0
  7  8  1  0
  8  9  1  0
  9 10  1  0
 10 11  2  0
 10 12  1  0
 12 13  1  0
 13 14  1  0
 14 15  1  0
 15 16  1  0
 16 17  2  0
 16 18  2  0
 16 19  1  0
 19 20  1  0
 20 21  1  0
 21 22  1  0
 22 23  1  0
 23 24  1  0
 15 25  1  0
 25 26  1  0
  7  2  1  0
 26 12  1  0
 24 19  1  0
  1 27  1  0
  1 28  1  0
  1 29  1  0
  3 30  1  0
  4 31  1  0
  5 32  1  0
  6 33  1  0
  8 34  1  0
  8 35  1  0
  9 36  1  0
 12 37  1  0
 13 38  1  0
 13 39  1  0
 14 40  1  0
 14 41  1  0
 20 42  1  0
 20 43  1  0
 21 44  1  0
 21 45  1  0
 23 46  1  0
 23 47  1  0
 24 48  1  0
 24 49  1  0
 25 50  1  0
 25 51  1  0
 26 52  1  0
 26 53  1  0
M  END
>  <UniqueID>  (19) 
18

>  <SMILES>  (19) 
Cc1ccccc1CNC(=O)C1CCN(S(=O)(=O)N2CCOCC2)CC1

>  <Energy>  (19) 
65.0409445393527

>  <Genealogy>  (19) 
Cc1ccccc1CNC(=O)C1CCN(S(=O)(=O)N2CCOCC2)CC1 (3D coordinates assigned)
Cc1ccccc1CNC(=O)C1CCN(S(=O)(=O)N2CCOCC2)CC1 (nonaromatic ring conformer: 65.0409445393527 kcal/mol)

>  <smiles>  (19) 
Cc1ccccc1CNC(=O)C1CCN(S(=O)(=O)N2CCOCC2)CC1

>  <score_type>  (19) 
oracle

>  <origin>  (19) 
adg

>  <m_score__min__energy>  (19) 
-8.8100000000000005

>  <m_primary>  (19) 
energy

$$$$
19:0
     RDKit          3D

 50 53  0  0  0  0  0  0  0  0999 V2000
   56.1890   30.3970   43.6760 C   0  0  0  0  0  0  0  0  0  0  0  0
   57.3520   29.4620   43.3620 C   0  0  0  0  0  0  0  0  0  0  0  0
   57.7720   28.6980   44.5830 C   0  0  0  0  0  0  0  0  0  0  0  0
   57.2290   27.5230   44.9690 N   0  0  0  0  0  0  0  0  0  0  0  0
   57.8280   27.1210   46.0820 N   0  0  0  0  0  0  0  0  0  0  0  0
   57.4140   25.9540   46.8560 C   0  0  0  0  0  0  0  0  0  0  0  0
   56.0650   25.4970   46.4010 C   0  0  0  0  0  0  0  0  0  0  0  0
   55.6590   24.1850   46.2750 C   0  0  0  0  0  0  0  0  0  0  0  0
   54.3790   24.2910   45.7750 C   0  0  0  0  0  0  0  0  0  0  0  0
   53.4490   23.1570   45.4980 C   0  0  0  0  0  0  0  0  0  0  0  0
   54.0470   25.5880   45.6270 N   0  0  0  0  0  0  0  0  0  0  0  0
   55.0830   26.3250   46.0000 N   0  0  0  0  0  0  0  0  0  0  0  0
   58.7600   28.0340   46.4220 C   0  0  0  0  0  0  0  0  0  0  0  0
   58.7370   29.0560   45.5100 C   0  0  0  0  0  0  0  0  0  0  0  0
   59.6410   30.2470   45.5770 C   0  0  0  0  0  0  0  0  0  0  0  0
   60.2010   30.4110   46.9400 N   0  0  0  0  0  0  0  0  0  0  0  0
   59.4520   31.3260   47.8320 C   0  0  0  0  0  0  0  0  0  0  0  0
   58.9690   32.5810   47.1580 C   0  0  0  0  0  0  0  0  0  0  0  0
   59.4080   33.8750   47.3720 C   0  0  0  0  0  0  0  0  0  0  0  0
   58.7310   34.7120   46.5620 N   0  0  0  0  0  0  0  0  0  0  0  0
   57.9050   33.9800   45.8320 N   0  0  0  0  0  0  0  0  0  0  0  0
   56.9470   34.5340   44.8870 C   0  0  0  0  0  0  0  0  0  0  0  0
   58.0210   32.6830   46.1630 C   0  0  0  0  0  0  0  0  0  0  0  0
   60.6840   29.1570   47.5700 C   0  0  0  0  0  0  0  0  0  0  0  0
   59.6180   28.0410   47.6470 C   0  0  0  0  0  0  0  0  0  0  0  0
   56.0758   30.4880   44.7664 H   0  0  0  0  0  0  0  0  0  0  0  0
   56.3889   31.3887   43.2441 H   0  0  0  0  0  0  0  0  0  0  0  0
   55.2634   29.9887   43.2441 H   0  0  0  0  0  0  0  0  0  0  0  0
   57.0417   28.7512   42.5819 H   0  0  0  0  0  0  0  0  0  0  0  0
   58.2038   30.0659   43.0161 H   0  0  0  0  0  0  0  0  0  0  0  0
   56.4500   27.0150   44.4930 H   0  0  0  0  0  0  0  0  0  0  0  0
   58.1425   25.1426   46.7112 H   0  0  0  0  0  0  0  0  0  0  0  0
   57.3660   26.2232   47.9215 H   0  0  0  0  0  0  0  0  0  0  0  0
   56.2225   23.2716   46.5161 H   0  0  0  0  0  0  0  0  0  0  0  0
   53.0985   22.7296   46.4490 H   0  0  0  0  0  0  0  0  0  0  0  0
   52.5871   23.5224   44.9204 H   0  0  0  0  0  0  0  0  0  0  0  0
   53.9760   22.3833   44.9204 H   0  0  0  0  0  0  0  0  0  0  0  0
   60.4664   30.1131   44.8623 H   0  0  0  0  0  0  0  0  0  0  0  0
   59.0575   31.1453   45.3267 H   0  0  0  0  0  0  0  0  0  0  0  0
   58.5777   30.7865   48.2251 H   0  0  0  0  0  0  0  0  0  0  0  0
   60.1490   31.6388   48.6234 H   0  0  0  0  0  0  0  0  0  0  0  0
   60.1864   34.1734   48.0897 H   0  0  0  0  0  0  0  0  0  0  0  0
   56.1226   35.0107   45.4376 H   0  0  0  0  0  0  0  0  0  0  0  0
   57.4467   35.2825   44.2546 H   0  0  0  0  0  0  0  0  0  0  0  0
   56.5475   33.7275   44.2546 H   0  0  0  0  0  0  0  0  0  0  0  0
   57.4582   31.8492   45.7180 H   0  0  0  0  0  0  0  0  0  0  0  0
   61.5360   28.7816   46.9843 H   0  0  0  0  0  0  0  0  0  0  0  0
   60.9588   29.4065   48.6055 H   0  0  0  0  0  0  0  0  0  0  0  0
   60.1222   27.0676   47.7386 H   0  0  0  0  0  0  0  0  0  0  0  0
   58.9781   28.2274   48.5221 H   0  0  0  0  0  0  0  0  0  0  0  0
  1  2  1  0
  2  3  1  0
  3  4  2  0
  4  5  1  0
  5  6  1  0
  6  7  1  0
  7  8  2  0
  8  9  1  0
  9 10  1  0
  9 11  2  0
 11 12  1  0
  5 13  1  0
 13 14  2  0
 14 15  1  0
 15 16  1  0
 16 17  1  0
 17 18  1  0
 18 19  1  0
 19 20  2  0
 20 21  1  0
 21 22  1  0
 21 23  1  0
 16 24  1  0
 24 25  1  0
 14  3  1  0
 23 18  2  0
 12  7  1  0
 25 13  1  0
  1 26  1  0
  1 27  1  0
  1 28  1  0
  2 29  1  0
  2 30  1  0
  4 31  1  0
  6 32  1  0
  6 33  1  0
  8 34  1  0
 10 35  1  0
 10 36  1  0
 10 37  1  0
 15 38  1  0
 15 39  1  0
 17 40  1  0
 17 41  1  0
 19 42  1  0
 22 43  1  0
 22 44  1  0
 22 45  1  0
 23 46  1  0
 24 47  1  0
 24 48  1  0
 25 49  1  0
 25 50  1  0
M  CHG  2   4   1  12  -1
M  END
>  <UniqueID>  (20) 
19

>  <SMILES>  (20) 
CCc1[nH+]n(Cc2cc(C)n[n-]2)c2c1CN(Cc1cnn(C)c1)CC2

>  <Energy>  (20) 
139.27178372901278

>  <Genealogy>  (20) 
CCc1[nH+]n(Cc2cc(C)n[n-]2)c2c1CN(Cc1cnn(C)c1)CC2 (protonated)
CCc1[nH+]n(Cc2cc(C)n[n-]2)c2c1CN(Cc1cnn(C)c1)CC2 (3D coordinates assigned)
CCc1[nH+]n(Cc2cc(C)n[n-]2)c2c1CN(Cc1cnn(C)c1)CC2 (nonaromatic ring conformer: 139.27178372901278 kcal/mol)

>  <smiles>  (20) 
CCc1nn(Cc2cc(C)n[nH]2)c2c1CN(Cc1cnn(C)c1)CC2

>  <score_type>  (20) 
oracle

>  <origin>  (20) 
adg

>  <m_score__min__energy>  (20) 
-9.3800000000000008

>  <m_primary>  (20) 
energy

$$$$
20:0
     RDKit          3D

 17 17  0  0  0  0  0  0  0  0999 V2000
   56.2610   29.7230   43.7440 C   0  0  0  0  0  0  0  0  0  0  0  0
   56.5500   30.8790   44.5200 O   0  0  0  0  0  0  0  0  0  0  0  0
   57.4080   31.8910   44.0740 C   0  0  0  0  0  0  0  0  0  0  0  0
   57.6920   31.9850   42.8470 O   0  0  0  0  0  0  0  0  0  0  0  0
   57.9820   32.8500   45.0440 C   0  0  0  0  0  0  0  0  0  0  0  0
   58.7560   33.9360   44.6040 C   0  0  0  0  0  0  0  0  0  0  0  0
   59.2920   34.8340   45.5270 C   0  0  0  0  0  0  0  0  0  0  0  0
   59.0520   34.6430   46.8870 C   0  0  0  0  0  0  0  0  0  0  0  0
   58.3020   33.5890   47.3040 N   0  0  0  0  0  0  0  0  0  0  0  0
   57.7680   32.6990   46.4250 C   0  0  0  0  0  0  0  0  0  0  0  0
   56.0492   28.8759   44.4130 H   0  0  0  0  0  0  0  0  0  0  0  0
   55.3838   29.9173   43.1094 H   0  0  0  0  0  0  0  0  0  0  0  0
   57.1264   29.4816   43.1094 H   0  0  0  0  0  0  0  0  0  0  0  0
   58.9400   34.0788   43.5289 H   0  0  0  0  0  0  0  0  0  0  0  0
   59.8987   35.6854   45.1849 H   0  0  0  0  0  0  0  0  0  0  0  0
   59.4698   35.3457   47.6229 H   0  0  0  0  0  0  0  0  0  0  0  0
   57.1657   31.8569   46.7967 H   0  0  0  0  0  0  0  0  0  0  0  0
  1  2  1  0
  2  3  1  0
  3  4  2  0
  3  5  1  0
  5  6  2  0
  6  7  1  0
  7  8  2  0
  8  9  1  0
  9 10  2  0
 10  5  1  0
  1 11  1  0
  1 12  1  0
  1 13  1  0
  6 14  1  0
  7 15  1  0
  8 16  1  0
 10 17  1  0
M  END
>  <UniqueID>  (21) 
20

>  <SMILES>  (21) 
COC(=O)c1cccnc1

>  <Energy>  (21) 
14.564166798135354

>  <Genealogy>  (21) 
COC(=O)c1cccnc1 (3D coordinates assigned)
COC(=O)c1cccnc1 (optimized conformer: 14.564166798135354 kcal/mol)

>  <smiles>  (21) 
COC(=O)c1cccnc1

>  <score_type>  (21) 
oracle

>  <origin>  (21) 
adg

>  <m_score__min__energy>  (21) 
-4.0899999999999999

>  <m_primary>  (21) 
energy

$$$$
21:0
     RDKit          3D

 36 39  0  0  0  0  0  0  0  0999 V2000
   57.8630   32.3460   41.9830 C   0  0  0  0  0  0  0  0  0  0  0  0
   58.1300   32.4260   43.2940 C   0  0  0  0  0  0  0  0  0  0  0  0
   58.7340   33.5690   43.7230 N   0  0  0  0  0  0  0  0  0  0  0  0
   58.8930   33.8740   45.0320 C   0  0  0  0  0  0  0  0  0  0  0  0
   59.5070   35.0310   45.3900 N   0  0  0  0  0  0  0  0  0  0  0  0
   59.6470   35.3710   46.6970 C   0  0  0  0  0  0  0  0  0  0  0  0
   59.1650   34.5550   47.6700 N   0  0  0  0  0  0  0  0  0  0  0  0
   58.5410   33.3870   47.3640 C   0  0  0  0  0  0  0  0  0  0  0  0
   58.1090   32.6550   48.2940 O   0  0  0  0  0  0  0  0  0  0  0  0
   58.3880   33.0130   46.0170 C   0  0  0  0  0  0  0  0  0  0  0  0
   57.7800   31.8150   45.6230 C   0  0  0  0  0  0  0  0  0  0  0  0
   57.7060   31.4530   44.2600 C   0  0  0  0  0  0  0  0  0  0  0  0
   57.2630   30.2010   43.9810 C   0  0  0  0  0  0  0  0  0  0  0  0
   57.7150   28.9530   44.6200 C   0  0  0  0  0  0  0  0  0  0  0  0
   59.3120   28.4160   44.6270 S   0  0  0  0  0  0  0  0  0  0  0  0
   58.9240   26.9690   45.3860 C   0  0  0  0  0  0  0  0  0  0  0  0
   59.7670   26.0770   45.6750 O   0  0  0  0  0  0  0  0  0  0  0  0
   57.5930   26.8550   45.6200 N   0  0  0  0  0  0  0  0  0  0  0  0
   56.9710   25.7130   46.2400 C   0  0  0  0  0  0  0  0  0  0  0  0
   57.5020   25.1660   47.4200 C   0  0  0  0  0  0  0  0  0  0  0  0
   56.8960   24.0560   48.0180 C   0  0  0  0  0  0  0  0  0  0  0  0
   55.7570   23.4850   47.4440 C   0  0  0  0  0  0  0  0  0  0  0  0
   54.9310   21.9690   48.2620 Br  0  0  0  0  0  0  0  0  0  0  0  0
   55.2210   24.0240   46.2710 C   0  0  0  0  0  0  0  0  0  0  0  0
   55.8240   25.1340   45.6710 C   0  0  0  0  0  0  0  0  0  0  0  0
   56.9140   27.9530   45.1770 C   0  0  0  0  0  0  0  0  0  0  0  0
   55.5300   28.0630   45.2700 O   0  0  0  0  0  0  0  0  0  0  0  0
   57.3760   31.4482   41.5747 H   0  0  0  0  0  0  0  0  0  0  0  0
   58.1308   33.1782   41.3154 H   0  0  0  0  0  0  0  0  0  0  0  0
   60.1521   36.3097   46.9686 H   0  0  0  0  0  0  0  0  0  0  0  0
   57.3541   31.1465   46.3857 H   0  0  0  0  0  0  0  0  0  0  0  0
   56.4916   30.1091   43.2022 H   0  0  0  0  0  0  0  0  0  0  0  0
   58.3981   25.6124   47.8757 H   0  0  0  0  0  0  0  0  0  0  0  0
   57.3168   23.6319   48.9416 H   0  0  0  0  0  0  0  0  0  0  0  0
   54.3242   23.5747   45.8195 H   0  0  0  0  0  0  0  0  0  0  0  0
   55.3982   25.5561   44.7488 H   0  0  0  0  0  0  0  0  0  0  0  0
  1  2  2  0
  2  3  1  0
  3  4  2  0
  4  5  1  0
  5  6  2  0
  6  7  1  0
  7  8  1  0
  8  9  2  0
  8 10  1  0
 10 11  2  0
 11 12  1  0
 12 13  2  3
 13 14  1  0
 14 15  1  0
 15 16  1  0
 16 17  2  0
 16 18  1  0
 18 19  1  0
 19 20  2  0
 20 21  1  0
 21 22  2  0
 22 23  1  0
 22 24  1  0
 24 25  2  0
 18 26  1  0
 26 27  1  0
 12  2  1  0
 26 14  2  0
 10  4  1  0
 25 19  1  0
  1 28  1  0
  1 29  1  0
  6 30  1  0
 11 31  1  0
 13 32  1  0
 20 33  1  0
 21 34  1  0
 24 35  1  0
 25 36  1  0
M  CHG  2   7  -1  27  -1
M  END
>  <UniqueID>  (22) 
21

>  <SMILES>  (22) 
C=c1nc2nc[n-]c(=O)c2cc1=Cc1sc(=O)n(-c2ccc(Br)cc2)c1[O-]

>  <Energy>  (22) 
104.27863882487

>  <Genealogy>  (22) 
C=c1nc2nc[n-]c(=O)c2cc1=Cc1sc(=O)n(-c2ccc(Br)cc2)c1[O-] (protonated)
C=c1nc2nc[n-]c(=O)c2cc1=Cc1sc(=O)n(-c2ccc(Br)cc2)c1[O-] (3D coordinates assigned)
C=c1nc2nc[n-]c(=O)c2cc1=Cc1sc(=O)n(-c2ccc(Br)cc2)c1[O-] (optimized conformer: 104.27863882487 kcal/mol)

>  <smiles>  (22) 
C=c1nc2nc[nH]c(=O)c2cc1=Cc1sc(=O)n(-c2ccc(Br)cc2)c1O

>  <score_type>  (22) 
oracle

>  <origin>  (22) 
adg

>  <m_score__min__energy>  (22) 
-12.81

>  <m_primary>  (22) 
energy

$$$$
22:0
     RDKit          3D

 51 54  0  0  0  0  0  0  0  0999 V2000
   55.4920   30.2900   52.1010 C   0  0  0  0  0  0  0  0  0  0  0  0
   56.8960   30.0780   51.9960 O   0  0  0  0  0  0  0  0  0  0  0  0
   57.7800   30.9450   51.3370 C   0  0  0  0  0  0  0  0  0  0  0  0
   58.4320   30.4820   50.1880 C   0  0  0  0  0  0  0  0  0  0  0  0
   59.3230   31.3050   49.4970 C   0  0  0  0  0  0  0  0  0  0  0  0
   59.5890   32.6100   49.9500 C   0  0  0  0  0  0  0  0  0  0  0  0
   60.5280   33.4950   49.2200 C   0  0  0  0  0  0  0  0  0  0  0  0
   61.4120   34.1210   49.8650 O   0  0  0  0  0  0  0  0  0  0  0  0
   60.4630   33.6620   47.7540 C   0  0  0  0  0  0  0  0  0  0  0  0
   61.5270   33.8100   46.8570 C   0  0  0  0  0  0  0  0  0  0  0  0
   62.9900   33.8650   47.1900 C   0  0  0  0  0  0  0  0  0  0  0  0
   63.4750   32.5490   47.8320 C   0  0  0  0  0  0  0  0  0  0  0  0
   63.5900   32.6330   49.3110 N   0  0  0  0  0  0  0  0  0  0  0  0
   63.2480   31.3240   49.9160 C   0  0  0  0  0  0  0  0  0  0  0  0
   63.8120   31.2150   51.3450 C   0  0  0  0  0  0  0  0  0  0  0  0
   65.2270   31.3320   51.4230 O   0  0  0  0  0  0  0  0  0  0  0  0
   65.8100   31.9770   50.3000 C   0  0  0  0  0  0  0  0  0  0  0  0
   64.9350   33.1140   49.7390 C   0  0  0  0  0  0  0  0  0  0  0  0
   61.0710   33.9150   45.6220 O   0  0  0  0  0  0  0  0  0  0  0  0
   59.7640   33.8320   45.6670 C   0  0  0  0  0  0  0  0  0  0  0  0
   58.8750   33.8790   44.5970 C   0  0  0  0  0  0  0  0  0  0  0  0
   57.5020   33.7440   44.8740 C   0  0  0  0  0  0  0  0  0  0  0  0
   57.0570   33.5590   46.2010 C   0  0  0  0  0  0  0  0  0  0  0  0
   57.9780   33.5160   47.2630 C   0  0  0  0  0  0  0  0  0  0  0  0
   59.3320   33.6720   46.9590 C   0  0  0  0  0  0  0  0  0  0  0  0
   58.9240   33.0790   51.0950 C   0  0  0  0  0  0  0  0  0  0  0  0
   58.0310   32.2540   51.7870 C   0  0  0  0  0  0  0  0  0  0  0  0
   55.2061   30.3332   53.1623 H   0  0  0  0  0  0  0  0  0  0  0  0
   55.2267   31.2384   51.6109 H   0  0  0  0  0  0  0  0  0  0  0  0
   54.9585   29.4622   51.6109 H   0  0  0  0  0  0  0  0  0  0  0  0
   58.2406   29.4609   49.8265 H   0  0  0  0  0  0  0  0  0  0  0  0
   59.8212   30.9300   48.5908 H   0  0  0  0  0  0  0  0  0  0  0  0
   63.5601   34.0431   46.2663 H   0  0  0  0  0  0  0  0  0  0  0  0
   63.1486   34.6795   47.9121 H   0  0  0  0  0  0  0  0  0  0  0  0
   62.7599   31.7519   47.5806 H   0  0  0  0  0  0  0  0  0  0  0  0
   64.4793   32.3395   47.4350 H   0  0  0  0  0  0  0  0  0  0  0  0
   62.8800   33.3170   49.6630 H   0  0  0  0  0  0  0  0  0  0  0  0
   62.1536   31.2186   49.9517 H   0  0  0  0  0  0  0  0  0  0  0  0
   63.6909   30.5263   49.3015 H   0  0  0  0  0  0  0  0  0  0  0  0
   63.3655   32.0147   51.9542 H   0  0  0  0  0  0  0  0  0  0  0  0
   63.5571   30.2091   51.7099 H   0  0  0  0  0  0  0  0  0  0  0  0
   66.7805   32.3976   50.6019 H   0  0  0  0  0  0  0  0  0  0  0  0
   65.9189   31.2229   49.5066 H   0  0  0  0  0  0  0  0  0  0  0  0
   64.8057   33.8789   50.5189 H   0  0  0  0  0  0  0  0  0  0  0  0
   65.4431   33.5251   48.8543 H   0  0  0  0  0  0  0  0  0  0  0  0
   59.2346   34.0174   43.5667 H   0  0  0  0  0  0  0  0  0  0  0  0
   56.7716   33.7828   44.0524 H   0  0  0  0  0  0  0  0  0  0  0  0
   55.9820   33.4477   46.4058 H   0  0  0  0  0  0  0  0  0  0  0  0
   57.6426   33.3644   48.2996 H   0  0  0  0  0  0  0  0  0  0  0  0
   59.1070   34.1037   51.4505 H   0  0  0  0  0  0  0  0  0  0  0  0
   57.5228   32.6305   52.6870 H   0  0  0  0  0  0  0  0  0  0  0  0
  1  2  1  0
  2  3  1  0
  3  4  2  0
  4  5  1  0
  5  6  2  0
  6  7  1  0
  7  8  2  0
  7  9  1  0
  9 10  2  0
 10 11  1  0
 11 12  1  0
 12 13  1  0
 13 14  1  0
 14 15  1  0
 15 16  1  0
 16 17  1  0
 17 18  1  0
 10 19  1  0
 19 20  1  0
 20 21  2  0
 21 22  1  0
 22 23  2  0
 23 24  1  0
 24 25  2  0
  6 26  1  0
 26 27  2  0
 27  3  1  0
 25  9  1  0
 18 13  1  0
 25 20  1  0
  1 28  1  0
  1 29  1  0
  1 30  1  0
  4 31  1  0
  5 32  1  0
 11 33  1  0
 11 34  1  0
 12 35  1  0
 12 36  1  0
 13 37  1  0
 14 38  1  0
 14 39  1  0
 15 40  1  0
 15 41  1  0
 17 42  1  0
 17 43  1  0
 18 44  1  0
 18 45  1  0
 21 46  1  0
 22 47  1  0
 23 48  1  0
 24 49  1  0
 26 50  1  0
 27 51  1  0
M  CHG  1  13   1
M  END
>  <UniqueID>  (23) 
22

>  <SMILES>  (23) 
COc1ccc(C(=O)c2c(CC[NH+]3CCOCC3)oc3ccccc23)cc1

>  <Energy>  (23) 
107.0034874689713

>  <Genealogy>  (23) 
COc1ccc(C(=O)c2c(CC[NH+]3CCOCC3)oc3ccccc23)cc1 (protonated)
COc1ccc(C(=O)c2c(CC[NH+]3CCOCC3)oc3ccccc23)cc1 (3D coordinates assigned)
COc1ccc(C(=O)c2c(CC[NH+]3CCOCC3)oc3ccccc23)cc1 (nonaromatic ring conformer: 107.0034874689713 kcal/mol)

>  <smiles>  (23) 
COc1ccc(C(=O)c2c(CCN3CCOCC3)oc3ccccc23)cc1

>  <score_type>  (23) 
oracle

>  <origin>  (23) 
adg

>  <m_score__min__energy>  (23) 
-6.5999999999999996

>  <m_primary>  (23) 
energy

$$$$
23:0
     RDKit          3D

 38 40  0  0  0  0  0  0  0  0999 V2000
   59.3690   33.2810   49.1890 C   0  0  0  0  0  0  0  0  0  0  0  0
   59.9390   33.0810   47.8530 N   0  0  0  0  0  0  0  0  0  0  0  0
   61.3720   33.0530   47.6990 C   0  0  0  0  0  0  0  0  0  0  0  0
   61.9960   33.8400   46.7210 C   0  0  0  0  0  0  0  0  0  0  0  0
   63.3840   33.7910   46.5780 C   0  0  0  0  0  0  0  0  0  0  0  0
   64.1270   32.9830   47.3830 N   0  0  0  0  0  0  0  0  0  0  0  0
   63.5460   32.2050   48.3370 C   0  0  0  0  0  0  0  0  0  0  0  0
   62.1600   32.2250   48.5110 C   0  0  0  0  0  0  0  0  0  0  0  0
   59.0850   33.0870   46.6860 C   0  0  0  0  0  0  0  0  0  0  0  0
   58.8060   34.2820   45.9940 C   0  0  0  0  0  0  0  0  0  0  0  0
   57.9760   34.2740   44.8690 C   0  0  0  0  0  0  0  0  0  0  0  0
   57.4120   33.0780   44.4230 C   0  0  0  0  0  0  0  0  0  0  0  0
   57.6750   31.8840   45.1010 C   0  0  0  0  0  0  0  0  0  0  0  0
   56.9400   30.3500   44.5350 S   0  0  0  0  0  0  0  0  0  0  0  0
   58.2890   29.3590   45.1770 C   0  0  0  0  0  0  0  0  0  0  0  0
   58.1050   28.5860   46.3320 C   0  0  0  0  0  0  0  0  0  0  0  0
   59.1550   27.8080   46.8280 C   0  0  0  0  0  0  0  0  0  0  0  0
   60.3920   27.8020   46.1750 C   0  0  0  0  0  0  0  0  0  0  0  0
   60.5790   28.5770   45.0250 C   0  0  0  0  0  0  0  0  0  0  0  0
   59.5300   29.3550   44.5260 C   0  0  0  0  0  0  0  0  0  0  0  0
   58.5090   31.8880   46.2250 C   0  0  0  0  0  0  0  0  0  0  0  0
   60.1181   33.0181   49.9504 H   0  0  0  0  0  0  0  0  0  0  0  0
   59.0780   34.3349   49.3095 H   0  0  0  0  0  0  0  0  0  0  0  0
   58.4832   32.6400   49.3095 H   0  0  0  0  0  0  0  0  0  0  0  0
   61.3955   34.4924   46.0700 H   0  0  0  0  0  0  0  0  0  0  0  0
   63.8785   34.4071   45.8126 H   0  0  0  0  0  0  0  0  0  0  0  0
   65.1640   32.9560   47.2640 H   0  0  0  0  0  0  0  0  0  0  0  0
   64.1694   31.5589   48.9725 H   0  0  0  0  0  0  0  0  0  0  0  0
   61.6898   31.5950   49.2804 H   0  0  0  0  0  0  0  0  0  0  0  0
   59.2447   35.2289   46.3416 H   0  0  0  0  0  0  0  0  0  0  0  0
   57.7671   35.2123   44.3343 H   0  0  0  0  0  0  0  0  0  0  0  0
   56.7599   33.0747   43.5371 H   0  0  0  0  0  0  0  0  0  0  0  0
   57.1337   28.5917   46.8483 H   0  0  0  0  0  0  0  0  0  0  0  0
   59.0084   27.1998   47.7328 H   0  0  0  0  0  0  0  0  0  0  0  0
   61.2173   27.1884   46.5653 H   0  0  0  0  0  0  0  0  0  0  0  0
   61.5525   28.5741   44.5130 H   0  0  0  0  0  0  0  0  0  0  0  0
   59.6788   29.9641   43.6222 H   0  0  0  0  0  0  0  0  0  0  0  0
   58.7163   30.9456   46.7531 H   0  0  0  0  0  0  0  0  0  0  0  0
  1  2  1  0
  2  3  1  0
  3  4  2  0
  4  5  1  0
  5  6  2  0
  6  7  1  0
  7  8  2  0
  2  9  1  0
  9 10  2  0
 10 11  1  0
 11 12  2  0
 12 13  1  0
 13 14  1  0
 14 15  1  0
 15 16  2  0
 16 17  1  0
 17 18  2  0
 18 19  1  0
 19 20  2  0
 13 21  2  0
  8  3  1  0
 21  9  1  0
 20 15  1  0
  1 22  1  0
  1 23  1  0
  1 24  1  0
  4 25  1  0
  5 26  1  0
  6 27  1  0
  7 28  1  0
  8 29  1  0
 10 30  1  0
 11 31  1  0
 12 32  1  0
 16 33  1  0
 17 34  1  0
 18 35  1  0
 19 36  1  0
 20 37  1  0
 21 38  1  0
M  CHG  1   6   1
M  END
>  <UniqueID>  (24) 
23

>  <SMILES>  (24) 
CN(c1cc[nH+]cc1)c1cccc(Sc2ccccc2)c1

>  <Energy>  (24) 
44.13097609436262

>  <Genealogy>  (24) 
CN(c1cc[nH+]cc1)c1cccc(Sc2ccccc2)c1 (protonated)
CN(c1cc[nH+]cc1)c1cccc(Sc2ccccc2)c1 (3D coordinates assigned)
CN(c1cc[nH+]cc1)c1cccc(Sc2ccccc2)c1 (optimized conformer: 44.13097609436262 kcal/mol)

>  <smiles>  (24) 
CN(c1ccncc1)c1cccc(Sc2ccccc2)c1

>  <score_type>  (24) 
oracle

>  <origin>  (24) 
adg

>  <m_score__min__energy>  (24) 
-6.6100000000000003

>  <m_primary>  (24) 
energy

$$$$
24:0
     RDKit          3D

 27 29  0  0  0  0  0  0  0  0999 V2000
   56.6930   27.4880   45.6240 S   0  0  0  0  0  0  0  0  0  0  0  0
   56.9980   29.0890   45.4590 C   0  0  0  0  0  0  0  0  0  0  0  0
   56.2650   29.8990   44.6740 N   0  0  0  0  0  0  0  0  0  0  0  0
   56.7500   31.1210   44.8280 N   0  0  0  0  0  0  0  0  0  0  0  0
   57.7680   31.0440   45.7110 C   0  0  0  0  0  0  0  0  0  0  0  0
   58.5970   32.2080   46.0950 C   0  0  0  0  0  0  0  0  0  0  0  0
   58.0810   33.5110   46.0160 C   0  0  0  0  0  0  0  0  0  0  0  0
   58.8880   34.5930   46.3720 C   0  0  0  0  0  0  0  0  0  0  0  0
   60.1990   34.3730   46.7980 C   0  0  0  0  0  0  0  0  0  0  0  0
   60.6850   33.0660   46.8580 C   0  0  0  0  0  0  0  0  0  0  0  0
   62.4700   32.7220   47.4360 Br  0  0  0  0  0  0  0  0  0  0  0  0
   59.8830   32.0270   46.5050 N   0  0  0  0  0  0  0  0  0  0  0  0
   57.9510   29.7690   46.1290 N   0  0  0  0  0  0  0  0  0  0  0  0
   58.8620   29.2630   47.1170 C   0  0  0  0  0  0  0  0  0  0  0  0
   58.9030   29.8320   48.4000 C   0  0  0  0  0  0  0  0  0  0  0  0
   59.7940   29.3420   49.3580 C   0  0  0  0  0  0  0  0  0  0  0  0
   60.6460   28.2790   49.0440 C   0  0  0  0  0  0  0  0  0  0  0  0
   60.6040   27.7020   47.7710 C   0  0  0  0  0  0  0  0  0  0  0  0
   59.7140   28.1910   46.8100 C   0  0  0  0  0  0  0  0  0  0  0  0
   57.0483   33.6783   45.6761 H   0  0  0  0  0  0  0  0  0  0  0  0
   58.4914   35.6175   46.3169 H   0  0  0  0  0  0  0  0  0  0  0  0
   60.8412   35.2194   47.0829 H   0  0  0  0  0  0  0  0  0  0  0  0
   58.2315   30.6661   48.6516 H   0  0  0  0  0  0  0  0  0  0  0  0
   59.8252   29.7932   50.3607 H   0  0  0  0  0  0  0  0  0  0  0  0
   61.3494   27.8965   49.7983 H   0  0  0  0  0  0  0  0  0  0  0  0
   61.2716   26.8629   47.5255 H   0  0  0  0  0  0  0  0  0  0  0  0
   59.6815   27.7339   45.8100 H   0  0  0  0  0  0  0  0  0  0  0  0
  1  2  2  0
  2  3  1  0
  3  4  1  0
  4  5  2  0
  5  6  1  0
  6  7  2  0
  7  8  1  0
  8  9  2  0
  9 10  1  0
 10 11  1  0
 10 12  2  0
  5 13  1  0
 13 14  1  0
 14 15  2  0
 15 16  1  0
 16 17  2  0
 17 18  1  0
 18 19  2  0
 13  2  1  0
 19 14  1  0
 12  6  1  0
  7 20  1  0
  8 21  1  0
  9 22  1  0
 15 23  1  0
 16 24  1  0
 17 25  1  0
 18 26  1  0
 19 27  1  0
M  CHG  1   3  -1
M  END
>  <UniqueID>  (25) 
24

>  <SMILES>  (25) 
S=c1[n-]nc(-c2cccc(Br)n2)n1-c1ccccc1

>  <Energy>  (25) 
73.66732827803263

>  <Genealogy>  (25) 
S=c1[n-]nc(-c2cccc(Br)n2)n1-c1ccccc1 (protonated)
S=c1[n-]nc(-c2cccc(Br)n2)n1-c1ccccc1 (3D coordinates assigned)
S=c1[n-]nc(-c2cccc(Br)n2)n1-c1ccccc1 (optimized conformer: 73.66732827803263 kcal/mol)

>  <smiles>  (25) 
S=c1[nH]nc(-c2cccc(Br)n2)n1-c1ccccc1

>  <score_type>  (25) 
oracle

>  <origin>  (25) 
adg

>  <m_score__min__energy>  (25) 
-8.7200000000000006

>  <m_primary>  (25) 
energy

$$$$
25:0
     RDKit          3D

 58 61  0  0  0  0  0  0  0  0999 V2000
   60.1670   33.3880   51.0330 C   0  0  0  0  0  0  0  0  0  0  0  0
   59.6630   34.2720   50.0380 O   0  0  0  0  0  0  0  0  0  0  0  0
   59.6700   34.0070   48.6600 C   0  0  0  0  0  0  0  0  0  0  0  0
   59.2610   34.9590   47.7060 C   0  0  0  0  0  0  0  0  0  0  0  0
   59.2930   34.6480   46.3480 C   0  0  0  0  0  0  0  0  0  0  0  0
   59.7370   33.3970   45.9200 C   0  0  0  0  0  0  0  0  0  0  0  0
   60.1300   32.4300   46.8590 C   0  0  0  0  0  0  0  0  0  0  0  0
   60.5600   31.0580   46.3890 C   0  0  0  0  0  0  0  0  0  0  0  0
   59.4120   30.1110   46.3230 N   0  0  2  0  0  0  0  0  0  0  0  0
   59.4640   29.1430   47.4550 C   0  0  0  0  0  0  0  0  0  0  0  0
   59.9330   27.7610   47.0160 C   0  0  0  0  0  0  0  0  0  0  0  0
   58.9460   27.1890   46.0900 N   0  0  0  0  0  0  0  0  0  0  0  0
   59.3710   25.8490   45.6250 C   0  0  0  0  0  0  0  0  0  0  0  0
   58.2290   24.8290   45.7980 C   0  0  0  0  0  0  0  0  0  0  0  0
   57.3980   25.1260   47.0700 C   0  0  0  0  0  0  0  0  0  0  0  0
   56.1470   25.9500   46.7250 C   0  0  0  0  0  0  0  0  0  0  0  0
   55.2620   25.3200   45.8000 O   0  0  0  0  0  0  0  0  0  0  0  0
   55.8920   24.3940   44.9190 C   0  0  0  0  0  0  0  0  0  0  0  0
   57.3290   24.7880   44.5440 C   0  0  0  0  0  0  0  0  0  0  0  0
   58.5820   28.1050   44.9760 C   0  0  1  0  0  0  0  0  0  0  0  0
   57.0870   28.4190   45.0140 C   0  0  0  0  0  0  0  0  0  0  0  0
   56.9130   29.9130   44.0860 S   0  0  0  0  0  0  0  0  0  0  0  0
   56.3030   29.6600   42.7370 O   0  0  0  0  0  0  0  0  0  0  0  0
   56.1260   30.9450   44.8430 O   0  0  0  0  0  0  0  0  0  0  0  0
   58.6190   30.3610   43.9550 C   0  0  0  0  0  0  0  0  0  0  0  0
   59.3530   29.4630   44.9720 C   0  0  1  0  0  0  0  0  0  0  0  0
   60.1030   32.7480   48.2280 C   0  0  0  0  0  0  0  0  0  0  0  0
   59.9377   33.7901   52.0309 H   0  0  0  0  0  0  0  0  0  0  0  0
   59.6962   32.4005   50.9186 H   0  0  0  0  0  0  0  0  0  0  0  0
   61.2566   33.2902   50.9186 H   0  0  0  0  0  0  0  0  0  0  0  0
   58.9154   35.9506   48.0337 H   0  0  0  0  0  0  0  0  0  0  0  0
   58.9659   35.3940   45.6088 H   0  0  0  0  0  0  0  0  0  0  0  0
   59.7793   33.1676   44.8450 H   0  0  0  0  0  0  0  0  0  0  0  0
   61.0053   31.1482   45.3872 H   0  0  0  0  0  0  0  0  0  0  0  0
   61.2889   30.6620   47.1114 H   0  0  0  0  0  0  0  0  0  0  0  0
   58.5300   30.6630   46.4500 H   0  0  0  0  0  0  0  0  0  0  0  0
   60.1591   29.5267   48.2164 H   0  0  0  0  0  0  0  0  0  0  0  0
   58.4447   29.0399   47.8555 H   0  0  0  0  0  0  0  0  0  0  0  0
   60.9062   27.8459   46.5104 H   0  0  0  0  0  0  0  0  0  0  0  0
   60.0369   27.1086   47.8956 H   0  0  0  0  0  0  0  0  0  0  0  0
   59.6473   25.9058   44.5618 H   0  0  0  0  0  0  0  0  0  0  0  0
   60.2333   25.5219   46.2246 H   0  0  0  0  0  0  0  0  0  0  0  0
   58.6838   23.8351   45.9215 H   0  0  0  0  0  0  0  0  0  0  0  0
   57.0884   24.1753   47.5286 H   0  0  0  0  0  0  0  0  0  0  0  0
   58.0191   25.7044   47.7697 H   0  0  0  0  0  0  0  0  0  0  0  0
   55.5929   26.1402   47.6560 H   0  0  0  0  0  0  0  0  0  0  0  0
   56.5023   26.8717   46.2410 H   0  0  0  0  0  0  0  0  0  0  0  0
   55.9171   23.4092   45.4084 H   0  0  0  0  0  0  0  0  0  0  0  0
   55.3058   24.3815   43.9883 H   0  0  0  0  0  0  0  0  0  0  0  0
   57.7320   24.0505   43.8343 H   0  0  0  0  0  0  0  0  0  0  0  0
   57.3134   25.7886   44.0872 H   0  0  0  0  0  0  0  0  0  0  0  0
   58.8660   27.5613   44.0629 H   0  0  0  0  0  0  0  0  0  0  0  0
   56.5088   27.6060   44.5507 H   0  0  0  0  0  0  0  0  0  0  0  0
   56.7118   28.5242   46.0427 H   0  0  0  0  0  0  0  0  0  0  0  0
   58.9899   30.1732   42.9366 H   0  0  0  0  0  0  0  0  0  0  0  0
   58.7800   31.4298   44.1594 H   0  0  0  0  0  0  0  0  0  0  0  0
   60.4051   29.2994   44.6958 H   0  0  0  0  0  0  0  0  0  0  0  0
   60.4254   31.9999   48.9672 H   0  0  0  0  0  0  0  0  0  0  0  0
  1  2  1  0
  2  3  1  0
  3  4  2  0
  4  5  1  0
  5  6  2  0
  6  7  1  0
  7  8  1  0
  8  9  1  0
  9 10  1  0
 10 11  1  0
 11 12  1  0
 12 13  1  0
 13 14  1  0
 14 15  1  0
 15 16  1  0
 16 17  1  0
 17 18  1  0
 18 19  1  0
 12 20  1  0
 20 21  1  0
 21 22  1  0
 22 23  2  0
 22 24  2  0
 22 25  1  0
 25 26  1  0
  7 27  2  0
 27  3  1  0
 26  9  1  0
 19 14  1  0
 26 20  1  0
  1 28  1  0
  1 29  1  0
  1 30  1  0
  4 31  1  0
  5 32  1  0
  6 33  1  0
  8 34  1  0
  8 35  1  0
  9 36  1  1
 10 37  1  0
 10 38  1  0
 11 39  1  0
 11 40  1  0
 13 41  1  0
 13 42  1  0
 14 43  1  0
 15 44  1  0
 15 45  1  0
 16 46  1  0
 16 47  1  0
 18 48  1  0
 18 49  1  0
 19 50  1  0
 19 51  1  0
 20 52  1  6
 21 53  1  0
 21 54  1  0
 25 55  1  0
 25 56  1  0
 26 57  1  6
 27 58  1  0
M  CHG  1   9   1
M  END
>  <UniqueID>  (26) 
25

>  <SMILES>  (26) 
COc1cccc(C[N@@H+]2CCN(CC3CCOCC3)[C@H]3CS(=O)(=O)CC32)c1

>  <Energy>  (26) 
83.88223867750423

>  <Genealogy>  (26) 
COc1cccc(C[NH+]2CCN(CC3CCOCC3)C3CS(=O)(=O)CC32)c1 (protonated)
COc1cccc(C[N@@H+]2CCN(CC3CCOCC3)[C@H]3CS(=O)(=O)CC32)c1 (chirality)
COc1cccc(C[N@@H+]2CCN(CC3CCOCC3)[C@H]3CS(=O)(=O)CC32)c1 (3D coordinates assigned)
COc1cccc(C[N@@H+]2CCN(CC3CCOCC3)[C@H]3CS(=O)(=O)CC32)c1 (nonaromatic ring conformer: 83.88223867750423 kcal/mol)

>  <smiles>  (26) 
COc1cccc(CN2CCN(CC3CCOCC3)C3CS(=O)(=O)CC32)c1

>  <score_type>  (26) 
oracle

>  <origin>  (26) 
adg

>  <m_score__min__energy>  (26) 
-7.0300000000000002

>  <m_primary>  (26) 
energy

$$$$
26:0
     RDKit          3D

 39 41  0  0  0  0  0  0  0  0999 V2000
   57.5550   22.9390   46.9240 H   0  0  0  0  0  0  0  0  0  0  0  0
   58.1460   23.7410   46.7400 O   0  0  0  0  0  0  0  0  0  0  0  0
   57.6250   24.9810   46.3700 C   0  0  0  0  0  0  0  0  0  0  0  0
   56.2350   25.2120   46.3670 C   0  0  0  0  0  0  0  0  0  0  0  0
   55.3740   24.1680   46.7410 O   0  0  0  0  0  0  0  0  0  0  0  0
   54.3660   23.6110   45.9030 C   0  0  0  0  0  0  0  0  0  0  0  0
   53.5724   23.1725   46.5258 H   0  0  0  0  0  0  0  0  0  0  0  0
   53.9392   24.4013   45.2680 H   0  0  0  0  0  0  0  0  0  0  0  0
   54.8079   22.8291   45.2680 H   0  0  0  0  0  0  0  0  0  0  0  0
   55.7460   26.4790   45.9870 C   0  0  0  0  0  0  0  0  0  0  0  0
   54.6625   26.6687   45.9809 H   0  0  0  0  0  0  0  0  0  0  0  0
   56.6330   27.4950   45.6180 C   0  0  0  0  0  0  0  0  0  0  0  0
   56.1620   28.7140   45.2500 N   0  0  0  0  0  0  0  0  0  0  0  0
   57.0080   29.7150   44.8780 C   0  0  0  0  0  0  0  0  0  0  0  0
   56.5490   30.8760   44.5160 N   0  0  0  0  0  0  0  0  0  0  0  0
   57.3570   31.9490   43.9340 C   0  0  0  0  0  0  0  0  0  0  0  0
   56.7096   32.6012   43.3294 H   0  0  0  0  0  0  0  0  0  0  0  0
   58.1406   31.5006   43.3055 H   0  0  0  0  0  0  0  0  0  0  0  0
   58.0120   32.7670   45.0140 C   0  0  0  0  0  0  0  0  0  0  0  0
   58.8150   33.8720   44.6880 C   0  0  0  0  0  0  0  0  0  0  0  0
   58.9484   34.1588   43.6344 H   0  0  0  0  0  0  0  0  0  0  0  0
   59.4460   34.6100   45.6940 C   0  0  0  0  0  0  0  0  0  0  0  0
   60.0725   35.4744   45.4288 H   0  0  0  0  0  0  0  0  0  0  0  0
   59.2820   34.2500   47.0470 C   0  0  0  0  0  0  0  0  0  0  0  0
   59.8950   34.9570   48.0920 O   0  0  0  0  0  0  0  0  0  0  0  0
   60.7210   34.3630   49.0880 C   0  0  0  0  0  0  0  0  0  0  0  0
   60.3447   34.6336   50.0856 H   0  0  0  0  0  0  0  0  0  0  0  0
   60.7039   33.2691   48.9740 H   0  0  0  0  0  0  0  0  0  0  0  0
   61.7526   34.7274   48.9740 H   0  0  0  0  0  0  0  0  0  0  0  0
   58.4820   33.1480   47.3670 C   0  0  0  0  0  0  0  0  0  0  0  0
   58.3473   32.8601   48.4201 H   0  0  0  0  0  0  0  0  0  0  0  0
   57.8520   32.4090   46.3610 C   0  0  0  0  0  0  0  0  0  0  0  0
   57.2281   31.5430   46.6269 H   0  0  0  0  0  0  0  0  0  0  0  0
   58.3500   29.4980   44.8790 N   0  0  0  0  0  0  0  0  0  0  0  0
   58.8710   28.2970   45.2420 C   0  0  0  0  0  0  0  0  0  0  0  0
   59.9603   28.1440   45.2362 H   0  0  0  0  0  0  0  0  0  0  0  0
   58.0190   27.2560   45.6230 C   0  0  0  0  0  0  0  0  0  0  0  0
   58.5100   26.0000   46.0000 C   0  0  0  0  0  0  0  0  0  0  0  0
   59.5941   25.8138   46.0053 H   0  0  0  0  0  0  0  0  0  0  0  0
  1  2  1  0
  2  3  1  0
  3  4  2  0
  4  5  1  0
  5  6  1  0
  6  7  1  0
  6  8  1  0
  6  9  1  0
  4 10  1  0
 10 11  1  0
 10 12  2  0
 12 13  1  0
 13 14  1  0
 14 15  2  0
 15 16  1  0
 16 17  1  0
 16 18  1  0
 16 19  1  0
 19 20  2  0
 20 21  1  0
 20 22  1  0
 22 23  1  0
 22 24  2  0
 24 25  1  0
 25 26  1  0
 26 27  1  0
 26 28  1  0
 26 29  1  0
 24 30  1  0
 30 31  1  0
 30 32  2  0
 32 33  1  0
 14 34  1  0
 34 35  2  0
 35 36  1  0
 35 37  1  0
 37 38  2  0
 38 39  1  0
 38  3  1  0
 37 12  1  0
 32 19  1  0
M  CHG  1  13  -1
M  END
>  <UniqueID>  (27) 
26

>  <SMILES>  (27) 
COc1ccc(C/N=c2/ncc3cc(O)c(OC)cc3[n-]2)cc1

>  <Energy>  (27) 
42.5330782955507

>  <Genealogy>  (27) 
COc1ccc(CN=c2ncc3cc(O)c(OC)cc3[n-]2)cc1 (protonated)
COc1ccc(C/N=c2/ncc3cc(O)c(OC)cc3[n-]2)cc1 (cis-trans isomerization)
COc1ccc(C/N=c2/ncc3cc(O)c(OC)cc3[n-]2)cc1 (3D coordinates assigned)
COc1ccc(C/N=c2/ncc3cc(O)c(OC)cc3[n-]2)cc1 (optimized conformer: 42.5330782955507 kcal/mol)

>  <smiles>  (27) 
COc1ccc(CN=c2ncc3cc(O)c(OC)cc3[nH]2)cc1

>  <score_type>  (27) 
oracle

>  <origin>  (27) 
adg

>  <m_score__min__energy>  (27) 
-8.0700000000000003

>  <m_primary>  (27) 
energy

$$$$
27:0
     RDKit          3D

 40 41  0  0  0  0  0  0  0  0999 V2000
   56.5820   26.3370   45.9960 C   0  0  0  0  0  0  0  0  0  0  0  0
   55.8970   27.5230   45.6080 O   0  0  0  0  0  0  0  0  0  0  0  0
   56.5310   28.7080   45.2060 C   0  0  0  0  0  0  0  0  0  0  0  0
   55.7780   29.6660   44.5200 C   0  0  0  0  0  0  0  0  0  0  0  0
   56.3620   30.8640   44.1000 C   0  0  0  0  0  0  0  0  0  0  0  0
   57.7150   31.1270   44.3680 C   0  0  0  0  0  0  0  0  0  0  0  0
   58.3500   32.4300   43.9240 C   0  0  0  0  0  0  0  0  0  0  0  0
   58.3130   33.5050   44.9560 N   0  0  0  0  0  0  0  0  0  0  0  0
   57.0130   34.2080   44.9140 C   0  0  0  0  0  0  0  0  0  0  0  0
   58.6670   33.0340   46.3330 C   0  0  2  0  0  0  0  0  0  0  0  0
   58.6470   34.1580   47.3750 C   0  0  0  0  0  0  0  0  0  0  0  0
   60.0190   34.8070   47.2760 C   0  0  0  0  0  0  0  0  0  0  0  0
   60.9230   33.8310   46.6390 N   0  0  1  0  0  0  0  0  0  0  0  0
   62.1270   33.5740   47.4460 C   0  0  0  0  0  0  0  0  0  0  0  0
   60.1350   32.6060   46.4300 C   0  0  0  0  0  0  0  0  0  0  0  0
   58.4760   30.1610   45.0470 C   0  0  0  0  0  0  0  0  0  0  0  0
   57.8910   28.9630   45.4660 C   0  0  0  0  0  0  0  0  0  0  0  0
   56.6171   26.2763   47.0938 H   0  0  0  0  0  0  0  0  0  0  0  0
   56.0514   25.4599   45.5970 H   0  0  0  0  0  0  0  0  0  0  0  0
   57.6069   26.3583   45.5970 H   0  0  0  0  0  0  0  0  0  0  0  0
   54.7155   29.4747   44.3089 H   0  0  0  0  0  0  0  0  0  0  0  0
   55.7582   31.6054   43.5562 H   0  0  0  0  0  0  0  0  0  0  0  0
   59.4013   32.2327   43.6676 H   0  0  0  0  0  0  0  0  0  0  0  0
   57.7655   32.7926   43.0656 H   0  0  0  0  0  0  0  0  0  0  0  0
   56.6647   34.3964   45.9403 H   0  0  0  0  0  0  0  0  0  0  0  0
   57.1308   35.1654   44.3852 H   0  0  0  0  0  0  0  0  0  0  0  0
   56.2763   33.5853   44.3852 H   0  0  0  0  0  0  0  0  0  0  0  0
   57.9316   32.2367   46.5159 H   0  0  0  0  0  0  0  0  0  0  0  0
   57.8564   34.8868   47.1431 H   0  0  0  0  0  0  0  0  0  0  0  0
   58.4390   33.7810   48.3872 H   0  0  0  0  0  0  0  0  0  0  0  0
   59.9601   35.7197   46.6648 H   0  0  0  0  0  0  0  0  0  0  0  0
   60.3895   35.0867   48.2732 H   0  0  0  0  0  0  0  0  0  0  0  0
   61.2240   34.1990   45.7040 H   0  0  0  0  0  0  0  0  0  0  0  0
   61.8709   33.6287   48.5144 H   0  0  0  0  0  0  0  0  0  0  0  0
   62.5174   32.5723   47.2133 H   0  0  0  0  0  0  0  0  0  0  0  0
   62.8924   34.3290   47.2133 H   0  0  0  0  0  0  0  0  0  0  0  0
   60.4468   32.1095   45.4993 H   0  0  0  0  0  0  0  0  0  0  0  0
   60.2847   31.8951   47.2560 H   0  0  0  0  0  0  0  0  0  0  0  0
   59.5406   30.3490   45.2505 H   0  0  0  0  0  0  0  0  0  0  0  0
   58.4957   28.2161   46.0012 H   0  0  0  0  0  0  0  0  0  0  0  0
  1  2  1  0
  2  3  1  0
  3  4  2  0
  4  5  1  0
  5  6  2  0
  6  7  1  0
  7  8  1  0
  8  9  1  0
  8 10  1  0
 10 11  1  0
 11 12  1  0
 12 13  1  0
 13 14  1  0
 13 15  1  0
  6 16  1  0
 16 17  2  0
 17  3  1  0
 15 10  1  0
  1 18  1  0
  1 19  1  0
  1 20  1  0
  4 21  1  0
  5 22  1  0
  7 23  1  0
  7 24  1  0
  9 25  1  0
  9 26  1  0
  9 27  1  0
 10 28  1  1
 11 29  1  0
 11 30  1  0
 12 31  1  0
 12 32  1  0
 13 33  1  6
 14 34  1  0
 14 35  1  0
 14 36  1  0
 15 37  1  0
 15 38  1  0
 16 39  1  0
 17 40  1  0
M  CHG  1  13   1
M  END
>  <UniqueID>  (28) 
27

>  <SMILES>  (28) 
COc1ccc(CN(C)[C@@H]2CC[N@@H+](C)C2)cc1

>  <Energy>  (28) 
52.137564942315294

>  <Genealogy>  (28) 
COc1ccc(CN(C)C2CC[NH+](C)C2)cc1 (protonated)
COc1ccc(CN(C)[C@@H]2CC[N@@H+](C)C2)cc1 (chirality)
COc1ccc(CN(C)[C@@H]2CC[N@@H+](C)C2)cc1 (3D coordinates assigned)
COc1ccc(CN(C)[C@@H]2CC[N@@H+](C)C2)cc1 (nonaromatic ring conformer: 52.137564942315294 kcal/mol)

>  <smiles>  (28) 
COc1ccc(CN(C)C2CCN(C)C2)cc1

>  <score_type>  (28) 
oracle

>  <origin>  (28) 
adg

>  <m_score__min__energy>  (28) 
-4.9199999999999999

>  <m_primary>  (28) 
energy

$$$$
28:0
     RDKit          3D

 41 43  0  0  0  0  0  0  0  0999 V2000
   63.6130   31.9690   47.4520 C   0  0  0  0  0  0  0  0  0  0  0  0
   62.2120   32.5120   47.1560 C   0  0  2  0  0  0  0  0  0  0  0  0
   61.9480   33.8570   47.8760 C   0  0  0  0  0  0  0  0  0  0  0  0
   60.5150   34.0960   48.1120 N   0  0  0  0  0  0  0  0  0  0  0  0
   59.7860   34.7640   47.0110 C   0  0  0  0  0  0  0  0  0  0  0  0
   58.8980   33.8370   46.2220 C   0  0  0  0  0  0  0  0  0  0  0  0
   57.6690   34.2200   45.6890 C   0  0  0  0  0  0  0  0  0  0  0  0
   57.0200   32.8870   44.8970 S   0  0  0  0  0  0  0  0  0  0  0  0
   58.3180   31.8740   45.2530 C   0  0  0  0  0  0  0  0  0  0  0  0
   58.4220   30.4480   44.8570 C   0  0  0  0  0  0  0  0  0  0  0  0
   59.5420   29.6770   45.2230 C   0  0  0  0  0  0  0  0  0  0  0  0
   59.6290   28.3320   44.8490 C   0  0  0  0  0  0  0  0  0  0  0  0
   58.6030   27.7410   44.1090 C   0  0  0  0  0  0  0  0  0  0  0  0
   57.4840   28.4930   43.7450 C   0  0  0  0  0  0  0  0  0  0  0  0
   57.3910   29.8380   44.1170 C   0  0  0  0  0  0  0  0  0  0  0  0
   59.2520   32.5450   45.9670 N   0  0  0  0  0  0  0  0  0  0  0  0
   59.8030   32.9720   48.7530 C   0  0  0  0  0  0  0  0  0  0  0  0
   60.5080   31.6060   48.5720 C   0  0  2  0  0  0  0  0  0  0  0  0
   61.3490   31.1960   49.7900 C   0  0  0  0  0  0  0  0  0  0  0  0
   61.2270   31.5060   47.3550 O   0  0  0  0  0  0  0  0  0  0  0  0
   63.7615   31.9114   48.5404 H   0  0  0  0  0  0  0  0  0  0  0  0
   63.7173   30.9653   47.0141 H   0  0  0  0  0  0  0  0  0  0  0  0
   64.3665   32.6402   47.0141 H   0  0  0  0  0  0  0  0  0  0  0  0
   62.1430   32.7704   46.0890 H   0  0  0  0  0  0  0  0  0  0  0  0
   62.4686   33.8470   48.8450 H   0  0  0  0  0  0  0  0  0  0  0  0
   62.3197   34.6633   47.2266 H   0  0  0  0  0  0  0  0  0  0  0  0
   59.1613   35.5606   47.4413 H   0  0  0  0  0  0  0  0  0  0  0  0
   60.5429   35.1540   46.3146 H   0  0  0  0  0  0  0  0  0  0  0  0
   57.2070   35.2148   45.7716 H   0  0  0  0  0  0  0  0  0  0  0  0
   60.3538   30.1354   45.8068 H   0  0  0  0  0  0  0  0  0  0  0  0
   60.5084   27.7381   45.1387 H   0  0  0  0  0  0  0  0  0  0  0  0
   58.6761   26.6841   43.8130 H   0  0  0  0  0  0  0  0  0  0  0  0
   56.6742   28.0266   43.1646 H   0  0  0  0  0  0  0  0  0  0  0  0
   56.5056   30.4238   43.8293 H   0  0  0  0  0  0  0  0  0  0  0  0
   60.1560   32.1340   46.2870 H   0  0  0  0  0  0  0  0  0  0  0  0
   59.7217   33.1811   49.8299 H   0  0  0  0  0  0  0  0  0  0  0  0
   58.8199   32.8939   48.2658 H   0  0  0  0  0  0  0  0  0  0  0  0
   59.6957   30.8675   48.5027 H   0  0  0  0  0  0  0  0  0  0  0  0
   60.8105   31.4585   50.7125 H   0  0  0  0  0  0  0  0  0  0  0  0
   61.5258   30.1106   49.7649 H   0  0  0  0  0  0  0  0  0  0  0  0
   62.3130   31.7252   49.7649 H   0  0  0  0  0  0  0  0  0  0  0  0
  1  2  1  0
  2  3  1  0
  3  4  1  0
  4  5  1  0
  5  6  1  0
  6  7  2  0
  7  8  1  0
  8  9  1  0
  9 10  1  0
 10 11  2  0
 11 12  1  0
 12 13  2  0
 13 14  1  0
 14 15  2  0
  9 16  2  0
  4 17  1  0
 17 18  1  0
 18 19  1  0
 18 20  1  0
 20  2  1  0
 16  6  1  0
 15 10  1  0
  1 21  1  0
  1 22  1  0
  1 23  1  0
  2 24  1  6
  3 25  1  0
  3 26  1  0
  5 27  1  0
  5 28  1  0
  7 29  1  0
 11 30  1  0
 12 31  1  0
 13 32  1  0
 14 33  1  0
 15 34  1  0
 16 35  1  0
 17 36  1  0
 17 37  1  0
 18 38  1  6
 19 39  1  0
 19 40  1  0
 19 41  1  0
M  CHG  1  16   1
M  END
>  <UniqueID>  (29) 
28

>  <SMILES>  (29) 
C[C@@H]1CN(Cc2csc(-c3ccccc3)[nH+]2)C[C@H](C)O1

>  <Energy>  (29) 
90.27733177055401

>  <Genealogy>  (29) 
CC1CN(Cc2csc(-c3ccccc3)[nH+]2)CC(C)O1 (protonated)
C[C@@H]1CN(Cc2csc(-c3ccccc3)[nH+]2)C[C@H](C)O1 (chirality)
C[C@@H]1CN(Cc2csc(-c3ccccc3)[nH+]2)C[C@H](C)O1 (3D coordinates assigned)
C[C@@H]1CN(Cc2csc(-c3ccccc3)[nH+]2)C[C@H](C)O1 (nonaromatic ring conformer: 90.27733177055401 kcal/mol)

>  <smiles>  (29) 
CC1CN(Cc2csc(-c3ccccc3)n2)CC(C)O1

>  <score_type>  (29) 
oracle

>  <origin>  (29) 
adg

>  <m_score__min__energy>  (29) 
-5.0899999999999999

>  <m_primary>  (29) 
energy

$$$$
29:0
     RDKit          3D

 42 45  0  0  0  0  0  0  0  0999 V2000
   60.1650   28.6980   44.8840 C   0  0  0  0  0  0  0  0  0  0  0  0
   58.6930   28.7150   44.4870 C   0  0  0  0  0  0  0  0  0  0  0  0
   58.0690   30.0240   44.8460 C   0  0  0  0  0  0  0  0  0  0  0  0
   58.6550   30.9640   45.6060 N   0  0  0  0  0  0  0  0  0  0  0  0
   57.7320   31.9450   45.6220 C   0  0  0  0  0  0  0  0  0  0  0  0
   57.9120   33.2760   46.3020 C   0  0  2  0  0  0  0  0  0  0  0  0
   57.6820   34.4240   45.3200 C   0  0  0  0  0  0  0  0  0  0  0  0
   59.0750   34.8670   44.8810 C   0  0  0  0  0  0  0  0  0  0  0  0
   60.0140   34.4370   45.9990 C   0  0  0  0  0  0  0  0  0  0  0  0
   59.2830   33.4380   46.7670 N   0  0  0  0  0  0  0  0  0  0  0  0
   59.8750   32.6080   47.7860 C   0  0  0  0  0  0  0  0  0  0  0  0
   60.8980   31.9220   47.5170 O   0  0  0  0  0  0  0  0  0  0  0  0
   59.3340   32.5600   49.1590 C   0  0  0  0  0  0  0  0  0  0  0  0
   59.6730   33.5670   50.0780 C   0  0  0  0  0  0  0  0  0  0  0  0
   59.1780   33.5300   51.3850 C   0  0  0  0  0  0  0  0  0  0  0  0
   58.3530   32.4780   51.7880 C   0  0  0  0  0  0  0  0  0  0  0  0
   57.8630   32.4240   53.0560 N   0  0  0  0  0  0  0  0  0  0  0  0
   57.0670   31.3990   53.4580 C   0  0  0  0  0  0  0  0  0  0  0  0
   56.7450   30.3800   52.5570 C   0  0  0  0  0  0  0  0  0  0  0  0
   57.2310   30.4270   51.2870 N   0  0  0  0  0  0  0  0  0  0  0  0
   58.0260   31.4510   50.8780 C   0  0  0  0  0  0  0  0  0  0  0  0
   58.5220   31.4910   49.5700 C   0  0  0  0  0  0  0  0  0  0  0  0
   56.6460   31.6190   44.8900 N   0  0  0  0  0  0  0  0  0  0  0  0
   56.8920   30.4270   44.4310 O   0  0  0  0  0  0  0  0  0  0  0  0
   60.2490   28.6970   45.9808 H   0  0  0  0  0  0  0  0  0  0  0  0
   60.6436   27.7943   44.4788 H   0  0  0  0  0  0  0  0  0  0  0  0
   60.6644   29.5904   44.4788 H   0  0  0  0  0  0  0  0  0  0  0  0
   58.6092   28.5598   43.4012 H   0  0  0  0  0  0  0  0  0  0  0  0
   58.1699   27.9118   45.0266 H   0  0  0  0  0  0  0  0  0  0  0  0
   59.5960   30.9410   46.0580 H   0  0  0  0  0  0  0  0  0  0  0  0
   57.1922   33.2992   47.1334 H   0  0  0  0  0  0  0  0  0  0  0  0
   57.0973   34.0788   44.4545 H   0  0  0  0  0  0  0  0  0  0  0  0
   57.1164   35.2481   45.7793 H   0  0  0  0  0  0  0  0  0  0  0  0
   59.3535   34.3772   43.9363 H   0  0  0  0  0  0  0  0  0  0  0  0
   59.1204   35.9522   44.7069 H   0  0  0  0  0  0  0  0  0  0  0  0
   60.9337   34.0017   45.5810 H   0  0  0  0  0  0  0  0  0  0  0  0
   60.3156   35.2893   46.6256 H   0  0  0  0  0  0  0  0  0  0  0  0
   60.3326   34.3905   49.7670 H   0  0  0  0  0  0  0  0  0  0  0  0
   59.4382   34.3288   52.0951 H   0  0  0  0  0  0  0  0  0  0  0  0
   56.6782   31.3712   54.4866 H   0  0  0  0  0  0  0  0  0  0  0  0
   56.1024   29.5449   52.8729 H   0  0  0  0  0  0  0  0  0  0  0  0
   58.2756   30.6846   48.8636 H   0  0  0  0  0  0  0  0  0  0  0  0
  1  2  1  0
  2  3  1  0
  3  4  2  0
  4  5  1  0
  5  6  1  0
  6  7  1  0
  7  8  1  0
  8  9  1  0
  9 10  1  0
 10 11  1  0
 11 12  2  0
 11 13  1  0
 13 14  2  0
 14 15  1  0
 15 16  2  0
 16 17  1  0
 17 18  2  0
 18 19  1  0
 19 20  2  0
 20 21  1  0
 21 22  2  0
  5 23  2  0
 23 24  1  0
 24  3  1  0
 10  6  1  0
 22 13  1  0
 21 16  1  0
  1 25  1  0
  1 26  1  0
  1 27  1  0
  2 28  1  0
  2 29  1  0
  4 30  1  0
  6 31  1  1
  7 32  1  0
  7 33  1  0
  8 34  1  0
  8 35  1  0
  9 36  1  0
  9 37  1  0
 14 38  1  0
 15 39  1  0
 18 40  1  0
 19 41  1  0
 22 42  1  0
M  CHG  1   4   1
M  END
>  <UniqueID>  (30) 
29

>  <SMILES>  (30) 
CCc1[nH+]c([C@@H]2CCCN2C(=O)c2ccc3nccnc3c2)no1

>  <Energy>  (30) 
84.06609815652276

>  <Genealogy>  (30) 
CCc1[nH+]c(C2CCCN2C(=O)c2ccc3nccnc3c2)no1 (protonated)
CCc1[nH+]c([C@@H]2CCCN2C(=O)c2ccc3nccnc3c2)no1 (chirality)
CCc1[nH+]c([C@@H]2CCCN2C(=O)c2ccc3nccnc3c2)no1 (3D coordinates assigned)
CCc1[nH+]c([C@@H]2CCCN2C(=O)c2ccc3nccnc3c2)no1 (nonaromatic ring conformer: 84.06609815652276 kcal/mol)

>  <smiles>  (30) 
CCc1nc(C2CCCN2C(=O)c2ccc3nccnc3c2)no1

>  <score_type>  (30) 
oracle

>  <origin>  (30) 
adg

>  <m_score__min__energy>  (30) 
-6.6600000000000001

>  <m_primary>  (30) 
energy

$$$$
30:0
     RDKit          3D

 49 51  0  0  0  0  0  0  0  0999 V2000
   57.7004   25.5522   47.0371 H   0  0  0  0  0  0  0  0  0  0  0  0
   57.7460   26.5690   46.6200 C   0  0  0  0  0  0  0  0  0  0  0  0
   58.9360   27.2930   46.6860 C   0  0  0  0  0  0  0  0  0  0  0  0
   59.8264   26.8398   47.1462 H   0  0  0  0  0  0  0  0  0  0  0  0
   59.0050   28.5940   46.1700 C   0  0  0  0  0  0  0  0  0  0  0  0
   60.3090   29.3460   46.2040 C   0  0  0  0  0  0  0  0  0  0  0  0
   60.8306   29.1261   47.1472 H   0  0  0  0  0  0  0  0  0  0  0  0
   60.9269   29.0309   45.3502 H   0  0  0  0  0  0  0  0  0  0  0  0
   60.0660   30.7840   46.1110 N   0  0  0  0  0  0  0  0  0  0  0  0
   59.4930   31.4880   47.0430 C   0  0  0  0  0  0  0  0  0  0  0  0
   59.5620   31.1980   48.3570 N   0  0  0  0  0  0  0  0  0  0  0  0
   58.8400   32.2050   48.9010 C   0  0  0  0  0  0  0  0  0  0  0  0
   58.5990   32.3450   50.3520 C   0  0  0  0  0  0  0  0  0  0  0  0
   57.7040   31.4910   51.0190 C   0  0  0  0  0  0  0  0  0  0  0  0
   57.1716   30.7077   50.4596 H   0  0  0  0  0  0  0  0  0  0  0  0
   57.4900   31.6360   52.3910 C   0  0  0  0  0  0  0  0  0  0  0  0
   56.7886   30.9711   52.9163 H   0  0  0  0  0  0  0  0  0  0  0  0
   58.1730   32.6310   53.0900 C   0  0  0  0  0  0  0  0  0  0  0  0
   58.0073   32.7555   54.1703 H   0  0  0  0  0  0  0  0  0  0  0  0
   59.0450   33.4490   52.4370 N   0  0  0  0  0  0  0  0  0  0  0  0
   59.5520   34.1870   52.9760 H   0  0  0  0  0  0  0  0  0  0  0  0
   59.2670   33.3310   51.0990 C   0  0  0  0  0  0  0  0  0  0  0  0
   59.9729   34.0109   50.5996 H   0  0  0  0  0  0  0  0  0  0  0  0
   58.3600   33.0620   47.9730 N   0  0  0  0  0  0  0  0  0  0  0  0
   58.7650   32.5940   46.8060 N   0  0  0  0  0  0  0  0  0  0  0  0
   58.5410   33.2580   45.5160 C   0  0  0  0  0  0  0  0  0  0  0  0
   58.9378   32.6223   44.7108 H   0  0  0  0  0  0  0  0  0  0  0  0
   59.2800   34.5990   45.4900 C   0  0  0  0  0  0  0  0  0  0  0  0
   59.4654   34.9355   46.5207 H   0  0  0  0  0  0  0  0  0  0  0  0
   60.2393   34.4789   44.9653 H   0  0  0  0  0  0  0  0  0  0  0  0
   58.6661   35.3459   44.9653 H   0  0  0  0  0  0  0  0  0  0  0  0
   57.0430   33.4510   45.2620 C   0  0  0  0  0  0  0  0  0  0  0  0
   56.5138   33.5192   46.2239 H   0  0  0  0  0  0  0  0  0  0  0  0
   56.8844   34.3770   44.6898 H   0  0  0  0  0  0  0  0  0  0  0  0
   56.6549   32.5954   44.6898 H   0  0  0  0  0  0  0  0  0  0  0  0
   57.8690   29.1590   45.5710 C   0  0  0  0  0  0  0  0  0  0  0  0
   57.9192   30.1779   45.1596 H   0  0  0  0  0  0  0  0  0  0  0  0
   56.6640   28.4320   45.4920 C   0  0  0  0  0  0  0  0  0  0  0  0
   55.5120   28.9620   44.8890 O   0  0  0  0  0  0  0  0  0  0  0  0
   55.5140   29.7990   43.7370 C   0  0  0  0  0  0  0  0  0  0  0  0
   55.5165   30.8535   44.0500 H   0  0  0  0  0  0  0  0  0  0  0  0
   56.4117   29.5929   43.1356 H   0  0  0  0  0  0  0  0  0  0  0  0
   54.6154   29.5972   43.1356 H   0  0  0  0  0  0  0  0  0  0  0  0
   56.6020   27.1330   46.0220 C   0  0  0  0  0  0  0  0  0  0  0  0
   55.3880   26.4340   45.9320 O   0  0  0  0  0  0  0  0  0  0  0  0
   55.2770   25.0450   45.6370 C   0  0  0  0  0  0  0  0  0  0  0  0
   55.2313   24.4733   46.5757 H   0  0  0  0  0  0  0  0  0  0  0  0
   54.3617   24.8660   45.0538 H   0  0  0  0  0  0  0  0  0  0  0  0
   56.1523   24.7229   45.0538 H   0  0  0  0  0  0  0  0  0  0  0  0
  1  2  1  0
  2  3  2  0
  3  4  1  0
  3  5  1  0
  5  6  1  0
  6  7  1  0
  6  8  1  0
  6  9  1  0
  9 10  2  0
 10 11  1  0
 11 12  2  0
 12 13  1  0
 13 14  2  0
 14 15  1  0
 14 16  1  0
 16 17  1  0
 16 18  2  0
 18 19  1  0
 18 20  1  0
 20 21  1  0
 20 22  2  0
 22 23  1  0
 12 24  1  0
 24 25  1  0
 25 26  1  0
 26 27  1  0
 26 28  1  0
 28 29  1  0
 28 30  1  0
 28 31  1  0
 26 32  1  0
 32 33  1  0
 32 34  1  0
 32 35  1  0
  5 36  2  0
 36 37  1  0
 36 38  1  0
 38 39  1  0
 39 40  1  0
 40 41  1  0
 40 42  1  0
 40 43  1  0
 38 44  2  0
 44 45  1  0
 45 46  1  0
 46 47  1  0
 46 48  1  0
 46 49  1  0
 44  2  1  0
 25 10  1  0
 22 13  1  0
M  CHG  2  20   1  24  -1
M  END
>  <UniqueID>  (31) 
30

>  <SMILES>  (31) 
COc1ccc(C/N=c2\nc(-c3ccc[nH+]c3)[n-]n2C(C)C)cc1OC

>  <Energy>  (31) 
77.03969445402576

>  <Genealogy>  (31) 
COc1ccc(CN=c2nc(-c3ccc[nH+]c3)[n-]n2C(C)C)cc1OC (protonated)
COc1ccc(C/N=c2\nc(-c3ccc[nH+]c3)[n-]n2C(C)C)cc1OC (cis-trans isomerization)
COc1ccc(C/N=c2\nc(-c3ccc[nH+]c3)[n-]n2C(C)C)cc1OC (3D coordinates assigned)
COc1ccc(C/N=c2\nc(-c3ccc[nH+]c3)[n-]n2C(C)C)cc1OC (optimized conformer: 77.03969445402576 kcal/mol)

>  <smiles>  (31) 
COc1ccc(CN=c2nc(-c3cccnc3)[nH]n2C(C)C)cc1OC

>  <score_type>  (31) 
oracle

>  <origin>  (31) 
adg

>  <m_score__min__energy>  (31) 
-7.3399999999999999

>  <m_primary>  (31) 
energy

$$$$
31:0
     RDKit          3D

 32 33  0  0  0  0  0  0  0  0999 V2000
   55.1030   24.8740   45.6060 C   0  0  0  0  0  0  0  0  0  0  0  0
   55.3710   26.2120   46.0170 O   0  0  0  0  0  0  0  0  0  0  0  0
   56.6470   26.7920   46.0470 C   0  0  0  0  0  0  0  0  0  0  0  0
   57.6230   26.2060   46.8610 C   0  0  0  0  0  0  0  0  0  0  0  0
   58.9100   26.7440   46.9240 C   0  0  0  0  0  0  0  0  0  0  0  0
   59.2330   27.8760   46.1730 C   0  0  0  0  0  0  0  0  0  0  0  0
   58.2760   28.4790   45.3490 C   0  0  0  0  0  0  0  0  0  0  0  0
   58.6580   29.6120   44.6120 O   0  0  0  0  0  0  0  0  0  0  0  0
   57.8020   30.3650   43.7530 C   0  0  0  0  0  0  0  0  0  0  0  0
   56.5920   30.8420   44.4940 C   0  0  0  0  0  0  0  0  0  0  0  0
   55.5410   30.1480   44.4840 O   0  0  0  0  0  0  0  0  0  0  0  0
   56.6390   32.0990   45.1820 N   0  0  0  0  0  0  0  0  0  0  0  0
   57.8160   32.8410   45.5340 C   0  0  0  0  0  0  0  0  0  0  0  0
   58.1800   34.0290   44.8790 C   0  0  0  0  0  0  0  0  0  0  0  0
   59.3250   34.7210   45.2800 C   0  0  0  0  0  0  0  0  0  0  0  0
   60.0880   34.2270   46.3390 C   0  0  0  0  0  0  0  0  0  0  0  0
   59.7100   33.0890   46.9780 N   0  0  0  0  0  0  0  0  0  0  0  0
   58.5990   32.3970   46.6060 C   0  0  0  0  0  0  0  0  0  0  0  0
   56.9770   27.9350   45.2910 C   0  0  0  0  0  0  0  0  0  0  0  0
   54.9753   24.2365   46.4933 H   0  0  0  0  0  0  0  0  0  0  0  0
   54.1828   24.8528   45.0037 H   0  0  0  0  0  0  0  0  0  0  0  0
   55.9441   24.5000   45.0037 H   0  0  0  0  0  0  0  0  0  0  0  0
   57.3744   25.3147   47.4558 H   0  0  0  0  0  0  0  0  0  0  0  0
   59.6704   26.2755   47.5661 H   0  0  0  0  0  0  0  0  0  0  0  0
   60.2476   28.2971   46.2295 H   0  0  0  0  0  0  0  0  0  0  0  0
   58.3538   31.2343   43.3658 H   0  0  0  0  0  0  0  0  0  0  0  0
   57.4763   29.7185   42.9248 H   0  0  0  0  0  0  0  0  0  0  0  0
   57.5647   34.4135   44.0522 H   0  0  0  0  0  0  0  0  0  0  0  0
   59.6226   35.6468   44.7659 H   0  0  0  0  0  0  0  0  0  0  0  0
   60.9965   34.7596   46.6568 H   0  0  0  0  0  0  0  0  0  0  0  0
   58.3148   31.4843   47.1503 H   0  0  0  0  0  0  0  0  0  0  0  0
   56.2157   28.4056   44.6515 H   0  0  0  0  0  0  0  0  0  0  0  0
  1  2  1  0
  2  3  1  0
  3  4  2  0
  4  5  1  0
  5  6  2  0
  6  7  1  0
  7  8  1  0
  8  9  1  0
  9 10  1  0
 10 11  2  0
 10 12  1  0
 12 13  1  0
 13 14  2  0
 14 15  1  0
 15 16  2  0
 16 17  1  0
 17 18  2  0
  7 19  2  0
 19  3  1  0
 18 13  1  0
  1 20  1  0
  1 21  1  0
  1 22  1  0
  4 23  1  0
  5 24  1  0
  6 25  1  0
  9 26  1  0
  9 27  1  0
 14 28  1  0
 15 29  1  0
 16 30  1  0
 18 31  1  0
 19 32  1  0
M  CHG  1  12  -1
M  END
>  <UniqueID>  (32) 
31

>  <SMILES>  (32) 
COc1cccc(OCC(=O)[N-]c2cccnc2)c1

>  <Energy>  (32) 
35.145127600848596

>  <Genealogy>  (32) 
COc1cccc(OCC(=O)[N-]c2cccnc2)c1 (protonated)
COc1cccc(OCC(=O)[N-]c2cccnc2)c1 (3D coordinates assigned)
COc1cccc(OCC(=O)[N-]c2cccnc2)c1 (optimized conformer: 35.145127600848596 kcal/mol)

>  <smiles>  (32) 
COc1cccc(OCC(=O)Nc2cccnc2)c1

>  <score_type>  (32) 
oracle

>  <origin>  (32) 
adg

>  <m_score__min__energy>  (32) 
-8.2100000000000009

>  <m_primary>  (32) 
energy

$$$$
32:0
     RDKit          3D

 73 76  0  0  0  0  0  0  0  0999 V2000
   59.1350   31.7300   45.8000 O   0  0  0  0  0  0  0  0  0  0  0  0
   58.0480   32.3310   45.5800 C   0  0  0  0  0  0  0  0  0  0  0  0
   57.8440   33.7190   46.1130 C   0  0  0  0  0  0  0  0  0  0  0  0
   59.1380   34.5530   46.0430 C   0  0  0  0  0  0  0  0  0  0  0  0
   59.7020   34.9250   47.4250 C   0  0  0  0  0  0  0  0  0  0  0  0
   60.9410   34.1470   47.7880 C   0  0  0  0  0  0  0  0  0  0  0  0
   61.6550   33.4410   46.8020 C   0  0  0  0  0  0  0  0  0  0  0  0
   62.8290   32.7600   47.1330 C   0  0  0  0  0  0  0  0  0  0  0  0
   63.3070   32.7860   48.4450 C   0  0  0  0  0  0  0  0  0  0  0  0
   62.6030   33.4790   49.4330 C   0  0  0  0  0  0  0  0  0  0  0  0
   61.4220   34.1570   49.1090 C   0  0  0  0  0  0  0  0  0  0  0  0
   57.0100   31.6890   44.8310 N   0  0  0  0  0  0  0  0  0  0  0  0
   57.1910   31.2750   43.4450 C   0  0  0  0  0  0  0  0  0  0  0  0
   56.3290   30.0480   43.1310 C   0  0  0  0  0  0  0  0  0  0  0  0
   55.5880   29.4990   44.3650 C   0  0  0  0  0  0  0  0  0  0  0  0
   56.4370   28.5920   45.2160 C   0  0  0  0  0  0  0  0  0  0  0  0
   55.9720   27.4930   45.6190 O   0  0  0  0  0  0  0  0  0  0  0  0
   57.7460   29.0160   45.6280 N   0  0  0  0  0  0  0  0  0  0  0  0
   58.5120   28.2990   46.6600 C   0  0  2  0  0  0  0  0  0  0  0  0
   59.8840   28.9770   46.8800 C   0  0  0  0  0  0  0  0  0  0  0  0
   60.1340   29.2620   48.3350 C   0  0  0  0  0  0  0  0  0  0  0  0
   60.7670   28.4230   49.2480 C   0  0  0  0  0  0  0  0  0  0  0  0
   60.6920   28.9380   50.4980 N   0  0  0  0  0  0  0  0  0  0  0  0
   60.0120   30.0930   50.3850 C   0  0  0  0  0  0  0  0  0  0  0  0
   59.6490   30.9680   51.4100 C   0  0  0  0  0  0  0  0  0  0  0  0
   58.9000   32.1090   51.0680 C   0  0  0  0  0  0  0  0  0  0  0  0
   58.5380   32.3510   49.7220 C   0  0  0  0  0  0  0  0  0  0  0  0
   58.9110   31.4490   48.7100 C   0  0  0  0  0  0  0  0  0  0  0  0
   59.6550   30.3260   49.0790 C   0  0  0  0  0  0  0  0  0  0  0  0
   58.7140   26.8550   46.2720 C   0  0  0  0  0  0  0  0  0  0  0  0
   58.9830   26.5700   45.0750 O   0  0  0  0  0  0  0  0  0  0  0  0
   58.4570   25.8170   47.2250 N   0  0  0  0  0  0  0  0  0  0  0  0
   57.2730   24.9630   47.2150 C   0  0  0  0  0  0  0  0  0  0  0  0
   57.1500   24.1920   45.9250 C   0  0  0  0  0  0  0  0  0  0  0  0
   56.0550   24.4010   45.0660 C   0  0  0  0  0  0  0  0  0  0  0  0
   55.9590   23.6870   43.8640 C   0  0  0  0  0  0  0  0  0  0  0  0
   56.9540   22.7650   43.5130 C   0  0  0  0  0  0  0  0  0  0  0  0
   58.0340   22.5440   44.3680 C   0  0  0  0  0  0  0  0  0  0  0  0
   58.1370   23.2540   45.5680 C   0  0  0  0  0  0  0  0  0  0  0  0
   57.0655   34.2185   45.5177 H   0  0  0  0  0  0  0  0  0  0  0  0
   57.5439   33.6401   47.1683 H   0  0  0  0  0  0  0  0  0  0  0  0
   59.8985   33.9714   45.5013 H   0  0  0  0  0  0  0  0  0  0  0  0
   58.8899   35.4939   45.5301 H   0  0  0  0  0  0  0  0  0  0  0  0
   59.9493   35.9968   47.4250 H   0  0  0  0  0  0  0  0  0  0  0  0
   58.9311   34.6797   48.1703 H   0  0  0  0  0  0  0  0  0  0  0  0
   61.2869   33.4253   45.7655 H   0  0  0  0  0  0  0  0  0  0  0  0
   63.3775   32.2027   46.3594 H   0  0  0  0  0  0  0  0  0  0  0  0
   64.2388   32.2603   48.7008 H   0  0  0  0  0  0  0  0  0  0  0  0
   62.9774   33.4918   50.4672 H   0  0  0  0  0  0  0  0  0  0  0  0
   60.8688   34.6991   49.8901 H   0  0  0  0  0  0  0  0  0  0  0  0
   56.8994   32.1013   42.7800 H   0  0  0  0  0  0  0  0  0  0  0  0
   58.2482   31.0148   43.2881 H   0  0  0  0  0  0  0  0  0  0  0  0
   55.5844   30.3282   42.3714 H   0  0  0  0  0  0  0  0  0  0  0  0
   57.0034   29.2558   42.7737 H   0  0  0  0  0  0  0  0  0  0  0  0
   55.2592   30.3488   44.9812 H   0  0  0  0  0  0  0  0  0  0  0  0
   54.7412   28.9012   43.9968 H   0  0  0  0  0  0  0  0  0  0  0  0
   58.1430   29.8780   45.1890 H   0  0  0  0  0  0  0  0  0  0  0  0
   57.9370   28.3350   47.5971 H   0  0  0  0  0  0  0  0  0  0  0  0
   60.6754   28.3110   46.5057 H   0  0  0  0  0  0  0  0  0  0  0  0
   59.8859   29.9336   46.3369 H   0  0  0  0  0  0  0  0  0  0  0  0
   61.2595   27.4739   48.9898 H   0  0  0  0  0  0  0  0  0  0  0  0
   61.0680   28.5090   51.3730 H   0  0  0  0  0  0  0  0  0  0  0  0
   59.9394   30.7717   52.4527 H   0  0  0  0  0  0  0  0  0  0  0  0
   58.5940   32.8172   51.8521 H   0  0  0  0  0  0  0  0  0  0  0  0
   57.9605   33.2514   49.4653 H   0  0  0  0  0  0  0  0  0  0  0  0
   58.6261   31.6221   47.6617 H   0  0  0  0  0  0  0  0  0  0  0  0
   57.3406   24.2507   48.0505 H   0  0  0  0  0  0  0  0  0  0  0  0
   56.3864   25.6063   47.3149 H   0  0  0  0  0  0  0  0  0  0  0  0
   55.2736   25.1257   45.3384 H   0  0  0  0  0  0  0  0  0  0  0  0
   55.1012   23.8506   43.1950 H   0  0  0  0  0  0  0  0  0  0  0  0
   56.8835   22.2152   42.5629 H   0  0  0  0  0  0  0  0  0  0  0  0
   58.8065   21.8092   44.0973 H   0  0  0  0  0  0  0  0  0  0  0  0
   58.9931   23.0788   46.2361 H   0  0  0  0  0  0  0  0  0  0  0  0
  1  2  2  0
  2  3  1  0
  3  4  1  0
  4  5  1  0
  5  6  1  0
  6  7  2  0
  7  8  1  0
  8  9  2  0
  9 10  1  0
 10 11  2  0
  2 12  1  0
 12 13  1  0
 13 14  1  0
 14 15  1  0
 15 16  1  0
 16 17  2  0
 16 18  1  0
 18 19  1  0
 19 20  1  0
 20 21  1  0
 21 22  2  0
 22 23  1  0
 23 24  1  0
 24 25  2  0
 25 26  1  0
 26 27  2  0
 27 28  1  0
 28 29  2  0
 19 30  1  0
 30 31  2  0
 30 32  1  0
 32 33  1  0
 33 34  1  0
 34 35  2  0
 35 36  1  0
 36 37  2  0
 37 38  1  0
 38 39  2  0
 11  6  1  0
 29 21  1  0
 39 34  1  0
 29 24  1  0
  3 40  1  0
  3 41  1  0
  4 42  1  0
  4 43  1  0
  5 44  1  0
  5 45  1  0
  7 46  1  0
  8 47  1  0
  9 48  1  0
 10 49  1  0
 11 50  1  0
 13 51  1  0
 13 52  1  0
 14 53  1  0
 14 54  1  0
 15 55  1  0
 15 56  1  0
 18 57  1  0
 19 58  1  1
 20 59  1  0
 20 60  1  0
 22 61  1  0
 23 62  1  0
 25 63  1  0
 26 64  1  0
 27 65  1  0
 28 66  1  0
 33 67  1  0
 33 68  1  0
 35 69  1  0
 36 70  1  0
 37 71  1  0
 38 72  1  0
 39 73  1  0
M  CHG  2  12  -1  32  -1
M  END
>  <UniqueID>  (33) 
32

>  <SMILES>  (33) 
O=C(CCCc1ccccc1)[N-]CCCC(=O)N[C@H](Cc1c[nH]c2ccccc12)C(=O)[N-]Cc1ccccc1

>  <Energy>  (33) 
93.5587299861086

>  <Genealogy>  (33) 
O=C(CCCc1ccccc1)[N-]CCCC(=O)NC(Cc1c[nH]c2ccccc12)C(=O)[N-]Cc1ccccc1 (protonated)
O=C(CCCc1ccccc1)[N-]CCCC(=O)N[C@H](Cc1c[nH]c2ccccc12)C(=O)[N-]Cc1ccccc1 (chirality)
O=C(CCCc1ccccc1)[N-]CCCC(=O)N[C@H](Cc1c[nH]c2ccccc12)C(=O)[N-]Cc1ccccc1 (3D coordinates assigned)
O=C(CCCc1ccccc1)[N-]CCCC(=O)N[C@H](Cc1c[nH]c2ccccc12)C(=O)[N-]Cc1ccccc1 (optimized conformer: 93.5587299861086 kcal/mol)

>  <smiles>  (33) 
O=C(CCCc1ccccc1)NCCCC(=O)NC(Cc1c[nH]c2ccccc12)C(=O)NCc1ccccc1

>  <score_type>  (33) 
oracle

>  <origin>  (33) 
adg

>  <m_score__min__energy>  (33) 
-13.789999999999999

>  <m_primary>  (33) 
energy

$$$$
33:0
     RDKit          3D

 36 39  0  0  0  0  0  0  0  0999 V2000
   63.0730   33.8370   47.9130 C   0  0  0  0  0  0  0  0  0  0  0  0
   61.6540   33.8270   47.5850 N   0  0  0  0  0  0  0  0  0  0  0  0
   61.0490   32.9750   46.7380 C   0  0  0  0  0  0  0  0  0  0  0  0
   59.7010   33.2500   46.7660 C   0  0  0  0  0  0  0  0  0  0  0  0
   58.6760   32.5170   46.0800 N   0  0  0  0  0  0  0  0  0  0  0  0
   57.4940   33.0330   45.7670 N   0  0  0  0  0  0  0  0  0  0  0  0
   56.7010   32.1120   45.2300 N   0  0  0  0  0  0  0  0  0  0  0  0
   57.4240   30.9790   45.2040 C   0  0  0  0  0  0  0  0  0  0  0  0
   58.6620   31.2170   45.7190 C   0  0  0  0  0  0  0  0  0  0  0  0
   59.5770   30.1040   46.1440 C   0  0  0  0  0  0  0  0  0  0  0  0
   59.3260   28.8410   45.2850 C   0  0  0  0  0  0  0  0  0  0  0  0
   57.8850   28.5410   45.1170 N   0  0  0  0  0  0  0  0  0  0  0  0
   57.4430   27.1730   45.0060 C   0  0  0  0  0  0  0  0  0  0  0  0
   57.8160   26.3870   43.9020 C   0  0  0  0  0  0  0  0  0  0  0  0
   57.3930   25.0590   43.8040 C   0  0  0  0  0  0  0  0  0  0  0  0
   56.5950   24.5010   44.8080 C   0  0  0  0  0  0  0  0  0  0  0  0
   56.1850   23.2130   44.7120 F   0  0  0  0  0  0  0  0  0  0  0  0
   56.2230   25.2730   45.9120 C   0  0  0  0  0  0  0  0  0  0  0  0
   56.6460   26.6020   46.0130 C   0  0  0  0  0  0  0  0  0  0  0  0
   56.9650   29.6320   44.8960 C   0  0  0  0  0  0  0  0  0  0  0  0
   55.7980   29.4340   44.4580 O   0  0  0  0  0  0  0  0  0  0  0  0
   59.5420   34.2640   47.6930 C   0  0  0  0  0  0  0  0  0  0  0  0
   60.7540   34.5950   48.1810 N   0  0  0  0  0  0  0  0  0  0  0  0
   63.1967   33.8379   49.0060 H   0  0  0  0  0  0  0  0  0  0  0  0
   63.5533   32.9422   47.4903 H   0  0  0  0  0  0  0  0  0  0  0  0
   63.5407   34.7385   47.4903 H   0  0  0  0  0  0  0  0  0  0  0  0
   61.5420   32.1997   46.1332 H   0  0  0  0  0  0  0  0  0  0  0  0
   60.6214   30.4257   46.0188 H   0  0  0  0  0  0  0  0  0  0  0  0
   59.3794   29.8630   47.1989 H   0  0  0  0  0  0  0  0  0  0  0  0
   59.7712   28.9971   44.2913 H   0  0  0  0  0  0  0  0  0  0  0  0
   59.7844   27.9879   45.8066 H   0  0  0  0  0  0  0  0  0  0  0  0
   58.4449   26.8201   43.1102 H   0  0  0  0  0  0  0  0  0  0  0  0
   57.6881   24.4514   42.9358 H   0  0  0  0  0  0  0  0  0  0  0  0
   55.5965   24.8345   46.7027 H   0  0  0  0  0  0  0  0  0  0  0  0
   56.3532   27.2041   46.8858 H   0  0  0  0  0  0  0  0  0  0  0  0
   58.5858   34.7237   47.9836 H   0  0  0  0  0  0  0  0  0  0  0  0
  1  2  1  0
  2  3  1  0
  3  4  2  0
  4  5  1  0
  5  6  1  0
  6  7  2  0
  7  8  1  0
  8  9  2  0
  9 10  1  0
 10 11  1  0
 11 12  1  0
 12 13  1  0
 13 14  2  0
 14 15  1  0
 15 16  2  0
 16 17  1  0
 16 18  1  0
 18 19  2  0
 12 20  1  0
 20 21  2  0
  4 22  1  0
 22 23  2  0
 23  2  1  0
  9  5  1  0
 19 13  1  0
 20  8  1  0
  1 24  1  0
  1 25  1  0
  1 26  1  0
  3 27  1  0
 10 28  1  0
 10 29  1  0
 11 30  1  0
 11 31  1  0
 14 32  1  0
 15 33  1  0
 18 34  1  0
 19 35  1  0
 22 36  1  0
M  END
>  <UniqueID>  (34) 
33

>  <SMILES>  (34) 
Cn1cc(-n2nnc3c2CCN(c2ccc(F)cc2)C3=O)cn1

>  <Energy>  (34) 
119.19282580323068

>  <Genealogy>  (34) 
Cn1cc(-n2nnc3c2CCN(c2ccc(F)cc2)C3=O)cn1 (3D coordinates assigned)
Cn1cc(-n2nnc3c2CCN(c2ccc(F)cc2)C3=O)cn1 (nonaromatic ring conformer: 119.19282580323068 kcal/mol)

>  <smiles>  (34) 
Cn1cc(-n2nnc3c2CCN(c2ccc(F)cc2)C3=O)cn1

>  <score_type>  (34) 
oracle

>  <origin>  (34) 
adg

>  <m_score__min__energy>  (34) 
-7.29

>  <m_primary>  (34) 
energy

$$$$
34:0
     RDKit          3D

 42 43  0  0  0  0  0  0  0  0999 V2000
   64.4670   32.4090   49.3550 C   0  0  0  0  0  0  0  0  0  0  0  0
   63.6510   33.5740   49.4220 O   0  0  0  0  0  0  0  0  0  0  0  0
   62.5310   33.8050   48.6100 C   0  0  0  0  0  0  0  0  0  0  0  0
   62.6630   33.6300   47.2290 C   0  0  0  0  0  0  0  0  0  0  0  0
   61.5750   33.8400   46.3790 C   0  0  0  0  0  0  0  0  0  0  0  0
   60.3240   34.2200   46.8980 C   0  0  0  0  0  0  0  0  0  0  0  0
   59.1760   34.4020   45.9740 C   0  0  0  0  0  0  0  0  0  0  0  0
   59.3700   34.9570   44.8590 O   0  0  0  0  0  0  0  0  0  0  0  0
   57.7920   33.8840   46.2790 C   0  0  0  0  0  0  0  0  0  0  0  0
   57.0840   33.3640   45.0150 C   0  0  0  0  0  0  0  0  0  0  0  0
   57.6940   32.0600   44.4690 C   0  0  0  0  0  0  0  0  0  0  0  0
   57.2410   30.8740   45.2340 N   0  0  0  0  0  0  0  0  0  0  0  0
   58.1550   30.5020   46.3360 C   0  0  0  0  0  0  0  0  0  0  0  0
   59.4820   29.8990   45.8320 C   0  0  0  0  0  0  0  0  0  0  0  0
   59.3260   29.1330   44.5100 C   0  0  0  0  0  0  0  0  0  0  0  0
   57.9120   28.5820   44.3550 C   0  0  0  0  0  0  0  0  0  0  0  0
   56.8660   29.7160   44.3780 C   0  0  0  0  0  0  0  0  0  0  0  0
   60.1970   34.4140   48.2850 C   0  0  0  0  0  0  0  0  0  0  0  0
   61.2880   34.2050   49.1350 C   0  0  0  0  0  0  0  0  0  0  0  0
   64.7051   32.0690   50.3737 H   0  0  0  0  0  0  0  0  0  0  0  0
   63.9275   31.6137   48.8198 H   0  0  0  0  0  0  0  0  0  0  0  0
   65.3988   32.6443   48.8198 H   0  0  0  0  0  0  0  0  0  0  0  0
   63.6323   33.3242   46.8084 H   0  0  0  0  0  0  0  0  0  0  0  0
   61.6974   33.7071   45.2939 H   0  0  0  0  0  0  0  0  0  0  0  0
   57.8717   33.0622   47.0058 H   0  0  0  0  0  0  0  0  0  0  0  0
   57.1979   34.7157   46.6856 H   0  0  0  0  0  0  0  0  0  0  0  0
   56.0268   33.1804   45.2573 H   0  0  0  0  0  0  0  0  0  0  0  0
   57.2030   34.1311   44.2356 H   0  0  0  0  0  0  0  0  0  0  0  0
   57.3942   31.9404   43.4174 H   0  0  0  0  0  0  0  0  0  0  0  0
   58.7876   32.1295   44.5647 H   0  0  0  0  0  0  0  0  0  0  0  0
   58.3796   31.4028   46.9259 H   0  0  0  0  0  0  0  0  0  0  0  0
   57.6503   29.7344   46.9410 H   0  0  0  0  0  0  0  0  0  0  0  0
   60.2038   30.7153   45.6817 H   0  0  0  0  0  0  0  0  0  0  0  0
   59.8279   29.1815   46.5906 H   0  0  0  0  0  0  0  0  0  0  0  0
   59.5392   29.8144   43.6732 H   0  0  0  0  0  0  0  0  0  0  0  0
   60.0306   28.2883   44.5117 H   0  0  0  0  0  0  0  0  0  0  0  0
   57.8388   28.0457   43.3974 H   0  0  0  0  0  0  0  0  0  0  0  0
   57.7084   27.9031   45.1962 H   0  0  0  0  0  0  0  0  0  0  0  0
   56.7273   30.0784   43.3487 H   0  0  0  0  0  0  0  0  0  0  0  0
   55.9471   29.2900   44.8071 H   0  0  0  0  0  0  0  0  0  0  0  0
   59.2316   34.7328   48.7050 H   0  0  0  0  0  0  0  0  0  0  0  0
   61.1739   34.3540   50.2189 H   0  0  0  0  0  0  0  0  0  0  0  0
  1  2  1  0
  2  3  1  0
  3  4  2  0
  4  5  1  0
  5  6  2  0
  6  7  1  0
  7  8  2  0
  7  9  1  0
  9 10  1  0
 10 11  1  0
 11 12  1  0
 12 13  1  0
 13 14  1  0
 14 15  1  0
 15 16  1  0
 16 17  1  0
  6 18  1  0
 18 19  2  0
 19  3  1  0
 17 12  1  0
  1 20  1  0
  1 21  1  0
  1 22  1  0
  4 23  1  0
  5 24  1  0
  9 25  1  0
  9 26  1  0
 10 27  1  0
 10 28  1  0
 11 29  1  0
 11 30  1  0
 13 31  1  0
 13 32  1  0
 14 33  1  0
 14 34  1  0
 15 35  1  0
 15 36  1  0
 16 37  1  0
 16 38  1  0
 17 39  1  0
 17 40  1  0
 18 41  1  0
 19 42  1  0
M  END
>  <UniqueID>  (35) 
34

>  <SMILES>  (35) 
COc1ccc(C(=O)CCCN2CCCCC2)cc1

>  <Energy>  (35) 
47.44951061386502

>  <Genealogy>  (35) 
COc1ccc(C(=O)CCCN2CCCCC2)cc1 (3D coordinates assigned)
COc1ccc(C(=O)CCCN2CCCCC2)cc1 (nonaromatic ring conformer: 47.44951061386502 kcal/mol)

>  <smiles>  (35) 
COc1ccc(C(=O)CCCN2CCCCC2)cc1

>  <score_type>  (35) 
oracle

>  <origin>  (35) 
adg

>  <m_score__min__energy>  (35) 
-7.0800000000000001

>  <m_primary>  (35) 
energy

$$$$
35:0
     RDKit          3D

 45 48  0  0  0  0  0  0  0  0999 V2000
   58.7870   32.0180   53.6520 C   0  0  0  0  0  0  0  0  0  0  0  0
   57.8020   31.6740   52.5400 C   0  0  0  0  0  0  0  0  0  0  0  0
   58.4820   31.6830   51.2290 N   0  0  0  0  0  0  0  0  0  0  0  0
   58.6470   30.5050   50.5370 C   0  0  0  0  0  0  0  0  0  0  0  0
   58.2360   29.4050   50.9990 O   0  0  0  0  0  0  0  0  0  0  0  0
   59.2710   30.5480   49.3040 C   0  0  0  0  0  0  0  0  0  0  0  0
   59.4990   29.5390   48.4460 N   0  0  0  0  0  0  0  0  0  0  0  0
   60.0960   30.1760   47.4040 C   0  0  0  0  0  0  0  0  0  0  0  0
   60.5490   29.3420   45.8860 S   0  0  0  0  0  0  0  0  0  0  0  0
   59.0070   28.4080   45.8530 C   0  0  0  0  0  0  0  0  0  0  0  0
   58.9590   27.0990   46.3790 C   0  0  0  0  0  0  0  0  0  0  0  0
   60.3580   26.3610   47.1490 Cl  0  0  0  0  0  0  0  0  0  0  0  0
   57.7730   26.3600   46.3050 C   0  0  0  0  0  0  0  0  0  0  0  0
   56.6310   26.9170   45.7270 C   0  0  0  0  0  0  0  0  0  0  0  0
   56.6650   28.2190   45.2250 C   0  0  0  0  0  0  0  0  0  0  0  0
   57.8450   28.9680   45.2870 C   0  0  0  0  0  0  0  0  0  0  0  0
   57.8320   30.6060   44.6400 Cl  0  0  0  0  0  0  0  0  0  0  0  0
   60.2420   31.5100   47.5850 N   0  0  0  0  0  0  0  0  0  0  0  0
   59.6970   31.7240   48.7930 C   0  0  0  0  0  0  0  0  0  0  0  0
   59.5080   32.9150   49.4320 N   0  0  0  0  0  0  0  0  0  0  0  0
   59.8520   34.1970   48.7900 C   0  0  0  0  0  0  0  0  0  0  0  0
   59.2480   34.2670   47.4090 C   0  0  0  0  0  0  0  0  0  0  0  0
   59.9200   34.9380   46.3740 C   0  0  0  0  0  0  0  0  0  0  0  0
   59.3400   35.0390   45.1050 C   0  0  0  0  0  0  0  0  0  0  0  0
   58.0830   34.4770   44.8620 C   0  0  0  0  0  0  0  0  0  0  0  0
   57.4060   33.8130   45.8870 C   0  0  0  0  0  0  0  0  0  0  0  0
   57.9830   33.7080   47.1550 C   0  0  0  0  0  0  0  0  0  0  0  0
   58.8920   32.8830   50.6680 C   0  0  0  0  0  0  0  0  0  0  0  0
   58.6900   33.9640   51.2900 O   0  0  0  0  0  0  0  0  0  0  0  0
   58.3098   31.8514   54.6290 H   0  0  0  0  0  0  0  0  0  0  0  0
   59.6770   31.3775   53.5646 H   0  0  0  0  0  0  0  0  0  0  0  0
   59.0847   33.0733   53.5646 H   0  0  0  0  0  0  0  0  0  0  0  0
   57.3826   30.6739   52.7239 H   0  0  0  0  0  0  0  0  0  0  0  0
   56.9983   32.4250   52.5303 H   0  0  0  0  0  0  0  0  0  0  0  0
   57.7405   25.3355   46.7041 H   0  0  0  0  0  0  0  0  0  0  0  0
   55.7032   26.3292   45.6671 H   0  0  0  0  0  0  0  0  0  0  0  0
   55.7604   28.6579   44.7789 H   0  0  0  0  0  0  0  0  0  0  0  0
   60.6660   32.1880   46.9180 H   0  0  0  0  0  0  0  0  0  0  0  0
   59.4614   35.0250   49.3998 H   0  0  0  0  0  0  0  0  0  0  0  0
   60.9461   34.2748   48.7075 H   0  0  0  0  0  0  0  0  0  0  0  0
   60.9068   35.3861   46.5622 H   0  0  0  0  0  0  0  0  0  0  0  0
   59.8736   35.5613   44.2972 H   0  0  0  0  0  0  0  0  0  0  0  0
   57.6277   34.5579   43.8639 H   0  0  0  0  0  0  0  0  0  0  0  0
   56.4167   33.3718   45.6957 H   0  0  0  0  0  0  0  0  0  0  0  0
   57.4447   33.1851   47.9592 H   0  0  0  0  0  0  0  0  0  0  0  0
  1  2  1  0
  2  3  1  0
  3  4  1  0
  4  5  2  0
  4  6  1  0
  6  7  1  0
  7  8  2  0
  8  9  1  0
  9 10  1  0
 10 11  2  0
 11 12  1  0
 11 13  1  0
 13 14  2  0
 14 15  1  0
 15 16  2  0
 16 17  1  0
  8 18  1  0
 18 19  1  0
 19 20  1  0
 20 21  1  0
 21 22  1  0
 22 23  2  0
 23 24  1  0
 24 25  2  0
 25 26  1  0
 26 27  2  0
 20 28  1  0
 28 29  2  0
 28  3  1  0
 19  6  2  0
 27 22  1  0
 16 10  1  0
  1 30  1  0
  1 31  1  0
  1 32  1  0
  2 33  1  0
  2 34  1  0
 13 35  1  0
 14 36  1  0
 15 37  1  0
 18 38  1  0
 21 39  1  0
 21 40  1  0
 23 41  1  0
 24 42  1  0
 25 43  1  0
 26 44  1  0
 27 45  1  0
M  END
>  <UniqueID>  (36) 
35

>  <SMILES>  (36) 
CCn1c(=O)c2nc(Sc3c(Cl)cccc3Cl)[nH]c2n(Cc2ccccc2)c1=O

>  <Energy>  (36) 
86.89766826855639

>  <Genealogy>  (36) 
CCn1c(=O)c2nc(Sc3c(Cl)cccc3Cl)[nH]c2n(Cc2ccccc2)c1=O (3D coordinates assigned)
CCn1c(=O)c2nc(Sc3c(Cl)cccc3Cl)[nH]c2n(Cc2ccccc2)c1=O (optimized conformer: 86.89766826855639 kcal/mol)

>  <smiles>  (36) 
CCn1c(=O)c2nc(Sc3c(Cl)cccc3Cl)[nH]c2n(Cc2ccccc2)c1=O

>  <score_type>  (36) 
oracle

>  <origin>  (36) 
adg

>  <m_score__min__energy>  (36) 
-8.25

>  <m_primary>  (36) 
energy

$$$$
36:0
     RDKit          3D

 39 41  0  0  0  0  0  0  0  0999 V2000
   60.3840   28.1810   49.0860 C   0  0  0  0  0  0  0  0  0  0  0  0
   60.4010   27.2370   48.1400 C   0  0  0  0  0  0  0  0  0  0  0  0
   59.2090   26.3610   47.8840 C   0  0  0  0  0  0  0  0  0  0  0  0
   58.6450   26.6440   46.5680 N   0  0  0  0  0  0  0  0  0  0  0  0
   58.6500   27.8360   45.9430 C   0  0  0  0  0  0  0  0  0  0  0  0
   58.0670   27.6610   44.7100 C   0  0  0  0  0  0  0  0  0  0  0  0
   57.8150   28.6930   43.7480 N   0  0  0  0  0  0  0  0  0  0  0  0
   57.1130   29.9090   44.0430 C   0  0  0  0  0  0  0  0  0  0  0  0
   56.2650   29.9410   44.9750 O   0  0  0  0  0  0  0  0  0  0  0  0
   57.3030   31.1090   43.2110 C   0  0  0  0  0  0  0  0  0  0  0  0
   57.0220   31.1370   41.8930 N   0  0  0  0  0  0  0  0  0  0  0  0
   57.4270   32.3640   41.5050 C   0  0  0  0  0  0  0  0  0  0  0  0
   57.9220   33.0690   42.4970 O   0  0  0  0  0  0  0  0  0  0  0  0
   57.8500   32.3300   43.5780 C   0  0  0  0  0  0  0  0  0  0  0  0
   58.2640   32.8020   44.9140 C   0  0  0  0  0  0  0  0  0  0  0  0
   58.4940   34.1650   45.1620 C   0  0  0  0  0  0  0  0  0  0  0  0
   58.9040   34.5920   46.4260 C   0  0  0  0  0  0  0  0  0  0  0  0
   59.1030   33.6640   47.4510 C   0  0  0  0  0  0  0  0  0  0  0  0
   58.8880   32.2970   47.2160 C   0  0  0  0  0  0  0  0  0  0  0  0
   59.1510   31.2950   48.3000 C   0  0  0  0  0  0  0  0  0  0  0  0
   58.4910   31.8700   45.9400 C   0  0  0  0  0  0  0  0  0  0  0  0
   57.7130   26.3250   44.6450 C   0  0  0  0  0  0  0  0  0  0  0  0
   58.0860   25.7240   45.7920 N   0  0  0  0  0  0  0  0  0  0  0  0
   61.2717   28.8089   49.2524 H   0  0  0  0  0  0  0  0  0  0  0  0
   59.4823   28.3300   49.6982 H   0  0  0  0  0  0  0  0  0  0  0  0
   61.3093   27.0987   47.5351 H   0  0  0  0  0  0  0  0  0  0  0  0
   59.5181   25.3062   47.9270 H   0  0  0  0  0  0  0  0  0  0  0  0
   58.4463   26.5621   48.6507 H   0  0  0  0  0  0  0  0  0  0  0  0
   59.0482   28.7791   46.3455 H   0  0  0  0  0  0  0  0  0  0  0  0
   58.1710   28.5480   42.7760 H   0  0  0  0  0  0  0  0  0  0  0  0
   57.3511   32.7335   40.4717 H   0  0  0  0  0  0  0  0  0  0  0  0
   58.3503   34.8997   44.3561 H   0  0  0  0  0  0  0  0  0  0  0  0
   59.0709   35.6626   46.6156 H   0  0  0  0  0  0  0  0  0  0  0  0
   59.4290   34.0054   48.4446 H   0  0  0  0  0  0  0  0  0  0  0  0
   59.0250   31.7752   49.2816 H   0  0  0  0  0  0  0  0  0  0  0  0
   58.4418   30.4594   48.2068 H   0  0  0  0  0  0  0  0  0  0  0  0
   60.1792   30.9154   48.2068 H   0  0  0  0  0  0  0  0  0  0  0  0
   58.3564   30.7965   45.7414 H   0  0  0  0  0  0  0  0  0  0  0  0
   57.2107   25.8350   43.7979 H   0  0  0  0  0  0  0  0  0  0  0  0
  1  2  2  0
  2  3  1  0
  3  4  1  0
  4  5  1  0
  5  6  2  0
  6  7  1  0
  7  8  1  0
  8  9  2  0
  8 10  1  0
 10 11  1  0
 11 12  2  0
 12 13  1  0
 13 14  1  0
 14 15  1  0
 15 16  2  0
 16 17  1  0
 17 18  2  0
 18 19  1  0
 19 20  1  0
 19 21  2  0
  6 22  1  0
 22 23  2  0
 23  4  1  0
 14 10  2  0
 21 15  1  0
  1 24  1  0
  1 25  1  0
  2 26  1  0
  3 27  1  0
  3 28  1  0
  5 29  1  0
  7 30  1  0
 12 31  1  0
 16 32  1  0
 17 33  1  0
 18 34  1  0
 20 35  1  0
 20 36  1  0
 20 37  1  0
 21 38  1  0
 22 39  1  0
M  END
>  <UniqueID>  (37) 
36

>  <SMILES>  (37) 
C=CCn1cc(NC(=O)c2ncoc2-c2cccc(C)c2)cn1

>  <Energy>  (37) 
103.76284031340897

>  <Genealogy>  (37) 
C=CCn1cc(NC(=O)c2ncoc2-c2cccc(C)c2)cn1 (3D coordinates assigned)
C=CCn1cc(NC(=O)c2ncoc2-c2cccc(C)c2)cn1 (optimized conformer: 103.76284031340897 kcal/mol)

>  <smiles>  (37) 
C=CCn1cc(NC(=O)c2ncoc2-c2cccc(C)c2)cn1

>  <score_type>  (37) 
oracle

>  <origin>  (37) 
adg

>  <m_score__min__energy>  (37) 
-7.2699999999999996

>  <m_primary>  (37) 
energy

$$$$
37:0
     RDKit          3D

 30 31  0  0  0  0  0  0  0  0999 V2000
   59.3110   35.0080   45.2510 C   0  0  0  0  0  0  0  0  0  0  0  0
   59.6120   35.0510   46.7470 C   0  0  0  0  0  0  0  0  0  0  0  0
   58.9020   33.9430   47.5370 C   0  0  0  0  0  0  0  0  0  0  0  0
   59.4840   32.6260   47.2610 N   0  0  0  0  0  0  0  0  0  0  0  0
   58.9490   31.6350   46.3590 C   0  0  0  0  0  0  0  0  0  0  0  0
   58.1070   31.9740   45.4190 N   0  0  0  0  0  0  0  0  0  0  0  0
   57.4100   30.8390   44.3240 S   0  0  0  0  0  0  0  0  0  0  0  0
   57.7530   31.2270   42.9130 O   0  0  0  0  0  0  0  0  0  0  0  0
   55.9190   30.8140   44.5100 O   0  0  0  0  0  0  0  0  0  0  0  0
   58.0730   29.2710   44.6780 C   0  0  0  0  0  0  0  0  0  0  0  0
   57.6910   28.1550   43.9220 C   0  0  0  0  0  0  0  0  0  0  0  0
   58.2260   26.8990   44.2120 C   0  0  0  0  0  0  0  0  0  0  0  0
   59.1430   26.7560   45.2570 C   0  0  0  0  0  0  0  0  0  0  0  0
   59.5240   27.8710   46.0120 C   0  0  0  0  0  0  0  0  0  0  0  0
   58.9910   29.1400   45.7270 C   0  0  0  0  0  0  0  0  0  0  0  0
   59.3960   30.2710   46.5190 N   0  0  0  0  0  0  0  0  0  0  0  0
   58.2326   34.8539   45.0982 H   0  0  0  0  0  0  0  0  0  0  0  0
   59.6147   35.9587   44.7884 H   0  0  0  0  0  0  0  0  0  0  0  0
   59.8688   34.1804   44.7884 H   0  0  0  0  0  0  0  0  0  0  0  0
   60.6973   34.9414   46.8889 H   0  0  0  0  0  0  0  0  0  0  0  0
   59.2415   36.0140   47.1282 H   0  0  0  0  0  0  0  0  0  0  0  0
   58.9943   34.1559   48.6122 H   0  0  0  0  0  0  0  0  0  0  0  0
   57.8460   33.9238   47.2297 H   0  0  0  0  0  0  0  0  0  0  0  0
   60.3130   32.3560   47.8370 H   0  0  0  0  0  0  0  0  0  0  0  0
   57.8150   32.9640   45.2820 H   0  0  0  0  0  0  0  0  0  0  0  0
   56.9693   28.2687   43.0997 H   0  0  0  0  0  0  0  0  0  0  0  0
   57.9263   26.0225   43.6187 H   0  0  0  0  0  0  0  0  0  0  0  0
   59.5655   25.7665   45.4861 H   0  0  0  0  0  0  0  0  0  0  0  0
   60.2454   27.7535   46.8340 H   0  0  0  0  0  0  0  0  0  0  0  0
   60.0750   30.0900   47.2930 H   0  0  0  0  0  0  0  0  0  0  0  0
  1  2  1  0
  2  3  1  0
  3  4  1  0
  4  5  1  0
  5  6  2  0
  6  7  1  0
  7  8  2  0
  7  9  2  0
  7 10  1  0
 10 11  2  0
 11 12  1  0
 12 13  2  0
 13 14  1  0
 14 15  2  0
 15 16  1  0
 16  5  1  0
 15 10  1  0
  1 17  1  0
  1 18  1  0
  1 19  1  0
  2 20  1  0
  2 21  1  0
  3 22  1  0
  3 23  1  0
  4 24  1  0
  6 25  1  0
 11 26  1  0
 12 27  1  0
 13 28  1  0
 14 29  1  0
 16 30  1  0
M  CHG  1   6   1
M  END
>  <UniqueID>  (38) 
37

>  <SMILES>  (38) 
CCCNC1=[NH+]S(=O)(=O)c2ccccc2N1

>  <Energy>  (38) 
31.645925117622895

>  <Genealogy>  (38) 
CCCNC1=[NH+]S(=O)(=O)c2ccccc2N1 (protonated)
CCCNC1=[NH+]S(=O)(=O)c2ccccc2N1 (3D coordinates assigned)
CCCNC1=[NH+]S(=O)(=O)c2ccccc2N1 (nonaromatic ring conformer: 31.645925117622895 kcal/mol)

>  <smiles>  (38) 
CCCNC1=NS(=O)(=O)c2ccccc2N1

>  <score_type>  (38) 
oracle

>  <origin>  (38) 
adg

>  <m_score__min__energy>  (38) 
-4.7400000000000002

>  <m_primary>  (38) 
energy

$$$$
38:0
     RDKit          3D

 38 41  0  0  0  0  0  0  0  0999 V2000
   58.1970   25.6780   46.1450 O   0  0  0  0  0  0  0  0  0  0  0  0
   57.8570   25.5760   44.9350 C   0  0  0  0  0  0  0  0  0  0  0  0
   57.7460   26.7560   44.1170 N   0  0  0  0  0  0  0  0  0  0  0  0
   58.1080   28.0740   44.5620 C   0  0  0  0  0  0  0  0  0  0  0  0
   57.2730   29.1970   44.3060 C   0  0  0  0  0  0  0  0  0  0  0  0
   57.6280   30.4770   44.7720 C   0  0  0  0  0  0  0  0  0  0  0  0
   58.8070   30.5920   45.4990 C   0  0  0  0  0  0  0  0  0  0  0  0
   59.3410   31.6550   46.0340 O   0  0  0  0  0  0  0  0  0  0  0  0
   60.4550   31.2490   46.6260 C   0  0  0  0  0  0  0  0  0  0  0  0
   61.3590   32.1730   47.3610 C   0  0  0  0  0  0  0  0  0  0  0  0
   62.7150   31.8120   47.4870 C   0  0  0  0  0  0  0  0  0  0  0  0
   63.6160   32.6380   48.1620 C   0  0  0  0  0  0  0  0  0  0  0  0
   63.1810   33.8350   48.7240 C   0  0  0  0  0  0  0  0  0  0  0  0
   61.8430   34.2110   48.6140 C   0  0  0  0  0  0  0  0  0  0  0  0
   60.9240   33.3950   47.9390 C   0  0  0  0  0  0  0  0  0  0  0  0
   59.2580   33.9610   47.8710 Cl  0  0  0  0  0  0  0  0  0  0  0  0
   60.6640   29.9110   46.4890 N   0  0  0  0  0  0  0  0  0  0  0  0
   59.6010   29.5250   45.7680 C   0  0  0  0  0  0  0  0  0  0  0  0
   59.2860   28.2420   45.3260 C   0  0  0  0  0  0  0  0  0  0  0  0
   57.5710   24.2280   44.3840 C   0  0  0  0  0  0  0  0  0  0  0  0
   56.5320   24.0170   43.4570 C   0  0  0  0  0  0  0  0  0  0  0  0
   56.2790   22.7360   42.9570 C   0  0  0  0  0  0  0  0  0  0  0  0
   57.0520   21.6530   43.3790 C   0  0  0  0  0  0  0  0  0  0  0  0
   58.0770   21.8460   44.3060 C   0  0  0  0  0  0  0  0  0  0  0  0
   58.3340   23.1250   44.8110 C   0  0  0  0  0  0  0  0  0  0  0  0
   57.3340   26.6790   43.1610 H   0  0  0  0  0  0  0  0  0  0  0  0
   56.3404   29.0637   43.7381 H   0  0  0  0  0  0  0  0  0  0  0  0
   56.9957   31.3538   44.5683 H   0  0  0  0  0  0  0  0  0  0  0  0
   63.0684   30.8674   47.0480 H   0  0  0  0  0  0  0  0  0  0  0  0
   64.6718   32.3422   48.2499 H   0  0  0  0  0  0  0  0  0  0  0  0
   63.8929   34.4842   49.2548 H   0  0  0  0  0  0  0  0  0  0  0  0
   61.5049   35.1574   49.0613 H   0  0  0  0  0  0  0  0  0  0  0  0
   59.9340   27.3856   45.5641 H   0  0  0  0  0  0  0  0  0  0  0  0
   55.9157   24.8652   43.1243 H   0  0  0  0  0  0  0  0  0  0  0  0
   55.4688   22.5813   42.2293 H   0  0  0  0  0  0  0  0  0  0  0  0
   56.8531   20.6471   42.9807 H   0  0  0  0  0  0  0  0  0  0  0  0
   58.6837   20.9914   44.6401 H   0  0  0  0  0  0  0  0  0  0  0  0
   59.1383   23.2698   45.5473 H   0  0  0  0  0  0  0  0  0  0  0  0
  1  2  2  0
  2  3  1  0
  3  4  1  0
  4  5  2  0
  5  6  1  0
  6  7  2  0
  7  8  1  0
  8  9  1  0
  9 10  1  0
 10 11  2  0
 11 12  1  0
 12 13  2  0
 13 14  1  0
 14 15  2  0
 15 16  1  0
  9 17  2  0
 17 18  1  0
 18 19  2  0
  2 20  1  0
 20 21  2  0
 21 22  1  0
 22 23  2  0
 23 24  1  0
 24 25  2  0
 19  4  1  0
 25 20  1  0
 18  7  1  0
 15 10  1  0
  3 26  1  0
  5 27  1  0
  6 28  1  0
 11 29  1  0
 12 30  1  0
 13 31  1  0
 14 32  1  0
 19 33  1  0
 21 34  1  0
 22 35  1  0
 23 36  1  0
 24 37  1  0
 25 38  1  0
M  END
>  <UniqueID>  (39) 
38

>  <SMILES>  (39) 
O=C(Nc1ccc2oc(-c3ccccc3Cl)nc2c1)c1ccccc1

>  <Energy>  (39) 
91.20275036350729

>  <Genealogy>  (39) 
O=C(Nc1ccc2oc(-c3ccccc3Cl)nc2c1)c1ccccc1 (3D coordinates assigned)
O=C(Nc1ccc2oc(-c3ccccc3Cl)nc2c1)c1ccccc1 (optimized conformer: 91.20275036350729 kcal/mol)

>  <smiles>  (39) 
O=C(Nc1ccc2oc(-c3ccccc3Cl)nc2c1)c1ccccc1

>  <score_type>  (39) 
oracle

>  <origin>  (39) 
adg

>  <m_score__min__energy>  (39) 
-8.0199999999999996

>  <m_primary>  (39) 
energy

$$$$
39:0
     RDKit          3D

 31 34  0  0  0  0  0  0  0  0999 V2000
   65.0660   33.0230   49.5240 C   0  0  0  0  0  0  0  0  0  0  0  0
   63.7060   33.1060   49.0010 N   0  0  0  0  0  0  0  0  0  0  0  0
   63.0030   32.1590   48.3510 C   0  0  0  0  0  0  0  0  0  0  0  0
   61.7660   32.6880   48.0490 C   0  0  0  0  0  0  0  0  0  0  0  0
   60.6340   32.0910   47.3580 C   0  0  0  0  0  0  0  0  0  0  0  0
   60.1090   30.8870   47.8380 C   0  0  0  0  0  0  0  0  0  0  0  0
   59.0380   30.2650   47.2330 C   0  0  0  0  0  0  0  0  0  0  0  0
   58.4990   30.8830   46.1260 C   0  0  0  0  0  0  0  0  0  0  0  0
   59.0080   32.0880   45.6290 C   0  0  0  0  0  0  0  0  0  0  0  0
   58.4050   32.6440   44.5080 C   0  0  0  0  0  0  0  0  0  0  0  0
   57.3330   32.0340   43.8920 C   0  0  0  0  0  0  0  0  0  0  0  0
   56.8640   30.8470   44.4160 C   0  0  0  0  0  0  0  0  0  0  0  0
   55.8350   30.0450   44.0130 C   0  0  0  0  0  0  0  0  0  0  0  0
   55.8080   29.0140   44.8730 N   0  0  0  0  0  0  0  0  0  0  0  0
   56.7550   29.1270   45.7840 N   0  0  0  0  0  0  0  0  0  0  0  0
   57.4230   30.2500   45.5260 C   0  0  0  0  0  0  0  0  0  0  0  0
   60.0920   32.7100   46.2470 C   0  0  0  0  0  0  0  0  0  0  0  0
   61.7700   33.9900   48.5490 C   0  0  0  0  0  0  0  0  0  0  0  0
   62.9810   34.2100   49.1290 N   0  0  0  0  0  0  0  0  0  0  0  0
   65.0367   33.0248   50.6236 H   0  0  0  0  0  0  0  0  0  0  0  0
   65.5384   32.0943   49.1713 H   0  0  0  0  0  0  0  0  0  0  0  0
   65.6479   33.8873   49.1713 H   0  0  0  0  0  0  0  0  0  0  0  0
   63.3528   31.1455   48.1052 H   0  0  0  0  0  0  0  0  0  0  0  0
   60.5644   30.4224   48.7250 H   0  0  0  0  0  0  0  0  0  0  0  0
   58.6318   29.3176   47.6169 H   0  0  0  0  0  0  0  0  0  0  0  0
   58.7910   33.5912   44.1031 H   0  0  0  0  0  0  0  0  0  0  0  0
   56.8631   32.4827   43.0044 H   0  0  0  0  0  0  0  0  0  0  0  0
   55.1640   30.2100   43.1571 H   0  0  0  0  0  0  0  0  0  0  0  0
   55.1450   28.1890   44.8790 H   0  0  0  0  0  0  0  0  0  0  0  0
   60.5005   33.6573   45.8651 H   0  0  0  0  0  0  0  0  0  0  0  0
   60.9415   34.7108   48.4857 H   0  0  0  0  0  0  0  0  0  0  0  0
  1  2  1  0
  2  3  1  0
  3  4  2  0
  4  5  1  0
  5  6  2  0
  6  7  1  0
  7  8  2  0
  8  9  1  0
  9 10  1  0
 10 11  2  0
 11 12  1  0
 12 13  2  0
 13 14  1  0
 14 15  1  0
 15 16  2  0
  9 17  2  0
  4 18  1  0
 18 19  2  0
 19  2  1  0
 17  5  1  0
 16  8  1  0
 16 12  1  0
  1 20  1  0
  1 21  1  0
  1 22  1  0
  3 23  1  0
  6 24  1  0
  7 25  1  0
 10 26  1  0
 11 27  1  0
 13 28  1  0
 14 29  1  0
 17 30  1  0
 18 31  1  0
M  END
>  <smiles>  (40) 
Cn1cc(-c2ccc3c(ccc4c[nH]nc43)c2)cn1

>  <score_type>  (40) 
oracle

>  <origin>  (40) 
adg

>  <m_score__min__energy>  (40) 
-7.2400000000000002

>  <m_primary>  (40) 
energy

$$$$
40:0
     RDKit          3D

 34 36  0  0  0  0  0  0  0  0999 V2000
   65.9670   32.2970   50.1280 C   0  0  0  0  0  0  0  0  0  0  0  0
   64.9510   33.2840   50.2800 O   0  0  0  0  0  0  0  0  0  0  0  0
   63.8630   33.4410   49.4100 C   0  0  0  0  0  0  0  0  0  0  0  0
   62.6130   33.9230   49.8420 C   0  0  0  0  0  0  0  0  0  0  0  0
   61.5580   34.0620   48.9360 C   0  0  0  0  0  0  0  0  0  0  0  0
   61.7270   33.7220   47.5810 C   0  0  0  0  0  0  0  0  0  0  0  0
   60.6080   33.8680   46.6180 C   0  0  0  0  0  0  0  0  0  0  0  0
   60.2750   35.0940   46.1290 N   0  0  0  0  0  0  0  0  0  0  0  0
   59.2520   35.2450   45.2510 C   0  0  0  0  0  0  0  0  0  0  0  0
   58.5190   34.1370   44.8340 C   0  0  0  0  0  0  0  0  0  0  0  0
   58.8700   32.8710   45.3320 C   0  0  0  0  0  0  0  0  0  0  0  0
   58.1350   31.6420   44.9380 C   0  0  0  0  0  0  0  0  0  0  0  0
   57.4160   31.6130   43.7270 C   0  0  0  0  0  0  0  0  0  0  0  0
   56.7110   30.4670   43.3450 C   0  0  0  0  0  0  0  0  0  0  0  0
   56.7090   29.3400   44.1690 C   0  0  0  0  0  0  0  0  0  0  0  0
   57.4060   29.3570   45.3790 C   0  0  0  0  0  0  0  0  0  0  0  0
   58.1130   30.5000   45.7660 C   0  0  0  0  0  0  0  0  0  0  0  0
   59.9010   32.7770   46.2150 N   0  0  0  0  0  0  0  0  0  0  0  0
   62.9800   33.2400   47.1560 C   0  0  0  0  0  0  0  0  0  0  0  0
   64.0330   33.1030   48.0640 C   0  0  0  0  0  0  0  0  0  0  0  0
   66.3079   31.9659   51.1200 H   0  0  0  0  0  0  0  0  0  0  0  0
   65.5630   31.4373   49.5733 H   0  0  0  0  0  0  0  0  0  0  0  0
   66.8146   32.7257   49.5733 H   0  0  0  0  0  0  0  0  0  0  0  0
   62.4658   34.1917   50.8985 H   0  0  0  0  0  0  0  0  0  0  0  0
   60.5862   34.4408   49.2855 H   0  0  0  0  0  0  0  0  0  0  0  0
   59.0010   36.2450   44.8676 H   0  0  0  0  0  0  0  0  0  0  0  0
   57.6822   34.2506   44.1291 H   0  0  0  0  0  0  0  0  0  0  0  0
   57.4089   32.4996   43.0759 H   0  0  0  0  0  0  0  0  0  0  0  0
   56.1576   30.4537   42.3944 H   0  0  0  0  0  0  0  0  0  0  0  0
   56.1579   28.4379   43.8649 H   0  0  0  0  0  0  0  0  0  0  0  0
   57.3989   28.4696   46.0290 H   0  0  0  0  0  0  0  0  0  0  0  0
   58.6557   30.5086   46.7227 H   0  0  0  0  0  0  0  0  0  0  0  0
   63.1310   32.9692   46.1006 H   0  0  0  0  0  0  0  0  0  0  0  0
   65.0059   32.7253   47.7163 H   0  0  0  0  0  0  0  0  0  0  0  0
  1  2  1  0
  2  3  1  0
  3  4  2  0
  4  5  1  0
  5  6  2  0
  6  7  1  0
  7  8  2  0
  8  9  1  0
  9 10  2  0
 10 11  1  0
 11 12  1  0
 12 13  2  0
 13 14  1  0
 14 15  2  0
 15 16  1  0
 16 17  2  0
 11 18  2  0
  6 19  1  0
 19 20  2  0
 20  3  1  0
 18  7  1  0
 17 12  1  0
  1 21  1  0
  1 22  1  0
  1 23  1  0
  4 24  1  0
  5 25  1  0
  9 26  1  0
 10 27  1  0
 13 28  1  0
 14 29  1  0
 15 30  1  0
 16 31  1  0
 17 32  1  0
 19 33  1  0
 20 34  1  0
M  END
>  <UniqueID>  (41) 
39

>  <SMILES>  (41) 
COc1ccc(-c2nccc(-c3ccccc3)n2)cc1

>  <Energy>  (41) 
42.35202053321641

>  <Genealogy>  (41) 
COc1ccc(-c2nccc(-c3ccccc3)n2)cc1 (3D coordinates assigned)
COc1ccc(-c2nccc(-c3ccccc3)n2)cc1 (optimized conformer: 42.35202053321641 kcal/mol)

>  <smiles>  (41) 
COc1ccc(-c2nccc(-c3ccccc3)n2)cc1

>  <score_type>  (41) 
oracle

>  <origin>  (41) 
adg

>  <m_score__min__energy>  (41) 
-6.9199999999999999

>  <m_primary>  (41) 
energy

$$$$
41:0
     RDKit          3D

 32 34  0  0  0  0  0  0  0  0999 V2000
   57.0890   22.8390   45.5440 C   0  0  0  0  0  0  0  0  0  0  0  0
   56.8520   24.1250   46.3460 C   0  0  0  0  0  0  0  0  0  0  0  0
   56.9470   23.8500   47.8500 C   0  0  0  0  0  0  0  0  0  0  0  0
   57.8340   25.2010   45.9560 C   0  0  0  0  0  0  0  0  0  0  0  0
   59.1790   25.0310   45.9160 N   0  0  0  0  0  0  0  0  0  0  0  0
   59.7160   26.1830   45.6130 O   0  0  0  0  0  0  0  0  0  0  0  0
   58.7850   27.0920   45.4680 C   0  0  0  0  0  0  0  0  0  0  0  0
   58.9380   28.4390   45.1570 C   0  0  0  0  0  0  0  0  0  0  0  0
   57.7730   29.2410   45.0700 C   0  0  0  0  0  0  0  0  0  0  0  0
   57.8820   30.6840   44.7400 C   0  0  0  0  0  0  0  0  0  0  0  0
   58.1540   31.6350   45.7390 C   0  0  0  0  0  0  0  0  0  0  0  0
   58.2510   32.9880   45.4140 C   0  0  0  0  0  0  0  0  0  0  0  0
   58.0780   33.3870   44.0880 C   0  0  0  0  0  0  0  0  0  0  0  0
   57.8180   32.4620   43.1280 N   0  0  0  0  0  0  0  0  0  0  0  0
   57.7150   31.1380   43.4180 C   0  0  0  0  0  0  0  0  0  0  0  0
   56.5010   28.6490   45.3050 C   0  0  0  0  0  0  0  0  0  0  0  0
   56.3870   27.2820   45.6180 C   0  0  0  0  0  0  0  0  0  0  0  0
   55.1410   26.7160   45.8590 O   0  0  0  0  0  0  0  0  0  0  0  0
   57.5610   26.5290   45.6820 C   0  0  0  0  0  0  0  0  0  0  0  0
   57.2439   21.9984   46.2364 H   0  0  0  0  0  0  0  0  0  0  0  0
   56.2132   22.6354   44.9103 H   0  0  0  0  0  0  0  0  0  0  0  0
   57.9798   22.9610   44.9103 H   0  0  0  0  0  0  0  0  0  0  0  0
   55.8378   24.4807   46.1118 H   0  0  0  0  0  0  0  0  0  0  0  0
   56.6373   24.7466   48.4070 H   0  0  0  0  0  0  0  0  0  0  0  0
   56.2870   23.0097   48.1115 H   0  0  0  0  0  0  0  0  0  0  0  0
   57.9849   23.5962   48.1115 H   0  0  0  0  0  0  0  0  0  0  0  0
   59.9352   28.8696   44.9835 H   0  0  0  0  0  0  0  0  0  0  0  0
   58.2909   31.3108   46.7812 H   0  0  0  0  0  0  0  0  0  0  0  0
   58.4618   33.7331   46.1952 H   0  0  0  0  0  0  0  0  0  0  0  0
   58.1522   34.4513   43.8201 H   0  0  0  0  0  0  0  0  0  0  0  0
   57.5000   30.4173   42.6152 H   0  0  0  0  0  0  0  0  0  0  0  0
   55.5942   29.2684   45.2411 H   0  0  0  0  0  0  0  0  0  0  0  0
  1  2  1  0
  2  3  1  0
  2  4  1  0
  4  5  2  0
  5  6  1  0
  6  7  1  0
  7  8  2  0
  8  9  1  0
  9 10  1  0
 10 11  2  0
 11 12  1  0
 12 13  2  0
 13 14  1  0
 14 15  2  0
  9 16  2  0
 16 17  1  0
 17 18  1  0
 17 19  2  0
 19  4  1  0
 19  7  1  0
 15 10  1  0
  1 20  1  0
  1 21  1  0
  1 22  1  0
  2 23  1  0
  3 24  1  0
  3 25  1  0
  3 26  1  0
  8 27  1  0
 11 28  1  0
 12 29  1  0
 13 30  1  0
 15 31  1  0
 16 32  1  0
M  CHG  1  18  -1
M  END
>  <UniqueID>  (42) 
40

>  <SMILES>  (42) 
CC(C)c1noc2cc(-c3cccnc3)cc([O-])c12

>  <Energy>  (42) 
75.82697795139411

>  <Genealogy>  (42) 
CC(C)c1noc2cc(-c3cccnc3)cc([O-])c12 (protonated)
CC(C)c1noc2cc(-c3cccnc3)cc([O-])c12 (3D coordinates assigned)
CC(C)c1noc2cc(-c3cccnc3)cc([O-])c12 (optimized conformer: 75.82697795139411 kcal/mol)

>  <smiles>  (42) 
CC(C)c1noc2cc(-c3cccnc3)cc(O)c12

>  <score_type>  (42) 
oracle

>  <origin>  (42) 
adg

>  <m_score__min__energy>  (42) 
-9.7699999999999996

>  <m_primary>  (42) 
energy

$$$$
42:0
     RDKit          3D

 45 48  0  0  0  0  0  0  0  0999 V2000
   56.2740   30.7960   43.0150 O   0  0  0  0  0  0  0  0  0  0  0  0
   57.0960   30.6760   43.9660 C   0  0  0  0  0  0  0  0  0  0  0  0
   56.9460   31.4970   45.1340 N   0  0  0  0  0  0  0  0  0  0  0  0
   57.7740   32.6170   45.4790 C   0  0  0  0  0  0  0  0  0  0  0  0
   57.9370   33.6390   44.5440 C   0  0  0  0  0  0  0  0  0  0  0  0
   58.7210   34.7470   44.8480 C   0  0  0  0  0  0  0  0  0  0  0  0
   59.3270   34.8340   46.1000 C   0  0  0  0  0  0  0  0  0  0  0  0
   59.1520   33.8490   47.0340 N   0  0  0  0  0  0  0  0  0  0  0  0
   59.7690   34.0130   48.3610 C   0  0  0  0  0  0  0  0  0  0  0  0
   61.2370   33.6860   48.3010 C   0  0  0  0  0  0  0  0  0  0  0  0
   62.0980   34.0700   49.3440 C   0  0  0  0  0  0  0  0  0  0  0  0
   63.4660   33.7910   49.2660 C   0  0  0  0  0  0  0  0  0  0  0  0
   63.9850   33.1340   48.1460 C   0  0  0  0  0  0  0  0  0  0  0  0
   63.1370   32.7560   47.1030 C   0  0  0  0  0  0  0  0  0  0  0  0
   61.7680   33.0320   47.1760 C   0  0  0  0  0  0  0  0  0  0  0  0
   58.3680   32.7560   46.7520 C   0  0  0  0  0  0  0  0  0  0  0  0
   58.1540   31.8850   47.6400 O   0  0  0  0  0  0  0  0  0  0  0  0
   58.0650   29.6010   43.9600 N   0  0  0  0  0  0  0  0  0  0  0  0
   59.1330   29.7680   44.9820 C   0  0  0  0  0  0  0  0  0  0  0  0
   59.3790   28.4080   45.5080 C   0  0  0  0  0  0  0  0  0  0  0  0
   60.3890   27.9830   46.3730 C   0  0  0  0  0  0  0  0  0  0  0  0
   60.4020   26.6370   46.7760 C   0  0  0  0  0  0  0  0  0  0  0  0
   59.4060   25.7530   46.3180 C   0  0  0  0  0  0  0  0  0  0  0  0
   58.3950   26.2120   45.4580 C   0  0  0  0  0  0  0  0  0  0  0  0
   58.4150   27.5520   45.0660 C   0  0  0  0  0  0  0  0  0  0  0  0
   57.4480   28.2720   44.2090 C   0  0  0  0  0  0  0  0  0  0  0  0
   57.4440   33.5686   43.5632 H   0  0  0  0  0  0  0  0  0  0  0  0
   58.8615   35.5475   44.1068 H   0  0  0  0  0  0  0  0  0  0  0  0
   59.9539   35.7053   46.3405 H   0  0  0  0  0  0  0  0  0  0  0  0
   59.6428   35.0540   48.6932 H   0  0  0  0  0  0  0  0  0  0  0  0
   59.2795   33.3283   49.0692 H   0  0  0  0  0  0  0  0  0  0  0  0
   61.6942   34.5916   50.2243 H   0  0  0  0  0  0  0  0  0  0  0  0
   64.1349   34.0888   50.0869 H   0  0  0  0  0  0  0  0  0  0  0  0
   65.0613   32.9149   48.0866 H   0  0  0  0  0  0  0  0  0  0  0  0
   63.5467   32.2401   46.2221 H   0  0  0  0  0  0  0  0  0  0  0  0
   61.1045   32.7362   46.3500 H   0  0  0  0  0  0  0  0  0  0  0  0
   58.5130   29.5860   43.0130 H   0  0  0  0  0  0  0  0  0  0  0  0
   60.0460   30.1757   44.5234 H   0  0  0  0  0  0  0  0  0  0  0  0
   58.8376   30.4697   45.7759 H   0  0  0  0  0  0  0  0  0  0  0  0
   61.1565   28.6852   46.7306 H   0  0  0  0  0  0  0  0  0  0  0  0
   61.1913   26.2732   47.4502 H   0  0  0  0  0  0  0  0  0  0  0  0
   59.4199   24.6997   46.6348 H   0  0  0  0  0  0  0  0  0  0  0  0
   57.6067   25.5325   45.1019 H   0  0  0  0  0  0  0  0  0  0  0  0
   57.2958   27.7335   43.2620 H   0  0  0  0  0  0  0  0  0  0  0  0
   56.4605   28.3591   44.6856 H   0  0  0  0  0  0  0  0  0  0  0  0
  1  2  2  0
  2  3  1  0
  3  4  1  0
  4  5  2  0
  5  6  1  0
  6  7  2  0
  7  8  1  0
  8  9  1  0
  9 10  1  0
 10 11  2  0
 11 12  1  0
 12 13  2  0
 13 14  1  0
 14 15  2  0
  8 16  1  0
 16 17  2  0
  2 18  1  0
 18 19  1  0
 19 20  1  0
 20 21  2  0
 21 22  1  0
 22 23  2  0
 23 24  1  0
 24 25  2  0
 25 26  1  0
 16  4  1  0
 26 18  1  0
 15 10  1  0
 25 20  1  0
  5 27  1  0
  6 28  1  0
  7 29  1  0
  9 30  1  0
  9 31  1  0
 11 32  1  0
 12 33  1  0
 13 34  1  0
 14 35  1  0
 15 36  1  0
 18 37  1  0
 19 38  1  0
 19 39  1  0
 21 40  1  0
 22 41  1  0
 23 42  1  0
 24 43  1  0
 26 44  1  0
 26 45  1  0
M  CHG  2   3  -1  18   1
M  END
>  <UniqueID>  (43) 
41

>  <SMILES>  (43) 
O=C([N-]c1cccn(Cc2ccccc2)c1=O)[NH+]1Cc2ccccc2C1

>  <Energy>  (43) 
72.96674908838575

>  <Genealogy>  (43) 
O=C([N-]c1cccn(Cc2ccccc2)c1=O)[NH+]1Cc2ccccc2C1 (protonated)
O=C([N-]c1cccn(Cc2ccccc2)c1=O)[NH+]1Cc2ccccc2C1 (3D coordinates assigned)
O=C([N-]c1cccn(Cc2ccccc2)c1=O)[NH+]1Cc2ccccc2C1 (nonaromatic ring conformer: 72.96674908838575 kcal/mol)

>  <smiles>  (43) 
O=C(Nc1cccn(Cc2ccccc2)c1=O)N1Cc2ccccc2C1

>  <score_type>  (43) 
oracle

>  <origin>  (43) 
adg

>  <m_score__min__energy>  (43) 
-9.4700000000000006

>  <m_primary>  (43) 
energy

$$$$
43:0
     RDKit          3D

 41 43  0  0  0  0  0  0  0  0999 V2000
   58.1480   27.4830   43.2810 C   0  0  0  0  0  0  0  0  0  0  0  0
   58.7250   28.0120   44.5210 N   0  0  0  0  0  0  0  0  0  0  0  0
   60.1480   28.3640   44.5710 C   0  0  0  0  0  0  0  0  0  0  0  0
   57.8700   28.1670   45.6760 C   0  0  0  0  0  0  0  0  0  0  0  0
   56.6680   27.7890   45.6140 O   0  0  0  0  0  0  0  0  0  0  0  0
   58.3570   28.7720   46.9710 C   0  0  0  0  0  0  0  0  0  0  0  0
   58.8280   30.1550   46.7750 N   0  0  0  0  0  0  0  0  0  0  0  0
   59.9890   30.5320   47.3290 N   0  0  0  0  0  0  0  0  0  0  0  0
   60.4770   31.7980   47.2140 C   0  0  0  0  0  0  0  0  0  0  0  0
   61.7340   32.1360   47.9210 C   0  0  0  0  0  0  0  0  0  0  0  0
   61.8970   31.8170   49.2790 C   0  0  0  0  0  0  0  0  0  0  0  0
   63.0980   32.1080   49.9310 C   0  0  0  0  0  0  0  0  0  0  0  0
   64.1490   32.7090   49.2300 C   0  0  0  0  0  0  0  0  0  0  0  0
   65.6570   33.0740   50.0500 Cl  0  0  0  0  0  0  0  0  0  0  0  0
   63.9990   33.0130   47.8730 C   0  0  0  0  0  0  0  0  0  0  0  0
   62.7980   32.7220   47.2180 C   0  0  0  0  0  0  0  0  0  0  0  0
   59.7690   32.7450   46.4430 C   0  0  0  0  0  0  0  0  0  0  0  0
   60.2490   34.0550   46.2290 C   0  0  0  0  0  0  0  0  0  0  0  0
   59.5170   34.9600   45.4580 C   0  0  0  0  0  0  0  0  0  0  0  0
   58.3070   34.5740   44.8820 C   0  0  0  0  0  0  0  0  0  0  0  0
   57.8270   33.2780   45.0670 C   0  0  0  0  0  0  0  0  0  0  0  0
   58.5540   32.3500   45.8410 C   0  0  0  0  0  0  0  0  0  0  0  0
   58.0980   31.0350   46.0190 C   0  0  0  0  0  0  0  0  0  0  0  0
   57.0200   30.6620   45.4760 O   0  0  0  0  0  0  0  0  0  0  0  0
   57.3573   26.7581   43.5246 H   0  0  0  0  0  0  0  0  0  0  0  0
   57.7200   28.3091   42.6941 H   0  0  0  0  0  0  0  0  0  0  0  0
   58.9339   26.9850   42.6941 H   0  0  0  0  0  0  0  0  0  0  0  0
   60.4694   28.4435   45.6200 H   0  0  0  0  0  0  0  0  0  0  0  0
   60.7366   27.5844   44.0653 H   0  0  0  0  0  0  0  0  0  0  0  0
   60.3052   29.3281   44.0653 H   0  0  0  0  0  0  0  0  0  0  0  0
   57.5311   28.7748   47.6976 H   0  0  0  0  0  0  0  0  0  0  0  0
   59.1994   28.1684   47.3398 H   0  0  0  0  0  0  0  0  0  0  0  0
   60.5360   29.8430   47.8950 H   0  0  0  0  0  0  0  0  0  0  0  0
   61.0761   31.3363   49.8313 H   0  0  0  0  0  0  0  0  0  0  0  0
   63.2173   31.8642   50.9970 H   0  0  0  0  0  0  0  0  0  0  0  0
   64.8266   33.4815   47.3203 H   0  0  0  0  0  0  0  0  0  0  0  0
   62.6870   32.9532   46.1483 H   0  0  0  0  0  0  0  0  0  0  0  0
   61.2065   34.3651   46.6728 H   0  0  0  0  0  0  0  0  0  0  0  0
   59.8960   35.9811   45.3043 H   0  0  0  0  0  0  0  0  0  0  0  0
   57.7306   35.2928   44.2810 H   0  0  0  0  0  0  0  0  0  0  0  0
   56.8746   32.9773   44.6060 H   0  0  0  0  0  0  0  0  0  0  0  0
  1  2  1  0
  2  3  1  0
  2  4  1  0
  4  5  2  0
  4  6  1  0
  6  7  1  0
  7  8  1  0
  8  9  2  0
  9 10  1  0
 10 11  2  0
 11 12  1  0
 12 13  2  0
 13 14  1  0
 13 15  1  0
 15 16  2  0
  9 17  1  0
 17 18  2  0
 18 19  1  0
 19 20  2  0
 20 21  1  0
 21 22  2  0
 22 23  1  0
 23 24  2  0
 23  7  1  0
 16 10  1  0
 22 17  1  0
  1 25  1  0
  1 26  1  0
  1 27  1  0
  3 28  1  0
  3 29  1  0
  3 30  1  0
  6 31  1  0
  6 32  1  0
  8 33  1  0
 11 34  1  0
 12 35  1  0
 15 36  1  0
 16 37  1  0
 18 38  1  0
 19 39  1  0
 20 40  1  0
 21 41  1  0
M  CHG  1   8   1
M  END
>  <UniqueID>  (44) 
42

>  <SMILES>  (44) 
CN(C)C(=O)Cn1[nH+]c(-c2ccc(Cl)cc2)c2ccccc2c1=O

>  <Energy>  (44) 
55.2513349714107

>  <Genealogy>  (44) 
CN(C)C(=O)Cn1[nH+]c(-c2ccc(Cl)cc2)c2ccccc2c1=O (protonated)
CN(C)C(=O)Cn1[nH+]c(-c2ccc(Cl)cc2)c2ccccc2c1=O (3D coordinates assigned)
CN(C)C(=O)Cn1[nH+]c(-c2ccc(Cl)cc2)c2ccccc2c1=O (optimized conformer: 55.2513349714107 kcal/mol)

>  <smiles>  (44) 
CN(C)C(=O)Cn1nc(-c2ccc(Cl)cc2)c2ccccc2c1=O

>  <score_type>  (44) 
oracle

>  <origin>  (44) 
adg

>  <m_score__min__energy>  (44) 
-7.0899999999999999

>  <m_primary>  (44) 
energy

$$$$
44:0
     RDKit          3D

 23 24  0  0  0  0  0  0  0  0999 V2000
   63.3750   33.0890   47.5030 Br  0  0  0  0  0  0  0  0  0  0  0  0
   61.5740   33.7080   47.4330 C   0  0  0  0  0  0  0  0  0  0  0  0
   60.8840   34.3830   48.4210 C   0  0  0  0  0  0  0  0  0  0  0  0
   59.6480   34.6570   47.9650 N   0  0  0  0  0  0  0  0  0  0  0  0
   59.5320   34.1740   46.7390 N   0  0  0  0  0  0  0  0  0  0  0  0
   58.3560   34.3450   45.8920 C   0  0  0  0  0  0  0  0  0  0  0  0
   58.0850   33.0770   45.1330 C   0  0  0  0  0  0  0  0  0  0  0  0
   58.0680   33.0820   43.7280 C   0  0  0  0  0  0  0  0  0  0  0  0
   57.7760   31.9110   43.0240 C   0  0  0  0  0  0  0  0  0  0  0  0
   57.4880   30.7300   43.7140 C   0  0  0  0  0  0  0  0  0  0  0  0
   57.4880   30.7210   45.1110 C   0  0  0  0  0  0  0  0  0  0  0  0
   57.7800   31.8900   45.8210 C   0  0  0  0  0  0  0  0  0  0  0  0
   60.6930   33.5950   46.3760 C   0  0  0  0  0  0  0  0  0  0  0  0
   61.2780   34.6511   49.4124 H   0  0  0  0  0  0  0  0  0  0  0  0
   58.9010   35.1760   48.4790 H   0  0  0  0  0  0  0  0  0  0  0  0
   57.4861   34.5874   46.5201 H   0  0  0  0  0  0  0  0  0  0  0  0
   58.5385   35.1625   45.1789 H   0  0  0  0  0  0  0  0  0  0  0  0
   58.2853   34.0110   43.1805 H   0  0  0  0  0  0  0  0  0  0  0  0
   57.7727   31.9185   41.9240 H   0  0  0  0  0  0  0  0  0  0  0  0
   57.2616   29.8085   43.1575 H   0  0  0  0  0  0  0  0  0  0  0  0
   57.2578   29.7923   45.6538 H   0  0  0  0  0  0  0  0  0  0  0  0
   57.7709   31.8804   46.9209 H   0  0  0  0  0  0  0  0  0  0  0  0
   60.9022   33.1165   45.4079 H   0  0  0  0  0  0  0  0  0  0  0  0
  1  2  1  0
  2  3  1  0
  3  4  2  0
  4  5  1  0
  5  6  1  0
  6  7  1  0
  7  8  2  0
  8  9  1  0
  9 10  2  0
 10 11  1  0
 11 12  2  0
  5 13  1  0
 13  2  2  0
 12  7  1  0
  3 14  1  0
  4 15  1  0
  6 16  1  0
  6 17  1  0
  8 18  1  0
  9 19  1  0
 10 20  1  0
 11 21  1  0
 12 22  1  0
 13 23  1  0
M  CHG  1   4   1
M  END
>  <UniqueID>  (45) 
43

>  <SMILES>  (45) 
Brc1c[nH+]n(Cc2ccccc2)c1

>  <Energy>  (45) 
51.83771429438428

>  <Genealogy>  (45) 
Brc1c[nH+]n(Cc2ccccc2)c1 (protonated)
Brc1c[nH+]n(Cc2ccccc2)c1 (3D coordinates assigned)
Brc1c[nH+]n(Cc2ccccc2)c1 (optimized conformer: 51.83771429438428 kcal/mol)

>  <smiles>  (45) 
Brc1cnn(Cc2ccccc2)c1

>  <score_type>  (45) 
oracle

>  <origin>  (45) 
adg

>  <m_score__min__energy>  (45) 
-4.29

>  <m_primary>  (45) 
energy

$$$$
45:0
     RDKit          3D

 41 45  0  0  0  0  0  0  0  0999 V2000
   55.8710   30.0960   43.3680 C   0  0  0  0  0  0  0  0  0  0  0  0
   57.0260   29.4300   43.9570 N   0  0  0  0  0  0  0  0  0  0  0  0
   57.4140   28.1970   43.6480 N   0  0  0  0  0  0  0  0  0  0  0  0
   58.5200   27.9070   44.3760 C   0  0  0  0  0  0  0  0  0  0  0  0
   58.8240   29.0000   45.1600 C   0  0  0  0  0  0  0  0  0  0  0  0
   59.8460   29.2380   46.0750 C   0  0  0  0  0  0  0  0  0  0  0  0
   60.7940   28.2980   46.3160 F   0  0  0  0  0  0  0  0  0  0  0  0
   59.8740   30.4980   46.7200 C   0  0  0  0  0  0  0  0  0  0  0  0
   60.9090   30.8060   47.6720 N   0  0  0  0  0  0  0  0  0  0  0  0
   61.0230   30.0340   48.8060 C   0  0  0  0  0  0  0  0  0  0  0  0
   61.9890   30.2940   49.7350 N   0  0  0  0  0  0  0  0  0  0  0  0
   62.8490   31.3240   49.5370 C   0  0  0  0  0  0  0  0  0  0  0  0
   63.8830   31.6930   50.4040 C   0  0  0  0  0  0  0  0  0  0  0  0
   64.6150   32.7920   49.9290 C   0  0  0  0  0  0  0  0  0  0  0  0
   65.7750   33.4370   50.5990 C   0  0  0  0  0  0  0  0  0  0  0  0
   67.0900   33.0930   50.2280 C   0  0  0  0  0  0  0  0  0  0  0  0
   68.1850   33.6950   50.8540 C   0  0  0  0  0  0  0  0  0  0  0  0
   67.9850   34.6480   51.8550 C   0  0  0  0  0  0  0  0  0  0  0  0
   69.3620   35.4030   52.6370 Cl  0  0  0  0  0  0  0  0  0  0  0  0
   66.6870   35.0010   52.2300 C   0  0  0  0  0  0  0  0  0  0  0  0
   65.5880   34.4020   51.6070 C   0  0  0  0  0  0  0  0  0  0  0  0
   63.9570   33.2740   48.4370 S   0  0  0  0  0  0  0  0  0  0  0  0
   62.7580   32.1020   48.4070 C   0  0  0  0  0  0  0  0  0  0  0  0
   61.7820   31.8440   47.4540 C   0  0  0  0  0  0  0  0  0  0  0  0
   61.7180   32.5460   46.4070 O   0  0  0  0  0  0  0  0  0  0  0  0
   58.8840   31.4690   46.4110 C   0  0  0  0  0  0  0  0  0  0  0  0
   57.8660   31.1900   45.4790 C   0  0  0  0  0  0  0  0  0  0  0  0
   57.8710   29.9350   44.8730 C   0  0  0  0  0  0  0  0  0  0  0  0
   55.2174   30.4729   44.1685 H   0  0  0  0  0  0  0  0  0  0  0  0
   56.2106   30.9369   42.7455 H   0  0  0  0  0  0  0  0  0  0  0  0
   55.3133   29.3808   42.7455 H   0  0  0  0  0  0  0  0  0  0  0  0
   59.0799   26.9606   44.3464 H   0  0  0  0  0  0  0  0  0  0  0  0
   60.3271   29.1972   48.9656 H   0  0  0  0  0  0  0  0  0  0  0  0
   62.0580   29.7000   50.5920 H   0  0  0  0  0  0  0  0  0  0  0  0
   64.0983   31.1790   51.3524 H   0  0  0  0  0  0  0  0  0  0  0  0
   67.2562   32.3445   49.4392 H   0  0  0  0  0  0  0  0  0  0  0  0
   69.2072   33.4174   50.5574 H   0  0  0  0  0  0  0  0  0  0  0  0
   66.5288   35.7524   53.0177 H   0  0  0  0  0  0  0  0  0  0  0  0
   64.5688   34.6870   51.9069 H   0  0  0  0  0  0  0  0  0  0  0  0
   58.9131   32.4509   46.9060 H   0  0  0  0  0  0  0  0  0  0  0  0
   57.0944   31.9360   45.2379 H   0  0  0  0  0  0  0  0  0  0  0  0
  1  2  1  0
  2  3  1  0
  3  4  2  0
  4  5  1  0
  5  6  2  0
  6  7  1  0
  6  8  1  0
  8  9  1  0
  9 10  1  0
 10 11  2  0
 11 12  1  0
 12 13  1  0
 13 14  2  0
 14 15  1  0
 15 16  2  0
 16 17  1  0
 17 18  2  0
 18 19  1  0
 18 20  1  0
 20 21  2  0
 14 22  1  0
 22 23  1  0
 23 24  1  0
 24 25  2  0
  8 26  2  0
 26 27  1  0
 27 28  2  0
 28  2  1  0
 28  5  1  0
 24  9  1  0
 23 12  2  0
 21 15  1  0
  1 29  1  0
  1 30  1  0
  1 31  1  0
  4 32  1  0
 10 33  1  0
 11 34  1  0
 13 35  1  0
 16 36  1  0
 17 37  1  0
 20 38  1  0
 21 39  1  0
 26 40  1  0
 27 41  1  0
M  CHG  1  11   1
M  END
>  <UniqueID>  (46) 
44

>  <SMILES>  (46) 
Cn1ncc2c(F)c(-n3c[nH+]c4cc(-c5ccc(Cl)cc5)sc4c3=O)ccc21

>  <Energy>  (46) 
129.30264342891158

>  <Genealogy>  (46) 
Cn1ncc2c(F)c(-n3c[nH+]c4cc(-c5ccc(Cl)cc5)sc4c3=O)ccc21 (protonated)
Cn1ncc2c(F)c(-n3c[nH+]c4cc(-c5ccc(Cl)cc5)sc4c3=O)ccc21 (3D coordinates assigned)
Cn1ncc2c(F)c(-n3c[nH+]c4cc(-c5ccc(Cl)cc5)sc4c3=O)ccc21 (optimized conformer: 129.30264342891158 kcal/mol)

>  <smiles>  (46) 
Cn1ncc2c(F)c(-n3cnc4cc(-c5ccc(Cl)cc5)sc4c3=O)ccc21

>  <score_type>  (46) 
oracle

>  <origin>  (46) 
adg

>  <m_score__min__energy>  (46) 
-5.9900000000000002

>  <m_primary>  (46) 
energy

$$$$
46:0
     RDKit          3D

 43 46  0  0  1  0  0  0  0  0999 V2000
   60.8250   27.8130   50.8710 C   0  0  0  0  0  0  0  0  0  0  0  0
   60.7400   28.7300   49.7510 N   0  0  0  0  0  0  0  0  0  0  0  0
   61.3180   29.9090   49.6340 N   0  0  0  0  0  0  0  0  0  0  0  0
   61.0110   30.4920   48.4340 C   0  0  0  0  0  0  0  0  0  0  0  0
   60.2070   29.6060   47.8070 C   0  0  0  0  0  0  0  0  0  0  0  0
   59.5890   29.6130   46.6040 C   0  0  0  0  0  0  0  0  0  0  0  0
   59.6970   30.5770   45.8180 N   0  0  0  0  0  0  0  0  0  0  0  0
   58.9630   31.7670   45.7750 C   0  0  0  0  0  0  0  0  0  0  0  0
   59.5630   32.8960   46.3570 C   0  0  0  0  0  0  0  0  0  0  0  0
   58.8710   34.0830   46.3870 C   0  0  0  0  0  0  0  0  0  0  0  0
   57.5880   34.1750   45.8490 C   0  0  0  0  0  0  0  0  0  0  0  0
   57.0120   33.0660   45.2840 C   0  0  0  0  0  0  0  0  0  0  0  0
   57.6720   31.8560   45.2330 C   0  0  0  0  0  0  0  0  0  0  0  0
   56.9810   30.4180   44.5280 S   0  0  0  0  0  0  0  0  0  0  0  0
   58.2100   29.4590   43.7510 N   0  0  0  0  0  0  0  0  0  0  0  0
   55.8900   30.7040   43.5450 O   0  0  0  0  0  0  0  0  0  0  0  0
   56.4070   29.5160   45.6020 O   0  0  0  0  0  0  0  0  0  0  0  0
   58.8260   28.5530   46.2340 N   0  0  0  0  0  0  0  0  0  0  0  0
   58.6500   27.4770   47.0200 C   0  0  0  0  0  0  0  0  0  0  0  0
   57.8380   26.3270   46.6510 C   0  0  0  0  0  0  0  0  0  0  0  0
   58.3300   25.0410   46.5940 C   0  0  0  0  0  0  0  0  0  0  0  0
   57.4950   24.0020   46.2360 C   0  0  0  0  0  0  0  0  0  0  0  0
   56.1680   24.1680   45.9220 C   0  0  0  0  0  0  0  0  0  0  0  0
   55.6710   25.4610   45.9790 C   0  0  0  0  0  0  0  0  0  0  0  0
   56.5070   26.4980   46.3380 C   0  0  0  0  0  0  0  0  0  0  0  0
   59.2740   27.4890   48.2120 N   0  0  0  0  0  0  0  0  0  0  0  0
   60.0410   28.5150   48.6250 C   0  0  0  0  0  0  0  0  0  0  0  0
   60.7726   28.3788   51.8129 H   0  0  0  0  0  0  0  0  0  0  0  0
   59.9892   27.0994   50.8249 H   0  0  0  0  0  0  0  0  0  0  0  0
   61.7778   27.2652   50.8249 H   0  0  0  0  0  0  0  0  0  0  0  0
   61.3467   31.4708   48.0609 H   0  0  0  0  0  0  0  0  0  0  0  0
   60.5748   32.8308   46.7837 H   0  0  0  0  0  0  0  0  0  0  0  0
   59.3349   34.9711   46.8409 H   0  0  0  0  0  0  0  0  0  0  0  0
   57.0421   35.1295   45.8775 H   0  0  0  0  0  0  0  0  0  0  0  0
   55.9994   33.1434   44.8614 H   0  0  0  0  0  0  0  0  0  0  0  0
   58.0190   29.3650   42.7280 H   0  0  0  0  0  0  0  0  0  0  0  0
   59.1360   29.9460   43.8340 H   0  0  0  0  0  0  0  0  0  0  0  0
   58.3640   28.5760   45.3190 H   0  0  0  0  0  0  0  0  0  0  0  0
   59.3853   24.8431   46.8332 H   0  0  0  0  0  0  0  0  0  0  0  0
   57.9149   22.9859   46.2002 H   0  0  0  0  0  0  0  0  0  0  0  0
   55.5311   23.3169   45.6393 H   0  0  0  0  0  0  0  0  0  0  0  0
   54.6158   25.6589   45.7393 H   0  0  0  0  0  0  0  0  0  0  0  0
   56.0891   27.5148   46.3764 H   0  0  0  0  0  0  0  0  0  0  0  0
  1  2  1  0
  2  3  1  0
  3  4  2  0
  4  5  1  0
  5  6  1  0
  6  7  2  0
  7  8  1  0
  8  9  2  0
  9 10  1  0
 10 11  2  0
 11 12  1  0
 12 13  2  0
 13 14  1  0
 14 15  1  0
 14 16  2  0
 14 17  2  0
  6 18  1  0
 18 19  1  0
 19 20  1  0
 20 21  2  0
 21 22  1  0
 22 23  2  0
 23 24  1  0
 24 25  2  0
 19 26  2  0
 26 27  1  0
 27  2  1  0
 27  5  2  0
 13  8  1  0
 25 20  1  0
  1 28  1  0
  1 29  1  0
  1 30  1  0
  4 31  1  0
  9 32  1  0
 10 33  1  0
 11 34  1  0
 12 35  1  0
 15 36  1  0
 15 37  1  0
 18 38  1  0
 21 39  1  0
 22 40  1  0
 23 41  1  0
 24 42  1  0
 25 43  1  0
M  END
>  <smiles>  (47) 
Cn1ncc2c(=Nc3ccccc3S(N)(=O)=O)[nH]c(-c3ccccc3)nc21

>  <score_type>  (47) 
oracle

>  <origin>  (47) 
adg

>  <m_score__min__energy>  (47) 
-7.8499999999999996

>  <m_primary>  (47) 
energy

$$$$
47:0
     RDKit          3D

 54 57  0  0  0  0  0  0  0  0999 V2000
   58.9590   24.6310   45.9390 C   0  0  0  0  0  0  0  0  0  0  0  0
   59.0170   26.0870   46.1410 N   0  0  0  0  0  0  0  0  0  0  0  0
   58.1610   26.4880   47.2840 C   0  0  0  0  0  0  0  0  0  0  0  0
   58.5410   27.8650   47.8700 C   0  0  0  0  0  0  0  0  0  0  0  0
   59.3040   28.6550   46.9000 N   0  0  0  0  0  0  0  0  0  0  0  0
   58.8070   29.9300   46.4670 C   0  0  0  0  0  0  0  0  0  0  0  0
   59.0750   31.0580   47.2480 C   0  0  0  0  0  0  0  0  0  0  0  0
   58.5710   32.3260   46.9020 C   0  0  0  0  0  0  0  0  0  0  0  0
   58.8490   33.4860   47.7210 N   0  0  0  0  0  0  0  0  0  0  0  0
   59.6500   34.6360   47.2930 C   0  0  0  0  0  0  0  0  0  0  0  0
   60.8300   34.1860   46.4240 C   0  0  0  0  0  0  0  0  0  0  0  0
   61.7620   33.3510   47.2060 N   0  0  0  0  0  0  0  0  0  0  0  0
   63.1490   33.4500   46.7360 C   0  0  0  0  0  0  0  0  0  0  0  0
   64.0460   33.1860   47.9380 C   0  0  0  0  0  0  0  0  0  0  0  0
   63.1460   33.3160   49.1550 C   0  0  0  0  0  0  0  0  0  0  0  0
   61.8010   33.7650   48.6110 C   0  0  0  0  0  0  0  0  0  0  0  0
   57.7900   32.4530   45.7300 C   0  0  0  0  0  0  0  0  0  0  0  0
   57.1120   34.0110   45.2510 Cl  0  0  0  0  0  0  0  0  0  0  0  0
   57.5320   31.3260   44.9290 C   0  0  0  0  0  0  0  0  0  0  0  0
   56.7860   31.4530   43.7960 N   0  0  0  0  0  0  0  0  0  0  0  0
   56.5170   30.3970   42.9850 C   0  0  0  0  0  0  0  0  0  0  0  0
   57.0160   29.1340   43.2960 C   0  0  0  0  0  0  0  0  0  0  0  0
   57.7830   28.9630   44.4490 C   0  0  0  0  0  0  0  0  0  0  0  0
   58.0440   30.0590   45.2910 C   0  0  0  0  0  0  0  0  0  0  0  0
   60.4560   28.0580   46.2150 C   0  0  0  0  0  0  0  0  0  0  0  0
   60.4110   26.5310   46.3210 C   0  0  0  0  0  0  0  0  0  0  0  0
   58.9389   24.1258   46.9159 H   0  0  0  0  0  0  0  0  0  0  0  0
   58.0499   24.3750   45.3750 H   0  0  0  0  0  0  0  0  0  0  0  0
   59.8448   24.3035   45.3750 H   0  0  0  0  0  0  0  0  0  0  0  0
   57.1164   26.5291   46.9418 H   0  0  0  0  0  0  0  0  0  0  0  0
   58.3042   25.7417   48.0793 H   0  0  0  0  0  0  0  0  0  0  0  0
   57.6225   28.4094   48.1346 H   0  0  0  0  0  0  0  0  0  0  0  0
   59.1650   27.7066   48.7619 H   0  0  0  0  0  0  0  0  0  0  0  0
   59.6928   30.9525   48.1520 H   0  0  0  0  0  0  0  0  0  0  0  0
   58.4320   33.5520   48.6760 H   0  0  0  0  0  0  0  0  0  0  0  0
   59.0152   35.3211   46.7120 H   0  0  0  0  0  0  0  0  0  0  0  0
   60.0438   35.1427   48.1864 H   0  0  0  0  0  0  0  0  0  0  0  0
   60.4500   33.6030   45.5721 H   0  0  0  0  0  0  0  0  0  0  0  0
   61.3669   35.0768   46.0660 H   0  0  0  0  0  0  0  0  0  0  0  0
   63.3368   32.7010   45.9526 H   0  0  0  0  0  0  0  0  0  0  0  0
   63.3485   34.4434   46.3078 H   0  0  0  0  0  0  0  0  0  0  0  0
   64.4739   32.1741   47.8831 H   0  0  0  0  0  0  0  0  0  0  0  0
   64.8902   33.8901   47.9787 H   0  0  0  0  0  0  0  0  0  0  0  0
   63.0504   32.3481   49.6689 H   0  0  0  0  0  0  0  0  0  0  0  0
   63.5498   34.0276   49.8902 H   0  0  0  0  0  0  0  0  0  0  0  0
   60.9850   33.2853   49.1714 H   0  0  0  0  0  0  0  0  0  0  0  0
   61.6753   34.8534   48.7089 H   0  0  0  0  0  0  0  0  0  0  0  0
   55.9048   30.5392   42.0822 H   0  0  0  0  0  0  0  0  0  0  0  0
   56.8069   28.2780   42.6375 H   0  0  0  0  0  0  0  0  0  0  0  0
   58.1840   27.9699   44.6998 H   0  0  0  0  0  0  0  0  0  0  0  0
   60.4364   28.3479   45.1541 H   0  0  0  0  0  0  0  0  0  0  0  0
   61.3794   28.4205   46.6903 H   0  0  0  0  0  0  0  0  0  0  0  0
   61.0451   26.0866   45.5397 H   0  0  0  0  0  0  0  0  0  0  0  0
   60.7823   26.2120   47.3061 H   0  0  0  0  0  0  0  0  0  0  0  0
  1  2  1  0
  2  3  1  0
  3  4  1  0
  4  5  1  0
  5  6  1  0
  6  7  2  0
  7  8  1  0
  8  9  1  0
  9 10  1  0
 10 11  1  0
 11 12  1  0
 12 13  1  0
 13 14  1  0
 14 15  1  0
 15 16  1  0
  8 17  2  0
 17 18  1  0
 17 19  1  0
 19 20  2  0
 20 21  1  0
 21 22  2  0
 22 23  1  0
 23 24  2  0
  5 25  1  0
 25 26  1  0
 26  2  1  0
 24  6  1  0
 16 12  1  0
 24 19  1  0
  1 27  1  0
  1 28  1  0
  1 29  1  0
  3 30  1  0
  3 31  1  0
  4 32  1  0
  4 33  1  0
  7 34  1  0
  9 35  1  0
 10 36  1  0
 10 37  1  0
 11 38  1  0
 11 39  1  0
 13 40  1  0
 13 41  1  0
 14 42  1  0
 14 43  1  0
 15 44  1  0
 15 45  1  0
 16 46  1  0
 16 47  1  0
 21 48  1  0
 22 49  1  0
 23 50  1  0
 25 51  1  0
 25 52  1  0
 26 53  1  0
 26 54  1  0
M  END
>  <UniqueID>  (48) 
45

>  <SMILES>  (48) 
CN1CCN(c2cc(NCCN3CCCC3)c(Cl)c3ncccc23)CC1

>  <Energy>  (48) 
72.92213946251289

>  <Genealogy>  (48) 
CN1CCN(c2cc(NCCN3CCCC3)c(Cl)c3ncccc23)CC1 (3D coordinates assigned)
CN1CCN(c2cc(NCCN3CCCC3)c(Cl)c3ncccc23)CC1 (nonaromatic ring conformer: 72.92213946251289 kcal/mol)

>  <smiles>  (48) 
CN1CCN(c2cc(NCCN3CCCC3)c(Cl)c3ncccc23)CC1

>  <score_type>  (48) 
oracle

>  <origin>  (48) 
adg

>  <m_score__min__energy>  (48) 
-8.2599999999999998

>  <m_primary>  (48) 
energy

$$$$
48:0
     RDKit          3D

 51 54  0  0  0  0  0  0  0  0999 V2000
   57.3340   34.5900   45.0500 C   0  0  0  0  0  0  0  0  0  0  0  0
   58.4750   33.8840   45.6280 N   0  0  0  0  0  0  0  0  0  0  0  0
   59.4170   34.4340   46.4180 C   0  0  0  0  0  0  0  0  0  0  0  0
   60.2980   33.4370   46.8000 C   0  0  0  0  0  0  0  0  0  0  0  0
   61.4710   33.5820   47.6950 C   0  0  0  0  0  0  0  0  0  0  0  0
   62.7420   33.1660   47.2520 C   0  0  0  0  0  0  0  0  0  0  0  0
   63.8580   33.2890   48.0840 C   0  0  0  0  0  0  0  0  0  0  0  0
   63.7220   33.8290   49.3640 C   0  0  0  0  0  0  0  0  0  0  0  0
   62.4700   34.2510   49.8130 C   0  0  0  0  0  0  0  0  0  0  0  0
   61.3460   34.1310   48.9890 C   0  0  0  0  0  0  0  0  0  0  0  0
   60.1540   34.5910   49.4430 F   0  0  0  0  0  0  0  0  0  0  0  0
   59.8990   32.2740   46.2450 N   0  0  0  0  0  0  0  0  0  0  0  0
   58.8000   32.5730   45.5230 C   0  0  0  0  0  0  0  0  0  0  0  0
   58.0510   31.5630   44.7440 C   0  0  0  0  0  0  0  0  0  0  0  0
   57.6770   31.8060   43.4130 C   0  0  0  0  0  0  0  0  0  0  0  0
   56.9790   30.8380   42.6880 C   0  0  0  0  0  0  0  0  0  0  0  0
   56.6560   29.6150   43.2790 C   0  0  0  0  0  0  0  0  0  0  0  0
   57.0420   29.3470   44.6010 C   0  0  0  0  0  0  0  0  0  0  0  0
   56.6800   28.0370   45.2550 C   0  0  0  0  0  0  0  0  0  0  0  0
   57.8840   27.3510   45.7710 N   0  0  0  0  0  0  0  0  0  0  0  0
   57.9950   27.4850   47.2480 C   0  0  0  0  0  0  0  0  0  0  0  0
   58.9670   28.5970   47.6700 C   0  0  0  0  0  0  0  0  0  0  0  0
   60.3900   28.3210   47.1460 C   0  0  0  0  0  0  0  0  0  0  0  0
   61.0300   29.5290   46.9320 F   0  0  0  0  0  0  0  0  0  0  0  0
   61.1030   27.6180   48.1040 F   0  0  0  0  0  0  0  0  0  0  0  0
   60.3820   27.5070   45.8360 C   0  0  0  0  0  0  0  0  0  0  0  0
   59.1040   27.7730   45.0330 C   0  0  0  0  0  0  0  0  0  0  0  0
   57.7410   30.3230   45.3280 C   0  0  0  0  0  0  0  0  0  0  0  0
   56.6987   34.9831   45.8574 H   0  0  0  0  0  0  0  0  0  0  0  0
   57.6947   35.4230   44.4287 H   0  0  0  0  0  0  0  0  0  0  0  0
   56.7495   33.8955   44.4287 H   0  0  0  0  0  0  0  0  0  0  0  0
   59.4761   35.4930   46.7094 H   0  0  0  0  0  0  0  0  0  0  0  0
   62.8568   32.7413   46.2438 H   0  0  0  0  0  0  0  0  0  0  0  0
   64.8458   32.9596   47.7295 H   0  0  0  0  0  0  0  0  0  0  0  0
   64.6013   33.9218   50.0184 H   0  0  0  0  0  0  0  0  0  0  0  0
   62.3664   34.6804   50.8204 H   0  0  0  0  0  0  0  0  0  0  0  0
   60.3620   31.3410   46.3250 H   0  0  0  0  0  0  0  0  0  0  0  0
   57.9352   32.7642   42.9385 H   0  0  0  0  0  0  0  0  0  0  0  0
   56.6827   31.0396   41.6480 H   0  0  0  0  0  0  0  0  0  0  0  0
   56.0975   28.8597   42.7067 H   0  0  0  0  0  0  0  0  0  0  0  0
   55.9907   28.2304   46.0901 H   0  0  0  0  0  0  0  0  0  0  0  0
   56.2036   27.3903   44.5035 H   0  0  0  0  0  0  0  0  0  0  0  0
   56.9996   27.7137   47.6566 H   0  0  0  0  0  0  0  0  0  0  0  0
   58.3865   26.5346   47.6398 H   0  0  0  0  0  0  0  0  0  0  0  0
   58.6141   29.5559   47.2625 H   0  0  0  0  0  0  0  0  0  0  0  0
   59.0008   28.6319   48.7689 H   0  0  0  0  0  0  0  0  0  0  0  0
   61.2541   27.7926   45.2295 H   0  0  0  0  0  0  0  0  0  0  0  0
   60.4219   26.4369   46.0876 H   0  0  0  0  0  0  0  0  0  0  0  0
   59.0358   28.8502   44.8207 H   0  0  0  0  0  0  0  0  0  0  0  0
   59.1586   27.1868   44.1038 H   0  0  0  0  0  0  0  0  0  0  0  0
   58.0487   30.1156   46.3635 H   0  0  0  0  0  0  0  0  0  0  0  0
  1  2  1  0
  2  3  1  0
  3  4  2  0
  4  5  1  0
  5  6  2  0
  6  7  1  0
  7  8  2  0
  8  9  1  0
  9 10  2  0
 10 11  1  0
  4 12  1  0
 12 13  2  0
 13 14  1  0
 14 15  2  0
 15 16  1  0
 16 17  2  0
 17 18  1  0
 18 19  1  0
 19 20  1  0
 20 21  1  0
 21 22  1  0
 22 23  1  0
 23 24  1  0
 23 25  1  0
 23 26  1  0
 26 27  1  0
 18 28  2  0
 13  2  1  0
 28 14  1  0
 10  5  1  0
 27 20  1  0
  1 29  1  0
  1 30  1  0
  1 31  1  0
  3 32  1  0
  6 33  1  0
  7 34  1  0
  8 35  1  0
  9 36  1  0
 12 37  1  0
 15 38  1  0
 16 39  1  0
 17 40  1  0
 19 41  1  0
 19 42  1  0
 21 43  1  0
 21 44  1  0
 22 45  1  0
 22 46  1  0
 26 47  1  0
 26 48  1  0
 27 49  1  0
 27 50  1  0
 28 51  1  0
M  CHG  1  12   1
M  END
>  <UniqueID>  (49) 
46

>  <SMILES>  (49) 
Cn1cc(-c2ccccc2F)[nH+]c1-c1cccc(CN2CCC(F)(F)CC2)c1

>  <Energy>  (49) 
100.3461526262167

>  <Genealogy>  (49) 
Cn1cc(-c2ccccc2F)[nH+]c1-c1cccc(CN2CCC(F)(F)CC2)c1 (protonated)
Cn1cc(-c2ccccc2F)[nH+]c1-c1cccc(CN2CCC(F)(F)CC2)c1 (3D coordinates assigned)
Cn1cc(-c2ccccc2F)[nH+]c1-c1cccc(CN2CCC(F)(F)CC2)c1 (nonaromatic ring conformer: 100.3461526262167 kcal/mol)

>  <smiles>  (49) 
Cn1cc(-c2ccccc2F)nc1-c1cccc(CN2CCC(F)(F)CC2)c1

>  <score_type>  (49) 
oracle

>  <origin>  (49) 
adg

>  <m_score__min__energy>  (49) 
-7.1799999999999997

>  <m_primary>  (49) 
energy

$$$$
49:0
     RDKit          3D

 53 54  0  0  0  0  0  0  0  0999 V2000
   59.6330   30.2150   50.4810 C   0  0  0  0  0  0  0  0  0  0  0  0
   58.5280   31.2620   50.6050 C   0  0  0  0  0  0  0  0  0  0  0  0
   58.7950   32.5280   49.7670 C   0  0  0  0  0  0  0  0  0  0  0  0
   59.6870   33.5840   50.4470 C   0  0  0  0  0  0  0  0  0  0  0  0
   61.1830   33.3690   50.1620 C   0  0  0  0  0  0  0  0  0  0  0  0
   61.7550   34.4080   49.1780 C   0  0  0  0  0  0  0  0  0  0  0  0
   62.6910   33.8020   48.1120 C   0  0  0  0  0  0  0  0  0  0  0  0
   62.1100   33.8120   46.6800 C   0  0  0  0  0  0  0  0  0  0  0  0
   60.8020   33.1330   46.5980 N   0  0  0  0  0  0  0  0  0  0  0  0
   59.6300   33.9300   46.3470 C   0  0  0  0  0  0  0  0  0  0  0  0
   59.7250   35.1490   46.0410 O   0  0  0  0  0  0  0  0  0  0  0  0
   58.3420   33.3490   46.4860 N   0  0  0  0  0  0  0  0  0  0  0  0
   58.1540   31.9050   46.4620 C   0  0  1  0  0  0  0  0  0  0  0  0
   57.6680   31.4940   45.1020 C   0  0  0  0  0  0  0  0  0  0  0  0
   58.0890   32.0160   43.8940 C   0  0  0  0  0  0  0  0  0  0  0  0
   57.3840   31.3320   42.9280 C   0  0  0  0  0  0  0  0  0  0  0  0
   56.5800   30.4360   43.6040 C   0  0  0  0  0  0  0  0  0  0  0  0
   56.7720   30.5560   44.8970 O   0  0  0  0  0  0  0  0  0  0  0  0
   59.4110   31.1250   46.8180 C   0  0  0  0  0  0  0  0  0  0  0  0
   59.2090   29.6670   47.0360 C   0  0  0  0  0  0  0  0  0  0  0  0
   58.3150   29.2770   47.8360 O   0  0  0  0  0  0  0  0  0  0  0  0
   59.9560   28.7300   46.3130 O   0  0  0  0  0  0  0  0  0  0  0  0
   60.0200   28.7310   44.8920 C   0  0  0  0  0  0  0  0  0  0  0  0
   60.6470   31.7070   46.8590 C   0  0  0  0  0  0  0  0  0  0  0  0
   61.8670   30.8410   47.1340 C   0  0  0  0  0  0  0  0  0  0  0  0
   59.9594   29.9057   51.4849 H   0  0  0  0  0  0  0  0  0  0  0  0
   59.2500   29.3406   49.9344 H   0  0  0  0  0  0  0  0  0  0  0  0
   60.4855   30.6446   49.9344 H   0  0  0  0  0  0  0  0  0  0  0  0
   57.5817   30.8132   50.2688 H   0  0  0  0  0  0  0  0  0  0  0  0
   58.4867   31.5707   51.6600 H   0  0  0  0  0  0  0  0  0  0  0  0
   59.2838   32.2205   48.8308 H   0  0  0  0  0  0  0  0  0  0  0  0
   57.8164   33.0061   49.6128 H   0  0  0  0  0  0  0  0  0  0  0  0
   59.3979   34.5792   50.0782 H   0  0  0  0  0  0  0  0  0  0  0  0
   59.5393   33.4943   51.5333 H   0  0  0  0  0  0  0  0  0  0  0  0
   61.7359   33.4403   51.1102 H   0  0  0  0  0  0  0  0  0  0  0  0
   61.2946   32.3768   49.7004 H   0  0  0  0  0  0  0  0  0  0  0  0
   60.9153   34.8990   48.6643 H   0  0  0  0  0  0  0  0  0  0  0  0
   62.3558   35.1146   49.7694 H   0  0  0  0  0  0  0  0  0  0  0  0
   63.6282   34.3779   48.1082 H   0  0  0  0  0  0  0  0  0  0  0  0
   62.8405   32.7470   48.3853 H   0  0  0  0  0  0  0  0  0  0  0  0
   61.9868   34.8560   46.3562 H   0  0  0  0  0  0  0  0  0  0  0  0
   62.8112   33.2681   46.0301 H   0  0  0  0  0  0  0  0  0  0  0  0
   57.5000   33.9640   46.4220 H   0  0  0  0  0  0  0  0  0  0  0  0
   57.4093   31.6631   47.2346 H   0  0  0  0  0  0  0  0  0  0  0  0
   58.8320   32.8117   43.7364 H   0  0  0  0  0  0  0  0  0  0  0  0
   57.4486   31.4715   41.8388 H   0  0  0  0  0  0  0  0  0  0  0  0
   55.8836   29.7283   43.1305 H   0  0  0  0  0  0  0  0  0  0  0  0
   61.0724   28.7475   44.5724 H   0  0  0  0  0  0  0  0  0  0  0  0
   59.5326   27.8251   44.5024 H   0  0  0  0  0  0  0  0  0  0  0  0
   59.5045   29.6212   44.5024 H   0  0  0  0  0  0  0  0  0  0  0  0
   62.0082   30.7408   48.2203 H   0  0  0  0  0  0  0  0  0  0  0  0
   61.7176   29.8456   46.6903 H   0  0  0  0  0  0  0  0  0  0  0  0
   62.7574   31.3104   46.6903 H   0  0  0  0  0  0  0  0  0  0  0  0
  1  2  1  0
  2  3  1  0
  3  4  1  0
  4  5  1  0
  5  6  1  0
  6  7  1  0
  7  8  1  0
  8  9  1  0
  9 10  1  0
 10 11  2  0
 10 12  1  0
 12 13  1  0
 13 14  1  0
 14 15  2  0
 15 16  1  0
 16 17  2  0
 17 18  1  0
 13 19  1  0
 19 20  1  0
 20 21  2  0
 20 22  1  0
 22 23  1  0
 19 24  2  0
 24 25  1  0
 24  9  1  0
 18 14  1  0
  1 26  1  0
  1 27  1  0
  1 28  1  0
  2 29  1  0
  2 30  1  0
  3 31  1  0
  3 32  1  0
  4 33  1  0
  4 34  1  0
  5 35  1  0
  5 36  1  0
  6 37  1  0
  6 38  1  0
  7 39  1  0
  7 40  1  0
  8 41  1  0
  8 42  1  0
 12 43  1  0
 13 44  1  1
 15 45  1  0
 16 46  1  0
 17 47  1  0
 23 48  1  0
 23 49  1  0
 23 50  1  0
 25 51  1  0
 25 52  1  0
 25 53  1  0
M  END
>  <UniqueID>  (50) 
47

>  <SMILES>  (50) 
CCCCCCCCN1C(=O)N[C@@H](c2ccco2)C(C(=O)OC)=C1C

>  <Energy>  (50) 
72.6372612750922

>  <Genealogy>  (50) 
CCCCCCCCN1C(=O)N[C@@H](c2ccco2)C(C(=O)OC)=C1C (chirality)
CCCCCCCCN1C(=O)N[C@@H](c2ccco2)C(C(=O)OC)=C1C (3D coordinates assigned)
CCCCCCCCN1C(=O)N[C@@H](c2ccco2)C(C(=O)OC)=C1C (nonaromatic ring conformer: 72.6372612750922 kcal/mol)

>  <smiles>  (50) 
CCCCCCCCN1C(=O)NC(c2ccco2)C(C(=O)OC)=C1C

>  <score_type>  (50) 
oracle

>  <origin>  (50) 
adg

>  <m_score__min__energy>  (50) 
-6.6699999999999999

>  <m_primary>  (50) 
energy

$$$$
