0:0
     RDKit          3D

 38 40  0  0  0  0  0  0  0  0999 V2000
   57.9728   32.0394   42.6873 H   0  0  0  0  0  0  0  0  0  0  0  0
   57.5640   31.3470   43.4380 C   0  0  0  0  0  0  0  0  0  0  0  0
   56.7690   29.9000   43.1170 S   0  0  0  0  0  0  0  0  0  0  0  0
   56.5320   29.5440   44.7440 C   0  0  0  0  0  0  0  0  0  0  0  0
   55.8920   28.5190   45.2250 N   0  0  0  0  0  0  0  0  0  0  0  0
   56.4570   27.2720   45.6530 C   0  0  0  0  0  0  0  0  0  0  0  0
   55.6930   26.4110   46.1640 O   0  0  0  0  0  0  0  0  0  0  0  0
   57.9470   27.0630   45.7220 C   0  0  0  0  0  0  0  0  0  0  0  0
   58.4487   27.9106   45.2323 H   0  0  0  0  0  0  0  0  0  0  0  0
   58.1839   26.1167   45.2137 H   0  0  0  0  0  0  0  0  0  0  0  0
   58.5360   26.9440   47.4510 S   0  0  0  0  0  0  0  0  0  0  0  0
   59.4930   28.4610   47.4030 C   0  0  0  0  0  0  0  0  0  0  0  0
   60.0090   28.9290   46.1900 C   0  0  0  0  0  0  0  0  0  0  0  0
   59.8304   28.3637   45.2634 H   0  0  0  0  0  0  0  0  0  0  0  0
   60.7510   30.1130   46.1520 C   0  0  0  0  0  0  0  0  0  0  0  0
   61.1576   30.4750   45.1961 H   0  0  0  0  0  0  0  0  0  0  0  0
   60.9790   30.8420   47.3310 C   0  0  0  0  0  0  0  0  0  0  0  0
   61.7990   32.0970   47.2970 C   0  0  0  0  0  0  0  0  0  0  0  0
   62.0124   32.4236   48.3255 H   0  0  0  0  0  0  0  0  0  0  0  0
   62.7450   31.9028   46.7703 H   0  0  0  0  0  0  0  0  0  0  0  0
   61.2412   32.8853   46.7703 H   0  0  0  0  0  0  0  0  0  0  0  0
   60.4870   30.3510   48.5510 C   0  0  0  0  0  0  0  0  0  0  0  0
   60.6869   30.9000   49.4830 H   0  0  0  0  0  0  0  0  0  0  0  0
   59.7440   29.1670   48.5860 C   0  0  0  0  0  0  0  0  0  0  0  0
   59.3563   28.7898   49.5438 H   0  0  0  0  0  0  0  0  0  0  0  0
   57.0290   30.5130   45.5380 N   0  0  0  0  0  0  0  0  0  0  0  0
   57.6150   31.5170   44.8260 C   0  0  0  0  0  0  0  0  0  0  0  0
   58.2270   32.6910   45.5000 C   0  0  0  0  0  0  0  0  0  0  0  0
   58.7160   33.7610   44.7300 C   0  0  0  0  0  0  0  0  0  0  0  0
   58.6449   33.7298   43.6327 H   0  0  0  0  0  0  0  0  0  0  0  0
   59.2920   34.8630   45.3640 C   0  0  0  0  0  0  0  0  0  0  0  0
   59.6797   35.7016   44.7670 H   0  0  0  0  0  0  0  0  0  0  0  0
   59.3750   34.8990   46.7530 C   0  0  0  0  0  0  0  0  0  0  0  0
   59.8298   35.7623   47.2607 H   0  0  0  0  0  0  0  0  0  0  0  0
   58.8750   33.8280   47.4940 C   0  0  0  0  0  0  0  0  0  0  0  0
   58.9328   33.8483   48.5923 H   0  0  0  0  0  0  0  0  0  0  0  0
   58.3160   32.7580   46.8650 N   0  0  0  0  0  0  0  0  0  0  0  0
   57.9380   31.9920   47.4640 H   0  0  0  0  0  0  0  0  0  0  0  0
  1  2  1  0
  2  3  1  0
  3  4  1  0
  4  5  2  0
  5  6  1  0
  6  7  2  0
  6  8  1  0
  8  9  1  0
  8 10  1  0
  8 11  1  0
 11 12  1  0
 12 13  2  0
 13 14  1  0
 13 15  1  0
 15 16  1  0
 15 17  2  0
 17 18  1  0
 18 19  1  0
 18 20  1  0
 18 21  1  0
 17 22  1  0
 22 23  1  0
 22 24  2  0
 24 25  1  0
  4 26  1  0
 26 27  1  0
 27 28  1  0
 28 29  2  0
 29 30  1  0
 29 31  1  0
 31 32  1  0
 31 33  2  0
 33 34  1  0
 33 35  1  0
 35 36  1  0
 35 37  2  0
 37 38  1  0
 27  2  2  0
 37 28  1  0
 24 12  1  0
M  CHG  2  26  -1  37   1
M  END
>  <UniqueID>  (1) 
1

>  <SMILES>  (1) 
Cc1ccc(SCC(=O)/N=c2/[n-]c(-c3cccc[nH+]3)cs2)cc1

>  <Energy>  (1) 
73.90754855735875

>  <Genealogy>  (1) 
Cc1ccc(SCC(=O)N=c2[n-]c(-c3cccc[nH+]3)cs2)cc1 (protonated)
Cc1ccc(SCC(=O)/N=c2/[n-]c(-c3cccc[nH+]3)cs2)cc1 (cis-trans isomerization)
Cc1ccc(SCC(=O)/N=c2/[n-]c(-c3cccc[nH+]3)cs2)cc1 (3D coordinates assigned)
Cc1ccc(SCC(=O)/N=c2/[n-]c(-c3cccc[nH+]3)cs2)cc1 (optimized conformer: 73.90754855735875 kcal/mol)

>  <smiles>  (1) 
Cc1ccc(SCC(=O)N=c2[nH]c(-c3ccccn3)cs2)cc1

>  <score_type>  (1) 
oracle

>  <origin>  (1) 
adg

>  <m_score__min__energy>  (1) 
-8.3399999999999999

>  <m_primary>  (1) 
energy

$$$$
1:0
     RDKit          3D

 42 42  0  0  0  0  0  0  0  0999 V2000
   57.7240   28.4720   43.7620 C   0  0  0  0  0  0  0  0  0  0  0  0
   56.6510   29.3380   43.1080 C   0  0  0  0  0  0  0  0  0  0  0  0
   56.5830   30.7570   43.6950 C   0  0  0  0  0  0  0  0  0  0  0  0
   57.9250   31.5100   43.6400 C   0  0  0  0  0  0  0  0  0  0  0  0
   58.2580   32.1220   44.9470 N   0  0  0  0  0  0  0  0  0  0  0  0
   58.1500   31.1580   46.0690 C   0  0  0  0  0  0  0  0  0  0  0  0
   59.4090   30.3030   46.2840 C   0  0  0  0  0  0  0  0  0  0  0  0
   57.5300   33.3910   45.2020 C   0  0  0  0  0  0  0  0  0  0  0  0
   58.4650   34.5910   45.0170 C   0  0  0  0  0  0  0  0  0  0  0  0
   59.5700   34.5910   46.0320 C   0  0  0  0  0  0  0  0  0  0  0  0
   59.6430   35.5390   46.8600 O   0  0  0  0  0  0  0  0  0  0  0  0
   60.4740   33.4770   46.1110 N   0  0  0  0  0  0  0  0  0  0  0  0
   61.5810   33.4040   47.0230 C   0  0  0  0  0  0  0  0  0  0  0  0
   62.9100   33.5300   46.5790 C   0  0  0  0  0  0  0  0  0  0  0  0
   63.9690   33.4320   47.4860 C   0  0  0  0  0  0  0  0  0  0  0  0
   63.7140   33.1940   48.8400 C   0  0  0  0  0  0  0  0  0  0  0  0
   65.1630   33.0600   50.0770 Br  0  0  0  0  0  0  0  0  0  0  0  0
   62.3980   33.0460   49.2860 C   0  0  0  0  0  0  0  0  0  0  0  0
   61.3360   33.1430   48.3800 C   0  0  0  0  0  0  0  0  0  0  0  0
   57.6359   28.5431   44.8562 H   0  0  0  0  0  0  0  0  0  0  0  0
   57.5906   27.4255   43.4506 H   0  0  0  0  0  0  0  0  0  0  0  0
   58.7188   28.8233   43.4506 H   0  0  0  0  0  0  0  0  0  0  0  0
   56.8694   29.4138   42.0326 H   0  0  0  0  0  0  0  0  0  0  0  0
   55.6800   28.8571   43.2974 H   0  0  0  0  0  0  0  0  0  0  0  0
   55.8372   31.3330   43.1276 H   0  0  0  0  0  0  0  0  0  0  0  0
   56.3127   30.6552   44.7564 H   0  0  0  0  0  0  0  0  0  0  0  0
   58.7207   30.8026   43.3635 H   0  0  0  0  0  0  0  0  0  0  0  0
   57.8393   32.3141   42.8942 H   0  0  0  0  0  0  0  0  0  0  0  0
   57.9540   31.7229   46.9923 H   0  0  0  0  0  0  0  0  0  0  0  0
   57.3349   30.4646   45.8146 H   0  0  0  0  0  0  0  0  0  0  0  0
   59.5893   30.1805   47.3622 H   0  0  0  0  0  0  0  0  0  0  0  0
   59.2648   29.3153   45.8218 H   0  0  0  0  0  0  0  0  0  0  0  0
   60.2739   30.8013   45.8218 H   0  0  0  0  0  0  0  0  0  0  0  0
   56.6897   33.4745   44.4971 H   0  0  0  0  0  0  0  0  0  0  0  0
   57.1570   33.3861   46.2368 H   0  0  0  0  0  0  0  0  0  0  0  0
   58.9053   34.5487   44.0098 H   0  0  0  0  0  0  0  0  0  0  0  0
   57.8757   35.5103   45.1495 H   0  0  0  0  0  0  0  0  0  0  0  0
   60.2390   32.6210   45.5630 H   0  0  0  0  0  0  0  0  0  0  0  0
   63.1167   33.7065   45.5131 H   0  0  0  0  0  0  0  0  0  0  0  0
   65.0052   33.5424   47.1338 H   0  0  0  0  0  0  0  0  0  0  0  0
   62.1967   32.8531   50.3501 H   0  0  0  0  0  0  0  0  0  0  0  0
   60.3025   33.0138   48.7337 H   0  0  0  0  0  0  0  0  0  0  0  0
  1  2  1  0
  2  3  1  0
  3  4  1  0
  4  5  1  0
  5  6  1  0
  6  7  1  0
  5  8  1  0
  8  9  1  0
  9 10  1  0
 10 11  2  0
 10 12  1  0
 12 13  1  0
 13 14  2  0
 14 15  1  0
 15 16  2  0
 16 17  1  0
 16 18  1  0
 18 19  2  0
 19 13  1  0
  1 20  1  0
  1 21  1  0
  1 22  1  0
  2 23  1  0
  2 24  1  0
  3 25  1  0
  3 26  1  0
  4 27  1  0
  4 28  1  0
  6 29  1  0
  6 30  1  0
  7 31  1  0
  7 32  1  0
  7 33  1  0
  8 34  1  0
  8 35  1  0
  9 36  1  0
  9 37  1  0
 12 38  1  0
 14 39  1  0
 15 40  1  0
 18 41  1  0
 19 42  1  0
M  END
>  <UniqueID>  (2) 
2

>  <SMILES>  (2) 
CCCCN(CC)CCC(=O)Nc1ccc(Br)cc1

>  <Energy>  (2) 
37.45000209185541

>  <Genealogy>  (2) 
CCCCN(CC)CCC(=O)Nc1ccc(Br)cc1 (3D coordinates assigned)
CCCCN(CC)CCC(=O)Nc1ccc(Br)cc1 (optimized conformer: 37.45000209185541 kcal/mol)

>  <smiles>  (2) 
CCCCN(CC)CCC(=O)Nc1ccc(Br)cc1

>  <score_type>  (2) 
oracle

>  <origin>  (2) 
adg

>  <m_score__min__energy>  (2) 
-6.6799999999999997

>  <m_primary>  (2) 
energy

$$$$
2:0
     RDKit          3D

 59 61  0  0  0  0  0  0  0  0999 V2000
   54.2620   24.9060   45.6730 C   0  0  0  0  0  0  0  0  0  0  0  0
   55.3880   25.7660   46.0430 N   0  0  0  0  0  0  0  0  0  0  0  0
   56.6440   25.0070   46.1900 C   0  0  0  0  0  0  0  0  0  0  0  0
   57.4790   24.9410   44.8900 C   0  0  0  0  0  0  0  0  0  0  0  0
   57.3470   26.1500   44.0460 N   0  0  0  0  0  0  0  0  0  0  0  0
   58.5560   26.9960   44.0390 C   0  0  0  0  0  0  0  0  0  0  0  0
   58.2650   28.4060   44.5020 C   0  0  0  0  0  0  0  0  0  0  0  0
   57.0180   28.9870   44.2440 C   0  0  0  0  0  0  0  0  0  0  0  0
   56.7370   30.2820   44.6830 C   0  0  0  0  0  0  0  0  0  0  0  0
   57.7010   31.0220   45.3930 C   0  0  0  0  0  0  0  0  0  0  0  0
   57.4320   32.3140   45.8760 O   0  0  0  0  0  0  0  0  0  0  0  0
   57.2620   33.4660   45.0560 C   0  0  0  0  0  0  0  0  0  0  0  0
   58.9660   30.4460   45.6430 C   0  0  0  0  0  0  0  0  0  0  0  0
   60.0160   31.1920   46.3790 C   0  0  0  0  0  0  0  0  0  0  0  0
   60.0390   32.5970   46.3470 C   0  0  0  0  0  0  0  0  0  0  0  0
   61.0160   33.3030   47.0520 C   0  0  0  0  0  0  0  0  0  0  0  0
   61.9720   32.6190   47.8140 C   0  0  0  0  0  0  0  0  0  0  0  0
   63.2100   33.5120   48.6950 S   0  0  0  0  0  0  0  0  0  0  0  0
   63.7940   34.5560   47.7850 O   0  0  0  0  0  0  0  0  0  0  0  0
   64.3170   32.5650   49.0700 O   0  0  0  0  0  0  0  0  0  0  0  0
   62.6050   34.2870   50.1440 N   0  0  0  0  0  0  0  0  0  0  0  0
   63.5790   34.3060   51.2530 C   0  0  0  0  0  0  0  0  0  0  0  0
   63.4470   33.0890   52.1780 C   0  0  0  0  0  0  0  0  0  0  0  0
   62.1170   32.9400   52.6220 O   0  0  0  0  0  0  0  0  0  0  0  0
   61.2920   32.6500   51.5160 C   0  0  0  0  0  0  0  0  0  0  0  0
   61.2570   33.8330   50.5370 C   0  0  0  0  0  0  0  0  0  0  0  0
   61.9590   31.2170   47.8390 C   0  0  0  0  0  0  0  0  0  0  0  0
   60.9830   30.5090   47.1340 C   0  0  0  0  0  0  0  0  0  0  0  0
   59.2340   29.1400   45.2000 C   0  0  0  0  0  0  0  0  0  0  0  0
   53.7718   24.5316   46.5838 H   0  0  0  0  0  0  0  0  0  0  0  0
   53.5390   25.4840   45.0786 H   0  0  0  0  0  0  0  0  0  0  0  0
   54.6293   24.0564   45.0786 H   0  0  0  0  0  0  0  0  0  0  0  0
   55.1540   26.2920   46.9150 H   0  0  0  0  0  0  0  0  0  0  0  0
   57.2521   25.4874   46.9707 H   0  0  0  0  0  0  0  0  0  0  0  0
   56.3700   23.9744   46.4520 H   0  0  0  0  0  0  0  0  0  0  0  0
   58.5380   24.8188   45.1613 H   0  0  0  0  0  0  0  0  0  0  0  0
   57.1002   24.0914   44.3028 H   0  0  0  0  0  0  0  0  0  0  0  0
   57.1150   25.8880   43.0600 H   0  0  0  0  0  0  0  0  0  0  0  0
   56.5390   26.7200   44.3910 H   0  0  0  0  0  0  0  0  0  0  0  0
   59.3053   26.5498   44.7095 H   0  0  0  0  0  0  0  0  0  0  0  0
   58.9274   27.0484   43.0049 H   0  0  0  0  0  0  0  0  0  0  0  0
   56.2545   28.4195   43.6917 H   0  0  0  0  0  0  0  0  0  0  0  0
   55.7538   30.7279   44.4722 H   0  0  0  0  0  0  0  0  0  0  0  0
   57.1311   34.3533   45.6928 H   0  0  0  0  0  0  0  0  0  0  0  0
   58.1503   33.5983   44.4209 H   0  0  0  0  0  0  0  0  0  0  0  0
   56.3733   33.3361   44.4209 H   0  0  0  0  0  0  0  0  0  0  0  0
   59.2834   33.1434   45.7635 H   0  0  0  0  0  0  0  0  0  0  0  0
   61.0350   34.4020   47.0088 H   0  0  0  0  0  0  0  0  0  0  0  0
   64.5942   34.3177   50.8296 H   0  0  0  0  0  0  0  0  0  0  0  0
   63.3791   35.2044   51.8554 H   0  0  0  0  0  0  0  0  0  0  0  0
   63.7475   32.1844   51.6290 H   0  0  0  0  0  0  0  0  0  0  0  0
   64.0964   33.2390   53.0531 H   0  0  0  0  0  0  0  0  0  0  0  0
   61.6839   31.7632   50.9963 H   0  0  0  0  0  0  0  0  0  0  0  0
   60.2705   32.4613   51.8778 H   0  0  0  0  0  0  0  0  0  0  0  0
   60.7117   33.5253   49.6326 H   0  0  0  0  0  0  0  0  0  0  0  0
   60.7594   34.6713   51.0465 H   0  0  0  0  0  0  0  0  0  0  0  0
   62.7207   30.6725   48.4163 H   0  0  0  0  0  0  0  0  0  0  0  0
   60.9718   29.4097   47.1705 H   0  0  0  0  0  0  0  0  0  0  0  0
   60.2160   28.6880   45.4033 H   0  0  0  0  0  0  0  0  0  0  0  0
  1  2  1  0
  2  3  1  0
  3  4  1  0
  4  5  1  0
  5  6  1  0
  6  7  1  0
  7  8  2  0
  8  9  1  0
  9 10  2  0
 10 11  1  0
 11 12  1  0
 10 13  1  0
 13 14  1  0
 14 15  2  0
 15 16  1  0
 16 17  2  0
 17 18  1  0
 18 19  2  0
 18 20  2  0
 18 21  1  0
 21 22  1  0
 22 23  1  0
 23 24  1  0
 24 25  1  0
 25 26  1  0
 17 27  1  0
 27 28  2  0
 13 29  2  0
 29  7  1  0
 28 14  1  0
 26 21  1  0
  1 30  1  0
  1 31  1  0
  1 32  1  0
  2 33  1  0
  3 34  1  0
  3 35  1  0
  4 36  1  0
  4 37  1  0
  5 38  1  0
  5 39  1  0
  6 40  1  0
  6 41  1  0
  8 42  1  0
  9 43  1  0
 12 44  1  0
 12 45  1  0
 12 46  1  0
 15 47  1  0
 16 48  1  0
 22 49  1  0
 22 50  1  0
 23 51  1  0
 23 52  1  0
 25 53  1  0
 25 54  1  0
 26 55  1  0
 26 56  1  0
 27 57  1  0
 28 58  1  0
 29 59  1  0
M  CHG  1   5   1
M  END
>  <UniqueID>  (3) 
3

>  <SMILES>  (3) 
CNCC[NH2+]Cc1ccc(OC)c(-c2ccc(S(=O)(=O)N3CCOCC3)cc2)c1

>  <Energy>  (3) 
73.7009331956556

>  <Genealogy>  (3) 
CNCC[NH2+]Cc1ccc(OC)c(-c2ccc(S(=O)(=O)N3CCOCC3)cc2)c1 (protonated)
CNCC[NH2+]Cc1ccc(OC)c(-c2ccc(S(=O)(=O)N3CCOCC3)cc2)c1 (3D coordinates assigned)
CNCC[NH2+]Cc1ccc(OC)c(-c2ccc(S(=O)(=O)N3CCOCC3)cc2)c1 (nonaromatic ring conformer: 73.7009331956556 kcal/mol)

>  <smiles>  (3) 
CNCCNCc1ccc(OC)c(-c2ccc(S(=O)(=O)N3CCOCC3)cc2)c1

>  <score_type>  (3) 
oracle

>  <origin>  (3) 
adg

>  <m_score__min__energy>  (3) 
-7.1299999999999999

>  <m_primary>  (3) 
energy

$$$$
3:0
     RDKit          3D

 43 46  0  0  1  0  0  0  0  0999 V2000
   60.7620   27.1610   48.8270 C   0  0  0  0  0  0  0  0  0  0  0  0
   59.8280   27.9760   48.0730 N   0  0  0  0  0  0  0  0  0  0  0  0
   59.6850   29.2720   48.1230 N   0  0  0  0  0  0  0  0  0  0  0  0
   58.7070   29.7090   47.2710 C   0  0  0  0  0  0  0  0  0  0  0  0
   58.2370   28.5860   46.6760 C   0  0  0  0  0  0  0  0  0  0  0  0
   57.2750   28.3770   45.7490 C   0  0  0  0  0  0  0  0  0  0  0  0
   56.6100   29.3080   45.2620 N   0  0  0  0  0  0  0  0  0  0  0  0
   57.0140   30.2900   44.3530 C   0  0  0  0  0  0  0  0  0  0  0  0
   57.6970   31.4060   44.8610 C   0  0  0  0  0  0  0  0  0  0  0  0
   58.0900   32.4440   44.0400 C   0  0  0  0  0  0  0  0  0  0  0  0
   57.7870   32.3470   42.6930 C   0  0  0  0  0  0  0  0  0  0  0  0
   57.1160   31.2590   42.1720 C   0  0  0  0  0  0  0  0  0  0  0  0
   56.7150   30.2090   42.9830 C   0  0  0  0  0  0  0  0  0  0  0  0
   57.0230   27.1050   45.3330 N   0  0  0  0  0  0  0  0  0  0  0  0
   57.6940   26.0450   45.8100 C   0  0  0  0  0  0  0  0  0  0  0  0
   57.4550   24.7070   45.3980 N   0  0  0  0  0  0  0  0  0  0  0  0
   58.3330   23.6020   45.6530 C   0  0  0  0  0  0  0  0  0  0  0  0
   58.4730   22.6390   44.4980 C   0  0  0  0  0  0  0  0  0  0  0  0
   57.2370   22.4440   43.6920 C   0  0  0  0  0  0  0  0  0  0  0  0
   56.6540   23.8170   43.3340 C   0  0  0  0  0  0  0  0  0  0  0  0
   56.2230   24.4120   44.6580 C   0  0  0  0  0  0  0  0  0  0  0  0
   58.6450   26.3030   46.7330 N   0  0  0  0  0  0  0  0  0  0  0  0
   58.9330   27.5320   47.1760 C   0  0  0  0  0  0  0  0  0  0  0  0
   60.5919   27.3094   49.9036 H   0  0  0  0  0  0  0  0  0  0  0  0
   60.6106   26.1011   48.5745 H   0  0  0  0  0  0  0  0  0  0  0  0
   61.7916   27.4546   48.5745 H   0  0  0  0  0  0  0  0  0  0  0  0
   58.3753   30.7447   47.1056 H   0  0  0  0  0  0  0  0  0  0  0  0
   57.9240   31.4546   45.9362 H   0  0  0  0  0  0  0  0  0  0  0  0
   58.6249   33.3171   44.4421 H   0  0  0  0  0  0  0  0  0  0  0  0
   58.0898   33.1609   42.0178 H   0  0  0  0  0  0  0  0  0  0  0  0
   56.8958   31.2247   41.0948 H   0  0  0  0  0  0  0  0  0  0  0  0
   56.1807   29.3417   42.5678 H   0  0  0  0  0  0  0  0  0  0  0  0
   56.2820   26.9600   44.6220 H   0  0  0  0  0  0  0  0  0  0  0  0
   59.3298   24.0019   45.8906 H   0  0  0  0  0  0  0  0  0  0  0  0
   57.8904   23.0339   46.4845 H   0  0  0  0  0  0  0  0  0  0  0  0
   59.2603   23.0185   43.8301 H   0  0  0  0  0  0  0  0  0  0  0  0
   58.7114   21.6601   44.9394 H   0  0  0  0  0  0  0  0  0  0  0  0
   57.4802   21.8947   42.7705 H   0  0  0  0  0  0  0  0  0  0  0  0
   56.5016   21.8671   44.2720 H   0  0  0  0  0  0  0  0  0  0  0  0
   57.4166   24.4488   42.8553 H   0  0  0  0  0  0  0  0  0  0  0  0
   55.8190   23.7405   42.6220 H   0  0  0  0  0  0  0  0  0  0  0  0
   55.6485   25.3352   44.4916 H   0  0  0  0  0  0  0  0  0  0  0  0
   55.5777   23.7182   45.2167 H   0  0  0  0  0  0  0  0  0  0  0  0
  1  2  1  0
  2  3  1  0
  3  4  2  0
  4  5  1  0
  5  6  1  0
  6  7  2  0
  7  8  1  0
  8  9  2  0
  9 10  1  0
 10 11  2  0
 11 12  1  0
 12 13  2  0
  6 14  1  0
 14 15  1  0
 15 16  1  0
 16 17  1  0
 17 18  1  0
 18 19  1  0
 19 20  1  0
 20 21  1  0
 15 22  2  0
 22 23  1  0
 23  2  1  0
 23  5  2  0
 13  8  1  0
 21 16  1  0
  1 24  1  0
  1 25  1  0
  1 26  1  0
  4 27  1  0
  9 28  1  0
 10 29  1  0
 11 30  1  0
 12 31  1  0
 13 32  1  0
 14 33  1  0
 17 34  1  0
 17 35  1  0
 18 36  1  0
 18 37  1  0
 19 38  1  0
 19 39  1  0
 20 40  1  0
 20 41  1  0
 21 42  1  0
 21 43  1  0
M  END
>  <smiles>  (4) 
Cn1ncc2c(=Nc3ccccc3)[nH]c(N3CCCCC3)nc21

>  <score_type>  (4) 
oracle

>  <origin>  (4) 
adg

>  <m_score__min__energy>  (4) 
-7.4000000000000004

>  <m_primary>  (4) 
energy

$$$$
4:0
     RDKit          3D

 32 33  0  0  0  0  0  0  0  0999 V2000
   56.9620   30.3210   43.9860 C   0  0  0  0  0  0  0  0  0  0  0  0
   57.1680   30.9640   45.2400 O   0  0  0  0  0  0  0  0  0  0  0  0
   57.8650   32.1690   45.4080 C   0  0  0  0  0  0  0  0  0  0  0  0
   57.4180   33.3820   44.8510 C   0  0  0  0  0  0  0  0  0  0  0  0
   58.1470   34.5570   45.0500 C   0  0  0  0  0  0  0  0  0  0  0  0
   59.3240   34.5350   45.8000 C   0  0  0  0  0  0  0  0  0  0  0  0
   59.7910   33.3320   46.3590 C   0  0  0  0  0  0  0  0  0  0  0  0
   61.0640   33.2950   47.1880 C   0  0  0  0  0  0  0  0  0  0  0  0
   61.3450   31.8880   47.7760 C   0  0  0  0  0  0  0  0  0  0  0  0
   62.5660   31.2170   47.1270 C   0  0  0  0  0  0  0  0  0  0  0  0
   63.7840   32.0420   47.2540 N   0  0  0  0  0  0  0  0  0  0  0  0
   63.5750   33.5000   47.0880 C   0  0  0  0  0  0  0  0  0  0  0  0
   62.2580   33.8410   46.3780 C   0  0  0  0  0  0  0  0  0  0  0  0
   59.0470   32.1550   46.1590 C   0  0  0  0  0  0  0  0  0  0  0  0
   56.6304   29.2859   44.1548 H   0  0  0  0  0  0  0  0  0  0  0  0
   56.1929   30.8643   43.4173 H   0  0  0  0  0  0  0  0  0  0  0  0
   57.9036   30.3162   43.4173 H   0  0  0  0  0  0  0  0  0  0  0  0
   56.4922   33.4048   44.2574 H   0  0  0  0  0  0  0  0  0  0  0  0
   57.7923   35.5026   44.6142 H   0  0  0  0  0  0  0  0  0  0  0  0
   59.8903   35.4652   45.9549 H   0  0  0  0  0  0  0  0  0  0  0  0
   60.9169   33.9575   48.0537 H   0  0  0  0  0  0  0  0  0  0  0  0
   61.5281   31.9863   48.8562 H   0  0  0  0  0  0  0  0  0  0  0  0
   60.4671   31.2572   47.5727 H   0  0  0  0  0  0  0  0  0  0  0  0
   62.7409   30.2479   47.6172 H   0  0  0  0  0  0  0  0  0  0  0  0
   62.3532   31.0886   46.0555 H   0  0  0  0  0  0  0  0  0  0  0  0
   64.2090   31.8690   48.1950 H   0  0  0  0  0  0  0  0  0  0  0  0
   64.4750   31.7140   46.5390 H   0  0  0  0  0  0  0  0  0  0  0  0
   63.5680   33.9685   48.0832 H   0  0  0  0  0  0  0  0  0  0  0  0
   64.3946   33.8801   46.4604 H   0  0  0  0  0  0  0  0  0  0  0  0
   62.1663   34.9333   46.2857 H   0  0  0  0  0  0  0  0  0  0  0  0
   62.2570   33.3803   45.3791 H   0  0  0  0  0  0  0  0  0  0  0  0
   59.3987   31.2101   46.5988 H   0  0  0  0  0  0  0  0  0  0  0  0
  1  2  1  0
  2  3  1  0
  3  4  2  0
  4  5  1  0
  5  6  2  0
  6  7  1  0
  7  8  1  0
  8  9  1  0
  9 10  1  0
 10 11  1  0
 11 12  1  0
 12 13  1  0
  7 14  2  0
 14  3  1  0
 13  8  1  0
  1 15  1  0
  1 16  1  0
  1 17  1  0
  4 18  1  0
  5 19  1  0
  6 20  1  0
  8 21  1  0
  9 22  1  0
  9 23  1  0
 10 24  1  0
 10 25  1  0
 11 26  1  0
 11 27  1  0
 12 28  1  0
 12 29  1  0
 13 30  1  0
 13 31  1  0
 14 32  1  0
M  CHG  1  11   1
M  END
>  <UniqueID>  (5) 
4

>  <SMILES>  (5) 
COc1cccc(C2CC[NH2+]CC2)c1

>  <Energy>  (5) 
37.457838271224624

>  <Genealogy>  (5) 
COc1cccc(C2CC[NH2+]CC2)c1 (protonated)
COc1cccc(C2CC[NH2+]CC2)c1 (3D coordinates assigned)
COc1cccc(C2CC[NH2+]CC2)c1 (nonaromatic ring conformer: 37.457838271224624 kcal/mol)

>  <smiles>  (5) 
COc1cccc(C2CCNCC2)c1

>  <score_type>  (5) 
oracle

>  <origin>  (5) 
adg

>  <m_score__min__energy>  (5) 
-5.1500000000000004

>  <m_primary>  (5) 
energy

$$$$
5:0
     RDKit          3D

 40 41  0  0  0  0  0  0  0  0999 V2000
   56.2294   31.1110   41.5807 H   0  0  0  0  0  0  0  0  0  0  0  0
   56.6430   30.8020   42.5520 C   0  0  0  0  0  0  0  0  0  0  0  0
   57.7700   31.4450   43.0650 C   0  0  0  0  0  0  0  0  0  0  0  0
   58.2432   32.2606   42.4985 H   0  0  0  0  0  0  0  0  0  0  0  0
   58.2970   31.0540   44.2960 C   0  0  0  0  0  0  0  0  0  0  0  0
   59.1824   31.5679   44.6984 H   0  0  0  0  0  0  0  0  0  0  0  0
   57.7060   30.0090   45.0260 C   0  0  0  0  0  0  0  0  0  0  0  0
   58.3060   29.6150   46.3560 C   0  0  0  0  0  0  0  0  0  0  0  0
   57.6028   28.9561   46.8865 H   0  0  0  0  0  0  0  0  0  0  0  0
   59.2573   29.0949   46.1702 H   0  0  0  0  0  0  0  0  0  0  0  0
   58.5710   30.7830   47.1750 N   0  0  0  0  0  0  0  0  0  0  0  0
   59.5270   31.6390   46.9960 C   0  0  0  0  0  0  0  0  0  0  0  0
   60.9840   31.2770   47.2330 C   0  0  0  0  0  0  0  0  0  0  0  0
   61.0708   30.8497   48.2429 H   0  0  0  0  0  0  0  0  0  0  0  0
   61.2613   30.5693   46.4379 H   0  0  0  0  0  0  0  0  0  0  0  0
   61.9470   32.4340   47.1280 C   0  0  0  0  0  0  0  0  0  0  0  0
   63.1310   32.2270   47.3410 O   0  0  0  0  0  0  0  0  0  0  0  0
   61.5210   33.8220   46.7170 C   0  0  0  0  0  0  0  0  0  0  0  0
   62.1479   34.5525   47.2493 H   0  0  0  0  0  0  0  0  0  0  0  0
   61.6422   33.8925   45.6260 H   0  0  0  0  0  0  0  0  0  0  0  0
   60.0390   34.1210   47.0360 C   0  0  0  0  0  0  0  0  0  0  0  0
   59.8270   34.2530   48.5630 C   0  0  0  0  0  0  0  0  0  0  0  0
   60.6456   33.7433   49.0922 H   0  0  0  0  0  0  0  0  0  0  0  0
   59.8171   35.3172   48.8412 H   0  0  0  0  0  0  0  0  0  0  0  0
   58.8676   33.7923   48.8412 H   0  0  0  0  0  0  0  0  0  0  0  0
   59.6460   35.4570   46.3730 C   0  0  0  0  0  0  0  0  0  0  0  0
   59.4268   36.2023   47.1518 H   0  0  0  0  0  0  0  0  0  0  0  0
   60.4771   35.8142   45.7472 H   0  0  0  0  0  0  0  0  0  0  0  0
   58.7538   35.3073   45.7472 H   0  0  0  0  0  0  0  0  0  0  0  0
   59.1550   32.9950   46.4570 C   0  0  0  0  0  0  0  0  0  0  0  0
   58.1057   33.2018   46.7144 H   0  0  0  0  0  0  0  0  0  0  0  0
   59.3064   32.9761   45.3676 H   0  0  0  0  0  0  0  0  0  0  0  0
   56.5600   29.3600   44.5140 C   0  0  0  0  0  0  0  0  0  0  0  0
   55.9710   28.3220   45.2550 O   0  0  0  0  0  0  0  0  0  0  0  0
   56.6350   27.1210   45.6350 C   0  0  0  0  0  0  0  0  0  0  0  0
   56.6721   27.0540   46.7323 H   0  0  0  0  0  0  0  0  0  0  0  0
   56.0869   26.2561   45.2331 H   0  0  0  0  0  0  0  0  0  0  0  0
   57.6589   27.1252   45.2331 H   0  0  0  0  0  0  0  0  0  0  0  0
   56.0390   29.7670   43.2690 C   0  0  0  0  0  0  0  0  0  0  0  0
   55.1499   29.2655   42.8591 H   0  0  0  0  0  0  0  0  0  0  0  0
  1  2  1  0
  2  3  2  0
  3  4  1  0
  3  5  1  0
  5  6  1  0
  5  7  2  0
  7  8  1  0
  8  9  1  0
  8 10  1  0
  8 11  1  0
 11 12  2  0
 12 13  1  0
 13 14  1  0
 13 15  1  0
 13 16  1  0
 16 17  2  0
 16 18  1  0
 18 19  1  0
 18 20  1  0
 18 21  1  0
 21 22  1  0
 22 23  1  0
 22 24  1  0
 22 25  1  0
 21 26  1  0
 26 27  1  0
 26 28  1  0
 26 29  1  0
 21 30  1  0
 30 31  1  0
 30 32  1  0
  7 33  1  0
 33 34  1  0
 34 35  1  0
 35 36  1  0
 35 37  1  0
 35 38  1  0
 33 39  2  0
 39 40  1  0
 39  2  1  0
 30 12  1  0
M  END
>  <UniqueID>  (6) 
5

>  <SMILES>  (6) 
COc1ccccc1C/N=C1\CC(=O)CC(C)(C)C1

>  <Energy>  (6) 
36.176676341411635

>  <Genealogy>  (6) 
COc1ccccc1C/N=C1\CC(=O)CC(C)(C)C1 (cis-trans isomerization)
COc1ccccc1C/N=C1\CC(=O)CC(C)(C)C1 (3D coordinates assigned)
COc1ccccc1C/N=C1\CC(=O)CC(C)(C)C1 (nonaromatic ring conformer: 36.176676341411635 kcal/mol)

>  <smiles>  (6) 
COc1ccccc1CN=C1CC(=O)CC(C)(C)C1

>  <score_type>  (6) 
oracle

>  <origin>  (6) 
adg

>  <m_score__min__energy>  (6) 
-7.9100000000000001

>  <m_primary>  (6) 
energy

$$$$
6:0
     RDKit          3D

 35 37  0  0  0  0  0  0  0  0999 V2000
   63.3640   33.8450   46.6760 C   0  0  0  0  0  0  0  0  0  0  0  0
   62.2990   32.9120   47.1590 C   0  0  0  0  0  0  0  0  0  0  0  0
   62.5240   31.6000   47.3890 N   0  0  0  0  0  0  0  0  0  0  0  0
   61.3330   31.1290   47.8100 C   0  0  0  0  0  0  0  0  0  0  0  0
   60.4110   32.1510   47.8310 C   0  0  0  0  0  0  0  0  0  0  0  0
   61.0260   33.2750   47.4270 N   0  0  0  0  0  0  0  0  0  0  0  0
   60.3980   34.5870   47.2470 C   0  0  0  0  0  0  0  0  0  0  0  0
   59.4460   34.5810   46.0440 C   0  0  0  0  0  0  0  0  0  0  0  0
   58.1350   34.0220   46.4040 N   0  0  0  0  0  0  0  0  0  0  0  0
   57.4020   33.5540   45.2230 C   0  0  0  0  0  0  0  0  0  0  0  0
   57.3540   32.0620   45.2310 C   0  0  0  0  0  0  0  0  0  0  0  0
   58.3250   31.2830   45.7440 N   0  0  0  0  0  0  0  0  0  0  0  0
   57.8370   30.0510   45.4870 C   0  0  0  0  0  0  0  0  0  0  0  0
   58.5340   28.8070   45.8500 C   0  0  0  0  0  0  0  0  0  0  0  0
   59.9130   28.6150   45.6680 C   0  0  0  0  0  0  0  0  0  0  0  0
   60.3580   27.3640   46.0750 C   0  0  0  0  0  0  0  0  0  0  0  0
   59.0380   26.5050   46.6590 S   0  0  0  0  0  0  0  0  0  0  0  0
   57.8890   27.7040   46.4030 C   0  0  0  0  0  0  0  0  0  0  0  0
   56.6480   30.0880   44.8540 N   0  0  0  0  0  0  0  0  0  0  0  0
   56.3840   31.3500   44.7120 O   0  0  0  0  0  0  0  0  0  0  0  0
   63.8769   34.2943   47.5392 H   0  0  0  0  0  0  0  0  0  0  0  0
   64.0909   33.2878   46.0668 H   0  0  0  0  0  0  0  0  0  0  0  0
   62.9073   34.6389   46.0668 H   0  0  0  0  0  0  0  0  0  0  0  0
   61.1289   30.0860   48.0938 H   0  0  0  0  0  0  0  0  0  0  0  0
   59.3552   32.0628   48.1269 H   0  0  0  0  0  0  0  0  0  0  0  0
   59.8298   34.8412   48.1540 H   0  0  0  0  0  0  0  0  0  0  0  0
   61.1874   35.3312   47.0652 H   0  0  0  0  0  0  0  0  0  0  0  0
   59.3103   35.6133   45.6891 H   0  0  0  0  0  0  0  0  0  0  0  0
   59.8866   33.9535   45.2553 H   0  0  0  0  0  0  0  0  0  0  0  0
   58.3010   33.1920   47.0210 H   0  0  0  0  0  0  0  0  0  0  0  0
   56.3778   33.9547   45.2437 H   0  0  0  0  0  0  0  0  0  0  0  0
   57.9112   33.9013   44.3119 H   0  0  0  0  0  0  0  0  0  0  0  0
   60.5773   29.3822   45.2436 H   0  0  0  0  0  0  0  0  0  0  0  0
   61.3945   26.9992   46.0238 H   0  0  0  0  0  0  0  0  0  0  0  0
   56.8156   27.6304   46.6321 H   0  0  0  0  0  0  0  0  0  0  0  0
  1  2  1  0
  2  3  2  0
  3  4  1  0
  4  5  2  0
  5  6  1  0
  6  7  1  0
  7  8  1  0
  8  9  1  0
  9 10  1  0
 10 11  1  0
 11 12  2  0
 12 13  1  0
 13 14  1  0
 14 15  1  0
 15 16  2  0
 16 17  1  0
 17 18  1  0
 13 19  2  0
 19 20  1  0
  6  2  1  0
 20 11  1  0
 18 14  2  0
  1 21  1  0
  1 22  1  0
  1 23  1  0
  4 24  1  0
  5 25  1  0
  7 26  1  0
  7 27  1  0
  8 28  1  0
  8 29  1  0
  9 30  1  0
 10 31  1  0
 10 32  1  0
 15 33  1  0
 16 34  1  0
 18 35  1  0
M  END
>  <UniqueID>  (7) 
6

>  <SMILES>  (7) 
Cc1nccn1CCNCc1nc(-c2ccsc2)no1

>  <Energy>  (7) 
117.81591603614281

>  <Genealogy>  (7) 
Cc1nccn1CCNCc1nc(-c2ccsc2)no1 (3D coordinates assigned)
Cc1nccn1CCNCc1nc(-c2ccsc2)no1 (optimized conformer: 117.81591603614281 kcal/mol)

>  <smiles>  (7) 
Cc1nccn1CCNCc1nc(-c2ccsc2)no1

>  <score_type>  (7) 
oracle

>  <origin>  (7) 
adg

>  <m_score__min__energy>  (7) 
-7.3499999999999996

>  <m_primary>  (7) 
energy

$$$$
7:0
     RDKit          3D

 37 39  0  0  0  0  0  0  0  0999 V2000
   56.1990   29.8450   42.9460 O   0  0  0  0  0  0  0  0  0  0  0  0
   56.7830   29.9650   44.0570 C   0  0  0  0  0  0  0  0  0  0  0  0
   56.6300   31.1650   44.8210 N   0  0  0  0  0  0  0  0  0  0  0  0
   57.3280   32.4090   44.5170 C   0  0  0  0  0  0  0  0  0  0  0  0
   57.1530   33.4140   45.6560 C   0  0  0  0  0  0  0  0  0  0  0  0
   58.4500   33.6100   46.3950 C   0  0  0  0  0  0  0  0  0  0  0  0
   58.4990   33.4720   47.7920 C   0  0  0  0  0  0  0  0  0  0  0  0
   59.6990   33.6850   48.4790 C   0  0  0  0  0  0  0  0  0  0  0  0
   60.8520   34.0470   47.7780 C   0  0  0  0  0  0  0  0  0  0  0  0
   60.8080   34.2000   46.3890 C   0  0  0  0  0  0  0  0  0  0  0  0
   59.6110   33.9870   45.6980 C   0  0  0  0  0  0  0  0  0  0  0  0
   57.5690   28.8420   44.6150 C   0  0  0  0  0  0  0  0  0  0  0  0
   57.4070   27.6050   44.0570 N   0  0  0  0  0  0  0  0  0  0  0  0
   58.1290   26.5260   44.4590 C   0  0  0  0  0  0  0  0  0  0  0  0
   59.0700   26.6470   45.4750 C   0  0  0  0  0  0  0  0  0  0  0  0
   59.2540   27.8840   46.1000 C   0  0  0  0  0  0  0  0  0  0  0  0
   60.1820   28.0110   47.1460 C   0  0  0  0  0  0  0  0  0  0  0  0
   60.3430   29.2330   47.7990 C   0  0  0  0  0  0  0  0  0  0  0  0
   59.5740   30.3330   47.4230 C   0  0  0  0  0  0  0  0  0  0  0  0
   58.6480   30.2240   46.3820 C   0  0  0  0  0  0  0  0  0  0  0  0
   58.4900   29.0050   45.6860 C   0  0  0  0  0  0  0  0  0  0  0  0
   58.3992   32.1990   44.3810 H   0  0  0  0  0  0  0  0  0  0  0  0
   56.9055   32.8379   43.5964 H   0  0  0  0  0  0  0  0  0  0  0  0
   56.8249   34.3780   45.2400 H   0  0  0  0  0  0  0  0  0  0  0  0
   56.4004   33.0261   46.3582 H   0  0  0  0  0  0  0  0  0  0  0  0
   57.5908   33.1955   48.3477 H   0  0  0  0  0  0  0  0  0  0  0  0
   59.7347   33.5673   49.5721 H   0  0  0  0  0  0  0  0  0  0  0  0
   61.7953   34.2118   48.3194 H   0  0  0  0  0  0  0  0  0  0  0  0
   61.7160   34.4883   45.8390 H   0  0  0  0  0  0  0  0  0  0  0  0
   59.5779   34.1148   44.6060 H   0  0  0  0  0  0  0  0  0  0  0  0
   56.7280   27.4710   43.2730 H   0  0  0  0  0  0  0  0  0  0  0  0
   57.9677   25.5504   43.9772 H   0  0  0  0  0  0  0  0  0  0  0  0
   59.6656   25.7757   45.7850 H   0  0  0  0  0  0  0  0  0  0  0  0
   60.7846   27.1431   47.4518 H   0  0  0  0  0  0  0  0  0  0  0  0
   61.0779   29.3287   48.6119 H   0  0  0  0  0  0  0  0  0  0  0  0
   59.6966   31.2917   47.9483 H   0  0  0  0  0  0  0  0  0  0  0  0
   58.0370   31.0949   46.1022 H   0  0  0  0  0  0  0  0  0  0  0  0
  1  2  2  0
  2  3  1  0
  3  4  1  0
  4  5  1  0
  5  6  1  0
  6  7  2  0
  7  8  1  0
  8  9  2  0
  9 10  1  0
 10 11  2  0
  2 12  1  0
 12 13  2  0
 13 14  1  0
 14 15  2  0
 15 16  1  0
 16 17  2  0
 17 18  1  0
 18 19  2  0
 19 20  1  0
 20 21  2  0
 11  6  1  0
 21 12  1  0
 21 16  1  0
  4 22  1  0
  4 23  1  0
  5 24  1  0
  5 25  1  0
  7 26  1  0
  8 27  1  0
  9 28  1  0
 10 29  1  0
 11 30  1  0
 13 31  1  0
 14 32  1  0
 15 33  1  0
 17 34  1  0
 18 35  1  0
 19 36  1  0
 20 37  1  0
M  CHG  2   3  -1  13   1
M  END
>  <UniqueID>  (8) 
7

>  <SMILES>  (8) 
O=C([N-]CCc1ccccc1)c1[nH+]ccc2ccccc12

>  <Energy>  (8) 
45.226482572831905

>  <Genealogy>  (8) 
O=C([N-]CCc1ccccc1)c1[nH+]ccc2ccccc12 (protonated)
O=C([N-]CCc1ccccc1)c1[nH+]ccc2ccccc12 (3D coordinates assigned)
O=C([N-]CCc1ccccc1)c1[nH+]ccc2ccccc12 (optimized conformer: 45.226482572831905 kcal/mol)

>  <smiles>  (8) 
O=C(NCCc1ccccc1)c1nccc2ccccc12

>  <score_type>  (8) 
oracle

>  <origin>  (8) 
adg

>  <m_score__min__energy>  (8) 
-8.2300000000000004

>  <m_primary>  (8) 
energy

$$$$
8:0
     RDKit          3D

 54 56  0  0  0  0  0  0  0  0999 V2000
   62.4890   32.9020   47.1400 C   0  0  0  0  0  0  0  0  0  0  0  0
   61.5830   33.8710   46.3690 C   0  0  0  0  0  0  0  0  0  0  0  0
   60.1430   33.7580   46.7080 N   0  0  0  0  0  0  0  0  0  0  0  0
   59.9150   33.7080   48.1710 C   0  0  0  0  0  0  0  0  0  0  0  0
   58.7390   32.7910   48.4920 C   0  0  0  0  0  0  0  0  0  0  0  0
   59.2860   34.7770   46.0560 C   0  0  0  0  0  0  0  0  0  0  0  0
   58.2140   34.1360   45.1740 C   0  0  0  0  0  0  0  0  0  0  0  0
   58.7690   33.0120   44.4970 O   0  0  0  0  0  0  0  0  0  0  0  0
   58.0380   31.8490   44.2350 C   0  0  0  0  0  0  0  0  0  0  0  0
   57.0390   31.8900   43.4650 O   0  0  0  0  0  0  0  0  0  0  0  0
   58.4440   30.5700   44.8590 C   0  0  0  0  0  0  0  0  0  0  0  0
   58.0200   29.3480   44.3130 C   0  0  0  0  0  0  0  0  0  0  0  0
   58.3980   28.1380   44.9020 C   0  0  0  0  0  0  0  0  0  0  0  0
   59.2020   28.1230   46.0510 C   0  0  0  0  0  0  0  0  0  0  0  0
   59.5620   26.8580   46.6390 N   0  0  0  0  0  0  0  0  0  0  0  0
   58.6490   26.0350   47.4310 C   0  0  0  0  0  0  0  0  0  0  0  0
   57.9660   25.0670   46.5760 N   0  0  0  0  0  0  0  0  0  0  0  0
   56.6610   25.2050   46.0060 C   0  0  0  0  0  0  0  0  0  0  0  0
   55.8130   26.0590   46.3730 O   0  0  0  0  0  0  0  0  0  0  0  0
   56.4800   24.2380   44.9300 C   0  0  0  0  0  0  0  0  0  0  0  0
   55.3840   23.9880   44.1050 C   0  0  0  0  0  0  0  0  0  0  0  0
   55.5090   22.9830   43.1290 C   0  0  0  0  0  0  0  0  0  0  0  0
   56.7140   22.2610   42.9950 C   0  0  0  0  0  0  0  0  0  0  0  0
   57.8070   22.5340   43.8380 C   0  0  0  0  0  0  0  0  0  0  0  0
   57.6570   23.5310   44.8010 C   0  0  0  0  0  0  0  0  0  0  0  0
   58.5920   24.0450   45.7950 C   0  0  0  0  0  0  0  0  0  0  0  0
   59.7840   23.6670   45.9430 O   0  0  0  0  0  0  0  0  0  0  0  0
   59.6330   29.3470   46.5960 C   0  0  0  0  0  0  0  0  0  0  0  0
   59.2560   30.5570   46.0070 C   0  0  0  0  0  0  0  0  0  0  0  0
   62.3496   33.0511   48.2209 H   0  0  0  0  0  0  0  0  0  0  0  0
   62.2274   31.8667   46.8759 H   0  0  0  0  0  0  0  0  0  0  0  0
   63.5395   33.0935   46.8759 H   0  0  0  0  0  0  0  0  0  0  0  0
   61.9097   34.8980   46.5895 H   0  0  0  0  0  0  0  0  0  0  0  0
   61.6780   33.6127   45.3040 H   0  0  0  0  0  0  0  0  0  0  0  0
   60.8195   33.3253   48.6664 H   0  0  0  0  0  0  0  0  0  0  0  0
   59.6877   34.7216   48.5328 H   0  0  0  0  0  0  0  0  0  0  0  0
   58.6284   32.7048   49.5830 H   0  0  0  0  0  0  0  0  0  0  0  0
   57.8180   33.2118   48.0622 H   0  0  0  0  0  0  0  0  0  0  0  0
   58.9226   31.7952   48.0622 H   0  0  0  0  0  0  0  0  0  0  0  0
   58.7939   35.3792   46.8340 H   0  0  0  0  0  0  0  0  0  0  0  0
   59.9253   35.4037   45.4169 H   0  0  0  0  0  0  0  0  0  0  0  0
   57.3713   33.8080   45.8002 H   0  0  0  0  0  0  0  0  0  0  0  0
   57.8573   34.8701   44.4365 H   0  0  0  0  0  0  0  0  0  0  0  0
   57.3853   29.3427   43.4146 H   0  0  0  0  0  0  0  0  0  0  0  0
   58.0616   27.1885   44.4601 H   0  0  0  0  0  0  0  0  0  0  0  0
   60.5200   26.4790   46.4660 H   0  0  0  0  0  0  0  0  0  0  0  0
   59.2211   25.4979   48.2019 H   0  0  0  0  0  0  0  0  0  0  0  0
   57.8989   26.6866   47.9031 H   0  0  0  0  0  0  0  0  0  0  0  0
   54.4503   24.5592   44.2141 H   0  0  0  0  0  0  0  0  0  0  0  0
   54.6612   22.7581   42.4652 H   0  0  0  0  0  0  0  0  0  0  0  0
   56.7995   21.4791   42.2260 H   0  0  0  0  0  0  0  0  0  0  0  0
   58.7510   21.9778   43.7402 H   0  0  0  0  0  0  0  0  0  0  0  0
   60.2712   29.3513   47.4920 H   0  0  0  0  0  0  0  0  0  0  0  0
   59.5971   31.5067   46.4449 H   0  0  0  0  0  0  0  0  0  0  0  0
  1  2  1  0
  2  3  1  0
  3  4  1  0
  4  5  1  0
  3  6  1  0
  6  7  1  0
  7  8  1  0
  8  9  1  0
  9 10  2  0
  9 11  1  0
 11 12  2  0
 12 13  1  0
 13 14  2  0
 14 15  1  0
 15 16  1  0
 16 17  1  0
 17 18  1  0
 18 19  2  0
 18 20  1  0
 20 21  2  0
 21 22  1  0
 22 23  2  0
 23 24  1  0
 24 25  2  0
 25 26  1  0
 26 27  2  0
 14 28  1  0
 28 29  2  0
 29 11  1  0
 26 17  1  0
 25 20  1  0
  1 30  1  0
  1 31  1  0
  1 32  1  0
  2 33  1  0
  2 34  1  0
  4 35  1  0
  4 36  1  0
  5 37  1  0
  5 38  1  0
  5 39  1  0
  6 40  1  0
  6 41  1  0
  7 42  1  0
  7 43  1  0
 12 44  1  0
 13 45  1  0
 15 46  1  0
 16 47  1  0
 16 48  1  0
 21 49  1  0
 22 50  1  0
 23 51  1  0
 24 52  1  0
 28 53  1  0
 29 54  1  0
M  END
>  <UniqueID>  (9) 
8

>  <SMILES>  (9) 
CCN(CC)CCOC(=O)c1ccc(NCN2C(=O)c3ccccc3C2=O)cc1

>  <Energy>  (9) 
84.84907012817906

>  <Genealogy>  (9) 
CCN(CC)CCOC(=O)c1ccc(NCN2C(=O)c3ccccc3C2=O)cc1 (3D coordinates assigned)
CCN(CC)CCOC(=O)c1ccc(NCN2C(=O)c3ccccc3C2=O)cc1 (nonaromatic ring conformer: 84.84907012817906 kcal/mol)

>  <smiles>  (9) 
CCN(CC)CCOC(=O)c1ccc(NCN2C(=O)c3ccccc3C2=O)cc1

>  <score_type>  (9) 
oracle

>  <origin>  (9) 
adg

>  <m_score__min__energy>  (9) 
-7.4199999999999999

>  <m_primary>  (9) 
energy

$$$$
9:0
     RDKit          3D

 33 35  0  0  0  0  0  0  0  0999 V2000
   57.8400   32.0190   43.2450 C   0  0  0  0  0  0  0  0  0  0  0  0
   57.0180   32.2160   44.8560 S   0  0  0  0  0  0  0  0  0  0  0  0
   58.4280   33.0440   45.5980 C   0  0  0  0  0  0  0  0  0  0  0  0
   58.5730   34.3840   45.5990 N   0  0  0  0  0  0  0  0  0  0  0  0
   59.6650   34.6350   46.3030 N   0  0  0  0  0  0  0  0  0  0  0  0
   60.1750   33.4620   46.7190 C   0  0  0  0  0  0  0  0  0  0  0  0
   61.3860   33.3490   47.5550 C   0  0  0  0  0  0  0  0  0  0  0  0
   62.6280   33.1700   46.9270 C   0  0  0  0  0  0  0  0  0  0  0  0
   63.7980   33.0900   47.6850 C   0  0  0  0  0  0  0  0  0  0  0  0
   63.7380   33.1780   49.0780 C   0  0  0  0  0  0  0  0  0  0  0  0
   65.3410   33.0690   50.1120 Br  0  0  0  0  0  0  0  0  0  0  0  0
   62.5040   33.3330   49.7140 C   0  0  0  0  0  0  0  0  0  0  0  0
   61.3240   33.4140   48.9640 C   0  0  0  0  0  0  0  0  0  0  0  0
   59.6580   33.5200   49.9090 Br  0  0  0  0  0  0  0  0  0  0  0  0
   59.4130   32.4310   46.2910 N   0  0  0  0  0  0  0  0  0  0  0  0
   59.5270   31.0350   46.6190 C   0  0  0  0  0  0  0  0  0  0  0  0
   59.3610   30.5990   47.9450 C   0  0  0  0  0  0  0  0  0  0  0  0
   59.4810   29.2430   48.2610 C   0  0  0  0  0  0  0  0  0  0  0  0
   59.7660   28.3120   47.2580 C   0  0  0  0  0  0  0  0  0  0  0  0
   59.9310   28.7360   45.9380 C   0  0  0  0  0  0  0  0  0  0  0  0
   59.8110   30.0930   45.6170 C   0  0  0  0  0  0  0  0  0  0  0  0
   58.8987   31.7653   43.4022 H   0  0  0  0  0  0  0  0  0  0  0  0
   57.3498   31.2129   42.6794 H   0  0  0  0  0  0  0  0  0  0  0  0
   57.7685   32.9597   42.6794 H   0  0  0  0  0  0  0  0  0  0  0  0
   60.0450   35.5890   46.4900 H   0  0  0  0  0  0  0  0  0  0  0  0
   62.6803   33.0922   45.8310 H   0  0  0  0  0  0  0  0  0  0  0  0
   64.7685   32.9575   47.1845 H   0  0  0  0  0  0  0  0  0  0  0  0
   62.4588   33.3918   50.8115 H   0  0  0  0  0  0  0  0  0  0  0  0
   59.1357   31.3282   48.7372 H   0  0  0  0  0  0  0  0  0  0  0  0
   59.3510   28.9078   49.3006 H   0  0  0  0  0  0  0  0  0  0  0  0
   59.8603   27.2451   47.5087 H   0  0  0  0  0  0  0  0  0  0  0  0
   60.1556   28.0027   45.1494 H   0  0  0  0  0  0  0  0  0  0  0  0
   59.9397   30.4230   44.5756 H   0  0  0  0  0  0  0  0  0  0  0  0
  1  2  1  0
  2  3  1  0
  3  4  2  0
  4  5  1  0
  5  6  2  0
  6  7  1  0
  7  8  2  0
  8  9  1  0
  9 10  2  0
 10 11  1  0
 10 12  1  0
 12 13  2  0
 13 14  1  0
  6 15  1  0
 15 16  1  0
 16 17  2  0
 17 18  1  0
 18 19  2  0
 19 20  1  0
 20 21  2  0
 15  3  1  0
 21 16  1  0
 13  7  1  0
  1 22  1  0
  1 23  1  0
  1 24  1  0
  5 25  1  0
  8 26  1  0
  9 27  1  0
 12 28  1  0
 17 29  1  0
 18 30  1  0
 19 31  1  0
 20 32  1  0
 21 33  1  0
M  CHG  1   5   1
M  END
>  <UniqueID>  (10) 
9

>  <SMILES>  (10) 
CSc1n[nH+]c(-c2ccc(Br)cc2Br)n1-c1ccccc1

>  <Energy>  (10) 
78.23525269376968

>  <Genealogy>  (10) 
CSc1n[nH+]c(-c2ccc(Br)cc2Br)n1-c1ccccc1 (protonated)
CSc1n[nH+]c(-c2ccc(Br)cc2Br)n1-c1ccccc1 (3D coordinates assigned)
CSc1n[nH+]c(-c2ccc(Br)cc2Br)n1-c1ccccc1 (optimized conformer: 78.23525269376968 kcal/mol)

>  <smiles>  (10) 
CSc1nnc(-c2ccc(Br)cc2Br)n1-c1ccccc1

>  <score_type>  (10) 
oracle

>  <origin>  (10) 
adg

>  <m_score__min__energy>  (10) 
-6.3399999999999999

>  <m_primary>  (10) 
energy

$$$$
10:0
     RDKit          3D

 38 40  0  0  0  0  0  0  0  0999 V2000
   55.1490   29.3510   44.8890 N   0  0  0  0  0  0  0  0  0  0  0  0
   56.0300   29.9080   43.9170 C   0  0  0  0  0  0  0  0  0  0  0  0
   56.1410   29.3650   42.7860 O   0  0  0  0  0  0  0  0  0  0  0  0
   56.7970   31.1540   44.2310 C   0  0  0  0  0  0  0  0  0  0  0  0
   57.2120   31.1610   45.5960 O   0  0  0  0  0  0  0  0  0  0  0  0
   58.5450   31.1360   46.0520 C   0  0  0  0  0  0  0  0  0  0  0  0
   59.2090   32.3060   46.4710 C   0  0  0  0  0  0  0  0  0  0  0  0
   60.5500   32.2710   46.8980 C   0  0  0  0  0  0  0  0  0  0  0  0
   61.2740   33.5520   47.3260 C   0  0  0  0  0  0  0  0  0  0  0  0
   60.4360   34.6820   47.3720 O   0  0  0  0  0  0  0  0  0  0  0  0
   62.5330   33.8450   46.5070 C   0  0  0  0  0  0  0  0  0  0  0  0
   63.3830   33.7170   47.7650 C   0  0  0  0  0  0  0  0  0  0  0  0
   62.1350   33.4360   48.5920 C   0  0  0  0  0  0  0  0  0  0  0  0
   61.2300   31.0390   46.8680 C   0  0  0  0  0  0  0  0  0  0  0  0
   60.5790   29.8740   46.4650 C   0  0  0  0  0  0  0  0  0  0  0  0
   59.2340   29.9060   46.0670 C   0  0  0  0  0  0  0  0  0  0  0  0
   58.5670   28.6480   45.6540 C   0  0  0  0  0  0  0  0  0  0  0  0
   57.4970   28.1160   46.3870 C   0  0  0  0  0  0  0  0  0  0  0  0
   56.9090   26.9560   45.9930 N   0  0  0  0  0  0  0  0  0  0  0  0
   57.3450   26.2920   44.8920 C   0  0  0  0  0  0  0  0  0  0  0  0
   58.3850   26.7820   44.1690 N   0  0  0  0  0  0  0  0  0  0  0  0
   59.0040   27.9360   44.5280 C   0  0  0  0  0  0  0  0  0  0  0  0
   55.4660   28.5830   45.5220 H   0  0  0  0  0  0  0  0  0  0  0  0
   57.6848   31.2042   43.5835 H   0  0  0  0  0  0  0  0  0  0  0  0
   56.1463   32.0233   44.0550 H   0  0  0  0  0  0  0  0  0  0  0  0
   58.6695   33.2646   46.4643 H   0  0  0  0  0  0  0  0  0  0  0  0
   60.3910   34.9660   48.3230 H   0  0  0  0  0  0  0  0  0  0  0  0
   62.7536   33.0905   45.7375 H   0  0  0  0  0  0  0  0  0  0  0  0
   62.5935   34.7499   45.8845 H   0  0  0  0  0  0  0  0  0  0  0  0
   64.0994   32.8827   47.7382 H   0  0  0  0  0  0  0  0  0  0  0  0
   64.0680   34.5275   48.0548 H   0  0  0  0  0  0  0  0  0  0  0  0
   62.1188   32.4392   49.0569 H   0  0  0  0  0  0  0  0  0  0  0  0
   61.9058   34.0434   49.4800 H   0  0  0  0  0  0  0  0  0  0  0  0
   62.2879   30.9949   47.1662 H   0  0  0  0  0  0  0  0  0  0  0  0
   61.1257   28.9195   46.4590 H   0  0  0  0  0  0  0  0  0  0  0  0
   57.1324   28.6389   47.2835 H   0  0  0  0  0  0  0  0  0  0  0  0
   56.8553   25.3560   44.5852 H   0  0  0  0  0  0  0  0  0  0  0  0
   59.8499   28.3129   43.9343 H   0  0  0  0  0  0  0  0  0  0  0  0
  1  2  1  0
  2  3  2  0
  2  4  1  0
  4  5  1  0
  5  6  1  0
  6  7  2  0
  7  8  1  0
  8  9  1  0
  9 10  1  0
  9 11  1  0
 11 12  1  0
 12 13  1  0
  8 14  2  0
 14 15  1  0
 15 16  2  0
 16 17  1  0
 17 18  2  0
 18 19  1  0
 19 20  2  0
 20 21  1  0
 21 22  2  0
 16  6  1  0
 22 17  1  0
 13  9  1  0
  1 23  1  0
  4 24  1  0
  4 25  1  0
  7 26  1  0
 10 27  1  0
 11 28  1  0
 11 29  1  0
 12 30  1  0
 12 31  1  0
 13 32  1  0
 13 33  1  0
 14 34  1  0
 15 35  1  0
 18 36  1  0
 20 37  1  0
 22 38  1  0
M  CHG  1   1  -1
M  END
>  <UniqueID>  (11) 
10

>  <SMILES>  (11) 
[NH-]C(=O)COc1cc(C2(O)CCC2)ccc1-c1cncnc1

>  <Energy>  (11) 
110.1647300022862

>  <Genealogy>  (11) 
[NH-]C(=O)COc1cc(C2(O)CCC2)ccc1-c1cncnc1 (protonated)
[NH-]C(=O)COc1cc(C2(O)CCC2)ccc1-c1cncnc1 (3D coordinates assigned)
[NH-]C(=O)COc1cc(C2(O)CCC2)ccc1-c1cncnc1 (nonaromatic ring conformer: 110.1647300022862 kcal/mol)

>  <smiles>  (11) 
NC(=O)COc1cc(C2(O)CCC2)ccc1-c1cncnc1

>  <score_type>  (11) 
oracle

>  <origin>  (11) 
adg

>  <m_score__min__energy>  (11) 
-10.77

>  <m_primary>  (11) 
energy

$$$$
11:0
     RDKit          3D

 40 41  0  0  0  0  0  0  0  0999 V2000
   57.8640   21.4660   43.7300 C   0  0  0  0  0  0  0  0  0  0  0  0
   56.6380   21.9840   42.9900 C   0  0  0  0  0  0  0  0  0  0  0  0
   56.3730   23.3870   43.3900 N   0  0  0  0  0  0  0  0  0  0  0  0
   54.9770   23.6090   43.8270 C   0  0  0  0  0  0  0  0  0  0  0  0
   54.8360   23.8790   45.3330 C   0  0  0  0  0  0  0  0  0  0  0  0
   57.3640   23.9230   44.3480 C   0  0  0  0  0  0  0  0  0  0  0  0
   57.7090   25.3780   44.0140 C   0  0  0  0  0  0  0  0  0  0  0  0
   57.8900   26.1340   45.2100 O   0  0  0  0  0  0  0  0  0  0  0  0
   57.0040   27.1320   45.6370 C   0  0  0  0  0  0  0  0  0  0  0  0
   55.8280   26.8220   45.9770 O   0  0  0  0  0  0  0  0  0  0  0  0
   57.4430   28.5500   45.6970 C   0  0  0  0  0  0  0  0  0  0  0  0
   58.7070   28.8710   46.2170 C   0  0  0  0  0  0  0  0  0  0  0  0
   59.1210   30.2050   46.2750 C   0  0  0  0  0  0  0  0  0  0  0  0
   60.3770   30.5590   46.7890 C   0  0  0  0  0  0  0  0  0  0  0  0
   60.7600   31.9040   46.8330 C   0  0  0  0  0  0  0  0  0  0  0  0
   62.4710   32.3860   47.5320 Br  0  0  0  0  0  0  0  0  0  0  0  0
   59.8920   32.8960   46.3640 C   0  0  0  0  0  0  0  0  0  0  0  0
   58.6360   32.5510   45.8500 C   0  0  0  0  0  0  0  0  0  0  0  0
   57.4700   33.9290   45.2170 Br  0  0  0  0  0  0  0  0  0  0  0  0
   58.2450   31.2040   45.8040 C   0  0  0  0  0  0  0  0  0  0  0  0
   57.0560   30.8690   45.3170 O   0  0  0  0  0  0  0  0  0  0  0  0
   56.6280   29.6120   45.2460 C   0  0  0  0  0  0  0  0  0  0  0  0
   55.4830   29.3900   44.7700 O   0  0  0  0  0  0  0  0  0  0  0  0
   57.6950   21.5374   44.8146 H   0  0  0  0  0  0  0  0  0  0  0  0
   58.0418   20.4159   43.4550 H   0  0  0  0  0  0  0  0  0  0  0  0
   58.7409   22.0705   43.4550 H   0  0  0  0  0  0  0  0  0  0  0  0
   56.8188   21.9401   41.9059 H   0  0  0  0  0  0  0  0  0  0  0  0
   55.7676   21.3608   43.2430 H   0  0  0  0  0  0  0  0  0  0  0  0
   54.5755   24.4748   43.2800 H   0  0  0  0  0  0  0  0  0  0  0  0
   54.4226   22.6833   43.6134 H   0  0  0  0  0  0  0  0  0  0  0  0
   55.2729   23.0424   45.8980 H   0  0  0  0  0  0  0  0  0  0  0  0
   55.3632   24.8097   45.5896 H   0  0  0  0  0  0  0  0  0  0  0  0
   53.7710   23.9782   45.5896 H   0  0  0  0  0  0  0  0  0  0  0  0
   56.9460   23.8753   45.3644 H   0  0  0  0  0  0  0  0  0  0  0  0
   58.2808   23.3186   44.2833 H   0  0  0  0  0  0  0  0  0  0  0  0
   58.6376   25.4041   43.4249 H   0  0  0  0  0  0  0  0  0  0  0  0
   56.8820   25.8169   43.4365 H   0  0  0  0  0  0  0  0  0  0  0  0
   59.3717   28.0727   46.5788 H   0  0  0  0  0  0  0  0  0  0  0  0
   61.0605   29.7798   47.1573 H   0  0  0  0  0  0  0  0  0  0  0  0
   60.1977   33.9521   46.3992 H   0  0  0  0  0  0  0  0  0  0  0  0
  1  2  1  0
  2  3  1  0
  3  4  1  0
  4  5  1  0
  3  6  1  0
  6  7  1  0
  7  8  1  0
  8  9  1  0
  9 10  2  0
  9 11  1  0
 11 12  2  0
 12 13  1  0
 13 14  2  0
 14 15  1  0
 15 16  1  0
 15 17  2  0
 17 18  1  0
 18 19  1  0
 18 20  2  0
 20 21  1  0
 21 22  1  0
 22 23  2  0
 22 11  1  0
 20 13  1  0
  1 24  1  0
  1 25  1  0
  1 26  1  0
  2 27  1  0
  2 28  1  0
  4 29  1  0
  4 30  1  0
  5 31  1  0
  5 32  1  0
  5 33  1  0
  6 34  1  0
  6 35  1  0
  7 36  1  0
  7 37  1  0
 12 38  1  0
 14 39  1  0
 17 40  1  0
M  END
>  <UniqueID>  (12) 
11

>  <SMILES>  (12) 
CCN(CC)CCOC(=O)c1cc2cc(Br)cc(Br)c2oc1=O

>  <Energy>  (12) 
44.59229776426073

>  <Genealogy>  (12) 
CCN(CC)CCOC(=O)c1cc2cc(Br)cc(Br)c2oc1=O (3D coordinates assigned)
CCN(CC)CCOC(=O)c1cc2cc(Br)cc(Br)c2oc1=O (optimized conformer: 44.59229776426073 kcal/mol)

>  <smiles>  (12) 
CCN(CC)CCOC(=O)c1cc2cc(Br)cc(Br)c2oc1=O

>  <score_type>  (12) 
oracle

>  <origin>  (12) 
adg

>  <m_score__min__energy>  (12) 
-7.6500000000000004

>  <m_primary>  (12) 
energy

$$$$
12:0
     RDKit          3D

 42 45  0  0  0  0  0  0  0  0999 V2000
   56.6880   30.6200   45.2410 O   0  0  0  0  0  0  0  0  0  0  0  0
   58.1560   30.9250   44.9800 S   0  0  0  0  0  0  0  0  0  0  0  0
   58.3470   30.8360   43.4760 O   0  0  0  0  0  0  0  0  0  0  0  0
   58.5200   32.5090   45.5450 C   0  0  0  0  0  0  0  0  0  0  0  0
   58.5480   32.7260   46.9240 C   0  0  0  0  0  0  0  0  0  0  0  0
   58.8720   33.9510   47.4660 C   0  0  0  0  0  0  0  0  0  0  0  0
   59.1860   35.0310   46.6630 C   0  0  0  0  0  0  0  0  0  0  0  0
   59.1630   34.8380   45.2990 C   0  0  0  0  0  0  0  0  0  0  0  0
   58.8330   33.5920   44.7660 C   0  0  0  0  0  0  0  0  0  0  0  0
   58.7930   33.5110   43.4240 F   0  0  0  0  0  0  0  0  0  0  0  0
   59.0970   29.7310   45.6870 N   0  0  0  0  0  0  0  0  0  0  0  0
   59.9540   28.9330   44.9170 C   0  0  0  0  0  0  0  0  0  0  0  0
   59.2430   27.8360   44.1470 C   0  0  0  0  0  0  0  0  0  0  0  0
   58.5850   26.9900   45.2250 C   0  0  0  0  0  0  0  0  0  0  0  0
   58.1360   25.6850   44.7420 C   0  0  0  0  0  0  0  0  0  0  0  0
   58.4060   24.4960   45.2810 N   0  0  0  0  0  0  0  0  0  0  0  0
   57.8350   23.4970   44.5840 C   0  0  0  0  0  0  0  0  0  0  0  0
   57.7840   22.1180   44.6840 C   0  0  0  0  0  0  0  0  0  0  0  0
   57.0680   21.3890   43.7420 C   0  0  0  0  0  0  0  0  0  0  0  0
   56.4040   22.0370   42.7030 C   0  0  0  0  0  0  0  0  0  0  0  0
   56.4660   23.3810   42.6240 N   0  0  0  0  0  0  0  0  0  0  0  0
   57.1660   24.1080   43.5410 C   0  0  0  0  0  0  0  0  0  0  0  0
   57.3570   25.4340   43.6500 N   0  0  0  0  0  0  0  0  0  0  0  0
   57.5340   27.8350   45.8700 C   0  0  0  0  0  0  0  0  0  0  0  0
   58.2510   28.9580   46.5900 C   0  0  0  0  0  0  0  0  0  0  0  0
   58.3037   31.8927   47.5993 H   0  0  0  0  0  0  0  0  0  0  0  0
   58.8808   34.0715   48.5593 H   0  0  0  0  0  0  0  0  0  0  0  0
   59.4446   36.0083   47.0966 H   0  0  0  0  0  0  0  0  0  0  0  0
   59.4067   35.6727   44.6253 H   0  0  0  0  0  0  0  0  0  0  0  0
   60.4760   29.5799   44.1965 H   0  0  0  0  0  0  0  0  0  0  0  0
   60.6443   28.4378   45.6158 H   0  0  0  0  0  0  0  0  0  0  0  0
   58.4878   28.2613   43.4697 H   0  0  0  0  0  0  0  0  0  0  0  0
   59.9285   27.2533   43.5140 H   0  0  0  0  0  0  0  0  0  0  0  0
   59.3156   26.6998   45.9945 H   0  0  0  0  0  0  0  0  0  0  0  0
   58.3064   21.6023   45.5032 H   0  0  0  0  0  0  0  0  0  0  0  0
   57.0253   20.2924   43.8174 H   0  0  0  0  0  0  0  0  0  0  0  0
   55.8371   21.4600   41.9576 H   0  0  0  0  0  0  0  0  0  0  0  0
   56.9670   26.1530   42.9970 H   0  0  0  0  0  0  0  0  0  0  0  0
   56.8583   28.2466   45.1058 H   0  0  0  0  0  0  0  0  0  0  0  0
   56.9283   27.2420   46.5711 H   0  0  0  0  0  0  0  0  0  0  0  0
   57.5025   29.6286   47.0373 H   0  0  0  0  0  0  0  0  0  0  0  0
   58.8952   28.5114   47.3618 H   0  0  0  0  0  0  0  0  0  0  0  0
  1  2  2  0
  2  3  2  0
  2  4  1  0
  4  5  2  0
  5  6  1  0
  6  7  2  0
  7  8  1  0
  8  9  2  0
  9 10  1  0
  2 11  1  0
 11 12  1  0
 12 13  1  0
 13 14  1  0
 14 15  1  0
 15 16  2  0
 16 17  1  0
 17 18  2  0
 18 19  1  0
 19 20  2  0
 20 21  1  0
 21 22  2  0
 22 23  1  0
 14 24  1  0
 24 25  1  0
  9  4  1  0
 25 11  1  0
 23 15  1  0
 22 17  1  0
  5 26  1  0
  6 27  1  0
  7 28  1  0
  8 29  1  0
 12 30  1  0
 12 31  1  0
 13 32  1  0
 13 33  1  0
 14 34  1  0
 18 35  1  0
 19 36  1  0
 20 37  1  0
 23 38  1  0
 24 39  1  0
 24 40  1  0
 25 41  1  0
 25 42  1  0
M  END
>  <smiles>  (13) 
O=S(=O)(c1ccccc1F)N1CCC(c2nc3cccnc3[nH]2)CC1

>  <score_type>  (13) 
oracle

>  <origin>  (13) 
adg

>  <m_score__min__energy>  (13) 
-8.5999999999999996

>  <m_primary>  (13) 
energy

$$$$
13:0
     RDKit          3D

 56 58  0  0  0  0  0  0  0  0999 V2000
   57.0210   31.9300   51.6210 C   0  0  0  0  0  0  0  0  0  0  0  0
   58.2010   32.2020   50.7880 N   0  0  0  0  0  0  0  0  0  0  0  0
   58.7590   30.9380   50.2510 C   0  0  0  0  0  0  0  0  0  0  0  0
   60.2330   31.0590   49.8020 C   0  0  0  0  0  0  0  0  0  0  0  0
   60.6220   32.4590   49.5970 N   0  0  0  0  0  0  0  0  0  0  0  0
   61.4710   32.8120   48.4960 C   0  0  0  0  0  0  0  0  0  0  0  0
   62.6810   32.1240   48.3210 C   0  0  0  0  0  0  0  0  0  0  0  0
   63.5550   32.4830   47.2940 C   0  0  0  0  0  0  0  0  0  0  0  0
   63.2260   33.5280   46.4300 C   0  0  0  0  0  0  0  0  0  0  0  0
   62.0200   34.2140   46.5860 C   0  0  0  0  0  0  0  0  0  0  0  0
   61.1290   33.8660   47.6200 C   0  0  0  0  0  0  0  0  0  0  0  0
   59.8660   34.5420   47.7580 N   0  0  0  0  0  0  0  0  0  0  0  0
   58.9100   34.6980   46.6630 C   0  0  0  0  0  0  0  0  0  0  0  0
   58.4940   33.3500   46.1380 C   0  0  0  0  0  0  0  0  0  0  0  0
   58.1570   33.1960   44.7850 C   0  0  0  0  0  0  0  0  0  0  0  0
   57.8160   31.9390   44.2800 C   0  0  0  0  0  0  0  0  0  0  0  0
   57.8020   30.8160   45.1230 C   0  0  0  0  0  0  0  0  0  0  0  0
   57.4240   29.4520   44.5800 C   0  0  0  0  0  0  0  0  0  0  0  0
   58.5210   28.7680   43.8530 N   0  0  0  0  0  0  0  0  0  0  0  0
   58.1280   27.4340   43.3690 C   0  0  0  0  0  0  0  0  0  0  0  0
   59.7590   28.6910   44.6460 C   0  0  0  0  0  0  0  0  0  0  0  0
   58.1510   30.9700   46.4740 C   0  0  0  0  0  0  0  0  0  0  0  0
   58.4940   32.2270   46.9780 C   0  0  0  0  0  0  0  0  0  0  0  0
   60.2650   33.4850   50.5810 C   0  0  0  0  0  0  0  0  0  0  0  0
   59.2090   32.9560   51.5530 C   0  0  0  0  0  0  0  0  0  0  0  0
   57.2994   31.9942   52.6833 H   0  0  0  0  0  0  0  0  0  0  0  0
   56.2385   32.6713   51.4016 H   0  0  0  0  0  0  0  0  0  0  0  0
   56.6420   30.9209   51.4016 H   0  0  0  0  0  0  0  0  0  0  0  0
   58.6953   30.1683   51.0343 H   0  0  0  0  0  0  0  0  0  0  0  0
   58.1690   30.6753   49.3605 H   0  0  0  0  0  0  0  0  0  0  0  0
   60.8791   30.6186   50.5756 H   0  0  0  0  0  0  0  0  0  0  0  0
   60.3463   30.5269   48.8459 H   0  0  0  0  0  0  0  0  0  0  0  0
   62.9424   31.2967   48.9972 H   0  0  0  0  0  0  0  0  0  0  0  0
   64.5040   31.9417   47.1656 H   0  0  0  0  0  0  0  0  0  0  0  0
   63.9185   33.8121   45.6239 H   0  0  0  0  0  0  0  0  0  0  0  0
   61.7638   35.0320   45.8966 H   0  0  0  0  0  0  0  0  0  0  0  0
   59.6560   35.0410   48.6520 H   0  0  0  0  0  0  0  0  0  0  0  0
   58.0225   35.2345   47.0296 H   0  0  0  0  0  0  0  0  0  0  0  0
   59.3853   35.2676   45.8509 H   0  0  0  0  0  0  0  0  0  0  0  0
   58.1613   34.0704   44.1176 H   0  0  0  0  0  0  0  0  0  0  0  0
   57.5571   31.8283   43.2166 H   0  0  0  0  0  0  0  0  0  0  0  0
   57.1188   28.8159   45.4240 H   0  0  0  0  0  0  0  0  0  0  0  0
   56.6121   29.6114   43.8551 H   0  0  0  0  0  0  0  0  0  0  0  0
   58.7340   29.3510   43.0080 H   0  0  0  0  0  0  0  0  0  0  0  0
   57.9338   26.7748   44.2279 H   0  0  0  0  0  0  0  0  0  0  0  0
   57.2168   27.5191   42.7587 H   0  0  0  0  0  0  0  0  0  0  0  0
   58.9398   27.0115   42.7587 H   0  0  0  0  0  0  0  0  0  0  0  0
   59.5098   28.7065   45.7173 H   0  0  0  0  0  0  0  0  0  0  0  0
   60.2904   27.7581   44.4066 H   0  0  0  0  0  0  0  0  0  0  0  0
   60.4019   29.5509   44.4066 H   0  0  0  0  0  0  0  0  0  0  0  0
   58.1544   30.0948   47.1404 H   0  0  0  0  0  0  0  0  0  0  0  0
   58.7653   32.3364   48.0384 H   0  0  0  0  0  0  0  0  0  0  0  0
   61.1642   33.7724   51.1457 H   0  0  0  0  0  0  0  0  0  0  0  0
   59.8534   34.3564   50.0507 H   0  0  0  0  0  0  0  0  0  0  0  0
   59.6842   32.2944   52.2922 H   0  0  0  0  0  0  0  0  0  0  0  0
   58.7304   33.7944   52.0804 H   0  0  0  0  0  0  0  0  0  0  0  0
  1  2  1  0
  2  3  1  0
  3  4  1  0
  4  5  1  0
  5  6  1  0
  6  7  2  0
  7  8  1  0
  8  9  2  0
  9 10  1  0
 10 11  2  0
 11 12  1  0
 12 13  1  0
 13 14  1  0
 14 15  2  0
 15 16  1  0
 16 17  2  0
 17 18  1  0
 18 19  1  0
 19 20  1  0
 19 21  1  0
 17 22  1  0
 22 23  2  0
  5 24  1  0
 24 25  1  0
 25  2  1  0
 11  6  1  0
 23 14  1  0
  1 26  1  0
  1 27  1  0
  1 28  1  0
  3 29  1  0
  3 30  1  0
  4 31  1  0
  4 32  1  0
  7 33  1  0
  8 34  1  0
  9 35  1  0
 10 36  1  0
 12 37  1  0
 13 38  1  0
 13 39  1  0
 15 40  1  0
 16 41  1  0
 18 42  1  0
 18 43  1  0
 19 44  1  0
 20 45  1  0
 20 46  1  0
 20 47  1  0
 21 48  1  0
 21 49  1  0
 21 50  1  0
 22 51  1  0
 23 52  1  0
 24 53  1  0
 24 54  1  0
 25 55  1  0
 25 56  1  0
M  CHG  1  19   1
M  END
>  <UniqueID>  (14) 
12

>  <SMILES>  (14) 
CN1CCN(c2ccccc2NCc2ccc(C[NH+](C)C)cc2)CC1

>  <Energy>  (14) 
67.0861424813436

>  <Genealogy>  (14) 
CN1CCN(c2ccccc2NCc2ccc(C[NH+](C)C)cc2)CC1 (protonated)
CN1CCN(c2ccccc2NCc2ccc(C[NH+](C)C)cc2)CC1 (3D coordinates assigned)
CN1CCN(c2ccccc2NCc2ccc(C[NH+](C)C)cc2)CC1 (nonaromatic ring conformer: 67.0861424813436 kcal/mol)

>  <smiles>  (14) 
CN(C)Cc1ccc(CNc2ccccc2N2CCN(C)CC2)cc1

>  <score_type>  (14) 
oracle

>  <origin>  (14) 
adg

>  <m_score__min__energy>  (14) 
-6.25

>  <m_primary>  (14) 
energy

$$$$
14:0
     RDKit          3D

 43 45  0  0  0  0  0  0  0  0999 V2000
   59.8040   34.5400   48.4620 C   0  0  0  0  0  0  0  0  0  0  0  0
   58.8920   34.3030   47.5150 C   0  0  0  0  0  0  0  0  0  0  0  0
   59.2910   33.9700   46.1060 C   0  0  0  0  0  0  0  0  0  0  0  0
   59.4640   32.5220   45.9430 N   0  0  0  0  0  0  0  0  0  0  0  0
   60.4460   31.7040   46.4060 C   0  0  0  0  0  0  0  0  0  0  0  0
   61.6780   32.1070   47.1180 C   0  0  0  0  0  0  0  0  0  0  0  0
   62.2520   31.3920   48.1650 C   0  0  0  0  0  0  0  0  0  0  0  0
   63.4510   31.9430   48.6320 C   0  0  0  0  0  0  0  0  0  0  0  0
   63.8390   33.0900   47.9550 C   0  0  0  0  0  0  0  0  0  0  0  0
   62.6890   33.4090   46.7740 S   0  0  0  0  0  0  0  0  0  0  0  0
   60.1740   30.4110   46.1340 N   0  0  0  0  0  0  0  0  0  0  0  0
   59.0230   30.3950   45.4850 N   0  0  0  0  0  0  0  0  0  0  0  0
   58.5930   31.6610   45.3730 C   0  0  0  0  0  0  0  0  0  0  0  0
   57.0450   32.1050   44.5730 S   0  0  0  0  0  0  0  0  0  0  0  0
   56.8780   30.5390   43.6420 C   0  0  0  0  0  0  0  0  0  0  0  0
   56.4050   29.4120   44.5060 C   0  0  0  0  0  0  0  0  0  0  0  0
   55.2000   29.3590   44.8720 O   0  0  0  0  0  0  0  0  0  0  0  0
   57.3240   28.3820   44.8810 N   0  0  0  0  0  0  0  0  0  0  0  0
   57.1670   27.5490   46.0650 C   0  0  0  0  0  0  0  0  0  0  0  0
   58.4200   27.5910   46.8940 C   0  0  0  0  0  0  0  0  0  0  0  0
   59.4580   26.6700   46.6720 C   0  0  0  0  0  0  0  0  0  0  0  0
   60.6180   26.7170   47.4520 C   0  0  0  0  0  0  0  0  0  0  0  0
   60.7470   27.6760   48.4610 C   0  0  0  0  0  0  0  0  0  0  0  0
   59.7130   28.5850   48.6970 C   0  0  0  0  0  0  0  0  0  0  0  0
   58.5500   28.5410   47.9220 C   0  0  0  0  0  0  0  0  0  0  0  0
   59.4834   34.7817   49.4861 H   0  0  0  0  0  0  0  0  0  0  0  0
   60.8755   34.4934   48.2176 H   0  0  0  0  0  0  0  0  0  0  0  0
   57.8239   34.3529   47.7733 H   0  0  0  0  0  0  0  0  0  0  0  0
   58.5080   34.3197   45.4170 H   0  0  0  0  0  0  0  0  0  0  0  0
   60.2466   34.4671   45.8828 H   0  0  0  0  0  0  0  0  0  0  0  0
   61.8052   30.4793   48.5861 H   0  0  0  0  0  0  0  0  0  0  0  0
   64.0314   31.5072   49.4586 H   0  0  0  0  0  0  0  0  0  0  0  0
   64.7415   33.6858   48.1565 H   0  0  0  0  0  0  0  0  0  0  0  0
   58.5470   29.5350   45.1380 H   0  0  0  0  0  0  0  0  0  0  0  0
   56.1545   30.6875   42.8269 H   0  0  0  0  0  0  0  0  0  0  0  0
   57.8716   30.2710   43.2535 H   0  0  0  0  0  0  0  0  0  0  0  0
   56.3222   27.9216   46.6629 H   0  0  0  0  0  0  0  0  0  0  0  0
   56.9753   26.5116   45.7533 H   0  0  0  0  0  0  0  0  0  0  0  0
   59.3579   25.9103   45.8828 H   0  0  0  0  0  0  0  0  0  0  0  0
   61.4305   25.9979   47.2712 H   0  0  0  0  0  0  0  0  0  0  0  0
   61.6628   27.7147   49.0691 H   0  0  0  0  0  0  0  0  0  0  0  0
   59.8138   29.3366   49.4938 H   0  0  0  0  0  0  0  0  0  0  0  0
   57.7339   29.2522   48.1174 H   0  0  0  0  0  0  0  0  0  0  0  0
  1  2  2  0
  2  3  1  0
  3  4  1  0
  4  5  1  0
  5  6  1  0
  6  7  2  0
  7  8  1  0
  8  9  2  0
  9 10  1  0
  5 11  2  0
 11 12  1  0
 12 13  2  0
 13 14  1  0
 14 15  1  0
 15 16  1  0
 16 17  2  0
 16 18  1  0
 18 19  1  0
 19 20  1  0
 20 21  2  0
 21 22  1  0
 22 23  2  0
 23 24  1  0
 24 25  2  0
 13  4  1  0
 25 20  1  0
 10  6  1  0
  1 26  1  0
  1 27  1  0
  2 28  1  0
  3 29  1  0
  3 30  1  0
  7 31  1  0
  8 32  1  0
  9 33  1  0
 12 34  1  0
 15 35  1  0
 15 36  1  0
 19 37  1  0
 19 38  1  0
 21 39  1  0
 22 40  1  0
 23 41  1  0
 24 42  1  0
 25 43  1  0
M  CHG  2  12   1  18  -1
M  END
>  <UniqueID>  (15) 
13

>  <SMILES>  (15) 
C=CCn1c(-c2cccs2)n[nH+]c1SCC(=O)[N-]Cc1ccccc1

>  <Energy>  (15) 
94.1343664599719

>  <Genealogy>  (15) 
C=CCn1c(-c2cccs2)n[nH+]c1SCC(=O)[N-]Cc1ccccc1 (protonated)
C=CCn1c(-c2cccs2)n[nH+]c1SCC(=O)[N-]Cc1ccccc1 (3D coordinates assigned)
C=CCn1c(-c2cccs2)n[nH+]c1SCC(=O)[N-]Cc1ccccc1 (optimized conformer: 94.1343664599719 kcal/mol)

>  <smiles>  (15) 
C=CCn1c(SCC(=O)NCc2ccccc2)nnc1-c1cccs1

>  <score_type>  (15) 
oracle

>  <origin>  (15) 
adg

>  <m_score__min__energy>  (15) 
-8.8800000000000008

>  <m_primary>  (15) 
energy

$$$$
15:0
     RDKit          3D

 66 67  0  0  0  0  0  0  0  0999 V2000
   55.9180   27.0740   45.1660 H   0  0  0  0  0  0  0  0  0  0  0  0
   55.5920   26.5830   45.9650 O   0  0  0  0  0  0  0  0  0  0  0  0
   56.7120   26.3450   46.7780 C   0  0  2  0  0  0  0  0  0  0  0  0
   56.4570   26.5903   47.8195 H   0  0  0  0  0  0  0  0  0  0  0  0
   57.8630   27.2410   46.3650 C   0  0  0  0  0  0  0  0  0  0  0  0
   58.8703   26.8004   46.3295 H   0  0  0  0  0  0  0  0  0  0  0  0
   57.7330   28.5400   46.0390 C   0  0  0  0  0  0  0  0  0  0  0  0
   57.5913   29.2676   46.8517 H   0  0  0  0  0  0  0  0  0  0  0  0
   57.7710   29.0580   44.6110 C   0  0  2  0  0  0  0  0  0  0  0  0
   58.4385   28.2705   44.2311 H   0  0  0  0  0  0  0  0  0  0  0  0
   58.1400   30.5460   44.4210 C   0  0  2  0  0  0  0  0  0  0  0  0
   59.0915   30.8035   43.9328 H   0  0  0  0  0  0  0  0  0  0  0  0
   58.4220   31.4080   45.6830 C   0  0  0  0  0  0  0  0  0  0  0  0
   58.4274   30.7370   46.5546 H   0  0  0  0  0  0  0  0  0  0  0  0
   59.3840   31.9065   45.4929 H   0  0  0  0  0  0  0  0  0  0  0  0
   57.4330   32.5210   45.9610 C   0  0  0  0  0  0  0  0  0  0  0  0
   56.5335   32.2638   46.5395 H   0  0  0  0  0  0  0  0  0  0  0  0
   57.5640   33.8010   45.5580 C   0  0  0  0  0  0  0  0  0  0  0  0
   56.6507   34.4114   45.5013 H   0  0  0  0  0  0  0  0  0  0  0  0
   58.8700   34.4620   45.1780 C   0  0  0  0  0  0  0  0  0  0  0  0
   59.5806   33.6856   44.8584 H   0  0  0  0  0  0  0  0  0  0  0  0
   58.6650   35.1746   44.3654 H   0  0  0  0  0  0  0  0  0  0  0  0
   59.4860   35.2460   46.3520 C   0  0  0  0  0  0  0  0  0  0  0  0
   60.3064   35.8652   45.9601 H   0  0  0  0  0  0  0  0  0  0  0  0
   58.6738   35.8422   46.7934 H   0  0  0  0  0  0  0  0  0  0  0  0
   60.0470   34.3600   47.4810 C   0  0  0  0  0  0  0  0  0  0  0  0
   60.0733   34.9537   48.4067 H   0  0  0  0  0  0  0  0  0  0  0  0
   59.3849   33.4851   47.5595 H   0  0  0  0  0  0  0  0  0  0  0  0
   61.4410   33.8340   47.2120 C   0  0  0  0  0  0  0  0  0  0  0  0
   61.7690   33.5480   46.0260 O   0  0  0  0  0  0  0  0  0  0  0  0
   62.4270   33.7410   48.2630 N   0  0  0  0  0  0  0  0  0  0  0  0
   63.7540   33.1940   47.9510 C   0  0  0  0  0  0  0  0  0  0  0  0
   64.2889   32.9735   48.8865 H   0  0  0  0  0  0  0  0  0  0  0  0
   63.6411   32.2691   47.3664 H   0  0  0  0  0  0  0  0  0  0  0  0
   64.3257   33.9298   47.3664 H   0  0  0  0  0  0  0  0  0  0  0  0
   62.1330   34.2160   49.6200 C   0  0  0  0  0  0  0  0  0  0  0  0
   62.5643   33.5192   50.3538 H   0  0  0  0  0  0  0  0  0  0  0  0
   62.5709   35.2151   49.7617 H   0  0  0  0  0  0  0  0  0  0  0  0
   61.0435   34.2697   49.7617 H   0  0  0  0  0  0  0  0  0  0  0  0
   56.7910   30.7860   43.7190 C   0  0  1  0  0  0  0  0  0  0  0  0
   56.1258   31.5943   44.0571 H   0  0  0  0  0  0  0  0  0  0  0  0
   56.9330   31.1520   42.2380 C   0  0  0  0  0  0  0  0  0  0  0  0
   57.3296   32.1742   42.1493 H   0  0  0  0  0  0  0  0  0  0  0  0
   57.6230   30.4474   41.7507 H   0  0  0  0  0  0  0  0  0  0  0  0
   55.9483   31.0972   41.7507 H   0  0  0  0  0  0  0  0  0  0  0  0
   56.4090   29.3180   43.9410 C   0  0  2  0  0  0  0  0  0  0  0  0
   56.0841   28.6780   43.1074 H   0  0  0  0  0  0  0  0  0  0  0  0
   55.3170   29.1940   44.8140 O   0  0  0  0  0  0  0  0  0  0  0  0
   55.1480   28.2200   44.9030 H   0  0  0  0  0  0  0  0  0  0  0  0
   57.1040   24.8470   46.7380 C   0  0  0  0  0  0  0  0  0  0  0  0
   57.5323   24.5803   47.7155 H   0  0  0  0  0  0  0  0  0  0  0  0
   56.1831   24.2950   46.4988 H   0  0  0  0  0  0  0  0  0  0  0  0
   58.1280   24.4690   45.6480 C   0  0  0  0  0  0  0  0  0  0  0  0
   58.4458   25.3869   45.1319 H   0  0  0  0  0  0  0  0  0  0  0  0
   58.9699   23.9666   46.1468 H   0  0  0  0  0  0  0  0  0  0  0  0
   57.5720   23.5110   44.6260 C   0  0  0  0  0  0  0  0  0  0  0  0
   58.2020   22.2760   44.3950 C   0  0  0  0  0  0  0  0  0  0  0  0
   59.0768   21.9862   44.9956 H   0  0  0  0  0  0  0  0  0  0  0  0
   57.7210   21.4150   43.4050 C   0  0  0  0  0  0  0  0  0  0  0  0
   58.2199   20.4511   43.2263 H   0  0  0  0  0  0  0  0  0  0  0  0
   56.6070   21.7760   42.6410 C   0  0  0  0  0  0  0  0  0  0  0  0
   56.2329   21.0985   41.8593 H   0  0  0  0  0  0  0  0  0  0  0  0
   55.9690   22.9980   42.8710 C   0  0  0  0  0  0  0  0  0  0  0  0
   55.0898   23.2800   42.2730 H   0  0  0  0  0  0  0  0  0  0  0  0
   56.4470   23.8620   43.8600 C   0  0  0  0  0  0  0  0  0  0  0  0
   55.9402   24.8216   44.0399 H   0  0  0  0  0  0  0  0  0  0  0  0
  1  2  1  0
  2  3  1  0
  3  4  1  1
  3  5  1  0
  5  6  1  0
  5  7  2  3
  7  8  1  0
  7  9  1  0
  9 10  1  6
  9 11  1  0
 11 12  1  6
 11 13  1  0
 13 14  1  0
 13 15  1  0
 13 16  1  0
 16 17  1  0
 16 18  2  0
 18 19  1  0
 18 20  1  0
 20 21  1  0
 20 22  1  0
 20 23  1  0
 23 24  1  0
 23 25  1  0
 23 26  1  0
 26 27  1  0
 26 28  1  0
 26 29  1  0
 29 30  2  0
 29 31  1  0
 31 32  1  0
 32 33  1  0
 32 34  1  0
 32 35  1  0
 31 36  1  0
 36 37  1  0
 36 38  1  0
 36 39  1  0
 11 40  1  0
 40 41  1  1
 40 42  1  0
 42 43  1  0
 42 44  1  0
 42 45  1  0
 40 46  1  0
 46 47  1  6
 46 48  1  0
 48 49  1  0
  3 50  1  0
 50 51  1  0
 50 52  1  0
 50 53  1  0
 53 54  1  0
 53 55  1  0
 53 56  1  0
 56 57  2  0
 57 58  1  0
 57 59  1  0
 59 60  1  0
 59 61  2  0
 61 62  1  0
 61 63  1  0
 63 64  1  0
 63 65  2  0
 65 66  1  0
 46  9  1  0
 65 56  1  0
M  END
>  <UniqueID>  (16) 
14

>  <SMILES>  (16) 
C[C@@H]1C(C/C=C\CCCC(=O)N(C)C)C(C=CC(O)CCc2ccccc2)[C@H]1O

>  <Energy>  (16) 
120.68156428182432

>  <Genealogy>  (16) 
C[C@@H]1C(CC=CCCCC(=O)N(C)C)C(C=CC(O)CCc2ccccc2)[C@H]1O (chirality)
C[C@@H]1C(C/C=C\CCCC(=O)N(C)C)C(C=CC(O)CCc2ccccc2)[C@H]1O (cis-trans isomerization)
C[C@@H]1C(C/C=C\CCCC(=O)N(C)C)C(C=CC(O)CCc2ccccc2)[C@H]1O (3D coordinates assigned)
C[C@@H]1C(C/C=C\CCCC(=O)N(C)C)C(C=CC(O)CCc2ccccc2)[C@H]1O (nonaromatic ring conformer: 120.68156428182432 kcal/mol)

>  <smiles>  (16) 
CC1C(O)C(C=CC(O)CCc2ccccc2)C1CC=CCCCC(=O)N(C)C

>  <score_type>  (16) 
oracle

>  <origin>  (16) 
adg

>  <m_score__min__energy>  (16) 
-10.529999999999999

>  <m_primary>  (16) 
energy

$$$$
16:0
     RDKit          3D

 47 47  0  0  0  0  0  0  0  0999 V2000
   56.2850   22.9060   42.9840 C   0  0  0  0  0  0  0  0  0  0  0  0
   56.6550   24.2640   43.5640 C   0  0  0  0  0  0  0  0  0  0  0  0
   57.1860   24.0840   44.9360 N   0  0  0  0  0  0  0  0  0  0  0  0
   58.0980   22.9280   45.0710 C   0  0  0  0  0  0  0  0  0  0  0  0
   57.4550   21.8270   45.9110 C   0  0  0  0  0  0  0  0  0  0  0  0
   56.1320   24.1100   45.9750 C   0  0  0  0  0  0  0  0  0  0  0  0
   54.8970   24.9480   45.5840 C   0  0  0  0  0  0  0  0  0  0  0  0
   55.0700   26.3300   46.0220 N   0  0  0  0  0  0  0  0  0  0  0  0
   56.2770   27.0960   45.9040 C   0  0  0  0  0  0  0  0  0  0  0  0
   56.2460   28.1760   45.2560 O   0  0  0  0  0  0  0  0  0  0  0  0
   57.5600   26.6820   46.5740 C   0  0  0  0  0  0  0  0  0  0  0  0
   58.7140   27.0340   45.7360 N   0  0  0  0  0  0  0  0  0  0  0  0
   59.7610   27.6990   46.5220 C   0  0  0  0  0  0  0  0  0  0  0  0
   59.7460   29.1700   46.2430 C   0  0  0  0  0  0  0  0  0  0  0  0
   60.7960   29.8410   46.4320 O   0  0  0  0  0  0  0  0  0  0  0  0
   58.5660   29.7930   45.7090 N   0  0  0  0  0  0  0  0  0  0  0  0
   58.3870   31.2180   45.6140 C   0  0  0  0  0  0  0  0  0  0  0  0
   58.9340   32.0770   46.5880 C   0  0  0  0  0  0  0  0  0  0  0  0
   58.7350   33.4590   46.5080 C   0  0  0  0  0  0  0  0  0  0  0  0
   59.4300   34.5170   47.7220 Cl  0  0  0  0  0  0  0  0  0  0  0  0
   57.9750   33.9970   45.4670 C   0  0  0  0  0  0  0  0  0  0  0  0
   57.4110   33.1550   44.5080 C   0  0  0  0  0  0  0  0  0  0  0  0
   57.6080   31.7710   44.5760 C   0  0  0  0  0  0  0  0  0  0  0  0
   56.8900   30.7590   43.3300 Cl  0  0  0  0  0  0  0  0  0  0  0  0
   56.0920   22.1977   43.8032 H   0  0  0  0  0  0  0  0  0  0  0  0
   55.3813   23.0056   42.3649 H   0  0  0  0  0  0  0  0  0  0  0  0
   57.1144   22.5334   42.3649 H   0  0  0  0  0  0  0  0  0  0  0  0
   57.4219   24.7364   42.9325 H   0  0  0  0  0  0  0  0  0  0  0  0
   55.7623   24.9058   43.5963 H   0  0  0  0  0  0  0  0  0  0  0  0
   58.3282   22.5312   44.0712 H   0  0  0  0  0  0  0  0  0  0  0  0
   59.0192   23.2614   45.5713 H   0  0  0  0  0  0  0  0  0  0  0  0
   57.5883   22.0553   46.9788 H   0  0  0  0  0  0  0  0  0  0  0  0
   56.3811   21.7692   45.6797 H   0  0  0  0  0  0  0  0  0  0  0  0
   57.9323   20.8633   45.6797 H   0  0  0  0  0  0  0  0  0  0  0  0
   55.8051   23.0769   46.1641 H   0  0  0  0  0  0  0  0  0  0  0  0
   56.5710   24.5809   46.8669 H   0  0  0  0  0  0  0  0  0  0  0  0
   54.7730   24.9254   44.4912 H   0  0  0  0  0  0  0  0  0  0  0  0
   54.0058   24.5248   46.0704 H   0  0  0  0  0  0  0  0  0  0  0  0
   57.6453   27.1967   47.5424 H   0  0  0  0  0  0  0  0  0  0  0  0
   57.5479   25.5923   46.7239 H   0  0  0  0  0  0  0  0  0  0  0  0
   58.3820   27.7120   45.0100 H   0  0  0  0  0  0  0  0  0  0  0  0
   59.5777   27.5284   47.5931 H   0  0  0  0  0  0  0  0  0  0  0  0
   60.7419   27.2861   46.2440 H   0  0  0  0  0  0  0  0  0  0  0  0
   57.8170   29.1710   45.3320 H   0  0  0  0  0  0  0  0  0  0  0  0
   59.5220   31.6573   47.4176 H   0  0  0  0  0  0  0  0  0  0  0  0
   57.8211   35.0843   45.4032 H   0  0  0  0  0  0  0  0  0  0  0  0
   56.8076   33.5817   43.6932 H   0  0  0  0  0  0  0  0  0  0  0  0
  1  2  1  0
  2  3  1  0
  3  4  1  0
  4  5  1  0
  3  6  1  0
  6  7  1  0
  7  8  1  0
  8  9  1  0
  9 10  2  0
  9 11  1  0
 11 12  1  0
 12 13  1  0
 13 14  1  0
 14 15  2  0
 14 16  1  0
 16 17  1  0
 17 18  2  0
 18 19  1  0
 19 20  1  0
 19 21  2  0
 21 22  1  0
 22 23  2  0
 23 24  1  0
 23 17  1  0
  1 25  1  0
  1 26  1  0
  1 27  1  0
  2 28  1  0
  2 29  1  0
  4 30  1  0
  4 31  1  0
  5 32  1  0
  5 33  1  0
  5 34  1  0
  6 35  1  0
  6 36  1  0
  7 37  1  0
  7 38  1  0
 11 39  1  0
 11 40  1  0
 12 41  1  0
 13 42  1  0
 13 43  1  0
 16 44  1  0
 18 45  1  0
 21 46  1  0
 22 47  1  0
M  CHG  1   8  -1
M  END
>  <UniqueID>  (17) 
15

>  <SMILES>  (17) 
CCN(CC)CC[N-]C(=O)CNCC(=O)Nc1cc(Cl)ccc1Cl

>  <Energy>  (17) 
44.53034402703207

>  <Genealogy>  (17) 
CCN(CC)CC[N-]C(=O)CNCC(=O)Nc1cc(Cl)ccc1Cl (protonated)
CCN(CC)CC[N-]C(=O)CNCC(=O)Nc1cc(Cl)ccc1Cl (3D coordinates assigned)
CCN(CC)CC[N-]C(=O)CNCC(=O)Nc1cc(Cl)ccc1Cl (optimized conformer: 44.53034402703207 kcal/mol)

>  <smiles>  (17) 
CCN(CC)CCNC(=O)CNCC(=O)Nc1cc(Cl)ccc1Cl

>  <score_type>  (17) 
oracle

>  <origin>  (17) 
adg

>  <m_score__min__energy>  (17) 
-9.4000000000000004

>  <m_primary>  (17) 
energy

$$$$
17:0
     RDKit          3D

 62 64  0  0  0  0  0  0  0  0999 V2000
   54.1960   24.4760   45.5930 C   0  0  0  0  0  0  0  0  0  0  0  0
   54.4530   23.4070   44.5340 C   0  0  0  0  0  0  0  0  0  0  0  0
   55.8750   23.0000   44.5550 N   0  0  0  0  0  0  0  0  0  0  0  0
   56.4150   22.8340   43.1850 C   0  0  0  0  0  0  0  0  0  0  0  0
   57.1000   21.4800   43.0000 C   0  0  0  0  0  0  0  0  0  0  0  0
   56.1190   21.8420   45.4520 C   0  0  0  0  0  0  0  0  0  0  0  0
   56.5230   22.2210   46.8880 C   0  0  0  0  0  0  0  0  0  0  0  0
   57.6830   23.0480   46.8670 O   0  0  0  0  0  0  0  0  0  0  0  0
   57.6960   24.3920   46.4650 C   0  0  0  0  0  0  0  0  0  0  0  0
   56.9750   25.3900   47.1460 C   0  0  0  0  0  0  0  0  0  0  0  0
   57.0260   26.7170   46.7090 C   0  0  0  0  0  0  0  0  0  0  0  0
   57.7980   27.0720   45.5890 C   0  0  0  0  0  0  0  0  0  0  0  0
   57.8630   28.4850   45.1350 C   0  0  0  0  0  0  0  0  0  0  0  0
   56.9670   28.9640   44.1620 C   0  0  0  0  0  0  0  0  0  0  0  0
   57.0350   30.2900   43.7270 C   0  0  0  0  0  0  0  0  0  0  0  0
   57.9890   31.1650   44.2650 C   0  0  0  0  0  0  0  0  0  0  0  0
   58.0900   32.5820   43.7610 C   0  0  0  0  0  0  0  0  0  0  0  0
   57.6010   33.5240   44.7800 N   0  0  0  0  0  0  0  0  0  0  0  0
   58.5590   34.6160   45.0260 C   0  0  0  0  0  0  0  0  0  0  0  0
   59.4570   34.3240   46.2050 C   0  0  0  0  0  0  0  0  0  0  0  0
   58.9980   34.5220   47.5180 C   0  0  0  0  0  0  0  0  0  0  0  0
   59.8390   34.2680   48.6050 C   0  0  0  0  0  0  0  0  0  0  0  0
   61.1460   33.8190   48.3890 C   0  0  0  0  0  0  0  0  0  0  0  0
   61.9630   33.5780   49.4450 F   0  0  0  0  0  0  0  0  0  0  0  0
   61.6120   33.6250   47.0860 C   0  0  0  0  0  0  0  0  0  0  0  0
   60.7730   33.8780   45.9970 C   0  0  0  0  0  0  0  0  0  0  0  0
   58.8910   30.6900   45.2280 C   0  0  0  0  0  0  0  0  0  0  0  0
   58.8260   29.3630   45.6640 C   0  0  0  0  0  0  0  0  0  0  0  0
   58.5130   26.0700   44.9120 C   0  0  0  0  0  0  0  0  0  0  0  0
   58.4590   24.7430   45.3470 C   0  0  0  0  0  0  0  0  0  0  0  0
   54.3024   24.0332   46.5943 H   0  0  0  0  0  0  0  0  0  0  0  0
   54.9234   25.2925   45.4739 H   0  0  0  0  0  0  0  0  0  0  0  0
   53.1769   24.8726   45.4739 H   0  0  0  0  0  0  0  0  0  0  0  0
   53.8210   22.5308   44.7410 H   0  0  0  0  0  0  0  0  0  0  0  0
   54.2114   23.8179   43.5426 H   0  0  0  0  0  0  0  0  0  0  0  0
   55.5875   22.9148   42.4648 H   0  0  0  0  0  0  0  0  0  0  0  0
   57.1658   23.6204   43.0180 H   0  0  0  0  0  0  0  0  0  0  0  0
   57.3210   21.0432   43.9851 H   0  0  0  0  0  0  0  0  0  0  0  0
   56.4346   20.8058   42.4409 H   0  0  0  0  0  0  0  0  0  0  0  0
   58.0374   21.6167   42.4409 H   0  0  0  0  0  0  0  0  0  0  0  0
   55.1965   21.2449   45.5009 H   0  0  0  0  0  0  0  0  0  0  0  0
   56.9676   21.2882   45.0241 H   0  0  0  0  0  0  0  0  0  0  0  0
   55.6961   22.7658   47.3670 H   0  0  0  0  0  0  0  0  0  0  0  0
   56.7441   21.3042   47.4542 H   0  0  0  0  0  0  0  0  0  0  0  0
   56.3692   25.1253   48.0252 H   0  0  0  0  0  0  0  0  0  0  0  0
   56.4571   27.4901   47.2462 H   0  0  0  0  0  0  0  0  0  0  0  0
   56.2071   28.2895   43.7405 H   0  0  0  0  0  0  0  0  0  0  0  0
   56.3357   30.6495   42.9577 H   0  0  0  0  0  0  0  0  0  0  0  0
   59.1409   32.8108   43.5303 H   0  0  0  0  0  0  0  0  0  0  0  0
   57.4739   32.6838   42.8555 H   0  0  0  0  0  0  0  0  0  0  0  0
   56.7060   33.9510   44.4430 H   0  0  0  0  0  0  0  0  0  0  0  0
   57.4050   33.0140   45.6730 H   0  0  0  0  0  0  0  0  0  0  0  0
   59.1820   34.7509   44.1295 H   0  0  0  0  0  0  0  0  0  0  0  0
   57.9858   35.5272   45.2521 H   0  0  0  0  0  0  0  0  0  0  0  0
   57.9719   34.8786   47.6913 H   0  0  0  0  0  0  0  0  0  0  0  0
   59.4729   34.4213   49.6309 H   0  0  0  0  0  0  0  0  0  0  0  0
   62.6403   33.2728   46.9171 H   0  0  0  0  0  0  0  0  0  0  0  0
   61.1447   33.7273   44.9727 H   0  0  0  0  0  0  0  0  0  0  0  0
   59.6540   31.3652   45.6427 H   0  0  0  0  0  0  0  0  0  0  0  0
   59.5330   29.0033   46.4261 H   0  0  0  0  0  0  0  0  0  0  0  0
   59.1200   26.3319   44.0328 H   0  0  0  0  0  0  0  0  0  0  0  0
   59.0214   23.9682   44.8054 H   0  0  0  0  0  0  0  0  0  0  0  0
  1  2  1  0
  2  3  1  0
  3  4  1  0
  4  5  1  0
  3  6  1  0
  6  7  1  0
  7  8  1  0
  8  9  1  0
  9 10  2  0
 10 11  1  0
 11 12  2  0
 12 13  1  0
 13 14  2  0
 14 15  1  0
 15 16  2  0
 16 17  1  0
 17 18  1  0
 18 19  1  0
 19 20  1  0
 20 21  2  0
 21 22  1  0
 22 23  2  0
 23 24  1  0
 23 25  1  0
 25 26  2  0
 16 27  1  0
 27 28  2  0
 12 29  1  0
 29 30  2  0
 30  9  1  0
 28 13  1  0
 26 20  1  0
  1 31  1  0
  1 32  1  0
  1 33  1  0
  2 34  1  0
  2 35  1  0
  4 36  1  0
  4 37  1  0
  5 38  1  0
  5 39  1  0
  5 40  1  0
  6 41  1  0
  6 42  1  0
  7 43  1  0
  7 44  1  0
 10 45  1  0
 11 46  1  0
 14 47  1  0
 15 48  1  0
 17 49  1  0
 17 50  1  0
 18 51  1  0
 18 52  1  0
 19 53  1  0
 19 54  1  0
 21 55  1  0
 22 56  1  0
 25 57  1  0
 26 58  1  0
 27 59  1  0
 28 60  1  0
 29 61  1  0
 30 62  1  0
M  CHG  1  18   1
M  END
>  <UniqueID>  (18) 
16

>  <SMILES>  (18) 
CCN(CC)CCOc1ccc(-c2ccc(C[NH2+]Cc3ccc(F)cc3)cc2)cc1

>  <Energy>  (18) 
67.87876420317431

>  <Genealogy>  (18) 
CCN(CC)CCOc1ccc(-c2ccc(C[NH2+]Cc3ccc(F)cc3)cc2)cc1 (protonated)
CCN(CC)CCOc1ccc(-c2ccc(C[NH2+]Cc3ccc(F)cc3)cc2)cc1 (3D coordinates assigned)
CCN(CC)CCOc1ccc(-c2ccc(C[NH2+]Cc3ccc(F)cc3)cc2)cc1 (optimized conformer: 67.87876420317431 kcal/mol)

>  <smiles>  (18) 
CCN(CC)CCOc1ccc(-c2ccc(CNCc3ccc(F)cc3)cc2)cc1

>  <score_type>  (18) 
oracle

>  <origin>  (18) 
adg

>  <m_score__min__energy>  (18) 
-6.4699999999999998

>  <m_primary>  (18) 
energy

$$$$
18:0
     RDKit          3D

 46 48  0  0  0  0  0  0  0  0999 V2000
   59.1440   28.5550   46.9970 H   0  0  0  0  0  0  0  0  0  0  0  0
   58.7100   29.4710   47.2420 N   0  0  0  0  0  0  0  0  0  0  0  0
   58.0900   30.2150   46.3810 C   0  0  0  0  0  0  0  0  0  0  0  0
   58.1890   31.5770   46.2830 C   0  0  0  0  0  0  0  0  0  0  0  0
   57.3890   31.9240   45.2380 C   0  0  0  0  0  0  0  0  0  0  0  0
   56.8130   30.8290   44.7020 N   0  0  0  0  0  0  0  0  0  0  0  0
   57.2410   29.7830   45.4080 N   0  0  0  0  0  0  0  0  0  0  0  0
   56.8560   28.4060   45.0900 C   0  0  0  0  0  0  0  0  0  0  0  0
   56.7881   27.8269   46.0227 H   0  0  0  0  0  0  0  0  0  0  0  0
   55.8837   28.4236   44.5759 H   0  0  0  0  0  0  0  0  0  0  0  0
   57.8870   27.7470   44.1640 C   0  0  0  0  0  0  0  0  0  0  0  0
   57.3531   27.1910   43.3793 H   0  0  0  0  0  0  0  0  0  0  0  0
   58.5132   28.5442   43.7369 H   0  0  0  0  0  0  0  0  0  0  0  0
   58.8100   26.7770   44.9150 C   0  0  0  0  0  0  0  0  0  0  0  0
   58.2049   26.1497   45.5861 H   0  0  0  0  0  0  0  0  0  0  0  0
   59.3382   26.1517   44.1801 H   0  0  0  0  0  0  0  0  0  0  0  0
   59.8100   27.5180   45.7140 N   0  0  0  0  0  0  0  0  0  0  0  0
   60.7510   26.5960   46.3760 C   0  0  0  0  0  0  0  0  0  0  0  0
   60.6524   26.6926   47.4673 H   0  0  0  0  0  0  0  0  0  0  0  0
   60.5227   25.5622   46.0773 H   0  0  0  0  0  0  0  0  0  0  0  0
   61.7799   26.8453   46.0773 H   0  0  0  0  0  0  0  0  0  0  0  0
   60.5630   28.4450   44.8520 C   0  0  0  0  0  0  0  0  0  0  0  0
   61.1331   29.1469   45.4783 H   0  0  0  0  0  0  0  0  0  0  0  0
   61.2562   27.8739   44.2169 H   0  0  0  0  0  0  0  0  0  0  0  0
   59.8620   29.0065   44.2169 H   0  0  0  0  0  0  0  0  0  0  0  0
   57.2460   33.2500   44.8590 C   0  0  0  0  0  0  0  0  0  0  0  0
   56.5975   33.5389   44.0188 H   0  0  0  0  0  0  0  0  0  0  0  0
   57.9650   34.2110   45.5940 C   0  0  0  0  0  0  0  0  0  0  0  0
   57.8771   35.2763   45.3345 H   0  0  0  0  0  0  0  0  0  0  0  0
   58.8050   33.8120   46.6710 C   0  0  0  0  0  0  0  0  0  0  0  0
   59.5360   34.8580   47.4210 C   0  0  0  0  0  0  0  0  0  0  0  0
   59.2339   35.9066   47.2825 H   0  0  0  0  0  0  0  0  0  0  0  0
   60.5480   34.5930   48.2610 C   0  0  0  0  0  0  0  0  0  0  0  0
   60.6298   35.1727   49.1923 H   0  0  0  0  0  0  0  0  0  0  0  0
   61.5570   33.5500   47.9800 C   0  0  0  0  0  0  0  0  0  0  0  0
   61.3360   32.2520   48.3350 N   0  0  0  0  0  0  0  0  0  0  0  0
   62.2460   31.2730   48.0870 C   0  0  0  0  0  0  0  0  0  0  0  0
   62.0339   30.2365   48.3883 H   0  0  0  0  0  0  0  0  0  0  0  0
   63.4500   31.5820   47.4500 C   0  0  0  0  0  0  0  0  0  0  0  0
   64.1900   30.7941   47.2464 H   0  0  0  0  0  0  0  0  0  0  0  0
   63.7030   32.9020   47.0750 C   0  0  0  0  0  0  0  0  0  0  0  0
   64.6469   33.1611   46.5731 H   0  0  0  0  0  0  0  0  0  0  0  0
   62.7560   33.8930   47.3380 C   0  0  0  0  0  0  0  0  0  0  0  0
   62.9485   34.9353   47.0440 H   0  0  0  0  0  0  0  0  0  0  0  0
   58.8940   32.4810   47.0080 N   0  0  0  0  0  0  0  0  0  0  0  0
   59.4630   32.1510   47.8190 H   0  0  0  0  0  0  0  0  0  0  0  0
  1  2  1  0
  2  3  2  0
  3  4  1  0
  4  5  2  0
  5  6  1  0
  6  7  1  0
  7  8  1  0
  8  9  1  0
  8 10  1  0
  8 11  1  0
 11 12  1  0
 11 13  1  0
 11 14  1  0
 14 15  1  0
 14 16  1  0
 14 17  1  0
 17 18  1  0
 18 19  1  0
 18 20  1  0
 18 21  1  0
 17 22  1  0
 22 23  1  0
 22 24  1  0
 22 25  1  0
  5 26  1  0
 26 27  1  0
 26 28  2  0
 28 29  1  0
 28 30  1  0
 30 31  1  0
 31 32  1  0
 31 33  2  0
 33 34  1  0
 33 35  1  0
 35 36  2  0
 36 37  1  0
 37 38  1  0
 37 39  2  0
 39 40  1  0
 39 41  1  0
 41 42  1  0
 41 43  2  0
 43 44  1  0
 30 45  2  0
 45 46  1  0
  7  3  1  0
 43 35  1  0
 45  4  1  0
M  CHG  2   6  -1  45   1
M  END
>  <UniqueID>  (19) 
17

>  <SMILES>  (19) 
[H]/N=c1/c2[nH+]c(/C=C/c3ccccn3)ccc2[n-]n1CCCN(C)C

>  <Energy>  (19) 
90.09798472637272

>  <Genealogy>  (19) 
CN(C)CCCn1[n-]c2ccc(C=Cc3ccccn3)[nH+]c2c1=N (protonated)
[H]/N=c1/c2[nH+]c(/C=C/c3ccccn3)ccc2[n-]n1CCCN(C)C (cis-trans isomerization)
[H]/N=c1/c2[nH+]c(/C=C/c3ccccn3)ccc2[n-]n1CCCN(C)C (3D coordinates assigned)
[H]/N=c1/c2[nH+]c(/C=C/c3ccccn3)ccc2[n-]n1CCCN(C)C (optimized conformer: 90.09798472637272 kcal/mol)

>  <smiles>  (19) 
CN(C)CCCn1[nH]c2ccc(C=Cc3ccccn3)nc2c1=N

>  <score_type>  (19) 
oracle

>  <origin>  (19) 
adg

>  <m_score__min__energy>  (19) 
-6.5700000000000003

>  <m_primary>  (19) 
energy

$$$$
19:0
     RDKit          3D

 41 42  0  0  0  0  0  0  0  0999 V2000
   62.6660   33.1800   47.1680 C   0  0  0  0  0  0  0  0  0  0  0  0
   61.6060   33.8410   48.0450 C   0  0  0  0  0  0  0  0  0  0  0  0
   60.3240   33.1240   47.9650 N   0  0  0  0  0  0  0  0  0  0  0  0
   60.0650   32.0060   48.8900 C   0  0  0  0  0  0  0  0  0  0  0  0
   60.5540   30.6740   48.3120 C   0  0  0  0  0  0  0  0  0  0  0  0
   59.4830   30.0310   47.5380 N   0  0  0  0  0  0  0  0  0  0  0  0
   59.7950   29.9800   46.1020 C   0  0  0  0  0  0  0  0  0  0  0  0
   58.5520   30.0640   45.2490 C   0  0  0  0  0  0  0  0  0  0  0  0
   57.4340   29.2640   45.5390 C   0  0  0  0  0  0  0  0  0  0  0  0
   56.2760   29.3630   44.7620 C   0  0  0  0  0  0  0  0  0  0  0  0
   56.2240   30.2630   43.6940 C   0  0  0  0  0  0  0  0  0  0  0  0
   57.3300   31.0670   43.4030 C   0  0  0  0  0  0  0  0  0  0  0  0
   58.4900   30.9710   44.1780 C   0  0  0  0  0  0  0  0  0  0  0  0
   59.3560   33.4840   46.9520 C   0  0  0  0  0  0  0  0  0  0  0  0
   58.0100   33.0890   47.0700 C   0  0  0  0  0  0  0  0  0  0  0  0
   57.0770   33.4530   46.0940 C   0  0  0  0  0  0  0  0  0  0  0  0
   57.4760   34.2140   44.9930 C   0  0  0  0  0  0  0  0  0  0  0  0
   58.8080   34.6100   44.8630 C   0  0  0  0  0  0  0  0  0  0  0  0
   59.7450   34.2480   45.8360 C   0  0  0  0  0  0  0  0  0  0  0  0
   63.4263   32.7059   47.8061 H   0  0  0  0  0  0  0  0  0  0  0  0
   62.1926   32.4168   46.5329 H   0  0  0  0  0  0  0  0  0  0  0  0
   63.1431   33.9410   46.5329 H   0  0  0  0  0  0  0  0  0  0  0  0
   61.9528   33.8398   49.0889 H   0  0  0  0  0  0  0  0  0  0  0  0
   61.4516   34.8698   47.6877 H   0  0  0  0  0  0  0  0  0  0  0  0
   60.5887   32.1979   49.8381 H   0  0  0  0  0  0  0  0  0  0  0  0
   58.9790   31.9349   49.0498 H   0  0  0  0  0  0  0  0  0  0  0  0
   61.4165   30.8583   47.6547 H   0  0  0  0  0  0  0  0  0  0  0  0
   60.8462   30.0103   49.1392 H   0  0  0  0  0  0  0  0  0  0  0  0
   59.3450   29.0560   47.8950 H   0  0  0  0  0  0  0  0  0  0  0  0
   60.4549   30.8238   45.8519 H   0  0  0  0  0  0  0  0  0  0  0  0
   60.2843   29.0168   45.8950 H   0  0  0  0  0  0  0  0  0  0  0  0
   57.4700   28.5569   46.3808 H   0  0  0  0  0  0  0  0  0  0  0  0
   55.4048   28.7318   44.9915 H   0  0  0  0  0  0  0  0  0  0  0  0
   55.3128   30.3387   43.0824 H   0  0  0  0  0  0  0  0  0  0  0  0
   57.2877   31.7762   42.5632 H   0  0  0  0  0  0  0  0  0  0  0  0
   59.3569   31.6079   43.9482 H   0  0  0  0  0  0  0  0  0  0  0  0
   57.6901   32.4902   47.9355 H   0  0  0  0  0  0  0  0  0  0  0  0
   56.0273   33.1395   46.1936 H   0  0  0  0  0  0  0  0  0  0  0  0
   56.7400   34.5015   44.2278 H   0  0  0  0  0  0  0  0  0  0  0  0
   59.1212   35.2076   43.9942 H   0  0  0  0  0  0  0  0  0  0  0  0
   60.7935   34.5627   45.7283 H   0  0  0  0  0  0  0  0  0  0  0  0
  1  2  1  0
  2  3  1  0
  3  4  1  0
  4  5  1  0
  5  6  1  0
  6  7  1  0
  7  8  1  0
  8  9  2  0
  9 10  1  0
 10 11  2  0
 11 12  1  0
 12 13  2  0
  3 14  1  0
 14 15  2  0
 15 16  1  0
 16 17  2  0
 17 18  1  0
 18 19  2  0
 13  8  1  0
 19 14  1  0
  1 20  1  0
  1 21  1  0
  1 22  1  0
  2 23  1  0
  2 24  1  0
  4 25  1  0
  4 26  1  0
  5 27  1  0
  5 28  1  0
  6 29  1  0
  7 30  1  0
  7 31  1  0
  9 32  1  0
 10 33  1  0
 11 34  1  0
 12 35  1  0
 13 36  1  0
 15 37  1  0
 16 38  1  0
 17 39  1  0
 18 40  1  0
 19 41  1  0
M  END
>  <UniqueID>  (20) 
18

>  <SMILES>  (20) 
CCN(CCNCc1ccccc1)c1ccccc1

>  <Energy>  (20) 
37.960761726553066

>  <Genealogy>  (20) 
CCN(CCNCc1ccccc1)c1ccccc1 (3D coordinates assigned)
CCN(CCNCc1ccccc1)c1ccccc1 (optimized conformer: 37.960761726553066 kcal/mol)

>  <smiles>  (20) 
CCN(CCNCc1ccccc1)c1ccccc1

>  <score_type>  (20) 
oracle

>  <origin>  (20) 
adg

>  <m_score__min__energy>  (20) 
-6.4199999999999999

>  <m_primary>  (20) 
energy

$$$$
20:0
     RDKit          3D

 31 31  0  0  0  0  0  0  0  0999 V2000
   59.1873   34.8236   49.5844 H   0  0  0  0  0  0  0  0  0  0  0  0
   59.7040   34.2350   48.8120 C   0  0  0  0  0  0  0  0  0  0  0  0
   60.8100   33.5660   49.1750 C   0  0  0  0  0  0  0  0  0  0  0  0
   60.6737   32.6298   49.7362 H   0  0  0  0  0  0  0  0  0  0  0  0
   62.2330   33.9980   48.8730 C   0  0  0  0  0  0  0  0  0  0  0  0
   62.7934   34.0315   49.8190 H   0  0  0  0  0  0  0  0  0  0  0  0
   62.1722   34.9817   48.3845 H   0  0  0  0  0  0  0  0  0  0  0  0
   62.9520   33.0890   47.9320 N   0  0  0  0  0  0  0  0  0  0  0  0
   62.0950   31.9470   47.5340 C   0  0  0  0  0  0  0  0  0  0  0  0
   61.7159   31.4418   48.4346 H   0  0  0  0  0  0  0  0  0  0  0  0
   61.2482   32.3150   46.9360 H   0  0  0  0  0  0  0  0  0  0  0  0
   62.6849   31.2368   46.9360 H   0  0  0  0  0  0  0  0  0  0  0  0
   63.3930   33.8220   46.7210 C   0  0  0  0  0  0  0  0  0  0  0  0
   63.9388   34.7291   47.0199 H   0  0  0  0  0  0  0  0  0  0  0  0
   64.0533   33.1773   46.1223 H   0  0  0  0  0  0  0  0  0  0  0  0
   62.5141   34.1034   46.1223 H   0  0  0  0  0  0  0  0  0  0  0  0
   64.1520   32.5580   48.6210 C   0  0  0  0  0  0  0  0  0  0  0  0
   64.0080   32.6217   49.7097 H   0  0  0  0  0  0  0  0  0  0  0  0
   64.3059   31.5078   48.3323 H   0  0  0  0  0  0  0  0  0  0  0  0
   65.0328   33.1504   48.3323 H   0  0  0  0  0  0  0  0  0  0  0  0
   59.1320   34.2380   47.4540 C   0  0  0  0  0  0  0  0  0  0  0  0
   59.7750   34.9600   46.4360 C   0  0  0  0  0  0  0  0  0  0  0  0
   60.6826   35.5384   46.6632 H   0  0  0  0  0  0  0  0  0  0  0  0
   59.2650   34.9460   45.1340 C   0  0  0  0  0  0  0  0  0  0  0  0
   59.7623   35.5267   44.3431 H   0  0  0  0  0  0  0  0  0  0  0  0
   58.1240   34.1950   44.8360 C   0  0  0  0  0  0  0  0  0  0  0  0
   57.7201   34.1910   43.8128 H   0  0  0  0  0  0  0  0  0  0  0  0
   57.4970   33.4500   45.8370 C   0  0  0  0  0  0  0  0  0  0  0  0
   56.6031   32.8544   45.5999 H   0  0  0  0  0  0  0  0  0  0  0  0
   58.0040   33.4600   47.1410 C   0  0  0  0  0  0  0  0  0  0  0  0
   57.5187   32.8576   47.9231 H   0  0  0  0  0  0  0  0  0  0  0  0
  1  2  1  0
  2  3  2  0
  3  4  1  0
  3  5  1  0
  5  6  1  0
  5  7  1  0
  5  8  1  0
  8  9  1  0
  9 10  1  0
  9 11  1  0
  9 12  1  0
  8 13  1  0
 13 14  1  0
 13 15  1  0
 13 16  1  0
  8 17  1  0
 17 18  1  0
 17 19  1  0
 17 20  1  0
  2 21  1  0
 21 22  2  0
 22 23  1  0
 22 24  1  0
 24 25  1  0
 24 26  2  0
 26 27  1  0
 26 28  1  0
 28 29  1  0
 28 30  2  0
 30 31  1  0
 30 21  1  0
M  CHG  1   8   1
M  END
>  <UniqueID>  (21) 
19

>  <SMILES>  (21) 
C[N+](C)(C)C/C=C\c1ccccc1

>  <Energy>  (21) 
40.048330850935685

>  <Genealogy>  (21) 
C[N+](C)(C)C/C=C\c1ccccc1 (cis-trans isomerization)
C[N+](C)(C)C/C=C\c1ccccc1 (3D coordinates assigned)
C[N+](C)(C)C/C=C\c1ccccc1 (optimized conformer: 40.048330850935685 kcal/mol)

>  <smiles>  (21) 
C[N+](C)(C)CC=Cc1ccccc1

>  <score_type>  (21) 
oracle

>  <origin>  (21) 
adg

>  <m_score__min__energy>  (21) 
-3.71

>  <m_primary>  (21) 
energy

$$$$
21:0
     RDKit          3D

 36 38  0  0  0  0  0  0  0  0999 V2000
   56.2770   29.9120   45.0000 O   0  0  0  0  0  0  0  0  0  0  0  0
   57.4100   30.3570   44.6670 C   0  0  0  0  0  0  0  0  0  0  0  0
   57.7140   31.7340   44.9420 N   0  0  0  0  0  0  0  0  0  0  0  0
   57.4550   32.7380   44.1160 N   0  0  0  0  0  0  0  0  0  0  0  0
   57.9170   33.8690   44.6840 C   0  0  0  0  0  0  0  0  0  0  0  0
   58.4950   33.5660   45.9000 C   0  0  0  0  0  0  0  0  0  0  0  0
   59.2940   34.7860   47.1300 Br  0  0  0  0  0  0  0  0  0  0  0  0
   58.3610   32.2020   46.0270 C   0  0  0  0  0  0  0  0  0  0  0  0
   58.8910   31.2310   47.3930 Cl  0  0  0  0  0  0  0  0  0  0  0  0
   58.3130   29.5010   43.9170 N   0  0  0  0  0  0  0  0  0  0  0  0
   57.7070   28.2220   43.4630 C   0  0  0  0  0  0  0  0  0  0  0  0
   58.0160   27.0300   44.3940 C   0  0  0  0  0  0  0  0  0  0  0  0
   58.2450   27.5120   45.7640 N   0  0  0  0  0  0  0  0  0  0  0  0
   58.1920   26.4480   46.7880 C   0  0  0  0  0  0  0  0  0  0  0  0
   57.1140   25.4250   46.5450 C   0  0  0  0  0  0  0  0  0  0  0  0
   57.2250   24.0570   46.7550 C   0  0  0  0  0  0  0  0  0  0  0  0
   56.0520   23.3550   46.4530 C   0  0  0  0  0  0  0  0  0  0  0  0
   55.0140   24.1660   46.0120 C   0  0  0  0  0  0  0  0  0  0  0  0
   55.5580   25.7580   45.9980 S   0  0  0  0  0  0  0  0  0  0  0  0
   59.4500   28.3560   45.8580 C   0  0  0  0  0  0  0  0  0  0  0  0
   59.5860   29.3040   44.6440 C   0  0  0  0  0  0  0  0  0  0  0  0
   57.8448   34.8759   44.2471 H   0  0  0  0  0  0  0  0  0  0  0  0
   58.5570   30.0290   43.0440 H   0  0  0  0  0  0  0  0  0  0  0  0
   56.6158   28.3518   43.4139 H   0  0  0  0  0  0  0  0  0  0  0  0
   58.1437   27.9875   42.4810 H   0  0  0  0  0  0  0  0  0  0  0  0
   57.1646   26.3335   44.3898 H   0  0  0  0  0  0  0  0  0  0  0  0
   58.9193   26.5148   44.0354 H   0  0  0  0  0  0  0  0  0  0  0  0
   59.1633   25.9318   46.8026 H   0  0  0  0  0  0  0  0  0  0  0  0
   57.9608   26.9362   47.7462 H   0  0  0  0  0  0  0  0  0  0  0  0
   58.1424   23.5734   47.1218 H   0  0  0  0  0  0  0  0  0  0  0  0
   55.9608   22.2636   46.5553 H   0  0  0  0  0  0  0  0  0  0  0  0
   54.0090   23.8258   45.7218 H   0  0  0  0  0  0  0  0  0  0  0  0
   59.3907   28.9596   46.7757 H   0  0  0  0  0  0  0  0  0  0  0  0
   60.3289   27.6948   45.8744 H   0  0  0  0  0  0  0  0  0  0  0  0
   59.9402   30.2822   45.0014 H   0  0  0  0  0  0  0  0  0  0  0  0
   60.2959   28.8403   43.9433 H   0  0  0  0  0  0  0  0  0  0  0  0
  1  2  2  0
  2  3  1  0
  3  4  1  0
  4  5  2  0
  5  6  1  0
  6  7  1  0
  6  8  2  0
  8  9  1  0
  2 10  1  0
 10 11  1  0
 11 12  1  0
 12 13  1  0
 13 14  1  0
 14 15  1  0
 15 16  2  0
 16 17  1  0
 17 18  2  0
 18 19  1  0
 13 20  1  0
 20 21  1  0
  8  3  1  0
 21 10  1  0
 19 15  1  0
  5 22  1  0
 10 23  1  0
 11 24  1  0
 11 25  1  0
 12 26  1  0
 12 27  1  0
 14 28  1  0
 14 29  1  0
 16 30  1  0
 17 31  1  0
 18 32  1  0
 20 33  1  0
 20 34  1  0
 21 35  1  0
 21 36  1  0
M  CHG  1  10   1
M  END
>  <UniqueID>  (22) 
20

>  <SMILES>  (22) 
O=C(n1ncc(Br)c1Cl)[NH+]1CCN(Cc2cccs2)CC1

>  <Energy>  (22) 
113.87083268388628

>  <Genealogy>  (22) 
O=C(n1ncc(Br)c1Cl)[NH+]1CCN(Cc2cccs2)CC1 (protonated)
O=C(n1ncc(Br)c1Cl)[NH+]1CCN(Cc2cccs2)CC1 (3D coordinates assigned)
O=C(n1ncc(Br)c1Cl)[NH+]1CCN(Cc2cccs2)CC1 (nonaromatic ring conformer: 113.87083268388628 kcal/mol)

>  <smiles>  (22) 
O=C(N1CCN(Cc2cccs2)CC1)n1ncc(Br)c1Cl

>  <score_type>  (22) 
oracle

>  <origin>  (22) 
adg

>  <m_score__min__energy>  (22) 
-6.2599999999999998

>  <m_primary>  (22) 
energy

$$$$
22:0
     RDKit          3D

 55 59  0  0  0  0  0  0  0  0999 V2000
   66.4570   27.4770   51.3520 C   0  0  0  0  0  0  0  0  0  0  0  0
   66.6440   28.9400   51.5720 C   0  0  0  0  0  0  0  0  0  0  0  0
   67.7730   29.5370   52.0980 C   0  0  0  0  0  0  0  0  0  0  0  0
   67.5130   30.8910   52.0980 C   0  0  0  0  0  0  0  0  0  0  0  0
   66.2430   31.0290   51.5690 C   0  0  0  0  0  0  0  0  0  0  0  0
   65.5170   32.3260   51.3500 C   0  0  0  0  0  0  0  0  0  0  0  0
   64.3790   32.1660   50.4150 N   0  0  0  0  0  0  0  0  0  0  0  0
   64.7020   32.7160   49.0790 C   0  0  0  0  0  0  0  0  0  0  0  0
   63.6200   32.3120   48.0700 C   0  0  0  0  0  0  0  0  0  0  0  0
   62.2960   32.3280   48.6980 N   0  0  0  0  0  0  0  0  0  0  0  0
   61.2000   31.6440   48.0700 C   0  0  0  0  0  0  0  0  0  0  0  0
   60.8710   30.3510   48.4760 C   0  0  0  0  0  0  0  0  0  0  0  0
   61.5800   29.7440   49.4620 F   0  0  0  0  0  0  0  0  0  0  0  0
   59.8450   29.6570   47.8450 C   0  0  0  0  0  0  0  0  0  0  0  0
   59.1070   30.2530   46.8060 C   0  0  0  0  0  0  0  0  0  0  0  0
   58.1080   29.5250   46.1350 C   0  0  0  0  0  0  0  0  0  0  0  0
   57.8530   28.3390   46.4810 O   0  0  0  0  0  0  0  0  0  0  0  0
   57.4050   30.1150   45.0700 C   0  0  0  0  0  0  0  0  0  0  0  0
   56.3770   29.3690   44.2950 C   0  0  0  0  0  0  0  0  0  0  0  0
   56.6020   29.0220   43.1050 O   0  0  0  0  0  0  0  0  0  0  0  0
   55.1510   29.0380   44.8620 O   0  0  0  0  0  0  0  0  0  0  0  0
   57.6870   31.4490   44.7430 C   0  0  0  0  0  0  0  0  0  0  0  0
   58.5960   32.1900   45.4480 N   0  0  0  0  0  0  0  0  0  0  0  0
   58.7400   33.6100   45.0740 C   0  0  0  0  0  0  0  0  0  0  0  0
   58.3150   34.5870   46.1690 C   0  0  0  0  0  0  0  0  0  0  0  0
   57.4280   34.3900   44.9580 C   0  0  0  0  0  0  0  0  0  0  0  0
   59.3800   31.5940   46.4190 C   0  0  0  0  0  0  0  0  0  0  0  0
   60.4700   32.2650   47.0440 C   0  0  0  0  0  0  0  0  0  0  0  0
   60.8640   33.5040   46.6560 F   0  0  0  0  0  0  0  0  0  0  0  0
   62.0710   33.0960   49.9250 C   0  0  0  0  0  0  0  0  0  0  0  0
   63.1700   32.8210   50.9770 C   0  0  0  0  0  0  0  0  0  0  0  0
   65.7500   29.8510   51.2630 O   0  0  0  0  0  0  0  0  0  0  0  0
   66.3916   26.9655   52.3237 H   0  0  0  0  0  0  0  0  0  0  0  0
   65.5298   27.3070   50.7850 H   0  0  0  0  0  0  0  0  0  0  0  0
   67.3116   27.0793   50.7850 H   0  0  0  0  0  0  0  0  0  0  0  0
   68.6890   29.0363   52.4448 H   0  0  0  0  0  0  0  0  0  0  0  0
   68.1781   31.6948   52.4466 H   0  0  0  0  0  0  0  0  0  0  0  0
   65.1363   32.6889   52.3161 H   0  0  0  0  0  0  0  0  0  0  0  0
   66.2240   33.0446   50.9098 H   0  0  0  0  0  0  0  0  0  0  0  0
   64.1740   31.1410   50.3190 H   0  0  0  0  0  0  0  0  0  0  0  0
   64.7525   33.8132   49.1392 H   0  0  0  0  0  0  0  0  0  0  0  0
   65.6717   32.3155   48.7484 H   0  0  0  0  0  0  0  0  0  0  0  0
   63.6290   33.0196   47.2278 H   0  0  0  0  0  0  0  0  0  0  0  0
   63.8307   31.2929   47.7137 H   0  0  0  0  0  0  0  0  0  0  0  0
   59.6076   28.6306   48.1615 H   0  0  0  0  0  0  0  0  0  0  0  0
   57.1622   31.9134   43.8951 H   0  0  0  0  0  0  0  0  0  0  0  0
   59.6238   33.4762   44.4329 H   0  0  0  0  0  0  0  0  0  0  0  0
   57.9962   34.2064   47.1506 H   0  0  0  0  0  0  0  0  0  0  0  0
   58.7808   35.4566   46.6556 H   0  0  0  0  0  0  0  0  0  0  0  0
   56.4664   33.8659   45.0608 H   0  0  0  0  0  0  0  0  0  0  0  0
   56.9851   35.0565   44.2033 H   0  0  0  0  0  0  0  0  0  0  0  0
   62.0713   34.1684   49.6802 H   0  0  0  0  0  0  0  0  0  0  0  0
   61.1034   32.7908   50.3499 H   0  0  0  0  0  0  0  0  0  0  0  0
   63.4702   33.7796   51.4254 H   0  0  0  0  0  0  0  0  0  0  0  0
   62.7424   32.1291   51.7176 H   0  0  0  0  0  0  0  0  0  0  0  0
  1  2  1  0
  2  3  2  0
  3  4  1  0
  4  5  2  0
  5  6  1  0
  6  7  1  0
  7  8  1  0
  8  9  1  0
  9 10  1  0
 10 11  1  0
 11 12  2  0
 12 13  1  0
 12 14  1  0
 14 15  2  0
 15 16  1  0
 16 17  2  0
 16 18  1  0
 18 19  1  0
 19 20  2  0
 19 21  1  0
 18 22  2  0
 22 23  1  0
 23 24  1  0
 24 25  1  0
 25 26  1  0
 23 27  1  0
 27 28  2  0
 28 29  1  0
 10 30  1  0
 30 31  1  0
  5 32  1  0
 32  2  1  0
 31  7  1  0
 28 11  1  0
 27 15  1  0
 26 24  1  0
  1 33  1  0
  1 34  1  0
  1 35  1  0
  3 36  1  0
  4 37  1  0
  6 38  1  0
  6 39  1  0
  7 40  1  0
  8 41  1  0
  8 42  1  0
  9 43  1  0
  9 44  1  0
 14 45  1  0
 22 46  1  0
 24 47  1  0
 25 48  1  0
 25 49  1  0
 26 50  1  0
 26 51  1  0
 30 52  1  0
 30 53  1  0
 31 54  1  0
 31 55  1  0
M  CHG  2   7   1  21  -1
M  END
>  <UniqueID>  (23) 
21

>  <SMILES>  (23) 
Cc1ccc(C[NH+]2CCN(c3c(F)cc4c(=O)c(C(=O)[O-])cn(C5CC5)c4c3F)CC2)o1

>  <Energy>  (23) 
375.9754257009997

>  <Genealogy>  (23) 
Cc1ccc(C[NH+]2CCN(c3c(F)cc4c(=O)c(C(=O)[O-])cn(C5CC5)c4c3F)CC2)o1 (protonated)
Cc1ccc(C[NH+]2CCN(c3c(F)cc4c(=O)c(C(=O)[O-])cn(C5CC5)c4c3F)CC2)o1 (3D coordinates assigned)
Cc1ccc(C[NH+]2CCN(c3c(F)cc4c(=O)c(C(=O)[O-])cn(C5CC5)c4c3F)CC2)o1 (nonaromatic ring conformer: 375.9754257009997 kcal/mol)

>  <smiles>  (23) 
Cc1ccc(CN2CCN(c3c(F)cc4c(=O)c(C(=O)O)cn(C5CC5)c4c3F)CC2)o1

>  <score_type>  (23) 
oracle

>  <origin>  (23) 
adg

>  <m_score__min__energy>  (23) 
-9.2799999999999994

>  <m_primary>  (23) 
energy

$$$$
23:0
     RDKit          3D

 41 44  0  0  0  0  0  0  0  0999 V2000
   60.5500   28.5970   44.9840 C   0  0  0  0  0  0  0  0  0  0  0  0
   59.4470   27.7660   45.5860 C   0  0  0  0  0  0  0  0  0  0  0  0
   59.5580   27.3320   46.9160 C   0  0  0  0  0  0  0  0  0  0  0  0
   58.5770   26.5800   47.4800 N   0  0  0  0  0  0  0  0  0  0  0  0
   57.4670   26.2200   46.7870 C   0  0  0  0  0  0  0  0  0  0  0  0
   57.3110   26.6150   45.4590 C   0  0  0  0  0  0  0  0  0  0  0  0
   58.3100   27.3790   44.8360 C   0  0  0  0  0  0  0  0  0  0  0  0
   58.1110   27.8130   43.4070 C   0  0  0  0  0  0  0  0  0  0  0  0
   57.0440   28.8050   43.3490 N   0  0  0  0  0  0  0  0  0  0  0  0
   56.5470   29.5680   44.4560 C   0  0  0  0  0  0  0  0  0  0  0  0
   55.3800   29.3380   44.8680 O   0  0  0  0  0  0  0  0  0  0  0  0
   57.3250   30.6440   45.1010 C   0  0  0  0  0  0  0  0  0  0  0  0
   57.5810   31.9160   44.5900 C   0  0  0  0  0  0  0  0  0  0  0  0
   58.4050   32.6810   45.4240 C   0  0  0  0  0  0  0  0  0  0  0  0
   58.8300   32.0060   46.5540 C   0  0  0  0  0  0  0  0  0  0  0  0
   58.1740   30.4580   46.5490 S   0  0  0  0  0  0  0  0  0  0  0  0
   59.7400   32.6160   47.5340 C   0  0  0  0  0  0  0  0  0  0  0  0
   60.3360   31.8690   48.5610 C   0  0  0  0  0  0  0  0  0  0  0  0
   61.2160   32.4860   49.4540 C   0  0  0  0  0  0  0  0  0  0  0  0
   61.5000   33.8480   49.3320 C   0  0  0  0  0  0  0  0  0  0  0  0
   60.9050   34.6020   48.3150 C   0  0  0  0  0  0  0  0  0  0  0  0
   60.0340   33.9920   47.4000 C   0  0  0  0  0  0  0  0  0  0  0  0
   59.3110   34.8320   46.3600 C   0  0  0  0  0  0  0  0  0  0  0  0
   58.9530   34.0390   45.0860 C   0  0  0  0  0  0  0  0  0  0  0  0
   61.1494   29.0486   45.7882 H   0  0  0  0  0  0  0  0  0  0  0  0
   61.1934   27.9572   44.3621 H   0  0  0  0  0  0  0  0  0  0  0  0
   60.1125   29.3919   44.3621 H   0  0  0  0  0  0  0  0  0  0  0  0
   60.4459   27.6027   47.5062 H   0  0  0  0  0  0  0  0  0  0  0  0
   56.6883   25.6149   47.2744 H   0  0  0  0  0  0  0  0  0  0  0  0
   56.4073   26.3286   44.9010 H   0  0  0  0  0  0  0  0  0  0  0  0
   59.0433   28.2532   43.0234 H   0  0  0  0  0  0  0  0  0  0  0  0
   57.8388   26.9426   42.7920 H   0  0  0  0  0  0  0  0  0  0  0  0
   57.1782   32.2797   43.6332 H   0  0  0  0  0  0  0  0  0  0  0  0
   60.1105   30.7972   48.6633 H   0  0  0  0  0  0  0  0  0  0  0  0
   61.6864   31.8973   50.2553 H   0  0  0  0  0  0  0  0  0  0  0  0
   62.1934   34.3291   50.0375 H   0  0  0  0  0  0  0  0  0  0  0  0
   61.1209   35.6774   48.2324 H   0  0  0  0  0  0  0  0  0  0  0  0
   58.3820   35.2176   46.8053 H   0  0  0  0  0  0  0  0  0  0  0  0
   59.9916   35.6431   46.0618 H   0  0  0  0  0  0  0  0  0  0  0  0
   58.1968   34.5988   44.5161 H   0  0  0  0  0  0  0  0  0  0  0  0
   59.8687   33.9057   44.4912 H   0  0  0  0  0  0  0  0  0  0  0  0
  1  2  1  0
  2  3  2  0
  3  4  1  0
  4  5  2  0
  5  6  1  0
  6  7  2  0
  7  8  1  0
  8  9  1  0
  9 10  1  0
 10 11  2  0
 10 12  1  0
 12 13  2  0
 13 14  1  0
 14 15  2  0
 15 16  1  0
 15 17  1  0
 17 18  2  0
 18 19  1  0
 19 20  2  0
 20 21  1  0
 21 22  2  0
 22 23  1  0
 23 24  1  0
  7  2  1  0
 16 12  1  0
 22 17  1  0
 24 14  1  0
  1 25  1  0
  1 26  1  0
  1 27  1  0
  3 28  1  0
  5 29  1  0
  6 30  1  0
  8 31  1  0
  8 32  1  0
 13 33  1  0
 18 34  1  0
 19 35  1  0
 20 36  1  0
 21 37  1  0
 23 38  1  0
 23 39  1  0
 24 40  1  0
 24 41  1  0
M  CHG  1   9  -1
M  END
>  <UniqueID>  (24) 
22

>  <SMILES>  (24) 
Cc1cnccc1C[N-]C(=O)c1cc2c(s1)-c1ccccc1CC2

>  <Energy>  (24) 
78.77889791282075

>  <Genealogy>  (24) 
Cc1cnccc1C[N-]C(=O)c1cc2c(s1)-c1ccccc1CC2 (protonated)
Cc1cnccc1C[N-]C(=O)c1cc2c(s1)-c1ccccc1CC2 (3D coordinates assigned)
Cc1cnccc1C[N-]C(=O)c1cc2c(s1)-c1ccccc1CC2 (nonaromatic ring conformer: 78.77889791282075 kcal/mol)

>  <smiles>  (24) 
Cc1cnccc1CNC(=O)c1cc2c(s1)-c1ccccc1CC2

>  <score_type>  (24) 
oracle

>  <origin>  (24) 
adg

>  <m_score__min__energy>  (24) 
-10.58

>  <m_primary>  (24) 
energy

$$$$
24:0
     RDKit          3D

 53 56  0  0  0  0  0  0  0  0999 V2000
   56.1199   31.8480   43.1635 H   0  0  0  0  0  0  0  0  0  0  0  0
   56.5930   31.1720   43.8910 C   0  0  0  0  0  0  0  0  0  0  0  0
   57.7310   31.5820   44.5860 C   0  0  0  0  0  0  0  0  0  0  0  0
   58.1542   32.5811   44.4051 H   0  0  0  0  0  0  0  0  0  0  0  0
   58.3350   30.7260   45.5120 C   0  0  0  0  0  0  0  0  0  0  0  0
   59.2276   31.0595   46.0616 H   0  0  0  0  0  0  0  0  0  0  0  0
   57.8080   29.4350   45.7480 C   0  0  0  0  0  0  0  0  0  0  0  0
   58.3760   28.5570   46.7080 C   0  0  0  0  0  0  0  0  0  0  0  0
   59.2870   29.0690   47.5000 N   0  0  0  0  0  0  0  0  0  0  0  0
   59.2390   29.5710   48.8690 C   0  0  0  0  0  0  0  0  0  0  0  0
   59.8187   28.9033   49.5233 H   0  0  0  0  0  0  0  0  0  0  0  0
   58.1927   29.6046   49.2070 H   0  0  0  0  0  0  0  0  0  0  0  0
   59.8350   30.9830   48.9260 C   0  0  0  0  0  0  0  0  0  0  0  0
   60.1053   31.2089   49.9681 H   0  0  0  0  0  0  0  0  0  0  0  0
   59.0752   31.6796   48.5422 H   0  0  0  0  0  0  0  0  0  0  0  0
   61.0900   31.1350   48.0480 C   0  0  0  0  0  0  0  0  0  0  0  0
   61.2187   30.2238   47.4454 H   0  0  0  0  0  0  0  0  0  0  0  0
   61.9580   31.2913   48.7054 H   0  0  0  0  0  0  0  0  0  0  0  0
   60.9720   32.3020   47.1410 N   0  0  0  0  0  0  0  0  0  0  0  0
   62.2490   33.0470   47.0770 C   0  0  0  0  0  0  0  0  0  0  0  0
   62.1882   33.9207   47.7425 H   0  0  0  0  0  0  0  0  0  0  0  0
   62.4161   33.3623   46.0365 H   0  0  0  0  0  0  0  0  0  0  0  0
   63.4230   32.1710   47.5110 C   0  0  0  0  0  0  0  0  0  0  0  0
   63.4686   32.1369   48.6095 H   0  0  0  0  0  0  0  0  0  0  0  0
   63.2857   31.1528   47.1180 H   0  0  0  0  0  0  0  0  0  0  0  0
   64.3600   32.5925   47.1180 H   0  0  0  0  0  0  0  0  0  0  0  0
   59.8320   33.1780   47.5160 C   0  0  0  0  0  0  0  0  0  0  0  0
   58.9483   32.5575   47.7260 H   0  0  0  0  0  0  0  0  0  0  0  0
   60.0990   33.7580   48.4117 H   0  0  0  0  0  0  0  0  0  0  0  0
   59.5180   34.1350   46.3720 C   0  0  0  0  0  0  0  0  0  0  0  0
   59.1998   35.1048   46.7821 H   0  0  0  0  0  0  0  0  0  0  0  0
   60.4172   34.2754   45.7541 H   0  0  0  0  0  0  0  0  0  0  0  0
   58.7104   33.7154   45.7541 H   0  0  0  0  0  0  0  0  0  0  0  0
   57.8410   27.2270   46.8200 C   0  0  0  0  0  0  0  0  0  0  0  0
   58.4660   26.1800   47.5340 C   0  0  0  0  0  0  0  0  0  0  0  0
   59.4485   26.3563   47.9962 H   0  0  0  0  0  0  0  0  0  0  0  0
   57.8660   24.9290   47.6660 C   0  0  0  0  0  0  0  0  0  0  0  0
   58.3624   24.1461   48.2582 H   0  0  0  0  0  0  0  0  0  0  0  0
   56.6420   24.6610   47.0540 C   0  0  0  0  0  0  0  0  0  0  0  0
   56.0390   23.4000   47.2000 C   0  0  0  0  0  0  0  0  0  0  0  0
   56.5210   22.6304   47.8209 H   0  0  0  0  0  0  0  0  0  0  0  0
   54.8310   23.1210   46.5600 C   0  0  0  0  0  0  0  0  0  0  0  0
   54.3603   22.1343   46.6818 H   0  0  0  0  0  0  0  0  0  0  0  0
   54.2190   24.0910   45.7660 C   0  0  0  0  0  0  0  0  0  0  0  0
   53.2676   23.8661   45.2617 H   0  0  0  0  0  0  0  0  0  0  0  0
   54.8100   25.3470   45.6090 C   0  0  0  0  0  0  0  0  0  0  0  0
   54.3231   26.1045   44.9772 H   0  0  0  0  0  0  0  0  0  0  0  0
   56.0270   25.6510   46.2550 C   0  0  0  0  0  0  0  0  0  0  0  0
   56.6450   26.9150   46.1120 C   0  0  0  0  0  0  0  0  0  0  0  0
   56.1060   27.8250   45.2600 N   0  0  0  0  0  0  0  0  0  0  0  0
   56.6540   29.0390   45.0390 C   0  0  0  0  0  0  0  0  0  0  0  0
   56.0550   29.9060   44.1180 C   0  0  0  0  0  0  0  0  0  0  0  0
   55.1557   29.5871   43.5707 H   0  0  0  0  0  0  0  0  0  0  0  0
  1  2  1  0
  2  3  2  0
  3  4  1  0
  3  5  1  0
  5  6  1  0
  5  7  2  0
  7  8  1  0
  8  9  2  0
  9 10  1  0
 10 11  1  0
 10 12  1  0
 10 13  1  0
 13 14  1  0
 13 15  1  0
 13 16  1  0
 16 17  1  0
 16 18  1  0
 16 19  1  0
 19 20  1  0
 20 21  1  0
 20 22  1  0
 20 23  1  0
 23 24  1  0
 23 25  1  0
 23 26  1  0
 19 27  1  0
 27 28  1  0
 27 29  1  0
 27 30  1  0
 30 31  1  0
 30 32  1  0
 30 33  1  0
  8 34  1  0
 34 35  2  0
 35 36  1  0
 35 37  1  0
 37 38  1  0
 37 39  2  0
 39 40  1  0
 40 41  1  0
 40 42  2  0
 42 43  1  0
 42 44  1  0
 44 45  1  0
 44 46  2  0
 46 47  1  0
 46 48  1  0
 48 49  2  0
 49 50  1  0
 50 51  1  0
 51 52  2  0
 52 53  1  0
 52  2  1  0
 51  7  1  0
 49 34  1  0
 48 39  1  0
M  CHG  1  50  -1
M  END
>  <UniqueID>  (25) 
23

>  <SMILES>  (25) 
CCN(CC)CCC/N=c1/c2ccccc2[n-]c2c1ccc1ccccc12

>  <Energy>  (25) 
80.41005071137927

>  <Genealogy>  (25) 
CCN(CC)CCCN=c1c2ccccc2[n-]c2c1ccc1ccccc12 (protonated)
CCN(CC)CCC/N=c1/c2ccccc2[n-]c2c1ccc1ccccc12 (cis-trans isomerization)
CCN(CC)CCC/N=c1/c2ccccc2[n-]c2c1ccc1ccccc12 (3D coordinates assigned)
CCN(CC)CCC/N=c1/c2ccccc2[n-]c2c1ccc1ccccc12 (optimized conformer: 80.41005071137927 kcal/mol)

>  <smiles>  (25) 
CCN(CC)CCCN=c1c2ccccc2[nH]c2c1ccc1ccccc12

>  <score_type>  (25) 
oracle

>  <origin>  (25) 
adg

>  <m_score__min__energy>  (25) 
-8.9199999999999999

>  <m_primary>  (25) 
energy

$$$$
25:0
     RDKit          3D

 59 59  0  0  0  0  0  0  0  0999 V2000
   59.1270   34.4020   44.5780 C   0  0  0  0  0  0  0  0  0  0  0  0
   58.7780   34.3280   46.0720 C   0  0  0  0  0  0  0  0  0  0  0  0
   59.9460   34.4620   46.9820 N   0  0  0  0  0  0  0  0  0  0  0  0
   61.2040   33.9990   46.3510 C   0  0  0  0  0  0  0  0  0  0  0  0
   61.7440   32.7920   47.1080 C   0  0  0  0  0  0  0  0  0  0  0  0
   59.7520   33.8830   48.3310 C   0  0  0  0  0  0  0  0  0  0  0  0
   58.5070   32.9820   48.3980 C   0  0  0  0  0  0  0  0  0  0  0  0
   58.8870   31.6220   48.4800 O   0  0  0  0  0  0  0  0  0  0  0  0
   59.8240   31.4000   49.5210 C   0  0  0  0  0  0  0  0  0  0  0  0
   60.6870   30.1800   49.1560 C   0  0  0  0  0  0  0  0  0  0  0  0
   59.9670   28.8860   49.2110 N   0  0  0  0  0  0  0  0  0  0  0  0
   60.0190   28.2660   50.5480 C   0  0  0  0  0  0  0  0  0  0  0  0
   60.3900   27.9510   48.1500 C   0  0  0  0  0  0  0  0  0  0  0  0
   59.8790   28.4170   46.8200 C   0  0  0  0  0  0  0  0  0  0  0  0
   60.4640   28.0370   45.7690 O   0  0  0  0  0  0  0  0  0  0  0  0
   58.7790   29.3370   46.7490 N   0  0  0  0  0  0  0  0  0  0  0  0
   58.2120   29.7830   45.5080 C   0  0  0  0  0  0  0  0  0  0  0  0
   58.7420   30.9220   44.8890 C   0  0  0  0  0  0  0  0  0  0  0  0
   58.2170   31.3800   43.6800 C   0  0  0  0  0  0  0  0  0  0  0  0
   57.1440   30.7200   43.0750 C   0  0  0  0  0  0  0  0  0  0  0  0
   56.6600   31.2160   41.8550 O   0  0  0  0  0  0  0  0  0  0  0  0
   57.2060   32.3330   41.1640 C   0  0  0  0  0  0  0  0  0  0  0  0
   56.5870   29.5910   43.7060 C   0  0  0  0  0  0  0  0  0  0  0  0
   57.1070   29.1240   44.9310 C   0  0  0  0  0  0  0  0  0  0  0  0
   56.5400   28.0310   45.6060 O   0  0  0  0  0  0  0  0  0  0  0  0
   57.0990   26.7220   45.6440 C   0  0  0  0  0  0  0  0  0  0  0  0
   60.1971   34.6289   44.4622 H   0  0  0  0  0  0  0  0  0  0  0  0
   58.9032   33.4364   44.1009 H   0  0  0  0  0  0  0  0  0  0  0  0
   58.5306   35.1937   44.1009 H   0  0  0  0  0  0  0  0  0  0  0  0
   58.0691   35.1375   46.3004 H   0  0  0  0  0  0  0  0  0  0  0  0
   58.3563   33.3272   46.2471 H   0  0  0  0  0  0  0  0  0  0  0  0
   61.0069   33.7171   45.3062 H   0  0  0  0  0  0  0  0  0  0  0  0
   61.9466   34.8100   46.3809 H   0  0  0  0  0  0  0  0  0  0  0  0
   61.6635   32.9719   48.1902 H   0  0  0  0  0  0  0  0  0  0  0  0
   61.1593   31.8996   46.8402 H   0  0  0  0  0  0  0  0  0  0  0  0
   62.7990   32.6332   46.8402 H   0  0  0  0  0  0  0  0  0  0  0  0
   60.6377   33.2848   48.5914 H   0  0  0  0  0  0  0  0  0  0  0  0
   59.6096   34.7124   49.0394 H   0  0  0  0  0  0  0  0  0  0  0  0
   57.9149   33.2472   49.2863 H   0  0  0  0  0  0  0  0  0  0  0  0
   57.9088   33.1313   47.4870 H   0  0  0  0  0  0  0  0  0  0  0  0
   60.4656   32.2860   49.6366 H   0  0  0  0  0  0  0  0  0  0  0  0
   59.2955   31.2154   50.4679 H   0  0  0  0  0  0  0  0  0  0  0  0
   61.0665   30.3200   48.1331 H   0  0  0  0  0  0  0  0  0  0  0  0
   61.4899   30.1261   49.9059 H   0  0  0  0  0  0  0  0  0  0  0  0
   59.9533   29.0488   51.3180 H   0  0  0  0  0  0  0  0  0  0  0  0
   59.1762   27.5683   50.6617 H   0  0  0  0  0  0  0  0  0  0  0  0
   60.9662   27.7184   50.6617 H   0  0  0  0  0  0  0  0  0  0  0  0
   61.4887   27.9052   48.1220 H   0  0  0  0  0  0  0  0  0  0  0  0
   59.9795   26.9532   48.3643 H   0  0  0  0  0  0  0  0  0  0  0  0
   58.4980   29.8360   47.6220 H   0  0  0  0  0  0  0  0  0  0  0  0
   59.5785   31.4596   45.3594 H   0  0  0  0  0  0  0  0  0  0  0  0
   58.6516   32.2686   43.1988 H   0  0  0  0  0  0  0  0  0  0  0  0
   57.5680   33.0736   41.8924 H   0  0  0  0  0  0  0  0  0  0  0  0
   58.0430   32.0002   40.5326 H   0  0  0  0  0  0  0  0  0  0  0  0
   56.4292   32.7890   40.5326 H   0  0  0  0  0  0  0  0  0  0  0  0
   55.7388   29.0687   43.2393 H   0  0  0  0  0  0  0  0  0  0  0  0
   57.2321   26.4104   46.6905 H   0  0  0  0  0  0  0  0  0  0  0  0
   56.4224   26.0195   45.1354 H   0  0  0  0  0  0  0  0  0  0  0  0
   58.0744   26.7249   45.1354 H   0  0  0  0  0  0  0  0  0  0  0  0
  1  2  1  0
  2  3  1  0
  3  4  1  0
  4  5  1  0
  3  6  1  0
  6  7  1  0
  7  8  1  0
  8  9  1  0
  9 10  1  0
 10 11  1  0
 11 12  1  0
 11 13  1  0
 13 14  1  0
 14 15  2  0
 14 16  1  0
 16 17  1  0
 17 18  2  0
 18 19  1  0
 19 20  2  0
 20 21  1  0
 21 22  1  0
 20 23  1  0
 23 24  2  0
 24 25  1  0
 25 26  1  0
 24 17  1  0
  1 27  1  0
  1 28  1  0
  1 29  1  0
  2 30  1  0
  2 31  1  0
  4 32  1  0
  4 33  1  0
  5 34  1  0
  5 35  1  0
  5 36  1  0
  6 37  1  0
  6 38  1  0
  7 39  1  0
  7 40  1  0
  9 41  1  0
  9 42  1  0
 10 43  1  0
 10 44  1  0
 12 45  1  0
 12 46  1  0
 12 47  1  0
 13 48  1  0
 13 49  1  0
 16 50  1  0
 18 51  1  0
 19 52  1  0
 22 53  1  0
 22 54  1  0
 22 55  1  0
 23 56  1  0
 26 57  1  0
 26 58  1  0
 26 59  1  0
M  END
>  <UniqueID>  (26) 
24

>  <SMILES>  (26) 
CCN(CC)CCOCCN(C)CC(=O)Nc1ccc(OC)cc1OC

>  <Energy>  (26) 
64.99504889221708

>  <Genealogy>  (26) 
CCN(CC)CCOCCN(C)CC(=O)Nc1ccc(OC)cc1OC (3D coordinates assigned)
CCN(CC)CCOCCN(C)CC(=O)Nc1ccc(OC)cc1OC (optimized conformer: 64.99504889221708 kcal/mol)

>  <smiles>  (26) 
CCN(CC)CCOCCN(C)CC(=O)Nc1ccc(OC)cc1OC

>  <score_type>  (26) 
oracle

>  <origin>  (26) 
adg

>  <m_score__min__energy>  (26) 
-5.7999999999999998

>  <m_primary>  (26) 
energy

$$$$
26:0
     RDKit          3D

 45 48  0  0  1  0  0  0  0  0999 V2000
   65.9910   33.0170   50.1940 C   0  0  0  0  0  0  0  0  0  0  0  0
   64.9000   33.8310   49.8810 O   0  0  0  0  0  0  0  0  0  0  0  0
   63.7550   33.4080   49.2610 C   0  0  0  0  0  0  0  0  0  0  0  0
   63.7780   32.5110   48.2060 C   0  0  0  0  0  0  0  0  0  0  0  0
   62.5810   32.1320   47.6330 C   0  0  0  0  0  0  0  0  0  0  0  0
   61.3710   32.6210   48.0800 C   0  0  0  0  0  0  0  0  0  0  0  0
   60.2040   32.1570   47.4110 N   0  0  0  0  0  0  0  0  0  0  0  0
   59.6270   30.9990   47.6780 N   0  0  0  0  0  0  0  0  0  0  0  0
   58.5440   30.8290   46.8900 C   0  0  0  0  0  0  0  0  0  0  0  0
   58.4860   31.9730   46.1040 C   0  0  0  0  0  0  0  0  0  0  0  0
   57.5960   32.3730   45.1070 C   0  0  0  0  0  0  0  0  0  0  0  0
   56.6420   31.5610   44.8400 N   0  0  0  0  0  0  0  0  0  0  0  0
   56.6760   30.8330   43.5830 C   0  0  0  0  0  0  0  0  0  0  0  0
   56.4040   29.3830   43.9970 C   0  0  0  0  0  0  0  0  0  0  0  0
   57.5540   28.7360   44.6330 C   0  0  0  0  0  0  0  0  0  0  0  0
   57.2890   27.8300   45.6640 C   0  0  0  0  0  0  0  0  0  0  0  0
   58.3360   27.1910   46.2980 C   0  0  0  0  0  0  0  0  0  0  0  0
   59.6390   27.4300   45.9340 C   0  0  0  0  0  0  0  0  0  0  0  0
   59.8680   28.3280   44.9140 C   0  0  0  0  0  0  0  0  0  0  0  0
   58.8720   28.9920   44.2480 C   0  0  0  0  0  0  0  0  0  0  0  0
   57.7790   33.5560   44.4970 N   0  0  0  0  0  0  0  0  0  0  0  0
   58.8160   34.3700   44.8320 C   0  0  0  0  0  0  0  0  0  0  0  0
   59.6890   33.9890   45.8030 N   0  0  0  0  0  0  0  0  0  0  0  0
   59.5400   32.8090   46.4390 C   0  0  0  0  0  0  0  0  0  0  0  0
   61.3330   33.5160   49.1300 C   0  0  0  0  0  0  0  0  0  0  0  0
   62.5370   33.8870   49.6970 C   0  0  0  0  0  0  0  0  0  0  0  0
   66.0911   32.9423   51.2869 H   0  0  0  0  0  0  0  0  0  0  0  0
   65.8334   32.0140   49.7708 H   0  0  0  0  0  0  0  0  0  0  0  0
   66.9076   33.4537   49.7708 H   0  0  0  0  0  0  0  0  0  0  0  0
   64.7312   32.1087   47.8323 H   0  0  0  0  0  0  0  0  0  0  0  0
   62.5921   31.4191   46.7953 H   0  0  0  0  0  0  0  0  0  0  0  0
   57.8564   29.9705   46.8738 H   0  0  0  0  0  0  0  0  0  0  0  0
   55.8974   31.1979   42.8969 H   0  0  0  0  0  0  0  0  0  0  0  0
   57.6289   30.9521   43.0465 H   0  0  0  0  0  0  0  0  0  0  0  0
   55.5627   29.3743   44.7056 H   0  0  0  0  0  0  0  0  0  0  0  0
   56.1795   28.8192   43.0796 H   0  0  0  0  0  0  0  0  0  0  0  0
   56.2517   27.6272   45.9687 H   0  0  0  0  0  0  0  0  0  0  0  0
   58.1232   26.4783   47.1084 H   0  0  0  0  0  0  0  0  0  0  0  0
   60.4725   26.9211   46.4403 H   0  0  0  0  0  0  0  0  0  0  0  0
   60.9094   28.5226   44.6179 H   0  0  0  0  0  0  0  0  0  0  0  0
   59.1019   29.7012   43.4392 H   0  0  0  0  0  0  0  0  0  0  0  0
   57.1090   33.8460   43.7540 H   0  0  0  0  0  0  0  0  0  0  0  0
   58.9483   35.3340   44.3189 H   0  0  0  0  0  0  0  0  0  0  0  0
   60.3793   33.9190   49.5017 H   0  0  0  0  0  0  0  0  0  0  0  0
   62.5238   34.5982   50.5361 H   0  0  0  0  0  0  0  0  0  0  0  0
  1  2  1  0
  2  3  1  0
  3  4  2  0
  4  5  1  0
  5  6  2  0
  6  7  1  0
  7  8  1  0
  8  9  2  0
  9 10  1  0
 10 11  1  0
 11 12  2  0
 12 13  1  0
 13 14  1  0
 14 15  1  0
 15 16  2  0
 16 17  1  0
 17 18  2  0
 18 19  1  0
 19 20  2  0
 11 21  1  0
 21 22  1  0
 22 23  2  0
 23 24  1  0
  6 25  1  0
 25 26  2  0
 26  3  1  0
 24  7  1  0
 24 10  2  0
 20 15  1  0
  1 27  1  0
  1 28  1  0
  1 29  1  0
  4 30  1  0
  5 31  1  0
  9 32  1  0
 13 33  1  0
 13 34  1  0
 14 35  1  0
 14 36  1  0
 16 37  1  0
 17 38  1  0
 18 39  1  0
 19 40  1  0
 20 41  1  0
 21 42  1  0
 22 43  1  0
 25 44  1  0
 26 45  1  0
M  END
>  <smiles>  (27) 
COc1ccc(-n2ncc3c(=NCCc4ccccc4)[nH]cnc32)cc1

>  <score_type>  (27) 
oracle

>  <origin>  (27) 
adg

>  <m_score__min__energy>  (27) 
-7.3399999999999999

>  <m_primary>  (27) 
energy

$$$$
27:0
     RDKit          3D

 42 44  0  0  0  0  0  0  0  0999 V2000
   65.5900   33.1090   50.7660 C   0  0  0  0  0  0  0  0  0  0  0  0
   65.3360   32.9270   49.3770 O   0  0  0  0  0  0  0  0  0  0  0  0
   64.0570   32.7970   48.8160 C   0  0  0  0  0  0  0  0  0  0  0  0
   63.5530   33.8590   48.0580 C   0  0  0  0  0  0  0  0  0  0  0  0
   62.2840   33.7790   47.4770 C   0  0  0  0  0  0  0  0  0  0  0  0
   61.4930   32.6290   47.6470 C   0  0  0  0  0  0  0  0  0  0  0  0
   60.1450   32.5410   47.0300 C   0  0  0  0  0  0  0  0  0  0  0  0
   59.1320   33.4390   47.4010 C   0  0  0  0  0  0  0  0  0  0  0  0
   57.8710   33.3630   46.8090 C   0  0  0  0  0  0  0  0  0  0  0  0
   57.5950   32.3910   45.8400 C   0  0  0  0  0  0  0  0  0  0  0  0
   56.3320   32.3520   45.2490 O   0  0  0  0  0  0  0  0  0  0  0  0
   58.5930   31.4640   45.4640 C   0  0  0  0  0  0  0  0  0  0  0  0
   58.3210   30.4200   44.3840 C   0  0  0  0  0  0  0  0  0  0  0  0
   57.4120   30.9510   43.2430 C   0  0  0  0  0  0  0  0  0  0  0  0
   56.2610   29.9910   42.9210 C   0  0  0  0  0  0  0  0  0  0  0  0
   55.4830   29.6780   44.1270 N   0  0  0  0  0  0  0  0  0  0  0  0
   56.2780   29.0990   45.2320 C   0  0  0  0  0  0  0  0  0  0  0  0
   57.8020   29.1010   44.9990 C   0  0  0  0  0  0  0  0  0  0  0  0
   59.8660   31.5610   46.0610 C   0  0  0  0  0  0  0  0  0  0  0  0
   62.0010   31.5610   48.4100 C   0  0  0  0  0  0  0  0  0  0  0  0
   63.2700   31.6430   48.9890 C   0  0  0  0  0  0  0  0  0  0  0  0
   64.8330   32.5665   51.3513 H   0  0  0  0  0  0  0  0  0  0  0  0
   66.5898   32.7205   51.0099 H   0  0  0  0  0  0  0  0  0  0  0  0
   65.5435   34.1806   51.0099 H   0  0  0  0  0  0  0  0  0  0  0  0
   64.1606   34.7652   47.9178 H   0  0  0  0  0  0  0  0  0  0  0  0
   61.9015   34.6218   46.8825 H   0  0  0  0  0  0  0  0  0  0  0  0
   59.3335   34.2067   48.1626 H   0  0  0  0  0  0  0  0  0  0  0  0
   57.0859   34.0738   47.1065 H   0  0  0  0  0  0  0  0  0  0  0  0
   55.7720   31.5080   45.2410 H   0  0  0  0  0  0  0  0  0  0  0  0
   59.2849   30.1966   43.9034 H   0  0  0  0  0  0  0  0  0  0  0  0
   56.9896   31.9195   43.5490 H   0  0  0  0  0  0  0  0  0  0  0  0
   58.0305   31.0499   42.3387 H   0  0  0  0  0  0  0  0  0  0  0  0
   55.5992   30.4595   42.1776 H   0  0  0  0  0  0  0  0  0  0  0  0
   56.6848   29.0563   42.5252 H   0  0  0  0  0  0  0  0  0  0  0  0
   55.0210   30.5570   44.4610 H   0  0  0  0  0  0  0  0  0  0  0  0
   56.0700   29.6781   46.1438 H   0  0  0  0  0  0  0  0  0  0  0  0
   55.9772   28.0439   45.3115 H   0  0  0  0  0  0  0  0  0  0  0  0
   58.3038   28.9443   45.9653 H   0  0  0  0  0  0  0  0  0  0  0  0
   58.0247   28.2961   44.2830 H   0  0  0  0  0  0  0  0  0  0  0  0
   60.6565   30.8565   45.7632 H   0  0  0  0  0  0  0  0  0  0  0  0
   61.3942   30.6545   48.5516 H   0  0  0  0  0  0  0  0  0  0  0  0
   63.6559   30.8014   49.5830 H   0  0  0  0  0  0  0  0  0  0  0  0
  1  2  1  0
  2  3  1  0
  3  4  2  0
  4  5  1  0
  5  6  2  0
  6  7  1  0
  7  8  2  0
  8  9  1  0
  9 10  2  0
 10 11  1  0
 10 12  1  0
 12 13  1  0
 13 14  1  0
 14 15  1  0
 15 16  1  0
 16 17  1  0
 17 18  1  0
 12 19  2  0
  6 20  1  0
 20 21  2  0
 21  3  1  0
 19  7  1  0
 18 13  1  0
  1 22  1  0
  1 23  1  0
  1 24  1  0
  4 25  1  0
  5 26  1  0
  8 27  1  0
  9 28  1  0
 11 29  1  0
 13 30  1  0
 14 31  1  0
 14 32  1  0
 15 33  1  0
 15 34  1  0
 16 35  1  0
 17 36  1  0
 17 37  1  0
 18 38  1  0
 18 39  1  0
 19 40  1  0
 20 41  1  0
 21 42  1  0
M  END
>  <UniqueID>  (28) 
25

>  <SMILES>  (28) 
COc1ccc(-c2ccc(O)c(C3CCNCC3)c2)cc1

>  <Energy>  (28) 
57.17285178816244

>  <Genealogy>  (28) 
COc1ccc(-c2ccc(O)c(C3CCNCC3)c2)cc1 (3D coordinates assigned)
COc1ccc(-c2ccc(O)c(C3CCNCC3)c2)cc1 (nonaromatic ring conformer: 57.17285178816244 kcal/mol)

>  <smiles>  (28) 
COc1ccc(-c2ccc(O)c(C3CCNCC3)c2)cc1

>  <score_type>  (28) 
oracle

>  <origin>  (28) 
adg

>  <m_score__min__energy>  (28) 
-7.25

>  <m_primary>  (28) 
energy

$$$$
28:0
     RDKit          3D

 54 55  0  0  0  0  0  0  0  0999 V2000
   62.7860   33.8490   46.6560 C   0  0  0  0  0  0  0  0  0  0  0  0
   63.8040   32.8900   47.2800 C   0  0  0  0  0  0  0  0  0  0  0  0
   63.6750   32.8270   48.7680 N   0  0  0  0  0  0  0  0  0  0  0  0
   65.0050   32.9030   49.4320 C   0  0  0  0  0  0  0  0  0  0  0  0
   64.9170   33.4420   50.8650 C   0  0  0  0  0  0  0  0  0  0  0  0
   62.9680   31.5800   49.1650 C   0  0  0  0  0  0  0  0  0  0  0  0
   61.5310   31.5460   48.6810 C   0  0  0  0  0  0  0  0  0  0  0  0
   61.0940   30.4790   47.8790 C   0  0  0  0  0  0  0  0  0  0  0  0
   59.7630   30.4050   47.4370 C   0  0  0  0  0  0  0  0  0  0  0  0
   59.3130   29.2820   46.6480 N   0  0  0  0  0  0  0  0  0  0  0  0
   58.1180   28.5260   47.0470 C   0  0  0  0  0  0  0  0  0  0  0  0
   57.5860   27.6760   45.8840 C   0  0  0  0  0  0  0  0  0  0  0  0
   57.7380   28.3510   44.5800 N   0  0  0  0  0  0  0  0  0  0  0  0
   56.5810   29.6460   44.3340 S   0  0  0  0  0  0  0  0  0  0  0  0
   56.3410   30.0780   42.6180 C   0  0  0  0  0  0  0  0  0  0  0  0
   55.2550   29.2070   44.8900 O   0  0  0  0  0  0  0  0  0  0  0  0
   57.0230   30.8760   45.0780 O   0  0  0  0  0  0  0  0  0  0  0  0
   59.1270   28.7450   44.2480 C   0  0  0  0  0  0  0  0  0  0  0  0
   60.0580   28.8250   45.4710 C   0  0  0  0  0  0  0  0  0  0  0  0
   58.8670   31.4200   47.8110 C   0  0  0  0  0  0  0  0  0  0  0  0
   59.2930   32.4880   48.6020 C   0  0  0  0  0  0  0  0  0  0  0  0
   60.6260   32.5650   49.0440 C   0  0  0  0  0  0  0  0  0  0  0  0
   61.0810   33.6280   49.8400 O   0  0  0  0  0  0  0  0  0  0  0  0
   60.7760   33.7950   51.2190 C   0  0  0  0  0  0  0  0  0  0  0  0
   62.2347   34.3684   47.4537 H   0  0  0  0  0  0  0  0  0  0  0  0
   63.3119   34.5875   46.0330 H   0  0  0  0  0  0  0  0  0  0  0  0
   62.0802   33.2800   46.0330 H   0  0  0  0  0  0  0  0  0  0  0  0
   63.6433   31.8834   46.8667 H   0  0  0  0  0  0  0  0  0  0  0  0
   64.8115   33.2618   47.0417 H   0  0  0  0  0  0  0  0  0  0  0  0
   63.0990   33.6340   49.1100 H   0  0  0  0  0  0  0  0  0  0  0  0
   65.4428   31.8943   49.4610 H   0  0  0  0  0  0  0  0  0  0  0  0
   65.6287   33.5986   48.8514 H   0  0  0  0  0  0  0  0  0  0  0  0
   65.0521   32.6144   51.5770 H   0  0  0  0  0  0  0  0  0  0  0  0
   65.7043   34.1938   51.0230 H   0  0  0  0  0  0  0  0  0  0  0  0
   63.9315   33.9044   51.0230 H   0  0  0  0  0  0  0  0  0  0  0  0
   63.5042   30.7196   48.7380 H   0  0  0  0  0  0  0  0  0  0  0  0
   62.9507   31.5419   50.2642 H   0  0  0  0  0  0  0  0  0  0  0  0
   61.8047   29.6897   47.5929 H   0  0  0  0  0  0  0  0  0  0  0  0
   58.3758   27.8641   47.8869 H   0  0  0  0  0  0  0  0  0  0  0  0
   57.3359   29.2406   47.3430 H   0  0  0  0  0  0  0  0  0  0  0  0
   58.1408   26.7265   45.8574 H   0  0  0  0  0  0  0  0  0  0  0  0
   56.5119   27.5098   46.0531 H   0  0  0  0  0  0  0  0  0  0  0  0
   55.8077   31.0379   42.5527 H   0  0  0  0  0  0  0  0  0  0  0  0
   57.3188   30.1673   42.1221 H   0  0  0  0  0  0  0  0  0  0  0  0
   55.7486   29.2949   42.1221 H   0  0  0  0  0  0  0  0  0  0  0  0
   59.5391   28.0052   43.5459 H   0  0  0  0  0  0  0  0  0  0  0  0
   59.0792   29.7549   43.8146 H   0  0  0  0  0  0  0  0  0  0  0  0
   60.4792   27.8290   45.6723 H   0  0  0  0  0  0  0  0  0  0  0  0
   60.8666   29.5401   45.2592 H   0  0  0  0  0  0  0  0  0  0  0  0
   57.8199   31.3727   47.4774 H   0  0  0  0  0  0  0  0  0  0  0  0
   58.5796   33.2769   48.8824 H   0  0  0  0  0  0  0  0  0  0  0  0
   61.5794   33.3551   51.8281 H   0  0  0  0  0  0  0  0  0  0  0  0
   60.6877   34.8673   51.4478 H   0  0  0  0  0  0  0  0  0  0  0  0
   59.8250   33.2917   51.4478 H   0  0  0  0  0  0  0  0  0  0  0  0
  1  2  1  0
  2  3  1  0
  3  4  1  0
  4  5  1  0
  3  6  1  0
  6  7  1  0
  7  8  2  0
  8  9  1  0
  9 10  1  0
 10 11  1  0
 11 12  1  0
 12 13  1  0
 13 14  1  0
 14 15  1  0
 14 16  2  0
 14 17  2  0
 13 18  1  0
 18 19  1  0
  9 20  2  0
 20 21  1  0
 21 22  2  0
 22 23  1  0
 23 24  1  0
 22  7  1  0
 19 10  1  0
  1 25  1  0
  1 26  1  0
  1 27  1  0
  2 28  1  0
  2 29  1  0
  3 30  1  0
  4 31  1  0
  4 32  1  0
  5 33  1  0
  5 34  1  0
  5 35  1  0
  6 36  1  0
  6 37  1  0
  8 38  1  0
 11 39  1  0
 11 40  1  0
 12 41  1  0
 12 42  1  0
 15 43  1  0
 15 44  1  0
 15 45  1  0
 18 46  1  0
 18 47  1  0
 19 48  1  0
 19 49  1  0
 20 50  1  0
 21 51  1  0
 24 52  1  0
 24 53  1  0
 24 54  1  0
M  CHG  1   3   1
M  END
>  <UniqueID>  (29) 
26

>  <SMILES>  (29) 
CC[NH+](CC)Cc1cc(N2CCN(S(C)(=O)=O)CC2)ccc1OC

>  <Energy>  (29) 
61.87427058566665

>  <Genealogy>  (29) 
CC[NH+](CC)Cc1cc(N2CCN(S(C)(=O)=O)CC2)ccc1OC (protonated)
CC[NH+](CC)Cc1cc(N2CCN(S(C)(=O)=O)CC2)ccc1OC (3D coordinates assigned)
CC[NH+](CC)Cc1cc(N2CCN(S(C)(=O)=O)CC2)ccc1OC (nonaromatic ring conformer: 61.87427058566665 kcal/mol)

>  <smiles>  (29) 
CCN(CC)Cc1cc(N2CCN(S(C)(=O)=O)CC2)ccc1OC

>  <score_type>  (29) 
oracle

>  <origin>  (29) 
adg

>  <m_score__min__energy>  (29) 
-5.3600000000000003

>  <m_primary>  (29) 
energy

$$$$
29:0
     RDKit          3D

 44 46  0  0  0  0  0  0  0  0999 V2000
   55.1620   29.3000   44.9500 O   0  0  0  0  0  0  0  0  0  0  0  0
   56.3730   28.9800   44.8160 C   0  0  0  0  0  0  0  0  0  0  0  0
   57.3130   29.9470   44.1510 C   0  0  0  0  0  0  0  0  0  0  0  0
   58.1050   30.6910   45.1870 C   0  0  0  0  0  0  0  0  0  0  0  0
   58.7590   30.1280   46.2820 C   0  0  0  0  0  0  0  0  0  0  0  0
   59.3100   31.0930   47.0520 N   0  0  0  0  0  0  0  0  0  0  0  0
   59.0140   32.2600   46.4550 C   0  0  0  0  0  0  0  0  0  0  0  0
   59.3510   33.5390   46.8930 C   0  0  0  0  0  0  0  0  0  0  0  0
   58.9230   34.6340   46.1200 C   0  0  0  0  0  0  0  0  0  0  0  0
   58.1800   34.4270   44.9380 C   0  0  0  0  0  0  0  0  0  0  0  0
   57.8540   33.1250   44.5190 C   0  0  0  0  0  0  0  0  0  0  0  0
   58.2860   32.0580   45.3090 C   0  0  0  0  0  0  0  0  0  0  0  0
   56.7890   27.6740   45.2270 N   0  0  0  0  0  0  0  0  0  0  0  0
   55.9660   26.7330   45.9790 C   0  0  0  0  0  0  0  0  0  0  0  0
   56.7990   25.5130   46.3970 C   0  0  0  0  0  0  0  0  0  0  0  0
   57.7110   24.9440   45.2800 C   0  0  0  0  0  0  0  0  0  0  0  0
   57.1890   23.7800   44.5260 N   0  0  0  0  0  0  0  0  0  0  0  0
   56.6760   24.0720   43.1790 C   0  0  0  0  0  0  0  0  0  0  0  0
   55.9190   22.8420   42.6310 C   0  0  0  0  0  0  0  0  0  0  0  0
   56.1490   21.6670   43.3930 O   0  0  0  0  0  0  0  0  0  0  0  0
   57.5340   21.4970   43.6160 C   0  0  0  0  0  0  0  0  0  0  0  0
   58.0640   22.5940   44.5570 C   0  0  0  0  0  0  0  0  0  0  0  0
   58.0010   29.3932   43.4954 H   0  0  0  0  0  0  0  0  0  0  0  0
   56.7295   30.6667   43.5582 H   0  0  0  0  0  0  0  0  0  0  0  0
   58.8184   29.0495   46.4903 H   0  0  0  0  0  0  0  0  0  0  0  0
   59.8420   30.9550   47.9400 H   0  0  0  0  0  0  0  0  0  0  0  0
   59.9334   33.6880   47.8142 H   0  0  0  0  0  0  0  0  0  0  0  0
   59.1690   35.6576   46.4388 H   0  0  0  0  0  0  0  0  0  0  0  0
   57.8535   35.2907   44.3401 H   0  0  0  0  0  0  0  0  0  0  0  0
   57.2771   32.9526   43.5984 H   0  0  0  0  0  0  0  0  0  0  0  0
   55.5751   27.2310   46.8785 H   0  0  0  0  0  0  0  0  0  0  0  0
   55.1339   26.3973   45.3427 H   0  0  0  0  0  0  0  0  0  0  0  0
   57.4359   25.8060   47.2446 H   0  0  0  0  0  0  0  0  0  0  0  0
   56.0830   24.7177   46.6517 H   0  0  0  0  0  0  0  0  0  0  0  0
   57.8984   25.7525   44.5580 H   0  0  0  0  0  0  0  0  0  0  0  0
   58.6085   24.5751   45.7981 H   0  0  0  0  0  0  0  0  0  0  0  0
   55.9908   24.9312   43.2272 H   0  0  0  0  0  0  0  0  0  0  0  0
   57.5184   24.3076   42.5120 H   0  0  0  0  0  0  0  0  0  0  0  0
   54.8410   23.0607   42.6400 H   0  0  0  0  0  0  0  0  0  0  0  0
   56.2900   22.6529   41.6129 H   0  0  0  0  0  0  0  0  0  0  0  0
   57.7095   20.5118   44.0726 H   0  0  0  0  0  0  0  0  0  0  0  0
   58.0619   21.5666   42.6534 H   0  0  0  0  0  0  0  0  0  0  0  0
   58.1018   22.2008   45.5836 H   0  0  0  0  0  0  0  0  0  0  0  0
   59.0693   22.8895   44.2221 H   0  0  0  0  0  0  0  0  0  0  0  0
  1  2  2  0
  2  3  1  0
  3  4  1  0
  4  5  2  0
  5  6  1  0
  6  7  1  0
  7  8  2  0
  8  9  1  0
  9 10  2  0
 10 11  1  0
 11 12  2  0
  2 13  1  0
 13 14  1  0
 14 15  1  0
 15 16  1  0
 16 17  1  0
 17 18  1  0
 18 19  1  0
 19 20  1  0
 20 21  1  0
 21 22  1  0
 12  4  1  0
 22 17  1  0
 12  7  1  0
  3 23  1  0
  3 24  1  0
  5 25  1  0
  6 26  1  0
  8 27  1  0
  9 28  1  0
 10 29  1  0
 11 30  1  0
 14 31  1  0
 14 32  1  0
 15 33  1  0
 15 34  1  0
 16 35  1  0
 16 36  1  0
 18 37  1  0
 18 38  1  0
 19 39  1  0
 19 40  1  0
 21 41  1  0
 21 42  1  0
 22 43  1  0
 22 44  1  0
M  CHG  1  13  -1
M  END
>  <UniqueID>  (30) 
27

>  <SMILES>  (30) 
O=C(Cc1c[nH]c2ccccc12)[N-]CCCN1CCOCC1

>  <Energy>  (30) 
85.01029573964288

>  <Genealogy>  (30) 
O=C(Cc1c[nH]c2ccccc12)[N-]CCCN1CCOCC1 (protonated)
O=C(Cc1c[nH]c2ccccc12)[N-]CCCN1CCOCC1 (3D coordinates assigned)
O=C(Cc1c[nH]c2ccccc12)[N-]CCCN1CCOCC1 (nonaromatic ring conformer: 85.01029573964288 kcal/mol)

>  <smiles>  (30) 
O=C(Cc1c[nH]c2ccccc12)NCCCN1CCOCC1

>  <score_type>  (30) 
oracle

>  <origin>  (30) 
adg

>  <m_score__min__energy>  (30) 
-9.8300000000000001

>  <m_primary>  (30) 
energy

$$$$
30:0
     RDKit          3D

 42 44  0  0  0  0  0  0  0  0999 V2000
   61.4916   28.3791   45.2123 H   0  0  0  0  0  0  0  0  0  0  0  0
   60.3960   28.2950   45.2640 C   0  0  0  0  0  0  0  0  0  0  0  0
   59.5950   29.2280   44.6000 C   0  0  0  0  0  0  0  0  0  0  0  0
   60.0635   30.0318   44.0131 H   0  0  0  0  0  0  0  0  0  0  0  0
   58.1950   29.1450   44.6780 C   0  0  0  0  0  0  0  0  0  0  0  0
   57.3380   30.1270   43.9330 C   0  0  0  0  0  0  0  0  0  0  0  0
   57.9788   30.8121   43.3585 H   0  0  0  0  0  0  0  0  0  0  0  0
   56.6722   29.5865   43.2441 H   0  0  0  0  0  0  0  0  0  0  0  0
   56.5620   30.8690   44.8590 O   0  0  0  0  0  0  0  0  0  0  0  0
   56.6290   32.2450   44.8800 N   0  0  0  0  0  0  0  0  0  0  0  0
   57.7050   32.8780   45.2380 C   0  0  0  0  0  0  0  0  0  0  0  0
   58.5940   32.2930   46.2810 C   0  0  0  0  0  0  0  0  0  0  0  0
   59.7960   32.8900   46.5830 N   0  0  0  0  0  0  0  0  0  0  0  0
   60.6240   32.3210   47.5170 C   0  0  0  0  0  0  0  0  0  0  0  0
   61.7530   32.8280   47.7670 O   0  0  0  0  0  0  0  0  0  0  0  0
   60.2330   31.1690   48.2040 C   0  0  0  0  0  0  0  0  0  0  0  0
   61.4020   30.3970   49.5240 Br  0  0  0  0  0  0  0  0  0  0  0  0
   58.9910   30.5960   47.9040 C   0  0  0  0  0  0  0  0  0  0  0  0
   58.5240   29.3560   48.6160 C   0  0  0  0  0  0  0  0  0  0  0  0
   58.5832   29.5131   49.7031 H   0  0  0  0  0  0  0  0  0  0  0  0
   57.4831   29.1406   48.3328 H   0  0  0  0  0  0  0  0  0  0  0  0
   59.1642   28.5075   48.3328 H   0  0  0  0  0  0  0  0  0  0  0  0
   58.2060   31.1660   46.9490 N   0  0  0  0  0  0  0  0  0  0  0  0
   57.2860   30.7250   46.7290 H   0  0  0  0  0  0  0  0  0  0  0  0
   60.2510   34.0840   45.8380 C   0  0  0  0  0  0  0  0  0  0  0  0
   60.8046   33.7581   44.9451 H   0  0  0  0  0  0  0  0  0  0  0  0
   60.8935   34.6802   46.5027 H   0  0  0  0  0  0  0  0  0  0  0  0
   59.0740   34.9570   45.4010 C   0  0  0  0  0  0  0  0  0  0  0  0
   59.4518   35.8105   44.8189 H   0  0  0  0  0  0  0  0  0  0  0  0
   58.5435   35.3160   46.2952 H   0  0  0  0  0  0  0  0  0  0  0  0
   58.1080   34.1510   44.5420 C   0  0  0  0  0  0  0  0  0  0  0  0
   58.5962   33.9013   43.5884 H   0  0  0  0  0  0  0  0  0  0  0  0
   57.2063   34.7557   44.3648 H   0  0  0  0  0  0  0  0  0  0  0  0
   57.6080   28.0990   45.4130 C   0  0  0  0  0  0  0  0  0  0  0  0
   56.2580   27.9830   45.4860 F   0  0  0  0  0  0  0  0  0  0  0  0
   58.4120   27.1670   46.0760 C   0  0  0  0  0  0  0  0  0  0  0  0
   57.9458   26.3625   46.6637 H   0  0  0  0  0  0  0  0  0  0  0  0
   59.8100   27.2520   45.9960 C   0  0  0  0  0  0  0  0  0  0  0  0
   60.6710   26.2730   46.7380 C   0  0  0  0  0  0  0  0  0  0  0  0
   60.5427   26.4189   47.8207 H   0  0  0  0  0  0  0  0  0  0  0  0
   60.3764   25.2480   46.4687 H   0  0  0  0  0  0  0  0  0  0  0  0
   61.7253   26.4342   46.4687 H   0  0  0  0  0  0  0  0  0  0  0  0
  1  2  1  0
  2  3  2  0
  3  4  1  0
  3  5  1  0
  5  6  1  0
  6  7  1  0
  6  8  1  0
  6  9  1  0
  9 10  1  0
 10 11  2  0
 11 12  1  0
 12 13  1  0
 13 14  1  0
 14 15  2  0
 14 16  1  0
 16 17  1  0
 16 18  2  0
 18 19  1  0
 19 20  1  0
 19 21  1  0
 19 22  1  0
 18 23  1  0
 23 24  1  0
 13 25  1  0
 25 26  1  0
 25 27  1  0
 25 28  1  0
 28 29  1  0
 28 30  1  0
 28 31  1  0
 31 32  1  0
 31 33  1  0
  5 34  2  0
 34 35  1  0
 34 36  1  0
 36 37  1  0
 36 38  2  0
 38 39  1  0
 39 40  1  0
 39 41  1  0
 39 42  1  0
 38  2  1  0
 31 11  1  0
 23 12  2  0
M  CHG  1  23   1
M  END
>  <UniqueID>  (31) 
28

>  <SMILES>  (31) 
Cc1ccc(CO/N=C2\CCCn3c2[nH+]c(C)c(Br)c3=O)c(F)c1

>  <Energy>  (31) 
43.29737172134163

>  <Genealogy>  (31) 
Cc1ccc(CON=C2CCCn3c2[nH+]c(C)c(Br)c3=O)c(F)c1 (protonated)
Cc1ccc(CO/N=C2\CCCn3c2[nH+]c(C)c(Br)c3=O)c(F)c1 (cis-trans isomerization)
Cc1ccc(CO/N=C2\CCCn3c2[nH+]c(C)c(Br)c3=O)c(F)c1 (3D coordinates assigned)
Cc1ccc(CO/N=C2\CCCn3c2[nH+]c(C)c(Br)c3=O)c(F)c1 (nonaromatic ring conformer: 43.29737172134163 kcal/mol)

>  <smiles>  (31) 
Cc1ccc(CON=C2CCCn3c2nc(C)c(Br)c3=O)c(F)c1

>  <score_type>  (31) 
oracle

>  <origin>  (31) 
adg

>  <m_score__min__energy>  (31) 
-7.2699999999999996

>  <m_primary>  (31) 
energy

$$$$
31:0
     RDKit          3D

 52 54  0  0  0  0  0  0  0  0999 V2000
   57.3300   34.0720   45.2760 C   0  0  0  0  0  0  0  0  0  0  0  0
   58.2610   33.2800   46.2080 C   0  0  2  0  0  0  0  0  0  0  0  0
   59.5900   34.0370   46.3900 C   0  0  0  0  0  0  0  0  0  0  0  0
   60.5670   33.2490   47.1550 N   0  0  0  0  0  0  0  0  0  0  0  0
   61.7780   33.8960   47.5970 C   0  0  0  0  0  0  0  0  0  0  0  0
   61.7740   34.5360   48.6850 O   0  0  0  0  0  0  0  0  0  0  0  0
   63.0420   33.8570   46.7660 C   0  0  0  0  0  0  0  0  0  0  0  0
   63.7850   32.5930   46.9110 N   0  0  0  0  0  0  0  0  0  0  0  0
   63.5840   31.9640   48.2270 C   0  0  0  0  0  0  0  0  0  0  0  0
   64.2920   32.7620   49.3270 C   0  0  0  0  0  0  0  0  0  0  0  0
   64.0580   32.0140   50.9820 S   0  0  0  0  0  0  0  0  0  0  0  0
   62.2670   32.1360   50.9760 C   0  0  0  0  0  0  0  0  0  0  0  0
   61.6450   33.3560   51.2720 C   0  0  0  0  0  0  0  0  0  0  0  0
   60.2490   33.4520   51.2630 C   0  0  0  0  0  0  0  0  0  0  0  0
   59.4730   32.3310   50.9490 C   0  0  0  0  0  0  0  0  0  0  0  0
   60.0920   31.1160   50.6400 C   0  0  0  0  0  0  0  0  0  0  0  0
   61.4870   31.0190   50.6490 C   0  0  0  0  0  0  0  0  0  0  0  0
   60.2670   31.8560   47.5220 C   0  0  0  0  0  0  0  0  0  0  0  0
   59.6130   31.1190   46.3480 C   0  0  0  0  0  0  0  0  0  0  0  0
   58.5390   31.9100   45.7300 N   0  0  0  0  0  0  0  0  0  0  0  0
   57.6830   31.2470   44.7870 C   0  0  0  0  0  0  0  0  0  0  0  0
   57.8070   31.5010   43.4140 C   0  0  0  0  0  0  0  0  0  0  0  0
   56.9600   30.8450   42.5170 C   0  0  0  0  0  0  0  0  0  0  0  0
   56.0030   29.9480   42.9960 C   0  0  0  0  0  0  0  0  0  0  0  0
   55.9070   29.7210   44.3720 C   0  0  0  0  0  0  0  0  0  0  0  0
   56.7400   30.3690   45.2290 N   0  0  0  0  0  0  0  0  0  0  0  0
   56.6290   34.6684   45.8784 H   0  0  0  0  0  0  0  0  0  0  0  0
   57.9294   34.7413   44.6413 H   0  0  0  0  0  0  0  0  0  0  0  0
   56.7654   33.3731   44.6413 H   0  0  0  0  0  0  0  0  0  0  0  0
   57.7339   33.1860   47.1689 H   0  0  0  0  0  0  0  0  0  0  0  0
   60.0110   34.2606   45.3987 H   0  0  0  0  0  0  0  0  0  0  0  0
   59.3831   34.9612   46.9495 H   0  0  0  0  0  0  0  0  0  0  0  0
   62.7704   33.9850   45.7078 H   0  0  0  0  0  0  0  0  0  0  0  0
   63.6959   34.6668   47.1218 H   0  0  0  0  0  0  0  0  0  0  0  0
   64.8070   32.7620   46.7550 H   0  0  0  0  0  0  0  0  0  0  0  0
   62.5069   31.9246   48.4468 H   0  0  0  0  0  0  0  0  0  0  0  0
   64.0075   30.9491   48.2004 H   0  0  0  0  0  0  0  0  0  0  0  0
   65.3683   32.7968   49.1027 H   0  0  0  0  0  0  0  0  0  0  0  0
   63.8550   33.7713   49.3472 H   0  0  0  0  0  0  0  0  0  0  0  0
   62.2548   34.2395   51.5118 H   0  0  0  0  0  0  0  0  0  0  0  0
   59.7618   34.4086   51.5028 H   0  0  0  0  0  0  0  0  0  0  0  0
   58.3755   32.4056   50.9452 H   0  0  0  0  0  0  0  0  0  0  0  0
   59.4814   30.2360   50.3897 H   0  0  0  0  0  0  0  0  0  0  0  0
   61.9727   30.0642   50.3990 H   0  0  0  0  0  0  0  0  0  0  0  0
   61.2018   31.3444   47.7946 H   0  0  0  0  0  0  0  0  0  0  0  0
   59.5711   31.8552   48.3739 H   0  0  0  0  0  0  0  0  0  0  0  0
   60.3808   30.9086   45.5889 H   0  0  0  0  0  0  0  0  0  0  0  0
   59.1703   30.1893   46.7350 H   0  0  0  0  0  0  0  0  0  0  0  0
   58.5636   32.2098   43.0464 H   0  0  0  0  0  0  0  0  0  0  0  0
   57.0468   31.0346   41.4369 H   0  0  0  0  0  0  0  0  0  0  0  0
   55.3320   29.4257   42.2982 H   0  0  0  0  0  0  0  0  0  0  0  0
   55.1567   29.0173   44.7618 H   0  0  0  0  0  0  0  0  0  0  0  0
  1  2  1  0
  2  3  1  0
  3  4  1  0
  4  5  1  0
  5  6  2  0
  5  7  1  0
  7  8  1  0
  8  9  1  0
  9 10  1  0
 10 11  1  0
 11 12  1  0
 12 13  2  0
 13 14  1  0
 14 15  2  0
 15 16  1  0
 16 17  2  0
  4 18  1  0
 18 19  1  0
 19 20  1  0
 20 21  1  0
 21 22  2  0
 22 23  1  0
 23 24  2  0
 24 25  1  0
 25 26  2  0
 20  2  1  0
 26 21  1  0
 17 12  1  0
  1 27  1  0
  1 28  1  0
  1 29  1  0
  2 30  1  1
  3 31  1  0
  3 32  1  0
  7 33  1  0
  7 34  1  0
  8 35  1  0
  9 36  1  0
  9 37  1  0
 10 38  1  0
 10 39  1  0
 13 40  1  0
 14 41  1  0
 15 42  1  0
 16 43  1  0
 17 44  1  0
 18 45  1  0
 18 46  1  0
 19 47  1  0
 19 48  1  0
 22 49  1  0
 23 50  1  0
 24 51  1  0
 25 52  1  0
M  END
>  <UniqueID>  (32) 
29

>  <SMILES>  (32) 
C[C@@H]1CN(C(=O)CNCCSc2ccccc2)CCN1c1ccccn1

>  <Energy>  (32) 
57.590798732029356

>  <Genealogy>  (32) 
C[C@@H]1CN(C(=O)CNCCSc2ccccc2)CCN1c1ccccn1 (chirality)
C[C@@H]1CN(C(=O)CNCCSc2ccccc2)CCN1c1ccccn1 (3D coordinates assigned)
C[C@@H]1CN(C(=O)CNCCSc2ccccc2)CCN1c1ccccn1 (nonaromatic ring conformer: 57.590798732029356 kcal/mol)

>  <smiles>  (32) 
CC1CN(C(=O)CNCCSc2ccccc2)CCN1c1ccccn1

>  <score_type>  (32) 
oracle

>  <origin>  (32) 
adg

>  <m_score__min__energy>  (32) 
-8.5899999999999999

>  <m_primary>  (32) 
energy

$$$$
32:0
     RDKit          3D

 47 48  0  0  0  0  0  0  0  0999 V2000
   56.6290   22.1260   42.6790 C   0  0  0  0  0  0  0  0  0  0  0  0
   56.5960   23.1860   43.2540 C   0  0  0  0  0  0  0  0  0  0  0  0
   56.5560   24.4800   43.9540 C   0  0  0  0  0  0  0  0  0  0  0  0
   56.0970   24.3600   45.4360 C   0  0  1  0  0  0  0  0  0  0  0  0
   54.7730   23.5550   45.4980 C   0  0  0  0  0  0  0  0  0  0  0  0
   57.2090   23.5960   46.2190 C   0  0  0  0  0  0  0  0  0  0  0  0
   58.6330   23.8250   45.6990 C   0  0  0  0  0  0  0  0  0  0  0  0
   55.9230   25.7540   46.0210 C   0  0  0  0  0  0  0  0  0  0  0  0
   54.8060   26.3390   45.9600 O   0  0  0  0  0  0  0  0  0  0  0  0
   57.0600   26.4370   46.5650 N   0  0  0  0  0  0  0  0  0  0  0  0
   57.4420   27.7950   46.3030 C   0  0  0  0  0  0  0  0  0  0  0  0
   56.8510   28.4620   45.2260 C   0  0  0  0  0  0  0  0  0  0  0  0
   57.2100   29.7790   44.9230 C   0  0  0  0  0  0  0  0  0  0  0  0
   58.1860   30.4450   45.6830 C   0  0  0  0  0  0  0  0  0  0  0  0
   58.5680   31.8750   45.3450 C   0  0  1  0  0  0  0  0  0  0  0  0
   57.3950   32.6370   44.6830 C   0  0  0  0  0  0  0  0  0  0  0  0
   57.4780   34.1560   44.9130 C   0  0  0  0  0  0  0  0  0  0  0  0
   58.9320   34.6120   45.0840 C   0  0  0  0  0  0  0  0  0  0  0  0
   59.5860   33.9830   46.2480 N   0  0  0  0  0  0  0  0  0  0  0  0
   59.0870   32.6330   46.5850 C   0  0  0  0  0  0  0  0  0  0  0  0
   58.7960   29.7620   46.7520 C   0  0  0  0  0  0  0  0  0  0  0  0
   58.4340   28.4470   47.0550 C   0  0  0  0  0  0  0  0  0  0  0  0
   56.6591   21.1595   42.1547 H   0  0  0  0  0  0  0  0  0  0  0  0
   57.5642   24.9196   43.9345 H   0  0  0  0  0  0  0  0  0  0  0  0
   55.8206   25.1111   43.4336 H   0  0  0  0  0  0  0  0  0  0  0  0
   54.4954   23.3862   46.5489 H   0  0  0  0  0  0  0  0  0  0  0  0
   53.9756   24.1213   44.9945 H   0  0  0  0  0  0  0  0  0  0  0  0
   54.9088   22.5865   44.9945 H   0  0  0  0  0  0  0  0  0  0  0  0
   57.1720   23.9198   47.2696 H   0  0  0  0  0  0  0  0  0  0  0  0
   56.9997   22.5241   46.0881 H   0  0  0  0  0  0  0  0  0  0  0  0
   59.3208   23.9356   46.5503 H   0  0  0  0  0  0  0  0  0  0  0  0
   58.9425   22.9651   45.0868 H   0  0  0  0  0  0  0  0  0  0  0  0
   58.6573   24.7386   45.0868 H   0  0  0  0  0  0  0  0  0  0  0  0
   56.0976   27.9468   44.6121 H   0  0  0  0  0  0  0  0  0  0  0  0
   56.7245   30.2976   44.0831 H   0  0  0  0  0  0  0  0  0  0  0  0
   59.3893   31.8241   44.6151 H   0  0  0  0  0  0  0  0  0  0  0  0
   57.4133   32.4421   43.6006 H   0  0  0  0  0  0  0  0  0  0  0  0
   56.4613   32.2790   45.1414 H   0  0  0  0  0  0  0  0  0  0  0  0
   57.0387   34.6745   44.0480 H   0  0  0  0  0  0  0  0  0  0  0  0
   56.9259   34.3999   45.8326 H   0  0  0  0  0  0  0  0  0  0  0  0
   59.4944   34.3465   44.1767 H   0  0  0  0  0  0  0  0  0  0  0  0
   58.9250   35.6993   45.2504 H   0  0  0  0  0  0  0  0  0  0  0  0
   60.6120   33.9180   46.0470 H   0  0  0  0  0  0  0  0  0  0  0  0
   59.9072   32.0548   47.0356 H   0  0  0  0  0  0  0  0  0  0  0  0
   58.2464   32.7495   47.2849 H   0  0  0  0  0  0  0  0  0  0  0  0
   59.5647   30.2682   47.3543 H   0  0  0  0  0  0  0  0  0  0  0  0
   58.9273   27.9202   47.8852 H   0  0  0  0  0  0  0  0  0  0  0  0
  1  2  3  0
  2  3  1  0
  4  3  1  6
  4  5  1  0
  4  6  1  0
  6  7  1  0
  4  8  1  0
  8  9  2  0
  8 10  1  0
 10 11  1  0
 11 12  2  0
 12 13  1  0
 13 14  2  0
 14 15  1  0
 15 16  1  0
 16 17  1  0
 17 18  1  0
 18 19  1  0
 19 20  1  0
 14 21  1  0
 21 22  2  0
 22 11  1  0
 20 15  1  0
  1 23  1  0
  3 24  1  0
  3 25  1  0
  5 26  1  0
  5 27  1  0
  5 28  1  0
  6 29  1  0
  6 30  1  0
  7 31  1  0
  7 32  1  0
  7 33  1  0
 12 34  1  0
 13 35  1  0
 15 36  1  6
 16 37  1  0
 16 38  1  0
 17 39  1  0
 17 40  1  0
 18 41  1  0
 18 42  1  0
 19 43  1  0
 20 44  1  0
 20 45  1  0
 21 46  1  0
 22 47  1  0
M  CHG  1  10  -1
M  END
>  <UniqueID>  (33) 
30

>  <SMILES>  (33) 
C#CC[C@@](C)(CC)C(=O)[N-]c1ccc([C@H]2CCCNC2)cc1

>  <Energy>  (33) 
51.370108110593605

>  <Genealogy>  (33) 
C#CCC(C)(CC)C(=O)[N-]c1ccc(C2CCCNC2)cc1 (protonated)
C#CC[C@@](C)(CC)C(=O)[N-]c1ccc([C@H]2CCCNC2)cc1 (chirality)
C#CC[C@@](C)(CC)C(=O)[N-]c1ccc([C@H]2CCCNC2)cc1 (3D coordinates assigned)
C#CC[C@@](C)(CC)C(=O)[N-]c1ccc([C@H]2CCCNC2)cc1 (nonaromatic ring conformer: 51.370108110593605 kcal/mol)

>  <smiles>  (33) 
C#CCC(C)(CC)C(=O)Nc1ccc(C2CCCNC2)cc1

>  <score_type>  (33) 
oracle

>  <origin>  (33) 
adg

>  <m_score__min__energy>  (33) 
-9.5500000000000007

>  <m_primary>  (33) 
energy

$$$$
33:0
     RDKit          3D

 44 47  0  0  0  0  0  0  0  0999 V2000
   60.2716   32.7125   54.0369 H   0  0  0  0  0  0  0  0  0  0  0  0
   60.9230   33.0420   53.2140 C   0  0  0  0  0  0  0  0  0  0  0  0
   62.0740   33.7290   53.3580 N   0  0  0  0  0  0  0  0  0  0  0  0
   62.5710   33.9460   52.1500 N   0  0  0  0  0  0  0  0  0  0  0  0
   63.8290   34.6450   51.9140 C   0  0  0  0  0  0  0  0  0  0  0  0
   64.2920   34.9023   52.8781 H   0  0  0  0  0  0  0  0  0  0  0  0
   64.5082   33.9949   51.3430 H   0  0  0  0  0  0  0  0  0  0  0  0
   63.6357   35.5651   51.3430 H   0  0  0  0  0  0  0  0  0  0  0  0
   61.7580   33.3990   51.2210 C   0  0  0  0  0  0  0  0  0  0  0  0
   62.0060   33.3980   49.7650 C   0  0  0  0  0  0  0  0  0  0  0  0
   63.1980   33.0160   49.2080 N   0  0  0  0  0  0  0  0  0  0  0  0
   64.3420   32.4270   49.8490 C   0  0  0  0  0  0  0  0  0  0  0  0
   65.6110   33.0230   49.7460 C   0  0  0  0  0  0  0  0  0  0  0  0
   65.7358   33.9498   49.1668 H   0  0  0  0  0  0  0  0  0  0  0  0
   66.7150   32.4420   50.3770 C   0  0  0  0  0  0  0  0  0  0  0  0
   67.7073   32.9077   50.2853 H   0  0  0  0  0  0  0  0  0  0  0  0
   66.5610   31.2710   51.1240 C   0  0  0  0  0  0  0  0  0  0  0  0
   67.4320   30.8131   51.6156 H   0  0  0  0  0  0  0  0  0  0  0  0
   65.2990   30.6820   51.2460 C   0  0  0  0  0  0  0  0  0  0  0  0
   65.1765   29.7628   51.8376 H   0  0  0  0  0  0  0  0  0  0  0  0
   64.1930   31.2600   50.6170 C   0  0  0  0  0  0  0  0  0  0  0  0
   63.2001   30.7987   50.7238 H   0  0  0  0  0  0  0  0  0  0  0  0
   63.0550   33.2640   47.5680 S   0  0  0  0  0  0  0  0  0  0  0  0
   61.4920   33.8510   47.6110 C   0  0  0  0  0  0  0  0  0  0  0  0
   60.7480   34.2020   46.6030 N   0  0  0  0  0  0  0  0  0  0  0  0
   59.6300   33.4720   46.0730 C   0  0  0  0  0  0  0  0  0  0  0  0
   58.6090   34.1090   45.3470 C   0  0  0  0  0  0  0  0  0  0  0  0
   58.6717   35.1888   45.1468 H   0  0  0  0  0  0  0  0  0  0  0  0
   57.5140   33.3770   44.8780 C   0  0  0  0  0  0  0  0  0  0  0  0
   56.7283   33.8797   44.2950 H   0  0  0  0  0  0  0  0  0  0  0  0
   57.4130   31.9990   45.1490 C   0  0  0  0  0  0  0  0  0  0  0  0
   56.3370   31.2200   44.6990 O   0  0  0  0  0  0  0  0  0  0  0  0
   56.4250   30.2530   43.6570 C   0  0  0  0  0  0  0  0  0  0  0  0
   56.5164   29.2485   44.0958 H   0  0  0  0  0  0  0  0  0  0  0  0
   55.5188   30.3005   43.0352 H   0  0  0  0  0  0  0  0  0  0  0  0
   57.3077   30.4633   43.0352 H   0  0  0  0  0  0  0  0  0  0  0  0
   58.4160   31.3780   45.9010 C   0  0  0  0  0  0  0  0  0  0  0  0
   58.3426   30.3037   46.1258 H   0  0  0  0  0  0  0  0  0  0  0  0
   59.5100   32.1100   46.3690 C   0  0  0  0  0  0  0  0  0  0  0  0
   60.2820   31.6122   46.9741 H   0  0  0  0  0  0  0  0  0  0  0  0
   61.0540   33.8490   48.8890 N   0  0  0  0  0  0  0  0  0  0  0  0
   60.1060   34.1840   49.1750 H   0  0  0  0  0  0  0  0  0  0  0  0
   60.6900   32.8170   51.8730 C   0  0  0  0  0  0  0  0  0  0  0  0
   59.3740   31.8850   51.1840 Cl  0  0  0  0  0  0  0  0  0  0  0  0
  1  2  1  0
  2  3  2  0
  3  4  1  0
  4  5  1  0
  5  6  1  0
  5  7  1  0
  5  8  1  0
  4  9  1  0
  9 10  1  0
 10 11  1  0
 11 12  1  0
 12 13  2  0
 13 14  1  0
 13 15  1  0
 15 16  1  0
 15 17  2  0
 17 18  1  0
 17 19  1  0
 19 20  1  0
 19 21  2  0
 21 22  1  0
 11 23  1  0
 23 24  1  0
 24 25  2  0
 25 26  1  0
 26 27  2  0
 27 28  1  0
 27 29  1  0
 29 30  1  0
 29 31  2  0
 31 32  1  0
 32 33  1  0
 33 34  1  0
 33 35  1  0
 33 36  1  0
 31 37  1  0
 37 38  1  0
 37 39  2  0
 39 40  1  0
 24 41  1  0
 41 42  1  0
  9 43  2  0
 43 44  1  0
 43  2  1  0
 41 10  2  0
 21 12  1  0
 39 26  1  0
M  CHG  1  41   1
M  END
>  <UniqueID>  (34) 
31

>  <SMILES>  (34) 
COc1ccc(/N=c2/[nH+]c(-c3c(Cl)cnn3C)n(-c3ccccc3)s2)cc1

>  <Energy>  (34) 
132.90456921406724

>  <Genealogy>  (34) 
COc1ccc(N=c2[nH+]c(-c3c(Cl)cnn3C)n(-c3ccccc3)s2)cc1 (protonated)
COc1ccc(/N=c2/[nH+]c(-c3c(Cl)cnn3C)n(-c3ccccc3)s2)cc1 (cis-trans isomerization)
COc1ccc(/N=c2/[nH+]c(-c3c(Cl)cnn3C)n(-c3ccccc3)s2)cc1 (3D coordinates assigned)
COc1ccc(/N=c2/[nH+]c(-c3c(Cl)cnn3C)n(-c3ccccc3)s2)cc1 (optimized conformer: 132.90456921406724 kcal/mol)

>  <smiles>  (34) 
COc1ccc(N=c2nc(-c3c(Cl)cnn3C)n(-c3ccccc3)s2)cc1

>  <score_type>  (34) 
oracle

>  <origin>  (34) 
adg

>  <m_score__min__energy>  (34) 
-5.9900000000000002

>  <m_primary>  (34) 
energy

$$$$
34:0
     RDKit          3D

 53 56  0  0  0  0  0  0  0  0999 V2000
   59.5014   34.7618   45.7219 H   0  0  0  0  0  0  0  0  0  0  0  0
   59.3510   34.0330   46.5320 C   0  0  0  0  0  0  0  0  0  0  0  0
   59.8520   34.3020   47.8080 C   0  0  0  0  0  0  0  0  0  0  0  0
   60.3938   35.2408   47.9951 H   0  0  0  0  0  0  0  0  0  0  0  0
   59.6690   33.3830   48.8530 C   0  0  0  0  0  0  0  0  0  0  0  0
   60.1760   33.6660   50.1720 N   0  0  0  0  0  0  0  0  0  0  0  0
   59.2720   33.8440   51.3120 C   0  0  0  0  0  0  0  0  0  0  0  0
   59.3499   34.8781   51.6789 H   0  0  0  0  0  0  0  0  0  0  0  0
   58.2417   33.6358   50.9876 H   0  0  0  0  0  0  0  0  0  0  0  0
   59.6460   32.8720   52.4480 C   0  0  0  0  0  0  0  0  0  0  0  0
   59.3426   33.3236   53.4040 H   0  0  0  0  0  0  0  0  0  0  0  0
   59.1240   31.9257   52.2430 H   0  0  0  0  0  0  0  0  0  0  0  0
   61.0980   32.5570   52.5190 N   0  0  0  0  0  0  0  0  0  0  0  0
   61.3920   31.2100   51.9970 C   0  0  0  0  0  0  0  0  0  0  0  0
   61.5434   30.5162   52.8371 H   0  0  0  0  0  0  0  0  0  0  0  0
   60.5485   30.8628   51.3822 H   0  0  0  0  0  0  0  0  0  0  0  0
   62.3035   31.2459   51.3822 H   0  0  0  0  0  0  0  0  0  0  0  0
   61.9510   33.5880   51.8920 C   0  0  0  0  0  0  0  0  0  0  0  0
   61.7962   34.5435   52.4145 H   0  0  0  0  0  0  0  0  0  0  0  0
   62.9975   33.2582   51.9702 H   0  0  0  0  0  0  0  0  0  0  0  0
   61.6210   33.7770   50.4020 C   0  0  0  0  0  0  0  0  0  0  0  0
   61.9624   34.7719   50.0800 H   0  0  0  0  0  0  0  0  0  0  0  0
   62.1320   32.9925   49.8246 H   0  0  0  0  0  0  0  0  0  0  0  0
   58.9540   32.2010   48.6040 C   0  0  0  0  0  0  0  0  0  0  0  0
   58.7867   31.4823   49.4198 H   0  0  0  0  0  0  0  0  0  0  0  0
   58.4530   31.9300   47.3280 C   0  0  0  0  0  0  0  0  0  0  0  0
   57.8957   30.9992   47.1465 H   0  0  0  0  0  0  0  0  0  0  0  0
   58.6560   32.8380   46.2750 C   0  0  0  0  0  0  0  0  0  0  0  0
   58.1490   32.5510   44.9120 C   0  0  0  0  0  0  0  0  0  0  0  0
   58.3580   33.3090   43.7610 C   0  0  0  0  0  0  0  0  0  0  0  0
   58.8945   34.2683   43.7182 H   0  0  0  0  0  0  0  0  0  0  0  0
   57.7950   32.6760   42.7030 N   0  0  0  0  0  0  0  0  0  0  0  0
   57.7970   32.9860   41.7060 H   0  0  0  0  0  0  0  0  0  0  0  0
   57.2670   31.5510   43.2160 C   0  0  0  0  0  0  0  0  0  0  0  0
   56.6300   30.5290   42.5220 C   0  0  0  0  0  0  0  0  0  0  0  0
   56.4567   30.5947   41.4377 H   0  0  0  0  0  0  0  0  0  0  0  0
   56.2170   29.4100   43.2610 C   0  0  0  0  0  0  0  0  0  0  0  0
   55.7045   28.5766   42.7582 H   0  0  0  0  0  0  0  0  0  0  0  0
   56.4600   29.3550   44.6510 C   0  0  0  0  0  0  0  0  0  0  0  0
   56.0830   28.3140   45.3320 N   0  0  0  0  0  0  0  0  0  0  0  0
   56.9540   27.2080   45.7370 C   0  0  0  0  0  0  0  0  0  0  0  0
   57.6486   27.5653   46.5116 H   0  0  0  0  0  0  0  0  0  0  0  0
   57.5026   26.8583   44.8500 H   0  0  0  0  0  0  0  0  0  0  0  0
   56.1470   26.0340   46.2960 C   0  0  0  0  0  0  0  0  0  0  0  0
   56.2713   25.9930   47.3882 H   0  0  0  0  0  0  0  0  0  0  0  0
   56.5091   25.0981   45.8456 H   0  0  0  0  0  0  0  0  0  0  0  0
   54.7790   26.2010   45.9860 O   0  0  0  0  0  0  0  0  0  0  0  0
   54.2200   24.9560   45.6340 C   0  0  0  0  0  0  0  0  0  0  0  0
   53.9685   24.3958   46.5466 H   0  0  0  0  0  0  0  0  0  0  0  0
   53.3083   25.1181   45.0403 H   0  0  0  0  0  0  0  0  0  0  0  0
   54.9470   24.3824   45.0403 H   0  0  0  0  0  0  0  0  0  0  0  0
   57.0910   30.4030   45.2590 N   0  0  0  0  0  0  0  0  0  0  0  0
   57.4600   31.4560   44.5370 N   0  0  0  0  0  0  0  0  0  0  0  0
  1  2  1  0
  2  3  2  0
  3  4  1  0
  3  5  1  0
  5  6  1  0
  6  7  1  0
  7  8  1  0
  7  9  1  0
  7 10  1  0
 10 11  1  0
 10 12  1  0
 10 13  1  0
 13 14  1  0
 14 15  1  0
 14 16  1  0
 14 17  1  0
 13 18  1  0
 18 19  1  0
 18 20  1  0
 18 21  1  0
 21 22  1  0
 21 23  1  0
  5 24  2  0
 24 25  1  0
 24 26  1  0
 26 27  1  0
 26 28  2  0
 28 29  1  0
 29 30  2  0
 30 31  1  0
 30 32  1  0
 32 33  1  0
 32 34  2  0
 34 35  1  0
 35 36  1  0
 35 37  2  0
 37 38  1  0
 37 39  1  0
 39 40  2  0
 40 41  1  0
 41 42  1  0
 41 43  1  0
 41 44  1  0
 44 45  1  0
 44 46  1  0
 44 47  1  0
 47 48  1  0
 48 49  1  0
 48 50  1  0
 48 51  1  0
 39 52  1  0
 52 53  1  0
 28  2  1  0
 53 29  1  0
 21  6  1  0
 53 34  1  0
M  CHG  2  32   1  52  -1
M  END
>  <UniqueID>  (35) 
32

>  <SMILES>  (35) 
COCC/N=c1/ccc2[nH+]cc(-c3ccc(N4CCN(C)CC4)cc3)n2[n-]1

>  <Energy>  (35) 
106.35341578355546

>  <Genealogy>  (35) 
COCCN=c1ccc2[nH+]cc(-c3ccc(N4CCN(C)CC4)cc3)n2[n-]1 (protonated)
COCC/N=c1/ccc2[nH+]cc(-c3ccc(N4CCN(C)CC4)cc3)n2[n-]1 (cis-trans isomerization)
COCC/N=c1/ccc2[nH+]cc(-c3ccc(N4CCN(C)CC4)cc3)n2[n-]1 (3D coordinates assigned)
COCC/N=c1/ccc2[nH+]cc(-c3ccc(N4CCN(C)CC4)cc3)n2[n-]1 (nonaromatic ring conformer: 106.35341578355546 kcal/mol)

>  <smiles>  (35) 
COCCN=c1ccc2ncc(-c3ccc(N4CCN(C)CC4)cc3)n2[nH]1

>  <score_type>  (35) 
oracle

>  <origin>  (35) 
adg

>  <m_score__min__energy>  (35) 
-8.6899999999999995

>  <m_primary>  (35) 
energy

$$$$
35:0
     RDKit          3D

 52 54  0  0  0  0  0  0  0  0999 V2000
   56.5870   30.4950   54.1430 C   0  0  0  0  0  0  0  0  0  0  0  0
   57.3550   31.6890   54.0580 O   0  0  0  0  0  0  0  0  0  0  0  0
   58.0650   32.0950   52.9190 C   0  0  0  0  0  0  0  0  0  0  0  0
   58.3370   31.2240   51.8500 C   0  0  0  0  0  0  0  0  0  0  0  0
   59.0420   31.6760   50.7300 C   0  0  0  0  0  0  0  0  0  0  0  0
   59.4800   33.0150   50.6470 C   0  0  0  0  0  0  0  0  0  0  0  0
   60.2040   33.5110   49.4810 N   0  0  1  0  0  0  0  0  0  0  0  0
   61.6590   33.6720   49.7860 C   0  0  0  0  0  0  0  0  0  0  0  0
   62.5490   32.6180   49.1130 C   0  0  0  0  0  0  0  0  0  0  0  0
   62.3810   32.6260   47.5890 C   0  0  0  0  0  0  0  0  0  0  0  0
   60.9300   32.9270   47.1340 C   0  0  2  0  0  0  0  0  0  0  0  0
   60.7960   34.3410   46.5260 C   0  0  0  0  0  0  0  0  0  0  0  0
   59.3810   34.9420   46.6150 C   0  0  0  0  0  0  0  0  0  0  0  0
   58.3030   33.9430   46.7070 N   0  0  0  0  0  0  0  0  0  0  0  0
   57.8140   33.3380   45.1400 S   0  0  0  0  0  0  0  0  0  0  0  0
   56.6460   34.1460   44.6420 O   0  0  0  0  0  0  0  0  0  0  0  0
   58.9550   33.5380   44.1790 O   0  0  0  0  0  0  0  0  0  0  0  0
   57.3940   31.6390   45.2460 N   0  0  0  0  0  0  0  0  0  0  0  0
   58.6000   30.8160   45.3950 C   0  0  0  0  0  0  0  0  0  0  0  0
   56.6390   31.2190   44.0580 C   0  0  0  0  0  0  0  0  0  0  0  0
   58.4630   32.8870   47.7360 C   0  0  0  0  0  0  0  0  0  0  0  0
   59.9120   32.6850   48.2660 C   0  0  2  0  0  0  0  0  0  0  0  0
   59.2110   33.8750   51.7310 C   0  0  0  0  0  0  0  0  0  0  0  0
   58.5130   33.4170   52.8500 C   0  0  0  0  0  0  0  0  0  0  0  0
   56.4225   30.2393   55.2002 H   0  0  0  0  0  0  0  0  0  0  0  0
   55.6169   30.6470   53.6473 H   0  0  0  0  0  0  0  0  0  0  0  0
   57.1276   29.6752   53.6473 H   0  0  0  0  0  0  0  0  0  0  0  0
   57.9931   30.1801   51.8946 H   0  0  0  0  0  0  0  0  0  0  0  0
   59.2573   30.9807   49.9053 H   0  0  0  0  0  0  0  0  0  0  0  0
   59.8570   34.4760   49.2870 H   0  0  0  0  0  0  0  0  0  0  0  0
   61.9781   34.6671   49.4425 H   0  0  0  0  0  0  0  0  0  0  0  0
   61.7763   33.5465   50.8725 H   0  0  0  0  0  0  0  0  0  0  0  0
   63.6003   32.8302   49.3572 H   0  0  0  0  0  0  0  0  0  0  0  0
   62.2508   31.6272   49.4864 H   0  0  0  0  0  0  0  0  0  0  0  0
   63.0455   33.3951   47.1685 H   0  0  0  0  0  0  0  0  0  0  0  0
   62.6334   31.6180   47.2280 H   0  0  0  0  0  0  0  0  0  0  0  0
   60.6910   32.2135   46.3316 H   0  0  0  0  0  0  0  0  0  0  0  0
   61.4880   35.0107   47.0576 H   0  0  0  0  0  0  0  0  0  0  0  0
   61.0287   34.2449   45.4552 H   0  0  0  0  0  0  0  0  0  0  0  0
   59.3343   35.5825   47.5081 H   0  0  0  0  0  0  0  0  0  0  0  0
   59.2158   35.4986   45.6807 H   0  0  0  0  0  0  0  0  0  0  0  0
   58.8143   30.6697   46.4640 H   0  0  0  0  0  0  0  0  0  0  0  0
   58.4385   29.8388   44.9164 H   0  0  0  0  0  0  0  0  0  0  0  0
   59.4510   31.3226   44.9164 H   0  0  0  0  0  0  0  0  0  0  0  0
   55.7176   30.7064   44.3714 H   0  0  0  0  0  0  0  0  0  0  0  0
   56.3804   32.1029   43.4565 H   0  0  0  0  0  0  0  0  0  0  0  0
   57.2536   30.5332   43.4565 H   0  0  0  0  0  0  0  0  0  0  0  0
   57.8220   33.1469   48.5913 H   0  0  0  0  0  0  0  0  0  0  0  0
   58.1852   31.9421   47.2461 H   0  0  0  0  0  0  0  0  0  0  0  0
   60.0066   31.6396   48.5950 H   0  0  0  0  0  0  0  0  0  0  0  0
   59.5551   34.9192   51.6948 H   0  0  0  0  0  0  0  0  0  0  0  0
   58.3136   34.1037   53.6859 H   0  0  0  0  0  0  0  0  0  0  0  0
  1  2  1  0
  2  3  1  0
  3  4  2  0
  4  5  1  0
  5  6  2  0
  6  7  1  0
  7  8  1  0
  8  9  1  0
  9 10  1  0
 10 11  1  0
 11 12  1  0
 12 13  1  0
 13 14  1  0
 14 15  1  0
 15 16  2  0
 15 17  2  0
 15 18  1  0
 18 19  1  0
 18 20  1  0
 14 21  1  0
 21 22  1  0
  6 23  1  0
 23 24  2  0
 24  3  1  0
 22  7  1  0
 22 11  1  0
  1 25  1  0
  1 26  1  0
  1 27  1  0
  4 28  1  0
  5 29  1  0
  7 30  1  6
  8 31  1  0
  8 32  1  0
  9 33  1  0
  9 34  1  0
 10 35  1  0
 10 36  1  0
 11 37  1  6
 12 38  1  0
 12 39  1  0
 13 40  1  0
 13 41  1  0
 19 42  1  0
 19 43  1  0
 19 44  1  0
 20 45  1  0
 20 46  1  0
 20 47  1  0
 21 48  1  0
 21 49  1  0
 22 50  1  1
 23 51  1  0
 24 52  1  0
M  CHG  1   7   1
M  END
>  <UniqueID>  (36) 
33

>  <SMILES>  (36) 
COc1ccc([N@H+]2CCC[C@@H]3CCN(S(=O)(=O)N(C)C)CC32)cc1

>  <Energy>  (36) 
76.74575121271924

>  <Genealogy>  (36) 
COc1ccc([NH+]2CCCC3CCN(S(=O)(=O)N(C)C)CC32)cc1 (protonated)
COc1ccc([N@H+]2CCC[C@@H]3CCN(S(=O)(=O)N(C)C)CC32)cc1 (chirality)
COc1ccc([N@H+]2CCC[C@@H]3CCN(S(=O)(=O)N(C)C)CC32)cc1 (3D coordinates assigned)
COc1ccc([N@H+]2CCC[C@@H]3CCN(S(=O)(=O)N(C)C)CC32)cc1 (nonaromatic ring conformer: 76.74575121271924 kcal/mol)

>  <smiles>  (36) 
COc1ccc(N2CCCC3CCN(S(=O)(=O)N(C)C)CC32)cc1

>  <score_type>  (36) 
oracle

>  <origin>  (36) 
adg

>  <m_score__min__energy>  (36) 
-5.8700000000000001

>  <m_primary>  (36) 
energy

$$$$
36:0
     RDKit          3D

 44 46  0  0  0  0  0  0  0  0999 V2000
   55.4340   29.7180   43.6460 C   0  0  0  0  0  0  0  0  0  0  0  0
   56.7970   29.9850   44.2090 C   0  0  0  0  0  0  0  0  0  0  0  0
   57.0410   31.1320   44.9010 N   0  0  0  0  0  0  0  0  0  0  0  0
   58.3180   31.2200   45.3340 C   0  0  0  0  0  0  0  0  0  0  0  0
   58.8380   32.3720   46.1040 C   0  0  0  0  0  0  0  0  0  0  0  0
   60.1030   32.3150   46.7180 C   0  0  0  0  0  0  0  0  0  0  0  0
   60.5690   33.4150   47.4390 C   0  0  0  0  0  0  0  0  0  0  0  0
   59.7820   34.5600   47.5450 C   0  0  0  0  0  0  0  0  0  0  0  0
   58.5320   34.5880   46.9270 C   0  0  0  0  0  0  0  0  0  0  0  0
   58.0880   33.5080   46.2260 N   0  0  0  0  0  0  0  0  0  0  0  0
   59.1970   29.8610   44.8730 S   0  0  0  0  0  0  0  0  0  0  0  0
   57.8930   29.1170   44.1090 C   0  0  0  0  0  0  0  0  0  0  0  0
   57.9770   27.7870   43.3900 C   0  0  0  0  0  0  0  0  0  0  0  0
   57.7490   26.6110   44.2590 N   0  0  0  0  0  0  0  0  0  0  0  0
   58.6220   26.5660   45.4370 C   0  0  0  0  0  0  0  0  0  0  0  0
   58.0580   25.5670   46.4630 C   0  0  0  0  0  0  0  0  0  0  0  0
   57.3170   24.4440   45.8470 N   0  0  0  0  0  0  0  0  0  0  0  0
   55.5770   24.6070   45.9960 S   0  0  0  0  0  0  0  0  0  0  0  0
   54.6780   23.8270   44.6680 C   0  0  0  0  0  0  0  0  0  0  0  0
   55.2340   26.0690   45.9970 O   0  0  0  0  0  0  0  0  0  0  0  0
   55.1210   24.0100   47.2980 O   0  0  0  0  0  0  0  0  0  0  0  0
   57.7540   24.1160   44.4780 C   0  0  0  0  0  0  0  0  0  0  0  0
   57.7380   25.3300   43.5270 C   0  0  0  0  0  0  0  0  0  0  0  0
   54.7182   29.5778   44.4694 H   0  0  0  0  0  0  0  0  0  0  0  0
   55.1190   30.5715   43.0277 H   0  0  0  0  0  0  0  0  0  0  0  0
   55.4643   28.8087   43.0277 H   0  0  0  0  0  0  0  0  0  0  0  0
   60.7205   31.4090   46.6301 H   0  0  0  0  0  0  0  0  0  0  0  0
   61.5561   33.3783   47.9230 H   0  0  0  0  0  0  0  0  0  0  0  0
   60.1426   35.4323   48.1099 H   0  0  0  0  0  0  0  0  0  0  0  0
   57.9020   35.4862   47.0061 H   0  0  0  0  0  0  0  0  0  0  0  0
   57.1460   33.5690   45.7780 H   0  0  0  0  0  0  0  0  0  0  0  0
   57.2199   27.7780   42.5921 H   0  0  0  0  0  0  0  0  0  0  0  0
   59.0038   27.7006   43.0050 H   0  0  0  0  0  0  0  0  0  0  0  0
   59.6302   26.2479   45.1330 H   0  0  0  0  0  0  0  0  0  0  0  0
   58.6717   27.5663   45.8919 H   0  0  0  0  0  0  0  0  0  0  0  0
   58.8958   25.1543   47.0441 H   0  0  0  0  0  0  0  0  0  0  0  0
   57.3449   26.1183   47.0935 H   0  0  0  0  0  0  0  0  0  0  0  0
   53.9098   23.1605   45.0871 H   0  0  0  0  0  0  0  0  0  0  0  0
   54.1962   24.5981   44.0489 H   0  0  0  0  0  0  0  0  0  0  0  0
   55.3734   23.2413   44.0489 H   0  0  0  0  0  0  0  0  0  0  0  0
   58.7798   23.7214   44.5237 H   0  0  0  0  0  0  0  0  0  0  0  0
   57.0443   23.3776   44.0768 H   0  0  0  0  0  0  0  0  0  0  0  0
   58.6259   25.2844   42.8792 H   0  0  0  0  0  0  0  0  0  0  0  0
   56.8102   25.2855   42.9378 H   0  0  0  0  0  0  0  0  0  0  0  0
  1  2  1  0
  2  3  1  0
  3  4  2  0
  4  5  1  0
  5  6  2  0
  6  7  1  0
  7  8  2  0
  8  9  1  0
  9 10  2  0
  4 11  1  0
 11 12  1  0
 12 13  1  0
 13 14  1  0
 14 15  1  0
 15 16  1  0
 16 17  1  0
 17 18  1  0
 18 19  1  0
 18 20  2  0
 18 21  2  0
 17 22  1  0
 22 23  1  0
 12  2  2  0
 23 14  1  0
 10  5  1  0
  1 24  1  0
  1 25  1  0
  1 26  1  0
  6 27  1  0
  7 28  1  0
  8 29  1  0
  9 30  1  0
 10 31  1  0
 13 32  1  0
 13 33  1  0
 15 34  1  0
 15 35  1  0
 16 36  1  0
 16 37  1  0
 19 38  1  0
 19 39  1  0
 19 40  1  0
 22 41  1  0
 22 42  1  0
 23 43  1  0
 23 44  1  0
M  CHG  1  10   1
M  END
>  <UniqueID>  (37) 
34

>  <SMILES>  (37) 
Cc1nc(-c2cccc[nH+]2)sc1CN1CCN(S(C)(=O)=O)CC1

>  <Energy>  (37) 
84.08893495282503

>  <Genealogy>  (37) 
Cc1nc(-c2cccc[nH+]2)sc1CN1CCN(S(C)(=O)=O)CC1 (protonated)
Cc1nc(-c2cccc[nH+]2)sc1CN1CCN(S(C)(=O)=O)CC1 (3D coordinates assigned)
Cc1nc(-c2cccc[nH+]2)sc1CN1CCN(S(C)(=O)=O)CC1 (nonaromatic ring conformer: 84.08893495282503 kcal/mol)

>  <smiles>  (37) 
Cc1nc(-c2ccccn2)sc1CN1CCN(S(C)(=O)=O)CC1

>  <score_type>  (37) 
oracle

>  <origin>  (37) 
adg

>  <m_score__min__energy>  (37) 
-6.9800000000000004

>  <m_primary>  (37) 
energy

$$$$
37:0
     RDKit          3D

 51 53  0  0  0  0  0  0  0  0999 V2000
   63.4250   33.5180   47.0130 C   0  0  0  0  0  0  0  0  0  0  0  0
   62.8320   32.1910   47.5030 C   0  0  0  0  0  0  0  0  0  0  0  0
   61.4170   31.9870   47.0930 N   0  0  2  0  0  0  0  0  0  0  0  0
   60.5680   33.0380   47.7140 C   0  0  0  0  0  0  0  0  0  0  0  0
   59.4070   33.4530   46.8340 C   0  0  0  0  0  0  0  0  0  0  0  0
   59.6300   34.2290   45.6830 C   0  0  0  0  0  0  0  0  0  0  0  0
   58.5580   34.5910   44.8580 C   0  0  0  0  0  0  0  0  0  0  0  0
   57.2580   34.1950   45.1850 C   0  0  0  0  0  0  0  0  0  0  0  0
   57.0240   33.4420   46.3390 C   0  0  0  0  0  0  0  0  0  0  0  0
   58.0930   33.0760   47.1660 C   0  0  0  0  0  0  0  0  0  0  0  0
   60.9040   30.6080   47.3380 C   0  0  0  0  0  0  0  0  0  0  0  0
   59.8300   30.1600   46.3750 C   0  0  0  0  0  0  0  0  0  0  0  0
   59.3550   30.9100   45.3570 N   0  0  0  0  0  0  0  0  0  0  0  0
   58.3850   30.2280   44.7650 N   0  0  0  0  0  0  0  0  0  0  0  0
   57.5950   30.7350   43.6520 C   0  0  0  0  0  0  0  0  0  0  0  0
   58.2050   29.0620   45.4110 C   0  0  0  0  0  0  0  0  0  0  0  0
   59.1070   28.9780   46.4330 C   0  0  0  0  0  0  0  0  0  0  0  0
   59.0910   27.8830   47.4450 C   0  0  0  0  0  0  0  0  0  0  0  0
   58.5000   26.6150   46.8110 C   0  0  0  0  0  0  0  0  0  0  0  0
   57.2320   26.9010   46.0950 N   0  0  0  0  0  0  0  0  0  0  0  0
   56.1560   25.9310   46.0740 C   0  0  0  0  0  0  0  0  0  0  0  0
   56.4100   24.4540   46.1460 C   0  0  0  0  0  0  0  0  0  0  0  0
   54.9600   26.3230   45.9980 O   0  0  0  0  0  0  0  0  0  0  0  0
   57.1630   28.0200   45.1290 C   0  0  0  0  0  0  0  0  0  0  0  0
   63.7019   34.1377   47.8786 H   0  0  0  0  0  0  0  0  0  0  0  0
   64.3192   33.3176   46.4045 H   0  0  0  0  0  0  0  0  0  0  0  0
   62.6792   34.0504   46.4045 H   0  0  0  0  0  0  0  0  0  0  0  0
   63.4355   31.3675   47.0935 H   0  0  0  0  0  0  0  0  0  0  0  0
   62.8504   32.2145   48.6026 H   0  0  0  0  0  0  0  0  0  0  0  0
   61.3930   32.1370   46.0550 H   0  0  0  0  0  0  0  0  0  0  0  0
   60.1685   32.6512   48.6631 H   0  0  0  0  0  0  0  0  0  0  0  0
   61.1999   33.9252   47.8675 H   0  0  0  0  0  0  0  0  0  0  0  0
   60.6502   34.5529   45.4296 H   0  0  0  0  0  0  0  0  0  0  0  0
   58.7391   35.1876   43.9517 H   0  0  0  0  0  0  0  0  0  0  0  0
   56.4178   34.4764   44.5331 H   0  0  0  0  0  0  0  0  0  0  0  0
   55.9994   33.1367   46.5977 H   0  0  0  0  0  0  0  0  0  0  0  0
   57.9046   32.4915   48.0786 H   0  0  0  0  0  0  0  0  0  0  0  0
   61.7490   29.9080   47.2604 H   0  0  0  0  0  0  0  0  0  0  0  0
   60.4445   30.6176   48.3374 H   0  0  0  0  0  0  0  0  0  0  0  0
   56.7289   31.2909   44.0403 H   0  0  0  0  0  0  0  0  0  0  0  0
   58.2148   31.4045   43.0374 H   0  0  0  0  0  0  0  0  0  0  0  0
   57.2446   29.8927   43.0374 H   0  0  0  0  0  0  0  0  0  0  0  0
   60.1178   27.6803   47.7835 H   0  0  0  0  0  0  0  0  0  0  0  0
   58.4766   28.1855   48.3058 H   0  0  0  0  0  0  0  0  0  0  0  0
   59.2272   26.2008   46.0971 H   0  0  0  0  0  0  0  0  0  0  0  0
   58.2856   25.8964   47.6157 H   0  0  0  0  0  0  0  0  0  0  0  0
   56.4636   24.1421   47.1995 H   0  0  0  0  0  0  0  0  0  0  0  0
   55.5911   23.9163   45.6456 H   0  0  0  0  0  0  0  0  0  0  0  0
   57.3614   24.2208   45.6456 H   0  0  0  0  0  0  0  0  0  0  0  0
   57.3193   27.6251   44.1143 H   0  0  0  0  0  0  0  0  0  0  0  0
   56.1733   28.4913   45.2206 H   0  0  0  0  0  0  0  0  0  0  0  0
  1  2  1  0
  2  3  1  0
  3  4  1  0
  4  5  1  0
  5  6  2  0
  6  7  1  0
  7  8  2  0
  8  9  1  0
  9 10  2  0
  3 11  1  0
 11 12  1  0
 12 13  2  0
 13 14  1  0
 14 15  1  0
 14 16  1  0
 16 17  2  0
 17 18  1  0
 18 19  1  0
 19 20  1  0
 20 21  1  0
 21 22  1  0
 21 23  2  0
 20 24  1  0
 10  5  1  0
 17 12  1  0
 24 16  1  0
  1 25  1  0
  1 26  1  0
  1 27  1  0
  2 28  1  0
  2 29  1  0
  3 30  1  6
  4 31  1  0
  4 32  1  0
  6 33  1  0
  7 34  1  0
  8 35  1  0
  9 36  1  0
 10 37  1  0
 11 38  1  0
 11 39  1  0
 15 40  1  0
 15 41  1  0
 15 42  1  0
 18 43  1  0
 18 44  1  0
 19 45  1  0
 19 46  1  0
 22 47  1  0
 22 48  1  0
 22 49  1  0
 24 50  1  0
 24 51  1  0
M  CHG  1   3   1
M  END
>  <UniqueID>  (38) 
35

>  <SMILES>  (38) 
CC[N@H+](Cc1ccccc1)Cc1nn(C)c2c1CCN(C(C)=O)C2

>  <Energy>  (38) 
87.77046725724772

>  <Genealogy>  (38) 
CC[NH+](Cc1ccccc1)Cc1nn(C)c2c1CCN(C(C)=O)C2 (protonated)
CC[N@H+](Cc1ccccc1)Cc1nn(C)c2c1CCN(C(C)=O)C2 (chirality)
CC[N@H+](Cc1ccccc1)Cc1nn(C)c2c1CCN(C(C)=O)C2 (3D coordinates assigned)
CC[N@H+](Cc1ccccc1)Cc1nn(C)c2c1CCN(C(C)=O)C2 (nonaromatic ring conformer: 87.77046725724772 kcal/mol)

>  <smiles>  (38) 
CCN(Cc1ccccc1)Cc1nn(C)c2c1CCN(C(C)=O)C2

>  <score_type>  (38) 
oracle

>  <origin>  (38) 
adg

>  <m_score__min__energy>  (38) 
-6.7000000000000002

>  <m_primary>  (38) 
energy

$$$$
38:0
     RDKit          3D

 40 41  0  0  0  0  0  0  0  0999 V2000
   55.9420   25.1630   45.9050 C   0  0  0  0  0  0  0  0  0  0  0  0
   55.5270   26.5170   46.0350 O   0  0  0  0  0  0  0  0  0  0  0  0
   56.3200   27.5910   45.6190 C   0  0  0  0  0  0  0  0  0  0  0  0
   55.7900   28.6710   45.2370 O   0  0  0  0  0  0  0  0  0  0  0  0
   57.8130   27.4550   45.6270 C   0  0  0  0  0  0  0  0  0  0  0  0
   58.4400   27.9510   46.9570 C   0  0  1  0  0  0  0  0  0  0  0  0
   59.2990   26.9030   47.6260 C   0  0  0  0  0  0  0  0  0  0  0  0
   59.2480   25.6870   47.3000 O   0  0  0  0  0  0  0  0  0  0  0  0
   60.1790   27.3220   48.6690 N   0  0  0  0  0  0  0  0  0  0  0  0
   60.1640   28.7180   49.0830 C   0  0  0  0  0  0  0  0  0  0  0  0
   60.1900   29.6290   47.8490 C   0  0  0  0  0  0  0  0  0  0  0  0
   59.2480   29.1890   46.7980 N   0  0  0  0  0  0  0  0  0  0  0  0
   59.1410   30.0330   45.6380 C   0  0  0  0  0  0  0  0  0  0  0  0
   59.4600   29.5640   44.5110 O   0  0  0  0  0  0  0  0  0  0  0  0
   58.7230   31.4560   45.7480 C   0  0  0  0  0  0  0  0  0  0  0  0
   59.5900   32.3760   46.3670 C   0  0  0  0  0  0  0  0  0  0  0  0
   59.2290   33.7170   46.5020 C   0  0  0  0  0  0  0  0  0  0  0  0
   58.0010   34.1610   46.0160 C   0  0  0  0  0  0  0  0  0  0  0  0
   57.1320   33.2690   45.3880 C   0  0  0  0  0  0  0  0  0  0  0  0
   57.4830   31.9110   45.2370 C   0  0  0  0  0  0  0  0  0  0  0  0
   56.6350   31.0080   44.5790 O   0  0  0  0  0  0  0  0  0  0  0  0
   56.7660   30.6110   43.2180 C   0  0  0  0  0  0  0  0  0  0  0  0
   56.0768   24.7233   46.9042 H   0  0  0  0  0  0  0  0  0  0  0  0
   55.1764   24.5960   45.3551 H   0  0  0  0  0  0  0  0  0  0  0  0
   56.8938   25.1224   45.3551 H   0  0  0  0  0  0  0  0  0  0  0  0
   58.0729   26.3954   45.4864 H   0  0  0  0  0  0  0  0  0  0  0  0
   58.2130   28.0770   44.8126 H   0  0  0  0  0  0  0  0  0  0  0  0
   57.5724   28.1722   47.5960 H   0  0  0  0  0  0  0  0  0  0  0  0
   60.8540   26.6490   49.0960 H   0  0  0  0  0  0  0  0  0  0  0  0
   59.2511   28.9164   49.6636 H   0  0  0  0  0  0  0  0  0  0  0  0
   61.0501   28.9216   49.7021 H   0  0  0  0  0  0  0  0  0  0  0  0
   59.9207   30.6496   48.1587 H   0  0  0  0  0  0  0  0  0  0  0  0
   61.2045   29.5880   47.4257 H   0  0  0  0  0  0  0  0  0  0  0  0
   60.5633   32.0339   46.7487 H   0  0  0  0  0  0  0  0  0  0  0  0
   59.9143   34.4241   46.9924 H   0  0  0  0  0  0  0  0  0  0  0  0
   57.7162   35.2176   46.1279 H   0  0  0  0  0  0  0  0  0  0  0  0
   56.1644   33.6275   45.0071 H   0  0  0  0  0  0  0  0  0  0  0  0
   57.1104   29.5673   43.1720 H   0  0  0  0  0  0  0  0  0  0  0  0
   55.7915   30.6980   42.7152 H   0  0  0  0  0  0  0  0  0  0  0  0
   57.4973   31.2609   42.7152 H   0  0  0  0  0  0  0  0  0  0  0  0
  1  2  1  0
  2  3  1  0
  3  4  2  0
  3  5  1  0
  5  6  1  0
  6  7  1  0
  7  8  2  0
  7  9  1  0
  9 10  1  0
 10 11  1  0
 11 12  1  0
 12 13  1  0
 13 14  2  0
 13 15  1  0
 15 16  2  0
 16 17  1  0
 17 18  2  0
 18 19  1  0
 19 20  2  0
 20 21  1  0
 21 22  1  0
 12  6  1  0
 20 15  1  0
  1 23  1  0
  1 24  1  0
  1 25  1  0
  5 26  1  0
  5 27  1  0
  6 28  1  1
  9 29  1  0
 10 30  1  0
 10 31  1  0
 11 32  1  0
 11 33  1  0
 16 34  1  0
 17 35  1  0
 18 36  1  0
 19 37  1  0
 22 38  1  0
 22 39  1  0
 22 40  1  0
M  END
>  <UniqueID>  (39) 
36

>  <SMILES>  (39) 
COC(=O)C[C@H]1C(=O)NCCN1C(=O)c1ccccc1OC

>  <Energy>  (39) 
46.925533682797756

>  <Genealogy>  (39) 
COC(=O)C[C@H]1C(=O)NCCN1C(=O)c1ccccc1OC (chirality)
COC(=O)C[C@H]1C(=O)NCCN1C(=O)c1ccccc1OC (3D coordinates assigned)
COC(=O)C[C@H]1C(=O)NCCN1C(=O)c1ccccc1OC (nonaromatic ring conformer: 46.925533682797756 kcal/mol)

>  <smiles>  (39) 
COC(=O)CC1C(=O)NCCN1C(=O)c1ccccc1OC

>  <score_type>  (39) 
oracle

>  <origin>  (39) 
adg

>  <m_score__min__energy>  (39) 
-6.4400000000000004

>  <m_primary>  (39) 
energy

$$$$
39:0
     RDKit          3D

 26 28  0  0  0  0  0  0  0  0999 V2000
   56.7800   31.1280   44.8720 O   0  0  0  0  0  0  0  0  0  0  0  0
   57.8130   30.7180   45.4690 C   0  0  0  0  0  0  0  0  0  0  0  0
   58.8380   31.6210   45.7570 C   0  0  0  0  0  0  0  0  0  0  0  0
   59.9950   31.1710   46.4230 C   0  0  0  0  0  0  0  0  0  0  0  0
   61.1380   32.0710   46.7670 C   0  0  0  0  0  0  0  0  0  0  0  0
   62.2480   31.5430   47.4550 C   0  0  0  0  0  0  0  0  0  0  0  0
   63.3290   32.3580   47.7910 C   0  0  0  0  0  0  0  0  0  0  0  0
   63.3040   33.7050   47.4410 C   0  0  0  0  0  0  0  0  0  0  0  0
   62.2340   34.2130   46.7790 N   0  0  0  0  0  0  0  0  0  0  0  0
   61.1650   33.4440   46.4380 C   0  0  0  0  0  0  0  0  0  0  0  0
   60.0830   29.8860   46.7650 O   0  0  0  0  0  0  0  0  0  0  0  0
   59.1340   28.9890   46.5130 C   0  0  0  0  0  0  0  0  0  0  0  0
   59.3190   27.6610   46.9130 C   0  0  0  0  0  0  0  0  0  0  0  0
   60.4590   27.2950   47.5510 F   0  0  0  0  0  0  0  0  0  0  0  0
   58.3310   26.7060   46.6560 C   0  0  0  0  0  0  0  0  0  0  0  0
   58.5150   25.4200   47.0450 F   0  0  0  0  0  0  0  0  0  0  0  0
   57.1530   27.0750   45.9980 C   0  0  0  0  0  0  0  0  0  0  0  0
   56.1990   26.1430   45.7510 F   0  0  0  0  0  0  0  0  0  0  0  0
   56.9560   28.3990   45.5930 C   0  0  0  0  0  0  0  0  0  0  0  0
   55.7990   28.7220   44.9570 F   0  0  0  0  0  0  0  0  0  0  0  0
   57.9470   29.3710   45.8480 C   0  0  0  0  0  0  0  0  0  0  0  0
   58.7428   32.6774   45.4657 H   0  0  0  0  0  0  0  0  0  0  0  0
   62.2625   30.4780   47.7299 H   0  0  0  0  0  0  0  0  0  0  0  0
   64.1934   31.9400   48.3277 H   0  0  0  0  0  0  0  0  0  0  0  0
   64.1509   34.3571   47.7008 H   0  0  0  0  0  0  0  0  0  0  0  0
   60.3162   33.8945   45.9026 H   0  0  0  0  0  0  0  0  0  0  0  0
  1  2  2  0
  2  3  1  0
  3  4  2  0
  4  5  1  0
  5  6  2  0
  6  7  1  0
  7  8  2  0
  8  9  1  0
  9 10  2  0
  4 11  1  0
 11 12  1  0
 12 13  2  0
 13 14  1  0
 13 15  1  0
 15 16  1  0
 15 17  2  0
 17 18  1  0
 17 19  1  0
 19 20  1  0
 19 21  2  0
 21  2  1  0
 10  5  1  0
 21 12  1  0
  3 22  1  0
  6 23  1  0
  7 24  1  0
  8 25  1  0
 10 26  1  0
M  END
>  <UniqueID>  (40) 
37

>  <SMILES>  (40) 
O=c1cc(-c2cccnc2)oc2c(F)c(F)c(F)c(F)c12

>  <Energy>  (40) 
40.71442340812538

>  <Genealogy>  (40) 
O=c1cc(-c2cccnc2)oc2c(F)c(F)c(F)c(F)c12 (3D coordinates assigned)
O=c1cc(-c2cccnc2)oc2c(F)c(F)c(F)c(F)c12 (optimized conformer: 40.71442340812538 kcal/mol)

>  <smiles>  (40) 
O=c1cc(-c2cccnc2)oc2c(F)c(F)c(F)c(F)c12

>  <score_type>  (40) 
oracle

>  <origin>  (40) 
adg

>  <m_score__min__energy>  (40) 
-5.8399999999999999

>  <m_primary>  (40) 
energy

$$$$
40:0
     RDKit          3D

 56 57  0  0  0  0  0  0  0  0999 V2000
   60.3360   27.4690   46.0600 C   0  0  0  0  0  0  0  0  0  0  0  0
   60.7530   28.6090   45.1340 C   0  0  0  0  0  0  0  0  0  0  0  0
   59.5860   29.5700   44.8800 C   0  0  0  0  0  0  0  0  0  0  0  0
   58.2340   28.8520   45.0190 C   0  0  0  0  0  0  0  0  0  0  0  0
   57.3920   28.9310   43.7290 C   0  0  0  0  0  0  0  0  0  0  0  0
   56.9470   30.3600   43.3680 C   0  0  0  0  0  0  0  0  0  0  0  0
   56.6410   31.1610   44.5560 N   0  0  0  0  0  0  0  0  0  0  0  0
   57.3530   32.1250   45.0700 C   0  0  0  0  0  0  0  0  0  0  0  0
   57.7970   31.9920   46.3880 C   0  0  0  0  0  0  0  0  0  0  0  0
   58.6430   32.9550   46.9390 C   0  0  0  0  0  0  0  0  0  0  0  0
   59.0390   34.0370   46.2030 N   0  0  0  0  0  0  0  0  0  0  0  0
   60.0290   34.9690   46.7600 C   0  0  0  0  0  0  0  0  0  0  0  0
   61.1850   34.2100   47.4300 C   0  0  0  0  0  0  0  0  0  0  0  0
   62.2880   33.8340   46.4270 C   0  0  0  0  0  0  0  0  0  0  0  0
   63.5240   33.2270   47.1080 C   0  0  0  0  0  0  0  0  0  0  0  0
   63.4860   31.6920   47.1300 C   0  0  0  0  0  0  0  0  0  0  0  0
   62.3850   31.2310   47.9690 N   0  0  0  0  0  0  0  0  0  0  0  0
   62.2210   31.4700   49.2850 C   0  0  0  0  0  0  0  0  0  0  0  0
   61.0090   30.9180   49.6410 C   0  0  0  0  0  0  0  0  0  0  0  0
   60.4920   30.3650   48.5260 N   0  0  0  0  0  0  0  0  0  0  0  0
   59.1840   29.7400   48.3940 C   0  0  0  0  0  0  0  0  0  0  0  0
   61.3240   30.5800   47.5200 N   0  0  0  0  0  0  0  0  0  0  0  0
   58.5710   34.2150   44.9300 C   0  0  0  0  0  0  0  0  0  0  0  0
   57.7220   33.2730   44.3450 C   0  0  0  0  0  0  0  0  0  0  0  0
   60.4519   27.7860   47.1069 H   0  0  0  0  0  0  0  0  0  0  0  0
   59.2843   27.2084   45.8701 H   0  0  0  0  0  0  0  0  0  0  0  0
   60.9713   26.5913   45.8701 H   0  0  0  0  0  0  0  0  0  0  0  0
   61.5810   29.1645   45.5987 H   0  0  0  0  0  0  0  0  0  0  0  0
   61.0672   28.1794   44.1713 H   0  0  0  0  0  0  0  0  0  0  0  0
   59.6325   30.3917   45.6098 H   0  0  0  0  0  0  0  0  0  0  0  0
   59.6708   29.9572   43.8539 H   0  0  0  0  0  0  0  0  0  0  0  0
   58.4185   27.7939   45.2564 H   0  0  0  0  0  0  0  0  0  0  0  0
   57.6692   29.3517   45.8198 H   0  0  0  0  0  0  0  0  0  0  0  0
   57.9923   28.5335   42.8974 H   0  0  0  0  0  0  0  0  0  0  0  0
   56.4784   28.3441   43.9045 H   0  0  0  0  0  0  0  0  0  0  0  0
   57.7557   30.8520   42.8077 H   0  0  0  0  0  0  0  0  0  0  0  0
   56.0299   30.2860   42.7652 H   0  0  0  0  0  0  0  0  0  0  0  0
   57.4797   31.1285   46.9910 H   0  0  0  0  0  0  0  0  0  0  0  0
   58.9946   32.8426   47.9752 H   0  0  0  0  0  0  0  0  0  0  0  0
   60.4313   35.5935   45.9487 H   0  0  0  0  0  0  0  0  0  0  0  0
   59.5341   35.5935   47.5183 H   0  0  0  0  0  0  0  0  0  0  0  0
   61.6205   34.8471   48.2139 H   0  0  0  0  0  0  0  0  0  0  0  0
   60.7793   33.2788   47.8523 H   0  0  0  0  0  0  0  0  0  0  0  0
   61.8818   33.1001   45.7154 H   0  0  0  0  0  0  0  0  0  0  0  0
   62.6064   34.7571   45.9205 H   0  0  0  0  0  0  0  0  0  0  0  0
   64.4226   33.5503   46.5620 H   0  0  0  0  0  0  0  0  0  0  0  0
   63.5380   33.5770   48.1507 H   0  0  0  0  0  0  0  0  0  0  0  0
   63.3451   31.3166   46.1057 H   0  0  0  0  0  0  0  0  0  0  0  0
   64.4343   31.3136   47.5394 H   0  0  0  0  0  0  0  0  0  0  0  0
   62.9193   32.0027   49.9473 H   0  0  0  0  0  0  0  0  0  0  0  0
   60.5522   30.9271   50.6416 H   0  0  0  0  0  0  0  0  0  0  0  0
   58.7697   29.5420   49.3936 H   0  0  0  0  0  0  0  0  0  0  0  0
   58.5097   30.4132   47.8443 H   0  0  0  0  0  0  0  0  0  0  0  0
   59.2842   28.7925   47.8443 H   0  0  0  0  0  0  0  0  0  0  0  0
   58.8664   35.1091   44.3614 H   0  0  0  0  0  0  0  0  0  0  0  0
   57.3441   33.4276   43.3236 H   0  0  0  0  0  0  0  0  0  0  0  0
  1  2  1  0
  2  3  1  0
  3  4  1  0
  4  5  1  0
  5  6  1  0
  6  7  1  0
  7  8  2  3
  8  9  1  0
  9 10  2  0
 10 11  1  0
 11 12  1  0
 12 13  1  0
 13 14  1  0
 14 15  1  0
 15 16  1  0
 16 17  1  0
 17 18  1  0
 18 19  2  0
 19 20  1  0
 20 21  1  0
 20 22  2  0
 11 23  1  0
 23 24  2  0
 24  8  1  0
 22 17  1  0
  1 25  1  0
  1 26  1  0
  1 27  1  0
  2 28  1  0
  2 29  1  0
  3 30  1  0
  3 31  1  0
  4 32  1  0
  4 33  1  0
  5 34  1  0
  5 35  1  0
  6 36  1  0
  6 37  1  0
  9 38  1  0
 10 39  1  0
 12 40  1  0
 12 41  1  0
 13 42  1  0
 13 43  1  0
 14 44  1  0
 14 45  1  0
 15 46  1  0
 15 47  1  0
 16 48  1  0
 16 49  1  0
 18 50  1  0
 19 51  1  0
 21 52  1  0
 21 53  1  0
 21 54  1  0
 23 55  1  0
 24 56  1  0
M  CHG  1  20   1
M  END
>  <UniqueID>  (41) 
38

>  <SMILES>  (41) 
CCCCCCN=c1ccn(CCCCCn2cc[n+](C)n2)cc1

>  <Energy>  (41) 
73.419757371047

>  <Genealogy>  (41) 
CCCCCCN=c1ccn(CCCCCn2cc[n+](C)n2)cc1 (3D coordinates assigned)
CCCCCCN=c1ccn(CCCCCn2cc[n+](C)n2)cc1 (optimized conformer: 73.419757371047 kcal/mol)

>  <smiles>  (41) 
CCCCCCN=c1ccn(CCCCCn2cc[n+](C)n2)cc1

>  <score_type>  (41) 
oracle

>  <origin>  (41) 
adg

>  <m_score__min__energy>  (41) 
-5.5599999999999996

>  <m_primary>  (41) 
energy

$$$$
41:0
     RDKit          3D

 42 45  0  0  0  0  0  0  0  0999 V2000
   60.6810   34.5530   48.8770 C   0  0  0  0  0  0  0  0  0  0  0  0
   60.5830   33.2730   48.1730 N   0  0  0  0  0  0  0  0  0  0  0  0
   61.4750   32.2410   48.1540 C   0  0  0  0  0  0  0  0  0  0  0  0
   62.7450   32.1990   48.9100 C   0  0  0  0  0  0  0  0  0  0  0  0
   62.8950   31.2920   49.9730 C   0  0  0  0  0  0  0  0  0  0  0  0
   64.0840   31.2570   50.7100 C   0  0  0  0  0  0  0  0  0  0  0  0
   65.1260   32.1350   50.4000 C   0  0  0  0  0  0  0  0  0  0  0  0
   64.9780   33.0530   49.3570 C   0  0  0  0  0  0  0  0  0  0  0  0
   63.7910   33.0910   48.6180 C   0  0  0  0  0  0  0  0  0  0  0  0
   61.0680   31.2240   47.3540 N   0  0  0  0  0  0  0  0  0  0  0  0
   59.8750   31.6230   46.8840 C   0  0  0  0  0  0  0  0  0  0  0  0
   59.0180   30.9370   46.0280 C   0  0  0  0  0  0  0  0  0  0  0  0
   57.7920   31.5570   45.6870 C   0  0  0  0  0  0  0  0  0  0  0  0
   56.8550   30.9260   44.8020 N   0  0  0  0  0  0  0  0  0  0  0  0
   56.3880   29.5730   44.8910 C   0  0  0  0  0  0  0  0  0  0  0  0
   55.1540   29.3530   44.7630 O   0  0  0  0  0  0  0  0  0  0  0  0
   57.3000   28.4420   45.1800 C   0  0  0  0  0  0  0  0  0  0  0  0
   56.8890   27.3760   46.0030 C   0  0  0  0  0  0  0  0  0  0  0  0
   57.7590   26.3130   46.2690 C   0  0  0  0  0  0  0  0  0  0  0  0
   59.0390   26.2980   45.7100 C   0  0  0  0  0  0  0  0  0  0  0  0
   59.4500   27.3430   44.8790 C   0  0  0  0  0  0  0  0  0  0  0  0
   58.5850   28.4080   44.6100 C   0  0  0  0  0  0  0  0  0  0  0  0
   57.4940   32.8470   46.1870 C   0  0  0  0  0  0  0  0  0  0  0  0
   58.3860   33.5100   47.0500 C   0  0  0  0  0  0  0  0  0  0  0  0
   59.5750   32.8570   47.3800 C   0  0  0  0  0  0  0  0  0  0  0  0
   60.6675   34.3763   49.9626 H   0  0  0  0  0  0  0  0  0  0  0  0
   61.6201   35.0536   48.5986 H   0  0  0  0  0  0  0  0  0  0  0  0
   59.8291   35.1907   48.5986 H   0  0  0  0  0  0  0  0  0  0  0  0
   62.0735   30.6060   50.2270 H   0  0  0  0  0  0  0  0  0  0  0  0
   64.1985   30.5376   51.5342 H   0  0  0  0  0  0  0  0  0  0  0  0
   66.0622   32.1035   50.9767 H   0  0  0  0  0  0  0  0  0  0  0  0
   65.7967   33.7472   49.1166 H   0  0  0  0  0  0  0  0  0  0  0  0
   63.6757   33.8224   47.8045 H   0  0  0  0  0  0  0  0  0  0  0  0
   61.5550   30.3180   47.1650 H   0  0  0  0  0  0  0  0  0  0  0  0
   59.2845   29.9467   45.6301 H   0  0  0  0  0  0  0  0  0  0  0  0
   55.8791   27.3790   46.4389 H   0  0  0  0  0  0  0  0  0  0  0  0
   57.4344   25.4875   46.9196 H   0  0  0  0  0  0  0  0  0  0  0  0
   59.7231   25.4636   45.9241 H   0  0  0  0  0  0  0  0  0  0  0  0
   60.4564   27.3279   44.4353 H   0  0  0  0  0  0  0  0  0  0  0  0
   58.9116   29.2240   43.9486 H   0  0  0  0  0  0  0  0  0  0  0  0
   56.5531   33.3376   45.8973 H   0  0  0  0  0  0  0  0  0  0  0  0
   58.1546   34.5080   47.4506 H   0  0  0  0  0  0  0  0  0  0  0  0
  1  2  1  0
  2  3  1  0
  3  4  1  0
  4  5  2  0
  5  6  1  0
  6  7  2  0
  7  8  1  0
  8  9  2  0
  3 10  2  0
 10 11  1  0
 11 12  2  0
 12 13  1  0
 13 14  1  0
 14 15  1  0
 15 16  2  0
 15 17  1  0
 17 18  2  0
 18 19  1  0
 19 20  2  0
 20 21  1  0
 21 22  2  0
 13 23  2  0
 23 24  1  0
 24 25  2  0
 25  2  1  0
  9  4  1  0
 25 11  1  0
 22 17  1  0
  1 26  1  0
  1 27  1  0
  1 28  1  0
  5 29  1  0
  6 30  1  0
  7 31  1  0
  8 32  1  0
  9 33  1  0
 10 34  1  0
 12 35  1  0
 18 36  1  0
 19 37  1  0
 20 38  1  0
 21 39  1  0
 22 40  1  0
 23 41  1  0
 24 42  1  0
M  CHG  2  10   1  14  -1
M  END
>  <UniqueID>  (42) 
39

>  <SMILES>  (42) 
Cn1c(-c2ccccc2)[nH+]c2cc([N-]C(=O)c3ccccc3)ccc21

>  <Energy>  (42) 
96.9614747150815

>  <Genealogy>  (42) 
Cn1c(-c2ccccc2)[nH+]c2cc([N-]C(=O)c3ccccc3)ccc21 (protonated)
Cn1c(-c2ccccc2)[nH+]c2cc([N-]C(=O)c3ccccc3)ccc21 (3D coordinates assigned)
Cn1c(-c2ccccc2)[nH+]c2cc([N-]C(=O)c3ccccc3)ccc21 (optimized conformer: 96.9614747150815 kcal/mol)

>  <smiles>  (42) 
Cn1c(-c2ccccc2)nc2cc(NC(=O)c3ccccc3)ccc21

>  <score_type>  (42) 
oracle

>  <origin>  (42) 
adg

>  <m_score__min__energy>  (42) 
-8.3000000000000007

>  <m_primary>  (42) 
energy

$$$$
42:0
     RDKit          3D

 50 53  0  0  0  0  0  0  0  0999 V2000
   60.6810   34.8500   47.8480 O   0  0  0  0  0  0  0  0  0  0  0  0
   61.2130   33.7520   47.5210 C   0  0  0  0  0  0  0  0  0  0  0  0
   62.3580   33.3010   48.3220 C   0  0  0  0  0  0  0  0  0  0  0  0
   62.2700   32.3570   49.2950 N   0  0  0  0  0  0  0  0  0  0  0  0
   63.4840   32.1160   49.8510 C   0  0  0  0  0  0  0  0  0  0  0  0
   63.7150   31.1970   50.8790 C   0  0  0  0  0  0  0  0  0  0  0  0
   65.0250   31.0430   51.3690 C   0  0  0  0  0  0  0  0  0  0  0  0
   65.2710   30.1580   52.3660 F   0  0  0  0  0  0  0  0  0  0  0  0
   66.0800   31.8090   50.8300 C   0  0  0  0  0  0  0  0  0  0  0  0
   67.3390   31.6600   51.3090 F   0  0  0  0  0  0  0  0  0  0  0  0
   65.8350   32.7280   49.7940 C   0  0  0  0  0  0  0  0  0  0  0  0
   64.5310   32.8550   49.3230 C   0  0  0  0  0  0  0  0  0  0  0  0
   63.9460   33.8480   48.0980 S   0  0  0  0  0  0  0  0  0  0  0  0
   60.6430   32.9970   46.4140 N   0  0  2  0  0  0  0  0  0  0  0  0
   59.6060   33.7890   45.7150 C   0  0  0  0  0  0  0  0  0  0  0  0
   58.2900   33.8440   46.5080 C   0  0  0  0  0  0  0  0  0  0  0  0
   57.7150   32.4240   46.7170 C   0  0  1  0  0  0  0  0  0  0  0  0
   57.3130   31.7390   45.4460 N   0  0  0  0  0  0  0  0  0  0  0  0
   57.4740   32.6270   44.2530 C   0  0  0  0  0  0  0  0  0  0  0  0
   57.7310   31.9260   42.8980 C   0  0  0  0  0  0  0  0  0  0  0  0
   56.6740   30.8700   42.4880 C   0  0  0  0  0  0  0  0  0  0  0  0
   56.8890   29.4510   43.0490 C   0  0  0  0  0  0  0  0  0  0  0  0
   56.8820   29.3830   44.5820 C   0  0  0  0  0  0  0  0  0  0  0  0
   57.8440   30.3590   45.2820 C   0  0  0  0  0  0  0  0  0  0  0  0
   58.7980   31.6230   47.4810 C   0  0  0  0  0  0  0  0  0  0  0  0
   60.1510   31.6320   46.7360 C   0  0  0  0  0  0  0  0  0  0  0  0
   62.8876   30.6050   51.2972 H   0  0  0  0  0  0  0  0  0  0  0  0
   66.6511   33.3298   49.3676 H   0  0  0  0  0  0  0  0  0  0  0  0
   61.4290   32.8660   45.7330 H   0  0  0  0  0  0  0  0  0  0  0  0
   59.9781   34.8144   45.5731 H   0  0  0  0  0  0  0  0  0  0  0  0
   59.4006   33.3027   44.7500 H   0  0  0  0  0  0  0  0  0  0  0  0
   58.4790   34.3045   47.4889 H   0  0  0  0  0  0  0  0  0  0  0  0
   57.5605   34.4396   45.9396 H   0  0  0  0  0  0  0  0  0  0  0  0
   56.7776   32.4893   47.2889 H   0  0  0  0  0  0  0  0  0  0  0  0
   56.5536   33.2210   44.1523 H   0  0  0  0  0  0  0  0  0  0  0  0
   58.3807   33.2175   44.4509 H   0  0  0  0  0  0  0  0  0  0  0  0
   57.7605   32.6988   42.1158 H   0  0  0  0  0  0  0  0  0  0  0  0
   58.6785   31.3792   43.0132 H   0  0  0  0  0  0  0  0  0  0  0  0
   55.6917   31.2241   42.8340 H   0  0  0  0  0  0  0  0  0  0  0  0
   56.7565   30.7742   41.3953 H   0  0  0  0  0  0  0  0  0  0  0  0
   56.0855   28.8027   42.6695 H   0  0  0  0  0  0  0  0  0  0  0  0
   57.8858   29.1237   42.7185 H   0  0  0  0  0  0  0  0  0  0  0  0
   55.8614   29.6029   44.9284 H   0  0  0  0  0  0  0  0  0  0  0  0
   57.2252   28.3718   44.8458 H   0  0  0  0  0  0  0  0  0  0  0  0
   58.0732   29.9584   46.2805 H   0  0  0  0  0  0  0  0  0  0  0  0
   58.7310   30.4402   44.6365 H   0  0  0  0  0  0  0  0  0  0  0  0
   58.9365   32.0711   48.4760 H   0  0  0  0  0  0  0  0  0  0  0  0
   58.4587   30.5797   47.5608 H   0  0  0  0  0  0  0  0  0  0  0  0
   60.8997   31.1325   47.3684 H   0  0  0  0  0  0  0  0  0  0  0  0
   59.9966   31.1105   45.7799 H   0  0  0  0  0  0  0  0  0  0  0  0
  1  2  2  0
  2  3  1  0
  3  4  2  0
  4  5  1  0
  5  6  2  0
  6  7  1  0
  7  8  1  0
  7  9  2  0
  9 10  1  0
  9 11  1  0
 11 12  2  0
 12 13  1  0
  2 14  1  0
 14 15  1  0
 15 16  1  0
 16 17  1  0
 17 18  1  0
 18 19  1  0
 19 20  1  0
 20 21  1  0
 21 22  1  0
 22 23  1  0
 23 24  1  0
 17 25  1  0
 25 26  1  0
 13  3  1  0
 26 14  1  0
 12  5  1  0
 24 18  1  0
  6 27  1  0
 11 28  1  0
 14 29  1  6
 15 30  1  0
 15 31  1  0
 16 32  1  0
 16 33  1  0
 17 34  1  1
 19 35  1  0
 19 36  1  0
 20 37  1  0
 20 38  1  0
 21 39  1  0
 21 40  1  0
 22 41  1  0
 22 42  1  0
 23 43  1  0
 23 44  1  0
 24 45  1  0
 24 46  1  0
 25 47  1  0
 25 48  1  0
 26 49  1  0
 26 50  1  0
M  CHG  1  14   1
M  END
>  <UniqueID>  (43) 
40

>  <SMILES>  (43) 
O=C(c1nc2cc(F)c(F)cc2s1)[NH+]1CCC(N2CCCCCC2)CC1

>  <Energy>  (43) 
120.06382102473152

>  <Genealogy>  (43) 
O=C(c1nc2cc(F)c(F)cc2s1)[NH+]1CCC(N2CCCCCC2)CC1 (protonated)
O=C(c1nc2cc(F)c(F)cc2s1)[NH+]1CCC(N2CCCCCC2)CC1 (3D coordinates assigned)
O=C(c1nc2cc(F)c(F)cc2s1)[NH+]1CCC(N2CCCCCC2)CC1 (nonaromatic ring conformer: 120.06382102473152 kcal/mol)

>  <smiles>  (43) 
O=C(c1nc2cc(F)c(F)cc2s1)N1CCC(N2CCCCCC2)CC1

>  <score_type>  (43) 
oracle

>  <origin>  (43) 
adg

>  <m_score__min__energy>  (43) 
-4.9699999999999998

>  <m_primary>  (43) 
energy

$$$$
43:0
     RDKit          3D

 19 20  0  0  0  0  0  0  0  0999 V2000
   59.4450   32.7470   46.7470 C   0  0  0  0  0  0  0  0  0  0  0  0
   58.7190   31.6990   46.0530 N   0  0  0  0  0  0  0  0  0  0  0  0
   58.4890   30.4900   46.6200 C   0  0  0  0  0  0  0  0  0  0  0  0
   57.7960   29.4860   45.9610 C   0  0  0  0  0  0  0  0  0  0  0  0
   57.3230   29.7160   44.6820 C   0  0  0  0  0  0  0  0  0  0  0  0
   56.6380   28.9830   43.7960 N   0  0  0  0  0  0  0  0  0  0  0  0
   56.4460   29.7140   42.7030 N   0  0  0  0  0  0  0  0  0  0  0  0
   57.0020   30.9290   42.8650 C   0  0  0  0  0  0  0  0  0  0  0  0
   57.0020   31.8460   42.0370 O   0  0  0  0  0  0  0  0  0  0  0  0
   57.5720   30.9640   44.1190 C   0  0  0  0  0  0  0  0  0  0  0  0
   58.2590   31.9420   44.7930 C   0  0  0  0  0  0  0  0  0  0  0  0
   58.5160   33.3850   44.0740 S   0  0  0  0  0  0  0  0  0  0  0  0
   59.3460   32.6041   47.8332 H   0  0  0  0  0  0  0  0  0  0  0  0
   60.5079   32.7041   46.4669 H   0  0  0  0  0  0  0  0  0  0  0  0
   59.0313   33.7270   46.4669 H   0  0  0  0  0  0  0  0  0  0  0  0
   58.8643   30.2988   47.6362 H   0  0  0  0  0  0  0  0  0  0  0  0
   57.6242   28.5161   46.4507 H   0  0  0  0  0  0  0  0  0  0  0  0
   56.3210   28.0020   43.9630 H   0  0  0  0  0  0  0  0  0  0  0  0
   55.9320   29.3580   41.8640 H   0  0  0  0  0  0  0  0  0  0  0  0
  1  2  1  0
  2  3  1  0
  3  4  2  0
  4  5  1  0
  5  6  1  0
  6  7  1  0
  7  8  1  0
  8  9  2  0
  8 10  1  0
 10 11  1  0
 11 12  2  0
 11  2  1  0
 10  5  2  0
  1 13  1  0
  1 14  1  0
  1 15  1  0
  3 16  1  0
  4 17  1  0
  6 18  1  0
  7 19  1  0
M  END
>  <smiles>  (44) 
Cn1ccc2[nH][nH]c(=O)c2c1=S

>  <score_type>  (44) 
oracle

>  <origin>  (44) 
adg

>  <m_score__min__energy>  (44) 
-4.96

>  <m_primary>  (44) 
energy

$$$$
44:0
     RDKit          3D

 25 26  0  0  0  0  0  0  0  0999 V2000
   62.9940   33.5980   47.8790 Br  0  0  0  0  0  0  0  0  0  0  0  0
   61.5010   32.6780   47.1250 C   0  0  0  0  0  0  0  0  0  0  0  0
   60.4430   33.3980   46.5690 C   0  0  0  0  0  0  0  0  0  0  0  0
   59.3480   32.7280   46.0160 C   0  0  0  0  0  0  0  0  0  0  0  0
   59.2870   31.3130   46.0040 C   0  0  0  0  0  0  0  0  0  0  0  0
   58.1440   30.6090   45.4250 N   0  0  0  0  0  0  0  0  0  0  0  0
   57.2410   31.3290   44.5020 C   0  0  0  0  0  0  0  0  0  0  0  0
   56.1370   30.4480   43.9120 C   0  0  0  0  0  0  0  0  0  0  0  0
   55.6490   29.5400   44.8700 O   0  0  0  0  0  0  0  0  0  0  0  0
   56.6570   28.5950   45.1400 C   0  0  0  0  0  0  0  0  0  0  0  0
   57.8280   29.2410   45.8870 C   0  0  0  0  0  0  0  0  0  0  0  0
   60.3700   30.6070   46.5810 C   0  0  0  0  0  0  0  0  0  0  0  0
   61.4620   31.2840   47.1310 C   0  0  0  0  0  0  0  0  0  0  0  0
   60.4708   34.4976   46.5659 H   0  0  0  0  0  0  0  0  0  0  0  0
   58.5203   33.3090   45.5832 H   0  0  0  0  0  0  0  0  0  0  0  0
   56.7688   32.1561   45.0524 H   0  0  0  0  0  0  0  0  0  0  0  0
   57.8552   31.6825   43.6607 H   0  0  0  0  0  0  0  0  0  0  0  0
   55.3106   31.0882   43.5697 H   0  0  0  0  0  0  0  0  0  0  0  0
   56.5569   29.8771   43.0707 H   0  0  0  0  0  0  0  0  0  0  0  0
   56.2372   27.7877   45.7581 H   0  0  0  0  0  0  0  0  0  0  0  0
   57.0280   28.1951   44.1848 H   0  0  0  0  0  0  0  0  0  0  0  0
   57.5758   29.2851   46.9568 H   0  0  0  0  0  0  0  0  0  0  0  0
   58.7158   28.6219   45.6909 H   0  0  0  0  0  0  0  0  0  0  0  0
   60.3517   29.5073   46.5967 H   0  0  0  0  0  0  0  0  0  0  0  0
   62.2944   30.7148   47.5705 H   0  0  0  0  0  0  0  0  0  0  0  0
  1  2  1  0
  2  3  2  0
  3  4  1  0
  4  5  2  0
  5  6  1  0
  6  7  1  0
  7  8  1  0
  8  9  1  0
  9 10  1  0
 10 11  1  0
  5 12  1  0
 12 13  2  0
 13  2  1  0
 11  6  1  0
  3 14  1  0
  4 15  1  0
  7 16  1  0
  7 17  1  0
  8 18  1  0
  8 19  1  0
 10 20  1  0
 10 21  1  0
 11 22  1  0
 11 23  1  0
 12 24  1  0
 13 25  1  0
M  END
>  <UniqueID>  (45) 
41

>  <SMILES>  (45) 
Brc1ccc(N2CCOCC2)cc1

>  <Energy>  (45) 
32.17056458822233

>  <Genealogy>  (45) 
Brc1ccc(N2CCOCC2)cc1 (3D coordinates assigned)
Brc1ccc(N2CCOCC2)cc1 (nonaromatic ring conformer: 32.17056458822233 kcal/mol)

>  <smiles>  (45) 
Brc1ccc(N2CCOCC2)cc1

>  <score_type>  (45) 
oracle

>  <origin>  (45) 
adg

>  <m_score__min__energy>  (45) 
-5.4800000000000004

>  <m_primary>  (45) 
energy

$$$$
45:0
     RDKit          3D

 46 47  0  0  0  0  0  0  0  0999 V2000
   57.8240   33.8950   46.4420 C   0  0  0  0  0  0  0  0  0  0  0  0
   57.9930   32.8220   45.4140 C   0  0  0  0  0  0  0  0  0  0  0  0
   57.7740   33.0950   44.0640 C   0  0  0  0  0  0  0  0  0  0  0  0
   57.9460   32.0640   43.1350 C   0  0  0  0  0  0  0  0  0  0  0  0
   57.7440   32.3310   41.6720 C   0  0  0  0  0  0  0  0  0  0  0  0
   58.3570   30.8340   43.5580 N   0  0  0  0  0  0  0  0  0  0  0  0
   58.5870   30.5830   44.8840 C   0  0  0  0  0  0  0  0  0  0  0  0
   59.0230   29.2820   45.3450 N   0  0  0  0  0  0  0  0  0  0  0  0
   58.0770   28.1610   45.2750 C   0  0  0  0  0  0  0  0  0  0  0  0
   60.3720   29.0540   45.8940 C   0  0  0  0  0  0  0  0  0  0  0  0
   60.3390   28.8670   47.4190 C   0  0  0  0  0  0  0  0  0  0  0  0
   59.0980   29.5280   48.0480 C   0  0  0  0  0  0  0  0  0  0  0  0
   59.3470   30.9210   48.4510 N   0  0  0  0  0  0  0  0  0  0  0  0
   60.6790   31.1050   49.0410 C   0  0  0  0  0  0  0  0  0  0  0  0
   61.4770   32.0510   48.1890 C   0  0  0  0  0  0  0  0  0  0  0  0
   62.8580   31.8630   48.0210 C   0  0  0  0  0  0  0  0  0  0  0  0
   63.5920   32.7230   47.1990 C   0  0  0  0  0  0  0  0  0  0  0  0
   62.9500   33.7700   46.5310 C   0  0  0  0  0  0  0  0  0  0  0  0
   61.5720   33.9540   46.6800 C   0  0  0  0  0  0  0  0  0  0  0  0
   60.8350   33.0960   47.5020 C   0  0  0  0  0  0  0  0  0  0  0  0
   58.3950   31.5830   45.7900 N   0  0  0  0  0  0  0  0  0  0  0  0
   57.8935   33.4539   47.4473 H   0  0  0  0  0  0  0  0  0  0  0  0
   58.6143   34.6499   46.3174 H   0  0  0  0  0  0  0  0  0  0  0  0
   56.8399   34.3704   46.3174 H   0  0  0  0  0  0  0  0  0  0  0  0
   57.4721   34.1008   43.7366 H   0  0  0  0  0  0  0  0  0  0  0  0
   57.0847   33.2025   41.5459 H   0  0  0  0  0  0  0  0  0  0  0  0
   58.7159   32.5350   41.1989 H   0  0  0  0  0  0  0  0  0  0  0  0
   57.2834   31.4512   41.1989 H   0  0  0  0  0  0  0  0  0  0  0  0
   58.4850   30.0860   42.8430 H   0  0  0  0  0  0  0  0  0  0  0  0
   57.8089   27.8433   46.2934 H   0  0  0  0  0  0  0  0  0  0  0  0
   57.1703   28.4792   44.7396 H   0  0  0  0  0  0  0  0  0  0  0  0
   58.5431   27.3207   44.7396 H   0  0  0  0  0  0  0  0  0  0  0  0
   60.7968   28.1502   45.4328 H   0  0  0  0  0  0  0  0  0  0  0  0
   60.9882   29.9371   45.6693 H   0  0  0  0  0  0  0  0  0  0  0  0
   60.3230   27.7908   47.6458 H   0  0  0  0  0  0  0  0  0  0  0  0
   61.2341   29.3462   47.8424 H   0  0  0  0  0  0  0  0  0  0  0  0
   58.2797   29.5140   47.3130 H   0  0  0  0  0  0  0  0  0  0  0  0
   58.8376   28.9590   48.9527 H   0  0  0  0  0  0  0  0  0  0  0  0
   59.2530   31.5470   47.6170 H   0  0  0  0  0  0  0  0  0  0  0  0
   60.5771   31.5209   50.0542 H   0  0  0  0  0  0  0  0  0  0  0  0
   61.1944   30.1346   49.0935 H   0  0  0  0  0  0  0  0  0  0  0  0
   63.3648   31.0352   48.5386 H   0  0  0  0  0  0  0  0  0  0  0  0
   64.6753   32.5759   47.0777 H   0  0  0  0  0  0  0  0  0  0  0  0
   63.5291   34.4492   45.8881 H   0  0  0  0  0  0  0  0  0  0  0  0
   61.0670   34.7749   46.1498 H   0  0  0  0  0  0  0  0  0  0  0  0
   59.7498   33.2391   47.6114 H   0  0  0  0  0  0  0  0  0  0  0  0
  1  2  1  0
  2  3  2  0
  3  4  1  0
  4  5  1  0
  4  6  2  0
  6  7  1  0
  7  8  1  0
  8  9  1  0
  8 10  1  0
 10 11  1  0
 11 12  1  0
 12 13  1  0
 13 14  1  0
 14 15  1  0
 15 16  2  0
 16 17  1  0
 17 18  2  0
 18 19  1  0
 19 20  2  0
  7 21  2  0
 21  2  1  0
 20 15  1  0
  1 22  1  0
  1 23  1  0
  1 24  1  0
  3 25  1  0
  5 26  1  0
  5 27  1  0
  5 28  1  0
  6 29  1  0
  9 30  1  0
  9 31  1  0
  9 32  1  0
 10 33  1  0
 10 34  1  0
 11 35  1  0
 11 36  1  0
 12 37  1  0
 12 38  1  0
 13 39  1  0
 14 40  1  0
 14 41  1  0
 16 42  1  0
 17 43  1  0
 18 44  1  0
 19 45  1  0
 20 46  1  0
M  CHG  1   6   1
M  END
>  <UniqueID>  (46) 
42

>  <SMILES>  (46) 
Cc1cc(C)[nH+]c(N(C)CCCNCc2ccccc2)n1

>  <Energy>  (46) 
39.64878825222645

>  <Genealogy>  (46) 
Cc1cc(C)[nH+]c(N(C)CCCNCc2ccccc2)n1 (protonated)
Cc1cc(C)[nH+]c(N(C)CCCNCc2ccccc2)n1 (3D coordinates assigned)
Cc1cc(C)[nH+]c(N(C)CCCNCc2ccccc2)n1 (optimized conformer: 39.64878825222645 kcal/mol)

>  <smiles>  (46) 
Cc1cc(C)nc(N(C)CCCNCc2ccccc2)n1

>  <score_type>  (46) 
oracle

>  <origin>  (46) 
adg

>  <m_score__min__energy>  (46) 
-5.2999999999999998

>  <m_primary>  (46) 
energy

$$$$
46:0
     RDKit          3D

 30 32  0  0  0  0  0  0  0  0999 V2000
   60.6670   28.6510   46.1030 C   0  0  0  0  0  0  0  0  0  0  0  0
   59.6640   29.7450   45.8700 C   0  0  0  0  0  0  0  0  0  0  0  0
   60.0230   31.0210   46.1700 N   0  0  0  0  0  0  0  0  0  0  0  0
   59.1770   32.0620   45.9810 C   0  0  0  0  0  0  0  0  0  0  0  0
   59.5830   33.3620   46.3000 C   0  0  0  0  0  0  0  0  0  0  0  0
   58.7120   34.4370   46.1040 C   0  0  0  0  0  0  0  0  0  0  0  0
   57.4310   34.2160   45.5880 C   0  0  0  0  0  0  0  0  0  0  0  0
   57.0170   32.9190   45.2660 C   0  0  0  0  0  0  0  0  0  0  0  0
   57.8890   31.8310   45.4610 C   0  0  0  0  0  0  0  0  0  0  0  0
   57.5230   30.5090   45.1580 C   0  0  0  0  0  0  0  0  0  0  0  0
   56.3720   30.2650   44.6970 O   0  0  0  0  0  0  0  0  0  0  0  0
   58.4110   29.4840   45.3690 N   0  0  0  0  0  0  0  0  0  0  0  0
   58.0150   28.1350   45.0590 C   0  0  0  0  0  0  0  0  0  0  0  0
   58.1520   27.6410   43.7520 C   0  0  0  0  0  0  0  0  0  0  0  0
   57.7700   26.3300   43.4530 C   0  0  0  0  0  0  0  0  0  0  0  0
   57.2510   25.5050   44.4570 C   0  0  0  0  0  0  0  0  0  0  0  0
   56.7290   23.7140   44.0470 Br  0  0  0  0  0  0  0  0  0  0  0  0
   57.1180   25.9910   45.7630 C   0  0  0  0  0  0  0  0  0  0  0  0
   57.5010   27.3030   46.0640 C   0  0  0  0  0  0  0  0  0  0  0  0
   60.8031   28.5026   47.1844 H   0  0  0  0  0  0  0  0  0  0  0  0
   60.3041   27.7178   45.6476 H   0  0  0  0  0  0  0  0  0  0  0  0
   61.6282   28.9317   45.6476 H   0  0  0  0  0  0  0  0  0  0  0  0
   60.5900   33.5385   46.7060 H   0  0  0  0  0  0  0  0  0  0  0  0
   59.0342   35.4582   46.3558 H   0  0  0  0  0  0  0  0  0  0  0  0
   56.7473   35.0640   45.4350 H   0  0  0  0  0  0  0  0  0  0  0  0
   56.0089   32.7491   44.8600 H   0  0  0  0  0  0  0  0  0  0  0  0
   58.5609   28.2872   42.9613 H   0  0  0  0  0  0  0  0  0  0  0  0
   57.8775   25.9466   42.4276 H   0  0  0  0  0  0  0  0  0  0  0  0
   56.7124   25.3416   46.5528 H   0  0  0  0  0  0  0  0  0  0  0  0
   57.3986   27.6825   47.0914 H   0  0  0  0  0  0  0  0  0  0  0  0
  1  2  1  0
  2  3  2  0
  3  4  1  0
  4  5  2  0
  5  6  1  0
  6  7  2  0
  7  8  1  0
  8  9  2  0
  9 10  1  0
 10 11  2  0
 10 12  1  0
 12 13  1  0
 13 14  2  0
 14 15  1  0
 15 16  2  0
 16 17  1  0
 16 18  1  0
 18 19  2  0
 12  2  1  0
 19 13  1  0
  9  4  1  0
  1 20  1  0
  1 21  1  0
  1 22  1  0
  5 23  1  0
  6 24  1  0
  7 25  1  0
  8 26  1  0
 14 27  1  0
 15 28  1  0
 18 29  1  0
 19 30  1  0
M  END
>  <UniqueID>  (47) 
43

>  <SMILES>  (47) 
Cc1nc2ccccc2c(=O)n1-c1ccc(Br)cc1

>  <Energy>  (47) 
46.38520859066732

>  <Genealogy>  (47) 
Cc1nc2ccccc2c(=O)n1-c1ccc(Br)cc1 (3D coordinates assigned)
Cc1nc2ccccc2c(=O)n1-c1ccc(Br)cc1 (optimized conformer: 46.38520859066732 kcal/mol)

>  <smiles>  (47) 
Cc1nc2ccccc2c(=O)n1-c1ccc(Br)cc1

>  <score_type>  (47) 
oracle

>  <origin>  (47) 
adg

>  <m_score__min__energy>  (47) 
-7.3600000000000003

>  <m_primary>  (47) 
energy

$$$$
47:0
     RDKit          3D

 47 50  0  0  0  0  0  0  0  0999 V2000
   57.0540   20.9740   42.9860 C   0  0  0  0  0  0  0  0  0  0  0  0
   55.9030   21.4140   43.6980 O   0  0  0  0  0  0  0  0  0  0  0  0
   55.7970   22.6550   44.3430 C   0  0  0  0  0  0  0  0  0  0  0  0
   54.5560   23.2080   44.7130 C   0  0  0  0  0  0  0  0  0  0  0  0
   54.5000   24.4490   45.3560 C   0  0  0  0  0  0  0  0  0  0  0  0
   55.6780   25.1470   45.6360 C   0  0  0  0  0  0  0  0  0  0  0  0
   55.6280   26.3510   46.2500 N   0  0  0  0  0  0  0  0  0  0  0  0
   56.7420   27.0280   46.5250 N   0  0  0  0  0  0  0  0  0  0  0  0
   57.9550   26.5520   46.2230 N   0  0  0  0  0  0  0  0  0  0  0  0
   59.1360   27.3860   46.5260 C   0  0  0  0  0  0  0  0  0  0  0  0
   58.9490   28.1810   47.8430 C   0  0  0  0  0  0  0  0  0  0  0  0
   58.5030   29.6240   47.5710 C   0  0  0  0  0  0  0  0  0  0  0  0
   59.5000   30.3770   46.7640 N   0  0  0  0  0  0  0  0  0  0  0  0
   58.8860   31.5540   46.1150 C   0  0  0  0  0  0  0  0  0  0  0  0
   57.9730   31.1360   44.9970 C   0  0  0  0  0  0  0  0  0  0  0  0
   58.1380   31.6480   43.7010 C   0  0  0  0  0  0  0  0  0  0  0  0
   57.2880   31.2150   42.6800 C   0  0  0  0  0  0  0  0  0  0  0  0
   56.2910   30.2800   42.9570 C   0  0  0  0  0  0  0  0  0  0  0  0
   56.1590   29.7870   44.2560 C   0  0  0  0  0  0  0  0  0  0  0  0
   56.9950   30.2180   45.2370 N   0  0  0  0  0  0  0  0  0  0  0  0
   60.2410   29.5400   45.7810 C   0  0  0  0  0  0  0  0  0  0  0  0
   59.4410   28.3110   45.3290 C   0  0  0  0  0  0  0  0  0  0  0  0
   58.0750   25.3490   45.5770 C   0  0  0  0  0  0  0  0  0  0  0  0
   59.2120   24.9080   45.2470 O   0  0  0  0  0  0  0  0  0  0  0  0
   56.9230   24.6080   45.2740 C   0  0  0  0  0  0  0  0  0  0  0  0
   56.9740   23.3590   44.6270 C   0  0  0  0  0  0  0  0  0  0  0  0
   57.8352   20.6754   43.7005 H   0  0  0  0  0  0  0  0  0  0  0  0
   56.7875   20.1143   42.3536 H   0  0  0  0  0  0  0  0  0  0  0  0
   57.4289   21.7922   42.3536 H   0  0  0  0  0  0  0  0  0  0  0  0
   53.6264   22.6616   44.4954 H   0  0  0  0  0  0  0  0  0  0  0  0
   53.5274   24.8761   45.6417 H   0  0  0  0  0  0  0  0  0  0  0  0
   60.0035   26.7282   46.6832 H   0  0  0  0  0  0  0  0  0  0  0  0
   58.1856   27.6808   48.4570 H   0  0  0  0  0  0  0  0  0  0  0  0
   59.9154   28.2117   48.3675 H   0  0  0  0  0  0  0  0  0  0  0  0
   57.5483   29.6029   47.0249 H   0  0  0  0  0  0  0  0  0  0  0  0
   58.3983   30.1337   48.5401 H   0  0  0  0  0  0  0  0  0  0  0  0
   58.3062   32.1155   46.8624 H   0  0  0  0  0  0  0  0  0  0  0  0
   59.6868   32.1823   45.6978 H   0  0  0  0  0  0  0  0  0  0  0  0
   58.9288   32.3831   43.4908 H   0  0  0  0  0  0  0  0  0  0  0  0
   57.4049   31.6106   41.6603 H   0  0  0  0  0  0  0  0  0  0  0  0
   55.6158   29.9348   42.1601 H   0  0  0  0  0  0  0  0  0  0  0  0
   55.3770   29.0484   44.4862 H   0  0  0  0  0  0  0  0  0  0  0  0
   60.4712   30.1545   44.8981 H   0  0  0  0  0  0  0  0  0  0  0  0
   61.1554   29.1787   46.2742 H   0  0  0  0  0  0  0  0  0  0  0  0
   58.4937   28.6427   44.8789 H   0  0  0  0  0  0  0  0  0  0  0  0
   60.0386   27.7517   44.5941 H   0  0  0  0  0  0  0  0  0  0  0  0
   57.9469   22.9321   44.3419 H   0  0  0  0  0  0  0  0  0  0  0  0
  1  2  1  0
  2  3  1  0
  3  4  2  0
  4  5  1  0
  5  6  2  0
  6  7  1  0
  7  8  2  0
  8  9  1  0
  9 10  1  0
 10 11  1  0
 11 12  1  0
 12 13  1  0
 13 14  1  0
 14 15  1  0
 15 16  2  0
 16 17  1  0
 17 18  2  0
 18 19  1  0
 19 20  2  0
 13 21  1  0
 21 22  1  0
  9 23  1  0
 23 24  2  0
 23 25  1  0
 25 26  2  0
 26  3  1  0
 25  6  1  0
 22 10  1  0
 20 15  1  0
  1 27  1  0
  1 28  1  0
  1 29  1  0
  4 30  1  0
  5 31  1  0
 10 32  1  0
 11 33  1  0
 11 34  1  0
 12 35  1  0
 12 36  1  0
 14 37  1  0
 14 38  1  0
 16 39  1  0
 17 40  1  0
 18 41  1  0
 19 42  1  0
 21 43  1  0
 21 44  1  0
 22 45  1  0
 22 46  1  0
 26 47  1  0
M  END
>  <UniqueID>  (48) 
44

>  <SMILES>  (48) 
COc1ccc2nnn(C3CCN(Cc4ccccn4)CC3)c(=O)c2c1

>  <Energy>  (48) 
65.89164915570026

>  <Genealogy>  (48) 
COc1ccc2nnn(C3CCN(Cc4ccccn4)CC3)c(=O)c2c1 (3D coordinates assigned)
COc1ccc2nnn(C3CCN(Cc4ccccn4)CC3)c(=O)c2c1 (nonaromatic ring conformer: 65.89164915570026 kcal/mol)

>  <smiles>  (48) 
COc1ccc2nnn(C3CCN(Cc4ccccn4)CC3)c(=O)c2c1

>  <score_type>  (48) 
oracle

>  <origin>  (48) 
adg

>  <m_score__min__energy>  (48) 
-8.5199999999999996

>  <m_primary>  (48) 
energy

$$$$
