0:0
     RDKit          3D

 24 24  0  0  0  0  0  0  0  0999 V2000
   55.7820   26.9300   53.9010 C   0  0  0  0  0  0  0  0  0  0  0  0
   54.5460   27.8410   53.8290 C   0  0  2  0  0  0  0  0  0  0  0  0
   53.5560   27.2970   52.8900 N   0  0  0  0  0  0  0  0  0  0  0  0
   54.9160   29.3040   53.4890 C   0  0  0  0  0  0  0  0  0  0  0  0
   53.7780   30.0960   52.8910 C   0  0  0  0  0  0  0  0  0  0  0  0
   52.6630   30.4410   53.6740 C   0  0  0  0  0  0  0  0  0  0  0  0
   51.6160   31.1840   53.1210 C   0  0  0  0  0  0  0  0  0  0  0  0
   51.6710   31.5880   51.7840 C   0  0  0  0  0  0  0  0  0  0  0  0
   50.6290   32.3270   51.2370 O   0  0  0  0  0  0  0  0  0  0  0  0
   52.7760   31.2460   50.9970 C   0  0  0  0  0  0  0  0  0  0  0  0
   53.8250   30.5040   51.5460 C   0  0  0  0  0  0  0  0  0  0  0  0
   56.0377   26.7415   54.9541 H   0  0  0  0  0  0  0  0  0  0  0  0
   55.5635   25.9753   53.4002 H   0  0  0  0  0  0  0  0  0  0  0  0
   56.6293   27.4213   53.4002 H   0  0  0  0  0  0  0  0  0  0  0  0
   54.0908   27.8622   54.8302 H   0  0  0  0  0  0  0  0  0  0  0  0
   53.2390   28.0290   52.2150 H   0  0  0  0  0  0  0  0  0  0  0  0
   53.9820   26.5060   52.3520 H   0  0  0  0  0  0  0  0  0  0  0  0
   52.7310   26.9260   53.4150 H   0  0  0  0  0  0  0  0  0  0  0  0
   55.2386   29.8043   54.4140 H   0  0  0  0  0  0  0  0  0  0  0  0
   55.7130   29.2657   52.7318 H   0  0  0  0  0  0  0  0  0  0  0  0
   52.6140   30.1250   54.7265 H   0  0  0  0  0  0  0  0  0  0  0  0
   50.7466   31.4514   53.7396 H   0  0  0  0  0  0  0  0  0  0  0  0
   52.8191   31.5618   49.9442 H   0  0  0  0  0  0  0  0  0  0  0  0
   54.6917   30.2377   50.9232 H   0  0  0  0  0  0  0  0  0  0  0  0
  1  2  1  0
  2  3  1  0
  2  4  1  0
  4  5  1  0
  5  6  2  0
  6  7  1  0
  7  8  2  0
  8  9  1  0
  8 10  1  0
 10 11  2  0
 11  5  1  0
  1 12  1  0
  1 13  1  0
  1 14  1  0
  2 15  1  1
  3 16  1  0
  3 17  1  0
  3 18  1  0
  4 19  1  0
  4 20  1  0
  6 21  1  0
  7 22  1  0
 10 23  1  0
 11 24  1  0
M  CHG  2   3   1   9  -1
M  END
>  <UniqueID>  (1) 
1

>  <SMILES>  (1) 
C[C@H]([NH3+])Cc1ccc([O-])cc1

>  <Energy>  (1) 
18.410005442591075

>  <Genealogy>  (1) 
CC([NH3+])Cc1ccc([O-])cc1 (protonated)
C[C@H]([NH3+])Cc1ccc([O-])cc1 (chirality)
C[C@H]([NH3+])Cc1ccc([O-])cc1 (3D coordinates assigned)
C[C@H]([NH3+])Cc1ccc([O-])cc1 (optimized conformer: 18.410005442591075 kcal/mol)

>  <smiles>  (1) 
CC(N)Cc1ccc(O)cc1

>  <score_type>  (1) 
oracle

>  <origin>  (1) 
adg

>  <m_score__min__energy>  (1) 
-7.6799999999999997

>  <m_primary>  (1) 
energy

$$$$
1:0
     RDKit          3D

 28 30  0  0  0  0  0  0  0  0999 V2000
   61.2759   29.1178   45.0834 H   0  0  0  0  0  0  0  0  0  0  0  0
   60.2440   28.7590   45.2120 C   0  0  0  0  0  0  0  0  0  0  0  0
   59.1970   29.5950   44.9380 N   0  0  0  0  0  0  0  0  0  0  0  0
   57.9360   29.1230   45.1040 C   0  0  0  0  0  0  0  0  0  0  0  0
   56.7180   29.7140   44.9180 C   0  0  0  0  0  0  0  0  0  0  0  0
   56.5220   30.9470   44.5540 N   0  0  0  0  0  0  0  0  0  0  0  0
   57.3750   32.0630   44.8590 C   0  0  0  0  0  0  0  0  0  0  0  0
   57.4430   32.5790   46.1650 C   0  0  0  0  0  0  0  0  0  0  0  0
   56.8661   32.1027   46.9715 H   0  0  0  0  0  0  0  0  0  0  0  0
   58.2380   33.6920   46.4450 C   0  0  0  0  0  0  0  0  0  0  0  0
   58.2993   34.0790   47.4729 H   0  0  0  0  0  0  0  0  0  0  0  0
   58.9550   34.3140   45.4220 C   0  0  0  0  0  0  0  0  0  0  0  0
   59.5875   35.1856   45.6463 H   0  0  0  0  0  0  0  0  0  0  0  0
   58.8710   33.8320   44.1140 C   0  0  0  0  0  0  0  0  0  0  0  0
   59.4324   34.3307   43.3102 H   0  0  0  0  0  0  0  0  0  0  0  0
   58.0730   32.7130   43.8190 C   0  0  0  0  0  0  0  0  0  0  0  0
   57.9830   32.2050   42.4070 C   0  0  0  0  0  0  0  0  0  0  0  0
   57.7911   31.1219   42.4185 H   0  0  0  0  0  0  0  0  0  0  0  0
   57.1616   32.7174   41.8846 H   0  0  0  0  0  0  0  0  0  0  0  0
   58.9304   32.4040   41.8846 H   0  0  0  0  0  0  0  0  0  0  0  0
   55.7600   28.8130   45.2500 N   0  0  0  0  0  0  0  0  0  0  0  0
   54.7270   28.9660   45.2640 H   0  0  0  0  0  0  0  0  0  0  0  0
   56.3350   27.6720   45.6260 N   0  0  0  0  0  0  0  0  0  0  0  0
   57.6660   27.8590   45.5340 C   0  0  0  0  0  0  0  0  0  0  0  0
   58.6930   26.9700   45.8270 C   0  0  0  0  0  0  0  0  0  0  0  0
   58.4849   25.9473   46.1744 H   0  0  0  0  0  0  0  0  0  0  0  0
   60.0120   27.4350   45.6600 C   0  0  0  0  0  0  0  0  0  0  0  0
   60.8614   26.7707   45.8772 H   0  0  0  0  0  0  0  0  0  0  0  0
  1  2  1  0
  2  3  2  0
  3  4  1  0
  4  5  1  0
  5  6  2  0
  6  7  1  0
  7  8  2  0
  8  9  1  0
  8 10  1  0
 10 11  1  0
 10 12  2  0
 12 13  1  0
 12 14  1  0
 14 15  1  0
 14 16  2  0
 16 17  1  0
 17 18  1  0
 17 19  1  0
 17 20  1  0
  5 21  1  0
 21 22  1  0
 21 23  1  0
 23 24  1  0
 24 25  1  0
 25 26  1  0
 25 27  2  0
 27 28  1  0
 27  2  1  0
 24  4  2  0
 16  7  1  0
M  CHG  1  23  -1
M  END
>  <UniqueID>  (2) 
2

>  <SMILES>  (2) 
Cc1ccccc1/N=c1\[nH][n-]c2cccnc12

>  <Energy>  (2) 
80.76498117609347

>  <Genealogy>  (2) 
Cc1ccccc1N=c1[nH][n-]c2cccnc12 (protonated)
Cc1ccccc1/N=c1\[nH][n-]c2cccnc12 (cis-trans isomerization)
Cc1ccccc1/N=c1\[nH][n-]c2cccnc12 (3D coordinates assigned)
Cc1ccccc1/N=c1\[nH][n-]c2cccnc12 (optimized conformer: 80.76498117609347 kcal/mol)

>  <smiles>  (2) 
Cc1ccccc1N=c1[nH][nH]c2cccnc12

>  <score_type>  (2) 
oracle

>  <origin>  (2) 
adg

>  <m_score__min__energy>  (2) 
-9.4399999999999995

>  <m_primary>  (2) 
energy

$$$$
2:0
     RDKit          3D

 27 29  0  0  0  0  0  0  0  0999 V2000
   55.9607   24.4998   44.2184 H   0  0  0  0  0  0  0  0  0  0  0  0
   56.3600   23.4750   44.2010 C   0  0  0  0  0  0  0  0  0  0  0  0
   56.5120   22.8070   42.9850 C   0  0  0  0  0  0  0  0  0  0  0  0
   56.2267   23.2975   42.0426 H   0  0  0  0  0  0  0  0  0  0  0  0
   57.0290   21.5120   42.9760 C   0  0  0  0  0  0  0  0  0  0  0  0
   57.1502   20.9764   42.0229 H   0  0  0  0  0  0  0  0  0  0  0  0
   57.3840   20.9090   44.1430 N   0  0  0  0  0  0  0  0  0  0  0  0
   57.7740   19.9400   44.1190 H   0  0  0  0  0  0  0  0  0  0  0  0
   57.2450   21.5400   45.3410 C   0  0  0  0  0  0  0  0  0  0  0  0
   57.5483   21.0290   46.2667 H   0  0  0  0  0  0  0  0  0  0  0  0
   56.7160   22.8410   45.4020 C   0  0  0  0  0  0  0  0  0  0  0  0
   56.5720   23.5350   46.7040 C   0  0  0  0  0  0  0  0  0  0  0  0
   56.9800   22.9720   47.7550 O   0  0  0  0  0  0  0  0  0  0  0  0
   56.0440   24.8650   46.8010 N   0  0  0  0  0  0  0  0  0  0  0  0
   56.6070   25.9390   46.3320 C   0  0  0  0  0  0  0  0  0  0  0  0
   55.8790   26.9750   45.8490 N   0  0  0  0  0  0  0  0  0  0  0  0
   56.6880   27.9600   45.3860 C   0  0  0  0  0  0  0  0  0  0  0  0
   56.2330   29.1590   44.8320 C   0  0  0  0  0  0  0  0  0  0  0  0
   55.1557   29.3636   44.7456 H   0  0  0  0  0  0  0  0  0  0  0  0
   57.1790   30.0990   44.3870 C   0  0  0  0  0  0  0  0  0  0  0  0
   56.8400   31.0490   43.9482 H   0  0  0  0  0  0  0  0  0  0  0  0
   58.5590   29.8330   44.4990 C   0  0  0  0  0  0  0  0  0  0  0  0
   59.2902   30.5759   44.1477 H   0  0  0  0  0  0  0  0  0  0  0  0
   59.0040   28.6240   45.0570 C   0  0  0  0  0  0  0  0  0  0  0  0
   60.0781   28.4057   45.1495 H   0  0  0  0  0  0  0  0  0  0  0  0
   58.0480   27.7090   45.4900 C   0  0  0  0  0  0  0  0  0  0  0  0
   58.2820   26.2000   46.1850 S   0  0  0  0  0  0  0  0  0  0  0  0
  1  2  1  0
  2  3  2  0
  3  4  1  0
  3  5  1  0
  5  6  1  0
  5  7  2  0
  7  8  1  0
  7  9  1  0
  9 10  1  0
  9 11  2  0
 11 12  1  0
 12 13  2  0
 12 14  1  0
 14 15  2  0
 15 16  1  0
 16 17  1  0
 17 18  2  0
 18 19  1  0
 18 20  1  0
 20 21  1  0
 20 22  2  0
 22 23  1  0
 22 24  1  0
 24 25  1  0
 24 26  2  0
 26 27  1  0
 11  2  1  0
 27 15  1  0
 26 17  1  0
M  CHG  2   7   1  16  -1
M  END
>  <UniqueID>  (3) 
3

>  <SMILES>  (3) 
O=C(/N=c1/[n-]c2ccccc2s1)c1ccc[nH+]c1

>  <Energy>  (3) 
73.16319615323803

>  <Genealogy>  (3) 
O=C(N=c1[n-]c2ccccc2s1)c1ccc[nH+]c1 (protonated)
O=C(/N=c1/[n-]c2ccccc2s1)c1ccc[nH+]c1 (cis-trans isomerization)
O=C(/N=c1/[n-]c2ccccc2s1)c1ccc[nH+]c1 (3D coordinates assigned)
O=C(/N=c1/[n-]c2ccccc2s1)c1ccc[nH+]c1 (optimized conformer: 73.16319615323803 kcal/mol)

>  <smiles>  (3) 
O=C(N=c1[nH]c2ccccc2s1)c1cccnc1

>  <score_type>  (3) 
oracle

>  <origin>  (3) 
adg

>  <m_score__min__energy>  (3) 
-7.8200000000000003

>  <m_primary>  (3) 
energy

$$$$
3:0
     RDKit          3D

 34 35  0  0  0  0  0  0  0  0999 V2000
   59.6440   35.4480   46.0980 C   0  0  0  0  0  0  0  0  0  0  0  0
   59.1010   34.0840   45.7490 C   0  0  0  0  0  0  0  0  0  0  0  0
   58.7690   33.8210   44.4070 C   0  0  0  0  0  0  0  0  0  0  0  0
   58.1780   32.6110   44.0420 C   0  0  0  0  0  0  0  0  0  0  0  0
   57.7730   32.3030   42.3630 Cl  0  0  0  0  0  0  0  0  0  0  0  0
   57.8840   31.6580   45.0150 C   0  0  0  0  0  0  0  0  0  0  0  0
   58.2010   31.9020   46.3510 C   0  0  0  0  0  0  0  0  0  0  0  0
   58.8450   33.0930   46.7390 C   0  0  0  0  0  0  0  0  0  0  0  0
   59.1940   33.2980   48.2110 C   0  0  0  0  0  0  0  0  0  0  0  0
   60.6180   33.0330   48.5620 N   0  0  0  0  0  0  0  0  0  0  0  0
   61.3870   32.3640   47.4710 C   0  0  0  0  0  0  0  0  0  0  0  0
   62.3950   33.3010   46.7870 C   0  0  0  0  0  0  0  0  0  0  0  0
   63.4140   33.8480   47.8010 C   0  0  0  0  0  0  0  0  0  0  0  0
   62.8170   34.0230   49.2090 C   0  0  0  0  0  0  0  0  0  0  0  0
   61.2980   34.2220   49.1440 C   0  0  0  0  0  0  0  0  0  0  0  0
   59.6872   35.5566   47.1918 H   0  0  0  0  0  0  0  0  0  0  0  0
   60.6548   35.5587   45.6783 H   0  0  0  0  0  0  0  0  0  0  0  0
   58.9858   36.2230   45.6783 H   0  0  0  0  0  0  0  0  0  0  0  0
   58.9779   34.5782   43.6369 H   0  0  0  0  0  0  0  0  0  0  0  0
   57.4012   30.7119   44.7290 H   0  0  0  0  0  0  0  0  0  0  0  0
   57.9440   31.1524   47.1139 H   0  0  0  0  0  0  0  0  0  0  0  0
   58.9659   34.3415   48.4739 H   0  0  0  0  0  0  0  0  0  0  0  0
   58.5965   32.5660   48.7741 H   0  0  0  0  0  0  0  0  0  0  0  0
   60.5720   32.3310   49.3400 H   0  0  0  0  0  0  0  0  0  0  0  0
   61.9350   31.5120   47.8997 H   0  0  0  0  0  0  0  0  0  0  0  0
   60.6638   32.0435   46.7067 H   0  0  0  0  0  0  0  0  0  0  0  0
   62.9302   32.7439   46.0039 H   0  0  0  0  0  0  0  0  0  0  0  0
   61.8458   34.1480   46.3500 H   0  0  0  0  0  0  0  0  0  0  0  0
   64.2600   33.1476   47.8622 H   0  0  0  0  0  0  0  0  0  0  0  0
   63.7318   34.8407   47.4495 H   0  0  0  0  0  0  0  0  0  0  0  0
   63.0365   33.1257   49.8063 H   0  0  0  0  0  0  0  0  0  0  0  0
   63.2666   34.9145   49.6707 H   0  0  0  0  0  0  0  0  0  0  0  0
   60.9154   34.3905   50.1615 H   0  0  0  0  0  0  0  0  0  0  0  0
   61.0901   35.0890   48.4997 H   0  0  0  0  0  0  0  0  0  0  0  0
  1  2  1  0
  2  3  2  0
  3  4  1  0
  4  5  1  0
  4  6  2  0
  6  7  1  0
  7  8  2  0
  8  9  1  0
  9 10  1  0
 10 11  1  0
 11 12  1  0
 12 13  1  0
 13 14  1  0
 14 15  1  0
  8  2  1  0
 15 10  1  0
  1 16  1  0
  1 17  1  0
  1 18  1  0
  3 19  1  0
  6 20  1  0
  7 21  1  0
  9 22  1  0
  9 23  1  0
 10 24  1  0
 11 25  1  0
 11 26  1  0
 12 27  1  0
 12 28  1  0
 13 29  1  0
 13 30  1  0
 14 31  1  0
 14 32  1  0
 15 33  1  0
 15 34  1  0
M  CHG  1  10   1
M  END
>  <UniqueID>  (4) 
4

>  <SMILES>  (4) 
Cc1cc(Cl)ccc1C[NH+]1CCCCC1

>  <Energy>  (4) 
46.02425177775325

>  <Genealogy>  (4) 
Cc1cc(Cl)ccc1C[NH+]1CCCCC1 (protonated)
Cc1cc(Cl)ccc1C[NH+]1CCCCC1 (3D coordinates assigned)
Cc1cc(Cl)ccc1C[NH+]1CCCCC1 (nonaromatic ring conformer: 46.02425177775325 kcal/mol)

>  <smiles>  (4) 
Cc1cc(Cl)ccc1CN1CCCCC1

>  <score_type>  (4) 
oracle

>  <origin>  (4) 
adg

>  <m_score__min__energy>  (4) 
-4.7800000000000002

>  <m_primary>  (4) 
energy

$$$$
4:0
     RDKit          3D

 22 23  0  0  0  0  0  0  0  0999 V2000
   55.5850   24.6790   46.9520 O   0  0  0  0  0  0  0  0  0  0  0  0
   55.8710   25.5190   46.0590 C   0  0  0  0  0  0  0  0  0  0  0  0
   55.1630   26.7120   45.9830 O   0  0  0  0  0  0  0  0  0  0  0  0
   56.9460   25.2200   45.0650 C   0  0  0  0  0  0  0  0  0  0  0  0
   58.5800   25.6940   45.7260 S   0  0  0  0  0  0  0  0  0  0  0  0
   58.4010   27.4320   45.3340 C   0  0  0  0  0  0  0  0  0  0  0  0
   58.1220   27.8190   44.0610 N   0  0  0  0  0  0  0  0  0  0  0  0
   57.9810   29.1080   43.7460 N   0  0  0  0  0  0  0  0  0  0  0  0
   58.1170   30.0740   44.6970 C   0  0  0  0  0  0  0  0  0  0  0  0
   57.9710   31.4330   44.3840 C   0  0  0  0  0  0  0  0  0  0  0  0
   58.1180   32.3990   45.3880 C   0  0  0  0  0  0  0  0  0  0  0  0
   57.9370   34.1000   44.9990 Cl  0  0  0  0  0  0  0  0  0  0  0  0
   58.4090   32.0080   46.7000 C   0  0  0  0  0  0  0  0  0  0  0  0
   58.5560   30.6530   47.0160 C   0  0  0  0  0  0  0  0  0  0  0  0
   58.4090   29.6860   46.0170 C   0  0  0  0  0  0  0  0  0  0  0  0
   58.5460   28.3670   46.3070 N   0  0  0  0  0  0  0  0  0  0  0  0
   56.9442   24.1426   44.8433 H   0  0  0  0  0  0  0  0  0  0  0  0
   56.7527   25.7968   44.1485 H   0  0  0  0  0  0  0  0  0  0  0  0
   57.7660   29.3640   42.7580 H   0  0  0  0  0  0  0  0  0  0  0  0
   57.7417   31.7398   43.3529 H   0  0  0  0  0  0  0  0  0  0  0  0
   58.5226   32.7692   47.4859 H   0  0  0  0  0  0  0  0  0  0  0  0
   58.7866   30.3493   48.0478 H   0  0  0  0  0  0  0  0  0  0  0  0
  1  2  2  0
  2  3  1  0
  2  4  1  0
  4  5  1  0
  5  6  1  0
  6  7  2  0
  7  8  1  0
  8  9  2  0
  9 10  1  0
 10 11  2  0
 11 12  1  0
 11 13  1  0
 13 14  2  0
 14 15  1  0
 15 16  2  0
 16  6  1  0
 15  9  1  0
  4 17  1  0
  4 18  1  0
  8 19  1  0
 10 20  1  0
 13 21  1  0
 14 22  1  0
M  CHG  2   3  -1   8   1
M  END
>  <UniqueID>  (5) 
5

>  <SMILES>  (5) 
O=C([O-])CSc1n[nH+]c2cc(Cl)ccc2n1

>  <Energy>  (5) 
21.507182318710434

>  <Genealogy>  (5) 
O=C([O-])CSc1n[nH+]c2cc(Cl)ccc2n1 (protonated)
O=C([O-])CSc1n[nH+]c2cc(Cl)ccc2n1 (3D coordinates assigned)
O=C([O-])CSc1n[nH+]c2cc(Cl)ccc2n1 (optimized conformer: 21.507182318710434 kcal/mol)

>  <smiles>  (5) 
O=C(O)CSc1nnc2cc(Cl)ccc2n1

>  <score_type>  (5) 
oracle

>  <origin>  (5) 
adg

>  <m_score__min__energy>  (5) 
-8.0099999999999998

>  <m_primary>  (5) 
energy

$$$$
5:0
     RDKit          3D

 34 37  0  0  0  0  0  0  0  0999 V2000
   55.6220   25.8190   45.2630 H   0  0  0  0  0  0  0  0  0  0  0  0
   56.3150   26.2320   45.9280 N   0  0  0  0  0  0  0  0  0  0  0  0
   56.6970   27.4640   45.8280 C   0  0  0  0  0  0  0  0  0  0  0  0
   55.9040   28.3780   45.2090 N   0  0  0  0  0  0  0  0  0  0  0  0
   56.2700   29.6820   45.0870 C   0  0  0  0  0  0  0  0  0  0  0  0
   55.5998   30.3929   44.5816 H   0  0  0  0  0  0  0  0  0  0  0  0
   57.5000   30.1270   45.6030 C   0  0  0  0  0  0  0  0  0  0  0  0
   57.9110   31.5480   45.4760 C   0  0  0  0  0  0  0  0  0  0  0  0
   57.1700   32.4430   44.6520 C   0  0  0  0  0  0  0  0  0  0  0  0
   56.2781   32.0789   44.1209 H   0  0  0  0  0  0  0  0  0  0  0  0
   57.5630   33.7860   44.5080 C   0  0  0  0  0  0  0  0  0  0  0  0
   57.0030   34.4784   43.8623 H   0  0  0  0  0  0  0  0  0  0  0  0
   58.6850   34.2050   45.2120 C   0  0  0  0  0  0  0  0  0  0  0  0
   59.2820   35.4100   45.1970 N   0  0  0  0  0  0  0  0  0  0  0  0
   60.3390   35.2990   45.9990 N   0  0  0  0  0  0  0  0  0  0  0  0
   60.4220   34.0760   46.5160 N   0  0  0  0  0  0  0  0  0  0  0  0
   61.4550   33.6540   47.4210 C   0  0  0  0  0  0  0  0  0  0  0  0
   62.6950   33.2270   46.9160 C   0  0  0  0  0  0  0  0  0  0  0  0
   62.8652   33.2040   45.8295 H   0  0  0  0  0  0  0  0  0  0  0  0
   63.7140   32.8310   47.7890 C   0  0  0  0  0  0  0  0  0  0  0  0
   64.6779   32.4853   47.3873 H   0  0  0  0  0  0  0  0  0  0  0  0
   63.5090   32.8740   49.1710 C   0  0  0  0  0  0  0  0  0  0  0  0
   64.3095   32.5587   49.8564 H   0  0  0  0  0  0  0  0  0  0  0  0
   62.2860   33.3180   49.6810 C   0  0  0  0  0  0  0  0  0  0  0  0
   62.1266   33.3562   50.7687 H   0  0  0  0  0  0  0  0  0  0  0  0
   61.2640   33.7140   48.8120 C   0  0  0  0  0  0  0  0  0  0  0  0
   60.3074   34.0737   49.2188 H   0  0  0  0  0  0  0  0  0  0  0  0
   59.3870   33.3710   46.0230 C   0  0  0  0  0  0  0  0  0  0  0  0
   59.0530   32.0240   46.1680 C   0  0  0  0  0  0  0  0  0  0  0  0
   59.6558   31.3537   46.7983 H   0  0  0  0  0  0  0  0  0  0  0  0
   58.3300   29.1900   46.2450 C   0  0  0  0  0  0  0  0  0  0  0  0
   59.2981   29.5082   46.6592 H   0  0  0  0  0  0  0  0  0  0  0  0
   57.9290   27.8580   46.3580 C   0  0  0  0  0  0  0  0  0  0  0  0
   58.5770   27.1244   46.8599 H   0  0  0  0  0  0  0  0  0  0  0  0
  1  2  1  0
  2  3  2  0
  3  4  1  0
  4  5  1  0
  5  6  1  0
  5  7  2  0
  7  8  1  0
  8  9  2  0
  9 10  1  0
  9 11  1  0
 11 12  1  0
 11 13  2  0
 13 14  1  0
 14 15  2  0
 15 16  1  0
 16 17  1  0
 17 18  2  0
 18 19  1  0
 18 20  1  0
 20 21  1  0
 20 22  2  0
 22 23  1  0
 22 24  1  0
 24 25  1  0
 24 26  2  0
 26 27  1  0
 16 28  1  0
 28 29  2  0
 29 30  1  0
  7 31  1  0
 31 32  1  0
 31 33  2  0
 33 34  1  0
 33  3  1  0
 29  8  1  0
 28 13  1  0
 26 17  1  0
M  CHG  1   4  -1
M  END
>  <UniqueID>  (6) 
6

>  <SMILES>  (6) 
[H]/N=c1/ccc(-c2ccc3nnn(-c4ccccc4)c3c2)c[n-]1

>  <Energy>  (6) 
94.12502031657213

>  <Genealogy>  (6) 
N=c1ccc(-c2ccc3nnn(-c4ccccc4)c3c2)c[n-]1 (protonated)
[H]/N=c1/ccc(-c2ccc3nnn(-c4ccccc4)c3c2)c[n-]1 (cis-trans isomerization)
[H]/N=c1/ccc(-c2ccc3nnn(-c4ccccc4)c3c2)c[n-]1 (3D coordinates assigned)
[H]/N=c1/ccc(-c2ccc3nnn(-c4ccccc4)c3c2)c[n-]1 (optimized conformer: 94.12502031657213 kcal/mol)

>  <smiles>  (6) 
N=c1ccc(-c2ccc3nnn(-c4ccccc4)c3c2)c[nH]1

>  <score_type>  (6) 
oracle

>  <origin>  (6) 
adg

>  <m_score__min__energy>  (6) 
-9.9100000000000001

>  <m_primary>  (6) 
energy

$$$$
6:0
     RDKit          3D

 35 37  0  0  0  0  0  0  0  0999 V2000
   56.8620   28.4110   45.2330 C   0  0  0  0  0  0  0  0  0  0  0  0
   56.1850   29.3410   44.2330 C   0  0  0  0  0  0  0  0  0  0  0  0
   56.9280   30.6380   44.1340 C   0  0  0  0  0  0  0  0  0  0  0  0
   57.2500   31.2450   42.9230 C   0  0  0  0  0  0  0  0  0  0  0  0
   58.1310   32.6350   43.2670 S   0  0  0  0  0  0  0  0  0  0  0  0
   58.0790   32.3970   44.9320 C   0  0  0  0  0  0  0  0  0  0  0  0
   58.6910   33.2860   45.9350 C   0  0  0  0  0  0  0  0  0  0  0  0
   58.7500   34.6680   45.8800 C   0  0  0  0  0  0  0  0  0  0  0  0
   59.3240   35.1210   47.0080 N   0  0  0  0  0  0  0  0  0  0  0  0
   59.6420   34.0900   47.7750 N   0  0  0  0  0  0  0  0  0  0  0  0
   60.2790   34.2170   49.0830 C   0  0  0  0  0  0  0  0  0  0  0  0
   59.2630   32.9490   47.1580 C   0  0  0  0  0  0  0  0  0  0  0  0
   59.4740   31.5880   47.6920 C   0  0  0  0  0  0  0  0  0  0  0  0
   60.2040   30.6430   46.9520 C   0  0  0  0  0  0  0  0  0  0  0  0
   60.3940   29.3510   47.4530 C   0  0  0  0  0  0  0  0  0  0  0  0
   59.8670   28.9990   48.6990 C   0  0  0  0  0  0  0  0  0  0  0  0
   60.0530   27.7470   49.1840 F   0  0  0  0  0  0  0  0  0  0  0  0
   59.1460   29.9370   49.4440 C   0  0  0  0  0  0  0  0  0  0  0  0
   58.9500   31.2290   48.9430 C   0  0  0  0  0  0  0  0  0  0  0  0
   57.3920   31.2760   45.2410 N   0  0  0  0  0  0  0  0  0  0  0  0
   56.6244   28.7374   46.2562 H   0  0  0  0  0  0  0  0  0  0  0  0
   56.4990   27.3836   45.0822 H   0  0  0  0  0  0  0  0  0  0  0  0
   57.9512   28.4408   45.0822 H   0  0  0  0  0  0  0  0  0  0  0  0
   56.1670   28.8581   43.2448 H   0  0  0  0  0  0  0  0  0  0  0  0
   55.1596   29.5445   44.5753 H   0  0  0  0  0  0  0  0  0  0  0  0
   56.9771   30.8807   41.9216 H   0  0  0  0  0  0  0  0  0  0  0  0
   58.3871   35.2924   45.0503 H   0  0  0  0  0  0  0  0  0  0  0  0
   59.4930   36.1230   47.2500 H   0  0  0  0  0  0  0  0  0  0  0  0
   59.5280   34.0673   49.8727 H   0  0  0  0  0  0  0  0  0  0  0  0
   61.0700   33.4589   49.1808 H   0  0  0  0  0  0  0  0  0  0  0  0
   60.7188   35.2205   49.1808 H   0  0  0  0  0  0  0  0  0  0  0  0
   60.6276   30.9200   45.9754 H   0  0  0  0  0  0  0  0  0  0  0  0
   60.9585   28.6114   46.8662 H   0  0  0  0  0  0  0  0  0  0  0  0
   58.7324   29.6593   50.4247 H   0  0  0  0  0  0  0  0  0  0  0  0
   58.3834   31.9653   49.5319 H   0  0  0  0  0  0  0  0  0  0  0  0
  1  2  1  0
  2  3  1  0
  3  4  2  0
  4  5  1  0
  5  6  1  0
  6  7  1  0
  7  8  1  0
  8  9  2  0
  9 10  1  0
 10 11  1  0
 10 12  1  0
 12 13  1  0
 13 14  2  0
 14 15  1  0
 15 16  2  0
 16 17  1  0
 16 18  1  0
 18 19  2  0
  6 20  2  0
 20  3  1  0
 12  7  2  0
 19 13  1  0
  1 21  1  0
  1 22  1  0
  1 23  1  0
  2 24  1  0
  2 25  1  0
  4 26  1  0
  8 27  1  0
  9 28  1  0
 11 29  1  0
 11 30  1  0
 11 31  1  0
 14 32  1  0
 15 33  1  0
 18 34  1  0
 19 35  1  0
M  CHG  1   9   1
M  END
>  <UniqueID>  (7) 
7

>  <SMILES>  (7) 
CCc1csc(-c2c[nH+]n(C)c2-c2ccc(F)cc2)n1

>  <Energy>  (7) 
97.91460340568594

>  <Genealogy>  (7) 
CCc1csc(-c2c[nH+]n(C)c2-c2ccc(F)cc2)n1 (protonated)
CCc1csc(-c2c[nH+]n(C)c2-c2ccc(F)cc2)n1 (3D coordinates assigned)
CCc1csc(-c2c[nH+]n(C)c2-c2ccc(F)cc2)n1 (optimized conformer: 97.91460340568594 kcal/mol)

>  <smiles>  (7) 
CCc1csc(-c2cnn(C)c2-c2ccc(F)cc2)n1

>  <score_type>  (7) 
oracle

>  <origin>  (7) 
adg

>  <m_score__min__energy>  (7) 
-5.5099999999999998

>  <m_primary>  (7) 
energy

$$$$
7:0
     RDKit          3D

 41 44  0  0  0  0  0  0  0  0999 V2000
   57.0600   30.8250   45.2800 O   0  0  0  0  0  0  0  0  0  0  0  0
   58.2650   30.8670   45.6480 C   0  0  0  0  0  0  0  0  0  0  0  0
   59.0680   29.6770   45.6320 N   0  0  0  0  0  0  0  0  0  0  0  0
   58.5310   28.3440   45.6320 C   0  0  0  0  0  0  0  0  0  0  0  0
   59.3990   27.2360   45.4940 C   0  0  0  0  0  0  0  0  0  0  0  0
   58.9120   25.9610   45.5190 N   0  0  0  0  0  0  0  0  0  0  0  0
   57.5820   25.7760   45.6920 C   0  0  0  0  0  0  0  0  0  0  0  0
   56.8890   24.5920   45.7590 C   0  0  0  0  0  0  0  0  0  0  0  0
   55.5760   25.0100   45.9650 C   0  0  0  0  0  0  0  0  0  0  0  0
   55.5110   26.3630   46.0150 N   0  0  0  0  0  0  0  0  0  0  0  0
   56.7440   26.8040   45.8450 N   0  0  0  0  0  0  0  0  0  0  0  0
   57.1580   28.0930   45.8300 C   0  0  0  0  0  0  0  0  0  0  0  0
   58.8690   32.1690   46.0190 C   0  0  0  0  0  0  0  0  0  0  0  0
   58.3000   33.3960   45.5980 C   0  0  0  0  0  0  0  0  0  0  0  0
   57.0900   33.4620   44.6930 C   0  0  0  0  0  0  0  0  0  0  0  0
   56.6440   34.7680   44.6130 F   0  0  0  0  0  0  0  0  0  0  0  0
   57.4070   33.0130   43.4220 F   0  0  0  0  0  0  0  0  0  0  0  0
   58.8650   34.5940   46.0510 C   0  0  0  0  0  0  0  0  0  0  0  0
   60.0040   34.5720   46.8500 C   0  0  0  0  0  0  0  0  0  0  0  0
   60.5820   33.3910   47.2120 N   0  0  0  0  0  0  0  0  0  0  0  0
   61.7750   33.4230   48.0230 C   0  0  0  0  0  0  0  0  0  0  0  0
   63.0050   32.9960   47.4940 C   0  0  0  0  0  0  0  0  0  0  0  0
   64.1590   33.0200   48.2830 C   0  0  0  0  0  0  0  0  0  0  0  0
   64.0940   33.4680   49.6050 C   0  0  0  0  0  0  0  0  0  0  0  0
   65.2140   33.4900   50.3690 F   0  0  0  0  0  0  0  0  0  0  0  0
   62.8740   33.8900   50.1410 C   0  0  0  0  0  0  0  0  0  0  0  0
   61.7180   33.8670   49.3560 C   0  0  0  0  0  0  0  0  0  0  0  0
   60.0290   32.1960   46.8240 C   0  0  0  0  0  0  0  0  0  0  0  0
   60.5400   31.1080   47.2140 O   0  0  0  0  0  0  0  0  0  0  0  0
   60.1040   29.7920   45.5500 H   0  0  0  0  0  0  0  0  0  0  0  0
   60.4785   27.4035   45.3651 H   0  0  0  0  0  0  0  0  0  0  0  0
   57.2756   23.5659   45.6715 H   0  0  0  0  0  0  0  0  0  0  0  0
   54.7130   24.3364   46.0721 H   0  0  0  0  0  0  0  0  0  0  0  0
   56.4449   28.9191   45.9681 H   0  0  0  0  0  0  0  0  0  0  0  0
   56.3028   32.8191   45.1136 H   0  0  0  0  0  0  0  0  0  0  0  0
   58.4073   35.5553   45.7746 H   0  0  0  0  0  0  0  0  0  0  0  0
   60.4440   35.5196   47.1942 H   0  0  0  0  0  0  0  0  0  0  0  0
   63.0601   32.6412   46.4542 H   0  0  0  0  0  0  0  0  0  0  0  0
   65.1190   32.6859   47.8627 H   0  0  0  0  0  0  0  0  0  0  0  0
   62.8237   34.2408   51.1824 H   0  0  0  0  0  0  0  0  0  0  0  0
   60.7595   34.1976   49.7827 H   0  0  0  0  0  0  0  0  0  0  0  0
  1  2  2  0
  2  3  1  0
  3  4  1  0
  4  5  1  0
  5  6  2  0
  6  7  1  0
  7  8  2  0
  8  9  1  0
  9 10  2  0
 10 11  1  0
 11 12  1  0
  2 13  1  0
 13 14  2  0
 14 15  1  0
 15 16  1  0
 15 17  1  0
 14 18  1  0
 18 19  2  0
 19 20  1  0
 20 21  1  0
 21 22  2  0
 22 23  1  0
 23 24  2  0
 24 25  1  0
 24 26  1  0
 26 27  2  0
 20 28  1  0
 28 29  2  0
 12  4  2  0
 28 13  1  0
 11  7  1  0
 27 21  1  0
  3 30  1  0
  5 31  1  0
  8 32  1  0
  9 33  1  0
 12 34  1  0
 15 35  1  0
 18 36  1  0
 19 37  1  0
 22 38  1  0
 23 39  1  0
 26 40  1  0
 27 41  1  0
M  END
>  <UniqueID>  (8) 
8

>  <SMILES>  (8) 
O=C(Nc1cnc2ccnn2c1)c1c(C(F)F)ccn(-c2ccc(F)cc2)c1=O

>  <Energy>  (8) 
102.33598354653294

>  <Genealogy>  (8) 
O=C(Nc1cnc2ccnn2c1)c1c(C(F)F)ccn(-c2ccc(F)cc2)c1=O (3D coordinates assigned)
O=C(Nc1cnc2ccnn2c1)c1c(C(F)F)ccn(-c2ccc(F)cc2)c1=O (optimized conformer: 102.33598354653294 kcal/mol)

>  <smiles>  (8) 
O=C(Nc1cnc2ccnn2c1)c1c(C(F)F)ccn(-c2ccc(F)cc2)c1=O

>  <score_type>  (8) 
oracle

>  <origin>  (8) 
adg

>  <m_score__min__energy>  (8) 
-8.0099999999999998

>  <m_primary>  (8) 
energy

$$$$
8:0
     RDKit          3D

 42 44  0  0  0  0  0  0  0  0999 V2000
   59.6390   33.4410   50.6080 C   0  0  0  0  0  0  0  0  0  0  0  0
   60.3310   34.3140   49.7200 O   0  0  0  0  0  0  0  0  0  0  0  0
   61.4600   33.9550   48.9680 C   0  0  0  0  0  0  0  0  0  0  0  0
   62.7380   33.8350   49.5510 C   0  0  0  0  0  0  0  0  0  0  0  0
   63.8420   33.4970   48.7630 C   0  0  0  0  0  0  0  0  0  0  0  0
   63.6870   33.2810   47.3940 C   0  0  0  0  0  0  0  0  0  0  0  0
   62.4250   33.3950   46.8070 C   0  0  0  0  0  0  0  0  0  0  0  0
   61.3080   33.7220   47.5880 C   0  0  0  0  0  0  0  0  0  0  0  0
   60.0190   33.8450   46.9710 N   0  0  0  0  0  0  0  0  0  0  0  0
   59.6640   35.0500   46.2210 C   0  0  0  0  0  0  0  0  0  0  0  0
   59.1020   34.6430   44.8580 C   0  0  0  0  0  0  0  0  0  0  0  0
   58.0150   33.6380   44.9570 N   0  0  0  0  0  0  0  0  0  0  0  0
   57.9440   32.6950   43.8180 C   0  0  0  0  0  0  0  0  0  0  0  0
   57.5650   31.2840   44.2170 C   0  0  0  0  0  0  0  0  0  0  0  0
   58.5350   30.4080   44.7330 C   0  0  0  0  0  0  0  0  0  0  0  0
   58.1740   29.1050   45.0820 C   0  0  0  0  0  0  0  0  0  0  0  0
   56.8870   28.6920   44.9410 N   0  0  0  0  0  0  0  0  0  0  0  0
   55.9220   29.5240   44.4700 C   0  0  0  0  0  0  0  0  0  0  0  0
   56.2400   30.8350   44.1110 C   0  0  0  0  0  0  0  0  0  0  0  0
   57.7740   33.0410   46.2920 C   0  0  0  0  0  0  0  0  0  0  0  0
   59.0770   32.7280   47.0480 C   0  0  0  0  0  0  0  0  0  0  0  0
   59.8625   33.7229   51.6475 H   0  0  0  0  0  0  0  0  0  0  0  0
   58.5563   33.5209   50.4311 H   0  0  0  0  0  0  0  0  0  0  0  0
   59.9640   32.4051   50.4311 H   0  0  0  0  0  0  0  0  0  0  0  0
   62.8668   34.0079   50.6297 H   0  0  0  0  0  0  0  0  0  0  0  0
   64.8361   33.4011   49.2241 H   0  0  0  0  0  0  0  0  0  0  0  0
   64.5592   33.0207   46.7763 H   0  0  0  0  0  0  0  0  0  0  0  0
   62.3070   33.2273   45.7263 H   0  0  0  0  0  0  0  0  0  0  0  0
   58.9052   35.6200   46.7772 H   0  0  0  0  0  0  0  0  0  0  0  0
   60.5572   35.6767   46.0817 H   0  0  0  0  0  0  0  0  0  0  0  0
   58.7059   35.5402   44.3599 H   0  0  0  0  0  0  0  0  0  0  0  0
   59.9229   34.1853   44.2864 H   0  0  0  0  0  0  0  0  0  0  0  0
   57.1935   33.0675   43.1053 H   0  0  0  0  0  0  0  0  0  0  0  0
   58.9516   32.6449   43.3796 H   0  0  0  0  0  0  0  0  0  0  0  0
   59.5736   30.7470   44.8614 H   0  0  0  0  0  0  0  0  0  0  0  0
   58.9332   28.4111   45.4720 H   0  0  0  0  0  0  0  0  0  0  0  0
   54.8874   29.1638   44.3712 H   0  0  0  0  0  0  0  0  0  0  0  0
   55.4547   31.5135   43.7464 H   0  0  0  0  0  0  0  0  0  0  0  0
   57.1808   33.7474   46.8912 H   0  0  0  0  0  0  0  0  0  0  0  0
   57.2427   32.0900   46.1390 H   0  0  0  0  0  0  0  0  0  0  0  0
   58.8400   32.5316   48.1040 H   0  0  0  0  0  0  0  0  0  0  0  0
   59.5446   31.8475   46.5832 H   0  0  0  0  0  0  0  0  0  0  0  0
  1  2  1  0
  2  3  1  0
  3  4  2  0
  4  5  1  0
  5  6  2  0
  6  7  1  0
  7  8  2  0
  8  9  1  0
  9 10  1  0
 10 11  1  0
 11 12  1  0
 12 13  1  0
 13 14  1  0
 14 15  2  0
 15 16  1  0
 16 17  2  0
 17 18  1  0
 18 19  2  0
 12 20  1  0
 20 21  1  0
  8  3  1  0
 21  9  1  0
 19 14  1  0
  1 22  1  0
  1 23  1  0
  1 24  1  0
  4 25  1  0
  5 26  1  0
  6 27  1  0
  7 28  1  0
 10 29  1  0
 10 30  1  0
 11 31  1  0
 11 32  1  0
 13 33  1  0
 13 34  1  0
 15 35  1  0
 16 36  1  0
 18 37  1  0
 19 38  1  0
 20 39  1  0
 20 40  1  0
 21 41  1  0
 21 42  1  0
M  END
>  <UniqueID>  (9) 
9

>  <SMILES>  (9) 
COc1ccccc1N1CCN(Cc2ccncc2)CC1

>  <Energy>  (9) 
57.648853230645024

>  <Genealogy>  (9) 
COc1ccccc1N1CCN(Cc2ccncc2)CC1 (3D coordinates assigned)
COc1ccccc1N1CCN(Cc2ccncc2)CC1 (nonaromatic ring conformer: 57.648853230645024 kcal/mol)

>  <smiles>  (9) 
COc1ccccc1N1CCN(Cc2ccncc2)CC1

>  <score_type>  (9) 
oracle

>  <origin>  (9) 
adg

>  <m_score__min__energy>  (9) 
-7.0199999999999996

>  <m_primary>  (9) 
energy

$$$$
9:0
     RDKit          3D

 40 42  0  0  1  0  0  0  0  0999 V2000
   59.5150   35.3910   47.0870 C   0  0  0  0  0  0  0  0  0  0  0  0
   59.7470   34.6350   45.9060 O   0  0  0  0  0  0  0  0  0  0  0  0
   58.9740   33.5230   45.6000 C   0  0  0  0  0  0  0  0  0  0  0  0
   58.4540   33.3060   44.3370 C   0  0  0  0  0  0  0  0  0  0  0  0
   57.6840   32.1920   44.0430 C   0  0  0  0  0  0  0  0  0  0  0  0
   57.4290   31.2730   45.0410 C   0  0  0  0  0  0  0  0  0  0  0  0
   56.6450   30.1070   44.8040 N   0  0  0  0  0  0  0  0  0  0  0  0
   57.0340   28.9380   45.1460 C   0  0  0  0  0  0  0  0  0  0  0  0
   58.3920   28.7740   45.3830 C   0  0  0  0  0  0  0  0  0  0  0  0
   58.8660   27.5290   45.7560 C   0  0  0  0  0  0  0  0  0  0  0  0
   60.3020   27.2730   46.0260 C   0  0  0  0  0  0  0  0  0  0  0  0
   57.9660   26.5420   45.8670 N   0  0  0  0  0  0  0  0  0  0  0  0
   56.6500   26.7240   45.6320 C   0  0  0  0  0  0  0  0  0  0  0  0
   55.7090   25.6140   45.7670 C   0  0  0  0  0  0  0  0  0  0  0  0
   56.0410   24.3150   46.0440 C   0  0  0  0  0  0  0  0  0  0  0  0
   54.8560   23.6030   46.0800 C   0  0  0  0  0  0  0  0  0  0  0  0
   53.8680   24.5350   45.8180 C   0  0  0  0  0  0  0  0  0  0  0  0
   54.3890   25.7240   45.6330 O   0  0  0  0  0  0  0  0  0  0  0  0
   56.1520   27.9250   45.2670 N   0  0  0  0  0  0  0  0  0  0  0  0
   57.9470   31.4850   46.3060 C   0  0  0  0  0  0  0  0  0  0  0  0
   58.7220   32.6070   46.6000 C   0  0  0  0  0  0  0  0  0  0  0  0
   59.2350   32.8210   47.8480 O   0  0  0  0  0  0  0  0  0  0  0  0
   60.4250   32.2690   48.3360 C   0  0  0  0  0  0  0  0  0  0  0  0
   59.7080   34.7622   47.9687 H   0  0  0  0  0  0  0  0  0  0  0  0
   60.1874   36.2614   47.1032 H   0  0  0  0  0  0  0  0  0  0  0  0
   58.4701   35.7344   47.1032 H   0  0  0  0  0  0  0  0  0  0  0  0
   58.6576   34.0391   43.5426 H   0  0  0  0  0  0  0  0  0  0  0  0
   57.2822   32.0423   43.0300 H   0  0  0  0  0  0  0  0  0  0  0  0
   59.0826   29.6235   45.2755 H   0  0  0  0  0  0  0  0  0  0  0  0
   60.4711   27.2429   47.1125 H   0  0  0  0  0  0  0  0  0  0  0  0
   60.5922   26.3090   45.5829 H   0  0  0  0  0  0  0  0  0  0  0  0
   60.9075   28.0774   45.5829 H   0  0  0  0  0  0  0  0  0  0  0  0
   57.0530   23.9155   46.2063 H   0  0  0  0  0  0  0  0  0  0  0  0
   54.7270   22.5281   46.2748 H   0  0  0  0  0  0  0  0  0  0  0  0
   52.7924   24.3095   45.7712 H   0  0  0  0  0  0  0  0  0  0  0  0
   55.1490   28.0960   45.0790 H   0  0  0  0  0  0  0  0  0  0  0  0
   57.7428   30.7510   47.0994 H   0  0  0  0  0  0  0  0  0  0  0  0
   60.4087   32.2766   49.4359 H   0  0  0  0  0  0  0  0  0  0  0  0
   60.5228   31.2336   47.9778 H   0  0  0  0  0  0  0  0  0  0  0  0
   61.2787   32.8631   47.9778 H   0  0  0  0  0  0  0  0  0  0  0  0
  1  2  1  0
  2  3  1  0
  3  4  2  0
  4  5  1  0
  5  6  2  0
  6  7  1  0
  7  8  2  0
  8  9  1  0
  9 10  2  0
 10 11  1  0
 10 12  1  0
 12 13  2  0
 13 14  1  0
 14 15  2  0
 15 16  1  0
 16 17  2  0
 17 18  1  0
 13 19  1  0
  6 20  1  0
 20 21  2  0
 21 22  1  0
 22 23  1  0
 21  3  1  0
 19  8  1  0
 18 14  1  0
  1 24  1  0
  1 25  1  0
  1 26  1  0
  4 27  1  0
  5 28  1  0
  9 29  1  0
 11 30  1  0
 11 31  1  0
 11 32  1  0
 15 33  1  0
 16 34  1  0
 17 35  1  0
 19 36  1  0
 20 37  1  0
 23 38  1  0
 23 39  1  0
 23 40  1  0
M  END
>  <smiles>  (10) 
COc1ccc(N=c2cc(C)nc(-c3ccco3)[nH]2)cc1OC

>  <score_type>  (10) 
oracle

>  <origin>  (10) 
adg

>  <m_score__min__energy>  (10) 
-7.2000000000000002

>  <m_primary>  (10) 
energy

$$$$
10:0
     RDKit          3D

 43 44  0  0  0  0  0  0  0  0999 V2000
   57.2090   32.5130   40.9460 C   0  0  0  0  0  0  0  0  0  0  0  0
   57.3580   31.9130   42.3130 C   0  0  0  0  0  0  0  0  0  0  0  0
   56.8580   30.6320   42.5800 C   0  0  0  0  0  0  0  0  0  0  0  0
   57.0200   30.0620   43.8450 C   0  0  0  0  0  0  0  0  0  0  0  0
   57.6940   30.7580   44.8610 C   0  0  0  0  0  0  0  0  0  0  0  0
   57.8140   30.1260   46.2220 C   0  0  0  0  0  0  0  0  0  0  0  0
   58.2560   32.0240   44.5760 C   0  0  0  0  0  0  0  0  0  0  0  0
   58.9950   32.7580   45.5620 N   0  0  0  0  0  0  0  0  0  0  0  0
   58.5910   34.0590   46.0120 C   0  0  0  0  0  0  0  0  0  0  0  0
   57.5410   34.5920   45.5610 O   0  0  0  0  0  0  0  0  0  0  0  0
   59.3780   34.7680   47.0750 C   0  0  0  0  0  0  0  0  0  0  0  0
   60.5100   33.9350   47.5400 N   0  0  0  0  0  0  0  0  0  0  0  0
   61.6290   33.9570   46.5610 C   0  0  0  0  0  0  0  0  0  0  0  0
   62.8640   33.1430   46.9930 C   0  0  0  0  0  0  0  0  0  0  0  0
   63.6810   33.8660   48.0750 C   0  0  0  0  0  0  0  0  0  0  0  0
   63.2490   33.5150   49.5040 C   0  0  0  0  0  0  0  0  0  0  0  0
   61.7540   33.1900   49.6310 C   0  0  0  0  0  0  0  0  0  0  0  0
   60.8750   34.2550   48.9430 C   0  0  0  0  0  0  0  0  0  0  0  0
   58.0660   32.5980   43.3110 C   0  0  0  0  0  0  0  0  0  0  0  0
   56.9448   33.5767   41.0393 H   0  0  0  0  0  0  0  0  0  0  0  0
   58.1581   32.4176   40.3982 H   0  0  0  0  0  0  0  0  0  0  0  0
   56.4148   31.9846   40.3982 H   0  0  0  0  0  0  0  0  0  0  0  0
   56.3355   30.0725   41.7901 H   0  0  0  0  0  0  0  0  0  0  0  0
   56.6159   29.0590   44.0468 H   0  0  0  0  0  0  0  0  0  0  0  0
   57.6683   30.8932   46.9967 H   0  0  0  0  0  0  0  0  0  0  0  0
   57.0483   29.3439   46.3319 H   0  0  0  0  0  0  0  0  0  0  0  0
   58.8131   29.6790   46.3319 H   0  0  0  0  0  0  0  0  0  0  0  0
   59.7200   32.2440   46.1120 H   0  0  0  0  0  0  0  0  0  0  0  0
   59.7695   35.7105   46.6646 H   0  0  0  0  0  0  0  0  0  0  0  0
   58.7142   34.9665   47.9294 H   0  0  0  0  0  0  0  0  0  0  0  0
   61.2619   33.5471   45.6086 H   0  0  0  0  0  0  0  0  0  0  0  0
   61.9548   35.0043   46.4777 H   0  0  0  0  0  0  0  0  0  0  0  0
   62.5290   32.1733   47.3898 H   0  0  0  0  0  0  0  0  0  0  0  0
   63.5091   33.0113   46.1118 H   0  0  0  0  0  0  0  0  0  0  0  0
   64.7393   33.5916   47.9538 H   0  0  0  0  0  0  0  0  0  0  0  0
   63.5120   34.9447   47.9415 H   0  0  0  0  0  0  0  0  0  0  0  0
   63.8250   32.6387   49.8362 H   0  0  0  0  0  0  0  0  0  0  0  0
   63.4407   34.4016   50.1263 H   0  0  0  0  0  0  0  0  0  0  0  0
   61.5611   32.2132   49.1634 H   0  0  0  0  0  0  0  0  0  0  0  0
   61.4975   33.1743   50.7006 H   0  0  0  0  0  0  0  0  0  0  0  0
   59.9472   34.3630   49.5239 H   0  0  0  0  0  0  0  0  0  0  0  0
   61.4699   35.1797   48.9098 H   0  0  0  0  0  0  0  0  0  0  0  0
   58.4767   33.5962   43.0991 H   0  0  0  0  0  0  0  0  0  0  0  0
  1  2  1  0
  2  3  2  0
  3  4  1  0
  4  5  2  0
  5  6  1  0
  5  7  1  0
  7  8  1  0
  8  9  1  0
  9 10  2  0
  9 11  1  0
 11 12  1  0
 12 13  1  0
 13 14  1  0
 14 15  1  0
 15 16  1  0
 16 17  1  0
 17 18  1  0
  7 19  2  0
 19  2  1  0
 18 12  1  0
  1 20  1  0
  1 21  1  0
  1 22  1  0
  3 23  1  0
  4 24  1  0
  6 25  1  0
  6 26  1  0
  6 27  1  0
  8 28  1  0
 11 29  1  0
 11 30  1  0
 13 31  1  0
 13 32  1  0
 14 33  1  0
 14 34  1  0
 15 35  1  0
 15 36  1  0
 16 37  1  0
 16 38  1  0
 17 39  1  0
 17 40  1  0
 18 41  1  0
 18 42  1  0
 19 43  1  0
M  END
>  <UniqueID>  (11) 
10

>  <SMILES>  (11) 
Cc1ccc(C)c(NC(=O)CN2CCCCCC2)c1

>  <Energy>  (11) 
53.25688644905355

>  <Genealogy>  (11) 
Cc1ccc(C)c(NC(=O)CN2CCCCCC2)c1 (3D coordinates assigned)
Cc1ccc(C)c(NC(=O)CN2CCCCCC2)c1 (nonaromatic ring conformer: 53.25688644905355 kcal/mol)

>  <smiles>  (11) 
Cc1ccc(C)c(NC(=O)CN2CCCCCC2)c1

>  <score_type>  (11) 
oracle

>  <origin>  (11) 
adg

>  <m_score__min__energy>  (11) 
-5.0899999999999999

>  <m_primary>  (11) 
energy

$$$$
11:0
     RDKit          3D

 39 41  0  0  0  0  0  0  0  0999 V2000
   59.5490   27.1580   45.3640 O   0  0  0  0  0  0  0  0  0  0  0  0
   58.4800   27.5890   44.8510 C   0  0  0  0  0  0  0  0  0  0  0  0
   57.6130   26.6850   44.1450 N   0  0  0  0  0  0  0  0  0  0  0  0
   57.6200   25.2590   44.3300 C   0  0  0  0  0  0  0  0  0  0  0  0
   57.0350   24.4330   43.3580 C   0  0  0  0  0  0  0  0  0  0  0  0
   57.0120   23.0450   43.5270 C   0  0  0  0  0  0  0  0  0  0  0  0
   57.5600   22.4710   44.6770 C   0  0  0  0  0  0  0  0  0  0  0  0
   57.5340   21.1260   44.8410 F   0  0  0  0  0  0  0  0  0  0  0  0
   58.1260   23.2850   45.6620 C   0  0  0  0  0  0  0  0  0  0  0  0
   58.1530   24.6740   45.4950 C   0  0  0  0  0  0  0  0  0  0  0  0
   58.1620   29.0340   44.9360 C   0  0  0  0  0  0  0  0  0  0  0  0
   59.0640   29.9440   45.5130 C   0  0  0  0  0  0  0  0  0  0  0  0
   58.7390   31.2980   45.5910 C   0  0  0  0  0  0  0  0  0  0  0  0
   57.5080   31.7370   45.1000 C   0  0  0  0  0  0  0  0  0  0  0  0
   57.0390   33.4620   45.2490 S   0  0  0  0  0  0  0  0  0  0  0  0
   58.7310   34.1100   44.9960 C   0  0  0  0  0  0  0  0  0  0  0  0
   59.5130   34.1080   46.2810 C   0  0  0  0  0  0  0  0  0  0  0  0
   58.8980   34.4960   47.4820 C   0  0  0  0  0  0  0  0  0  0  0  0
   59.6390   34.5490   48.6670 C   0  0  0  0  0  0  0  0  0  0  0  0
   60.9980   34.2250   48.6590 C   0  0  0  0  0  0  0  0  0  0  0  0
   61.6200   33.8430   47.4660 C   0  0  0  0  0  0  0  0  0  0  0  0
   63.4840   33.4310   47.4460 Br  0  0  0  0  0  0  0  0  0  0  0  0
   60.8790   33.7770   46.2810 C   0  0  0  0  0  0  0  0  0  0  0  0
   56.6520   30.8520   44.5250 N   0  0  0  0  0  0  0  0  0  0  0  0
   56.9500   29.5290   44.4260 C   0  0  0  0  0  0  0  0  0  0  0  0
   57.0260   27.0730   43.3720 H   0  0  0  0  0  0  0  0  0  0  0  0
   56.5913   24.8806   42.4565 H   0  0  0  0  0  0  0  0  0  0  0  0
   56.5621   22.4046   42.7540 H   0  0  0  0  0  0  0  0  0  0  0  0
   58.5511   22.8329   46.5703 H   0  0  0  0  0  0  0  0  0  0  0  0
   58.5922   25.3114   46.2766 H   0  0  0  0  0  0  0  0  0  0  0  0
   60.0284   29.5877   45.9040 H   0  0  0  0  0  0  0  0  0  0  0  0
   59.4463   32.0137   46.0354 H   0  0  0  0  0  0  0  0  0  0  0  0
   59.2501   33.4793   44.2593 H   0  0  0  0  0  0  0  0  0  0  0  0
   58.6563   35.1467   44.6358 H   0  0  0  0  0  0  0  0  0  0  0  0
   57.8300   34.7591   47.4910 H   0  0  0  0  0  0  0  0  0  0  0  0
   59.1510   34.8463   49.6069 H   0  0  0  0  0  0  0  0  0  0  0  0
   61.5793   34.2704   49.5918 H   0  0  0  0  0  0  0  0  0  0  0  0
   61.3673   33.4649   45.3460 H   0  0  0  0  0  0  0  0  0  0  0  0
   56.2383   28.8426   43.9440 H   0  0  0  0  0  0  0  0  0  0  0  0
  1  2  2  0
  2  3  1  0
  3  4  1  0
  4  5  2  0
  5  6  1  0
  6  7  2  0
  7  8  1  0
  7  9  1  0
  9 10  2  0
  2 11  1  0
 11 12  2  0
 12 13  1  0
 13 14  2  0
 14 15  1  0
 15 16  1  0
 16 17  1  0
 17 18  2  0
 18 19  1  0
 19 20  2  0
 20 21  1  0
 21 22  1  0
 21 23  2  0
 14 24  1  0
 24 25  2  0
 10  4  1  0
 25 11  1  0
 23 17  1  0
  3 26  1  0
  5 27  1  0
  6 28  1  0
  9 29  1  0
 10 30  1  0
 12 31  1  0
 13 32  1  0
 16 33  1  0
 16 34  1  0
 18 35  1  0
 19 36  1  0
 20 37  1  0
 23 38  1  0
 25 39  1  0
M  END
>  <UniqueID>  (12) 
11

>  <SMILES>  (12) 
O=C(Nc1ccc(F)cc1)c1ccc(SCc2cccc(Br)c2)nc1

>  <Energy>  (12) 
42.1589357376526

>  <Genealogy>  (12) 
O=C(Nc1ccc(F)cc1)c1ccc(SCc2cccc(Br)c2)nc1 (3D coordinates assigned)
O=C(Nc1ccc(F)cc1)c1ccc(SCc2cccc(Br)c2)nc1 (optimized conformer: 42.1589357376526 kcal/mol)

>  <smiles>  (12) 
O=C(Nc1ccc(F)cc1)c1ccc(SCc2cccc(Br)c2)nc1

>  <score_type>  (12) 
oracle

>  <origin>  (12) 
adg

>  <m_score__min__energy>  (12) 
-9.0399999999999991

>  <m_primary>  (12) 
energy

$$$$
12:0
     RDKit          3D

 84 89  0  0  0  0  0  0  0  0999 V2000
   56.8830   30.8530   52.1520 C   0  0  0  0  0  0  0  0  0  0  0  0
   56.9950   32.3590   52.3750 C   0  0  0  0  0  0  0  0  0  0  0  0
   58.1450   32.7270   53.3220 C   0  0  0  0  0  0  0  0  0  0  0  0
   59.3690   31.8870   53.0600 C   0  0  0  0  0  0  0  0  0  0  0  0
   59.5970   30.7310   53.7110 N   0  0  0  0  0  0  0  0  0  0  0  0
   60.6900   30.1970   53.1410 C   0  0  0  0  0  0  0  0  0  0  0  0
   61.2900   28.8950   53.5870 C   0  0  0  0  0  0  0  0  0  0  0  0
   60.8560   27.7600   52.6640 C   0  0  0  0  0  0  0  0  0  0  0  0
   61.1320   31.0500   52.1330 C   0  0  0  0  0  0  0  0  0  0  0  0
   62.2610   30.7980   51.2030 C   0  0  0  0  0  0  0  0  0  0  0  0
   62.4260   29.6460   50.7190 O   0  0  0  0  0  0  0  0  0  0  0  0
   63.0660   31.8680   50.7890 O   0  0  0  0  0  0  0  0  0  0  0  0
   63.1760   32.3960   49.4930 C   0  0  0  0  0  0  0  0  0  0  0  0
   62.8480   31.5600   48.4150 C   0  0  0  0  0  0  0  0  0  0  0  0
   62.9300   32.0330   47.1030 C   0  0  0  0  0  0  0  0  0  0  0  0
   63.3340   33.3460   46.8550 C   0  0  0  0  0  0  0  0  0  0  0  0
   63.6460   34.1910   47.9210 C   0  0  0  0  0  0  0  0  0  0  0  0
   63.5600   33.7250   49.2360 C   0  0  0  0  0  0  0  0  0  0  0  0
   60.2940   32.1210   52.0910 N   0  0  0  0  0  0  0  0  0  0  0  0
   60.4400   33.3480   51.2940 C   0  0  0  0  0  0  0  0  0  0  0  0
   59.8630   33.1610   49.9130 C   0  0  0  0  0  0  0  0  0  0  0  0
   58.8960   32.1720   49.6930 C   0  0  0  0  0  0  0  0  0  0  0  0
   58.4350   31.9040   48.4040 C   0  0  0  0  0  0  0  0  0  0  0  0
   58.9040   32.6440   47.3090 C   0  0  0  0  0  0  0  0  0  0  0  0
   58.5020   32.2560   45.9360 C   0  0  0  0  0  0  0  0  0  0  0  0
   57.9990   33.2480   45.0780 C   0  0  0  0  0  0  0  0  0  0  0  0
   57.7480   32.9660   43.7340 C   0  0  0  0  0  0  0  0  0  0  0  0
   58.0080   31.6950   43.2270 C   0  0  0  0  0  0  0  0  0  0  0  0
   58.4850   30.6890   44.0700 C   0  0  0  0  0  0  0  0  0  0  0  0
   58.7060   30.9480   45.4320 C   0  0  0  0  0  0  0  0  0  0  0  0
   59.0950   29.8260   46.3140 C   0  0  0  0  0  0  0  0  0  0  0  0
   60.2700   29.9380   47.0750 C   0  0  0  0  0  0  0  0  0  0  0  0
   60.6380   28.9280   47.9650 C   0  0  0  0  0  0  0  0  0  0  0  0
   59.8440   27.7880   48.0910 C   0  0  0  0  0  0  0  0  0  0  0  0
   58.7010   27.6400   47.3030 C   0  0  0  0  0  0  0  0  0  0  0  0
   58.3220   28.6420   46.3940 C   0  0  0  0  0  0  0  0  0  0  0  0
   56.9190   28.3500   45.3500 S   0  0  0  0  0  0  0  0  0  0  0  0
   56.1100   29.6040   45.1980 O   0  0  0  0  0  0  0  0  0  0  0  0
   57.3830   27.9400   43.9810 O   0  0  0  0  0  0  0  0  0  0  0  0
   55.9150   27.1000   46.0020 N   0  0  0  0  0  0  0  0  0  0  0  0
   56.3150   25.7310   45.9730 C   0  0  0  0  0  0  0  0  0  0  0  0
   55.5290   24.8520   46.4130 O   0  0  0  0  0  0  0  0  0  0  0  0
   57.6150   25.3730   45.4810 N   0  0  0  0  0  0  0  0  0  0  0  0
   57.9800   24.1750   45.1420 C   0  0  0  0  0  0  0  0  0  0  0  0
   59.0740   23.5480   45.6310 N   0  0  0  0  0  0  0  0  0  0  0  0
   59.2040   22.3020   45.1050 C   0  0  0  0  0  0  0  0  0  0  0  0
   58.2080   21.9340   44.2050 C   0  0  0  0  0  0  0  0  0  0  0  0
   57.1270   23.2150   44.0640 S   0  0  0  0  0  0  0  0  0  0  0  0
   59.8570   33.6530   47.5270 C   0  0  0  0  0  0  0  0  0  0  0  0
   60.3350   33.9120   48.8200 C   0  0  0  0  0  0  0  0  0  0  0  0
   56.8449   30.3402   53.1244 H   0  0  0  0  0  0  0  0  0  0  0  0
   55.9660   30.6334   51.5855 H   0  0  0  0  0  0  0  0  0  0  0  0
   57.7574   30.5002   51.5855 H   0  0  0  0  0  0  0  0  0  0  0  0
   57.1665   32.8479   51.4046 H   0  0  0  0  0  0  0  0  0  0  0  0
   56.0573   32.6997   52.8383 H   0  0  0  0  0  0  0  0  0  0  0  0
   58.4015   33.7868   53.1773 H   0  0  0  0  0  0  0  0  0  0  0  0
   57.8140   32.5407   54.3544 H   0  0  0  0  0  0  0  0  0  0  0  0
   59.0290   30.3200   54.4860 H   0  0  0  0  0  0  0  0  0  0  0  0
   62.3868   28.9770   53.5682 H   0  0  0  0  0  0  0  0  0  0  0  0
   60.9425   28.6752   54.6073 H   0  0  0  0  0  0  0  0  0  0  0  0
   60.5277   26.9013   53.2681 H   0  0  0  0  0  0  0  0  0  0  0  0
   60.0248   28.1010   52.0293 H   0  0  0  0  0  0  0  0  0  0  0  0
   61.7026   27.4595   52.0293 H   0  0  0  0  0  0  0  0  0  0  0  0
   62.5243   30.5258   48.6040 H   0  0  0  0  0  0  0  0  0  0  0  0
   62.6756   31.3693   46.2635 H   0  0  0  0  0  0  0  0  0  0  0  0
   63.4063   33.7141   45.8209 H   0  0  0  0  0  0  0  0  0  0  0  0
   63.9605   35.2268   47.7258 H   0  0  0  0  0  0  0  0  0  0  0  0
   63.7934   34.3996   50.0729 H   0  0  0  0  0  0  0  0  0  0  0  0
   59.9109   34.1704   51.7977 H   0  0  0  0  0  0  0  0  0  0  0  0
   61.5106   33.5824   51.2002 H   0  0  0  0  0  0  0  0  0  0  0  0
   58.4964   31.6014   50.5444 H   0  0  0  0  0  0  0  0  0  0  0  0
   57.6965   31.1045   48.2449 H   0  0  0  0  0  0  0  0  0  0  0  0
   57.8009   34.2569   45.4690 H   0  0  0  0  0  0  0  0  0  0  0  0
   57.3444   33.7485   43.0746 H   0  0  0  0  0  0  0  0  0  0  0  0
   57.8374   31.4834   42.1611 H   0  0  0  0  0  0  0  0  0  0  0  0
   58.6889   29.6871   43.6642 H   0  0  0  0  0  0  0  0  0  0  0  0
   60.9057   30.8294   46.9687 H   0  0  0  0  0  0  0  0  0  0  0  0
   61.5532   29.0308   48.5665 H   0  0  0  0  0  0  0  0  0  0  0  0
   60.1189   27.0044   48.8124 H   0  0  0  0  0  0  0  0  0  0  0  0
   58.0908   26.7294   47.3948 H   0  0  0  0  0  0  0  0  0  0  0  0
   60.0356   21.6329   45.3710 H   0  0  0  0  0  0  0  0  0  0  0  0
   58.1396   20.9714   43.6770 H   0  0  0  0  0  0  0  0  0  0  0  0
   60.2309   34.2439   46.6779 H   0  0  0  0  0  0  0  0  0  0  0  0
   61.0809   34.7044   48.9804 H   0  0  0  0  0  0  0  0  0  0  0  0
  1  2  1  0
  2  3  1  0
  3  4  1  0
  4  5  2  0
  5  6  1  0
  6  7  1  0
  7  8  1  0
  6  9  2  0
  9 10  1  0
 10 11  2  0
 10 12  1  0
 12 13  1  0
 13 14  2  0
 14 15  1  0
 15 16  2  0
 16 17  1  0
 17 18  2  0
  9 19  1  0
 19 20  1  0
 20 21  1  0
 21 22  2  0
 22 23  1  0
 23 24  2  0
 24 25  1  0
 25 26  2  0
 26 27  1  0
 27 28  2  0
 28 29  1  0
 29 30  2  0
 30 31  1  0
 31 32  2  0
 32 33  1  0
 33 34  2  0
 34 35  1  0
 35 36  2  0
 36 37  1  0
 37 38  2  0
 37 39  2  0
 37 40  1  0
 40 41  1  0
 41 42  2  0
 41 43  1  0
 43 44  2  3
 44 45  1  0
 45 46  1  0
 46 47  2  0
 47 48  1  0
 24 49  1  0
 49 50  2  0
 19  4  1  0
 50 21  1  0
 18 13  1  0
 30 25  1  0
 36 31  1  0
 48 44  1  0
  1 51  1  0
  1 52  1  0
  1 53  1  0
  2 54  1  0
  2 55  1  0
  3 56  1  0
  3 57  1  0
  5 58  1  0
  7 59  1  0
  7 60  1  0
  8 61  1  0
  8 62  1  0
  8 63  1  0
 14 64  1  0
 15 65  1  0
 16 66  1  0
 17 67  1  0
 18 68  1  0
 20 69  1  0
 20 70  1  0
 22 71  1  0
 23 72  1  0
 26 73  1  0
 27 74  1  0
 28 75  1  0
 29 76  1  0
 32 77  1  0
 33 78  1  0
 34 79  1  0
 35 80  1  0
 46 81  1  0
 47 82  1  0
 49 83  1  0
 50 84  1  0
M  CHG  3   5   1  40  -1  45  -1
M  END
>  <UniqueID>  (13) 
12

>  <SMILES>  (13) 
CCCc1[nH+]c(CC)c(C(=O)Oc2ccccc2)n1Cc1ccc(-c2ccccc2-c2ccccc2S(=O)(=O)[N-]C(=O)N=c2[n-]ccs2)cc1

>  <Energy>  (13) 
166.86079178864387

>  <Genealogy>  (13) 
CCCc1[nH+]c(CC)c(C(=O)Oc2ccccc2)n1Cc1ccc(-c2ccccc2-c2ccccc2S(=O)(=O)[N-]C(=O)N=c2[n-]ccs2)cc1 (protonated)
CCCc1[nH+]c(CC)c(C(=O)Oc2ccccc2)n1Cc1ccc(-c2ccccc2-c2ccccc2S(=O)(=O)[N-]C(=O)N=c2[n-]ccs2)cc1 (3D coordinates assigned)
CCCc1[nH+]c(CC)c(C(=O)Oc2ccccc2)n1Cc1ccc(-c2ccccc2-c2ccccc2S(=O)(=O)[N-]C(=O)N=c2[n-]ccs2)cc1 (optimized conformer: 166.86079178864387 kcal/mol)

>  <smiles>  (13) 
CCCc1nc(CC)c(C(=O)Oc2ccccc2)n1Cc1ccc(-c2ccccc2-c2ccccc2S(=O)(=O)NC(=O)N=c2[nH]ccs2)cc1

>  <score_type>  (13) 
oracle

>  <origin>  (13) 
adg

>  <m_score__min__energy>  (13) 
-12.31

>  <m_primary>  (13) 
energy

$$$$
13:0
     RDKit          3D

 47 49  0  0  0  0  0  0  0  0999 V2000
   58.9940   35.4810   44.8840 O   0  0  0  0  0  0  0  0  0  0  0  0
   59.3600   34.5870   45.6940 C   0  0  0  0  0  0  0  0  0  0  0  0
   59.9500   34.9840   47.0170 C   0  0  0  0  0  0  0  0  0  0  0  0
   60.4070   33.8050   47.7650 N   0  0  0  0  0  0  0  0  0  0  0  0
   59.7390   33.3860   48.9700 C   0  0  0  0  0  0  0  0  0  0  0  0
   58.7590   32.3780   48.9310 C   0  0  0  0  0  0  0  0  0  0  0  0
   58.1480   31.9430   50.1120 C   0  0  0  0  0  0  0  0  0  0  0  0
   58.5140   32.5030   51.3390 C   0  0  0  0  0  0  0  0  0  0  0  0
   59.4910   33.4990   51.3880 C   0  0  0  0  0  0  0  0  0  0  0  0
   60.1030   33.9390   50.2100 C   0  0  0  0  0  0  0  0  0  0  0  0
   61.7410   32.8780   47.1420 S   0  0  0  0  0  0  0  0  0  0  0  0
   62.4020   33.6430   46.0300 O   0  0  0  0  0  0  0  0  0  0  0  0
   61.2520   31.5620   46.6030 O   0  0  0  0  0  0  0  0  0  0  0  0
   62.8860   32.5530   48.4400 C   0  0  0  0  0  0  0  0  0  0  0  0
   62.6060   31.5450   49.3740 C   0  0  0  0  0  0  0  0  0  0  0  0
   63.4990   31.2900   50.4190 C   0  0  0  0  0  0  0  0  0  0  0  0
   64.6710   32.0400   50.5380 C   0  0  0  0  0  0  0  0  0  0  0  0
   64.9530   33.0490   49.6120 C   0  0  0  0  0  0  0  0  0  0  0  0
   64.0620   33.3080   48.5650 C   0  0  0  0  0  0  0  0  0  0  0  0
   59.2270   33.2020   45.3500 N   0  0  0  0  0  0  0  0  0  0  0  0
   58.4450   32.7740   44.1920 C   0  0  0  0  0  0  0  0  0  0  0  0
   57.8010   31.4420   44.4590 C   0  0  0  0  0  0  0  0  0  0  0  0
   58.2150   30.6540   45.5450 C   0  0  0  0  0  0  0  0  0  0  0  0
   57.5830   29.4360   45.8120 C   0  0  0  0  0  0  0  0  0  0  0  0
   56.5240   29.0040   45.0060 C   0  0  0  0  0  0  0  0  0  0  0  0
   55.9090   27.8250   45.2690 F   0  0  0  0  0  0  0  0  0  0  0  0
   56.0950   29.7930   43.9350 C   0  0  0  0  0  0  0  0  0  0  0  0
   56.7270   31.0100   43.6630 C   0  0  0  0  0  0  0  0  0  0  0  0
   60.8054   35.6534   46.8430 H   0  0  0  0  0  0  0  0  0  0  0  0
   59.1748   35.4946   47.6072 H   0  0  0  0  0  0  0  0  0  0  0  0
   58.4718   31.9299   47.9683 H   0  0  0  0  0  0  0  0  0  0  0  0
   57.3778   31.1585   50.0747 H   0  0  0  0  0  0  0  0  0  0  0  0
   58.0323   32.1590   52.2661 H   0  0  0  0  0  0  0  0  0  0  0  0
   59.7798   33.9382   52.3543 H   0  0  0  0  0  0  0  0  0  0  0  0
   60.8738   34.7225   50.2541 H   0  0  0  0  0  0  0  0  0  0  0  0
   61.6825   30.9542   49.2842 H   0  0  0  0  0  0  0  0  0  0  0  0
   63.2781   30.4972   51.1488 H   0  0  0  0  0  0  0  0  0  0  0  0
   65.3726   31.8369   51.3605 H   0  0  0  0  0  0  0  0  0  0  0  0
   65.8762   33.6396   49.7068 H   0  0  0  0  0  0  0  0  0  0  0  0
   64.2836   34.1043   47.8391 H   0  0  0  0  0  0  0  0  0  0  0  0
   59.6470   32.4840   45.9840 H   0  0  0  0  0  0  0  0  0  0  0  0
   57.6632   33.5201   43.9866 H   0  0  0  0  0  0  0  0  0  0  0  0
   59.1142   32.6797   43.3241 H   0  0  0  0  0  0  0  0  0  0  0  0
   59.0394   30.9963   46.1878 H   0  0  0  0  0  0  0  0  0  0  0  0
   57.9186   28.8165   46.6567 H   0  0  0  0  0  0  0  0  0  0  0  0
   55.2587   29.4558   43.3051 H   0  0  0  0  0  0  0  0  0  0  0  0
   56.3823   31.6312   42.8232 H   0  0  0  0  0  0  0  0  0  0  0  0
  1  2  2  0
  2  3  1  0
  3  4  1  0
  4  5  1  0
  5  6  2  0
  6  7  1  0
  7  8  2  0
  8  9  1  0
  9 10  2  0
  4 11  1  0
 11 12  2  0
 11 13  2  0
 11 14  1  0
 14 15  2  0
 15 16  1  0
 16 17  2  0
 17 18  1  0
 18 19  2  0
  2 20  1  0
 20 21  1  0
 21 22  1  0
 22 23  2  0
 23 24  1  0
 24 25  2  0
 25 26  1  0
 25 27  1  0
 27 28  2  0
 10  5  1  0
 19 14  1  0
 28 22  1  0
  3 29  1  0
  3 30  1  0
  6 31  1  0
  7 32  1  0
  8 33  1  0
  9 34  1  0
 10 35  1  0
 15 36  1  0
 16 37  1  0
 17 38  1  0
 18 39  1  0
 19 40  1  0
 20 41  1  0
 21 42  1  0
 21 43  1  0
 23 44  1  0
 24 45  1  0
 27 46  1  0
 28 47  1  0
M  END
>  <UniqueID>  (14) 
13

>  <SMILES>  (14) 
O=C(CN(c1ccccc1)S(=O)(=O)c1ccccc1)NCc1ccc(F)cc1

>  <Energy>  (14) 
49.644151140533346

>  <Genealogy>  (14) 
O=C(CN(c1ccccc1)S(=O)(=O)c1ccccc1)NCc1ccc(F)cc1 (3D coordinates assigned)
O=C(CN(c1ccccc1)S(=O)(=O)c1ccccc1)NCc1ccc(F)cc1 (optimized conformer: 49.644151140533346 kcal/mol)

>  <smiles>  (14) 
O=C(CN(c1ccccc1)S(=O)(=O)c1ccccc1)NCc1ccc(F)cc1

>  <score_type>  (14) 
oracle

>  <origin>  (14) 
adg

>  <m_score__min__energy>  (14) 
-9.1500000000000004

>  <m_primary>  (14) 
energy

$$$$
14:0
     RDKit          3D

 41 43  0  0  0  0  0  0  0  0999 V2000
   55.4370   29.9940   43.4150 O   0  0  0  0  0  0  0  0  0  0  0  0
   56.1860   29.8500   44.4170 C   0  0  0  0  0  0  0  0  0  0  0  0
   56.0160   28.6840   45.2370 N   0  0  0  0  0  0  0  0  0  0  0  0
   56.9970   27.6210   45.4580 C   0  0  0  0  0  0  0  0  0  0  0  0
   57.8740   27.9130   46.6810 C   0  0  0  0  0  0  0  0  0  0  0  0
   59.2410   27.3800   46.4740 N   0  0  0  0  0  0  0  0  0  0  0  0
   59.9080   27.9770   45.2930 C   0  0  0  0  0  0  0  0  0  0  0  0
   60.7290   29.2330   45.6550 C   0  0  0  0  0  0  0  0  0  0  0  0
   60.2290   29.8350   46.8290 O   0  0  0  0  0  0  0  0  0  0  0  0
   60.4660   28.9910   47.9440 C   0  0  0  0  0  0  0  0  0  0  0  0
   60.0810   27.5160   47.6780 C   0  0  0  0  0  0  0  0  0  0  0  0
   57.1770   30.8990   44.7130 C   0  0  0  0  0  0  0  0  0  0  0  0
   57.7770   31.1660   45.9290 C   0  0  0  0  0  0  0  0  0  0  0  0
   58.6550   32.2030   45.6500 C   0  0  0  0  0  0  0  0  0  0  0  0
   59.5650   32.8950   46.5920 C   0  0  0  0  0  0  0  0  0  0  0  0
   59.0270   33.6340   47.6600 C   0  0  0  0  0  0  0  0  0  0  0  0
   59.8700   34.2930   48.5600 C   0  0  0  0  0  0  0  0  0  0  0  0
   61.2560   34.2200   48.4050 C   0  0  0  0  0  0  0  0  0  0  0  0
   61.8030   33.4850   47.3500 C   0  0  0  0  0  0  0  0  0  0  0  0
   63.5450   33.3940   47.1580 Cl  0  0  0  0  0  0  0  0  0  0  0  0
   60.9630   32.8250   46.4450 C   0  0  0  0  0  0  0  0  0  0  0  0
   58.5660   32.4920   44.3690 O   0  0  0  0  0  0  0  0  0  0  0  0
   57.6980   31.7220   43.7860 N   0  0  0  0  0  0  0  0  0  0  0  0
   56.4654   26.6713   45.6176 H   0  0  0  0  0  0  0  0  0  0  0  0
   57.6472   27.5611   44.5727 H   0  0  0  0  0  0  0  0  0  0  0  0
   57.9285   29.0005   46.8368 H   0  0  0  0  0  0  0  0  0  0  0  0
   57.4308   27.4272   47.5628 H   0  0  0  0  0  0  0  0  0  0  0  0
   60.5828   27.2285   44.8522 H   0  0  0  0  0  0  0  0  0  0  0  0
   59.1249   28.2807   44.5827 H   0  0  0  0  0  0  0  0  0  0  0  0
   61.7782   28.9444   45.8160 H   0  0  0  0  0  0  0  0  0  0  0  0
   60.6539   29.9547   44.8282 H   0  0  0  0  0  0  0  0  0  0  0  0
   61.5361   29.0342   48.1952 H   0  0  0  0  0  0  0  0  0  0  0  0
   59.8356   29.3520   48.7700 H   0  0  0  0  0  0  0  0  0  0  0  0
   60.9998   26.9271   47.5400 H   0  0  0  0  0  0  0  0  0  0  0  0
   59.5047   27.1512   48.5410 H   0  0  0  0  0  0  0  0  0  0  0  0
   57.5993   30.6706   46.8949 H   0  0  0  0  0  0  0  0  0  0  0  0
   57.9362   33.6942   47.7884 H   0  0  0  0  0  0  0  0  0  0  0  0
   59.4405   34.8703   49.3921 H   0  0  0  0  0  0  0  0  0  0  0  0
   61.9169   34.7410   49.1133 H   0  0  0  0  0  0  0  0  0  0  0  0
   61.3978   32.2489   45.6149 H   0  0  0  0  0  0  0  0  0  0  0  0
   57.4560   31.7580   42.7710 H   0  0  0  0  0  0  0  0  0  0  0  0
  1  2  2  0
  2  3  1  0
  3  4  1  0
  4  5  1  0
  5  6  1  0
  6  7  1  0
  7  8  1  0
  8  9  1  0
  9 10  1  0
 10 11  1  0
  2 12  1  0
 12 13  1  0
 13 14  2  0
 14 15  1  0
 15 16  2  0
 16 17  1  0
 17 18  2  0
 18 19  1  0
 19 20  1  0
 19 21  2  0
 14 22  1  0
 22 23  1  0
 11  6  1  0
 23 12  2  0
 21 15  1  0
  4 24  1  0
  4 25  1  0
  5 26  1  0
  5 27  1  0
  7 28  1  0
  7 29  1  0
  8 30  1  0
  8 31  1  0
 10 32  1  0
 10 33  1  0
 11 34  1  0
 11 35  1  0
 13 36  1  0
 16 37  1  0
 17 38  1  0
 18 39  1  0
 21 40  1  0
 23 41  1  0
M  CHG  2   3  -1  23   1
M  END
>  <UniqueID>  (15) 
14

>  <SMILES>  (15) 
O=C([N-]CCN1CCOCC1)c1cc(-c2cccc(Cl)c2)o[nH+]1

>  <Energy>  (15) 
86.75711357136792

>  <Genealogy>  (15) 
O=C([N-]CCN1CCOCC1)c1cc(-c2cccc(Cl)c2)o[nH+]1 (protonated)
O=C([N-]CCN1CCOCC1)c1cc(-c2cccc(Cl)c2)o[nH+]1 (3D coordinates assigned)
O=C([N-]CCN1CCOCC1)c1cc(-c2cccc(Cl)c2)o[nH+]1 (nonaromatic ring conformer: 86.75711357136792 kcal/mol)

>  <smiles>  (15) 
O=C(NCCN1CCOCC1)c1cc(-c2cccc(Cl)c2)on1

>  <score_type>  (15) 
oracle

>  <origin>  (15) 
adg

>  <m_score__min__energy>  (15) 
-8.7100000000000009

>  <m_primary>  (15) 
energy

$$$$
15:0
     RDKit          3D

 27 28  0  0  0  0  0  0  0  0999 V2000
   57.7029   24.2033   46.7644 H   0  0  0  0  0  0  0  0  0  0  0  0
   57.3390   25.1910   46.4450 C   0  0  0  0  0  0  0  0  0  0  0  0
   58.2180   26.1630   46.0900 N   0  0  0  0  0  0  0  0  0  0  0  0
   57.7930   27.3860   45.6790 C   0  0  0  0  0  0  0  0  0  0  0  0
   58.5219   28.1608   45.3990 H   0  0  0  0  0  0  0  0  0  0  0  0
   56.4090   27.6550   45.6140 C   0  0  0  0  0  0  0  0  0  0  0  0
   55.9270   28.8090   45.2450 N   0  0  0  0  0  0  0  0  0  0  0  0
   56.5830   29.8220   44.4660 C   0  0  0  0  0  0  0  0  0  0  0  0
   56.3680   29.9270   43.0810 C   0  0  0  0  0  0  0  0  0  0  0  0
   55.7177   29.2017   42.5701 H   0  0  0  0  0  0  0  0  0  0  0  0
   56.9780   30.9500   42.3520 C   0  0  0  0  0  0  0  0  0  0  0  0
   56.8237   31.0161   41.2649 H   0  0  0  0  0  0  0  0  0  0  0  0
   57.7840   31.8900   43.0000 C   0  0  0  0  0  0  0  0  0  0  0  0
   58.2758   32.6835   42.4182 H   0  0  0  0  0  0  0  0  0  0  0  0
   57.9690   31.8260   44.3920 C   0  0  0  0  0  0  0  0  0  0  0  0
   58.8090   32.7890   45.0610 N   0  0  0  0  0  0  0  0  0  0  0  0
   59.4490   32.3050   45.7330 H   0  0  0  0  0  0  0  0  0  0  0  0
   59.3980   33.2990   44.3620 H   0  0  0  0  0  0  0  0  0  0  0  0
   57.9860   33.7550   45.7920 C   0  0  0  0  0  0  0  0  0  0  0  0
   58.1157   33.6028   46.8737 H   0  0  0  0  0  0  0  0  0  0  0  0
   58.2958   34.7763   45.5257 H   0  0  0  0  0  0  0  0  0  0  0  0
   56.9284   33.6114   45.5257 H   0  0  0  0  0  0  0  0  0  0  0  0
   57.3600   30.7870   45.1180 C   0  0  0  0  0  0  0  0  0  0  0  0
   57.4954   30.7320   46.2083 H   0  0  0  0  0  0  0  0  0  0  0  0
   55.5410   26.6780   45.9930 N   0  0  0  0  0  0  0  0  0  0  0  0
   55.9720   25.4560   46.4010 C   0  0  0  0  0  0  0  0  0  0  0  0
   55.2475   24.6820   46.6943 H   0  0  0  0  0  0  0  0  0  0  0  0
  1  2  1  0
  2  3  1  0
  3  4  2  0
  4  5  1  0
  4  6  1  0
  6  7  2  0
  7  8  1  0
  8  9  2  0
  9 10  1  0
  9 11  1  0
 11 12  1  0
 11 13  2  0
 13 14  1  0
 13 15  1  0
 15 16  1  0
 16 17  1  0
 16 18  1  0
 16 19  1  0
 19 20  1  0
 19 21  1  0
 19 22  1  0
 15 23  2  0
 23 24  1  0
  6 25  1  0
 25 26  1  0
 26 27  1  0
 26  2  2  0
 23  8  1  0
M  CHG  2  16   1  25  -1
M  END
>  <UniqueID>  (16) 
15

>  <SMILES>  (16) 
C[NH2+]c1cccc(/N=c2\cncc[n-]2)c1

>  <Energy>  (16) 
38.73768879012568

>  <Genealogy>  (16) 
C[NH2+]c1cccc(N=c2cncc[n-]2)c1 (protonated)
C[NH2+]c1cccc(/N=c2\cncc[n-]2)c1 (cis-trans isomerization)
C[NH2+]c1cccc(/N=c2\cncc[n-]2)c1 (3D coordinates assigned)
C[NH2+]c1cccc(/N=c2\cncc[n-]2)c1 (optimized conformer: 38.73768879012568 kcal/mol)

>  <smiles>  (16) 
CNc1cccc(N=c2cncc[nH]2)c1

>  <score_type>  (16) 
oracle

>  <origin>  (16) 
adg

>  <m_score__min__energy>  (16) 
-6.1799999999999997

>  <m_primary>  (16) 
energy

$$$$
16:0
     RDKit          3D

 35 37  0  0  0  0  0  0  0  0999 V2000
   55.2400   23.3420   46.7180 C   0  0  0  0  0  0  0  0  0  0  0  0
   56.4670   23.4650   47.3700 C   0  0  0  0  0  0  0  0  0  0  0  0
   57.1820   24.6610   47.2850 C   0  0  0  0  0  0  0  0  0  0  0  0
   56.6500   25.7300   46.5490 C   0  0  0  0  0  0  0  0  0  0  0  0
   57.4120   27.0150   46.4070 C   0  0  0  0  0  0  0  0  0  0  0  0
   56.8490   27.8350   45.3330 N   0  0  0  0  0  0  0  0  0  0  0  0
   57.0380   29.2600   45.2450 C   0  0  0  0  0  0  0  0  0  0  0  0
   56.1400   30.0310   44.4970 C   0  0  0  0  0  0  0  0  0  0  0  0
   56.3040   31.3750   44.3970 N   0  0  0  0  0  0  0  0  0  0  0  0
   57.3350   32.0270   44.9980 C   0  0  0  0  0  0  0  0  0  0  0  0
   58.2550   31.3010   45.7850 C   0  0  0  0  0  0  0  0  0  0  0  0
   58.1060   29.9110   45.8870 C   0  0  0  0  0  0  0  0  0  0  0  0
   59.4520   31.9660   46.4230 C   0  0  0  0  0  0  0  0  0  0  0  0
   59.2800   33.4840   46.5550 C   0  0  0  0  0  0  0  0  0  0  0  0
   58.7850   34.0830   45.2380 C   0  0  0  0  0  0  0  0  0  0  0  0
   57.4010   33.5290   44.8880 C   0  0  0  0  0  0  0  0  0  0  0  0
   55.4560   25.5800   45.9100 N   0  0  0  0  0  0  0  0  0  0  0  0
   54.7460   24.4210   45.9820 C   0  0  0  0  0  0  0  0  0  0  0  0
   54.6676   22.4049   46.7829 H   0  0  0  0  0  0  0  0  0  0  0  0
   56.8702   22.6216   47.9497 H   0  0  0  0  0  0  0  0  0  0  0  0
   58.1535   24.7641   47.7905 H   0  0  0  0  0  0  0  0  0  0  0  0
   57.3581   27.5731   47.3534 H   0  0  0  0  0  0  0  0  0  0  0  0
   58.4581   26.7802   46.1611 H   0  0  0  0  0  0  0  0  0  0  0  0
   56.2790   27.3690   44.5890 H   0  0  0  0  0  0  0  0  0  0  0  0
   55.2957   29.5444   43.9868 H   0  0  0  0  0  0  0  0  0  0  0  0
   58.8295   29.3256   46.4733 H   0  0  0  0  0  0  0  0  0  0  0  0
   59.5995   31.5392   47.4261 H   0  0  0  0  0  0  0  0  0  0  0  0
   60.3210   31.7835   45.7737 H   0  0  0  0  0  0  0  0  0  0  0  0
   58.5480   33.6979   47.3478 H   0  0  0  0  0  0  0  0  0  0  0  0
   60.2527   33.9319   46.8064 H   0  0  0  0  0  0  0  0  0  0  0  0
   58.7233   35.1768   45.3375 H   0  0  0  0  0  0  0  0  0  0  0  0
   59.4899   33.8162   44.4368 H   0  0  0  0  0  0  0  0  0  0  0  0
   56.6620   33.9658   45.5759 H   0  0  0  0  0  0  0  0  0  0  0  0
   57.1887   33.7969   43.8425 H   0  0  0  0  0  0  0  0  0  0  0  0
   53.7818   24.3342   45.4597 H   0  0  0  0  0  0  0  0  0  0  0  0
  1  2  2  0
  2  3  1  0
  3  4  2  0
  4  5  1  0
  5  6  1  0
  6  7  1  0
  7  8  2  0
  8  9  1  0
  9 10  2  0
 10 11  1  0
 11 12  2  0
 11 13  1  0
 13 14  1  0
 14 15  1  0
 15 16  1  0
  4 17  1  0
 17 18  2  0
 18  1  1  0
 12  7  1  0
 16 10  1  0
  1 19  1  0
  2 20  1  0
  3 21  1  0
  5 22  1  0
  5 23  1  0
  6 24  1  0
  8 25  1  0
 12 26  1  0
 13 27  1  0
 13 28  1  0
 14 29  1  0
 14 30  1  0
 15 31  1  0
 15 32  1  0
 16 33  1  0
 16 34  1  0
 18 35  1  0
M  END
>  <UniqueID>  (17) 
16

>  <SMILES>  (17) 
c1ccc(CNc2cnc3c(c2)CCCC3)nc1

>  <Energy>  (17) 
35.769776838834815

>  <Genealogy>  (17) 
c1ccc(CNc2cnc3c(c2)CCCC3)nc1 (3D coordinates assigned)
c1ccc(CNc2cnc3c(c2)CCCC3)nc1 (nonaromatic ring conformer: 35.769776838834815 kcal/mol)

>  <smiles>  (17) 
c1ccc(CNc2cnc3c(c2)CCCC3)nc1

>  <score_type>  (17) 
oracle

>  <origin>  (17) 
adg

>  <m_score__min__energy>  (17) 
-7.0599999999999996

>  <m_primary>  (17) 
energy

$$$$
17:0
     RDKit          3D

 32 33  0  0  0  0  0  0  0  0999 V2000
   54.5050   25.0900   45.6120 C   0  0  0  0  0  0  0  0  0  0  0  0
   55.0750   26.3300   46.0180 O   0  0  0  0  0  0  0  0  0  0  0  0
   56.3940   26.7270   45.7460 C   0  0  0  0  0  0  0  0  0  0  0  0
   57.4870   25.8590   45.9220 C   0  0  0  0  0  0  0  0  0  0  0  0
   58.7840   26.2990   45.6540 C   0  0  0  0  0  0  0  0  0  0  0  0
   59.0050   27.5980   45.1980 C   0  0  0  0  0  0  0  0  0  0  0  0
   57.9260   28.4720   44.9840 C   0  0  0  0  0  0  0  0  0  0  0  0
   58.1870   29.8900   44.5030 C   0  0  0  0  0  0  0  0  0  0  0  0
   57.5530   30.9620   45.3100 N   0  0  0  0  0  0  0  0  0  0  0  0
   57.2620   32.2040   44.5870 C   0  0  0  0  0  0  0  0  0  0  0  0
   57.0630   33.2760   45.6520 C   0  0  0  0  0  0  0  0  0  0  0  0
   57.7660   32.7410   46.8960 C   0  0  0  0  0  0  0  0  0  0  0  0
   58.3070   31.3720   46.4990 C   0  0  0  0  0  0  0  0  0  0  0  0
   56.6190   28.0330   45.2870 C   0  0  0  0  0  0  0  0  0  0  0  0
   55.5350   28.8950   45.1390 O   0  0  0  0  0  0  0  0  0  0  0  0
   54.2347   24.5020   46.5015 H   0  0  0  0  0  0  0  0  0  0  0  0
   53.6039   25.2801   45.0104 H   0  0  0  0  0  0  0  0  0  0  0  0
   55.2360   24.5299   45.0104 H   0  0  0  0  0  0  0  0  0  0  0  0
   57.3187   24.8299   46.2721 H   0  0  0  0  0  0  0  0  0  0  0  0
   59.6352   25.6184   45.8031 H   0  0  0  0  0  0  0  0  0  0  0  0
   60.0320   27.9411   45.0043 H   0  0  0  0  0  0  0  0  0  0  0  0
   59.2743   30.0567   44.5115 H   0  0  0  0  0  0  0  0  0  0  0  0
   57.7375   29.9582   43.5013 H   0  0  0  0  0  0  0  0  0  0  0  0
   56.6340   30.5790   45.6460 H   0  0  0  0  0  0  0  0  0  0  0  0
   58.1036   32.4697   43.9304 H   0  0  0  0  0  0  0  0  0  0  0  0
   56.3709   32.0993   43.9506 H   0  0  0  0  0  0  0  0  0  0  0  0
   57.5156   34.2261   45.3320 H   0  0  0  0  0  0  0  0  0  0  0  0
   55.9977   33.4781   45.8372 H   0  0  0  0  0  0  0  0  0  0  0  0
   58.5887   33.4092   47.1903 H   0  0  0  0  0  0  0  0  0  0  0  0
   57.0829   32.6770   47.7558 H   0  0  0  0  0  0  0  0  0  0  0  0
   59.3798   31.4392   46.2655 H   0  0  0  0  0  0  0  0  0  0  0  0
   58.1932   30.6442   47.3159 H   0  0  0  0  0  0  0  0  0  0  0  0
  1  2  1  0
  2  3  1  0
  3  4  2  0
  4  5  1  0
  5  6  2  0
  6  7  1  0
  7  8  1  0
  8  9  1  0
  9 10  1  0
 10 11  1  0
 11 12  1  0
 12 13  1  0
  7 14  2  0
 14 15  1  0
 14  3  1  0
 13  9  1  0
  1 16  1  0
  1 17  1  0
  1 18  1  0
  4 19  1  0
  5 20  1  0
  6 21  1  0
  8 22  1  0
  8 23  1  0
  9 24  1  0
 10 25  1  0
 10 26  1  0
 11 27  1  0
 11 28  1  0
 12 29  1  0
 12 30  1  0
 13 31  1  0
 13 32  1  0
M  CHG  2   9   1  15  -1
M  END
>  <UniqueID>  (18) 
17

>  <SMILES>  (18) 
COc1cccc(C[NH+]2CCCC2)c1[O-]

>  <Energy>  (18) 
38.90019606391644

>  <Genealogy>  (18) 
COc1cccc(C[NH+]2CCCC2)c1[O-] (protonated)
COc1cccc(C[NH+]2CCCC2)c1[O-] (3D coordinates assigned)
COc1cccc(C[NH+]2CCCC2)c1[O-] (nonaromatic ring conformer: 38.90019606391644 kcal/mol)

>  <smiles>  (18) 
COc1cccc(CN2CCCC2)c1O

>  <score_type>  (18) 
oracle

>  <origin>  (18) 
adg

>  <m_score__min__energy>  (18) 
-7.9699999999999998

>  <m_primary>  (18) 
energy

$$$$
18:0
     RDKit          3D

 25 26  0  0  0  0  0  0  0  0999 V2000
   57.3080   31.5540   53.8370 C   0  0  0  0  0  0  0  0  0  0  0  0
   56.7030   31.2260   52.8470 C   0  0  0  0  0  0  0  0  0  0  0  0
   55.9680   30.8280   51.6400 C   0  0  0  0  0  0  0  0  0  0  0  0
   54.5550   30.5490   51.9670 N   0  0  0  0  0  0  0  0  0  0  0  0
   53.6190   31.4410   51.5200 C   0  0  0  0  0  0  0  0  0  0  0  0
   52.2500   31.2630   51.7620 C   0  0  0  0  0  0  0  0  0  0  0  0
   51.2820   32.2640   51.2380 C   0  0  0  0  0  0  0  0  0  0  0  0
   50.6860   33.0600   52.0120 O   0  0  0  0  0  0  0  0  0  0  0  0
   51.0170   32.3400   49.8750 O   0  0  0  0  0  0  0  0  0  0  0  0
   51.8390   30.1360   52.4950 C   0  0  0  0  0  0  0  0  0  0  0  0
   50.6120   29.9410   52.7250 O   0  0  0  0  0  0  0  0  0  0  0  0
   52.7950   29.2250   52.9790 C   0  0  0  0  0  0  0  0  0  0  0  0
   52.4010   28.0980   53.7300 C   0  0  0  0  0  0  0  0  0  0  0  0
   53.3530   27.2060   54.2230 C   0  0  0  0  0  0  0  0  0  0  0  0
   52.8460   25.8100   55.1580 Cl  0  0  0  0  0  0  0  0  0  0  0  0
   54.7050   27.4260   53.9790 C   0  0  0  0  0  0  0  0  0  0  0  0
   55.1160   28.5340   53.2370 C   0  0  0  0  0  0  0  0  0  0  0  0
   54.1730   29.4510   52.7130 C   0  0  0  0  0  0  0  0  0  0  0  0
   57.8600   31.8532   54.7402 H   0  0  0  0  0  0  0  0  0  0  0  0
   56.0154   31.6420   50.9017 H   0  0  0  0  0  0  0  0  0  0  0  0
   56.4257   29.9168   51.2274 H   0  0  0  0  0  0  0  0  0  0  0  0
   53.9506   32.3240   50.9540 H   0  0  0  0  0  0  0  0  0  0  0  0
   51.3336   27.9211   53.9286 H   0  0  0  0  0  0  0  0  0  0  0  0
   55.4537   26.7230   54.3730 H   0  0  0  0  0  0  0  0  0  0  0  0
   56.1887   28.6975   53.0565 H   0  0  0  0  0  0  0  0  0  0  0  0
  1  2  3  0
  2  3  1  0
  3  4  1  0
  4  5  1  0
  5  6  2  0
  6  7  1  0
  7  8  2  0
  7  9  1  0
  6 10  1  0
 10 11  2  0
 10 12  1  0
 12 13  2  0
 13 14  1  0
 14 15  1  0
 14 16  2  0
 16 17  1  0
 17 18  2  0
 18  4  1  0
 18 12  1  0
  1 19  1  0
  3 20  1  0
  3 21  1  0
  5 22  1  0
 13 23  1  0
 16 24  1  0
 17 25  1  0
M  CHG  1   9  -1
M  END
>  <UniqueID>  (19) 
18

>  <SMILES>  (19) 
C#CCn1cc(C(=O)[O-])c(=O)c2cc(Cl)ccc21

>  <Energy>  (19) 
35.68118485175197

>  <Genealogy>  (19) 
C#CCn1cc(C(=O)[O-])c(=O)c2cc(Cl)ccc21 (protonated)
C#CCn1cc(C(=O)[O-])c(=O)c2cc(Cl)ccc21 (3D coordinates assigned)
C#CCn1cc(C(=O)[O-])c(=O)c2cc(Cl)ccc21 (optimized conformer: 35.68118485175197 kcal/mol)

>  <smiles>  (19) 
C#CCn1cc(C(=O)O)c(=O)c2cc(Cl)ccc21

>  <score_type>  (19) 
oracle

>  <origin>  (19) 
adg

>  <m_score__min__energy>  (19) 
-8.7200000000000006

>  <m_primary>  (19) 
energy

$$$$
19:0
     RDKit          3D

 42 45  0  0  0  0  0  0  0  0999 V2000
   55.1060   26.3960   45.9910 N   0  0  0  0  0  0  0  0  0  0  0  0
   56.4930   26.5620   45.7090 C   0  0  0  0  0  0  0  0  0  0  0  0
   57.2080   25.5450   45.5130 O   0  0  0  0  0  0  0  0  0  0  0  0
   57.0750   27.9180   45.6710 C   0  0  0  0  0  0  0  0  0  0  0  0
   56.8540   28.9790   44.3770 S   0  0  0  0  0  0  0  0  0  0  0  0
   57.6790   30.2480   45.0850 C   0  0  0  0  0  0  0  0  0  0  0  0
   57.8520   31.4700   44.5450 N   0  0  0  0  0  0  0  0  0  0  0  0
   58.5450   32.4410   45.2000 C   0  0  0  0  0  0  0  0  0  0  0  0
   59.1690   32.1400   46.4610 C   0  0  0  0  0  0  0  0  0  0  0  0
   58.9370   30.8500   47.0420 C   0  0  0  0  0  0  0  0  0  0  0  0
   59.5360   30.4980   48.3480 C   0  0  0  0  0  0  0  0  0  0  0  0
   60.8270   29.9490   48.4060 C   0  0  0  0  0  0  0  0  0  0  0  0
   61.4000   29.6340   49.6410 C   0  0  0  0  0  0  0  0  0  0  0  0
   60.6910   29.8720   50.8230 C   0  0  0  0  0  0  0  0  0  0  0  0
   59.4100   30.4290   50.7710 C   0  0  0  0  0  0  0  0  0  0  0  0
   58.8320   30.7450   49.5380 C   0  0  0  0  0  0  0  0  0  0  0  0
   58.1630   29.9040   46.3310 C   0  0  0  0  0  0  0  0  0  0  0  0
   57.8030   28.5740   46.6820 C   0  0  0  0  0  0  0  0  0  0  0  0
   58.1030   27.9610   47.9390 N   0  0  0  0  0  0  0  0  0  0  0  0
   59.9960   33.1640   47.2440 C   0  0  0  0  0  0  0  0  0  0  0  0
   60.7960   34.1510   46.3870 C   0  0  0  0  0  0  0  0  0  0  0  0
   59.9650   35.3610   45.9510 C   0  0  0  0  0  0  0  0  0  0  0  0
   58.5880   34.9870   45.3910 C   0  0  0  0  0  0  0  0  0  0  0  0
   58.6540   33.7640   44.4710 C   0  0  0  0  0  0  0  0  0  0  0  0
   54.6010   27.0640   46.6140 H   0  0  0  0  0  0  0  0  0  0  0  0
   61.3883   29.7665   47.4777 H   0  0  0  0  0  0  0  0  0  0  0  0
   62.4093   29.1986   49.6836 H   0  0  0  0  0  0  0  0  0  0  0  0
   61.1419   29.6206   51.7943 H   0  0  0  0  0  0  0  0  0  0  0  0
   58.8557   30.6190   51.7020 H   0  0  0  0  0  0  0  0  0  0  0  0
   57.8255   31.1872   49.4998 H   0  0  0  0  0  0  0  0  0  0  0  0
   58.1640   28.5260   48.8120 H   0  0  0  0  0  0  0  0  0  0  0  0
   58.1660   26.9240   48.0290 H   0  0  0  0  0  0  0  0  0  0  0  0
   59.3084   33.7435   47.8776 H   0  0  0  0  0  0  0  0  0  0  0  0
   60.7374   32.5850   47.8141 H   0  0  0  0  0  0  0  0  0  0  0  0
   61.6572   34.5073   46.9714 H   0  0  0  0  0  0  0  0  0  0  0  0
   61.1141   33.6204   45.4775 H   0  0  0  0  0  0  0  0  0  0  0  0
   59.8202   36.0163   46.8226 H   0  0  0  0  0  0  0  0  0  0  0  0
   60.5189   35.8595   45.1419 H   0  0  0  0  0  0  0  0  0  0  0  0
   57.9124   34.7640   46.2299 H   0  0  0  0  0  0  0  0  0  0  0  0
   58.2204   35.8377   44.7984 H   0  0  0  0  0  0  0  0  0  0  0  0
   57.8280   33.8299   43.7475 H   0  0  0  0  0  0  0  0  0  0  0  0
   59.6417   33.7814   43.9871 H   0  0  0  0  0  0  0  0  0  0  0  0
  1  2  1  0
  2  3  2  0
  2  4  1  0
  4  5  1  0
  5  6  1  0
  6  7  2  0
  7  8  1  0
  8  9  2  0
  9 10  1  0
 10 11  1  0
 11 12  2  0
 12 13  1  0
 13 14  2  0
 14 15  1  0
 15 16  2  0
 10 17  2  0
 17 18  1  0
 18 19  1  0
  9 20  1  0
 20 21  1  0
 21 22  1  0
 22 23  1  0
 23 24  1  0
 18  4  2  0
 17  6  1  0
 24  8  1  0
 16 11  1  0
  1 25  1  0
 12 26  1  0
 13 27  1  0
 14 28  1  0
 15 29  1  0
 16 30  1  0
 19 31  1  0
 19 32  1  0
 20 33  1  0
 20 34  1  0
 21 35  1  0
 21 36  1  0
 22 37  1  0
 22 38  1  0
 23 39  1  0
 23 40  1  0
 24 41  1  0
 24 42  1  0
M  CHG  1   1  -1
M  END
>  <UniqueID>  (20) 
19

>  <SMILES>  (20) 
[NH-]C(=O)c1sc2nc3c(c(-c4ccccc4)c2c1N)CCCCC3

>  <Energy>  (20) 
99.5862172284228

>  <Genealogy>  (20) 
[NH-]C(=O)c1sc2nc3c(c(-c4ccccc4)c2c1N)CCCCC3 (protonated)
[NH-]C(=O)c1sc2nc3c(c(-c4ccccc4)c2c1N)CCCCC3 (3D coordinates assigned)
[NH-]C(=O)c1sc2nc3c(c(-c4ccccc4)c2c1N)CCCCC3 (nonaromatic ring conformer: 99.5862172284228 kcal/mol)

>  <smiles>  (20) 
NC(=O)c1sc2nc3c(c(-c4ccccc4)c2c1N)CCCCC3

>  <score_type>  (20) 
oracle

>  <origin>  (20) 
adg

>  <m_score__min__energy>  (20) 
-8.8599999999999994

>  <m_primary>  (20) 
energy

$$$$
20:0
     RDKit          3D

 51 54  0  0  0  0  0  0  0  0999 V2000
   63.0370   31.9690   48.5740 C   0  0  0  0  0  0  0  0  0  0  0  0
   61.6280   31.8750   48.7520 O   0  0  0  0  0  0  0  0  0  0  0  0
   60.7000   31.7720   47.7020 C   0  0  0  0  0  0  0  0  0  0  0  0
   60.2350   32.9090   47.0020 C   0  0  0  0  0  0  0  0  0  0  0  0
   59.3140   32.7290   45.9730 C   0  0  0  0  0  0  0  0  0  0  0  0
   58.8490   31.4870   45.6280 C   0  0  0  0  0  0  0  0  0  0  0  0
   59.2930   30.3470   46.2960 C   0  0  0  0  0  0  0  0  0  0  0  0
   60.2260   30.4870   47.3500 C   0  0  0  0  0  0  0  0  0  0  0  0
   60.7060   29.3800   48.0670 O   0  0  0  0  0  0  0  0  0  0  0  0
   59.9620   28.1890   48.3010 C   0  0  0  0  0  0  0  0  0  0  0  0
   57.8670   31.5540   44.4950 C   0  0  1  0  0  0  0  0  0  0  0  0
   56.5770   30.9750   44.8720 N   0  0  0  0  0  0  0  0  0  0  0  0
   56.1600   29.6280   44.6110 C   0  0  0  0  0  0  0  0  0  0  0  0
   54.9640   29.3740   44.3030 O   0  0  0  0  0  0  0  0  0  0  0  0
   57.1310   28.5320   44.7070 C   0  0  0  0  0  0  0  0  0  0  0  0
   57.2740   27.6620   45.7680 C   0  0  0  0  0  0  0  0  0  0  0  0
   58.2970   26.8320   45.3640 C   0  0  0  0  0  0  0  0  0  0  0  0
   58.8640   25.6790   46.1290 C   0  0  0  0  0  0  0  0  0  0  0  0
   58.2590   24.4140   45.6610 N   0  0  0  0  0  0  0  0  0  0  0  0
   57.6670   23.6430   46.7710 C   0  0  0  0  0  0  0  0  0  0  0  0
   56.3760   24.3040   47.3080 C   0  0  0  0  0  0  0  0  0  0  0  0
   55.8260   25.2610   46.4200 O   0  0  0  0  0  0  0  0  0  0  0  0
   55.8280   24.7570   45.1020 C   0  0  0  0  0  0  0  0  0  0  0  0
   57.2710   24.6250   44.5750 C   0  0  0  0  0  0  0  0  0  0  0  0
   58.7020   27.2020   44.1710 O   0  0  0  0  0  0  0  0  0  0  0  0
   58.0210   28.2260   43.7420 N   0  0  0  0  0  0  0  0  0  0  0  0
   57.7540   33.0670   44.1610 C   0  0  0  0  0  0  0  0  0  0  0  0
   58.6910   33.7180   45.1270 C   0  0  0  0  0  0  0  0  0  0  0  0
   58.9030   34.9570   45.1910 O   0  0  0  0  0  0  0  0  0  0  0  0
   63.5294   32.0018   49.5571 H   0  0  0  0  0  0  0  0  0  0  0  0
   63.3951   31.0927   48.0137 H   0  0  0  0  0  0  0  0  0  0  0  0
   63.2755   32.8851   48.0137 H   0  0  0  0  0  0  0  0  0  0  0  0
   60.5934   33.9152   47.2648 H   0  0  0  0  0  0  0  0  0  0  0  0
   58.9229   29.3521   46.0075 H   0  0  0  0  0  0  0  0  0  0  0  0
   59.8607   28.0268   49.3843 H   0  0  0  0  0  0  0  0  0  0  0  0
   58.9635   28.2858   47.8498 H   0  0  0  0  0  0  0  0  0  0  0  0
   60.4870   27.3341   47.8498 H   0  0  0  0  0  0  0  0  0  0  0  0
   58.1952   30.9702   43.6224 H   0  0  0  0  0  0  0  0  0  0  0  0
   56.7073   27.6369   46.7105 H   0  0  0  0  0  0  0  0  0  0  0  0
   59.9526   25.6405   45.9758 H   0  0  0  0  0  0  0  0  0  0  0  0
   58.6416   25.8113   47.1981 H   0  0  0  0  0  0  0  0  0  0  0  0
   57.4260   22.6314   46.4125 H   0  0  0  0  0  0  0  0  0  0  0  0
   58.3992   23.6090   47.5912 H   0  0  0  0  0  0  0  0  0  0  0  0
   55.6269   23.5173   47.4813 H   0  0  0  0  0  0  0  0  0  0  0  0
   56.6421   24.8339   48.2345 H   0  0  0  0  0  0  0  0  0  0  0  0
   55.3474   23.7676   45.0923 H   0  0  0  0  0  0  0  0  0  0  0  0
   55.2758   25.4539   44.4544 H   0  0  0  0  0  0  0  0  0  0  0  0
   57.3172   23.7689   43.8858 H   0  0  0  0  0  0  0  0  0  0  0  0
   57.5282   25.5677   44.0698 H   0  0  0  0  0  0  0  0  0  0  0  0
   58.0625   33.2631   43.1235 H   0  0  0  0  0  0  0  0  0  0  0  0
   56.7247   33.4453   44.2471 H   0  0  0  0  0  0  0  0  0  0  0  0
  1  2  1  0
  2  3  1  0
  3  4  2  0
  4  5  1  0
  5  6  2  0
  6  7  1  0
  7  8  2  0
  8  9  1  0
  9 10  1  0
  6 11  1  0
 11 12  1  0
 12 13  1  0
 13 14  2  0
 13 15  1  0
 15 16  1  0
 16 17  2  0
 17 18  1  0
 18 19  1  0
 19 20  1  0
 20 21  1  0
 21 22  1  0
 22 23  1  0
 23 24  1  0
 17 25  1  0
 25 26  1  0
 11 27  1  0
 27 28  1  0
 28 29  2  0
  8  3  1  0
 26 15  2  0
 28  5  1  0
 24 19  1  0
  1 30  1  0
  1 31  1  0
  1 32  1  0
  4 33  1  0
  7 34  1  0
 10 35  1  0
 10 36  1  0
 10 37  1  0
 11 38  1  6
 16 39  1  0
 18 40  1  0
 18 41  1  0
 20 42  1  0
 20 43  1  0
 21 44  1  0
 21 45  1  0
 23 46  1  0
 23 47  1  0
 24 48  1  0
 24 49  1  0
 27 50  1  0
 27 51  1  0
M  CHG  1  12  -1
M  END
>  <UniqueID>  (21) 
20

>  <SMILES>  (21) 
COc1cc2c(cc1OC)[C@@H]([N-]C(=O)c1cc(CN3CCOCC3)on1)CC2=O

>  <Energy>  (21) 
105.50002216144766

>  <Genealogy>  (21) 
COc1cc2c(cc1OC)C([N-]C(=O)c1cc(CN3CCOCC3)on1)CC2=O (protonated)
COc1cc2c(cc1OC)[C@@H]([N-]C(=O)c1cc(CN3CCOCC3)on1)CC2=O (chirality)
COc1cc2c(cc1OC)[C@@H]([N-]C(=O)c1cc(CN3CCOCC3)on1)CC2=O (3D coordinates assigned)
COc1cc2c(cc1OC)[C@@H]([N-]C(=O)c1cc(CN3CCOCC3)on1)CC2=O (nonaromatic ring conformer: 105.50002216144766 kcal/mol)

>  <smiles>  (21) 
COc1cc2c(cc1OC)C(NC(=O)c1cc(CN3CCOCC3)on1)CC2=O

>  <score_type>  (21) 
oracle

>  <origin>  (21) 
adg

>  <m_score__min__energy>  (21) 
-9.4600000000000009

>  <m_primary>  (21) 
energy

$$$$
21:0
     RDKit          3D

 11 11  0  0  0  0  0  0  0  0999 V2000
   55.5610   26.3310   46.3670 O   0  0  0  0  0  0  0  0  0  0  0  0
   56.3160   27.0110   45.6220 C   0  0  0  0  0  0  0  0  0  0  0  0
   55.9420   28.2620   45.2480 N   0  0  0  0  0  0  0  0  0  0  0  0
   56.7340   29.0200   44.4460 C   0  0  0  0  0  0  0  0  0  0  0  0
   56.2460   30.5230   44.0190 S   0  0  0  0  0  0  0  0  0  0  0  0
   57.9240   28.5300   44.0010 N   0  0  0  0  0  0  0  0  0  0  0  0
   58.3340   27.2810   44.3530 C   0  0  0  0  0  0  0  0  0  0  0  0
   57.5340   26.4880   45.1770 C   0  0  0  0  0  0  0  0  0  0  0  0
   58.0620   24.8750   45.6320 Cl  0  0  0  0  0  0  0  0  0  0  0  0
   58.5370   29.1090   43.3840 H   0  0  0  0  0  0  0  0  0  0  0  0
   59.2974   26.8959   43.9875 H   0  0  0  0  0  0  0  0  0  0  0  0
  1  2  2  0
  2  3  1  0
  3  4  1  0
  4  5  2  0
  4  6  1  0
  6  7  1  0
  7  8  2  0
  8  9  1  0
  8  2  1  0
  6 10  1  0
  7 11  1  0
M  CHG  1   3  -1
M  END
>  <UniqueID>  (22) 
21

>  <SMILES>  (22) 
O=c1[n-]c(=S)[nH]cc1Cl

>  <Energy>  (22) 
10.822045114008308

>  <Genealogy>  (22) 
O=c1[n-]c(=S)[nH]cc1Cl (protonated)
O=c1[n-]c(=S)[nH]cc1Cl (3D coordinates assigned)
O=c1[n-]c(=S)[nH]cc1Cl (optimized conformer: 10.822045114008308 kcal/mol)

>  <smiles>  (22) 
O=c1[nH]c(=S)[nH]cc1Cl

>  <score_type>  (22) 
oracle

>  <origin>  (22) 
adg

>  <m_score__min__energy>  (22) 
-6.4199999999999999

>  <m_primary>  (22) 
energy

$$$$
22:0
     RDKit          3D

 51 55  0  0  0  0  0  0  0  0999 V2000
   54.5579   24.0036   44.4306 H   0  0  0  0  0  0  0  0  0  0  0  0
   55.4180   24.4430   44.9570 C   0  0  0  0  0  0  0  0  0  0  0  0
   55.2150   25.2900   46.0000 N   0  0  0  0  0  0  0  0  0  0  0  0
   56.2530   25.8430   46.6850 C   0  0  0  0  0  0  0  0  0  0  0  0
   56.0548   26.5379   47.5144 H   0  0  0  0  0  0  0  0  0  0  0  0
   57.5710   25.5300   46.3370 C   0  0  0  0  0  0  0  0  0  0  0  0
   58.6560   26.1700   47.0290 N   0  0  0  0  0  0  0  0  0  0  0  0
   58.9720   27.4390   47.0310 C   0  0  0  0  0  0  0  0  0  0  0  0
   58.2310   28.3870   46.2960 C   0  0  0  0  0  0  0  0  0  0  0  0
   57.3633   28.0570   45.7059 H   0  0  0  0  0  0  0  0  0  0  0  0
   58.5820   29.7380   46.3060 C   0  0  0  0  0  0  0  0  0  0  0  0
   57.8650   30.6510   45.6030 N   0  0  0  0  0  0  0  0  0  0  0  0
   57.0360   30.3340   45.0480 H   0  0  0  0  0  0  0  0  0  0  0  0
   58.2040   31.9680   45.6110 C   0  0  0  0  0  0  0  0  0  0  0  0
   57.4360   32.8850   44.8740 C   0  0  0  0  0  0  0  0  0  0  0  0
   56.5696   32.5308   44.2962 H   0  0  0  0  0  0  0  0  0  0  0  0
   57.7630   34.2400   44.8690 C   0  0  0  0  0  0  0  0  0  0  0  0
   57.1552   34.9494   44.2883 H   0  0  0  0  0  0  0  0  0  0  0  0
   58.8580   34.6970   45.5980 C   0  0  0  0  0  0  0  0  0  0  0  0
   59.1123   35.7672   45.5913 H   0  0  0  0  0  0  0  0  0  0  0  0
   59.6340   33.8030   46.3370 C   0  0  0  0  0  0  0  0  0  0  0  0
   60.4956   34.1772   46.9094 H   0  0  0  0  0  0  0  0  0  0  0  0
   59.3270   32.4190   46.3600 C   0  0  0  0  0  0  0  0  0  0  0  0
   60.0840   31.5200   47.0830 N   0  0  0  0  0  0  0  0  0  0  0  0
   61.2240   31.9770   47.8400 C   0  0  0  0  0  0  0  0  0  0  0  0
   61.0570   32.4410   49.1520 C   0  0  0  0  0  0  0  0  0  0  0  0
   60.0557   32.4519   49.6073 H   0  0  0  0  0  0  0  0  0  0  0  0
   62.1610   32.8900   49.8830 C   0  0  0  0  0  0  0  0  0  0  0  0
   62.0276   33.2407   50.9170 H   0  0  0  0  0  0  0  0  0  0  0  0
   63.4400   32.8950   49.3020 C   0  0  0  0  0  0  0  0  0  0  0  0
   64.6290   33.3410   50.0990 C   0  0  0  0  0  0  0  0  0  0  0  0
   64.4036   33.2564   51.1723 H   0  0  0  0  0  0  0  0  0  0  0  0
   65.4933   32.7060   49.8547 H   0  0  0  0  0  0  0  0  0  0  0  0
   64.8624   34.3878   49.8547 H   0  0  0  0  0  0  0  0  0  0  0  0
   63.6050   32.4130   47.9940 C   0  0  0  0  0  0  0  0  0  0  0  0
   64.6073   32.3893   47.5415 H   0  0  0  0  0  0  0  0  0  0  0  0
   62.5010   31.9630   47.2640 C   0  0  0  0  0  0  0  0  0  0  0  0
   62.6352   31.5972   46.2353 H   0  0  0  0  0  0  0  0  0  0  0  0
   59.7540   30.1850   47.0830 C   0  0  0  0  0  0  0  0  0  0  0  0
   60.4890   29.2110   47.7850 C   0  0  0  0  0  0  0  0  0  0  0  0
   61.3731   29.5160   48.3642 H   0  0  0  0  0  0  0  0  0  0  0  0
   60.1130   27.8490   47.7600 C   0  0  0  0  0  0  0  0  0  0  0  0
   60.7970   26.9440   48.4100 N   0  0  0  0  0  0  0  0  0  0  0  0
   60.7940   26.7130   49.8520 C   0  0  0  0  0  0  0  0  0  0  0  0
   60.8066   27.6789   50.3781 H   0  0  0  0  0  0  0  0  0  0  0  0
   59.8885   26.1547   50.1320 H   0  0  0  0  0  0  0  0  0  0  0  0
   61.6847   26.1314   50.1320 H   0  0  0  0  0  0  0  0  0  0  0  0
   57.7990   24.6870   45.2380 C   0  0  0  0  0  0  0  0  0  0  0  0
   58.8276   24.4656   44.9171 H   0  0  0  0  0  0  0  0  0  0  0  0
   56.7170   24.1300   44.5530 C   0  0  0  0  0  0  0  0  0  0  0  0
   56.8866   23.4516   43.7039 H   0  0  0  0  0  0  0  0  0  0  0  0
  1  2  1  0
  2  3  2  0
  3  4  1  0
  4  5  1  0
  4  6  2  0
  6  7  1  0
  7  8  2  0
  8  9  1  0
  9 10  1  0
  9 11  2  0
 11 12  1  0
 12 13  1  0
 12 14  1  0
 14 15  2  0
 15 16  1  0
 15 17  1  0
 17 18  1  0
 17 19  2  0
 19 20  1  0
 19 21  1  0
 21 22  1  0
 21 23  2  0
 23 24  1  0
 24 25  1  0
 25 26  2  0
 26 27  1  0
 26 28  1  0
 28 29  1  0
 28 30  2  0
 30 31  1  0
 31 32  1  0
 31 33  1  0
 31 34  1  0
 30 35  1  0
 35 36  1  0
 35 37  2  0
 37 38  1  0
 24 39  1  0
 39 40  2  0
 40 41  1  0
 40 42  1  0
 42 43  2  0
 43 44  1  0
 44 45  1  0
 44 46  1  0
 44 47  1  0
  6 48  1  0
 48 49  1  0
 48 50  2  0
 50 51  1  0
 50  2  1  0
 42  8  1  0
 39 11  1  0
 23 14  1  0
 37 25  1  0
M  END
>  <UniqueID>  (23) 
22

>  <SMILES>  (23) 
C/N=c1\cc2n(-c3ccc(C)cc3)c3ccccc3[nH]c-2c\c1=N/c1cccnc1

>  <Energy>  (23) 
88.13415360804682

>  <Genealogy>  (23) 
C/N=c1\cc2n(-c3ccc(C)cc3)c3ccccc3[nH]c-2c\c1=N/c1cccnc1 (cis-trans isomerization)
C/N=c1\cc2n(-c3ccc(C)cc3)c3ccccc3[nH]c-2c\c1=N/c1cccnc1 (3D coordinates assigned)
C/N=c1\cc2n(-c3ccc(C)cc3)c3ccccc3[nH]c-2c\c1=N/c1cccnc1 (optimized conformer: 88.13415360804682 kcal/mol)

>  <smiles>  (23) 
CN=c1cc2n(-c3ccc(C)cc3)c3ccccc3[nH]c-2cc1=Nc1cccnc1

>  <score_type>  (23) 
oracle

>  <origin>  (23) 
adg

>  <m_score__min__energy>  (23) 
-8.5600000000000005

>  <m_primary>  (23) 
energy

$$$$
23:0
     RDKit          3D

 48 53  0  0  0  0  0  0  0  0999 V2000
   59.0510   28.4240   47.6400 O   0  0  0  0  0  0  0  0  0  0  0  0
   59.6840   29.7250   47.2320 S   0  0  0  0  0  0  0  0  0  0  0  0
   61.1250   29.4680   46.8910 O   0  0  0  0  0  0  0  0  0  0  0  0
   58.8890   30.3910   45.8080 C   0  0  0  0  0  0  0  0  0  0  0  0
   58.8420   31.7770   45.5990 C   0  0  0  0  0  0  0  0  0  0  0  0
   58.2150   32.2940   44.4610 C   0  0  0  0  0  0  0  0  0  0  0  0
   57.6270   31.4290   43.5320 C   0  0  0  0  0  0  0  0  0  0  0  0
   57.0230   31.9320   42.4260 F   0  0  0  0  0  0  0  0  0  0  0  0
   57.6660   30.0480   43.7390 C   0  0  0  0  0  0  0  0  0  0  0  0
   58.2960   29.5290   44.8750 C   0  0  0  0  0  0  0  0  0  0  0  0
   59.5710   30.8560   48.5570 N   0  0  0  0  0  0  0  0  0  0  0  0
   58.5510   30.5540   49.5790 C   0  0  0  0  0  0  0  0  0  0  0  0
   58.4300   31.6300   50.6150 C   0  0  0  0  0  0  0  0  0  0  0  0
   57.4950   31.7720   51.6300 C   0  0  0  0  0  0  0  0  0  0  0  0
   56.3500   30.9030   51.9680 C   0  0  0  0  0  0  0  0  0  0  0  0
   56.5000   29.6200   52.3540 N   0  0  0  0  0  0  0  0  0  0  0  0
   55.2920   29.1750   52.5450 O   0  0  0  0  0  0  0  0  0  0  0  0
   54.4210   30.1200   52.2880 C   0  0  0  0  0  0  0  0  0  0  0  0
   52.9320   29.9240   52.4050 C   0  0  0  0  0  0  0  0  0  0  0  0
   52.1600   29.8780   51.0940 C   0  0  0  0  0  0  0  0  0  0  0  0
   52.0680   31.1050   51.9890 C   0  0  0  0  0  0  0  0  0  0  0  0
   55.0480   31.2520   51.9110 N   0  0  0  0  0  0  0  0  0  0  0  0
   57.7640   32.9040   52.3170 N   0  0  0  0  0  0  0  0  0  0  0  0
   58.8580   33.4190   51.7180 C   0  0  0  0  0  0  0  0  0  0  0  0
   59.2790   32.6600   50.6840 N   0  0  0  0  0  0  0  0  0  0  0  0
   60.3650   32.8620   49.7730 C   0  0  0  0  0  0  0  0  0  0  0  0
   61.2670   33.9290   49.9290 C   0  0  0  0  0  0  0  0  0  0  0  0
   62.3100   34.1060   49.0210 C   0  0  0  0  0  0  0  0  0  0  0  0
   62.4590   33.2260   47.9490 C   0  0  0  0  0  0  0  0  0  0  0  0
   63.7710   33.4540   46.8070 Cl  0  0  0  0  0  0  0  0  0  0  0  0
   61.5680   32.1630   47.7840 C   0  0  0  0  0  0  0  0  0  0  0  0
   60.5110   31.9590   48.6980 C   0  0  0  0  0  0  0  0  0  0  0  0
   59.2991   32.4586   46.3315 H   0  0  0  0  0  0  0  0  0  0  0  0
   58.1841   33.3812   44.2963 H   0  0  0  0  0  0  0  0  0  0  0  0
   57.2014   29.3689   43.0089 H   0  0  0  0  0  0  0  0  0  0  0  0
   58.3262   28.4414   45.0367 H   0  0  0  0  0  0  0  0  0  0  0  0
   57.5779   30.4357   49.0800 H   0  0  0  0  0  0  0  0  0  0  0  0
   58.8607   29.6324   50.0935 H   0  0  0  0  0  0  0  0  0  0  0  0
   52.9956   29.2808   53.2951 H   0  0  0  0  0  0  0  0  0  0  0  0
   52.6983   29.9348   50.1364 H   0  0  0  0  0  0  0  0  0  0  0  0
   51.4320   29.1872   50.6437 H   0  0  0  0  0  0  0  0  0  0  0  0
   52.5396   32.0489   51.6783 H   0  0  0  0  0  0  0  0  0  0  0  0
   51.2456   31.6687   52.4536 H   0  0  0  0  0  0  0  0  0  0  0  0
   54.6200   32.1550   51.6200 H   0  0  0  0  0  0  0  0  0  0  0  0
   59.3501   34.3501   52.0357 H   0  0  0  0  0  0  0  0  0  0  0  0
   61.1493   34.6271   50.7709 H   0  0  0  0  0  0  0  0  0  0  0  0
   63.0157   34.9399   49.1500 H   0  0  0  0  0  0  0  0  0  0  0  0
   61.6910   31.4772   46.9328 H   0  0  0  0  0  0  0  0  0  0  0  0
  1  2  2  0
  2  3  2  0
  2  4  1  0
  4  5  2  0
  5  6  1  0
  6  7  2  0
  7  8  1  0
  7  9  1  0
  9 10  2  0
  2 11  1  0
 11 12  1  0
 12 13  1  0
 13 14  2  0
 14 15  1  0
 15 16  2  0
 16 17  1  0
 17 18  1  0
 18 19  1  0
 19 20  1  0
 20 21  1  0
 18 22  2  0
 14 23  1  0
 23 24  2  0
 24 25  1  0
 25 26  1  0
 26 27  2  0
 27 28  1  0
 28 29  2  0
 29 30  1  0
 29 31  1  0
 31 32  2  0
 10  4  1  0
 32 11  1  0
 25 13  1  0
 32 26  1  0
 22 15  1  0
 21 19  1  0
  5 33  1  0
  6 34  1  0
  9 35  1  0
 10 36  1  0
 12 37  1  0
 12 38  1  0
 19 39  1  0
 20 40  1  0
 20 41  1  0
 21 42  1  0
 21 43  1  0
 22 44  1  0
 24 45  1  0
 27 46  1  0
 28 47  1  0
 31 48  1  0
M  CHG  1  22   1
M  END
>  <UniqueID>  (24) 
23

>  <SMILES>  (24) 
O=S(=O)(c1ccc(F)cc1)N1Cc2c(-c3noc(C4CC4)[nH+]3)ncn2-c2ccc(Cl)cc21

>  <Energy>  (24) 
394.54315587730986

>  <Genealogy>  (24) 
O=S(=O)(c1ccc(F)cc1)N1Cc2c(-c3noc(C4CC4)[nH+]3)ncn2-c2ccc(Cl)cc21 (protonated)
O=S(=O)(c1ccc(F)cc1)N1Cc2c(-c3noc(C4CC4)[nH+]3)ncn2-c2ccc(Cl)cc21 (3D coordinates assigned)
O=S(=O)(c1ccc(F)cc1)N1Cc2c(-c3noc(C4CC4)[nH+]3)ncn2-c2ccc(Cl)cc21 (nonaromatic ring conformer: 394.54315587730986 kcal/mol)

>  <smiles>  (24) 
O=S(=O)(c1ccc(F)cc1)N1Cc2c(-c3noc(C4CC4)n3)ncn2-c2ccc(Cl)cc21

>  <score_type>  (24) 
oracle

>  <origin>  (24) 
adg

>  <m_score__min__energy>  (24) 
-8.1999999999999993

>  <m_primary>  (24) 
energy

$$$$
24:0
     RDKit          3D

 38 40  0  0  0  0  0  0  0  0999 V2000
   59.0900   30.1270   47.7200 C   0  0  0  0  0  0  0  0  0  0  0  0
   58.6770   30.9570   46.5860 N   0  0  0  0  0  0  0  0  0  0  0  0
   59.0890   32.3390   46.4900 C   0  0  0  0  0  0  0  0  0  0  0  0
   60.3350   32.7640   46.9860 C   0  0  0  0  0  0  0  0  0  0  0  0
   60.7850   34.0650   46.7370 C   0  0  0  0  0  0  0  0  0  0  0  0
   60.0040   34.9470   45.9840 C   0  0  0  0  0  0  0  0  0  0  0  0
   58.7620   34.5370   45.4930 C   0  0  0  0  0  0  0  0  0  0  0  0
   58.2970   33.2450   45.7590 C   0  0  0  0  0  0  0  0  0  0  0  0
   56.6440   32.7630   45.2520 S   0  0  0  0  0  0  0  0  0  0  0  0
   57.1740   31.1590   44.6470 C   0  0  0  0  0  0  0  0  0  0  0  0
   56.6810   30.6720   43.4340 C   0  0  0  0  0  0  0  0  0  0  0  0
   57.0040   29.3790   43.0140 C   0  0  0  0  0  0  0  0  0  0  0  0
   57.8270   28.5610   43.8050 C   0  0  0  0  0  0  0  0  0  0  0  0
   58.1710   27.1560   43.3530 C   0  0  0  0  0  0  0  0  0  0  0  0
   57.5380   26.0900   44.1680 N   0  0  0  0  0  0  0  0  0  0  0  0
   57.3920   24.8260   43.4240 C   0  0  0  0  0  0  0  0  0  0  0  0
   58.2410   25.8660   45.4430 C   0  0  0  0  0  0  0  0  0  0  0  0
   58.3490   29.0680   45.0080 C   0  0  0  0  0  0  0  0  0  0  0  0
   58.0290   30.3680   45.4360 C   0  0  0  0  0  0  0  0  0  0  0  0
   58.8357   30.6381   48.6603 H   0  0  0  0  0  0  0  0  0  0  0  0
   58.5681   29.1597   47.6757 H   0  0  0  0  0  0  0  0  0  0  0  0
   60.1763   29.9599   47.6757 H   0  0  0  0  0  0  0  0  0  0  0  0
   60.9573   32.0712   47.5714 H   0  0  0  0  0  0  0  0  0  0  0  0
   61.7560   34.3950   47.1348 H   0  0  0  0  0  0  0  0  0  0  0  0
   60.3677   35.9645   45.7780 H   0  0  0  0  0  0  0  0  0  0  0  0
   58.1499   35.2302   44.8973 H   0  0  0  0  0  0  0  0  0  0  0  0
   56.0373   31.3077   42.8083 H   0  0  0  0  0  0  0  0  0  0  0  0
   56.6116   28.9999   42.0589 H   0  0  0  0  0  0  0  0  0  0  0  0
   57.8408   27.0370   42.3105 H   0  0  0  0  0  0  0  0  0  0  0  0
   59.2590   27.0414   43.4672 H   0  0  0  0  0  0  0  0  0  0  0  0
   56.5720   26.4220   44.4040 H   0  0  0  0  0  0  0  0  0  0  0  0
   57.2956   23.9915   44.1342 H   0  0  0  0  0  0  0  0  0  0  0  0
   56.4935   24.8746   42.7913 H   0  0  0  0  0  0  0  0  0  0  0  0
   58.2779   24.6685   42.7913 H   0  0  0  0  0  0  0  0  0  0  0  0
   57.5607   26.0828   46.2798 H   0  0  0  0  0  0  0  0  0  0  0  0
   58.5709   24.8182   45.5006 H   0  0  0  0  0  0  0  0  0  0  0  0
   59.1163   26.5297   45.5006 H   0  0  0  0  0  0  0  0  0  0  0  0
   59.0142   28.4413   45.6201 H   0  0  0  0  0  0  0  0  0  0  0  0
  1  2  1  0
  2  3  1  0
  3  4  2  0
  4  5  1  0
  5  6  2  0
  6  7  1  0
  7  8  2  0
  8  9  1  0
  9 10  1  0
 10 11  2  0
 11 12  1  0
 12 13  2  0
 13 14  1  0
 14 15  1  0
 15 16  1  0
 15 17  1  0
 13 18  1  0
 18 19  2  0
 19  2  1  0
  8  3  1  0
 19 10  1  0
  1 20  1  0
  1 21  1  0
  1 22  1  0
  4 23  1  0
  5 24  1  0
  6 25  1  0
  7 26  1  0
 11 27  1  0
 12 28  1  0
 14 29  1  0
 14 30  1  0
 15 31  1  0
 16 32  1  0
 16 33  1  0
 16 34  1  0
 17 35  1  0
 17 36  1  0
 17 37  1  0
 18 38  1  0
M  CHG  1  15   1
M  END
>  <UniqueID>  (25) 
24

>  <SMILES>  (25) 
CN1c2ccccc2Sc2ccc(C[NH+](C)C)cc21

>  <Energy>  (25) 
57.81164683814375

>  <Genealogy>  (25) 
CN1c2ccccc2Sc2ccc(C[NH+](C)C)cc21 (protonated)
CN1c2ccccc2Sc2ccc(C[NH+](C)C)cc21 (3D coordinates assigned)
CN1c2ccccc2Sc2ccc(C[NH+](C)C)cc21 (nonaromatic ring conformer: 57.81164683814375 kcal/mol)

>  <smiles>  (25) 
CN(C)Cc1ccc2c(c1)N(C)c1ccccc1S2

>  <score_type>  (25) 
oracle

>  <origin>  (25) 
adg

>  <m_score__min__energy>  (25) 
-5.5599999999999996

>  <m_primary>  (25) 
energy

$$$$
25:0
     RDKit          3D

 30 31  0  0  0  0  0  0  0  0999 V2000
   57.6840   28.2700   43.8570 C   0  0  0  0  0  0  0  0  0  0  0  0
   56.7050   29.7490   43.9840 S   0  0  0  0  0  0  0  0  0  0  0  0
   55.5190   29.4930   44.8720 O   0  0  0  0  0  0  0  0  0  0  0  0
   56.2100   30.1430   42.6200 O   0  0  0  0  0  0  0  0  0  0  0  0
   57.6870   31.0440   44.6590 C   0  0  0  0  0  0  0  0  0  0  0  0
   58.3820   30.8490   45.8590 C   0  0  0  0  0  0  0  0  0  0  0  0
   59.1530   31.8800   46.4030 C   0  0  0  0  0  0  0  0  0  0  0  0
   59.2410   33.1250   45.7530 C   0  0  0  0  0  0  0  0  0  0  0  0
   60.0570   34.2160   46.3430 C   0  0  0  0  0  0  0  0  0  0  0  0
   59.7080   35.4150   46.1690 O   0  0  0  0  0  0  0  0  0  0  0  0
   61.2960   33.9460   47.1040 C   0  0  0  0  0  0  0  0  0  0  0  0
   62.5090   33.8290   46.4040 C   0  0  0  0  0  0  0  0  0  0  0  0
   63.6980   33.5650   47.0880 C   0  0  0  0  0  0  0  0  0  0  0  0
   63.6900   33.4280   48.4770 C   0  0  0  0  0  0  0  0  0  0  0  0
   62.4960   33.5650   49.1880 C   0  0  0  0  0  0  0  0  0  0  0  0
   61.2970   33.8280   48.5130 C   0  0  0  0  0  0  0  0  0  0  0  0
   59.8380   34.0700   49.4680 Cl  0  0  0  0  0  0  0  0  0  0  0  0
   58.5230   33.3190   44.5590 C   0  0  0  0  0  0  0  0  0  0  0  0
   57.7530   32.2860   44.0170 C   0  0  0  0  0  0  0  0  0  0  0  0
   57.9268   27.9033   44.8653 H   0  0  0  0  0  0  0  0  0  0  0  0
   57.1165   27.5002   43.3136 H   0  0  0  0  0  0  0  0  0  0  0  0
   58.6144   28.4917   43.3136 H   0  0  0  0  0  0  0  0  0  0  0  0
   58.3208   29.8799   46.3758 H   0  0  0  0  0  0  0  0  0  0  0  0
   59.6950   31.7171   47.3462 H   0  0  0  0  0  0  0  0  0  0  0  0
   62.5222   33.9461   45.3103 H   0  0  0  0  0  0  0  0  0  0  0  0
   64.6415   33.4650   46.5314 H   0  0  0  0  0  0  0  0  0  0  0  0
   64.6261   33.2117   49.0126 H   0  0  0  0  0  0  0  0  0  0  0  0
   62.4969   33.4659   50.2835 H   0  0  0  0  0  0  0  0  0  0  0  0
   58.5679   34.2918   44.0476 H   0  0  0  0  0  0  0  0  0  0  0  0
   57.1967   32.4498   43.0823 H   0  0  0  0  0  0  0  0  0  0  0  0
  1  2  1  0
  2  3  2  0
  2  4  2  0
  2  5  1  0
  5  6  2  0
  6  7  1  0
  7  8  2  0
  8  9  1  0
  9 10  2  0
  9 11  1  0
 11 12  2  0
 12 13  1  0
 13 14  2  0
 14 15  1  0
 15 16  2  0
 16 17  1  0
  8 18  1  0
 18 19  2  0
 19  5  1  0
 16 11  1  0
  1 20  1  0
  1 21  1  0
  1 22  1  0
  6 23  1  0
  7 24  1  0
 12 25  1  0
 13 26  1  0
 14 27  1  0
 15 28  1  0
 18 29  1  0
 19 30  1  0
M  END
>  <UniqueID>  (26) 
25

>  <SMILES>  (26) 
CS(=O)(=O)c1ccc(C(=O)c2ccccc2Cl)cc1

>  <Energy>  (26) 
36.49019014862105

>  <Genealogy>  (26) 
CS(=O)(=O)c1ccc(C(=O)c2ccccc2Cl)cc1 (3D coordinates assigned)
CS(=O)(=O)c1ccc(C(=O)c2ccccc2Cl)cc1 (optimized conformer: 36.49019014862105 kcal/mol)

>  <smiles>  (26) 
CS(=O)(=O)c1ccc(C(=O)c2ccccc2Cl)cc1

>  <score_type>  (26) 
oracle

>  <origin>  (26) 
adg

>  <m_score__min__energy>  (26) 
-8.4900000000000002

>  <m_primary>  (26) 
energy

$$$$
26:0
     RDKit          3D

 40 42  0  0  0  0  0  0  0  0999 V2000
   62.1150   32.2160   47.4880 C   0  0  0  0  0  0  0  0  0  0  0  0
   62.1300   30.8940   46.9600 O   0  0  0  0  0  0  0  0  0  0  0  0
   61.0080   30.0550   46.8950 C   0  0  0  0  0  0  0  0  0  0  0  0
   60.3370   29.7480   48.0840 C   0  0  0  0  0  0  0  0  0  0  0  0
   59.2120   28.9170   48.0720 C   0  0  0  0  0  0  0  0  0  0  0  0
   58.7490   28.3710   46.8650 C   0  0  0  0  0  0  0  0  0  0  0  0
   57.5140   27.5110   46.8460 C   0  0  0  0  0  0  0  0  0  0  0  0
   56.9370   27.4340   45.4340 C   0  0  0  0  0  0  0  0  0  0  0  0
   56.0100   28.5380   45.2230 N   0  0  0  0  0  0  0  0  0  0  0  0
   56.2210   29.6690   44.3660 C   0  0  0  0  0  0  0  0  0  0  0  0
   55.7130   29.6480   43.2140 O   0  0  0  0  0  0  0  0  0  0  0  0
   57.0030   30.8570   44.7690 C   0  0  0  0  0  0  0  0  0  0  0  0
   57.3990   31.1070   46.0450 N   0  0  0  0  0  0  0  0  0  0  0  0
   58.0640   32.2660   45.9320 C   0  0  0  0  0  0  0  0  0  0  0  0
   58.6930   32.9980   46.9450 C   0  0  0  0  0  0  0  0  0  0  0  0
   58.7240   32.5070   48.3610 C   0  0  0  0  0  0  0  0  0  0  0  0
   59.3560   34.1880   46.5650 C   0  0  0  0  0  0  0  0  0  0  0  0
   59.3460   34.6150   45.2170 C   0  0  0  0  0  0  0  0  0  0  0  0
   58.6890   33.8540   44.2320 C   0  0  0  0  0  0  0  0  0  0  0  0
   58.0590   32.6790   44.6360 C   0  0  0  0  0  0  0  0  0  0  0  0
   57.3920   31.8030   43.8730 N   0  0  0  0  0  0  0  0  0  0  0  0
   59.4100   28.6880   45.6690 C   0  0  0  0  0  0  0  0  0  0  0  0
   60.5340   29.5200   45.6820 C   0  0  0  0  0  0  0  0  0  0  0  0
   62.1155   32.1719   48.5871 H   0  0  0  0  0  0  0  0  0  0  0  0
   63.0070   32.7590   47.1424 H   0  0  0  0  0  0  0  0  0  0  0  0
   61.2109   32.7386   47.1424 H   0  0  0  0  0  0  0  0  0  0  0  0
   60.6975   30.1639   49.0364 H   0  0  0  0  0  0  0  0  0  0  0  0
   58.6881   28.6906   49.0124 H   0  0  0  0  0  0  0  0  0  0  0  0
   57.7733   26.4978   47.1868 H   0  0  0  0  0  0  0  0  0  0  0  0
   56.7612   27.9549   47.5140 H   0  0  0  0  0  0  0  0  0  0  0  0
   57.7545   27.4974   44.7007 H   0  0  0  0  0  0  0  0  0  0  0  0
   56.4031   26.4803   45.3095 H   0  0  0  0  0  0  0  0  0  0  0  0
   58.6699   33.3646   49.0477 H   0  0  0  0  0  0  0  0  0  0  0  0
   57.8661   31.8415   48.5372 H   0  0  0  0  0  0  0  0  0  0  0  0
   59.6588   31.9546   48.5372 H   0  0  0  0  0  0  0  0  0  0  0  0
   59.8831   34.7856   47.3233 H   0  0  0  0  0  0  0  0  0  0  0  0
   59.8554   35.5486   44.9362 H   0  0  0  0  0  0  0  0  0  0  0  0
   58.6735   34.1757   43.1802 H   0  0  0  0  0  0  0  0  0  0  0  0
   59.0423   28.2800   44.7159 H   0  0  0  0  0  0  0  0  0  0  0  0
   61.0502   29.7575   44.7401 H   0  0  0  0  0  0  0  0  0  0  0  0
  1  2  1  0
  2  3  1  0
  3  4  2  0
  4  5  1  0
  5  6  2  0
  6  7  1  0
  7  8  1  0
  8  9  1  0
  9 10  1  0
 10 11  2  0
 10 12  1  0
 12 13  2  0
 13 14  1  0
 14 15  2  0
 15 16  1  0
 15 17  1  0
 17 18  2  0
 18 19  1  0
 19 20  2  0
 20 21  1  0
  6 22  1  0
 22 23  2  0
 23  3  1  0
 21 12  1  0
 20 14  1  0
  1 24  1  0
  1 25  1  0
  1 26  1  0
  4 27  1  0
  5 28  1  0
  7 29  1  0
  7 30  1  0
  8 31  1  0
  8 32  1  0
 16 33  1  0
 16 34  1  0
 16 35  1  0
 17 36  1  0
 18 37  1  0
 19 38  1  0
 22 39  1  0
 23 40  1  0
M  CHG  2   9  -1  21  -1
M  END
>  <UniqueID>  (27) 
26

>  <SMILES>  (27) 
COc1ccc(CC[N-]C(=O)c2nc3c(C)cccc3[n-]2)cc1

>  <Energy>  (27) 
71.22572145020806

>  <Genealogy>  (27) 
COc1ccc(CC[N-]C(=O)c2nc3c(C)cccc3[n-]2)cc1 (protonated)
COc1ccc(CC[N-]C(=O)c2nc3c(C)cccc3[n-]2)cc1 (3D coordinates assigned)
COc1ccc(CC[N-]C(=O)c2nc3c(C)cccc3[n-]2)cc1 (optimized conformer: 71.22572145020806 kcal/mol)

>  <smiles>  (27) 
COc1ccc(CCNC(=O)c2nc3c(C)cccc3[nH]2)cc1

>  <score_type>  (27) 
oracle

>  <origin>  (27) 
adg

>  <m_score__min__energy>  (27) 
-10.85

>  <m_primary>  (27) 
energy

$$$$
27:0
     RDKit          3D

 25 27  0  0  0  0  0  0  0  0999 V2000
   58.7810   27.4630   44.2010 C   0  0  0  0  0  0  0  0  0  0  0  0
   59.6700   28.1270   45.0340 C   0  0  0  0  0  0  0  0  0  0  0  0
   59.1880   29.7340   45.1420 S   0  0  0  0  0  0  0  0  0  0  0  0
   57.8600   29.6040   44.1180 C   0  0  0  0  0  0  0  0  0  0  0  0
   56.8990   30.7230   43.8190 C   0  0  2  0  0  0  0  0  0  0  0  0
   57.3870   31.5650   42.6230 C   0  0  0  0  0  0  0  0  0  0  0  0
   58.4440   32.4440   43.0170 O   0  0  0  0  0  0  0  0  0  0  0  0
   58.4130   33.1010   44.2490 C   0  0  0  0  0  0  0  0  0  0  0  0
   59.2690   34.1770   44.5080 C   0  0  0  0  0  0  0  0  0  0  0  0
   59.2060   34.8330   45.7420 C   0  0  0  0  0  0  0  0  0  0  0  0
   58.2910   34.4120   46.7160 C   0  0  0  0  0  0  0  0  0  0  0  0
   57.4470   33.3260   46.4620 C   0  0  0  0  0  0  0  0  0  0  0  0
   57.5170   32.6610   45.2330 C   0  0  0  0  0  0  0  0  0  0  0  0
   56.7110   31.5480   44.9770 O   0  0  0  0  0  0  0  0  0  0  0  0
   57.7640   28.2810   43.6920 C   0  0  0  0  0  0  0  0  0  0  0  0
   58.8669   26.3927   43.9622 H   0  0  0  0  0  0  0  0  0  0  0  0
   60.5399   27.6793   45.5369 H   0  0  0  0  0  0  0  0  0  0  0  0
   55.9299   30.2787   43.5480 H   0  0  0  0  0  0  0  0  0  0  0  0
   57.7533   30.8918   41.8339 H   0  0  0  0  0  0  0  0  0  0  0  0
   56.5464   32.1695   42.2517 H   0  0  0  0  0  0  0  0  0  0  0  0
   59.9889   34.5059   43.7441 H   0  0  0  0  0  0  0  0  0  0  0  0
   59.8760   35.6808   45.9480 H   0  0  0  0  0  0  0  0  0  0  0  0
   58.2364   34.9362   47.6815 H   0  0  0  0  0  0  0  0  0  0  0  0
   56.7293   32.9953   47.2272 H   0  0  0  0  0  0  0  0  0  0  0  0
   56.9702   27.9158   43.0238 H   0  0  0  0  0  0  0  0  0  0  0  0
  1  2  2  0
  2  3  1  0
  3  4  1  0
  4  5  1  0
  5  6  1  0
  6  7  1  0
  7  8  1  0
  8  9  2  0
  9 10  1  0
 10 11  2  0
 11 12  1  0
 12 13  2  0
 13 14  1  0
  4 15  2  0
 15  1  1  0
 14  5  1  0
 13  8  1  0
  1 16  1  0
  2 17  1  0
  5 18  1  6
  6 19  1  0
  6 20  1  0
  9 21  1  0
 10 22  1  0
 11 23  1  0
 12 24  1  0
 15 25  1  0
M  END
>  <UniqueID>  (28) 
27

>  <SMILES>  (28) 
c1csc([C@@H]2COc3ccccc3O2)c1

>  <Energy>  (28) 
53.963858900366084

>  <Genealogy>  (28) 
c1csc([C@@H]2COc3ccccc3O2)c1 (chirality)
c1csc([C@@H]2COc3ccccc3O2)c1 (3D coordinates assigned)
c1csc([C@@H]2COc3ccccc3O2)c1 (nonaromatic ring conformer: 53.963858900366084 kcal/mol)

>  <smiles>  (28) 
c1csc(C2COc3ccccc3O2)c1

>  <score_type>  (28) 
oracle

>  <origin>  (28) 
adg

>  <m_score__min__energy>  (28) 
-6.0700000000000003

>  <m_primary>  (28) 
energy

$$$$
28:0
     RDKit          3D

 48 51  0  0  0  0  0  0  0  0999 V2000
   56.9960   24.0920   43.1140 C   0  0  0  0  0  0  0  0  0  0  0  0
   57.7180   24.4210   44.3390 N   0  0  0  0  0  0  0  0  0  0  0  0
   58.2770   23.5420   45.2030 C   0  0  0  0  0  0  0  0  0  0  0  0
   58.9020   24.2160   46.2470 C   0  0  0  0  0  0  0  0  0  0  0  0
   58.7030   25.5560   45.9830 C   0  0  0  0  0  0  0  0  0  0  0  0
   59.1280   26.6820   46.6790 C   0  0  0  0  0  0  0  0  0  0  0  0
   58.7990   27.9540   46.1610 C   0  0  0  0  0  0  0  0  0  0  0  0
   59.2380   29.1340   46.8580 N   0  0  0  0  0  0  0  0  0  0  0  0
   58.8940   29.3040   48.2780 C   0  0  0  0  0  0  0  0  0  0  0  0
   59.1460   30.7440   48.7390 C   0  0  0  0  0  0  0  0  0  0  0  0
   60.5840   31.2000   48.4320 C   0  0  0  0  0  0  0  0  0  0  0  0
   61.1310   30.6800   47.0840 C   0  0  0  0  0  0  0  0  0  0  0  0
   60.0280   30.1570   46.1610 C   0  0  0  0  0  0  0  0  0  0  0  0
   58.0240   28.0570   44.9680 C   0  0  0  0  0  0  0  0  0  0  0  0
   57.6760   29.3590   44.4700 N   0  0  0  0  0  0  0  0  0  0  0  0
   56.4660   30.0790   44.7280 C   0  0  0  0  0  0  0  0  0  0  0  0
   55.4380   29.4790   45.1400 O   0  0  0  0  0  0  0  0  0  0  0  0
   56.4460   31.4940   44.5090 N   0  0  0  0  0  0  0  0  0  0  0  0
   57.3480   32.4600   45.0690 C   0  0  0  0  0  0  0  0  0  0  0  0
   57.4070   32.7150   46.4530 C   0  0  0  0  0  0  0  0  0  0  0  0
   58.3190   33.6480   46.9570 C   0  0  0  0  0  0  0  0  0  0  0  0
   59.1840   34.3220   46.0910 C   0  0  0  0  0  0  0  0  0  0  0  0
   60.0680   35.2260   46.5820 F   0  0  0  0  0  0  0  0  0  0  0  0
   59.1470   34.0560   44.7200 C   0  0  0  0  0  0  0  0  0  0  0  0
   58.2380   33.1220   44.2130 C   0  0  0  0  0  0  0  0  0  0  0  0
   57.6340   26.8840   44.2790 C   0  0  0  0  0  0  0  0  0  0  0  0
   57.9860   25.6490   44.8230 C   0  0  0  0  0  0  0  0  0  0  0  0
   56.0225   23.6484   43.3700 H   0  0  0  0  0  0  0  0  0  0  0  0
   56.8382   25.0071   42.5243 H   0  0  0  0  0  0  0  0  0  0  0  0
   57.5831   23.3725   42.5243 H   0  0  0  0  0  0  0  0  0  0  0  0
   58.2420   22.4479   45.0948 H   0  0  0  0  0  0  0  0  0  0  0  0
   59.4394   23.7756   47.0998 H   0  0  0  0  0  0  0  0  0  0  0  0
   59.7060   26.5846   47.6098 H   0  0  0  0  0  0  0  0  0  0  0  0
   57.8306   29.0619   48.4214 H   0  0  0  0  0  0  0  0  0  0  0  0
   59.5279   28.6308   48.8738 H   0  0  0  0  0  0  0  0  0  0  0  0
   58.4424   31.4120   48.2205 H   0  0  0  0  0  0  0  0  0  0  0  0
   59.0001   30.7843   49.8285 H   0  0  0  0  0  0  0  0  0  0  0  0
   60.6019   32.2997   48.4120 H   0  0  0  0  0  0  0  0  0  0  0  0
   61.2269   30.7816   49.2204 H   0  0  0  0  0  0  0  0  0  0  0  0
   61.6543   31.5032   46.5756 H   0  0  0  0  0  0  0  0  0  0  0  0
   61.8077   29.8405   47.3018 H   0  0  0  0  0  0  0  0  0  0  0  0
   59.3709   30.9896   45.8693 H   0  0  0  0  0  0  0  0  0  0  0  0
   60.4855   29.7134   45.2643 H   0  0  0  0  0  0  0  0  0  0  0  0
   56.7344   32.1792   47.1389 H   0  0  0  0  0  0  0  0  0  0  0  0
   58.3554   33.8516   48.0374 H   0  0  0  0  0  0  0  0  0  0  0  0
   59.8330   34.5813   44.0392 H   0  0  0  0  0  0  0  0  0  0  0  0
   58.2216   32.9056   43.1346 H   0  0  0  0  0  0  0  0  0  0  0  0
   57.0675   26.9448   43.3381 H   0  0  0  0  0  0  0  0  0  0  0  0
  1  2  1  0
  2  3  1  0
  3  4  2  0
  4  5  1  0
  5  6  2  0
  6  7  1  0
  7  8  1  0
  8  9  1  0
  9 10  1  0
 10 11  1  0
 11 12  1  0
 12 13  1  0
  7 14  2  0
 14 15  1  0
 15 16  1  0
 16 17  2  0
 16 18  1  0
 18 19  1  0
 19 20  2  0
 20 21  1  0
 21 22  2  0
 22 23  1  0
 22 24  1  0
 24 25  2  0
 14 26  1  0
 26 27  2  0
 27  2  1  0
 27  5  1  0
 13  8  1  0
 25 19  1  0
  1 28  1  0
  1 29  1  0
  1 30  1  0
  3 31  1  0
  4 32  1  0
  6 33  1  0
  9 34  1  0
  9 35  1  0
 10 36  1  0
 10 37  1  0
 11 38  1  0
 11 39  1  0
 12 40  1  0
 12 41  1  0
 13 42  1  0
 13 43  1  0
 20 44  1  0
 21 45  1  0
 24 46  1  0
 25 47  1  0
 26 48  1  0
M  CHG  2  15  -1  18  -1
M  END
>  <UniqueID>  (29) 
28

>  <SMILES>  (29) 
Cn1ccc2cc(N3CCCCC3)c([N-]C(=O)[N-]c3ccc(F)cc3)cc21

>  <Energy>  (29) 
96.20753620673771

>  <Genealogy>  (29) 
Cn1ccc2cc(N3CCCCC3)c([N-]C(=O)[N-]c3ccc(F)cc3)cc21 (protonated)
Cn1ccc2cc(N3CCCCC3)c([N-]C(=O)[N-]c3ccc(F)cc3)cc21 (3D coordinates assigned)
Cn1ccc2cc(N3CCCCC3)c([N-]C(=O)[N-]c3ccc(F)cc3)cc21 (nonaromatic ring conformer: 96.20753620673771 kcal/mol)

>  <smiles>  (29) 
Cn1ccc2cc(N3CCCCC3)c(NC(=O)Nc3ccc(F)cc3)cc21

>  <score_type>  (29) 
oracle

>  <origin>  (29) 
adg

>  <m_score__min__energy>  (29) 
-10.56

>  <m_primary>  (29) 
energy

$$$$
29:0
     RDKit          3D

 53 55  0  0  0  0  0  0  0  0999 V2000
   63.7270   33.1120   46.7830 C   0  0  0  0  0  0  0  0  0  0  0  0
   62.3700   33.7500   47.0580 C   0  0  0  0  0  0  0  0  0  0  0  0
   62.2660   34.2140   48.5190 C   0  0  0  0  0  0  0  0  0  0  0  0
   60.9230   33.8300   49.1730 C   0  0  0  0  0  0  0  0  0  0  0  0
   59.7140   34.5830   48.5910 C   0  0  0  0  0  0  0  0  0  0  0  0
   59.0550   33.8330   47.4600 C   0  0  0  0  0  0  0  0  0  0  0  0
   58.7930   34.4910   46.2500 C   0  0  0  0  0  0  0  0  0  0  0  0
   58.1740   33.8130   45.2010 C   0  0  0  0  0  0  0  0  0  0  0  0
   57.7860   32.4820   45.3790 C   0  0  0  0  0  0  0  0  0  0  0  0
   57.1500   31.7380   44.2830 C   0  0  0  0  0  0  0  0  0  0  0  0
   57.4630   32.0130   43.0950 O   0  0  0  0  0  0  0  0  0  0  0  0
   56.1660   30.7250   44.5230 N   0  0  0  0  0  0  0  0  0  0  0  0
   56.2360   29.3500   44.0350 C   0  0  0  0  0  0  0  0  0  0  0  0
   57.3260   28.5580   44.7130 C   0  0  0  0  0  0  0  0  0  0  0  0
   58.6640   28.9710   44.5700 C   0  0  0  0  0  0  0  0  0  0  0  0
   59.6840   28.3300   45.2800 C   0  0  0  0  0  0  0  0  0  0  0  0
   60.9690   28.7270   45.1220 F   0  0  0  0  0  0  0  0  0  0  0  0
   59.3800   27.2740   46.1430 C   0  0  0  0  0  0  0  0  0  0  0  0
   58.0550   26.8620   46.3020 C   0  0  0  0  0  0  0  0  0  0  0  0
   57.0280   27.5060   45.6040 C   0  0  0  0  0  0  0  0  0  0  0  0
   55.7460   27.1140   45.8140 F   0  0  0  0  0  0  0  0  0  0  0  0
   58.0540   31.8550   46.5540 N   0  0  0  0  0  0  0  0  0  0  0  0
   58.6880   32.4790   47.5870 C   0  0  0  0  0  0  0  0  0  0  0  0
   58.9750   31.7800   48.7660 O   0  0  0  0  0  0  0  0  0  0  0  0
   58.9200   30.3610   48.8720 C   0  0  0  0  0  0  0  0  0  0  0  0
   60.2990   29.7560   48.5930 C   0  0  0  0  0  0  0  0  0  0  0  0
   61.1190   30.5040   47.5520 C   0  0  0  0  0  0  0  0  0  0  0  0
   61.4970   30.5900   49.0230 C   0  0  0  0  0  0  0  0  0  0  0  0
   64.2227   32.8790   47.7369 H   0  0  0  0  0  0  0  0  0  0  0  0
   63.5866   32.1856   46.2068 H   0  0  0  0  0  0  0  0  0  0  0  0
   64.3509   33.8111   46.2068 H   0  0  0  0  0  0  0  0  0  0  0  0
   62.2394   34.6178   46.3948 H   0  0  0  0  0  0  0  0  0  0  0  0
   61.5862   33.0011   46.8714 H   0  0  0  0  0  0  0  0  0  0  0  0
   63.0819   33.7515   49.0937 H   0  0  0  0  0  0  0  0  0  0  0  0
   62.3353   35.3118   48.5240 H   0  0  0  0  0  0  0  0  0  0  0  0
   60.7625   32.7513   49.0290 H   0  0  0  0  0  0  0  0  0  0  0  0
   60.9924   34.1058   50.2356 H   0  0  0  0  0  0  0  0  0  0  0  0
   58.9747   34.7351   49.3912 H   0  0  0  0  0  0  0  0  0  0  0  0
   60.0785   35.5400   48.1893 H   0  0  0  0  0  0  0  0  0  0  0  0
   59.0771   35.5467   46.1279 H   0  0  0  0  0  0  0  0  0  0  0  0
   57.9926   34.3207   44.2422 H   0  0  0  0  0  0  0  0  0  0  0  0
   55.2707   28.8577   44.2243 H   0  0  0  0  0  0  0  0  0  0  0  0
   56.4642   29.3853   42.9595 H   0  0  0  0  0  0  0  0  0  0  0  0
   58.9091   29.8041   43.8948 H   0  0  0  0  0  0  0  0  0  0  0  0
   60.1840   26.7673   46.6970 H   0  0  0  0  0  0  0  0  0  0  0  0
   57.8181   26.0278   46.9788 H   0  0  0  0  0  0  0  0  0  0  0  0
   58.6007   30.0846   49.8877 H   0  0  0  0  0  0  0  0  0  0  0  0
   58.2021   29.9735   48.1342 H   0  0  0  0  0  0  0  0  0  0  0  0
   59.9894   28.7126   48.7525 H   0  0  0  0  0  0  0  0  0  0  0  0
   61.7585   29.9469   46.8515 H   0  0  0  0  0  0  0  0  0  0  0  0
   60.8927   31.2363   46.7630 H   0  0  0  0  0  0  0  0  0  0  0  0
   62.4098   30.0951   49.3861 H   0  0  0  0  0  0  0  0  0  0  0  0
   61.6572   31.4103   49.7382 H   0  0  0  0  0  0  0  0  0  0  0  0
  1  2  1  0
  2  3  1  0
  3  4  1  0
  4  5  1  0
  5  6  1  0
  6  7  2  0
  7  8  1  0
  8  9  2  0
  9 10  1  0
 10 11  2  0
 10 12  1  0
 12 13  1  0
 13 14  1  0
 14 15  2  0
 15 16  1  0
 16 17  1  0
 16 18  2  0
 18 19  1  0
 19 20  2  0
 20 21  1  0
  9 22  1  0
 22 23  2  0
 23 24  1  0
 24 25  1  0
 25 26  1  0
 26 27  1  0
 27 28  1  0
 23  6  1  0
 28 26  1  0
 20 14  1  0
  1 29  1  0
  1 30  1  0
  1 31  1  0
  2 32  1  0
  2 33  1  0
  3 34  1  0
  3 35  1  0
  4 36  1  0
  4 37  1  0
  5 38  1  0
  5 39  1  0
  7 40  1  0
  8 41  1  0
 13 42  1  0
 13 43  1  0
 15 44  1  0
 18 45  1  0
 19 46  1  0
 25 47  1  0
 25 48  1  0
 26 49  1  0
 27 50  1  0
 27 51  1  0
 28 52  1  0
 28 53  1  0
M  CHG  1  12  -1
M  END
>  <UniqueID>  (30) 
29

>  <SMILES>  (30) 
CCCCCc1ccc(C(=O)[N-]Cc2cc(F)ccc2F)nc1OCC1CC1

>  <Energy>  (30) 
308.87335703980426

>  <Genealogy>  (30) 
CCCCCc1ccc(C(=O)[N-]Cc2cc(F)ccc2F)nc1OCC1CC1 (protonated)
CCCCCc1ccc(C(=O)[N-]Cc2cc(F)ccc2F)nc1OCC1CC1 (3D coordinates assigned)
CCCCCc1ccc(C(=O)[N-]Cc2cc(F)ccc2F)nc1OCC1CC1 (nonaromatic ring conformer: 308.87335703980426 kcal/mol)

>  <smiles>  (30) 
CCCCCc1ccc(C(=O)NCc2cc(F)ccc2F)nc1OCC1CC1

>  <score_type>  (30) 
oracle

>  <origin>  (30) 
adg

>  <m_score__min__energy>  (30) 
-10.01

>  <m_primary>  (30) 
energy

$$$$
30:0
     RDKit          3D

 54 57  0  0  0  0  0  0  0  0999 V2000
   59.5280   30.2200   47.3370 C   0  0  0  0  0  0  0  0  0  0  0  0
   59.7290   30.8090   46.0570 O   0  0  0  0  0  0  0  0  0  0  0  0
   59.0540   31.9640   45.6400 C   0  0  0  0  0  0  0  0  0  0  0  0
   58.1670   31.9330   44.5410 C   0  0  0  0  0  0  0  0  0  0  0  0
   58.0510   30.7770   43.7040 N   0  0  0  0  0  0  0  0  0  0  0  0
   56.7460   29.6470   43.8890 S   0  0  0  0  0  0  0  0  0  0  0  0
   56.0770   29.4460   42.5580 O   0  0  0  0  0  0  0  0  0  0  0  0
   55.7280   30.1840   44.8570 O   0  0  0  0  0  0  0  0  0  0  0  0
   57.3470   28.1180   44.4810 N   0  0  0  0  0  0  0  0  0  0  0  0
   57.3230   28.1080   45.9590 C   0  0  0  0  0  0  0  0  0  0  0  0
   58.1600   26.9540   46.5180 C   0  0  0  0  0  0  0  0  0  0  0  0
   59.6390   27.0920   46.1160 C   0  0  0  0  0  0  0  0  0  0  0  0
   59.8380   27.9500   44.8560 C   0  0  0  0  0  0  0  0  0  0  0  0
   58.6630   27.7850   43.8790 C   0  0  0  0  0  0  0  0  0  0  0  0
   57.3930   33.0620   44.2430 C   0  0  0  0  0  0  0  0  0  0  0  0
   57.5380   34.2330   44.9850 C   0  0  0  0  0  0  0  0  0  0  0  0
   58.4650   34.2920   46.0260 C   0  0  0  0  0  0  0  0  0  0  0  0
   59.2450   33.1700   46.3510 C   0  0  0  0  0  0  0  0  0  0  0  0
   60.2090   33.2660   47.4730 C   0  0  0  0  0  0  0  0  0  0  0  0
   59.7660   33.4820   48.8000 C   0  0  0  0  0  0  0  0  0  0  0  0
   60.7150   33.5530   49.8380 C   0  0  0  0  0  0  0  0  0  0  0  0
   60.2950   33.7770   51.2630 C   0  0  0  0  0  0  0  0  0  0  0  0
   60.5240   32.6300   52.0000 F   0  0  0  0  0  0  0  0  0  0  0  0
   58.9490   34.0890   51.3070 F   0  0  0  0  0  0  0  0  0  0  0  0
   62.0230   33.3960   49.5040 N   0  0  0  0  0  0  0  0  0  0  0  0
   63.0670   33.4080   50.3150 N   0  0  0  0  0  0  0  0  0  0  0  0
   64.1560   33.2050   49.5360 C   0  0  0  0  0  0  0  0  0  0  0  0
   65.5440   33.0830   50.0690 C   0  0  0  0  0  0  0  0  0  0  0  0
   63.7880   33.0390   48.2020 C   0  0  0  0  0  0  0  0  0  0  0  0
   62.4220   33.1780   48.2470 C   0  0  0  0  0  0  0  0  0  0  0  0
   61.5430   33.1040   47.2210 N   0  0  0  0  0  0  0  0  0  0  0  0
   59.7774   30.9510   48.1202 H   0  0  0  0  0  0  0  0  0  0  0  0
   58.4756   29.9170   47.4400 H   0  0  0  0  0  0  0  0  0  0  0  0
   60.1756   29.3368   47.4400 H   0  0  0  0  0  0  0  0  0  0  0  0
   58.9000   30.4480   43.1920 H   0  0  0  0  0  0  0  0  0  0  0  0
   57.7301   29.0598   46.3310 H   0  0  0  0  0  0  0  0  0  0  0  0
   56.2823   27.9760   46.2898 H   0  0  0  0  0  0  0  0  0  0  0  0
   58.0851   26.9554   47.6154 H   0  0  0  0  0  0  0  0  0  0  0  0
   57.7734   26.0113   46.1035 H   0  0  0  0  0  0  0  0  0  0  0  0
   60.1871   27.5578   46.9482 H   0  0  0  0  0  0  0  0  0  0  0  0
   60.0161   26.0832   45.8919 H   0  0  0  0  0  0  0  0  0  0  0  0
   59.9140   29.0072   45.1503 H   0  0  0  0  0  0  0  0  0  0  0  0
   60.7585   27.6201   44.3521 H   0  0  0  0  0  0  0  0  0  0  0  0
   58.8302   28.4474   43.0169 H   0  0  0  0  0  0  0  0  0  0  0  0
   58.6287   26.7250   43.5869 H   0  0  0  0  0  0  0  0  0  0  0  0
   56.6662   33.0241   43.4182 H   0  0  0  0  0  0  0  0  0  0  0  0
   56.9204   35.1122   44.7494 H   0  0  0  0  0  0  0  0  0  0  0  0
   58.5860   35.2245   46.5967 H   0  0  0  0  0  0  0  0  0  0  0  0
   58.6935   33.5930   49.0177 H   0  0  0  0  0  0  0  0  0  0  0  0
   60.8782   34.6081   51.6863 H   0  0  0  0  0  0  0  0  0  0  0  0
   65.5160   33.0855   51.1686 H   0  0  0  0  0  0  0  0  0  0  0  0
   65.9911   32.1421   49.7157 H   0  0  0  0  0  0  0  0  0  0  0  0
   66.1483   33.9315   49.7157 H   0  0  0  0  0  0  0  0  0  0  0  0
   64.4308   32.8451   47.3307 H   0  0  0  0  0  0  0  0  0  0  0  0
  1  2  1  0
  2  3  1  0
  3  4  2  0
  4  5  1  0
  5  6  1  0
  6  7  2  0
  6  8  2  0
  6  9  1  0
  9 10  1  0
 10 11  1  0
 11 12  1  0
 12 13  1  0
 13 14  1  0
  4 15  1  0
 15 16  2  0
 16 17  1  0
 17 18  2  0
 18 19  1  0
 19 20  1  0
 20 21  2  0
 21 22  1  0
 22 23  1  0
 22 24  1  0
 21 25  1  0
 25 26  1  0
 26 27  2  0
 27 28  1  0
 27 29  1  0
 29 30  2  0
 30 31  1  0
 18  3  1  0
 31 19  2  0
 14  9  1  0
 30 25  1  0
  1 32  1  0
  1 33  1  0
  1 34  1  0
  5 35  1  0
 10 36  1  0
 10 37  1  0
 11 38  1  0
 11 39  1  0
 12 40  1  0
 12 41  1  0
 13 42  1  0
 13 43  1  0
 14 44  1  0
 14 45  1  0
 15 46  1  0
 16 47  1  0
 17 48  1  0
 20 49  1  0
 22 50  1  0
 28 51  1  0
 28 52  1  0
 28 53  1  0
 29 54  1  0
M  END
>  <UniqueID>  (31) 
30

>  <SMILES>  (31) 
COc1c(NS(=O)(=O)N2CCCCC2)cccc1-c1cc(C(F)F)n2nc(C)cc2n1

>  <Energy>  (31) 
111.02558715842251

>  <Genealogy>  (31) 
COc1c(NS(=O)(=O)N2CCCCC2)cccc1-c1cc(C(F)F)n2nc(C)cc2n1 (3D coordinates assigned)
COc1c(NS(=O)(=O)N2CCCCC2)cccc1-c1cc(C(F)F)n2nc(C)cc2n1 (nonaromatic ring conformer: 111.02558715842251 kcal/mol)

>  <smiles>  (31) 
COc1c(NS(=O)(=O)N2CCCCC2)cccc1-c1cc(C(F)F)n2nc(C)cc2n1

>  <score_type>  (31) 
oracle

>  <origin>  (31) 
adg

>  <m_score__min__energy>  (31) 
-9.3399999999999999

>  <m_primary>  (31) 
energy

$$$$
31:0
     RDKit          3D

 43 45  0  0  0  0  0  0  0  0999 V2000
   57.7530   24.5780   45.1480 C   0  0  0  0  0  0  0  0  0  0  0  0
   58.0740   25.4300   46.2440 O   0  0  0  0  0  0  0  0  0  0  0  0
   58.0660   26.8320   46.1890 C   0  0  0  0  0  0  0  0  0  0  0  0
   57.0440   27.5570   45.5490 C   0  0  0  0  0  0  0  0  0  0  0  0
   57.0700   28.9670   45.5140 C   0  0  0  0  0  0  0  0  0  0  0  0
   56.0520   29.6960   44.8760 O   0  0  0  0  0  0  0  0  0  0  0  0
   56.0230   30.0150   43.4880 C   0  0  0  0  0  0  0  0  0  0  0  0
   58.1410   29.6540   46.1350 C   0  0  0  0  0  0  0  0  0  0  0  0
   58.2520   31.0610   46.1460 C   0  0  0  0  0  0  0  0  0  0  0  0
   57.3900   31.7940   45.5880 O   0  0  0  0  0  0  0  0  0  0  0  0
   59.3390   31.6620   46.7810 C   0  0  0  0  0  0  0  0  0  0  0  0
   60.3070   30.8600   47.4050 C   0  0  0  0  0  0  0  0  0  0  0  0
   61.4850   31.4440   48.0940 C   0  0  0  0  0  0  0  0  0  0  0  0
   61.7680   31.0700   49.4170 C   0  0  0  0  0  0  0  0  0  0  0  0
   62.8650   31.6110   50.0920 C   0  0  0  0  0  0  0  0  0  0  0  0
   63.7080   32.5510   49.4660 C   0  0  0  0  0  0  0  0  0  0  0  0
   64.8490   33.1120   50.1670 N   0  0  0  0  0  0  0  0  0  0  0  0
   66.2160   32.7250   49.7990 C   0  0  0  0  0  0  0  0  0  0  0  0
   64.6560   34.0770   51.2570 C   0  0  0  0  0  0  0  0  0  0  0  0
   63.4100   32.9350   48.1430 C   0  0  0  0  0  0  0  0  0  0  0  0
   62.3130   32.3920   47.4680 C   0  0  0  0  0  0  0  0  0  0  0  0
   60.1790   29.5360   47.3680 O   0  0  0  0  0  0  0  0  0  0  0  0
   59.1630   28.9150   46.7770 C   0  0  0  0  0  0  0  0  0  0  0  0
   59.1160   27.5200   46.7970 C   0  0  0  0  0  0  0  0  0  0  0  0
   57.3891   23.6122   45.5287 H   0  0  0  0  0  0  0  0  0  0  0  0
   56.9705   25.0487   44.5346 H   0  0  0  0  0  0  0  0  0  0  0  0
   58.6515   24.4153   44.5346 H   0  0  0  0  0  0  0  0  0  0  0  0
   56.2139   27.0173   45.0697 H   0  0  0  0  0  0  0  0  0  0  0  0
   55.9240   31.1035   43.3639 H   0  0  0  0  0  0  0  0  0  0  0  0
   56.9557   29.6752   43.0141 H   0  0  0  0  0  0  0  0  0  0  0  0
   55.1668   29.5126   43.0141 H   0  0  0  0  0  0  0  0  0  0  0  0
   59.4368   32.7576   46.7926 H   0  0  0  0  0  0  0  0  0  0  0  0
   61.1192   30.3432   49.9277 H   0  0  0  0  0  0  0  0  0  0  0  0
   63.0736   31.2991   51.1260 H   0  0  0  0  0  0  0  0  0  0  0  0
   66.8077   32.5575   50.7110 H   0  0  0  0  0  0  0  0  0  0  0  0
   66.1878   31.7995   49.2051 H   0  0  0  0  0  0  0  0  0  0  0  0
   66.6771   33.5279   49.2051 H   0  0  0  0  0  0  0  0  0  0  0  0
   64.7588   33.5631   52.2241 H   0  0  0  0  0  0  0  0  0  0  0  0
   65.4130   34.8715   51.1817 H   0  0  0  0  0  0  0  0  0  0  0  0
   63.6516   34.5192   51.1817 H   0  0  0  0  0  0  0  0  0  0  0  0
   64.0493   33.6719   47.6348 H   0  0  0  0  0  0  0  0  0  0  0  0
   62.0956   32.7094   46.4375 H   0  0  0  0  0  0  0  0  0  0  0  0
   59.9167   26.9565   47.2983 H   0  0  0  0  0  0  0  0  0  0  0  0
  1  2  1  0
  2  3  1  0
  3  4  2  0
  4  5  1  0
  5  6  1  0
  6  7  1  0
  5  8  2  0
  8  9  1  0
  9 10  2  0
  9 11  1  0
 11 12  2  0
 12 13  1  0
 13 14  2  0
 14 15  1  0
 15 16  2  0
 16 17  1  0
 17 18  1  0
 17 19  1  0
 16 20  1  0
 20 21  2  0
 12 22  1  0
 22 23  1  0
 23 24  2  0
 24  3  1  0
 23  8  1  0
 21 13  1  0
  1 25  1  0
  1 26  1  0
  1 27  1  0
  4 28  1  0
  7 29  1  0
  7 30  1  0
  7 31  1  0
 11 32  1  0
 14 33  1  0
 15 34  1  0
 18 35  1  0
 18 36  1  0
 18 37  1  0
 19 38  1  0
 19 39  1  0
 19 40  1  0
 20 41  1  0
 21 42  1  0
 24 43  1  0
M  END
>  <UniqueID>  (32) 
31

>  <SMILES>  (32) 
COc1cc(OC)c2c(=O)cc(-c3ccc(N(C)C)cc3)oc2c1

>  <Energy>  (32) 
56.01404002013561

>  <Genealogy>  (32) 
COc1cc(OC)c2c(=O)cc(-c3ccc(N(C)C)cc3)oc2c1 (3D coordinates assigned)
COc1cc(OC)c2c(=O)cc(-c3ccc(N(C)C)cc3)oc2c1 (optimized conformer: 56.01404002013561 kcal/mol)

>  <smiles>  (32) 
COc1cc(OC)c2c(=O)cc(-c3ccc(N(C)C)cc3)oc2c1

>  <score_type>  (32) 
oracle

>  <origin>  (32) 
adg

>  <m_score__min__energy>  (32) 
-6.3899999999999997

>  <m_primary>  (32) 
energy

$$$$
32:0
     RDKit          3D

 34 36  0  0  0  0  0  0  0  0999 V2000
   65.1680   32.7300   49.7520 C   0  0  0  0  0  0  0  0  0  0  0  0
   64.1780   33.7480   49.6440 O   0  0  0  0  0  0  0  0  0  0  0  0
   62.9890   33.6190   48.9120 C   0  0  0  0  0  0  0  0  0  0  0  0
   63.0680   33.5910   47.5130 C   0  0  0  0  0  0  0  0  0  0  0  0
   61.9120   33.4610   46.7390 C   0  0  0  0  0  0  0  0  0  0  0  0
   60.6610   33.3410   47.3570 C   0  0  0  0  0  0  0  0  0  0  0  0
   59.4760   33.2480   46.5600 N   0  0  0  0  0  0  0  0  0  0  0  0
   58.7620   34.3080   46.1870 N   0  0  0  0  0  0  0  0  0  0  0  0
   57.6640   33.8920   45.5150 C   0  0  0  0  0  0  0  0  0  0  0  0
   56.6620   34.7930   44.8700 C   0  0  0  0  0  0  0  0  0  0  0  0
   57.7160   32.5200   45.4470 C   0  0  0  0  0  0  0  0  0  0  0  0
   56.8840   31.6420   44.8410 N   0  0  0  0  0  0  0  0  0  0  0  0
   57.2080   30.3150   44.8870 C   0  0  0  0  0  0  0  0  0  0  0  0
   56.2960   29.3070   44.2700 C   0  0  0  0  0  0  0  0  0  0  0  0
   58.3480   29.9020   45.5280 N   0  0  0  0  0  0  0  0  0  0  0  0
   59.1980   30.7830   46.1360 C   0  0  0  0  0  0  0  0  0  0  0  0
   60.8180   30.1090   46.8960 Br  0  0  0  0  0  0  0  0  0  0  0  0
   58.8480   32.1380   46.1030 C   0  0  0  0  0  0  0  0  0  0  0  0
   60.5710   33.3910   48.7540 C   0  0  0  0  0  0  0  0  0  0  0  0
   61.7270   33.5210   49.5300 C   0  0  0  0  0  0  0  0  0  0  0  0
   65.3681   32.5243   50.8139 H   0  0  0  0  0  0  0  0  0  0  0  0
   64.8064   31.8135   49.2628 H   0  0  0  0  0  0  0  0  0  0  0  0
   66.0942   33.0659   49.2628 H   0  0  0  0  0  0  0  0  0  0  0  0
   64.0481   33.6720   47.0203 H   0  0  0  0  0  0  0  0  0  0  0  0
   61.9847   33.4529   45.6414 H   0  0  0  0  0  0  0  0  0  0  0  0
   59.0160   35.2990   46.3980 H   0  0  0  0  0  0  0  0  0  0  0  0
   56.0831   35.3135   45.6471 H   0  0  0  0  0  0  0  0  0  0  0  0
   57.1831   35.5323   44.2440 H   0  0  0  0  0  0  0  0  0  0  0  0
   55.9820   34.1966   44.2440 H   0  0  0  0  0  0  0  0  0  0  0  0
   55.7844   28.7416   45.0628 H   0  0  0  0  0  0  0  0  0  0  0  0
   55.5498   29.8209   43.6463 H   0  0  0  0  0  0  0  0  0  0  0  0
   56.8818   28.6158   43.6463 H   0  0  0  0  0  0  0  0  0  0  0  0
   59.5874   33.3278   49.2424 H   0  0  0  0  0  0  0  0  0  0  0  0
   61.6506   33.5468   50.6270 H   0  0  0  0  0  0  0  0  0  0  0  0
  1  2  1  0
  2  3  1  0
  3  4  2  0
  4  5  1  0
  5  6  2  0
  6  7  1  0
  7  8  1  0
  8  9  2  0
  9 10  1  0
  9 11  1  0
 11 12  2  0
 12 13  1  0
 13 14  1  0
 13 15  2  0
 15 16  1  0
 16 17  1  0
 16 18  2  0
  6 19  1  0
 19 20  2  0
 20  3  1  0
 18  7  1  0
 18 11  1  0
  1 21  1  0
  1 22  1  0
  1 23  1  0
  4 24  1  0
  5 25  1  0
  8 26  1  0
 10 27  1  0
 10 28  1  0
 10 29  1  0
 14 30  1  0
 14 31  1  0
 14 32  1  0
 19 33  1  0
 20 34  1  0
M  CHG  1   8   1
M  END
>  <UniqueID>  (33) 
32

>  <SMILES>  (33) 
COc1ccc(-n2[nH+]c(C)c3nc(C)nc(Br)c32)cc1

>  <Energy>  (33) 
85.42990408711024

>  <Genealogy>  (33) 
COc1ccc(-n2[nH+]c(C)c3nc(C)nc(Br)c32)cc1 (protonated)
COc1ccc(-n2[nH+]c(C)c3nc(C)nc(Br)c32)cc1 (3D coordinates assigned)
COc1ccc(-n2[nH+]c(C)c3nc(C)nc(Br)c32)cc1 (optimized conformer: 85.42990408711024 kcal/mol)

>  <smiles>  (33) 
COc1ccc(-n2nc(C)c3nc(C)nc(Br)c32)cc1

>  <score_type>  (33) 
oracle

>  <origin>  (33) 
adg

>  <m_score__min__energy>  (33) 
-5.2000000000000002

>  <m_primary>  (33) 
energy

$$$$
33:0
     RDKit          3D

 22 23  0  0  0  0  0  0  0  0999 V2000
   57.7430   32.3400   41.1380 C   0  0  0  0  0  0  0  0  0  0  0  0
   57.4790   31.9370   42.5530 C   0  0  0  0  0  0  0  0  0  0  0  0
   56.6640   30.8370   42.8340 C   0  0  0  0  0  0  0  0  0  0  0  0
   56.4530   30.5080   44.1700 C   0  0  0  0  0  0  0  0  0  0  0  0
   55.7280   29.5270   44.4770 O   0  0  0  0  0  0  0  0  0  0  0  0
   57.0350   31.2520   45.1430 N   0  0  0  0  0  0  0  0  0  0  0  0
   57.8230   32.3160   44.8260 C   0  0  0  0  0  0  0  0  0  0  0  0
   58.4570   33.1250   45.8830 C   0  0  0  0  0  0  0  0  0  0  0  0
   59.1020   34.3390   45.5900 C   0  0  0  0  0  0  0  0  0  0  0  0
   59.6890   35.0710   46.6250 C   0  0  0  0  0  0  0  0  0  0  0  0
   59.6310   34.5930   47.9350 C   0  0  0  0  0  0  0  0  0  0  0  0
   58.9830   33.3830   48.1920 C   0  0  0  0  0  0  0  0  0  0  0  0
   58.4180   32.6850   47.1710 N   0  0  0  0  0  0  0  0  0  0  0  0
   58.0240   32.6310   43.5490 O   0  0  0  0  0  0  0  0  0  0  0  0
   58.3457   33.2601   41.1252 H   0  0  0  0  0  0  0  0  0  0  0  0
   58.2901   31.5361   40.6238 H   0  0  0  0  0  0  0  0  0  0  0  0
   56.7875   32.5204   40.6238 H   0  0  0  0  0  0  0  0  0  0  0  0
   56.2040   30.2500   42.0254 H   0  0  0  0  0  0  0  0  0  0  0  0
   59.1442   34.7094   44.5551 H   0  0  0  0  0  0  0  0  0  0  0  0
   60.1961   36.0227   46.4078 H   0  0  0  0  0  0  0  0  0  0  0  0
   60.0906   35.1630   48.7559 H   0  0  0  0  0  0  0  0  0  0  0  0
   58.9297   32.9948   49.2198 H   0  0  0  0  0  0  0  0  0  0  0  0
  1  2  1  0
  2  3  2  0
  3  4  1  0
  4  5  2  0
  4  6  1  0
  6  7  2  0
  7  8  1  0
  8  9  2  0
  9 10  1  0
 10 11  2  0
 11 12  1  0
 12 13  2  0
  7 14  1  0
 14  2  1  0
 13  8  1  0
  1 15  1  0
  1 16  1  0
  1 17  1  0
  3 18  1  0
  9 19  1  0
 10 20  1  0
 11 21  1  0
 12 22  1  0
M  END
>  <UniqueID>  (34) 
33

>  <SMILES>  (34) 
Cc1cc(=O)nc(-c2ccccn2)o1

>  <Energy>  (34) 
23.63260655994341

>  <Genealogy>  (34) 
Cc1cc(=O)nc(-c2ccccn2)o1 (3D coordinates assigned)
Cc1cc(=O)nc(-c2ccccn2)o1 (optimized conformer: 23.63260655994341 kcal/mol)

>  <smiles>  (34) 
Cc1cc(=O)nc(-c2ccccn2)o1

>  <score_type>  (34) 
oracle

>  <origin>  (34) 
adg

>  <m_score__min__energy>  (34) 
-6.4199999999999999

>  <m_primary>  (34) 
energy

$$$$
34:0
     RDKit          3D

 61 65  0  0  0  0  0  0  0  0999 V2000
   56.8290   27.3880   45.4200 O   0  0  0  0  0  0  0  0  0  0  0  0
   56.9890   28.6180   45.6330 C   0  0  0  0  0  0  0  0  0  0  0  0
   56.0430   29.5350   45.0650 N   0  0  0  0  0  0  0  0  0  0  0  0
   56.0590   30.1390   43.7330 C   0  0  0  0  0  0  0  0  0  0  0  0
   57.4330   30.7370   43.3860 C   0  0  0  0  0  0  0  0  0  0  0  0
   57.3890   32.2610   43.2150 C   0  0  0  0  0  0  0  0  0  0  0  0
   58.5230   32.9640   43.9790 C   0  0  0  0  0  0  0  0  0  0  0  0
   58.0190   34.0670   44.8330 N   0  0  0  0  0  0  0  0  0  0  0  0
   59.1260   34.9060   45.3690 C   0  0  0  0  0  0  0  0  0  0  0  0
   59.3430   34.7880   46.8940 C   0  0  0  0  0  0  0  0  0  0  0  0
   59.1030   33.3480   47.3860 C   0  0  0  0  0  0  0  0  0  0  0  0
   59.3910   33.1920   48.8820 C   0  0  0  0  0  0  0  0  0  0  0  0
   58.3830   32.5920   49.6670 C   0  0  0  0  0  0  0  0  0  0  0  0
   58.5550   32.3770   51.0300 C   0  0  0  0  0  0  0  0  0  0  0  0
   59.7380   32.7490   51.6550 C   0  0  0  0  0  0  0  0  0  0  0  0
   60.7680   33.3450   50.9190 C   0  0  0  0  0  0  0  0  0  0  0  0
   61.9560   33.7130   51.5730 C   0  0  0  0  0  0  0  0  0  0  0  0
   62.9950   34.3110   50.8630 C   0  0  0  0  0  0  0  0  0  0  0  0
   62.8600   34.5470   49.4980 C   0  0  0  0  0  0  0  0  0  0  0  0
   61.6870   34.1860   48.8310 C   0  0  0  0  0  0  0  0  0  0  0  0
   60.6130   33.5770   49.5210 C   0  0  0  0  0  0  0  0  0  0  0  0
   57.7280   32.7770   46.9620 C   0  0  0  0  0  0  0  0  0  0  0  0
   57.0600   33.6390   45.8780 C   0  0  0  0  0  0  0  0  0  0  0  0
   58.1540   29.0470   46.4320 C   0  0  0  0  0  0  0  0  0  0  0  0
   59.1460   29.9150   45.9690 C   0  0  0  0  0  0  0  0  0  0  0  0
   60.1230   30.1760   46.9330 C   0  0  0  0  0  0  0  0  0  0  0  0
   61.2130   31.0380   46.7870 C   0  0  0  0  0  0  0  0  0  0  0  0
   62.0920   31.2060   47.8700 C   0  0  0  0  0  0  0  0  0  0  0  0
   61.8770   30.5140   49.0790 C   0  0  0  0  0  0  0  0  0  0  0  0
   62.9770   30.7440   50.4240 Cl  0  0  0  0  0  0  0  0  0  0  0  0
   60.7780   29.6490   49.2140 C   0  0  0  0  0  0  0  0  0  0  0  0
   59.9200   29.5020   48.1270 C   0  0  0  0  0  0  0  0  0  0  0  0
   58.5280   28.5740   48.0160 S   0  0  0  0  0  0  0  0  0  0  0  0
   55.8103   29.3667   42.9902 H   0  0  0  0  0  0  0  0  0  0  0  0
   55.3215   30.9551   43.7220 H   0  0  0  0  0  0  0  0  0  0  0  0
   58.1372   30.4938   44.1953 H   0  0  0  0  0  0  0  0  0  0  0  0
   57.7512   30.3039   42.4262 H   0  0  0  0  0  0  0  0  0  0  0  0
   57.4810   32.5003   42.1453 H   0  0  0  0  0  0  0  0  0  0  0  0
   56.4330   32.6194   43.6245 H   0  0  0  0  0  0  0  0  0  0  0  0
   59.0323   32.2261   44.6163 H   0  0  0  0  0  0  0  0  0  0  0  0
   59.2133   33.3959   43.2395 H   0  0  0  0  0  0  0  0  0  0  0  0
   60.0574   34.6071   44.8659 H   0  0  0  0  0  0  0  0  0  0  0  0
   58.8464   35.9519   45.1742 H   0  0  0  0  0  0  0  0  0  0  0  0
   60.3764   35.0800   47.1321 H   0  0  0  0  0  0  0  0  0  0  0  0
   58.6242   35.4505   47.3983 H   0  0  0  0  0  0  0  0  0  0  0  0
   59.8408   32.7191   46.8661 H   0  0  0  0  0  0  0  0  0  0  0  0
   57.4399   32.2875   49.1897 H   0  0  0  0  0  0  0  0  0  0  0  0
   57.7499   31.9099   51.6162 H   0  0  0  0  0  0  0  0  0  0  0  0
   59.8659   32.5743   52.7335 H   0  0  0  0  0  0  0  0  0  0  0  0
   62.0663   33.5279   52.6517 H   0  0  0  0  0  0  0  0  0  0  0  0
   63.9222   34.5967   51.3814 H   0  0  0  0  0  0  0  0  0  0  0  0
   63.6819   35.0206   48.9411 H   0  0  0  0  0  0  0  0  0  0  0  0
   61.5971   34.3785   47.7517 H   0  0  0  0  0  0  0  0  0  0  0  0
   57.8710   31.7594   46.5694 H   0  0  0  0  0  0  0  0  0  0  0  0
   57.0732   32.7721   47.8458 H   0  0  0  0  0  0  0  0  0  0  0  0
   56.2580   33.0537   45.4044 H   0  0  0  0  0  0  0  0  0  0  0  0
   56.6633   34.5432   46.3628 H   0  0  0  0  0  0  0  0  0  0  0  0
   59.1567   30.3456   44.9568 H   0  0  0  0  0  0  0  0  0  0  0  0
   61.3798   31.5751   45.8416 H   0  0  0  0  0  0  0  0  0  0  0  0
   62.9541   31.8824   47.7738 H   0  0  0  0  0  0  0  0  0  0  0  0
   60.6003   29.1031   50.1523 H   0  0  0  0  0  0  0  0  0  0  0  0
  1  2  2  0
  2  3  1  0
  3  4  1  0
  4  5  1  0
  5  6  1  0
  6  7  1  0
  7  8  1  0
  8  9  1  0
  9 10  1  0
 10 11  1  0
 11 12  1  0
 12 13  2  0
 13 14  1  0
 14 15  2  0
 15 16  1  0
 16 17  2  0
 17 18  1  0
 18 19  2  0
 19 20  1  0
 20 21  2  0
 11 22  1  0
 22 23  1  0
  2 24  1  0
 24 25  2  0
 25 26  1  0
 26 27  2  0
 27 28  1  0
 28 29  2  0
 29 30  1  0
 29 31  1  0
 31 32  2  0
 32 33  1  0
 23  8  1  0
 33 24  1  0
 21 12  1  0
 32 26  1  0
 21 16  1  0
  4 34  1  0
  4 35  1  0
  5 36  1  0
  5 37  1  0
  6 38  1  0
  6 39  1  0
  7 40  1  0
  7 41  1  0
  9 42  1  0
  9 43  1  0
 10 44  1  0
 10 45  1  0
 11 46  1  0
 13 47  1  0
 14 48  1  0
 15 49  1  0
 17 50  1  0
 18 51  1  0
 19 52  1  0
 20 53  1  0
 22 54  1  0
 22 55  1  0
 23 56  1  0
 23 57  1  0
 25 58  1  0
 27 59  1  0
 28 60  1  0
 31 61  1  0
M  CHG  1   3  -1
M  END
>  <UniqueID>  (35) 
34

>  <SMILES>  (35) 
O=C([N-]CCCCN1CCC(c2cccc3ccccc23)CC1)c1cc2ccc(Cl)cc2s1

>  <Energy>  (35) 
115.01665384585942

>  <Genealogy>  (35) 
O=C([N-]CCCCN1CCC(c2cccc3ccccc23)CC1)c1cc2ccc(Cl)cc2s1 (protonated)
O=C([N-]CCCCN1CCC(c2cccc3ccccc23)CC1)c1cc2ccc(Cl)cc2s1 (3D coordinates assigned)
O=C([N-]CCCCN1CCC(c2cccc3ccccc23)CC1)c1cc2ccc(Cl)cc2s1 (nonaromatic ring conformer: 115.01665384585942 kcal/mol)

>  <smiles>  (35) 
O=C(NCCCCN1CCC(c2cccc3ccccc23)CC1)c1cc2ccc(Cl)cc2s1

>  <score_type>  (35) 
oracle

>  <origin>  (35) 
adg

>  <m_score__min__energy>  (35) 
-11.41

>  <m_primary>  (35) 
energy

$$$$
35:0
     RDKit          3D

 45 46  0  0  0  0  0  0  0  0999 V2000
   59.2970   29.9180   48.5050 C   0  0  0  0  0  0  0  0  0  0  0  0
   58.5200   31.1010   48.6740 O   0  0  0  0  0  0  0  0  0  0  0  0
   58.7670   32.3220   48.0220 C   0  0  0  0  0  0  0  0  0  0  0  0
   58.3310   32.5600   46.7010 C   0  0  0  0  0  0  0  0  0  0  0  0
   58.5760   33.7920   46.0900 C   0  0  0  0  0  0  0  0  0  0  0  0
   59.2440   34.8040   46.7840 C   0  0  0  0  0  0  0  0  0  0  0  0
   59.6830   34.5800   48.0920 C   0  0  0  0  0  0  0  0  0  0  0  0
   59.4670   33.3370   48.7130 C   0  0  0  0  0  0  0  0  0  0  0  0
   59.9100   33.1430   50.1430 C   0  0  0  0  0  0  0  0  0  0  0  0
   58.7930   32.6430   50.9390 N   0  0  0  0  0  0  0  0  0  0  0  0
   58.3500   33.3150   52.1310 C   0  0  0  0  0  0  0  0  0  0  0  0
   58.4810   34.5670   52.2470 O   0  0  0  0  0  0  0  0  0  0  0  0
   57.7200   32.5260   53.2430 C   0  0  0  0  0  0  0  0  0  0  0  0
   57.7150   31.1370   52.9160 O   0  0  0  0  0  0  0  0  0  0  0  0
   56.7970   30.5600   52.0290 C   0  0  0  0  0  0  0  0  0  0  0  0
   57.1870   30.1080   50.9150 O   0  0  0  0  0  0  0  0  0  0  0  0
   55.3660   30.5080   52.3930 C   0  0  0  0  0  0  0  0  0  0  0  0
   54.9620   30.0760   53.6640 C   0  0  0  0  0  0  0  0  0  0  0  0
   53.6050   29.9870   53.9820 C   0  0  0  0  0  0  0  0  0  0  0  0
   52.6200   30.3290   53.0340 C   0  0  0  0  0  0  0  0  0  0  0  0
   51.2520   30.2460   53.3410 O   0  0  0  0  0  0  0  0  0  0  0  0
   50.5100   29.0290   53.4610 C   0  0  0  0  0  0  0  0  0  0  0  0
   53.0160   30.7680   51.7470 C   0  0  0  0  0  0  0  0  0  0  0  0
   52.0470   31.1190   50.7350 N   0  0  0  0  0  0  0  0  0  0  0  0
   51.7710   30.3370   49.8020 O   0  0  0  0  0  0  0  0  0  0  0  0
   51.4180   32.3420   50.7720 O   0  0  0  0  0  0  0  0  0  0  0  0
   54.3890   30.8560   51.4460 C   0  0  0  0  0  0  0  0  0  0  0  0
   59.5644   29.5109   49.4913 H   0  0  0  0  0  0  0  0  0  0  0  0
   58.7124   29.1720   47.9466 H   0  0  0  0  0  0  0  0  0  0  0  0
   60.2138   30.1581   47.9466 H   0  0  0  0  0  0  0  0  0  0  0  0
   57.7961   31.7722   46.1503 H   0  0  0  0  0  0  0  0  0  0  0  0
   58.2412   33.9664   45.0568 H   0  0  0  0  0  0  0  0  0  0  0  0
   59.4243   35.7760   46.3016 H   0  0  0  0  0  0  0  0  0  0  0  0
   60.2009   35.3814   48.6392 H   0  0  0  0  0  0  0  0  0  0  0  0
   60.7359   32.4172   50.1750 H   0  0  0  0  0  0  0  0  0  0  0  0
   60.2489   34.1055   50.5538 H   0  0  0  0  0  0  0  0  0  0  0  0
   58.4530   31.6700   50.7490 H   0  0  0  0  0  0  0  0  0  0  0  0
   58.2937   32.6799   54.1688 H   0  0  0  0  0  0  0  0  0  0  0  0
   56.6837   32.8667   53.3843 H   0  0  0  0  0  0  0  0  0  0  0  0
   55.7184   29.8055   54.4154 H   0  0  0  0  0  0  0  0  0  0  0  0
   53.3019   29.6463   54.9830 H   0  0  0  0  0  0  0  0  0  0  0  0
   50.3651   28.7913   54.5252 H   0  0  0  0  0  0  0  0  0  0  0  0
   49.5303   29.1474   52.9750 H   0  0  0  0  0  0  0  0  0  0  0  0
   51.0640   28.2123   52.9750 H   0  0  0  0  0  0  0  0  0  0  0  0
   54.7020   31.2038   50.4505 H   0  0  0  0  0  0  0  0  0  0  0  0
  1  2  1  0
  2  3  1  0
  3  4  2  0
  4  5  1  0
  5  6  2  0
  6  7  1  0
  7  8  2  0
  8  9  1  0
  9 10  1  0
 10 11  1  0
 11 12  2  0
 11 13  1  0
 13 14  1  0
 14 15  1  0
 15 16  2  0
 15 17  1  0
 17 18  2  0
 18 19  1  0
 19 20  2  0
 20 21  1  0
 21 22  1  0
 20 23  1  0
 23 24  1  0
 24 25  2  0
 24 26  1  0
 23 27  2  0
  8  3  1  0
 27 17  1  0
  1 28  1  0
  1 29  1  0
  1 30  1  0
  4 31  1  0
  5 32  1  0
  6 33  1  0
  7 34  1  0
  9 35  1  0
  9 36  1  0
 10 37  1  0
 13 38  1  0
 13 39  1  0
 18 40  1  0
 19 41  1  0
 22 42  1  0
 22 43  1  0
 22 44  1  0
 27 45  1  0
M  CHG  2  24   1  26  -1
M  END
>  <UniqueID>  (36) 
35

>  <SMILES>  (36) 
COc1ccccc1CNC(=O)COC(=O)c1ccc(OC)c([N+](=O)[O-])c1

>  <Energy>  (36) 
40.25276525046698

>  <Genealogy>  (36) 
COc1ccccc1CNC(=O)COC(=O)c1ccc(OC)c([N+](=O)[O-])c1 (3D coordinates assigned)
COc1ccccc1CNC(=O)COC(=O)c1ccc(OC)c([N+](=O)[O-])c1 (optimized conformer: 40.25276525046698 kcal/mol)

>  <smiles>  (36) 
COc1ccccc1CNC(=O)COC(=O)c1ccc(OC)c([N+](=O)[O-])c1

>  <score_type>  (36) 
oracle

>  <origin>  (36) 
adg

>  <m_score__min__energy>  (36) 
-7.7800000000000002

>  <m_primary>  (36) 
energy

$$$$
36:0
     RDKit          3D

 34 35  0  0  0  0  0  0  0  0999 V2000
   55.2360   30.7740   44.1570 O   0  0  0  0  0  0  0  0  0  0  0  0
   56.2640   30.0450   44.1400 C   0  0  0  0  0  0  0  0  0  0  0  0
   56.4030   29.0320   45.1460 N   0  0  0  0  0  0  0  0  0  0  0  0
   57.8210   28.0720   45.4180 S   0  0  0  0  0  0  0  0  0  0  0  0
   57.4460   26.8590   46.2180 O   0  0  0  0  0  0  0  0  0  0  0  0
   58.3940   27.6310   44.1000 O   0  0  0  0  0  0  0  0  0  0  0  0
   59.0080   28.9990   46.3140 C   0  0  0  0  0  0  0  0  0  0  0  0
   60.1030   29.6510   45.7690 C   0  0  0  0  0  0  0  0  0  0  0  0
   60.8860   30.2980   46.7330 C   0  0  0  0  0  0  0  0  0  0  0  0
   60.4070   30.1520   48.0290 C   0  0  0  0  0  0  0  0  0  0  0  0
   59.0080   29.2180   47.9790 S   0  0  0  0  0  0  0  0  0  0  0  0
   57.2440   30.2250   43.0990 N   0  0  0  0  0  0  0  0  0  0  0  0
   58.1430   31.3560   43.3950 C   0  0  0  0  0  0  0  0  0  0  0  0
   57.4380   32.5230   44.1130 C   0  0  0  0  0  0  0  0  0  0  0  0
   58.1730   32.9590   45.3540 C   0  0  0  0  0  0  0  0  0  0  0  0
   57.7970   32.4670   46.6170 C   0  0  0  0  0  0  0  0  0  0  0  0
   58.4960   32.8600   47.7620 C   0  0  0  0  0  0  0  0  0  0  0  0
   59.5760   33.7430   47.6590 C   0  0  0  0  0  0  0  0  0  0  0  0
   60.4510   34.2310   49.0970 Cl  0  0  0  0  0  0  0  0  0  0  0  0
   59.9570   34.2340   46.4060 C   0  0  0  0  0  0  0  0  0  0  0  0
   59.2610   33.8440   45.2580 C   0  0  0  0  0  0  0  0  0  0  0  0
   60.3326   29.6593   44.6933 H   0  0  0  0  0  0  0  0  0  0  0  0
   61.7943   30.8679   46.4874 H   0  0  0  0  0  0  0  0  0  0  0  0
   60.8650   30.5755   48.9350 H   0  0  0  0  0  0  0  0  0  0  0  0
   56.7660   30.4040   42.1880 H   0  0  0  0  0  0  0  0  0  0  0  0
   57.7900   29.3420   42.9760 H   0  0  0  0  0  0  0  0  0  0  0  0
   58.9601   30.9940   44.0363 H   0  0  0  0  0  0  0  0  0  0  0  0
   58.5110   31.7404   42.4323 H   0  0  0  0  0  0  0  0  0  0  0  0
   57.3737   33.3763   43.4219 H   0  0  0  0  0  0  0  0  0  0  0  0
   56.4395   32.1764   44.4177 H   0  0  0  0  0  0  0  0  0  0  0  0
   56.9500   31.7706   46.7040 H   0  0  0  0  0  0  0  0  0  0  0  0
   58.1958   32.4736   48.7472 H   0  0  0  0  0  0  0  0  0  0  0  0
   60.8061   34.9285   46.3237 H   0  0  0  0  0  0  0  0  0  0  0  0
   59.5662   34.2315   44.2748 H   0  0  0  0  0  0  0  0  0  0  0  0
  1  2  2  0
  2  3  1  0
  3  4  1  0
  4  5  2  0
  4  6  2  0
  4  7  1  0
  7  8  2  0
  8  9  1  0
  9 10  2  0
 10 11  1  0
  2 12  1  0
 12 13  1  0
 13 14  1  0
 14 15  1  0
 15 16  2  0
 16 17  1  0
 17 18  2  0
 18 19  1  0
 18 20  1  0
 20 21  2  0
 11  7  1  0
 21 15  1  0
  8 22  1  0
  9 23  1  0
 10 24  1  0
 12 25  1  0
 12 26  1  0
 13 27  1  0
 13 28  1  0
 14 29  1  0
 14 30  1  0
 16 31  1  0
 17 32  1  0
 20 33  1  0
 21 34  1  0
M  CHG  2   3  -1  12   1
M  END
>  <UniqueID>  (37) 
36

>  <SMILES>  (37) 
O=C([N-]S(=O)(=O)c1cccs1)[NH2+]CCc1ccc(Cl)cc1

>  <Energy>  (37) 
61.77842947478762

>  <Genealogy>  (37) 
O=C([N-]S(=O)(=O)c1cccs1)[NH2+]CCc1ccc(Cl)cc1 (protonated)
O=C([N-]S(=O)(=O)c1cccs1)[NH2+]CCc1ccc(Cl)cc1 (3D coordinates assigned)
O=C([N-]S(=O)(=O)c1cccs1)[NH2+]CCc1ccc(Cl)cc1 (optimized conformer: 61.77842947478762 kcal/mol)

>  <smiles>  (37) 
O=C(NCCc1ccc(Cl)cc1)NS(=O)(=O)c1cccs1

>  <score_type>  (37) 
oracle

>  <origin>  (37) 
adg

>  <m_score__min__energy>  (37) 
-7.5300000000000002

>  <m_primary>  (37) 
energy

$$$$
37:0
     RDKit          3D

 30 31  0  0  0  0  0  0  0  0999 V2000
   61.7320   31.1460   47.0790 C   0  0  0  0  0  0  0  0  0  0  0  0
   61.0060   32.2540   47.7390 N   0  0  1  0  0  0  0  0  0  0  0  0
   61.9150   33.1110   48.4850 C   0  0  0  0  0  0  0  0  0  0  0  0
   63.1310   32.9880   48.3890 O   0  0  0  0  0  0  0  0  0  0  0  0
   61.3770   34.2010   49.3690 C   0  0  0  0  0  0  0  0  0  0  0  0
   59.8690   34.3460   49.2120 C   0  0  0  0  0  0  0  0  0  0  0  0
   59.4310   34.5690   47.4560 S   0  0  0  0  0  0  0  0  0  0  0  0
   60.2450   33.0630   46.7470 C   0  0  2  0  0  0  0  0  0  0  0  0
   59.1780   32.2390   46.0490 C   0  0  0  0  0  0  0  0  0  0  0  0
   58.8210   30.9760   46.5470 C   0  0  0  0  0  0  0  0  0  0  0  0
   57.8280   30.2190   45.9180 C   0  0  0  0  0  0  0  0  0  0  0  0
   57.1720   30.7110   44.7760 C   0  0  0  0  0  0  0  0  0  0  0  0
   56.1510   29.9290   44.1300 N   0  0  0  0  0  0  0  0  0  0  0  0
   56.1610   29.7680   42.8910 O   0  0  0  0  0  0  0  0  0  0  0  0
   55.1460   29.3450   44.8660 O   0  0  0  0  0  0  0  0  0  0  0  0
   57.5300   31.9760   44.2780 C   0  0  0  0  0  0  0  0  0  0  0  0
   58.5220   32.7320   44.9090 C   0  0  0  0  0  0  0  0  0  0  0  0
   62.1653   30.4846   47.8437 H   0  0  0  0  0  0  0  0  0  0  0  0
   61.0339   30.5727   46.4514 H   0  0  0  0  0  0  0  0  0  0  0  0
   62.5364   31.5572   46.4514 H   0  0  0  0  0  0  0  0  0  0  0  0
   60.3470   31.8140   48.4220 H   0  0  0  0  0  0  0  0  0  0  0  0
   61.6066   33.9586   50.4171 H   0  0  0  0  0  0  0  0  0  0  0  0
   61.8497   35.1504   49.0770 H   0  0  0  0  0  0  0  0  0  0  0  0
   59.3759   33.4409   49.5964 H   0  0  0  0  0  0  0  0  0  0  0  0
   59.5346   35.2280   49.7779 H   0  0  0  0  0  0  0  0  0  0  0  0
   61.0117   33.3950   46.0315 H   0  0  0  0  0  0  0  0  0  0  0  0
   59.3267   30.5787   47.4394 H   0  0  0  0  0  0  0  0  0  0  0  0
   57.5580   29.2312   46.3196 H   0  0  0  0  0  0  0  0  0  0  0  0
   57.0257   32.3738   43.3851 H   0  0  0  0  0  0  0  0  0  0  0  0
   58.7911   33.7210   44.5096 H   0  0  0  0  0  0  0  0  0  0  0  0
  1  2  1  0
  2  3  1  0
  3  4  2  0
  3  5  1  0
  5  6  1  0
  6  7  1  0
  7  8  1  0
  8  9  1  0
  9 10  2  0
 10 11  1  0
 11 12  2  0
 12 13  1  0
 13 14  2  0
 13 15  1  0
 12 16  1  0
 16 17  2  0
  8  2  1  0
 17  9  1  0
  1 18  1  0
  1 19  1  0
  1 20  1  0
  2 21  1  1
  5 22  1  0
  5 23  1  0
  6 24  1  0
  6 25  1  0
  8 26  1  6
 10 27  1  0
 11 28  1  0
 16 29  1  0
 17 30  1  0
M  CHG  3   2   1  13   1  15  -1
M  END
>  <UniqueID>  (38) 
37

>  <SMILES>  (38) 
C[N@H+]1C(=O)CCS[C@@H]1c1ccc([N+](=O)[O-])cc1

>  <Energy>  (38) 
37.8538888337032

>  <Genealogy>  (38) 
C[NH+]1C(=O)CCSC1c1ccc([N+](=O)[O-])cc1 (protonated)
C[N@H+]1C(=O)CCS[C@@H]1c1ccc([N+](=O)[O-])cc1 (chirality)
C[N@H+]1C(=O)CCS[C@@H]1c1ccc([N+](=O)[O-])cc1 (3D coordinates assigned)
C[N@H+]1C(=O)CCS[C@@H]1c1ccc([N+](=O)[O-])cc1 (nonaromatic ring conformer: 37.8538888337032 kcal/mol)

>  <smiles>  (38) 
CN1C(=O)CCSC1c1ccc([N+](=O)[O-])cc1

>  <score_type>  (38) 
oracle

>  <origin>  (38) 
adg

>  <m_score__min__energy>  (38) 
-5.29

>  <m_primary>  (38) 
energy

$$$$
38:0
     RDKit          3D

 19 19  0  0  0  0  0  0  0  0999 V2000
   57.0780   27.0260   46.4200 C   0  0  0  0  0  0  0  0  0  0  0  0
   56.7130   25.7210   45.8430 N   0  0  0  0  0  0  0  0  0  0  0  0
   55.3950   25.4230   45.6360 C   0  0  0  0  0  0  0  0  0  0  0  0
   54.4010   26.3390   45.9770 O   0  0  0  0  0  0  0  0  0  0  0  0
   55.0310   24.1940   45.0830 C   0  0  0  0  0  0  0  0  0  0  0  0
   53.6370   23.8620   44.8940 C   0  0  0  0  0  0  0  0  0  0  0  0
   52.5220   23.5960   44.7430 N   0  0  0  0  0  0  0  0  0  0  0  0
   56.0370   23.2970   44.7170 C   0  0  0  0  0  0  0  0  0  0  0  0
   55.7220   22.1690   44.2400 O   0  0  0  0  0  0  0  0  0  0  0  0
   57.3550   23.6380   44.8740 N   0  0  0  0  0  0  0  0  0  0  0  0
   58.4130   22.6850   44.4950 C   0  0  0  0  0  0  0  0  0  0  0  0
   57.6880   24.8400   45.4490 C   0  0  0  0  0  0  0  0  0  0  0  0
   58.9060   25.1370   45.6170 O   0  0  0  0  0  0  0  0  0  0  0  0
   57.0594   26.9596   47.5178 H   0  0  0  0  0  0  0  0  0  0  0  0
   58.0885   27.3046   46.0866 H   0  0  0  0  0  0  0  0  0  0  0  0
   56.3586   27.7885   46.0866 H   0  0  0  0  0  0  0  0  0  0  0  0
   58.8745   22.2693   45.4029 H   0  0  0  0  0  0  0  0  0  0  0  0
   57.9761   21.8698   43.8996 H   0  0  0  0  0  0  0  0  0  0  0  0
   59.1783   23.2045   43.8996 H   0  0  0  0  0  0  0  0  0  0  0  0
  1  2  1  0
  2  3  1  0
  3  4  1  0
  3  5  2  0
  5  6  1  0
  6  7  3  0
  5  8  1  0
  8  9  2  0
  8 10  1  0
 10 11  1  0
 10 12  1  0
 12 13  2  0
 12  2  1  0
  1 14  1  0
  1 15  1  0
  1 16  1  0
 11 17  1  0
 11 18  1  0
 11 19  1  0
M  CHG  1   4  -1
M  END
>  <UniqueID>  (39) 
38

>  <SMILES>  (39) 
Cn1c([O-])c(C#N)c(=O)n(C)c1=O

>  <Energy>  (39) 
25.206139559115904

>  <Genealogy>  (39) 
Cn1c([O-])c(C#N)c(=O)n(C)c1=O (protonated)
Cn1c([O-])c(C#N)c(=O)n(C)c1=O (3D coordinates assigned)
Cn1c([O-])c(C#N)c(=O)n(C)c1=O (optimized conformer: 25.206139559115904 kcal/mol)

>  <smiles>  (39) 
Cn1c(O)c(C#N)c(=O)n(C)c1=O

>  <score_type>  (39) 
oracle

>  <origin>  (39) 
adg

>  <m_score__min__energy>  (39) 
-8.1099999999999994

>  <m_primary>  (39) 
energy

$$$$
39:0
     RDKit          3D

 61 65  0  0  0  0  0  0  0  0999 V2000
   62.8230   32.9890   48.6940 O   0  0  0  0  0  0  0  0  0  0  0  0
   61.7260   32.5630   49.1510 C   0  0  0  0  0  0  0  0  0  0  0  0
   61.6510   31.1730   49.7100 C   0  0  0  0  0  0  0  0  0  0  0  0
   60.3070   30.9200   50.2640 N   0  0  0  0  0  0  0  0  0  0  0  0
   59.3450   30.2630   49.5230 C   0  0  0  0  0  0  0  0  0  0  0  0
   59.6120   29.7860   47.8040 S   0  0  0  0  0  0  0  0  0  0  0  0
   59.9740   28.0320   48.1770 C   0  0  0  0  0  0  0  0  0  0  0  0
   59.1440   27.1100   47.3230 C   0  0  0  0  0  0  0  0  0  0  0  0
   57.7760   27.3660   47.1170 C   0  0  0  0  0  0  0  0  0  0  0  0
   56.9980   26.4810   46.3640 C   0  0  0  0  0  0  0  0  0  0  0  0
   57.5780   25.3370   45.8090 C   0  0  0  0  0  0  0  0  0  0  0  0
   56.8210   24.4770   45.0810 F   0  0  0  0  0  0  0  0  0  0  0  0
   58.9390   25.0750   46.0070 C   0  0  0  0  0  0  0  0  0  0  0  0
   59.7210   25.9570   46.7620 C   0  0  0  0  0  0  0  0  0  0  0  0
   58.1390   29.9530   50.0810 N   0  0  0  0  0  0  0  0  0  0  0  0
   57.8390   30.2910   51.3610 C   0  0  0  0  0  0  0  0  0  0  0  0
   56.7160   29.9950   51.8480 O   0  0  0  0  0  0  0  0  0  0  0  0
   58.7880   30.9680   52.1120 C   0  0  0  0  0  0  0  0  0  0  0  0
   60.0030   31.2670   51.5560 C   0  0  0  0  0  0  0  0  0  0  0  0
   60.8790   31.9830   52.5260 C   0  0  0  0  0  0  0  0  0  0  0  0
   60.0050   32.1400   53.7860 C   0  0  0  0  0  0  0  0  0  0  0  0
   58.6720   31.4250   53.5170 C   0  0  0  0  0  0  0  0  0  0  0  0
   60.5630   33.4030   49.1420 N   0  0  0  0  0  0  0  0  0  0  0  0
   60.4630   34.5750   48.2800 C   0  0  0  0  0  0  0  0  0  0  0  0
   59.6390   34.2430   47.0770 C   0  0  0  0  0  0  0  0  0  0  0  0
   58.4330   33.5800   47.0710 C   0  0  0  0  0  0  0  0  0  0  0  0
   58.1320   33.3740   45.7780 N   0  0  0  0  0  0  0  0  0  0  0  0
   56.9250   32.7490   45.2540 C   0  0  0  0  0  0  0  0  0  0  0  0
   57.2510   31.3880   44.7080 C   0  0  0  0  0  0  0  0  0  0  0  0
   56.2710   30.6440   44.0340 C   0  0  0  0  0  0  0  0  0  0  0  0
   56.5560   29.3580   43.5700 C   0  0  0  0  0  0  0  0  0  0  0  0
   57.8200   28.7950   43.7830 C   0  0  0  0  0  0  0  0  0  0  0  0
   58.1390   27.1690   43.1930 Cl  0  0  0  0  0  0  0  0  0  0  0  0
   58.8030   29.5280   44.4700 C   0  0  0  0  0  0  0  0  0  0  0  0
   60.3970   28.8490   44.7750 Cl  0  0  0  0  0  0  0  0  0  0  0  0
   58.5130   30.8180   44.9330 C   0  0  0  0  0  0  0  0  0  0  0  0
   59.0980   33.8860   45.0310 N   0  0  0  0  0  0  0  0  0  0  0  0
   60.0420   34.4110   45.8010 N   0  0  0  0  0  0  0  0  0  0  0  0
   61.8567   30.4474   48.9092 H   0  0  0  0  0  0  0  0  0  0  0  0
   62.3963   31.0673   50.5121 H   0  0  0  0  0  0  0  0  0  0  0  0
   61.0393   27.8369   47.9846 H   0  0  0  0  0  0  0  0  0  0  0  0
   59.7290   27.8431   49.2326 H   0  0  0  0  0  0  0  0  0  0  0  0
   57.3163   28.2665   47.5503 H   0  0  0  0  0  0  0  0  0  0  0  0
   55.9284   26.6855   46.2084 H   0  0  0  0  0  0  0  0  0  0  0  0
   59.3944   24.1748   45.5686 H   0  0  0  0  0  0  0  0  0  0  0  0
   60.7897   25.7475   46.9168 H   0  0  0  0  0  0  0  0  0  0  0  0
   61.7795   31.3915   52.7478 H   0  0  0  0  0  0  0  0  0  0  0  0
   61.2335   32.9492   52.1378 H   0  0  0  0  0  0  0  0  0  0  0  0
   60.5080   31.6832   54.6510 H   0  0  0  0  0  0  0  0  0  0  0  0
   59.8354   33.2037   54.0091 H   0  0  0  0  0  0  0  0  0  0  0  0
   58.5426   30.5700   54.1969 H   0  0  0  0  0  0  0  0  0  0  0  0
   57.8012   32.0771   53.6798 H   0  0  0  0  0  0  0  0  0  0  0  0
   59.7080   33.0950   49.6550 H   0  0  0  0  0  0  0  0  0  0  0  0
   59.9873   35.3976   48.8341 H   0  0  0  0  0  0  0  0  0  0  0  0
   61.4701   34.8808   47.9603 H   0  0  0  0  0  0  0  0  0  0  0  0
   57.8374   33.2801   47.9458 H   0  0  0  0  0  0  0  0  0  0  0  0
   56.1849   32.6505   46.0618 H   0  0  0  0  0  0  0  0  0  0  0  0
   56.5137   33.3741   44.4478 H   0  0  0  0  0  0  0  0  0  0  0  0
   55.2727   31.0759   43.8701 H   0  0  0  0  0  0  0  0  0  0  0  0
   55.7842   28.7851   43.0350 H   0  0  0  0  0  0  0  0  0  0  0  0
   59.2805   31.3882   45.4770 H   0  0  0  0  0  0  0  0  0  0  0  0
  1  2  2  0
  2  3  1  0
  3  4  1  0
  4  5  1  0
  5  6  1  0
  6  7  1  0
  7  8  1  0
  8  9  2  0
  9 10  1  0
 10 11  2  0
 11 12  1  0
 11 13  1  0
 13 14  2  0
  5 15  2  0
 15 16  1  0
 16 17  2  0
 16 18  1  0
 18 19  2  0
 19 20  1  0
 20 21  1  0
 21 22  1  0
  2 23  1  0
 23 24  1  0
 24 25  1  0
 25 26  2  0
 26 27  1  0
 27 28  1  0
 28 29  1  0
 29 30  2  0
 30 31  1  0
 31 32  2  0
 32 33  1  0
 32 34  1  0
 34 35  1  0
 34 36  2  0
 27 37  1  0
 37 38  2  0
 19  4  1  0
 38 25  1  0
 14  8  1  0
 22 18  1  0
 36 29  1  0
  3 39  1  0
  3 40  1  0
  7 41  1  0
  7 42  1  0
  9 43  1  0
 10 44  1  0
 13 45  1  0
 14 46  1  0
 20 47  1  0
 20 48  1  0
 21 49  1  0
 21 50  1  0
 22 51  1  0
 22 52  1  0
 23 53  1  0
 24 54  1  0
 24 55  1  0
 26 56  1  0
 28 57  1  0
 28 58  1  0
 30 59  1  0
 31 60  1  0
 36 61  1  0
M  END
>  <UniqueID>  (40) 
39

>  <SMILES>  (40) 
O=C(Cn1c(SCc2ccc(F)cc2)nc(=O)c2c1CCC2)NCc1cn(Cc2ccc(Cl)c(Cl)c2)nn1

>  <Energy>  (40) 
101.84649917993244

>  <Genealogy>  (40) 
O=C(Cn1c(SCc2ccc(F)cc2)nc(=O)c2c1CCC2)NCc1cn(Cc2ccc(Cl)c(Cl)c2)nn1 (3D coordinates assigned)
O=C(Cn1c(SCc2ccc(F)cc2)nc(=O)c2c1CCC2)NCc1cn(Cc2ccc(Cl)c(Cl)c2)nn1 (nonaromatic ring conformer: 101.84649917993244 kcal/mol)

>  <smiles>  (40) 
O=C(Cn1c(SCc2ccc(F)cc2)nc(=O)c2c1CCC2)NCc1cn(Cc2ccc(Cl)c(Cl)c2)nn1

>  <score_type>  (40) 
oracle

>  <origin>  (40) 
adg

>  <m_score__min__energy>  (40) 
-11.380000000000001

>  <m_primary>  (40) 
energy

$$$$
40:0
     RDKit          3D

 31 32  0  0  0  0  0  0  0  0999 V2000
   57.3650   33.6555   46.9008 H   0  0  0  0  0  0  0  0  0  0  0  0
   58.4220   33.4390   47.1150 C   0  0  0  0  0  0  0  0  0  0  0  0
   58.8870   32.1650   47.0220 N   0  0  0  0  0  0  0  0  0  0  0  0
   60.1840   31.8400   47.2810 C   0  0  0  0  0  0  0  0  0  0  0  0
   60.5440   30.5940   47.1560 N   0  0  0  0  0  0  0  0  0  0  0  0
   60.0150   29.6040   46.2600 C   0  0  0  0  0  0  0  0  0  0  0  0
   60.4020   27.9630   46.2720 S   0  0  0  0  0  0  0  0  0  0  0  0
   59.2030   27.5550   45.1630 C   0  0  0  0  0  0  0  0  0  0  0  0
   59.0021   26.5484   44.7674 H   0  0  0  0  0  0  0  0  0  0  0  0
   58.5100   28.7190   44.8350 C   0  0  0  0  0  0  0  0  0  0  0  0
   57.3080   28.7280   43.9410 C   0  0  0  0  0  0  0  0  0  0  0  0
   56.8469   27.7293   43.9378 H   0  0  0  0  0  0  0  0  0  0  0  0
   57.6154   28.9957   42.9193 H   0  0  0  0  0  0  0  0  0  0  0  0
   56.3190   29.7300   44.4390 C   0  0  0  0  0  0  0  0  0  0  0  0
   55.1900   29.3450   44.8490 O   0  0  0  0  0  0  0  0  0  0  0  0
   56.6770   31.0810   44.4870 O   0  0  0  0  0  0  0  0  0  0  0  0
   57.3950   31.7400   43.4450 C   0  0  0  0  0  0  0  0  0  0  0  0
   56.6918   32.0379   42.6533 H   0  0  0  0  0  0  0  0  0  0  0  0
   58.1501   31.0493   43.0416 H   0  0  0  0  0  0  0  0  0  0  0  0
   58.0990   32.9800   43.9830 C   0  0  0  0  0  0  0  0  0  0  0  0
   58.0876   32.9600   45.0828 H   0  0  0  0  0  0  0  0  0  0  0  0
   59.1398   32.9941   43.6273 H   0  0  0  0  0  0  0  0  0  0  0  0
   57.5777   33.8810   43.6273 H   0  0  0  0  0  0  0  0  0  0  0  0
   58.9490   29.8410   45.4690 N   0  0  0  0  0  0  0  0  0  0  0  0
   58.5000   30.7790   45.3720 H   0  0  0  0  0  0  0  0  0  0  0  0
   61.0860   32.8660   47.6330 C   0  0  0  0  0  0  0  0  0  0  0  0
   62.1437   32.6327   47.8248 H   0  0  0  0  0  0  0  0  0  0  0  0
   60.6250   34.1810   47.7360 C   0  0  0  0  0  0  0  0  0  0  0  0
   61.3190   34.9867   48.0174 H   0  0  0  0  0  0  0  0  0  0  0  0
   59.2850   34.4720   47.4820 C   0  0  0  0  0  0  0  0  0  0  0  0
   58.9130   35.5034   47.5699 H   0  0  0  0  0  0  0  0  0  0  0  0
  1  2  1  0
  2  3  1  0
  3  4  1  0
  4  5  2  0
  5  6  1  0
  6  7  1  0
  7  8  1  0
  8  9  1  0
  8 10  2  0
 10 11  1  0
 11 12  1  0
 11 13  1  0
 11 14  1  0
 14 15  2  0
 14 16  1  0
 16 17  1  0
 17 18  1  0
 17 19  1  0
 17 20  1  0
 20 21  1  0
 20 22  1  0
 20 23  1  0
 10 24  1  0
 24 25  1  0
  4 26  1  0
 26 27  1  0
 26 28  2  0
 28 29  1  0
 28 30  1  0
 30 31  1  0
 30  2  2  0
 24  6  2  0
M  CHG  2   3  -1  24   1
M  END
>  <UniqueID>  (41) 
40

>  <SMILES>  (41) 
CCOC(=O)Cc1csc(/N=c2\cccc[n-]2)[nH+]1

>  <Energy>  (41) 
63.17011343652709

>  <Genealogy>  (41) 
CCOC(=O)Cc1csc(N=c2cccc[n-]2)[nH+]1 (protonated)
CCOC(=O)Cc1csc(/N=c2\cccc[n-]2)[nH+]1 (cis-trans isomerization)
CCOC(=O)Cc1csc(/N=c2\cccc[n-]2)[nH+]1 (3D coordinates assigned)
CCOC(=O)Cc1csc(/N=c2\cccc[n-]2)[nH+]1 (optimized conformer: 63.17011343652709 kcal/mol)

>  <smiles>  (41) 
CCOC(=O)Cc1csc(N=c2cccc[nH]2)n1

>  <score_type>  (41) 
oracle

>  <origin>  (41) 
adg

>  <m_score__min__energy>  (41) 
-5.3700000000000001

>  <m_primary>  (41) 
energy

$$$$
41:0
     RDKit          3D

 26 26  0  0  0  0  0  0  0  0999 V2000
   59.2700   34.6800   46.6200 C   0  0  0  0  0  0  0  0  0  0  0  0
   58.0330   33.7920   46.6870 C   0  0  0  0  0  0  0  0  0  0  0  0
   57.9770   32.8710   45.5040 C   0  0  0  0  0  0  0  0  0  0  0  0
   57.8690   33.3220   44.1930 C   0  0  0  0  0  0  0  0  0  0  0  0
   57.7490   31.9810   43.1880 S   0  0  0  0  0  0  0  0  0  0  0  0
   57.8440   30.8180   44.3980 C   0  0  0  0  0  0  0  0  0  0  0  0
   57.7000   29.3360   44.1640 C   0  0  1  0  0  0  0  0  0  0  0  0
   58.9780   28.5550   44.4910 C   0  0  0  0  0  0  0  0  0  0  0  0
   56.5510   28.8040   44.9070 N   0  0  0  0  0  0  0  0  0  0  0  0
   55.4050   29.5270   44.9490 O   0  0  0  0  0  0  0  0  0  0  0  0
   56.6200   27.5630   45.6240 C   0  0  0  0  0  0  0  0  0  0  0  0
   55.5660   26.9780   45.9840 O   0  0  0  0  0  0  0  0  0  0  0  0
   57.9460   31.4730   45.6240 C   0  0  0  0  0  0  0  0  0  0  0  0
   59.6046   34.9202   47.6400 H   0  0  0  0  0  0  0  0  0  0  0  0
   60.0728   34.1507   46.0858 H   0  0  0  0  0  0  0  0  0  0  0  0
   59.0253   35.6099   46.0858 H   0  0  0  0  0  0  0  0  0  0  0  0
   58.0676   33.1935   47.6093 H   0  0  0  0  0  0  0  0  0  0  0  0
   57.1378   34.4312   46.6804 H   0  0  0  0  0  0  0  0  0  0  0  0
   57.8632   34.3736   43.8702 H   0  0  0  0  0  0  0  0  0  0  0  0
   57.5197   29.1989   43.0876 H   0  0  0  0  0  0  0  0  0  0  0  0
   59.0949   28.4836   45.5824 H   0  0  0  0  0  0  0  0  0  0  0  0
   58.9097   27.5442   44.0626 H   0  0  0  0  0  0  0  0  0  0  0  0
   59.8464   29.0769   44.0626 H   0  0  0  0  0  0  0  0  0  0  0  0
   54.7680   28.9680   45.4640 H   0  0  0  0  0  0  0  0  0  0  0  0
   57.5992   27.1210   45.8600 H   0  0  0  0  0  0  0  0  0  0  0  0
   57.9971   30.9471   46.5888 H   0  0  0  0  0  0  0  0  0  0  0  0
  1  2  1  0
  2  3  1  0
  3  4  2  0
  4  5  1  0
  5  6  1  0
  6  7  1  0
  7  8  1  0
  7  9  1  0
  9 10  1  0
  9 11  1  0
 11 12  2  0
  6 13  2  0
 13  3  1  0
  1 14  1  0
  1 15  1  0
  1 16  1  0
  2 17  1  0
  2 18  1  0
  4 19  1  0
  7 20  1  6
  8 21  1  0
  8 22  1  0
  8 23  1  0
 10 24  1  0
 11 25  1  0
 13 26  1  0
M  END
>  <UniqueID>  (42) 
41

>  <SMILES>  (42) 
CCc1csc([C@@H](C)N(O)C=O)c1

>  <Energy>  (42) 
40.71421059551601

>  <Genealogy>  (42) 
CCc1csc([C@@H](C)N(O)C=O)c1 (chirality)
CCc1csc([C@@H](C)N(O)C=O)c1 (3D coordinates assigned)
CCc1csc([C@@H](C)N(O)C=O)c1 (optimized conformer: 40.71421059551601 kcal/mol)

>  <smiles>  (42) 
CCc1csc(C(C)N(O)C=O)c1

>  <score_type>  (42) 
oracle

>  <origin>  (42) 
adg

>  <m_score__min__energy>  (42) 
-6.3700000000000001

>  <m_primary>  (42) 
energy

$$$$
42:0
     RDKit          3D

 31 33  0  0  0  0  0  0  0  0999 V2000
   59.4860   34.4930   46.3950 C   0  0  0  0  0  0  0  0  0  0  0  0
   59.4600   33.0330   46.2900 N   0  0  0  0  0  0  0  0  0  0  0  0
   60.4220   32.1380   46.6600 C   0  0  0  0  0  0  0  0  0  0  0  0
   61.6930   32.4830   47.3330 C   0  0  0  0  0  0  0  0  0  0  0  0
   62.5320   33.4630   46.7790 C   0  0  0  0  0  0  0  0  0  0  0  0
   63.7480   33.7790   47.3920 C   0  0  0  0  0  0  0  0  0  0  0  0
   64.1410   33.1110   48.5550 C   0  0  0  0  0  0  0  0  0  0  0  0
   63.3210   32.1200   49.1020 C   0  0  0  0  0  0  0  0  0  0  0  0
   62.1050   31.8010   48.4900 C   0  0  0  0  0  0  0  0  0  0  0  0
   60.0810   30.8580   46.3620 N   0  0  0  0  0  0  0  0  0  0  0  0
   58.8570   30.9600   45.8150 C   0  0  0  0  0  0  0  0  0  0  0  0
   58.4750   32.2640   45.7770 C   0  0  0  0  0  0  0  0  0  0  0  0
   57.2220   32.6040   45.2770 C   0  0  0  0  0  0  0  0  0  0  0  0
   56.8200   33.7950   45.2400 O   0  0  0  0  0  0  0  0  0  0  0  0
   56.4210   31.5960   44.8320 N   0  0  0  0  0  0  0  0  0  0  0  0
   56.8200   30.2840   44.8710 C   0  0  0  0  0  0  0  0  0  0  0  0
   56.0320   29.3970   44.4490 O   0  0  0  0  0  0  0  0  0  0  0  0
   58.0620   29.9470   45.3670 N   0  0  0  0  0  0  0  0  0  0  0  0
   58.5240   28.5540   45.4430 C   0  0  0  0  0  0  0  0  0  0  0  0
   59.4912   34.7843   47.4557 H   0  0  0  0  0  0  0  0  0  0  0  0
   60.3912   34.8799   45.9041 H   0  0  0  0  0  0  0  0  0  0  0  0
   58.5952   34.9118   45.9041 H   0  0  0  0  0  0  0  0  0  0  0  0
   62.2311   33.9845   45.8584 H   0  0  0  0  0  0  0  0  0  0  0  0
   64.3965   34.5545   46.9583 H   0  0  0  0  0  0  0  0  0  0  0  0
   65.0952   33.3650   49.0397 H   0  0  0  0  0  0  0  0  0  0  0  0
   63.6325   31.5907   50.0146 H   0  0  0  0  0  0  0  0  0  0  0  0
   61.4679   31.0122   48.9165 H   0  0  0  0  0  0  0  0  0  0  0  0
   60.6320   29.9920   46.5510 H   0  0  0  0  0  0  0  0  0  0  0  0
   58.6224   28.2574   46.4977 H   0  0  0  0  0  0  0  0  0  0  0  0
   57.7952   27.8983   44.9441 H   0  0  0  0  0  0  0  0  0  0  0  0
   59.5002   28.4637   44.9441 H   0  0  0  0  0  0  0  0  0  0  0  0
  1  2  1  0
  2  3  1  0
  3  4  1  0
  4  5  2  0
  5  6  1  0
  6  7  2  0
  7  8  1  0
  8  9  2  0
  3 10  2  0
 10 11  1  0
 11 12  2  0
 12 13  1  0
 13 14  2  0
 13 15  1  0
 15 16  1  0
 16 17  2  0
 16 18  1  0
 18 19  1  0
 12  2  1  0
  9  4  1  0
 18 11  1  0
  1 20  1  0
  1 21  1  0
  1 22  1  0
  5 23  1  0
  6 24  1  0
  7 25  1  0
  8 26  1  0
  9 27  1  0
 10 28  1  0
 19 29  1  0
 19 30  1  0
 19 31  1  0
M  CHG  2  10   1  15  -1
M  END
>  <UniqueID>  (43) 
42

>  <SMILES>  (43) 
Cn1c(-c2ccccc2)[nH+]c2c1c(=O)[n-]c(=O)n2C

>  <Energy>  (43) 
83.27087789737226

>  <Genealogy>  (43) 
Cn1c(-c2ccccc2)[nH+]c2c1c(=O)[n-]c(=O)n2C (protonated)
Cn1c(-c2ccccc2)[nH+]c2c1c(=O)[n-]c(=O)n2C (3D coordinates assigned)
Cn1c(-c2ccccc2)[nH+]c2c1c(=O)[n-]c(=O)n2C (optimized conformer: 83.27087789737226 kcal/mol)

>  <smiles>  (43) 
Cn1c(-c2ccccc2)nc2c1c(=O)[nH]c(=O)n2C

>  <score_type>  (43) 
oracle

>  <origin>  (43) 
adg

>  <m_score__min__energy>  (43) 
-7.1299999999999999

>  <m_primary>  (43) 
energy

$$$$
43:0
     RDKit          3D

 25 25  0  0  0  0  0  0  0  0999 V2000
   56.8200   30.1140   43.0230 C   0  0  0  0  0  0  0  0  0  0  0  0
   55.4690   30.0940   43.7260 C   0  0  0  0  0  0  0  0  0  0  0  0
   55.5070   29.2070   44.8840 N   0  0  0  0  0  0  0  0  0  0  0  0
   56.7090   28.8540   45.5790 C   0  0  0  0  0  0  0  0  0  0  0  0
   57.4550   29.7680   46.0270 O   0  0  0  0  0  0  0  0  0  0  0  0
   57.0920   27.4280   45.7690 C   0  0  0  0  0  0  0  0  0  0  0  0
   58.4530   27.0690   45.7370 C   0  0  0  0  0  0  0  0  0  0  0  0
   58.8480   25.7400   45.9110 C   0  0  0  0  0  0  0  0  0  0  0  0
   57.8890   24.7360   46.1220 C   0  0  0  0  0  0  0  0  0  0  0  0
   58.2360   23.3880   46.3020 O   0  0  0  0  0  0  0  0  0  0  0  0
   58.5260   22.4850   45.2390 C   0  0  0  0  0  0  0  0  0  0  0  0
   56.5370   25.0840   46.1570 C   0  0  0  0  0  0  0  0  0  0  0  0
   56.1310   26.4130   45.9850 C   0  0  0  0  0  0  0  0  0  0  0  0
   54.7720   26.7000   46.0350 O   0  0  0  0  0  0  0  0  0  0  0  0
   57.6239   30.1259   43.7738 H   0  0  0  0  0  0  0  0  0  0  0  0
   56.9192   29.2172   42.3938 H   0  0  0  0  0  0  0  0  0  0  0  0
   56.8926   31.0133   42.3938 H   0  0  0  0  0  0  0  0  0  0  0  0
   55.2191   31.1124   44.0584 H   0  0  0  0  0  0  0  0  0  0  0  0
   54.7078   29.7266   43.0221 H   0  0  0  0  0  0  0  0  0  0  0  0
   59.2153   27.8448   45.5729 H   0  0  0  0  0  0  0  0  0  0  0  0
   59.9161   25.4787   45.8825 H   0  0  0  0  0  0  0  0  0  0  0  0
   58.8373   21.5158   45.6558 H   0  0  0  0  0  0  0  0  0  0  0  0
   57.6272   22.3464   44.6202 H   0  0  0  0  0  0  0  0  0  0  0  0
   59.3375   22.8956   44.6202 H   0  0  0  0  0  0  0  0  0  0  0  0
   55.7802   24.3029   46.3220 H   0  0  0  0  0  0  0  0  0  0  0  0
  1  2  1  0
  2  3  1  0
  3  4  1  0
  4  5  2  0
  4  6  1  0
  6  7  2  0
  7  8  1  0
  8  9  2  0
  9 10  1  0
 10 11  1  0
  9 12  1  0
 12 13  2  0
 13 14  1  0
 13  6  1  0
  1 15  1  0
  1 16  1  0
  1 17  1  0
  2 18  1  0
  2 19  1  0
  7 20  1  0
  8 21  1  0
 11 22  1  0
 11 23  1  0
 11 24  1  0
 12 25  1  0
M  CHG  2   3  -1  14  -1
M  END
>  <UniqueID>  (44) 
43

>  <SMILES>  (44) 
CC[N-]C(=O)c1ccc(OC)cc1[O-]

>  <Energy>  (44) 
20.95176148741447

>  <Genealogy>  (44) 
CC[N-]C(=O)c1ccc(OC)cc1[O-] (protonated)
CC[N-]C(=O)c1ccc(OC)cc1[O-] (3D coordinates assigned)
CC[N-]C(=O)c1ccc(OC)cc1[O-] (optimized conformer: 20.95176148741447 kcal/mol)

>  <smiles>  (44) 
CCNC(=O)c1ccc(OC)cc1O

>  <score_type>  (44) 
oracle

>  <origin>  (44) 
adg

>  <m_score__min__energy>  (44) 
-11.23

>  <m_primary>  (44) 
energy

$$$$
44:0
     RDKit          3D

 40 40  0  0  0  0  0  0  0  0999 V2000
   54.0250   26.3310   46.3770 H   0  0  0  0  0  0  0  0  0  0  0  0
   54.9760   26.3730   46.0340 O   0  0  0  0  0  0  0  0  0  0  0  0
   55.9310   25.5260   46.5480 N   0  0  0  0  0  0  0  0  0  0  0  0
   57.1750   25.8690   46.6870 C   0  0  0  0  0  0  0  0  0  0  0  0
   57.7957   25.3078   47.4010 H   0  0  0  0  0  0  0  0  0  0  0  0
   57.7990   26.9780   45.9320 C   0  0  0  0  0  0  0  0  0  0  0  0
   59.0870   27.4000   46.2860 C   0  0  0  0  0  0  0  0  0  0  0  0
   59.6183   26.9167   47.1191 H   0  0  0  0  0  0  0  0  0  0  0  0
   59.6910   28.4360   45.5760 C   0  0  0  0  0  0  0  0  0  0  0  0
   60.6956   28.7842   45.8579 H   0  0  0  0  0  0  0  0  0  0  0  0
   59.0210   29.0300   44.5090 C   0  0  0  0  0  0  0  0  0  0  0  0
   59.4851   29.8601   43.9562 H   0  0  0  0  0  0  0  0  0  0  0  0
   57.7510   28.5620   44.1450 C   0  0  0  0  0  0  0  0  0  0  0  0
   57.0100   29.1970   43.0000 C   0  0  0  0  0  0  0  0  0  0  0  0
   56.2127   28.5181   42.6634 H   0  0  0  0  0  0  0  0  0  0  0  0
   57.7171   29.3865   42.1789 H   0  0  0  0  0  0  0  0  0  0  0  0
   56.3880   30.5290   43.4380 C   0  0  0  0  0  0  0  0  0  0  0  0
   55.9784   30.4102   44.4519 H   0  0  0  0  0  0  0  0  0  0  0  0
   55.6031   30.7855   42.7113 H   0  0  0  0  0  0  0  0  0  0  0  0
   57.4060   31.6800   43.4500 C   0  0  0  0  0  0  0  0  0  0  0  0
   57.0468   32.4759   42.7811 H   0  0  0  0  0  0  0  0  0  0  0  0
   58.3723   31.2757   43.1142 H   0  0  0  0  0  0  0  0  0  0  0  0
   57.6090   32.2710   44.8560 C   0  0  0  0  0  0  0  0  0  0  0  0
   58.6258   32.0274   45.1976 H   0  0  0  0  0  0  0  0  0  0  0  0
   56.8451   31.8338   45.5158 H   0  0  0  0  0  0  0  0  0  0  0  0
   57.4320   33.7980   44.8840 C   0  0  0  0  0  0  0  0  0  0  0  0
   56.7562   34.0590   45.7118 H   0  0  0  0  0  0  0  0  0  0  0  0
   57.0193   34.1030   43.9111 H   0  0  0  0  0  0  0  0  0  0  0  0
   58.7620   34.5450   45.0800 C   0  0  0  0  0  0  0  0  0  0  0  0
   58.5439   35.5914   45.3398 H   0  0  0  0  0  0  0  0  0  0  0  0
   59.3284   34.4712   44.1399 H   0  0  0  0  0  0  0  0  0  0  0  0
   59.6240   33.9300   46.1940 C   0  0  0  0  0  0  0  0  0  0  0  0
   60.6831   34.0207   45.9109 H   0  0  0  0  0  0  0  0  0  0  0  0
   59.3232   32.8779   46.3062 H   0  0  0  0  0  0  0  0  0  0  0  0
   59.4170   34.6180   47.5440 C   0  0  0  0  0  0  0  0  0  0  0  0
   59.6311   33.9063   48.3549 H   0  0  0  0  0  0  0  0  0  0  0  0
   60.0955   35.4801   47.6241 H   0  0  0  0  0  0  0  0  0  0  0  0
   58.3754   34.9625   47.6241 H   0  0  0  0  0  0  0  0  0  0  0  0
   57.1700   27.5550   44.8630 N   0  0  0  0  0  0  0  0  0  0  0  0
   56.2360   27.2000   44.5570 H   0  0  0  0  0  0  0  0  0  0  0  0
  1  2  1  0
  2  3  1  0
  3  4  2  0
  4  5  1  0
  4  6  1  0
  6  7  2  0
  7  8  1  0
  7  9  1  0
  9 10  1  0
  9 11  2  0
 11 12  1  0
 11 13  1  0
 13 14  1  0
 14 15  1  0
 14 16  1  0
 14 17  1  0
 17 18  1  0
 17 19  1  0
 17 20  1  0
 20 21  1  0
 20 22  1  0
 20 23  1  0
 23 24  1  0
 23 25  1  0
 23 26  1  0
 26 27  1  0
 26 28  1  0
 26 29  1  0
 29 30  1  0
 29 31  1  0
 29 32  1  0
 32 33  1  0
 32 34  1  0
 32 35  1  0
 35 36  1  0
 35 37  1  0
 35 38  1  0
 13 39  2  0
 39 40  1  0
 39  6  1  0
M  CHG  1  39   1
M  END
>  <UniqueID>  (45) 
44

>  <SMILES>  (45) 
CCCCCCCCc1cccc(/C=N\O)[nH+]1

>  <Energy>  (45) 
27.700986669938285

>  <Genealogy>  (45) 
CCCCCCCCc1cccc(C=NO)[nH+]1 (protonated)
CCCCCCCCc1cccc(/C=N\O)[nH+]1 (cis-trans isomerization)
CCCCCCCCc1cccc(/C=N\O)[nH+]1 (3D coordinates assigned)
CCCCCCCCc1cccc(/C=N\O)[nH+]1 (optimized conformer: 27.700986669938285 kcal/mol)

>  <smiles>  (45) 
CCCCCCCCc1cccc(C=NO)n1

>  <score_type>  (45) 
oracle

>  <origin>  (45) 
adg

>  <m_score__min__energy>  (45) 
-6.3600000000000003

>  <m_primary>  (45) 
energy

$$$$
45:0
     RDKit          3D

 32 34  0  0  0  0  0  0  0  0999 V2000
   58.4600   31.7430   50.2910 C   0  0  0  0  0  0  0  0  0  0  0  0
   58.9010   32.6880   49.2150 C   0  0  0  0  0  0  0  0  0  0  0  0
   60.0390   33.5110   49.4130 C   0  0  0  0  0  0  0  0  0  0  0  0
   60.4830   34.3770   48.3980 C   0  0  0  0  0  0  0  0  0  0  0  0
   59.7800   34.3880   47.1960 C   0  0  0  0  0  0  0  0  0  0  0  0
   60.0300   35.1470   46.1150 N   0  0  0  0  0  0  0  0  0  0  0  0
   59.0820   34.8260   45.2050 C   0  0  0  0  0  0  0  0  0  0  0  0
   58.2350   33.8450   45.7130 C   0  0  0  0  0  0  0  0  0  0  0  0
   57.0150   33.2910   45.0410 C   0  0  0  0  0  0  0  0  0  0  0  0
   57.1900   31.8240   44.7910 C   0  0  0  0  0  0  0  0  0  0  0  0
   58.4680   31.2620   44.6700 C   0  0  0  0  0  0  0  0  0  0  0  0
   58.5970   29.8860   44.4770 C   0  0  0  0  0  0  0  0  0  0  0  0
   57.4590   29.0780   44.4120 C   0  0  0  0  0  0  0  0  0  0  0  0
   57.6020   27.7040   44.2190 O   0  0  0  0  0  0  0  0  0  0  0  0
   56.1940   29.6740   44.5480 C   0  0  0  0  0  0  0  0  0  0  0  0
   55.1470   28.9750   44.5000 O   0  0  0  0  0  0  0  0  0  0  0  0
   56.0940   31.0170   44.7360 N   0  0  0  0  0  0  0  0  0  0  0  0
   58.6890   33.5840   46.9920 C   0  0  0  0  0  0  0  0  0  0  0  0
   58.2210   32.7160   47.9780 C   0  0  0  0  0  0  0  0  0  0  0  0
   58.6670   32.1866   51.2761 H   0  0  0  0  0  0  0  0  0  0  0  0
   57.3807   31.5541   50.1934 H   0  0  0  0  0  0  0  0  0  0  0  0
   59.0085   30.7945   50.1934 H   0  0  0  0  0  0  0  0  0  0  0  0
   60.5797   33.4715   50.3701 H   0  0  0  0  0  0  0  0  0  0  0  0
   61.3585   35.0256   48.5488 H   0  0  0  0  0  0  0  0  0  0  0  0
   60.7900   35.8530   46.0010 H   0  0  0  0  0  0  0  0  0  0  0  0
   58.9930   35.2763   44.2053 H   0  0  0  0  0  0  0  0  0  0  0  0
   56.1394   33.4485   45.6880 H   0  0  0  0  0  0  0  0  0  0  0  0
   56.8662   33.8060   44.0805 H   0  0  0  0  0  0  0  0  0  0  0  0
   59.3621   31.9003   44.7267 H   0  0  0  0  0  0  0  0  0  0  0  0
   59.5960   29.4368   44.3759 H   0  0  0  0  0  0  0  0  0  0  0  0
   56.8380   27.1240   43.8930 H   0  0  0  0  0  0  0  0  0  0  0  0
   57.3477   32.0720   47.7973 H   0  0  0  0  0  0  0  0  0  0  0  0
  1  2  1  0
  2  3  2  0
  3  4  1  0
  4  5  2  0
  5  6  1  0
  6  7  1  0
  7  8  2  0
  8  9  1  0
  9 10  1  0
 10 11  2  0
 11 12  1  0
 12 13  2  0
 13 14  1  0
 13 15  1  0
 15 16  2  0
 15 17  1  0
  8 18  1  0
 18 19  2  0
 19  2  1  0
 18  5  1  0
 17 10  1  0
  1 20  1  0
  1 21  1  0
  1 22  1  0
  3 23  1  0
  4 24  1  0
  6 25  1  0
  7 26  1  0
  9 27  1  0
  9 28  1  0
 11 29  1  0
 12 30  1  0
 14 31  1  0
 19 32  1  0
M  CHG  1  17  -1
M  END
>  <UniqueID>  (46) 
45

>  <SMILES>  (46) 
Cc1ccc2[nH]cc(Cc3ccc(O)c(=O)[n-]3)c2c1

>  <Energy>  (46) 
65.12161288463646

>  <Genealogy>  (46) 
Cc1ccc2[nH]cc(Cc3ccc(O)c(=O)[n-]3)c2c1 (protonated)
Cc1ccc2[nH]cc(Cc3ccc(O)c(=O)[n-]3)c2c1 (3D coordinates assigned)
Cc1ccc2[nH]cc(Cc3ccc(O)c(=O)[n-]3)c2c1 (optimized conformer: 65.12161288463646 kcal/mol)

>  <smiles>  (46) 
Cc1ccc2[nH]cc(Cc3ccc(O)c(=O)[nH]3)c2c1

>  <score_type>  (46) 
oracle

>  <origin>  (46) 
adg

>  <m_score__min__energy>  (46) 
-8.9600000000000009

>  <m_primary>  (46) 
energy

$$$$
46:0
     RDKit          3D

 54 58  0  0  0  0  0  0  0  0999 V2000
   61.5550   33.0130   51.2490 C   0  0  0  0  0  0  0  0  0  0  0  0
   60.1590   32.7720   51.7620 C   0  0  0  0  0  0  0  0  0  0  0  0
   59.9780   32.4250   53.1080 C   0  0  0  0  0  0  0  0  0  0  0  0
   58.7010   32.1690   53.6020 C   0  0  0  0  0  0  0  0  0  0  0  0
   57.6050   32.2680   52.7480 C   0  0  0  0  0  0  0  0  0  0  0  0
   57.7810   32.6230   51.4470 N   0  0  0  0  0  0  0  0  0  0  0  0
   59.0170   32.8950   50.9330 C   0  0  0  0  0  0  0  0  0  0  0  0
   59.1240   33.2970   49.5120 C   0  0  0  0  0  0  0  0  0  0  0  0
   59.6390   34.5510   49.1620 C   0  0  0  0  0  0  0  0  0  0  0  0
   59.7250   34.9270   47.8210 C   0  0  0  0  0  0  0  0  0  0  0  0
   59.2820   34.0660   46.8100 C   0  0  0  0  0  0  0  0  0  0  0  0
   59.4970   34.5980   45.1460 Cl  0  0  0  0  0  0  0  0  0  0  0  0
   58.7310   32.8060   47.1490 C   0  0  0  0  0  0  0  0  0  0  0  0
   58.2390   31.8920   46.1490 N   0  0  0  0  0  0  0  0  0  0  0  0
   57.6130   32.2890   45.0410 N   0  0  0  0  0  0  0  0  0  0  0  0
   57.3570   31.1610   44.3640 C   0  0  0  0  0  0  0  0  0  0  0  0
   56.7070   31.0060   43.1450 C   0  0  0  0  0  0  0  0  0  0  0  0
   56.5620   29.6960   42.6510 C   0  0  0  0  0  0  0  0  0  0  0  0
   57.0630   28.5930   43.3820 C   0  0  0  0  0  0  0  0  0  0  0  0
   57.7160   28.7850   44.6240 C   0  0  0  0  0  0  0  0  0  0  0  0
   58.2450   27.6750   45.3750 N   0  0  0  0  0  0  0  0  0  0  0  0
   57.4280   27.0160   46.4010 C   0  0  0  0  0  0  0  0  0  0  0  0
   58.3210   26.3150   47.4390 C   0  0  0  0  0  0  0  0  0  0  0  0
   59.5450   27.0930   47.7300 N   0  0  0  0  0  0  0  0  0  0  0  0
   59.2410   28.3520   48.4300 C   0  0  0  0  0  0  0  0  0  0  0  0
   60.3950   27.3190   46.5300 C   0  0  0  0  0  0  0  0  0  0  0  0
   59.6290   27.2300   45.1960 C   0  0  0  0  0  0  0  0  0  0  0  0
   57.8430   30.1050   45.0700 C   0  0  0  0  0  0  0  0  0  0  0  0
   58.4020   30.5700   46.1970 N   0  0  0  0  0  0  0  0  0  0  0  0
   58.6620   32.4370   48.5050 C   0  0  0  0  0  0  0  0  0  0  0  0
   62.2427   33.1317   52.0993 H   0  0  0  0  0  0  0  0  0  0  0  0
   61.8735   32.1566   50.6366 H   0  0  0  0  0  0  0  0  0  0  0  0
   61.5680   33.9267   50.6366 H   0  0  0  0  0  0  0  0  0  0  0  0
   60.8482   32.3545   53.7771 H   0  0  0  0  0  0  0  0  0  0  0  0
   58.5594   31.8912   54.6569 H   0  0  0  0  0  0  0  0  0  0  0  0
   56.5939   32.0584   53.1271 H   0  0  0  0  0  0  0  0  0  0  0  0
   56.9340   32.7020   50.8380 H   0  0  0  0  0  0  0  0  0  0  0  0
   59.9773   35.2428   49.9475 H   0  0  0  0  0  0  0  0  0  0  0  0
   60.1446   35.9087   47.5559 H   0  0  0  0  0  0  0  0  0  0  0  0
   56.3212   31.8729   42.5885 H   0  0  0  0  0  0  0  0  0  0  0  0
   56.0553   29.5284   41.6892 H   0  0  0  0  0  0  0  0  0  0  0  0
   56.9440   27.5755   42.9814 H   0  0  0  0  0  0  0  0  0  0  0  0
   56.8080   27.7699   46.9082 H   0  0  0  0  0  0  0  0  0  0  0  0
   56.7908   26.2621   45.9156 H   0  0  0  0  0  0  0  0  0  0  0  0
   57.7505   26.1881   48.3709 H   0  0  0  0  0  0  0  0  0  0  0  0
   58.6259   25.3427   47.0247 H   0  0  0  0  0  0  0  0  0  0  0  0
   59.2810   28.1862   49.5167 H   0  0  0  0  0  0  0  0  0  0  0  0
   59.9805   29.1160   48.1482 H   0  0  0  0  0  0  0  0  0  0  0  0
   58.2344   28.6944   48.1482 H   0  0  0  0  0  0  0  0  0  0  0  0
   60.8423   28.3211   46.6063 H   0  0  0  0  0  0  0  0  0  0  0  0
   61.1499   26.5190   46.5185 H   0  0  0  0  0  0  0  0  0  0  0  0
   60.1228   27.8705   44.4504 H   0  0  0  0  0  0  0  0  0  0  0  0
   59.6277   26.1850   44.8526 H   0  0  0  0  0  0  0  0  0  0  0  0
   58.2393   31.4592   48.7795 H   0  0  0  0  0  0  0  0  0  0  0  0
  1  2  1  0
  2  3  2  0
  3  4  1  0
  4  5  2  0
  5  6  1  0
  6  7  2  0
  7  8  1  0
  8  9  2  0
  9 10  1  0
 10 11  2  0
 11 12  1  0
 11 13  1  0
 13 14  1  0
 14 15  1  0
 15 16  2  0
 16 17  1  0
 17 18  2  0
 18 19  1  0
 19 20  2  0
 20 21  1  0
 21 22  1  0
 22 23  1  0
 23 24  1  0
 24 25  1  0
 24 26  1  0
 26 27  1  0
 20 28  1  0
 28 29  2  0
 13 30  2  0
  7  2  1  0
 30  8  1  0
 29 14  1  0
 28 16  1  0
 27 21  1  0
  1 31  1  0
  1 32  1  0
  1 33  1  0
  3 34  1  0
  4 35  1  0
  5 36  1  0
  6 37  1  0
  9 38  1  0
 10 39  1  0
 17 40  1  0
 18 41  1  0
 19 42  1  0
 22 43  1  0
 22 44  1  0
 23 45  1  0
 23 46  1  0
 25 47  1  0
 25 48  1  0
 25 49  1  0
 26 50  1  0
 26 51  1  0
 27 52  1  0
 27 53  1  0
 30 54  1  0
M  CHG  1   6   1
M  END
>  <UniqueID>  (47) 
46

>  <SMILES>  (47) 
Cc1ccc[nH+]c1-c1ccc(Cl)c(-n2nc3cccc(N4CCN(C)CC4)c3n2)c1

>  <Energy>  (47) 
124.52302101481207

>  <Genealogy>  (47) 
Cc1ccc[nH+]c1-c1ccc(Cl)c(-n2nc3cccc(N4CCN(C)CC4)c3n2)c1 (protonated)
Cc1ccc[nH+]c1-c1ccc(Cl)c(-n2nc3cccc(N4CCN(C)CC4)c3n2)c1 (3D coordinates assigned)
Cc1ccc[nH+]c1-c1ccc(Cl)c(-n2nc3cccc(N4CCN(C)CC4)c3n2)c1 (nonaromatic ring conformer: 124.52302101481207 kcal/mol)

>  <smiles>  (47) 
Cc1cccnc1-c1ccc(Cl)c(-n2nc3cccc(N4CCN(C)CC4)c3n2)c1

>  <score_type>  (47) 
oracle

>  <origin>  (47) 
adg

>  <m_score__min__energy>  (47) 
-7.3300000000000001

>  <m_primary>  (47) 
energy

$$$$
47:0
     RDKit          3D

 45 47  0  0  0  0  0  0  0  0999 V2000
   57.7050   31.9810   41.8540 C   0  0  0  0  0  0  0  0  0  0  0  0
   57.6810   31.2650   43.0850 O   0  0  0  0  0  0  0  0  0  0  0  0
   57.9500   31.8290   44.3430 C   0  0  0  0  0  0  0  0  0  0  0  0
   57.4090   33.0720   44.7240 C   0  0  0  0  0  0  0  0  0  0  0  0
   57.6760   33.6080   45.9850 C   0  0  0  0  0  0  0  0  0  0  0  0
   58.4820   32.9080   46.8980 C   0  0  0  0  0  0  0  0  0  0  0  0
   58.7710   33.3940   48.1830 O   0  0  0  0  0  0  0  0  0  0  0  0
   59.6740   34.4610   48.4780 C   0  0  0  0  0  0  0  0  0  0  0  0
   61.0990   34.0350   48.2490 C   0  0  0  0  0  0  0  0  0  0  0  0
   61.5800   33.8570   46.9410 C   0  0  0  0  0  0  0  0  0  0  0  0
   62.9070   33.4700   46.7240 C   0  0  0  0  0  0  0  0  0  0  0  0
   63.7640   33.2670   47.8080 C   0  0  0  0  0  0  0  0  0  0  0  0
   63.2960   33.4540   49.1120 C   0  0  0  0  0  0  0  0  0  0  0  0
   61.9710   33.8410   49.3350 C   0  0  0  0  0  0  0  0  0  0  0  0
   59.0250   31.6770   46.5210 C   0  0  0  0  0  0  0  0  0  0  0  0
   58.7810   31.1340   45.2480 C   0  0  0  0  0  0  0  0  0  0  0  0
   59.3860   29.7950   44.8920 C   0  0  0  0  0  0  0  0  0  0  0  0
   58.4550   29.0000   44.0900 N   0  0  0  0  0  0  0  0  0  0  0  0
   57.8850   27.7440   44.5090 C   0  0  0  0  0  0  0  0  0  0  0  0
   57.1070   27.6330   45.6790 C   0  0  0  0  0  0  0  0  0  0  0  0
   56.5640   26.3990   46.0520 C   0  0  0  0  0  0  0  0  0  0  0  0
   56.7960   25.2660   45.2690 C   0  0  0  0  0  0  0  0  0  0  0  0
   57.5710   25.3630   44.1120 C   0  0  0  0  0  0  0  0  0  0  0  0
   58.1150   26.5950   43.7340 C   0  0  0  0  0  0  0  0  0  0  0  0
   57.7412   33.0612   42.0587 H   0  0  0  0  0  0  0  0  0  0  0  0
   58.5938   31.6873   41.2763 H   0  0  0  0  0  0  0  0  0  0  0  0
   56.7985   31.7475   41.2763 H   0  0  0  0  0  0  0  0  0  0  0  0
   56.7697   33.6261   44.0210 H   0  0  0  0  0  0  0  0  0  0  0  0
   57.2529   34.5839   46.2653 H   0  0  0  0  0  0  0  0  0  0  0  0
   59.4448   35.3176   47.8270 H   0  0  0  0  0  0  0  0  0  0  0  0
   59.5555   34.7405   49.5353 H   0  0  0  0  0  0  0  0  0  0  0  0
   60.9106   34.0226   46.0840 H   0  0  0  0  0  0  0  0  0  0  0  0
   63.2759   33.3254   45.6979 H   0  0  0  0  0  0  0  0  0  0  0  0
   64.8062   32.9603   47.6359 H   0  0  0  0  0  0  0  0  0  0  0  0
   63.9722   33.2962   49.9652 H   0  0  0  0  0  0  0  0  0  0  0  0
   61.6098   33.9941   50.3627 H   0  0  0  0  0  0  0  0  0  0  0  0
   59.6545   31.1232   47.2331 H   0  0  0  0  0  0  0  0  0  0  0  0
   60.3092   29.9581   44.3165 H   0  0  0  0  0  0  0  0  0  0  0  0
   59.6052   29.2491   45.8215 H   0  0  0  0  0  0  0  0  0  0  0  0
   58.1560   29.3990   43.1710 H   0  0  0  0  0  0  0  0  0  0  0  0
   56.9259   28.5213   46.3020 H   0  0  0  0  0  0  0  0  0  0  0  0
   55.9533   26.3208   46.9635 H   0  0  0  0  0  0  0  0  0  0  0  0
   56.3678   24.2967   45.5642 H   0  0  0  0  0  0  0  0  0  0  0  0
   57.7541   24.4696   43.4969 H   0  0  0  0  0  0  0  0  0  0  0  0
   58.7276   26.6647   42.8230 H   0  0  0  0  0  0  0  0  0  0  0  0
  1  2  1  0
  2  3  1  0
  3  4  2  0
  4  5  1  0
  5  6  2  0
  6  7  1  0
  7  8  1  0
  8  9  1  0
  9 10  2  0
 10 11  1  0
 11 12  2  0
 12 13  1  0
 13 14  2  0
  6 15  1  0
 15 16  2  0
 16 17  1  0
 17 18  1  0
 18 19  1  0
 19 20  2  0
 20 21  1  0
 21 22  2  0
 22 23  1  0
 23 24  2  0
 16  3  1  0
 24 19  1  0
 14  9  1  0
  1 25  1  0
  1 26  1  0
  1 27  1  0
  4 28  1  0
  5 29  1  0
  8 30  1  0
  8 31  1  0
 10 32  1  0
 11 33  1  0
 12 34  1  0
 13 35  1  0
 14 36  1  0
 15 37  1  0
 17 38  1  0
 17 39  1  0
 18 40  1  0
 20 41  1  0
 21 42  1  0
 22 43  1  0
 23 44  1  0
 24 45  1  0
M  END
>  <UniqueID>  (48) 
47

>  <SMILES>  (48) 
COc1ccc(OCc2ccccc2)cc1CNc1ccccc1

>  <Energy>  (48) 
46.58257642082652

>  <Genealogy>  (48) 
COc1ccc(OCc2ccccc2)cc1CNc1ccccc1 (3D coordinates assigned)
COc1ccc(OCc2ccccc2)cc1CNc1ccccc1 (optimized conformer: 46.58257642082652 kcal/mol)

>  <smiles>  (48) 
COc1ccc(OCc2ccccc2)cc1CNc1ccccc1

>  <score_type>  (48) 
oracle

>  <origin>  (48) 
adg

>  <m_score__min__energy>  (48) 
-7.4100000000000001

>  <m_primary>  (48) 
energy

$$$$
