0:0
     RDKit          3D

 36 37  0  0  0  0  0  0  0  0999 V2000
   56.3050   29.7610   43.0520 C   0  0  0  0  0  0  0  0  0  0  0  0
   56.9950   30.7840   43.9550 C   0  0  0  0  0  0  0  0  0  0  0  0
   57.7620   31.8570   43.1660 C   0  0  0  0  0  0  0  0  0  0  0  0
   58.1470   33.0650   44.0330 C   0  0  0  0  0  0  0  0  0  0  0  0
   58.4420   32.7090   45.5120 C   0  0  0  0  0  0  0  0  0  0  0  0
   58.8330   33.8450   46.3810 N   0  0  0  0  0  0  0  0  0  0  0  0
   58.5890   33.6230   47.8340 C   0  0  0  0  0  0  0  0  0  0  0  0
   59.5970   34.2680   48.7010 N   0  0  0  0  0  0  0  0  0  0  0  0
   60.9280   33.9620   48.2450 C   0  0  0  0  0  0  0  0  0  0  0  0
   61.9430   33.5700   49.1320 C   0  0  0  0  0  0  0  0  0  0  0  0
   63.2290   33.3030   48.6490 C   0  0  0  0  0  0  0  0  0  0  0  0
   63.5070   33.4390   47.2840 C   0  0  0  0  0  0  0  0  0  0  0  0
   62.5030   33.8430   46.3990 C   0  0  0  0  0  0  0  0  0  0  0  0
   61.2130   34.1000   46.8840 C   0  0  0  0  0  0  0  0  0  0  0  0
   60.0880   34.5330   46.0000 C   0  0  0  0  0  0  0  0  0  0  0  0
   55.7971   29.0079   43.6724 H   0  0  0  0  0  0  0  0  0  0  0  0
   55.5662   30.2718   42.4170 H   0  0  0  0  0  0  0  0  0  0  0  0
   57.0554   29.2673   42.4170 H   0  0  0  0  0  0  0  0  0  0  0  0
   56.2307   31.2805   44.5709 H   0  0  0  0  0  0  0  0  0  0  0  0
   57.7270   30.2405   44.5704 H   0  0  0  0  0  0  0  0  0  0  0  0
   58.6804   31.4072   42.7607 H   0  0  0  0  0  0  0  0  0  0  0  0
   57.1001   32.2188   42.3654 H   0  0  0  0  0  0  0  0  0  0  0  0
   59.0472   33.5275   43.6021 H   0  0  0  0  0  0  0  0  0  0  0  0
   57.2821   33.7447   44.0350 H   0  0  0  0  0  0  0  0  0  0  0  0
   57.5352   32.2544   45.9376 H   0  0  0  0  0  0  0  0  0  0  0  0
   59.3110   32.0349   45.4906 H   0  0  0  0  0  0  0  0  0  0  0  0
   57.5988   34.0293   48.0879 H   0  0  0  0  0  0  0  0  0  0  0  0
   58.6506   32.5394   48.0130 H   0  0  0  0  0  0  0  0  0  0  0  0
   59.4570   33.9350   49.6830 H   0  0  0  0  0  0  0  0  0  0  0  0
   59.4630   35.3060   48.6800 H   0  0  0  0  0  0  0  0  0  0  0  0
   61.7276   33.4727   50.2063 H   0  0  0  0  0  0  0  0  0  0  0  0
   64.0218   32.9861   49.3425 H   0  0  0  0  0  0  0  0  0  0  0  0
   64.5183   33.2274   46.9065 H   0  0  0  0  0  0  0  0  0  0  0  0
   62.7241   33.9586   45.3277 H   0  0  0  0  0  0  0  0  0  0  0  0
   59.9488   35.6198   46.0977 H   0  0  0  0  0  0  0  0  0  0  0  0
   60.3336   34.2735   44.9596 H   0  0  0  0  0  0  0  0  0  0  0  0
  1  2  1  0
  2  3  1  0
  3  4  1  0
  4  5  1  0
  5  6  1  0
  6  7  1  0
  7  8  1  0
  8  9  1  0
  9 10  2  0
 10 11  1  0
 11 12  2  0
 12 13  1  0
 13 14  2  0
 14 15  1  0
 15  6  1  0
 14  9  1  0
  1 16  1  0
  1 17  1  0
  1 18  1  0
  2 19  1  0
  2 20  1  0
  3 21  1  0
  3 22  1  0
  4 23  1  0
  4 24  1  0
  5 25  1  0
  5 26  1  0
  7 27  1  0
  7 28  1  0
  8 29  1  0
  8 30  1  0
 10 31  1  0
 11 32  1  0
 12 33  1  0
 13 34  1  0
 15 35  1  0
 15 36  1  0
M  CHG  1   8   1
M  END
>  <UniqueID>  (1) 
1

>  <SMILES>  (1) 
CCCCCN1C[NH2+]c2ccccc2C1

>  <Energy>  (1) 
45.83896831461515

>  <Genealogy>  (1) 
CCCCCN1C[NH2+]c2ccccc2C1 (protonated)
CCCCCN1C[NH2+]c2ccccc2C1 (3D coordinates assigned)
CCCCCN1C[NH2+]c2ccccc2C1 (nonaromatic ring conformer: 45.83896831461515 kcal/mol)

>  <smiles>  (1) 
CCCCCN1CNc2ccccc2C1

>  <score_type>  (1) 
oracle

>  <origin>  (1) 
adg

>  <m_score__min__energy>  (1) 
-4.4000000000000004

>  <m_primary>  (1) 
energy

$$$$
1:0
     RDKit          3D

 24 26  0  0  0  0  0  0  0  0999 V2000
   61.0820   34.2000   49.3560 C   0  0  0  0  0  0  0  0  0  0  0  0
   60.2280   34.6740   48.3200 O   0  0  0  0  0  0  0  0  0  0  0  0
   59.5410   33.8480   47.4170 C   0  0  0  0  0  0  0  0  0  0  0  0
   58.8480   32.7440   47.9270 C   0  0  0  0  0  0  0  0  0  0  0  0
   58.1450   31.8860   47.0780 C   0  0  0  0  0  0  0  0  0  0  0  0
   58.1280   32.1250   45.6960 C   0  0  0  0  0  0  0  0  0  0  0  0
   58.8270   33.2420   45.1630 C   0  0  0  0  0  0  0  0  0  0  0  0
   59.5270   34.0940   46.0300 C   0  0  0  0  0  0  0  0  0  0  0  0
   58.8140   33.4830   43.8100 N   0  0  0  0  0  0  0  0  0  0  0  0
   58.1420   32.6720   42.9430 C   0  0  0  0  0  0  0  0  0  0  0  0
   57.4550   31.5760   43.4500 C   0  0  0  0  0  0  0  0  0  0  0  0
   56.5530   30.4230   42.6330 S   0  0  0  0  0  0  0  0  0  0  0  0
   56.1740   29.5980   44.0620 C   0  0  0  0  0  0  0  0  0  0  0  0
   56.7260   30.1910   45.1490 N   0  0  0  0  0  0  0  0  0  0  0  0
   57.4390   31.2950   44.8020 C   0  0  0  0  0  0  0  0  0  0  0  0
   60.6421   34.4441   50.3342 H   0  0  0  0  0  0  0  0  0  0  0  0
   61.1960   33.1095   49.2671 H   0  0  0  0  0  0  0  0  0  0  0  0
   62.0677   34.6801   49.2671 H   0  0  0  0  0  0  0  0  0  0  0  0
   58.8571   32.5497   49.0097 H   0  0  0  0  0  0  0  0  0  0  0  0
   57.6046   31.0226   47.4934 H   0  0  0  0  0  0  0  0  0  0  0  0
   60.0691   34.9607   45.6238 H   0  0  0  0  0  0  0  0  0  0  0  0
   59.3280   34.3040   43.4210 H   0  0  0  0  0  0  0  0  0  0  0  0
   58.1440   32.8818   41.8632 H   0  0  0  0  0  0  0  0  0  0  0  0
   55.5544   28.6900   44.1035 H   0  0  0  0  0  0  0  0  0  0  0  0
  1  2  1  0
  2  3  1  0
  3  4  2  0
  4  5  1  0
  5  6  2  0
  6  7  1  0
  7  8  2  0
  7  9  1  0
  9 10  2  0
 10 11  1  0
 11 12  1  0
 12 13  1  0
 13 14  2  0
 14 15  1  0
  8  3  1  0
 15 11  2  0
 15  6  1  0
  1 16  1  0
  1 17  1  0
  1 18  1  0
  4 19  1  0
  5 20  1  0
  8 21  1  0
  9 22  1  0
 10 23  1  0
 13 24  1  0
M  CHG  1   9   1
M  END
>  <UniqueID>  (2) 
2

>  <SMILES>  (2) 
COc1ccc2c(c1)[nH+]cc1scnc12

>  <Energy>  (2) 
64.40309309043302

>  <Genealogy>  (2) 
COc1ccc2c(c1)[nH+]cc1scnc12 (protonated)
COc1ccc2c(c1)[nH+]cc1scnc12 (3D coordinates assigned)
COc1ccc2c(c1)[nH+]cc1scnc12 (optimized conformer: 64.40309309043302 kcal/mol)

>  <smiles>  (2) 
COc1ccc2c(c1)ncc1scnc12

>  <score_type>  (2) 
oracle

>  <origin>  (2) 
adg

>  <m_score__min__energy>  (2) 
-4.0800000000000001

>  <m_primary>  (2) 
energy

$$$$
2:0
     RDKit          3D

 38 40  0  0  0  0  0  0  0  0999 V2000
   56.8090   30.5190   43.7250 C   0  0  0  0  0  0  0  0  0  0  0  0
   57.5790   31.3460   44.7230 C   0  0  0  0  0  0  0  0  0  0  0  0
   57.0780   32.6190   45.0430 C   0  0  0  0  0  0  0  0  0  0  0  0
   57.7150   33.4170   45.9860 C   0  0  0  0  0  0  0  0  0  0  0  0
   58.8460   32.9520   46.6460 C   0  0  0  0  0  0  0  0  0  0  0  0
   59.3830   31.6880   46.3470 C   0  0  0  0  0  0  0  0  0  0  0  0
   60.5710   31.2160   47.1500 C   0  0  0  0  0  0  0  0  0  0  0  0
   58.7920   30.8950   45.3200 C   0  0  0  0  0  0  0  0  0  0  0  0
   59.4130   29.5600   44.9180 C   0  0  0  0  0  0  0  0  0  0  0  0
   58.9050   28.4510   45.7280 N   0  0  0  0  0  0  0  0  0  0  0  0
   58.5030   27.1680   45.2100 C   0  0  0  0  0  0  0  0  0  0  0  0
   58.8310   26.0030   45.9080 C   0  0  0  0  0  0  0  0  0  0  0  0
   58.4500   24.7910   45.4330 N   0  0  0  0  0  0  0  0  0  0  0  0
   57.7490   24.6760   44.2730 C   0  0  0  0  0  0  0  0  0  0  0  0
   57.3600   23.3780   43.7990 N   0  0  0  0  0  0  0  0  0  0  0  0
   57.9090   22.1970   44.1350 C   0  0  0  0  0  0  0  0  0  0  0  0
   57.2160   21.2330   43.4380 C   0  0  0  0  0  0  0  0  0  0  0  0
   56.2710   21.8500   42.7010 N   0  0  0  0  0  0  0  0  0  0  0  0
   56.3820   23.1490   42.9380 N   0  0  0  0  0  0  0  0  0  0  0  0
   57.4220   25.7970   43.5710 N   0  0  0  0  0  0  0  0  0  0  0  0
   57.7850   27.0310   44.0130 C   0  0  0  0  0  0  0  0  0  0  0  0
   56.1539   29.8154   44.2596 H   0  0  0  0  0  0  0  0  0  0  0  0
   56.1983   31.1811   43.0936 H   0  0  0  0  0  0  0  0  0  0  0  0
   57.5130   29.9571   43.0936 H   0  0  0  0  0  0  0  0  0  0  0  0
   56.1713   32.9883   44.5415 H   0  0  0  0  0  0  0  0  0  0  0  0
   57.3226   34.4198   46.2106 H   0  0  0  0  0  0  0  0  0  0  0  0
   59.3263   33.5800   47.4108 H   0  0  0  0  0  0  0  0  0  0  0  0
   60.3469   31.3050   48.2232 H   0  0  0  0  0  0  0  0  0  0  0  0
   60.7843   30.1648   46.9059 H   0  0  0  0  0  0  0  0  0  0  0  0
   61.4475   31.8342   46.9059 H   0  0  0  0  0  0  0  0  0  0  0  0
   59.1792   29.3638   43.8612 H   0  0  0  0  0  0  0  0  0  0  0  0
   60.4988   29.6286   45.0800 H   0  0  0  0  0  0  0  0  0  0  0  0
   58.8200   28.6140   46.7580 H   0  0  0  0  0  0  0  0  0  0  0  0
   59.4006   26.0690   46.8467 H   0  0  0  0  0  0  0  0  0  0  0  0
   58.7463   22.0336   44.8295 H   0  0  0  0  0  0  0  0  0  0  0  0
   57.4010   20.1493   43.4759 H   0  0  0  0  0  0  0  0  0  0  0  0
   56.8880   25.7240   42.6760 H   0  0  0  0  0  0  0  0  0  0  0  0
   57.5148   27.9239   43.4302 H   0  0  0  0  0  0  0  0  0  0  0  0
  1  2  1  0
  2  3  2  0
  3  4  1  0
  4  5  2  0
  5  6  1  0
  6  7  1  0
  6  8  2  0
  8  9  1  0
  9 10  1  0
 10 11  1  0
 11 12  2  0
 12 13  1  0
 13 14  2  0
 14 15  1  0
 15 16  1  0
 16 17  2  0
 17 18  1  0
 18 19  2  0
 14 20  1  0
 20 21  2  0
  8  2  1  0
 21 11  1  0
 19 15  1  0
  1 22  1  0
  1 23  1  0
  1 24  1  0
  3 25  1  0
  4 26  1  0
  5 27  1  0
  7 28  1  0
  7 29  1  0
  7 30  1  0
  9 31  1  0
  9 32  1  0
 10 33  1  0
 12 34  1  0
 16 35  1  0
 17 36  1  0
 20 37  1  0
 21 38  1  0
M  CHG  1  20   1
M  END
>  <UniqueID>  (3) 
3

>  <SMILES>  (3) 
Cc1cccc(C)c1CNc1cnc(-n2ccnn2)[nH+]c1

>  <Energy>  (3) 
79.2859887381271

>  <Genealogy>  (3) 
Cc1cccc(C)c1CNc1cnc(-n2ccnn2)[nH+]c1 (protonated)
Cc1cccc(C)c1CNc1cnc(-n2ccnn2)[nH+]c1 (3D coordinates assigned)
Cc1cccc(C)c1CNc1cnc(-n2ccnn2)[nH+]c1 (optimized conformer: 79.2859887381271 kcal/mol)

>  <smiles>  (3) 
Cc1cccc(C)c1CNc1cnc(-n2ccnn2)nc1

>  <score_type>  (3) 
oracle

>  <origin>  (3) 
adg

>  <m_score__min__energy>  (3) 
-6.4500000000000002

>  <m_primary>  (3) 
energy

$$$$
3:0
     RDKit          3D

 27 29  0  0  0  0  0  0  0  0999 V2000
   55.5690   29.7170   43.9170 N   0  0  0  0  0  0  0  0  0  0  0  0
   56.3840   30.4060   44.3630 C   0  0  0  0  0  0  0  0  0  0  0  0
   57.3980   31.2630   44.9190 C   0  0  0  0  0  0  0  0  0  0  0  0
   58.3900   30.7230   45.7730 C   0  0  0  0  0  0  0  0  0  0  0  0
   59.3840   31.5490   46.3290 C   0  0  0  0  0  0  0  0  0  0  0  0
   59.3630   32.9060   45.9940 C   0  0  0  0  0  0  0  0  0  0  0  0
   58.3920   33.4290   45.1860 C   0  0  0  0  0  0  0  0  0  0  0  0
   57.3910   32.6420   44.6230 C   0  0  0  0  0  0  0  0  0  0  0  0
   58.5590   34.7570   45.0790 N   0  0  0  0  0  0  0  0  0  0  0  0
   59.6470   35.0240   45.8410 C   0  0  0  0  0  0  0  0  0  0  0  0
   60.1680   33.9060   46.4100 N   0  0  0  0  0  0  0  0  0  0  0  0
   61.3250   33.8410   47.2610 C   0  0  0  0  0  0  0  0  0  0  0  0
   61.2190   34.1120   48.6370 C   0  0  0  0  0  0  0  0  0  0  0  0
   62.3450   34.0310   49.4610 C   0  0  0  0  0  0  0  0  0  0  0  0
   63.5830   33.6710   48.9220 C   0  0  0  0  0  0  0  0  0  0  0  0
   63.6950   33.3850   47.5590 C   0  0  0  0  0  0  0  0  0  0  0  0
   62.5710   33.4640   46.7320 C   0  0  0  0  0  0  0  0  0  0  0  0
   58.3834   29.6475   46.0039 H   0  0  0  0  0  0  0  0  0  0  0  0
   60.1510   31.1412   47.0038 H   0  0  0  0  0  0  0  0  0  0  0  0
   56.6217   33.0803   43.9703 H   0  0  0  0  0  0  0  0  0  0  0  0
   57.9770   35.4360   44.5400 H   0  0  0  0  0  0  0  0  0  0  0  0
   60.0618   36.0328   45.9829 H   0  0  0  0  0  0  0  0  0  0  0  0
   60.2451   34.3891   49.0668 H   0  0  0  0  0  0  0  0  0  0  0  0
   62.2566   34.2509   50.5352 H   0  0  0  0  0  0  0  0  0  0  0  0
   64.4694   33.6128   49.5708 H   0  0  0  0  0  0  0  0  0  0  0  0
   64.6689   33.0973   47.1363 H   0  0  0  0  0  0  0  0  0  0  0  0
   62.6623   33.2298   45.6611 H   0  0  0  0  0  0  0  0  0  0  0  0
  1  2  3  0
  2  3  1  0
  3  4  2  0
  4  5  1  0
  5  6  2  0
  6  7  1  0
  7  8  2  0
  7  9  1  0
  9 10  2  0
 10 11  1  0
 11 12  1  0
 12 13  2  0
 13 14  1  0
 14 15  2  0
 15 16  1  0
 16 17  2  0
  8  3  1  0
 17 12  1  0
 11  6  1  0
  4 18  1  0
  5 19  1  0
  8 20  1  0
  9 21  1  0
 10 22  1  0
 13 23  1  0
 14 24  1  0
 15 25  1  0
 16 26  1  0
 17 27  1  0
M  CHG  1   9   1
M  END
>  <UniqueID>  (4) 
4

>  <SMILES>  (4) 
N#Cc1ccc2c(c1)[nH+]cn2-c1ccccc1

>  <Energy>  (4) 
73.12377961157163

>  <Genealogy>  (4) 
N#Cc1ccc2c(c1)[nH+]cn2-c1ccccc1 (protonated)
N#Cc1ccc2c(c1)[nH+]cn2-c1ccccc1 (3D coordinates assigned)
N#Cc1ccc2c(c1)[nH+]cn2-c1ccccc1 (optimized conformer: 73.12377961157163 kcal/mol)

>  <smiles>  (4) 
N#Cc1ccc2c(c1)ncn2-c1ccccc1

>  <score_type>  (4) 
oracle

>  <origin>  (4) 
adg

>  <m_score__min__energy>  (4) 
-5.04

>  <m_primary>  (4) 
energy

$$$$
4:0
     RDKit          3D

 50 52  0  0  0  0  0  0  0  0999 V2000
   57.7560   27.7420   43.8450 C   0  0  0  0  0  0  0  0  0  0  0  0
   57.3850   29.1480   43.5160 C   0  0  0  0  0  0  0  0  0  0  0  0
   58.1310   30.2220   43.8560 N   0  0  0  0  0  0  0  0  0  0  0  0
   57.4270   31.2260   43.2880 C   0  0  0  0  0  0  0  0  0  0  0  0
   57.8270   32.6650   43.3520 C   0  0  0  0  0  0  0  0  0  0  0  0
   57.3340   33.2840   44.6000 N   0  0  0  0  0  0  0  0  0  0  0  0
   57.4060   32.3910   45.7790 C   0  0  0  0  0  0  0  0  0  0  0  0
   58.8400   32.1890   46.2920 C   0  0  0  0  0  0  0  0  0  0  0  0
   59.5640   33.5290   46.5440 C   0  0  0  0  0  0  0  0  0  0  0  0
   59.4310   34.4640   45.3140 C   0  0  0  0  0  0  0  0  0  0  0  0
   57.9630   34.5910   44.8740 C   0  0  0  0  0  0  0  0  0  0  0  0
   59.1550   34.1870   47.8710 C   0  0  0  0  0  0  0  0  0  0  0  0
   60.5500   33.8100   48.3520 C   0  0  0  0  0  0  0  0  0  0  0  0
   60.9250   33.2420   47.0500 N   0  0  0  0  0  0  0  0  0  0  0  0
   62.1170   33.8370   46.3890 C   0  0  0  0  0  0  0  0  0  0  0  0
   63.3420   34.1980   47.2810 C   0  0  0  0  0  0  0  0  0  0  0  0
   63.9210   32.9760   48.0320 C   0  0  0  0  0  0  0  0  0  0  0  0
   63.3370   31.6580   47.5020 C   0  0  0  0  0  0  0  0  0  0  0  0
   63.6460   33.0950   49.5370 C   0  0  0  0  0  0  0  0  0  0  0  0
   56.3670   30.7820   42.6550 O   0  0  0  0  0  0  0  0  0  0  0  0
   56.3180   29.4940   42.7770 N   0  0  0  0  0  0  0  0  0  0  0  0
   57.7889   27.6175   44.9374 H   0  0  0  0  0  0  0  0  0  0  0  0
   57.0080   27.0564   43.4202 H   0  0  0  0  0  0  0  0  0  0  0  0
   58.7449   27.5147   43.4202 H   0  0  0  0  0  0  0  0  0  0  0  0
   58.9242   32.7375   43.3208 H   0  0  0  0  0  0  0  0  0  0  0  0
   57.3875   33.1950   42.4941 H   0  0  0  0  0  0  0  0  0  0  0  0
   56.8027   32.8289   46.5879 H   0  0  0  0  0  0  0  0  0  0  0  0
   57.0252   31.4064   45.4699 H   0  0  0  0  0  0  0  0  0  0  0  0
   58.8025   31.6239   47.2350 H   0  0  0  0  0  0  0  0  0  0  0  0
   59.4009   31.6425   45.5195 H   0  0  0  0  0  0  0  0  0  0  0  0
   59.8152   35.4607   45.5767 H   0  0  0  0  0  0  0  0  0  0  0  0
   60.0098   34.0343   44.4831 H   0  0  0  0  0  0  0  0  0  0  0  0
   57.3982   35.0923   45.6739 H   0  0  0  0  0  0  0  0  0  0  0  0
   57.9459   35.1699   43.9388 H   0  0  0  0  0  0  0  0  0  0  0  0
   58.9579   35.2677   47.8140 H   0  0  0  0  0  0  0  0  0  0  0  0
   58.2418   33.9077   48.4169 H   0  0  0  0  0  0  0  0  0  0  0  0
   61.1614   34.6765   48.6441 H   0  0  0  0  0  0  0  0  0  0  0  0
   60.6508   33.1863   49.2525 H   0  0  0  0  0  0  0  0  0  0  0  0
   62.4639   33.1188   45.6315 H   0  0  0  0  0  0  0  0  0  0  0  0
   61.7634   34.8041   46.0022 H   0  0  0  0  0  0  0  0  0  0  0  0
   64.1296   34.6219   46.6407 H   0  0  0  0  0  0  0  0  0  0  0  0
   62.9981   34.9181   48.0381 H   0  0  0  0  0  0  0  0  0  0  0  0
   65.0070   32.9650   47.8574 H   0  0  0  0  0  0  0  0  0  0  0  0
   63.0526   31.0162   48.3489 H   0  0  0  0  0  0  0  0  0  0  0  0
   62.4489   31.8708   46.8888 H   0  0  0  0  0  0  0  0  0  0  0  0
   64.0912   31.1431   46.8888 H   0  0  0  0  0  0  0  0  0  0  0  0
   64.5138   32.7195   50.0991 H   0  0  0  0  0  0  0  0  0  0  0  0
   63.4702   34.1497   49.7954 H   0  0  0  0  0  0  0  0  0  0  0  0
   62.7569   32.5011   49.7954 H   0  0  0  0  0  0  0  0  0  0  0  0
   55.5900   28.8680   42.3650 H   0  0  0  0  0  0  0  0  0  0  0  0
  1  2  1  0
  2  3  1  0
  3  4  2  0
  4  5  1  0
  5  6  1  0
  6  7  1  0
  7  8  1  0
  8  9  1  0
  9 10  1  0
 10 11  1  0
  9 12  1  0
 12 13  1  0
 13 14  1  0
 14 15  1  0
 15 16  1  0
 16 17  1  0
 17 18  1  0
 17 19  1  0
  4 20  1  0
 20 21  1  0
 21  2  2  0
 11  6  1  0
 14  9  1  0
  1 22  1  0
  1 23  1  0
  1 24  1  0
  5 25  1  0
  5 26  1  0
  7 27  1  0
  7 28  1  0
  8 29  1  0
  8 30  1  0
 10 31  1  0
 10 32  1  0
 11 33  1  0
 11 34  1  0
 12 35  1  0
 12 36  1  0
 13 37  1  0
 13 38  1  0
 15 39  1  0
 15 40  1  0
 16 41  1  0
 16 42  1  0
 17 43  1  0
 18 44  1  0
 18 45  1  0
 18 46  1  0
 19 47  1  0
 19 48  1  0
 19 49  1  0
 21 50  1  0
M  CHG  1  21   1
M  END
>  <UniqueID>  (5) 
5

>  <SMILES>  (5) 
Cc1nc(CN2CCC3(CC2)CCN3CCC(C)C)o[nH+]1

>  <Energy>  (5) 
165.04146428417215

>  <Genealogy>  (5) 
Cc1nc(CN2CCC3(CC2)CCN3CCC(C)C)o[nH+]1 (protonated)
Cc1nc(CN2CCC3(CC2)CCN3CCC(C)C)o[nH+]1 (3D coordinates assigned)
Cc1nc(CN2CCC3(CC2)CCN3CCC(C)C)o[nH+]1 (nonaromatic ring conformer: 165.04146428417215 kcal/mol)

>  <smiles>  (5) 
Cc1noc(CN2CCC3(CC2)CCN3CCC(C)C)n1

>  <score_type>  (5) 
oracle

>  <origin>  (5) 
adg

>  <m_score__min__energy>  (5) 
-6.7800000000000002

>  <m_primary>  (5) 
energy

$$$$
5:0
     RDKit          3D

 44 45  0  0  0  0  0  0  0  0999 V2000
   60.2230   30.2340   47.0410 C   0  0  0  0  0  0  0  0  0  0  0  0
   60.5220   30.3720   48.4250 O   0  0  0  0  0  0  0  0  0  0  0  0
   59.5780   30.6810   49.4160 C   0  0  0  0  0  0  0  0  0  0  0  0
   59.1350   29.7240   50.3440 C   0  0  0  0  0  0  0  0  0  0  0  0
   58.1890   30.0660   51.3100 C   0  0  0  0  0  0  0  0  0  0  0  0
   57.6790   31.3700   51.3760 C   0  0  0  0  0  0  0  0  0  0  0  0
   56.6440   31.7230   52.4080 C   0  0  0  0  0  0  0  0  0  0  0  0
   55.2600   31.2080   51.9970 C   0  0  0  0  0  0  0  0  0  0  0  0
   54.6910   30.3880   53.0730 N   0  0  0  0  0  0  0  0  0  0  0  0
   54.3320   29.0440   52.5990 C   0  0  0  0  0  0  0  0  0  0  0  0
   52.8120   28.8750   52.6470 C   0  0  0  0  0  0  0  0  0  0  0  0
   52.1280   30.2130   52.5470 C   0  0  0  0  0  0  0  0  0  0  0  0
   51.7240   30.8940   53.7120 C   0  0  0  0  0  0  0  0  0  0  0  0
   51.1000   32.1400   53.6130 C   0  0  0  0  0  0  0  0  0  0  0  0
   50.8850   32.7230   52.3580 C   0  0  0  0  0  0  0  0  0  0  0  0
   50.2740   33.9650   52.2650 O   0  0  0  0  0  0  0  0  0  0  0  0
   51.2860   32.0530   51.1990 C   0  0  0  0  0  0  0  0  0  0  0  0
   51.0740   32.6290   49.9510 O   0  0  0  0  0  0  0  0  0  0  0  0
   51.9040   30.8020   51.2940 C   0  0  0  0  0  0  0  0  0  0  0  0
   58.1070   32.3260   50.4460 C   0  0  0  0  0  0  0  0  0  0  0  0
   59.0650   31.9890   49.4670 C   0  0  0  0  0  0  0  0  0  0  0  0
   59.5300   32.9220   48.5310 O   0  0  0  0  0  0  0  0  0  0  0  0
   60.0440   34.2080   48.8570 C   0  0  0  0  0  0  0  0  0  0  0  0
   59.2299   29.7756   46.9244 H   0  0  0  0  0  0  0  0  0  0  0  0
   60.2276   31.2253   46.5643 H   0  0  0  0  0  0  0  0  0  0  0  0
   60.9803   29.5944   46.5643 H   0  0  0  0  0  0  0  0  0  0  0  0
   59.5360   28.7003   50.3086 H   0  0  0  0  0  0  0  0  0  0  0  0
   57.8404   29.3067   52.0255 H   0  0  0  0  0  0  0  0  0  0  0  0
   56.9256   31.2692   53.3697 H   0  0  0  0  0  0  0  0  0  0  0  0
   56.5978   32.8184   52.4974 H   0  0  0  0  0  0  0  0  0  0  0  0
   54.5965   32.0631   51.8006 H   0  0  0  0  0  0  0  0  0  0  0  0
   55.3572   30.5956   51.0884 H   0  0  0  0  0  0  0  0  0  0  0  0
   53.8170   30.8500   53.4130 H   0  0  0  0  0  0  0  0  0  0  0  0
   54.6828   28.9142   51.5645 H   0  0  0  0  0  0  0  0  0  0  0  0
   54.8053   28.2892   53.2442 H   0  0  0  0  0  0  0  0  0  0  0  0
   52.4917   28.2413   51.8069 H   0  0  0  0  0  0  0  0  0  0  0  0
   52.5367   28.4058   53.6031 H   0  0  0  0  0  0  0  0  0  0  0  0
   51.9000   30.4444   54.7004 H   0  0  0  0  0  0  0  0  0  0  0  0
   50.7765   32.6649   54.5239 H   0  0  0  0  0  0  0  0  0  0  0  0
   52.2166   30.2764   50.3797 H   0  0  0  0  0  0  0  0  0  0  0  0
   57.6939   33.3449   50.4793 H   0  0  0  0  0  0  0  0  0  0  0  0
   60.0883   34.3188   49.9505 H   0  0  0  0  0  0  0  0  0  0  0  0
   61.0546   34.3164   48.4363 H   0  0  0  0  0  0  0  0  0  0  0  0
   59.3866   34.9831   48.4363 H   0  0  0  0  0  0  0  0  0  0  0  0
  1  2  1  0
  2  3  1  0
  3  4  2  0
  4  5  1  0
  5  6  2  0
  6  7  1  0
  7  8  1  0
  8  9  1  0
  9 10  1  0
 10 11  1  0
 11 12  1  0
 12 13  2  0
 13 14  1  0
 14 15  2  0
 15 16  1  0
 15 17  1  0
 17 18  1  0
 17 19  2  0
  6 20  1  0
 20 21  2  0
 21 22  1  0
 22 23  1  0
 21  3  1  0
 19 12  1  0
  1 24  1  0
  1 25  1  0
  1 26  1  0
  4 27  1  0
  5 28  1  0
  7 29  1  0
  7 30  1  0
  8 31  1  0
  8 32  1  0
  9 33  1  0
 10 34  1  0
 10 35  1  0
 11 36  1  0
 11 37  1  0
 13 38  1  0
 14 39  1  0
 19 40  1  0
 20 41  1  0
 23 42  1  0
 23 43  1  0
 23 44  1  0
M  CHG  2  16  -1  18  -1
M  END
>  <UniqueID>  (6) 
6

>  <SMILES>  (6) 
COc1ccc(CCNCCc2ccc([O-])c([O-])c2)cc1OC

>  <Energy>  (6) 
38.49043517856132

>  <Genealogy>  (6) 
COc1ccc(CCNCCc2ccc([O-])c([O-])c2)cc1OC (protonated)
COc1ccc(CCNCCc2ccc([O-])c([O-])c2)cc1OC (3D coordinates assigned)
COc1ccc(CCNCCc2ccc([O-])c([O-])c2)cc1OC (optimized conformer: 38.49043517856132 kcal/mol)

>  <smiles>  (6) 
COc1ccc(CCNCCc2ccc(O)c(O)c2)cc1OC

>  <score_type>  (6) 
oracle

>  <origin>  (6) 
adg

>  <m_score__min__energy>  (6) 
-14.84

>  <m_primary>  (6) 
energy

$$$$
6:0
     RDKit          3D

 35 37  0  0  0  0  0  0  0  0999 V2000
   59.6985   29.5716   44.7642 H   0  0  0  0  0  0  0  0  0  0  0  0
   59.0900   29.2520   45.6230 C   0  0  0  0  0  0  0  0  0  0  0  0
   58.6410   30.1950   46.4630 C   0  0  0  0  0  0  0  0  0  0  0  0
   58.4021   29.9104   47.4983 H   0  0  0  0  0  0  0  0  0  0  0  0
   58.4540   31.6060   46.0510 C   0  0  0  0  0  0  0  0  0  0  0  0
   59.3360   32.5680   46.5680 C   0  0  0  0  0  0  0  0  0  0  0  0
   60.1330   32.2601   47.2608 H   0  0  0  0  0  0  0  0  0  0  0  0
   59.2110   33.9120   46.2110 C   0  0  0  0  0  0  0  0  0  0  0  0
   59.9144   34.6556   46.6139 H   0  0  0  0  0  0  0  0  0  0  0  0
   58.1950   34.3120   45.3440 C   0  0  0  0  0  0  0  0  0  0  0  0
   58.1055   35.3695   45.0547 H   0  0  0  0  0  0  0  0  0  0  0  0
   57.2910   33.3740   44.8420 C   0  0  0  0  0  0  0  0  0  0  0  0
   56.4889   33.6978   44.1625 H   0  0  0  0  0  0  0  0  0  0  0  0
   57.3990   32.0140   45.2000 C   0  0  0  0  0  0  0  0  0  0  0  0
   56.4670   31.0620   44.7540 O   0  0  0  0  0  0  0  0  0  0  0  0
   56.5770   30.3260   43.5390 C   0  0  0  0  0  0  0  0  0  0  0  0
   56.7360   29.2619   43.7680 H   0  0  0  0  0  0  0  0  0  0  0  0
   55.6517   30.4412   42.9555 H   0  0  0  0  0  0  0  0  0  0  0  0
   57.4282   30.7067   42.9555 H   0  0  0  0  0  0  0  0  0  0  0  0
   58.8160   27.8070   45.7820 C   0  0  0  0  0  0  0  0  0  0  0  0
   57.5170   27.4070   45.8630 N   0  0  0  0  0  0  0  0  0  0  0  0
   57.1630   26.1040   46.0240 C   0  0  0  0  0  0  0  0  0  0  0  0
   55.8110   25.7400   46.0950 C   0  0  0  0  0  0  0  0  0  0  0  0
   54.8170   26.7080   46.0040 O   0  0  0  0  0  0  0  0  0  0  0  0
   55.4570   24.3960   46.2600 C   0  0  0  0  0  0  0  0  0  0  0  0
   54.3959   24.1116   46.3160 H   0  0  0  0  0  0  0  0  0  0  0  0
   56.4480   23.4130   46.3540 C   0  0  0  0  0  0  0  0  0  0  0  0
   56.0970   22.1140   46.5130 F   0  0  0  0  0  0  0  0  0  0  0  0
   57.7990   23.7680   46.2840 C   0  0  0  0  0  0  0  0  0  0  0  0
   58.5757   22.9926   46.3584 H   0  0  0  0  0  0  0  0  0  0  0  0
   58.1640   25.1120   46.1190 C   0  0  0  0  0  0  0  0  0  0  0  0
   59.5070   25.4980   46.0510 C   0  0  0  0  0  0  0  0  0  0  0  0
   60.3017   24.7411   46.1259 H   0  0  0  0  0  0  0  0  0  0  0  0
   59.8380   26.8450   45.8880 C   0  0  0  0  0  0  0  0  0  0  0  0
   60.8931   27.1528   45.8426 H   0  0  0  0  0  0  0  0  0  0  0  0
  1  2  1  0
  2  3  2  0
  3  4  1  0
  3  5  1  0
  5  6  2  0
  6  7  1  0
  6  8  1  0
  8  9  1  0
  8 10  2  0
 10 11  1  0
 10 12  1  0
 12 13  1  0
 12 14  2  0
 14 15  1  0
 15 16  1  0
 16 17  1  0
 16 18  1  0
 16 19  1  0
  2 20  1  0
 20 21  2  0
 21 22  1  0
 22 23  2  0
 23 24  1  0
 23 25  1  0
 25 26  1  0
 25 27  2  0
 27 28  1  0
 27 29  1  0
 29 30  1  0
 29 31  2  0
 31 32  1  0
 32 33  1  0
 32 34  2  0
 34 35  1  0
 14  5  1  0
 34 20  1  0
 31 22  1  0
M  CHG  1  24  -1
M  END
>  <UniqueID>  (7) 
7

>  <SMILES>  (7) 
COc1ccccc1/C=C/c1ccc2cc(F)cc([O-])c2n1

>  <Energy>  (7) 
47.191399859948554

>  <Genealogy>  (7) 
COc1ccccc1C=Cc1ccc2cc(F)cc([O-])c2n1 (protonated)
COc1ccccc1/C=C/c1ccc2cc(F)cc([O-])c2n1 (cis-trans isomerization)
COc1ccccc1/C=C/c1ccc2cc(F)cc([O-])c2n1 (3D coordinates assigned)
COc1ccccc1/C=C/c1ccc2cc(F)cc([O-])c2n1 (optimized conformer: 47.191399859948554 kcal/mol)

>  <smiles>  (7) 
COc1ccccc1C=Cc1ccc2cc(F)cc(O)c2n1

>  <score_type>  (7) 
oracle

>  <origin>  (7) 
adg

>  <m_score__min__energy>  (7) 
-11.859999999999999

>  <m_primary>  (7) 
energy

$$$$
7:0
     RDKit          3D

 44 45  0  0  0  0  0  0  0  0999 V2000
   60.7880   28.9400   44.8580 C   0  0  0  0  0  0  0  0  0  0  0  0
   59.7300   27.8880   45.1870 C   0  0  0  0  0  0  0  0  0  0  0  0
   58.3290   28.2490   44.6610 C   0  0  0  0  0  0  0  0  0  0  0  0
   57.2540   28.3510   45.7730 C   0  0  0  0  0  0  0  0  0  0  0  0
   57.0480   27.0130   46.5270 C   0  0  0  0  0  0  0  0  0  0  0  0
   56.9120   25.7870   45.6040 C   0  0  0  0  0  0  0  0  0  0  0  0
   55.5390   25.1210   45.6710 C   0  0  0  0  0  0  0  0  0  0  0  0
   55.9800   28.8520   45.2410 N   0  0  0  0  0  0  0  0  0  0  0  0
   55.7490   29.8020   44.1870 C   0  0  0  0  0  0  0  0  0  0  0  0
   54.7410   29.6530   43.4490 O   0  0  0  0  0  0  0  0  0  0  0  0
   56.6330   30.9530   43.9410 C   0  0  0  0  0  0  0  0  0  0  0  0
   57.1740   31.1540   42.6640 C   0  0  0  0  0  0  0  0  0  0  0  0
   58.0290   32.2340   42.4430 C   0  0  0  0  0  0  0  0  0  0  0  0
   58.3550   33.0870   43.4960 C   0  0  0  0  0  0  0  0  0  0  0  0
   57.8320   32.8360   44.7680 C   0  0  0  0  0  0  0  0  0  0  0  0
   58.2730   33.8990   46.1420 S   0  0  0  0  0  0  0  0  0  0  0  0
   59.4830   32.7360   46.7620 C   0  0  0  0  0  0  0  0  0  0  0  0
   59.1500   31.4470   47.1950 C   0  0  0  0  0  0  0  0  0  0  0  0
   60.2450   30.7120   47.6270 C   0  0  0  0  0  0  0  0  0  0  0  0
   61.6140   31.6760   47.4680 S   0  0  0  0  0  0  0  0  0  0  0  0
   60.8360   33.0320   46.8520 C   0  0  0  0  0  0  0  0  0  0  0  0
   56.9980   31.7750   44.9680 N   0  0  0  0  0  0  0  0  0  0  0  0
   61.2003   29.3499   45.7918 H   0  0  0  0  0  0  0  0  0  0  0  0
   61.5960   28.4769   44.2727 H   0  0  0  0  0  0  0  0  0  0  0  0
   60.3295   29.7506   44.2727 H   0  0  0  0  0  0  0  0  0  0  0  0
   60.0363   26.9320   44.7372 H   0  0  0  0  0  0  0  0  0  0  0  0
   59.6609   27.8267   46.2831 H   0  0  0  0  0  0  0  0  0  0  0  0
   58.3903   29.2196   44.1470 H   0  0  0  0  0  0  0  0  0  0  0  0
   58.0190   27.4366   43.9873 H   0  0  0  0  0  0  0  0  0  0  0  0
   57.6333   29.0781   46.5061 H   0  0  0  0  0  0  0  0  0  0  0  0
   57.9115   26.8530   47.1894 H   0  0  0  0  0  0  0  0  0  0  0  0
   56.1007   27.1019   47.0791 H   0  0  0  0  0  0  0  0  0  0  0  0
   57.0918   26.1100   44.5680 H   0  0  0  0  0  0  0  0  0  0  0  0
   57.6482   25.0438   45.9440 H   0  0  0  0  0  0  0  0  0  0  0  0
   55.2503   24.9810   46.7232 H   0  0  0  0  0  0  0  0  0  0  0  0
   54.7970   25.7593   45.1690 H   0  0  0  0  0  0  0  0  0  0  0  0
   55.5809   24.1431   45.1690 H   0  0  0  0  0  0  0  0  0  0  0  0
   56.9265   30.4657   41.8424 H   0  0  0  0  0  0  0  0  0  0  0  0
   58.4448   32.4119   41.4403 H   0  0  0  0  0  0  0  0  0  0  0  0
   59.0172   33.9491   43.3279 H   0  0  0  0  0  0  0  0  0  0  0  0
   58.1220   31.0555   47.1930 H   0  0  0  0  0  0  0  0  0  0  0  0
   60.2217   29.6799   48.0068 H   0  0  0  0  0  0  0  0  0  0  0  0
   61.3129   33.9826   46.5709 H   0  0  0  0  0  0  0  0  0  0  0  0
   56.6550   31.5810   45.9340 H   0  0  0  0  0  0  0  0  0  0  0  0
  1  2  1  0
  2  3  1  0
  3  4  1  0
  4  5  1  0
  5  6  1  0
  6  7  1  0
  4  8  1  0
  8  9  1  0
  9 10  2  0
  9 11  1  0
 11 12  2  0
 12 13  1  0
 13 14  2  0
 14 15  1  0
 15 16  1  0
 16 17  1  0
 17 18  1  0
 18 19  2  0
 19 20  1  0
 20 21  1  0
 15 22  2  0
 22 11  1  0
 21 17  2  0
  1 23  1  0
  1 24  1  0
  1 25  1  0
  2 26  1  0
  2 27  1  0
  3 28  1  0
  3 29  1  0
  4 30  1  0
  5 31  1  0
  5 32  1  0
  6 33  1  0
  6 34  1  0
  7 35  1  0
  7 36  1  0
  7 37  1  0
 12 38  1  0
 13 39  1  0
 14 40  1  0
 18 41  1  0
 19 42  1  0
 21 43  1  0
 22 44  1  0
M  CHG  2   8  -1  22   1
M  END
>  <UniqueID>  (8) 
8

>  <SMILES>  (8) 
CCCC(CCC)[N-]C(=O)c1cccc(Sc2ccsc2)[nH+]1

>  <Energy>  (8) 
64.99422729146279

>  <Genealogy>  (8) 
CCCC(CCC)[N-]C(=O)c1cccc(Sc2ccsc2)[nH+]1 (protonated)
CCCC(CCC)[N-]C(=O)c1cccc(Sc2ccsc2)[nH+]1 (3D coordinates assigned)
CCCC(CCC)[N-]C(=O)c1cccc(Sc2ccsc2)[nH+]1 (optimized conformer: 64.99422729146279 kcal/mol)

>  <smiles>  (8) 
CCCC(CCC)NC(=O)c1cccc(Sc2ccsc2)n1

>  <score_type>  (8) 
oracle

>  <origin>  (8) 
adg

>  <m_score__min__energy>  (8) 
-7.3099999999999996

>  <m_primary>  (8) 
energy

$$$$
8:0
     RDKit          3D

 74 79  0  0  0  0  0  0  0  0999 V2000
   61.3207   31.3160   52.1570 H   0  0  0  0  0  0  0  0  0  0  0  0
   60.5240   31.0240   51.4570 C   0  0  0  0  0  0  0  0  0  0  0  0
   59.5950   31.9550   51.1440 C   0  0  0  0  0  0  0  0  0  0  0  0
   58.7840   32.5990   52.2040 C   0  0  0  0  0  0  0  0  0  0  0  0
   59.1060   33.7460   52.6060 O   0  0  0  0  0  0  0  0  0  0  0  0
   57.6800   31.9320   52.8290 N   0  0  0  0  0  0  0  0  0  0  0  0
   56.4640   31.4560   52.1700 C   0  0  0  0  0  0  0  0  0  0  0  0
   55.8463   32.3233   51.8937 H   0  0  0  0  0  0  0  0  0  0  0  0
   56.7608   30.8814   51.2802 H   0  0  0  0  0  0  0  0  0  0  0  0
   55.6460   30.5350   53.0790 C   0  0  0  0  0  0  0  0  0  0  0  0
   56.3093   30.1239   53.8543 H   0  0  0  0  0  0  0  0  0  0  0  0
   54.8340   31.1327   53.5188 H   0  0  0  0  0  0  0  0  0  0  0  0
   55.0070   29.3720   52.3100 C   0  0  0  0  0  0  0  0  0  0  0  0
   55.2797   29.4473   51.2470 H   0  0  0  0  0  0  0  0  0  0  0  0
   55.3743   28.4234   52.7287 H   0  0  0  0  0  0  0  0  0  0  0  0
   60.3100   27.7900   47.6710 N   0  0  0  0  0  0  0  0  0  0  0  0
   59.2390   27.7070   46.9270 C   0  0  0  0  0  0  0  0  0  0  0  0
   58.4550   26.5590   47.0950 C   0  0  0  0  0  0  0  0  0  0  0  0
   58.6628   25.8733   47.9296 H   0  0  0  0  0  0  0  0  0  0  0  0
   51.5870   31.4390   50.1420 C   0  0  0  0  0  0  0  0  0  0  0  0
   51.3868   31.5404   49.0651 H   0  0  0  0  0  0  0  0  0  0  0  0
   50.9680   32.2630   51.0250 N   0  0  0  0  0  0  0  0  0  0  0  0
   51.1900   32.1770   52.3630 C   0  0  0  0  0  0  0  0  0  0  0  0
   50.5280   33.0560   53.2300 C   0  0  0  0  0  0  0  0  0  0  0  0
   49.8318   33.8056   52.8258 H   0  0  0  0  0  0  0  0  0  0  0  0
   50.7510   32.9820   54.6090 C   0  0  0  0  0  0  0  0  0  0  0  0
   49.9240   34.0890   55.6900 Cl  0  0  0  0  0  0  0  0  0  0  0  0
   58.8940   30.8830   44.9130 C   0  0  0  0  0  0  0  0  0  0  0  0
   59.3020   31.9040   44.8808 H   0  0  0  0  0  0  0  0  0  0  0  0
   59.3380   29.9880   45.8890 C   0  0  0  0  0  0  0  0  0  0  0  0
   60.0873   30.3162   46.6244 H   0  0  0  0  0  0  0  0  0  0  0  0
   58.8390   28.6670   45.9460 C   0  0  0  0  0  0  0  0  0  0  0  0
   59.3960   32.4000   49.7280 C   0  0  0  0  0  0  0  0  0  0  0  0
   58.1220   32.3870   49.1250 C   0  0  0  0  0  0  0  0  0  0  0  0
   57.2477   32.0562   49.7048 H   0  0  0  0  0  0  0  0  0  0  0  0
   57.9600   32.7910   47.7960 C   0  0  0  0  0  0  0  0  0  0  0  0
   56.9627   32.7615   47.3329 H   0  0  0  0  0  0  0  0  0  0  0  0
   59.0560   33.2310   47.0550 C   0  0  0  0  0  0  0  0  0  0  0  0
   58.9244   33.5298   46.0046 H   0  0  0  0  0  0  0  0  0  0  0  0
   60.3220   33.2930   47.6450 C   0  0  0  0  0  0  0  0  0  0  0  0
   61.5100   33.7470   46.8480 C   0  0  0  0  0  0  0  0  0  0  0  0
   62.3147   34.0545   47.5321 H   0  0  0  0  0  0  0  0  0  0  0  0
   61.8636   32.9206   46.2139 H   0  0  0  0  0  0  0  0  0  0  0  0
   61.2224   34.5986   46.2139 H   0  0  0  0  0  0  0  0  0  0  0  0
   60.4880   32.8700   48.9700 C   0  0  0  0  0  0  0  0  0  0  0  0
   61.4879   32.9051   49.4272 H   0  0  0  0  0  0  0  0  0  0  0  0
   60.5500   29.6390   50.9280 C   0  0  0  0  0  0  0  0  0  0  0  0
   60.9010   28.5860   51.7880 C   0  0  0  0  0  0  0  0  0  0  0  0
   61.0900   28.7902   52.8522 H   0  0  0  0  0  0  0  0  0  0  0  0
   61.0120   27.2810   51.3020 C   0  0  0  0  0  0  0  0  0  0  0  0
   61.2758   26.4607   51.9858 H   0  0  0  0  0  0  0  0  0  0  0  0
   60.7880   27.0160   49.9460 C   0  0  0  0  0  0  0  0  0  0  0  0
   60.8930   25.9902   49.5629 H   0  0  0  0  0  0  0  0  0  0  0  0
   60.4310   28.0520   49.0770 C   0  0  0  0  0  0  0  0  0  0  0  0
   53.5480   29.4140   52.4380 N   0  0  0  0  0  0  0  0  0  0  0  0
   52.7330   30.3260   51.9750 C   0  0  0  0  0  0  0  0  0  0  0  0
   52.4770   30.4630   50.5950 C   0  0  0  0  0  0  0  0  0  0  0  0
   52.9789   29.8003   49.8747 H   0  0  0  0  0  0  0  0  0  0  0  0
   57.4140   26.2790   46.2130 C   0  0  0  0  0  0  0  0  0  0  0  0
   56.8214   25.3610   46.3402 H   0  0  0  0  0  0  0  0  0  0  0  0
   57.1270   27.1310   45.1990 N   0  0  0  0  0  0  0  0  0  0  0  0
   56.3460   26.8780   44.5530 H   0  0  0  0  0  0  0  0  0  0  0  0
   57.7840   28.3170   45.0550 C   0  0  0  0  0  0  0  0  0  0  0  0
   57.3740   29.2150   44.0560 C   0  0  0  0  0  0  0  0  0  0  0  0
   56.6052   28.9117   43.3301 H   0  0  0  0  0  0  0  0  0  0  0  0
   57.9360   30.4890   43.9790 C   0  0  0  0  0  0  0  0  0  0  0  0
   57.3880   31.6170   42.7520 Cl  0  0  0  0  0  0  0  0  0  0  0  0
   51.6320   32.0270   55.1260 C   0  0  0  0  0  0  0  0  0  0  0  0
   51.8043   31.9717   56.2110 H   0  0  0  0  0  0  0  0  0  0  0  0
   52.2950   31.1420   54.2700 C   0  0  0  0  0  0  0  0  0  0  0  0
   52.9842   30.3923   54.6858 H   0  0  0  0  0  0  0  0  0  0  0  0
   52.0850   31.2050   52.8750 C   0  0  0  0  0  0  0  0  0  0  0  0
   60.3340   29.3660   49.5660 C   0  0  0  0  0  0  0  0  0  0  0  0
   60.0871   30.1875   48.8774 H   0  0  0  0  0  0  0  0  0  0  0  0
  1  2  1  0
  2  3  2  3
  3  4  1  0
  4  5  2  0
  4  6  1  0
  6  7  1  0
  7  8  1  0
  7  9  1  0
  7 10  1  0
 10 11  1  0
 10 12  1  0
 10 13  1  0
 13 14  1  0
 13 15  1  0
 13 16  1  0
 16 17  2  0
 17 18  1  0
 18 19  1  0
 18 20  2  0
 20 21  1  0
 20 22  1  0
 22 23  1  0
 23 24  2  0
 24 25  1  0
 24 26  1  0
 26 27  1  0
 26 28  2  0
 28 29  1  0
 28 30  1  0
 30 31  1  0
 30 32  2  0
  3 33  1  0
 33 34  2  0
 34 35  1  0
 34 36  1  0
 36 37  1  0
 36 38  2  0
 38 39  1  0
 38 40  1  0
 40 41  1  0
 41 42  1  0
 41 43  1  0
 41 44  1  0
 40 45  2  0
 45 46  1  0
  2 47  1  0
 47 48  2  0
 48 49  1  0
 48 50  1  0
 50 51  1  0
 50 52  2  0
 52 53  1  0
 52 54  1  0
 54 55  1  0
 55 56  2  0
 56 57  1  0
 57 58  1  0
 57 59  2  0
 59 60  1  0
 59 61  1  0
 61 62  1  0
 61 63  1  0
 63 64  2  0
 64 65  1  0
 64 66  1  0
 66 67  1  0
 66 68  2  0
 68 69  1  0
 68 70  1  0
 70 71  1  0
 70 72  2  0
 54 73  2  0
 73 74  1  0
 32 17  1  0
 45 33  1  0
 73 47  1  0
 32 23  1  0
 72 56  1  0
 72 63  1  0
M  CHG  2   6  -1  22  -1
M  END
>  <UniqueID>  (9) 
9

>  <SMILES>  (9) 
Cc1cccc(C(=Cc2cccc(/N=c3/cc[nH]c4cc(Cl)ccc34)c2)C(=O)[N-]CCC/N=c2\cc[n-]c3cc(Cl)ccc23)c1

>  <Energy>  (9) 
119.71293495604444

>  <Genealogy>  (9) 
Cc1cccc(C(=Cc2cccc(N=c3cc[nH]c4cc(Cl)ccc34)c2)C(=O)[N-]CCCN=c2cc[n-]c3cc(Cl)ccc23)c1 (protonated)
Cc1cccc(C(=Cc2cccc(/N=c3/cc[nH]c4cc(Cl)ccc34)c2)C(=O)[N-]CCC/N=c2\cc[n-]c3cc(Cl)ccc23)c1 (cis-trans isomerization)
Cc1cccc(C(=Cc2cccc(/N=c3/cc[nH]c4cc(Cl)ccc34)c2)C(=O)[N-]CCC/N=c2\cc[n-]c3cc(Cl)ccc23)c1 (3D coordinates assigned)
Cc1cccc(C(=Cc2cccc(/N=c3/cc[nH]c4cc(Cl)ccc34)c2)C(=O)[N-]CCC/N=c2\cc[n-]c3cc(Cl)ccc23)c1 (optimized conformer: 119.71293495604444 kcal/mol)

>  <smiles>  (9) 
Cc1cccc(C(=Cc2cccc(N=c3cc[nH]c4cc(Cl)ccc34)c2)C(=O)NCCCN=c2cc[nH]c3cc(Cl)ccc23)c1

>  <score_type>  (9) 
oracle

>  <origin>  (9) 
adg

>  <m_score__min__energy>  (9) 
-15.449999999999999

>  <m_primary>  (9) 
energy

$$$$
9:0
     RDKit          3D

 36 37  0  0  0  0  0  0  0  0999 V2000
   57.8040   24.4390   45.3110 C   0  0  0  0  0  0  0  0  0  0  0  0
   57.9190   25.3380   46.4100 O   0  0  0  0  0  0  0  0  0  0  0  0
   57.9720   26.7350   46.2910 C   0  0  0  0  0  0  0  0  0  0  0  0
   59.0390   27.4090   46.8900 C   0  0  0  0  0  0  0  0  0  0  0  0
   59.1450   28.7960   46.7950 C   0  0  0  0  0  0  0  0  0  0  0  0
   58.1890   29.5360   46.0860 C   0  0  0  0  0  0  0  0  0  0  0  0
   58.3430   31.0030   46.0060 C   0  0  0  0  0  0  0  0  0  0  0  0
   57.3950   31.7970   45.5580 O   0  0  0  0  0  0  0  0  0  0  0  0
   57.8220   33.0390   45.6140 C   0  0  0  0  0  0  0  0  0  0  0  0
   57.0040   34.2160   45.1940 C   0  0  0  0  0  0  0  0  0  0  0  0
   59.1130   33.0730   46.1130 C   0  0  0  0  0  0  0  0  0  0  0  0
   59.9290   34.2910   46.4190 C   0  0  0  0  0  0  0  0  0  0  0  0
   59.4410   31.7600   46.3990 C   0  0  0  0  0  0  0  0  0  0  0  0
   60.7030   31.2820   47.0520 C   0  0  0  0  0  0  0  0  0  0  0  0
   57.0850   28.8780   45.5070 C   0  0  0  0  0  0  0  0  0  0  0  0
   56.0920   29.6420   44.8710 O   0  0  0  0  0  0  0  0  0  0  0  0
   56.0930   29.9890   43.4910 C   0  0  0  0  0  0  0  0  0  0  0  0
   56.9930   27.4730   45.6000 C   0  0  0  0  0  0  0  0  0  0  0  0
   57.6729   23.4140   45.6880 H   0  0  0  0  0  0  0  0  0  0  0  0
   56.9343   24.7184   44.6982 H   0  0  0  0  0  0  0  0  0  0  0  0
   58.7160   24.4905   44.6982 H   0  0  0  0  0  0  0  0  0  0  0  0
   59.8023   26.8404   47.4415 H   0  0  0  0  0  0  0  0  0  0  0  0
   59.9856   29.3135   47.2803 H   0  0  0  0  0  0  0  0  0  0  0  0
   56.6368   34.7444   46.0861 H   0  0  0  0  0  0  0  0  0  0  0  0
   57.6239   34.8978   44.5933 H   0  0  0  0  0  0  0  0  0  0  0  0
   56.1489   33.8726   44.5933 H   0  0  0  0  0  0  0  0  0  0  0  0
   60.0108   34.4132   47.5091 H   0  0  0  0  0  0  0  0  0  0  0  0
   60.9339   34.1773   45.9863 H   0  0  0  0  0  0  0  0  0  0  0  0
   59.4416   35.1771   45.9863 H   0  0  0  0  0  0  0  0  0  0  0  0
   60.5892   31.3251   48.1452 H   0  0  0  0  0  0  0  0  0  0  0  0
   60.9047   30.2452   46.7449 H   0  0  0  0  0  0  0  0  0  0  0  0
   61.5410   31.9250   46.7449 H   0  0  0  0  0  0  0  0  0  0  0  0
   56.0962   31.0842   43.3883 H   0  0  0  0  0  0  0  0  0  0  0  0
   56.9899   29.5729   43.0089 H   0  0  0  0  0  0  0  0  0  0  0  0
   55.1937   29.5781   43.0089 H   0  0  0  0  0  0  0  0  0  0  0  0
   56.1483   26.9498   45.1281 H   0  0  0  0  0  0  0  0  0  0  0  0
  1  2  1  0
  2  3  1  0
  3  4  2  0
  4  5  1  0
  5  6  2  0
  6  7  1  0
  7  8  1  0
  8  9  1  0
  9 10  1  0
  9 11  2  0
 11 12  1  0
 11 13  1  0
 13 14  1  0
  6 15  1  0
 15 16  1  0
 16 17  1  0
 15 18  2  0
 18  3  1  0
 13  7  2  0
  1 19  1  0
  1 20  1  0
  1 21  1  0
  4 22  1  0
  5 23  1  0
 10 24  1  0
 10 25  1  0
 10 26  1  0
 12 27  1  0
 12 28  1  0
 12 29  1  0
 14 30  1  0
 14 31  1  0
 14 32  1  0
 17 33  1  0
 17 34  1  0
 17 35  1  0
 18 36  1  0
M  END
>  <UniqueID>  (10) 
10

>  <SMILES>  (10) 
COc1ccc(-c2oc(C)c(C)c2C)c(OC)c1

>  <Energy>  (10) 
63.966670003252936

>  <Genealogy>  (10) 
COc1ccc(-c2oc(C)c(C)c2C)c(OC)c1 (3D coordinates assigned)
COc1ccc(-c2oc(C)c(C)c2C)c(OC)c1 (optimized conformer: 63.966670003252936 kcal/mol)

>  <smiles>  (10) 
COc1ccc(-c2oc(C)c(C)c2C)c(OC)c1

>  <score_type>  (10) 
oracle

>  <origin>  (10) 
adg

>  <m_score__min__energy>  (10) 
-6.1900000000000004

>  <m_primary>  (10) 
energy

$$$$
10:0
     RDKit          3D

 55 56  0  0  0  0  0  0  0  0999 V2000
   57.3340   33.9200   45.5850 C   0  0  0  0  0  0  0  0  0  0  0  0
   58.6980   33.9660   44.9020 C   0  0  0  0  0  0  0  0  0  0  0  0
   59.6410   34.9380   45.6210 C   0  0  0  0  0  0  0  0  0  0  0  0
   59.7740   34.6260   47.1190 C   0  0  0  0  0  0  0  0  0  0  0  0
   61.1500   34.1100   47.4710 C   0  0  0  0  0  0  0  0  0  0  0  0
   62.0720   33.8360   46.4450 C   0  0  0  0  0  0  0  0  0  0  0  0
   63.3350   33.3270   46.7480 C   0  0  0  0  0  0  0  0  0  0  0  0
   63.6910   33.0820   48.0740 C   0  0  0  0  0  0  0  0  0  0  0  0
   62.7840   33.3440   49.1040 C   0  0  0  0  0  0  0  0  0  0  0  0
   61.5040   33.8580   48.8140 C   0  0  0  0  0  0  0  0  0  0  0  0
   60.5660   34.1240   49.8250 O   0  0  0  0  0  0  0  0  0  0  0  0
   59.8090   33.1310   50.5130 C   0  0  0  0  0  0  0  0  0  0  0  0
   59.1160   32.2010   49.5080 C   0  0  0  0  0  0  0  0  0  0  0  0
   59.7160   30.7770   49.4540 C   0  0  0  0  0  0  0  0  0  0  0  0
   60.2870   30.4200   48.1250 N   0  0  0  0  0  0  0  0  0  0  0  0
   60.1110   28.9890   47.7750 C   0  0  0  0  0  0  0  0  0  0  0  0
   58.6560   28.6150   47.4390 C   0  0  0  0  0  0  0  0  0  0  0  0
   58.0610   29.5820   46.5070 N   0  0  0  0  0  0  0  0  0  0  0  0
   57.0190   29.1650   45.6030 C   0  0  0  0  0  0  0  0  0  0  0  0
   56.7260   27.9410   45.4950 O   0  0  0  0  0  0  0  0  0  0  0  0
   56.3330   30.1140   44.8370 O   0  0  0  0  0  0  0  0  0  0  0  0
   56.5440   30.2740   43.4400 C   0  0  0  0  0  0  0  0  0  0  0  0
   58.2750   31.0110   46.7580 C   0  0  0  0  0  0  0  0  0  0  0  0
   59.7560   31.2820   47.0450 C   0  0  0  0  0  0  0  0  0  0  0  0
   57.4702   33.9246   46.6765 H   0  0  0  0  0  0  0  0  0  0  0  0
   56.7441   34.7988   45.2854 H   0  0  0  0  0  0  0  0  0  0  0  0
   56.8046   33.0035   45.2854 H   0  0  0  0  0  0  0  0  0  0  0  0
   59.1409   32.9592   44.9153 H   0  0  0  0  0  0  0  0  0  0  0  0
   58.5599   34.3130   43.8674 H   0  0  0  0  0  0  0  0  0  0  0  0
   60.6362   34.8727   45.1570 H   0  0  0  0  0  0  0  0  0  0  0  0
   59.2168   35.9484   45.5257 H   0  0  0  0  0  0  0  0  0  0  0  0
   59.5827   35.5456   47.6914 H   0  0  0  0  0  0  0  0  0  0  0  0
   59.0437   33.8421   47.3684 H   0  0  0  0  0  0  0  0  0  0  0  0
   61.7955   34.0242   45.3971 H   0  0  0  0  0  0  0  0  0  0  0  0
   64.0513   33.1185   45.9397 H   0  0  0  0  0  0  0  0  0  0  0  0
   64.6881   32.6816   48.3095 H   0  0  0  0  0  0  0  0  0  0  0  0
   63.0707   33.1479   50.1477 H   0  0  0  0  0  0  0  0  0  0  0  0
   60.4815   32.5393   51.1515 H   0  0  0  0  0  0  0  0  0  0  0  0
   59.0444   33.6262   51.1296 H   0  0  0  0  0  0  0  0  0  0  0  0
   58.0550   32.1193   49.7866 H   0  0  0  0  0  0  0  0  0  0  0  0
   59.2585   32.6451   48.5118 H   0  0  0  0  0  0  0  0  0  0  0  0
   60.5159   30.7080   50.2060 H   0  0  0  0  0  0  0  0  0  0  0  0
   58.8941   30.0731   49.6514 H   0  0  0  0  0  0  0  0  0  0  0  0
   61.3160   30.6020   48.1470 H   0  0  0  0  0  0  0  0  0  0  0  0
   60.7394   28.7643   46.9005 H   0  0  0  0  0  0  0  0  0  0  0  0
   60.4011   28.4012   48.6583 H   0  0  0  0  0  0  0  0  0  0  0  0
   58.6394   27.6160   46.9788 H   0  0  0  0  0  0  0  0  0  0  0  0
   58.0703   28.6227   48.3701 H   0  0  0  0  0  0  0  0  0  0  0  0
   57.4103   30.9309   43.2729 H   0  0  0  0  0  0  0  0  0  0  0  0
   56.7351   29.2918   42.9832 H   0  0  0  0  0  0  0  0  0  0  0  0
   55.6498   30.7231   42.9832 H   0  0  0  0  0  0  0  0  0  0  0  0
   57.9653   31.5858   45.8727 H   0  0  0  0  0  0  0  0  0  0  0  0
   57.6787   31.3154   47.6308 H   0  0  0  0  0  0  0  0  0  0  0  0
   60.3337   31.0957   46.1277 H   0  0  0  0  0  0  0  0  0  0  0  0
   59.8488   32.3277   47.3734 H   0  0  0  0  0  0  0  0  0  0  0  0
  1  2  1  0
  2  3  1  0
  3  4  1  0
  4  5  1  0
  5  6  2  0
  6  7  1  0
  7  8  2  0
  8  9  1  0
  9 10  2  0
 10 11  1  0
 11 12  1  0
 12 13  1  0
 13 14  1  0
 14 15  1  0
 15 16  1  0
 16 17  1  0
 17 18  1  0
 18 19  1  0
 19 20  2  0
 19 21  1  0
 21 22  1  0
 18 23  1  0
 23 24  1  0
 10  5  1  0
 24 15  1  0
  1 25  1  0
  1 26  1  0
  1 27  1  0
  2 28  1  0
  2 29  1  0
  3 30  1  0
  3 31  1  0
  4 32  1  0
  4 33  1  0
  6 34  1  0
  7 35  1  0
  8 36  1  0
  9 37  1  0
 12 38  1  0
 12 39  1  0
 13 40  1  0
 13 41  1  0
 14 42  1  0
 14 43  1  0
 15 44  1  0
 16 45  1  0
 16 46  1  0
 17 47  1  0
 17 48  1  0
 22 49  1  0
 22 50  1  0
 22 51  1  0
 23 52  1  0
 23 53  1  0
 24 54  1  0
 24 55  1  0
M  CHG  1  15   1
M  END
>  <UniqueID>  (11) 
11

>  <SMILES>  (11) 
CCCCc1ccccc1OCCC[NH+]1CCN(C(=O)OC)CC1

>  <Energy>  (11) 
45.03069444020561

>  <Genealogy>  (11) 
CCCCc1ccccc1OCCC[NH+]1CCN(C(=O)OC)CC1 (protonated)
CCCCc1ccccc1OCCC[NH+]1CCN(C(=O)OC)CC1 (3D coordinates assigned)
CCCCc1ccccc1OCCC[NH+]1CCN(C(=O)OC)CC1 (nonaromatic ring conformer: 45.03069444020561 kcal/mol)

>  <smiles>  (11) 
CCCCc1ccccc1OCCCN1CCN(C(=O)OC)CC1

>  <score_type>  (11) 
oracle

>  <origin>  (11) 
adg

>  <m_score__min__energy>  (11) 
-5.7999999999999998

>  <m_primary>  (11) 
energy

$$$$
11:0
     RDKit          3D

 36 39  0  0  0  0  0  0  0  0999 V2000
   55.1320   30.7260   52.7930 C   0  0  0  0  0  0  0  0  0  0  0  0
   56.5950   30.3680   53.0250 C   0  0  0  0  0  0  0  0  0  0  0  0
   57.3690   30.5940   51.8090 N   0  0  0  0  0  0  0  0  0  0  0  0
   57.4670   31.7570   51.1390 C   0  0  0  0  0  0  0  0  0  0  0  0
   58.2400   31.5420   50.0120 C   0  0  0  0  0  0  0  0  0  0  0  0
   58.6200   32.5280   48.9700 C   0  0  0  0  0  0  0  0  0  0  0  0
   59.3280   33.7130   49.3130 C   0  0  0  0  0  0  0  0  0  0  0  0
   59.6960   34.6120   48.3530 N   0  0  0  0  0  0  0  0  0  0  0  0
   59.3620   34.3780   47.0620 C   0  0  0  0  0  0  0  0  0  0  0  0
   59.6980   35.1450   46.0130 N   0  0  0  0  0  0  0  0  0  0  0  0
   59.2020   34.5110   44.9270 C   0  0  0  0  0  0  0  0  0  0  0  0
   58.5370   33.3430   45.2990 C   0  0  0  0  0  0  0  0  0  0  0  0
   57.8730   32.4030   44.3750 C   0  0  0  0  0  0  0  0  0  0  0  0
   58.0420   32.4950   42.9870 C   0  0  0  0  0  0  0  0  0  0  0  0
   57.4010   31.5620   42.1730 C   0  0  0  0  0  0  0  0  0  0  0  0
   56.6430   30.5830   42.7290 N   0  0  0  0  0  0  0  0  0  0  0  0
   56.5020   30.4940   44.0770 C   0  0  0  0  0  0  0  0  0  0  0  0
   57.1180   31.3940   44.8870 N   0  0  0  0  0  0  0  0  0  0  0  0
   58.6630   33.2690   46.6790 C   0  0  0  0  0  0  0  0  0  0  0  0
   58.2930   32.3040   47.6120 C   0  0  0  0  0  0  0  0  0  0  0  0
   58.5720   30.1950   50.0660 C   0  0  0  0  0  0  0  0  0  0  0  0
   58.0230   29.6410   51.1640 N   0  0  0  0  0  0  0  0  0  0  0  0
   54.6266   30.8497   53.7622 H   0  0  0  0  0  0  0  0  0  0  0  0
   55.0702   31.6658   52.2247 H   0  0  0  0  0  0  0  0  0  0  0  0
   54.6432   29.9210   52.2247 H   0  0  0  0  0  0  0  0  0  0  0  0
   56.9984   30.9948   53.8340 H   0  0  0  0  0  0  0  0  0  0  0  0
   56.6646   29.3057   53.3020 H   0  0  0  0  0  0  0  0  0  0  0  0
   57.0113   32.7131   51.4361 H   0  0  0  0  0  0  0  0  0  0  0  0
   59.5825   33.9079   50.3653 H   0  0  0  0  0  0  0  0  0  0  0  0
   60.2430   36.0360   46.0280 H   0  0  0  0  0  0  0  0  0  0  0  0
   59.3083   34.8675   43.8918 H   0  0  0  0  0  0  0  0  0  0  0  0
   58.6673   33.2868   42.5488 H   0  0  0  0  0  0  0  0  0  0  0  0
   57.5096   31.6194   41.0799 H   0  0  0  0  0  0  0  0  0  0  0  0
   55.8883   29.6922   44.5134 H   0  0  0  0  0  0  0  0  0  0  0  0
   57.7611   31.3925   47.3017 H   0  0  0  0  0  0  0  0  0  0  0  0
   59.1881   29.6626   49.3264 H   0  0  0  0  0  0  0  0  0  0  0  0
  1  2  1  0
  2  3  1  0
  3  4  1  0
  4  5  2  0
  5  6  1  0
  6  7  2  0
  7  8  1  0
  8  9  2  0
  9 10  1  0
 10 11  1  0
 11 12  2  0
 12 13  1  0
 13 14  2  0
 14 15  1  0
 15 16  2  0
 16 17  1  0
 17 18  2  0
 12 19  1  0
 19 20  2  0
  5 21  1  0
 21 22  2  0
 22  3  1  0
 20  6  1  0
 19  9  1  0
 18 13  1  0
  1 23  1  0
  1 24  1  0
  1 25  1  0
  2 26  1  0
  2 27  1  0
  4 28  1  0
  7 29  1  0
 10 30  1  0
 11 31  1  0
 14 32  1  0
 15 33  1  0
 17 34  1  0
 20 35  1  0
 21 36  1  0
M  END
>  <UniqueID>  (12) 
12

>  <SMILES>  (12) 
CCn1cc(-c2cnc3[nH]cc(-c4ccncn4)c3c2)cn1

>  <Energy>  (12) 
108.53914089095045

>  <Genealogy>  (12) 
CCn1cc(-c2cnc3[nH]cc(-c4ccncn4)c3c2)cn1 (3D coordinates assigned)
CCn1cc(-c2cnc3[nH]cc(-c4ccncn4)c3c2)cn1 (optimized conformer: 108.53914089095045 kcal/mol)

>  <smiles>  (12) 
CCn1cc(-c2cnc3[nH]cc(-c4ccncn4)c3c2)cn1

>  <score_type>  (12) 
oracle

>  <origin>  (12) 
adg

>  <m_score__min__energy>  (12) 
-7.1900000000000004

>  <m_primary>  (12) 
energy

$$$$
12:0
     RDKit          3D

 26 28  0  0  0  0  0  0  0  0999 V2000
   58.4450   30.6860   44.6800 C   0  0  0  0  0  0  0  0  0  0  0  0
   58.3010   29.2400   45.0730 C   0  0  0  0  0  0  0  0  0  0  0  0
   57.0110   28.7250   45.3380 C   0  0  0  0  0  0  0  0  0  0  0  0
   56.8910   27.3870   45.7000 C   0  0  0  0  0  0  0  0  0  0  0  0
   55.7510   26.7190   45.9890 N   0  0  0  0  0  0  0  0  0  0  0  0
   56.1620   25.4660   46.2750 C   0  0  0  0  0  0  0  0  0  0  0  0
   55.3710   24.4250   46.6270 N   0  0  0  0  0  0  0  0  0  0  0  0
   55.9600   23.2180   46.8820 C   0  0  0  0  0  0  0  0  0  0  0  0
   57.3210   23.0710   46.7820 N   0  0  0  0  0  0  0  0  0  0  0  0
   58.1270   24.1140   46.4280 C   0  0  0  0  0  0  0  0  0  0  0  0
   57.5220   25.3350   46.1710 C   0  0  0  0  0  0  0  0  0  0  0  0
   57.9980   26.5710   45.8000 C   0  0  0  0  0  0  0  0  0  0  0  0
   59.2850   27.0330   45.5490 C   0  0  0  0  0  0  0  0  0  0  0  0
   59.4460   28.3870   45.1790 C   0  0  0  0  0  0  0  0  0  0  0  0
   60.8310   28.9090   44.9020 C   0  0  0  0  0  0  0  0  0  0  0  0
   58.5069   31.3076   45.5854 H   0  0  0  0  0  0  0  0  0  0  0  0
   59.3604   30.8145   44.0837 H   0  0  0  0  0  0  0  0  0  0  0  0
   57.5729   30.9925   44.0837 H   0  0  0  0  0  0  0  0  0  0  0  0
   56.1220   29.3681   45.2597 H   0  0  0  0  0  0  0  0  0  0  0  0
   54.7730   27.0880   45.9920 H   0  0  0  0  0  0  0  0  0  0  0  0
   55.3381   22.3575   47.1697 H   0  0  0  0  0  0  0  0  0  0  0  0
   59.2172   23.9905   46.3494 H   0  0  0  0  0  0  0  0  0  0  0  0
   60.1533   26.3634   45.6360 H   0  0  0  0  0  0  0  0  0  0  0  0
   61.3468   29.1034   45.8539 H   0  0  0  0  0  0  0  0  0  0  0  0
   61.3958   28.1620   44.3249 H   0  0  0  0  0  0  0  0  0  0  0  0
   60.7622   29.8429   44.3249 H   0  0  0  0  0  0  0  0  0  0  0  0
  1  2  1  0
  2  3  2  0
  3  4  1  0
  4  5  1  0
  5  6  1  0
  6  7  2  0
  7  8  1  0
  8  9  2  0
  9 10  1  0
 10 11  2  0
 11 12  1  0
 12 13  1  0
 13 14  2  0
 14 15  1  0
 14  2  1  0
 12  4  2  0
 11  6  1  0
  1 16  1  0
  1 17  1  0
  1 18  1  0
  3 19  1  0
  5 20  1  0
  8 21  1  0
 10 22  1  0
 13 23  1  0
 15 24  1  0
 15 25  1  0
 15 26  1  0
M  END
>  <UniqueID>  (13) 
13

>  <SMILES>  (13) 
Cc1cc2[nH]c3ncncc3c2cc1C

>  <Energy>  (13) 
72.35440587335283

>  <Genealogy>  (13) 
Cc1cc2[nH]c3ncncc3c2cc1C (3D coordinates assigned)
Cc1cc2[nH]c3ncncc3c2cc1C (optimized conformer: 72.35440587335283 kcal/mol)

>  <smiles>  (13) 
Cc1cc2[nH]c3ncncc3c2cc1C

>  <score_type>  (13) 
oracle

>  <origin>  (13) 
adg

>  <m_score__min__energy>  (13) 
-6.1900000000000004

>  <m_primary>  (13) 
energy

$$$$
13:0
     RDKit          3D

 40 41  0  0  0  0  0  0  0  0999 V2000
   57.3620   24.8310   47.2950 C   0  0  0  0  0  0  0  0  0  0  0  0
   58.0350   26.0660   47.5180 O   0  0  0  0  0  0  0  0  0  0  0  0
   58.5000   26.9110   46.4990 C   0  0  0  0  0  0  0  0  0  0  0  0
   59.8260   27.3540   46.5570 C   0  0  0  0  0  0  0  0  0  0  0  0
   60.3390   28.1900   45.5620 C   0  0  0  0  0  0  0  0  0  0  0  0
   59.5280   28.5970   44.5020 C   0  0  0  0  0  0  0  0  0  0  0  0
   58.1890   28.1760   44.4300 C   0  0  0  0  0  0  0  0  0  0  0  0
   57.3600   28.5730   43.3190 N   0  0  0  0  0  0  0  0  0  0  0  0
   56.2050   29.3450   43.8040 C   0  0  0  0  0  0  0  0  0  0  0  0
   56.4510   30.8530   43.6760 C   0  0  0  0  0  0  0  0  0  0  0  0
   57.8880   31.1270   43.5340 N   0  0  0  0  0  0  0  0  0  0  0  0
   58.1720   32.5630   43.6440 C   0  0  0  0  0  0  0  0  0  0  0  0
   58.4510   32.9350   45.0780 C   0  0  0  0  0  0  0  0  0  0  0  0
   58.3040   31.9650   46.0850 C   0  0  0  0  0  0  0  0  0  0  0  0
   58.5370   32.2950   47.4230 C   0  0  0  0  0  0  0  0  0  0  0  0
   58.9130   33.5950   47.7680 C   0  0  0  0  0  0  0  0  0  0  0  0
   59.0570   34.5680   46.7760 C   0  0  0  0  0  0  0  0  0  0  0  0
   58.8260   34.2450   45.4340 C   0  0  0  0  0  0  0  0  0  0  0  0
   58.9610   35.2100   44.4890 F   0  0  0  0  0  0  0  0  0  0  0  0
   57.6830   27.3230   45.4270 C   0  0  0  0  0  0  0  0  0  0  0  0
   57.1110   24.3704   48.2619 H   0  0  0  0  0  0  0  0  0  0  0  0
   56.4389   25.0141   46.7254 H   0  0  0  0  0  0  0  0  0  0  0  0
   58.0162   24.1545   46.7254 H   0  0  0  0  0  0  0  0  0  0  0  0
   60.4696   27.0416   47.3926 H   0  0  0  0  0  0  0  0  0  0  0  0
   61.3845   28.5281   45.6144 H   0  0  0  0  0  0  0  0  0  0  0  0
   59.9388   29.2508   43.7186 H   0  0  0  0  0  0  0  0  0  0  0  0
   57.0310   27.7210   42.8060 H   0  0  0  0  0  0  0  0  0  0  0  0
   57.9200   29.1540   42.6520 H   0  0  0  0  0  0  0  0  0  0  0  0
   55.3187   29.0747   43.2113 H   0  0  0  0  0  0  0  0  0  0  0  0
   56.0492   29.1071   44.8666 H   0  0  0  0  0  0  0  0  0  0  0  0
   55.9202   31.2330   42.7906 H   0  0  0  0  0  0  0  0  0  0  0  0
   56.0800   31.3535   44.5826 H   0  0  0  0  0  0  0  0  0  0  0  0
   58.1770   30.8190   42.5750 H   0  0  0  0  0  0  0  0  0  0  0  0
   59.0506   32.8069   43.0287 H   0  0  0  0  0  0  0  0  0  0  0  0
   57.2960   33.1280   43.2927 H   0  0  0  0  0  0  0  0  0  0  0  0
   58.0040   30.9408   45.8184 H   0  0  0  0  0  0  0  0  0  0  0  0
   58.4241   31.5299   48.2052 H   0  0  0  0  0  0  0  0  0  0  0  0
   59.0959   33.8530   48.8216 H   0  0  0  0  0  0  0  0  0  0  0  0
   59.3529   35.5913   47.0505 H   0  0  0  0  0  0  0  0  0  0  0  0
   56.6412   26.9745   45.3697 H   0  0  0  0  0  0  0  0  0  0  0  0
  1  2  1  0
  2  3  1  0
  3  4  2  0
  4  5  1  0
  5  6  2  0
  6  7  1  0
  7  8  1  0
  8  9  1  0
  9 10  1  0
 10 11  1  0
 11 12  1  0
 12 13  1  0
 13 14  2  0
 14 15  1  0
 15 16  2  0
 16 17  1  0
 17 18  2  0
 18 19  1  0
  7 20  2  0
 20  3  1  0
 18 13  1  0
  1 21  1  0
  1 22  1  0
  1 23  1  0
  4 24  1  0
  5 25  1  0
  6 26  1  0
  8 27  1  0
  8 28  1  0
  9 29  1  0
  9 30  1  0
 10 31  1  0
 10 32  1  0
 11 33  1  0
 12 34  1  0
 12 35  1  0
 14 36  1  0
 15 37  1  0
 16 38  1  0
 17 39  1  0
 20 40  1  0
M  CHG  1   8   1
M  END
>  <UniqueID>  (14) 
14

>  <SMILES>  (14) 
COc1cccc([NH2+]CCNCc2ccccc2F)c1

>  <Energy>  (14) 
36.99062321938177

>  <Genealogy>  (14) 
COc1cccc([NH2+]CCNCc2ccccc2F)c1 (protonated)
COc1cccc([NH2+]CCNCc2ccccc2F)c1 (3D coordinates assigned)
COc1cccc([NH2+]CCNCc2ccccc2F)c1 (optimized conformer: 36.99062321938177 kcal/mol)

>  <smiles>  (14) 
COc1cccc(NCCNCc2ccccc2F)c1

>  <score_type>  (14) 
oracle

>  <origin>  (14) 
adg

>  <m_score__min__energy>  (14) 
-5.4500000000000002

>  <m_primary>  (14) 
energy

$$$$
14:0
     RDKit          3D

 47 50  0  0  0  0  0  0  0  0999 V2000
   56.2650   30.1450   42.6960 C   0  0  0  0  0  0  0  0  0  0  0  0
   56.9650   30.0690   43.9750 N   0  0  0  0  0  0  0  0  0  0  0  0
   57.0670   28.9780   44.7720 C   0  0  0  0  0  0  0  0  0  0  0  0
   57.8120   29.2760   45.9090 C   0  0  0  0  0  0  0  0  0  0  0  0
   58.1650   30.6020   45.7770 C   0  0  0  0  0  0  0  0  0  0  0  0
   58.9130   31.4250   46.6160 C   0  0  0  0  0  0  0  0  0  0  0  0
   59.1190   32.7620   46.2170 C   0  0  0  0  0  0  0  0  0  0  0  0
   60.0720   33.8560   47.2170 S   0  0  0  0  0  0  0  0  0  0  0  0
   61.1560   34.4620   46.3680 O   0  0  0  0  0  0  0  0  0  0  0  0
   59.2000   34.9630   47.7430 O   0  0  0  0  0  0  0  0  0  0  0  0
   60.7790   32.9740   48.5490 N   0  0  0  0  0  0  0  0  0  0  0  0
   61.6790   31.9210   48.0200 C   0  0  0  0  0  0  0  0  0  0  0  0
   62.6620   31.4200   49.0830 C   0  0  0  0  0  0  0  0  0  0  0  0
   63.4640   32.5370   49.5980 N   0  0  0  0  0  0  0  0  0  0  0  0
   64.7590   32.2950   50.1930 C   0  0  0  0  0  0  0  0  0  0  0  0
   65.0120   31.0990   50.8930 C   0  0  0  0  0  0  0  0  0  0  0  0
   66.2640   30.8660   51.4670 C   0  0  0  0  0  0  0  0  0  0  0  0
   67.2790   31.8160   51.3480 C   0  0  0  0  0  0  0  0  0  0  0  0
   67.0440   33.0060   50.6540 C   0  0  0  0  0  0  0  0  0  0  0  0
   68.3230   34.1980   50.4990 Cl  0  0  0  0  0  0  0  0  0  0  0  0
   65.7920   33.2450   50.0770 C   0  0  0  0  0  0  0  0  0  0  0  0
   62.9530   33.9060   49.4430 C   0  0  0  0  0  0  0  0  0  0  0  0
   61.4200   33.9050   49.5190 C   0  0  0  0  0  0  0  0  0  0  0  0
   58.5770   33.2280   44.9950 C   0  0  0  0  0  0  0  0  0  0  0  0
   57.8260   32.3720   44.1710 C   0  0  0  0  0  0  0  0  0  0  0  0
   57.6390   31.0550   44.5960 C   0  0  0  0  0  0  0  0  0  0  0  0
   55.1860   30.2621   42.8750 H   0  0  0  0  0  0  0  0  0  0  0  0
   56.6377   31.0080   42.1247 H   0  0  0  0  0  0  0  0  0  0  0  0
   56.4439   29.2222   42.1247 H   0  0  0  0  0  0  0  0  0  0  0  0
   56.6237   27.9957   44.5515 H   0  0  0  0  0  0  0  0  0  0  0  0
   58.0653   28.5977   46.7370 H   0  0  0  0  0  0  0  0  0  0  0  0
   59.3298   31.0441   47.5600 H   0  0  0  0  0  0  0  0  0  0  0  0
   59.9880   32.4960   49.0400 H   0  0  0  0  0  0  0  0  0  0  0  0
   61.0692   31.0740   47.6727 H   0  0  0  0  0  0  0  0  0  0  0  0
   62.2626   32.3554   47.1949 H   0  0  0  0  0  0  0  0  0  0  0  0
   62.1001   30.9637   49.9113 H   0  0  0  0  0  0  0  0  0  0  0  0
   63.3327   30.6754   48.6294 H   0  0  0  0  0  0  0  0  0  0  0  0
   64.2182   30.3434   50.9882 H   0  0  0  0  0  0  0  0  0  0  0  0
   66.4504   29.9304   52.0147 H   0  0  0  0  0  0  0  0  0  0  0  0
   68.2640   31.6283   51.8004 H   0  0  0  0  0  0  0  0  0  0  0  0
   65.6133   34.1818   49.5288 H   0  0  0  0  0  0  0  0  0  0  0  0
   63.3573   34.5391   50.2466 H   0  0  0  0  0  0  0  0  0  0  0  0
   63.2661   34.3001   48.4649 H   0  0  0  0  0  0  0  0  0  0  0  0
   61.1217   33.6087   50.5355 H   0  0  0  0  0  0  0  0  0  0  0  0
   61.0822   34.9206   49.2652 H   0  0  0  0  0  0  0  0  0  0  0  0
   58.7453   34.2706   44.6872 H   0  0  0  0  0  0  0  0  0  0  0  0
   57.3992   32.7281   43.2218 H   0  0  0  0  0  0  0  0  0  0  0  0
  1  2  1  0
  2  3  1  0
  3  4  2  0
  4  5  1  0
  5  6  2  0
  6  7  1  0
  7  8  1  0
  8  9  2  0
  8 10  2  0
  8 11  1  0
 11 12  1  0
 12 13  1  0
 13 14  1  0
 14 15  1  0
 15 16  2  0
 16 17  1  0
 17 18  2  0
 18 19  1  0
 19 20  1  0
 19 21  2  0
 14 22  1  0
 22 23  1  0
  7 24  2  0
 24 25  1  0
 25 26  2  0
 26  2  1  0
 26  5  1  0
 23 11  1  0
 21 15  1  0
  1 27  1  0
  1 28  1  0
  1 29  1  0
  3 30  1  0
  4 31  1  0
  6 32  1  0
 11 33  1  0
 12 34  1  0
 12 35  1  0
 13 36  1  0
 13 37  1  0
 16 38  1  0
 17 39  1  0
 18 40  1  0
 21 41  1  0
 22 42  1  0
 22 43  1  0
 23 44  1  0
 23 45  1  0
 24 46  1  0
 25 47  1  0
M  CHG  1  11   1
M  END
>  <UniqueID>  (15) 
15

>  <SMILES>  (15) 
Cn1ccc2cc(S(=O)(=O)[NH+]3CCN(c4cccc(Cl)c4)CC3)ccc21

>  <Energy>  (15) 
91.06300165301195

>  <Genealogy>  (15) 
Cn1ccc2cc(S(=O)(=O)[NH+]3CCN(c4cccc(Cl)c4)CC3)ccc21 (protonated)
Cn1ccc2cc(S(=O)(=O)[NH+]3CCN(c4cccc(Cl)c4)CC3)ccc21 (3D coordinates assigned)
Cn1ccc2cc(S(=O)(=O)[NH+]3CCN(c4cccc(Cl)c4)CC3)ccc21 (nonaromatic ring conformer: 91.06300165301195 kcal/mol)

>  <smiles>  (15) 
Cn1ccc2cc(S(=O)(=O)N3CCN(c4cccc(Cl)c4)CC3)ccc21

>  <score_type>  (15) 
oracle

>  <origin>  (15) 
adg

>  <m_score__min__energy>  (15) 
-6.9699999999999998

>  <m_primary>  (15) 
energy

$$$$
15:0
     RDKit          3D

 28 29  0  0  0  0  0  0  0  0999 V2000
   63.8960   32.6830   48.5460 C   0  0  0  0  0  0  0  0  0  0  0  0
   62.8620   31.9200   47.9330 O   0  0  0  0  0  0  0  0  0  0  0  0
   61.6740   32.4610   47.4170 C   0  0  0  0  0  0  0  0  0  0  0  0
   61.4670   33.8400   47.5400 C   0  0  0  0  0  0  0  0  0  0  0  0
   60.3040   34.4340   47.0430 C   0  0  0  0  0  0  0  0  0  0  0  0
   59.3260   33.6510   46.4150 C   0  0  0  0  0  0  0  0  0  0  0  0
   58.1610   34.2380   45.9030 C   0  0  0  0  0  0  0  0  0  0  0  0
   57.1910   33.4480   45.2780 C   0  0  0  0  0  0  0  0  0  0  0  0
   57.3620   32.0620   45.1740 C   0  0  0  0  0  0  0  0  0  0  0  0
   56.3560   31.2910   44.5040 N   0  0  0  0  0  0  0  0  0  0  0  0
   56.2330   29.8620   44.5010 C   0  0  0  0  0  0  0  0  0  0  0  0
   57.3660   28.9660   44.1060 C   0  0  0  0  0  0  0  0  0  0  0  0
   55.1490   29.3440   44.8770 O   0  0  0  0  0  0  0  0  0  0  0  0
   58.5420   31.4710   45.6580 C   0  0  0  0  0  0  0  0  0  0  0  0
   59.5210   32.2550   46.2870 C   0  0  0  0  0  0  0  0  0  0  0  0
   60.6960   31.6690   46.7870 C   0  0  0  0  0  0  0  0  0  0  0  0
   63.8030   32.6144   49.6399 H   0  0  0  0  0  0  0  0  0  0  0  0
   64.8752   32.2894   48.2358 H   0  0  0  0  0  0  0  0  0  0  0  0
   63.8087   33.7347   48.2358 H   0  0  0  0  0  0  0  0  0  0  0  0
   62.2280   34.4626   48.0332 H   0  0  0  0  0  0  0  0  0  0  0  0
   60.1557   35.5192   47.1449 H   0  0  0  0  0  0  0  0  0  0  0  0
   58.0091   35.3237   45.9930 H   0  0  0  0  0  0  0  0  0  0  0  0
   56.2868   33.9189   44.8649 H   0  0  0  0  0  0  0  0  0  0  0  0
   57.8580   28.5769   45.0096 H   0  0  0  0  0  0  0  0  0  0  0  0
   56.9790   28.1270   43.5091 H   0  0  0  0  0  0  0  0  0  0  0  0
   58.0932   29.5359   43.5091 H   0  0  0  0  0  0  0  0  0  0  0  0
   58.6987   30.3883   45.5430 H   0  0  0  0  0  0  0  0  0  0  0  0
   60.8524   30.5849   46.6855 H   0  0  0  0  0  0  0  0  0  0  0  0
  1  2  1  0
  2  3  1  0
  3  4  2  0
  4  5  1  0
  5  6  2  0
  6  7  1  0
  7  8  2  0
  8  9  1  0
  9 10  1  0
 10 11  1  0
 11 12  1  0
 11 13  2  0
  9 14  2  0
 14 15  1  0
 15 16  2  0
 16  3  1  0
 15  6  1  0
  1 17  1  0
  1 18  1  0
  1 19  1  0
  4 20  1  0
  5 21  1  0
  7 22  1  0
  8 23  1  0
 12 24  1  0
 12 25  1  0
 12 26  1  0
 14 27  1  0
 16 28  1  0
M  CHG  1  10  -1
M  END
>  <UniqueID>  (16) 
16

>  <SMILES>  (16) 
COc1ccc2ccc([N-]C(C)=O)cc2c1

>  <Energy>  (16) 
33.928897747979576

>  <Genealogy>  (16) 
COc1ccc2ccc([N-]C(C)=O)cc2c1 (protonated)
COc1ccc2ccc([N-]C(C)=O)cc2c1 (3D coordinates assigned)
COc1ccc2ccc([N-]C(C)=O)cc2c1 (optimized conformer: 33.928897747979576 kcal/mol)

>  <smiles>  (16) 
COc1ccc2ccc(NC(C)=O)cc2c1

>  <score_type>  (16) 
oracle

>  <origin>  (16) 
adg

>  <m_score__min__energy>  (16) 
-8.2899999999999991

>  <m_primary>  (16) 
energy

$$$$
16:0
     RDKit          3D

 25 27  0  0  0  0  0  0  0  0999 V2000
   56.2740   31.9330   45.6150 H   0  0  0  0  0  0  0  0  0  0  0  0
   57.0560   31.4730   45.1070 N   0  0  0  0  0  0  0  0  0  0  0  0
   58.0590   30.8220   45.6170 C   0  0  0  0  0  0  0  0  0  0  0  0
   58.0500   29.3970   45.7000 C   0  0  0  0  0  0  0  0  0  0  0  0
   56.9700   28.5970   45.2430 C   0  0  0  0  0  0  0  0  0  0  0  0
   56.0868   29.0803   44.7999 H   0  0  0  0  0  0  0  0  0  0  0  0
   57.0130   27.2050   45.3480 C   0  0  0  0  0  0  0  0  0  0  0  0
   56.1658   26.6031   44.9874 H   0  0  0  0  0  0  0  0  0  0  0  0
   58.1210   26.5750   45.9060 C   0  0  0  0  0  0  0  0  0  0  0  0
   58.1700   24.6710   46.0460 Br  0  0  0  0  0  0  0  0  0  0  0  0
   59.1950   27.3380   46.3640 C   0  0  0  0  0  0  0  0  0  0  0  0
   60.0695   26.8381   46.8059 H   0  0  0  0  0  0  0  0  0  0  0  0
   59.1700   28.7400   46.2660 C   0  0  0  0  0  0  0  0  0  0  0  0
   60.2300   29.4570   46.7200 N   0  0  0  0  0  0  0  0  0  0  0  0
   61.0450   28.9450   47.1330 H   0  0  0  0  0  0  0  0  0  0  0  0
   60.2710   30.8150   46.6570 C   0  0  0  0  0  0  0  0  0  0  0  0
   61.4040   31.4820   47.1470 C   0  0  0  0  0  0  0  0  0  0  0  0
   62.2360   30.9014   47.5720 H   0  0  0  0  0  0  0  0  0  0  0  0
   61.4860   32.8690   47.1010 C   0  0  0  0  0  0  0  0  0  0  0  0
   63.0370   33.7590   47.7740 Br  0  0  0  0  0  0  0  0  0  0  0  0
   60.4380   33.6080   46.5640 C   0  0  0  0  0  0  0  0  0  0  0  0
   60.5102   34.7051   46.5306 H   0  0  0  0  0  0  0  0  0  0  0  0
   59.2920   32.9770   46.0650 C   0  0  0  0  0  0  0  0  0  0  0  0
   57.9640   34.1880   45.3670 Br  0  0  0  0  0  0  0  0  0  0  0  0
   59.1860   31.5490   46.1020 C   0  0  0  0  0  0  0  0  0  0  0  0
  1  2  1  0
  2  3  2  0
  3  4  1  0
  4  5  2  0
  5  6  1  0
  5  7  1  0
  7  8  1  0
  7  9  2  0
  9 10  1  0
  9 11  1  0
 11 12  1  0
 11 13  2  0
 13 14  1  0
 14 15  1  0
 14 16  1  0
 16 17  2  0
 17 18  1  0
 17 19  1  0
 19 20  1  0
 19 21  2  0
 21 22  1  0
 21 23  1  0
 23 24  1  0
 23 25  2  0
 25  3  1  0
 13  4  1  0
 25 16  1  0
M  END
>  <UniqueID>  (17) 
17

>  <SMILES>  (17) 
[H]/N=c1\c2ccc(Br)cc2[nH]c2cc(Br)cc(Br)c12

>  <Energy>  (17) 
47.53891348269719

>  <Genealogy>  (17) 
[H]/N=c1\c2ccc(Br)cc2[nH]c2cc(Br)cc(Br)c12 (cis-trans isomerization)
[H]/N=c1\c2ccc(Br)cc2[nH]c2cc(Br)cc(Br)c12 (3D coordinates assigned)
[H]/N=c1\c2ccc(Br)cc2[nH]c2cc(Br)cc(Br)c12 (optimized conformer: 47.53891348269719 kcal/mol)

>  <smiles>  (17) 
N=c1c2ccc(Br)cc2[nH]c2cc(Br)cc(Br)c12

>  <score_type>  (17) 
oracle

>  <origin>  (17) 
adg

>  <m_score__min__energy>  (17) 
-7.4400000000000004

>  <m_primary>  (17) 
energy

$$$$
17:0
     RDKit          3D

 47 50  0  0  0  0  0  0  0  0999 V2000
   54.1920   25.0640   45.7250 H   0  0  0  0  0  0  0  0  0  0  0  0
   55.1820   24.8720   45.9990 N   0  0  0  0  0  0  0  0  0  0  0  0
   56.0380   25.8190   46.2180 C   0  0  0  0  0  0  0  0  0  0  0  0
   55.8680   27.0280   45.6240 N   0  0  0  0  0  0  0  0  0  0  0  0
   56.7400   28.0500   45.8300 C   0  0  0  0  0  0  0  0  0  0  0  0
   56.5834   29.0202   45.3358 H   0  0  0  0  0  0  0  0  0  0  0  0
   57.8430   27.8580   46.6790 C   0  0  0  0  0  0  0  0  0  0  0  0
   58.8360   28.9310   46.9250 C   0  0  0  0  0  0  0  0  0  0  0  0
   59.6630   28.8580   48.0590 C   0  0  0  0  0  0  0  0  0  0  0  0
   59.5661   28.0077   48.7501 H   0  0  0  0  0  0  0  0  0  0  0  0
   60.6070   29.8550   48.3170 C   0  0  0  0  0  0  0  0  0  0  0  0
   61.2601   29.7761   49.1986 H   0  0  0  0  0  0  0  0  0  0  0  0
   60.7250   30.9540   47.4580 C   0  0  0  0  0  0  0  0  0  0  0  0
   61.7260   32.0070   47.7260 C   0  0  0  0  0  0  0  0  0  0  0  0
   63.0700   31.7220   47.4330 C   0  0  0  0  0  0  0  0  0  0  0  0
   63.3361   30.7566   46.9779 H   0  0  0  0  0  0  0  0  0  0  0  0
   64.0690   32.6520   47.7140 C   0  0  0  0  0  0  0  0  0  0  0  0
   65.1182   32.4204   47.4783 H   0  0  0  0  0  0  0  0  0  0  0  0
   63.7390   33.8740   48.2930 C   0  0  0  0  0  0  0  0  0  0  0  0
   64.5300   34.6019   48.5265 H   0  0  0  0  0  0  0  0  0  0  0  0
   62.4070   34.1780   48.5780 C   0  0  0  0  0  0  0  0  0  0  0  0
   62.1591   35.1438   49.0426 H   0  0  0  0  0  0  0  0  0  0  0  0
   61.3770   33.2680   48.2800 C   0  0  0  0  0  0  0  0  0  0  0  0
   59.6720   33.7000   48.5990 S   0  0  0  0  0  0  0  0  0  0  0  0
   59.6300   34.6190   49.7880 O   0  0  0  0  0  0  0  0  0  0  0  0
   58.9130   32.4480   48.9380 O   0  0  0  0  0  0  0  0  0  0  0  0
   58.8190   34.4600   47.2680 N   0  0  0  0  0  0  0  0  0  0  0  0
   58.4620   35.3790   47.6240 H   0  0  0  0  0  0  0  0  0  0  0  0
   57.6680   33.6750   46.7910 C   0  0  0  0  0  0  0  0  0  0  0  0
   57.6999   32.6645   47.2245 H   0  0  0  0  0  0  0  0  0  0  0  0
   56.7259   34.1552   47.0940 H   0  0  0  0  0  0  0  0  0  0  0  0
   57.7540   33.5890   45.2710 C   0  0  0  0  0  0  0  0  0  0  0  0
   58.0068   32.5652   44.9581 H   0  0  0  0  0  0  0  0  0  0  0  0
   56.7961   33.8438   44.7941 H   0  0  0  0  0  0  0  0  0  0  0  0
   58.8530   34.5510   44.8700 C   0  0  0  0  0  0  0  0  0  0  0  0
   59.4601   34.1262   44.0570 H   0  0  0  0  0  0  0  0  0  0  0  0
   58.4500   35.5049   44.4990 H   0  0  0  0  0  0  0  0  0  0  0  0
   59.6920   34.7370   46.1190 C   0  0  0  0  0  0  0  0  0  0  0  0
   60.5405   34.0370   46.1118 H   0  0  0  0  0  0  0  0  0  0  0  0
   60.0974   35.7582   46.1711 H   0  0  0  0  0  0  0  0  0  0  0  0
   59.9030   31.0370   46.3250 C   0  0  0  0  0  0  0  0  0  0  0  0
   60.0020   31.8912   45.6390 H   0  0  0  0  0  0  0  0  0  0  0  0
   58.9580   30.0400   46.0620 C   0  0  0  0  0  0  0  0  0  0  0  0
   58.1360   30.1900   44.9930 F   0  0  0  0  0  0  0  0  0  0  0  0
   58.0180   26.6380   47.2580 N   0  0  0  0  0  0  0  0  0  0  0  0
   57.1440   25.6180   47.0530 C   0  0  0  0  0  0  0  0  0  0  0  0
   57.3037   24.6438   47.5383 H   0  0  0  0  0  0  0  0  0  0  0  0
  1  2  1  0
  2  3  2  0
  3  4  1  0
  4  5  1  0
  5  6  1  0
  5  7  2  0
  7  8  1  0
  8  9  2  0
  9 10  1  0
  9 11  1  0
 11 12  1  0
 11 13  2  0
 13 14  1  0
 14 15  2  0
 15 16  1  0
 15 17  1  0
 17 18  1  0
 17 19  2  0
 19 20  1  0
 19 21  1  0
 21 22  1  0
 21 23  2  0
 23 24  1  0
 24 25  2  0
 24 26  2  0
 24 27  1  0
 27 28  1  0
 27 29  1  0
 29 30  1  0
 29 31  1  0
 29 32  1  0
 32 33  1  0
 32 34  1  0
 32 35  1  0
 35 36  1  0
 35 37  1  0
 35 38  1  0
 38 39  1  0
 38 40  1  0
 13 41  1  0
 41 42  1  0
 41 43  2  0
 43 44  1  0
  7 45  1  0
 45 46  2  0
 46 47  1  0
 46  3  1  0
 43  8  1  0
 23 14  1  0
 38 27  1  0
M  CHG  2   4  -1  27   1
M  END
>  <UniqueID>  (18) 
18

>  <SMILES>  (18) 
[H]/N=c1\cnc(-c2ccc(-c3ccccc3S(=O)(=O)[NH+]3CCCC3)cc2F)c[n-]1

>  <Energy>  (18) 
71.71629616148415

>  <Genealogy>  (18) 
N=c1cnc(-c2ccc(-c3ccccc3S(=O)(=O)[NH+]3CCCC3)cc2F)c[n-]1 (protonated)
[H]/N=c1\cnc(-c2ccc(-c3ccccc3S(=O)(=O)[NH+]3CCCC3)cc2F)c[n-]1 (cis-trans isomerization)
[H]/N=c1\cnc(-c2ccc(-c3ccccc3S(=O)(=O)[NH+]3CCCC3)cc2F)c[n-]1 (3D coordinates assigned)
[H]/N=c1\cnc(-c2ccc(-c3ccccc3S(=O)(=O)[NH+]3CCCC3)cc2F)c[n-]1 (nonaromatic ring conformer: 71.71629616148415 kcal/mol)

>  <smiles>  (18) 
N=c1cnc(-c2ccc(-c3ccccc3S(=O)(=O)N3CCCC3)cc2F)c[nH]1

>  <score_type>  (18) 
oracle

>  <origin>  (18) 
adg

>  <m_score__min__energy>  (18) 
-9.0399999999999991

>  <m_primary>  (18) 
energy

$$$$
18:0
     RDKit          3D

 49 51  0  0  0  0  0  0  0  0999 V2000
   57.4030   31.6230   42.3900 C   0  0  0  0  0  0  0  0  0  0  0  0
   56.6130   30.6210   43.2250 C   0  0  0  0  0  0  0  0  0  0  0  0
   57.4510   30.0960   44.3600 C   0  0  0  0  0  0  0  0  0  0  0  0
   57.0110   28.9960   45.1140 C   0  0  0  0  0  0  0  0  0  0  0  0
   57.8030   28.4880   46.1480 C   0  0  0  0  0  0  0  0  0  0  0  0
   59.0500   29.0650   46.4360 C   0  0  0  0  0  0  0  0  0  0  0  0
   59.9080   28.5070   47.5470 C   0  0  0  0  0  0  0  0  0  0  0  0
   60.2030   29.5170   48.5830 N   0  0  0  0  0  0  0  0  0  0  0  0
   59.7010   29.1410   49.9260 C   0  0  0  0  0  0  0  0  0  0  0  0
   58.5240   30.0180   50.3980 C   0  0  0  0  0  0  0  0  0  0  0  0
   58.6550   31.4850   49.9860 C   0  0  0  0  0  0  0  0  0  0  0  0
   58.5310   31.6030   48.5700 O   0  0  0  0  0  0  0  0  0  0  0  0
   59.1370   32.5700   47.7500 C   0  0  0  0  0  0  0  0  0  0  0  0
   58.2810   33.4740   47.1060 C   0  0  0  0  0  0  0  0  0  0  0  0
   58.7830   34.4830   46.2840 C   0  0  0  0  0  0  0  0  0  0  0  0
   60.1570   34.6070   46.0840 C   0  0  0  0  0  0  0  0  0  0  0  0
   61.0380   33.7140   46.7060 C   0  0  0  0  0  0  0  0  0  0  0  0
   62.4230   33.8210   46.5070 C   0  0  0  0  0  0  0  0  0  0  0  0
   63.2860   32.9180   47.1260 C   0  0  0  0  0  0  0  0  0  0  0  0
   62.7580   31.9140   47.9370 C   0  0  0  0  0  0  0  0  0  0  0  0
   61.4150   31.8230   48.1230 N   0  0  0  0  0  0  0  0  0  0  0  0
   60.5370   32.6860   47.5420 C   0  0  0  0  0  0  0  0  0  0  0  0
   59.4920   30.1590   45.6750 C   0  0  0  0  0  0  0  0  0  0  0  0
   58.7010   30.6670   44.6410 C   0  0  0  0  0  0  0  0  0  0  0  0
   57.9446   32.3099   43.0570 H   0  0  0  0  0  0  0  0  0  0  0  0
   58.1225   31.0849   41.7553 H   0  0  0  0  0  0  0  0  0  0  0  0
   56.7119   32.1970   41.7553 H   0  0  0  0  0  0  0  0  0  0  0  0
   55.7203   31.1165   43.6344 H   0  0  0  0  0  0  0  0  0  0  0  0
   56.3205   29.7778   42.5820 H   0  0  0  0  0  0  0  0  0  0  0  0
   56.0391   28.5321   44.8901 H   0  0  0  0  0  0  0  0  0  0  0  0
   57.4471   27.6314   46.7392 H   0  0  0  0  0  0  0  0  0  0  0  0
   59.3784   27.6638   48.0145 H   0  0  0  0  0  0  0  0  0  0  0  0
   60.8633   28.1845   47.1072 H   0  0  0  0  0  0  0  0  0  0  0  0
   59.7740   30.4290   48.3000 H   0  0  0  0  0  0  0  0  0  0  0  0
   61.2370   29.6750   48.6060 H   0  0  0  0  0  0  0  0  0  0  0  0
   59.3667   28.0935   49.8943 H   0  0  0  0  0  0  0  0  0  0  0  0
   60.5264   29.2880   50.6382 H   0  0  0  0  0  0  0  0  0  0  0  0
   57.5952   29.6164   49.9665 H   0  0  0  0  0  0  0  0  0  0  0  0
   58.5186   29.9892   51.4976 H   0  0  0  0  0  0  0  0  0  0  0  0
   57.8624   32.0728   50.4721 H   0  0  0  0  0  0  0  0  0  0  0  0
   59.6404   31.8625   50.2966 H   0  0  0  0  0  0  0  0  0  0  0  0
   57.1942   33.3862   47.2514 H   0  0  0  0  0  0  0  0  0  0  0  0
   58.0922   35.1834   45.7918 H   0  0  0  0  0  0  0  0  0  0  0  0
   60.5490   35.4062   45.4377 H   0  0  0  0  0  0  0  0  0  0  0  0
   62.8271   34.6163   45.8635 H   0  0  0  0  0  0  0  0  0  0  0  0
   64.3729   32.9967   46.9761 H   0  0  0  0  0  0  0  0  0  0  0  0
   63.4300   31.1942   48.4272 H   0  0  0  0  0  0  0  0  0  0  0  0
   60.4669   30.6190   45.8940 H   0  0  0  0  0  0  0  0  0  0  0  0
   59.0603   31.5186   44.0447 H   0  0  0  0  0  0  0  0  0  0  0  0
  1  2  1  0
  2  3  1  0
  3  4  2  0
  4  5  1  0
  5  6  2  0
  6  7  1  0
  7  8  1  0
  8  9  1  0
  9 10  1  0
 10 11  1  0
 11 12  1  0
 12 13  1  0
 13 14  2  0
 14 15  1  0
 15 16  2  0
 16 17  1  0
 17 18  2  0
 18 19  1  0
 19 20  2  0
 20 21  1  0
 21 22  2  0
  6 23  1  0
 23 24  2  0
 24  3  1  0
 22 13  1  0
 22 17  1  0
  1 25  1  0
  1 26  1  0
  1 27  1  0
  2 28  1  0
  2 29  1  0
  4 30  1  0
  5 31  1  0
  7 32  1  0
  7 33  1  0
  8 34  1  0
  8 35  1  0
  9 36  1  0
  9 37  1  0
 10 38  1  0
 10 39  1  0
 11 40  1  0
 11 41  1  0
 14 42  1  0
 15 43  1  0
 16 44  1  0
 18 45  1  0
 19 46  1  0
 20 47  1  0
 23 48  1  0
 24 49  1  0
M  CHG  1   8   1
M  END
>  <UniqueID>  (19) 
19

>  <SMILES>  (19) 
CCc1ccc(C[NH2+]CCCOc2cccc3cccnc23)cc1

>  <Energy>  (19) 
51.771958736490774

>  <Genealogy>  (19) 
CCc1ccc(C[NH2+]CCCOc2cccc3cccnc23)cc1 (protonated)
CCc1ccc(C[NH2+]CCCOc2cccc3cccnc23)cc1 (3D coordinates assigned)
CCc1ccc(C[NH2+]CCCOc2cccc3cccnc23)cc1 (optimized conformer: 51.771958736490774 kcal/mol)

>  <smiles>  (19) 
CCc1ccc(CNCCCOc2cccc3cccnc23)cc1

>  <score_type>  (19) 
oracle

>  <origin>  (19) 
adg

>  <m_score__min__energy>  (19) 
-6.1399999999999997

>  <m_primary>  (19) 
energy

$$$$
19:0
     RDKit          3D

 48 51  0  0  0  0  0  0  0  0999 V2000
   62.3030   32.4320   49.1910 C   0  0  0  0  0  0  0  0  0  0  0  0
   62.6350   32.1120   47.8740 C   0  0  0  0  0  0  0  0  0  0  0  0
   61.8080   31.2690   47.1250 C   0  0  0  0  0  0  0  0  0  0  0  0
   60.6330   30.7350   47.6900 C   0  0  0  0  0  0  0  0  0  0  0  0
   59.7530   29.8410   46.8980 C   0  0  0  0  0  0  0  0  0  0  0  0
   58.6500   30.3490   46.2610 N   0  0  0  0  0  0  0  0  0  0  0  0
   57.8140   29.5600   45.5230 C   0  0  0  0  0  0  0  0  0  0  0  0
   56.6920   30.0930   44.8830 O   0  0  0  0  0  0  0  0  0  0  0  0
   56.7580   30.7140   43.6020 C   0  0  0  0  0  0  0  0  0  0  0  0
   57.8210   31.8140   43.6050 C   0  0  0  0  0  0  0  0  0  0  0  0
   57.3870   33.0580   44.3990 C   0  0  0  0  0  0  0  0  0  0  0  0
   58.4040   33.4610   45.3960 N   0  0  0  0  0  0  0  0  0  0  0  0
   59.1240   34.6890   44.9700 C   0  0  0  0  0  0  0  0  0  0  0  0
   59.9240   35.3440   46.1170 C   0  0  0  0  0  0  0  0  0  0  0  0
   60.1870   34.3510   47.2510 C   0  0  0  0  0  0  0  0  0  0  0  0
   58.8670   33.7960   47.8080 C   0  0  0  0  0  0  0  0  0  0  0  0
   57.7840   33.6510   46.7210 C   0  0  0  0  0  0  0  0  0  0  0  0
   58.1040   28.2030   45.4240 C   0  0  0  0  0  0  0  0  0  0  0  0
   57.3880   27.2730   44.7430 N   0  0  0  0  0  0  0  0  0  0  0  0
   57.9410   26.0390   44.8520 C   0  0  0  0  0  0  0  0  0  0  0  0
   59.3460   26.0640   45.8060 S   0  0  0  0  0  0  0  0  0  0  0  0
   59.2150   27.7160   46.0700 C   0  0  0  0  0  0  0  0  0  0  0  0
   60.0350   28.5070   46.7990 N   0  0  0  0  0  0  0  0  0  0  0  0
   60.3100   31.0660   49.0210 C   0  0  0  0  0  0  0  0  0  0  0  0
   61.1410   31.9090   49.7640 C   0  0  0  0  0  0  0  0  0  0  0  0
   62.9555   33.0954   49.7776 H   0  0  0  0  0  0  0  0  0  0  0  0
   63.5500   32.5241   47.4236 H   0  0  0  0  0  0  0  0  0  0  0  0
   62.0767   31.0211   46.0875 H   0  0  0  0  0  0  0  0  0  0  0  0
   57.0175   29.9594   42.8449 H   0  0  0  0  0  0  0  0  0  0  0  0
   55.7800   31.1592   43.3670 H   0  0  0  0  0  0  0  0  0  0  0  0
   58.7411   31.4128   44.0550 H   0  0  0  0  0  0  0  0  0  0  0  0
   57.9799   32.1248   42.5619 H   0  0  0  0  0  0  0  0  0  0  0  0
   57.2283   33.8900   43.6971 H   0  0  0  0  0  0  0  0  0  0  0  0
   56.4608   32.8111   44.9386 H   0  0  0  0  0  0  0  0  0  0  0  0
   59.8217   34.4244   44.1617 H   0  0  0  0  0  0  0  0  0  0  0  0
   58.3688   35.4160   44.6367 H   0  0  0  0  0  0  0  0  0  0  0  0
   60.8870   35.7013   45.7234 H   0  0  0  0  0  0  0  0  0  0  0  0
   59.3327   36.1801   46.5186 H   0  0  0  0  0  0  0  0  0  0  0  0
   60.7949   33.5183   46.8674 H   0  0  0  0  0  0  0  0  0  0  0  0
   60.7191   34.8729   48.0600 H   0  0  0  0  0  0  0  0  0  0  0  0
   59.0584   32.8070   48.2498 H   0  0  0  0  0  0  0  0  0  0  0  0
   58.4945   34.5084   48.5589 H   0  0  0  0  0  0  0  0  0  0  0  0
   57.1523   32.7809   46.9532 H   0  0  0  0  0  0  0  0  0  0  0  0
   57.1753   34.5670   46.7009 H   0  0  0  0  0  0  0  0  0  0  0  0
   56.5180   27.4730   44.2010 H   0  0  0  0  0  0  0  0  0  0  0  0
   57.5302   25.1340   44.3807 H   0  0  0  0  0  0  0  0  0  0  0  0
   59.3969   30.6578   49.4787 H   0  0  0  0  0  0  0  0  0  0  0  0
   60.8796   32.1613   50.8023 H   0  0  0  0  0  0  0  0  0  0  0  0
  1  2  2  0
  2  3  1  0
  3  4  2  0
  4  5  1  0
  5  6  2  0
  6  7  1  0
  7  8  1  0
  8  9  1  0
  9 10  1  0
 10 11  1  0
 11 12  1  0
 12 13  1  0
 13 14  1  0
 14 15  1  0
 15 16  1  0
 16 17  1  0
  7 18  2  0
 18 19  1  0
 19 20  2  0
 20 21  1  0
 21 22  1  0
 22 23  2  0
  4 24  1  0
 24 25  2  0
 25  1  1  0
 23  5  1  0
 17 12  1  0
 22 18  1  0
  1 26  1  0
  2 27  1  0
  3 28  1  0
  9 29  1  0
  9 30  1  0
 10 31  1  0
 10 32  1  0
 11 33  1  0
 11 34  1  0
 13 35  1  0
 13 36  1  0
 14 37  1  0
 14 38  1  0
 15 39  1  0
 15 40  1  0
 16 41  1  0
 16 42  1  0
 17 43  1  0
 17 44  1  0
 19 45  1  0
 20 46  1  0
 24 47  1  0
 25 48  1  0
M  CHG  1  19   1
M  END
>  <UniqueID>  (20) 
20

>  <SMILES>  (20) 
c1ccc(-c2nc(OCCCN3CCCCC3)c3[nH+]csc3n2)cc1

>  <Energy>  (20) 
88.33198658028745

>  <Genealogy>  (20) 
c1ccc(-c2nc(OCCCN3CCCCC3)c3[nH+]csc3n2)cc1 (protonated)
c1ccc(-c2nc(OCCCN3CCCCC3)c3[nH+]csc3n2)cc1 (3D coordinates assigned)
c1ccc(-c2nc(OCCCN3CCCCC3)c3[nH+]csc3n2)cc1 (nonaromatic ring conformer: 88.33198658028745 kcal/mol)

>  <smiles>  (20) 
c1ccc(-c2nc(OCCCN3CCCCC3)c3ncsc3n2)cc1

>  <score_type>  (20) 
oracle

>  <origin>  (20) 
adg

>  <m_score__min__energy>  (20) 
-6.5499999999999998

>  <m_primary>  (20) 
energy

$$$$
20:0
     RDKit          3D

 40 42  0  0  0  0  0  0  0  0999 V2000
   63.5600   31.3850   50.3100 C   0  0  0  0  0  0  0  0  0  0  0  0
   64.7110   32.0300   49.6530 N   0  0  0  0  0  0  0  0  0  0  0  0
   65.9100   31.8650   50.4900 C   0  0  0  0  0  0  0  0  0  0  0  0
   64.4490   33.4650   49.4220 C   0  0  0  0  0  0  0  0  0  0  0  0
   63.1130   33.6600   48.7540 C   0  0  0  0  0  0  0  0  0  0  0  0
   62.9700   33.3990   47.3830 C   0  0  0  0  0  0  0  0  0  0  0  0
   61.7300   33.5590   46.7590 C   0  0  0  0  0  0  0  0  0  0  0  0
   60.6100   33.9700   47.5040 C   0  0  0  0  0  0  0  0  0  0  0  0
   59.3520   34.1550   46.9120 O   0  0  0  0  0  0  0  0  0  0  0  0
   58.7680   33.3040   45.9620 C   0  0  0  0  0  0  0  0  0  0  0  0
   58.4150   33.8320   44.7160 C   0  0  0  0  0  0  0  0  0  0  0  0
   57.8190   33.0260   43.7420 C   0  0  0  0  0  0  0  0  0  0  0  0
   57.5550   31.6750   44.0120 C   0  0  0  0  0  0  0  0  0  0  0  0
   56.9580   30.8540   43.0430 C   0  0  0  0  0  0  0  0  0  0  0  0
   56.6920   29.5120   43.3280 C   0  0  0  0  0  0  0  0  0  0  0  0
   57.0200   28.9790   44.5780 C   0  0  0  0  0  0  0  0  0  0  0  0
   57.6160   29.7860   45.5520 C   0  0  0  0  0  0  0  0  0  0  0  0
   57.8890   31.1350   45.2790 C   0  0  0  0  0  0  0  0  0  0  0  0
   58.4870   31.9560   46.2480 C   0  0  0  0  0  0  0  0  0  0  0  0
   60.7590   34.2470   48.8670 C   0  0  0  0  0  0  0  0  0  0  0  0
   61.9980   34.0860   49.4930 C   0  0  0  0  0  0  0  0  0  0  0  0
   63.6770   31.4505   51.4018 H   0  0  0  0  0  0  0  0  0  0  0  0
   62.6330   31.8951   50.0093 H   0  0  0  0  0  0  0  0  0  0  0  0
   63.5111   30.3280   50.0093 H   0  0  0  0  0  0  0  0  0  0  0  0
   65.6244   31.9043   51.5515 H   0  0  0  0  0  0  0  0  0  0  0  0
   66.3785   30.8939   50.2721 H   0  0  0  0  0  0  0  0  0  0  0  0
   66.6234   32.6734   50.2721 H   0  0  0  0  0  0  0  0  0  0  0  0
   64.4509   33.9926   50.3872 H   0  0  0  0  0  0  0  0  0  0  0  0
   65.2351   33.8676   48.7663 H   0  0  0  0  0  0  0  0  0  0  0  0
   63.8388   33.0666   46.7960 H   0  0  0  0  0  0  0  0  0  0  0  0
   61.6294   33.3628   45.6813 H   0  0  0  0  0  0  0  0  0  0  0  0
   58.6085   34.8931   44.5002 H   0  0  0  0  0  0  0  0  0  0  0  0
   57.5566   33.4517   42.7623 H   0  0  0  0  0  0  0  0  0  0  0  0
   56.6989   31.2676   42.0572 H   0  0  0  0  0  0  0  0  0  0  0  0
   56.2227   28.8726   42.5658 H   0  0  0  0  0  0  0  0  0  0  0  0
   56.8086   27.9217   44.7960 H   0  0  0  0  0  0  0  0  0  0  0  0
   57.8714   29.3624   46.5345 H   0  0  0  0  0  0  0  0  0  0  0  0
   58.7371   31.5428   47.2363 H   0  0  0  0  0  0  0  0  0  0  0  0
   59.8939   34.5944   49.4508 H   0  0  0  0  0  0  0  0  0  0  0  0
   62.0999   34.2938   50.5684 H   0  0  0  0  0  0  0  0  0  0  0  0
  1  2  1  0
  2  3  1  0
  2  4  1  0
  4  5  1  0
  5  6  2  0
  6  7  1  0
  7  8  2  0
  8  9  1  0
  9 10  1  0
 10 11  2  0
 11 12  1  0
 12 13  2  0
 13 14  1  0
 14 15  2  0
 15 16  1  0
 16 17  2  0
 17 18  1  0
 18 19  2  0
  8 20  1  0
 20 21  2  0
 21  5  1  0
 19 10  1  0
 18 13  1  0
  1 22  1  0
  1 23  1  0
  1 24  1  0
  3 25  1  0
  3 26  1  0
  3 27  1  0
  4 28  1  0
  4 29  1  0
  6 30  1  0
  7 31  1  0
 11 32  1  0
 12 33  1  0
 14 34  1  0
 15 35  1  0
 16 36  1  0
 17 37  1  0
 19 38  1  0
 20 39  1  0
 21 40  1  0
M  END
>  <UniqueID>  (21) 
21

>  <SMILES>  (21) 
CN(C)Cc1ccc(Oc2ccc3ccccc3c2)cc1

>  <Energy>  (21) 
51.219507946318366

>  <Genealogy>  (21) 
CN(C)Cc1ccc(Oc2ccc3ccccc3c2)cc1 (3D coordinates assigned)
CN(C)Cc1ccc(Oc2ccc3ccccc3c2)cc1 (optimized conformer: 51.219507946318366 kcal/mol)

>  <smiles>  (21) 
CN(C)Cc1ccc(Oc2ccc3ccccc3c2)cc1

>  <score_type>  (21) 
oracle

>  <origin>  (21) 
adg

>  <m_score__min__energy>  (21) 
-7.3300000000000001

>  <m_primary>  (21) 
energy

$$$$
21:0
     RDKit          3D

 48 51  0  0  0  0  0  0  0  0999 V2000
   55.2040   29.1380   44.7950 O   0  0  0  0  0  0  0  0  0  0  0  0
   56.3350   29.6930   44.8440 C   0  0  0  0  0  0  0  0  0  0  0  0
   56.4800   31.1010   44.3380 C   0  0  0  0  0  0  0  0  0  0  0  0
   57.9310   31.4110   43.9080 C   0  0  1  0  0  0  0  0  0  0  0  0
   58.1490   32.9050   43.5060 C   0  0  0  0  0  0  0  0  0  0  0  0
   58.2360   33.9090   44.6060 N   0  0  0  0  0  0  0  0  0  0  0  0
   57.1080   33.8680   45.5770 C   0  0  0  0  0  0  0  0  0  0  0  0
   57.4340   33.1150   46.8780 C   0  0  0  0  0  0  0  0  0  0  0  0
   58.7230   33.5360   47.4390 N   0  0  0  0  0  0  0  0  0  0  0  0
   59.0830   33.0930   48.7640 C   0  0  0  0  0  0  0  0  0  0  0  0
   58.8750   31.7630   49.1750 C   0  0  0  0  0  0  0  0  0  0  0  0
   59.2470   31.3750   50.4640 C   0  0  0  0  0  0  0  0  0  0  0  0
   59.8270   32.3020   51.3300 C   0  0  0  0  0  0  0  0  0  0  0  0
   60.0330   33.6100   50.8890 C   0  0  0  0  0  0  0  0  0  0  0  0
   59.6640   33.9710   49.6310 N   0  0  0  0  0  0  0  0  0  0  0  0
   59.5870   34.4360   46.6690 C   0  0  0  0  0  0  0  0  0  0  0  0
   59.5990   34.0120   45.1980 C   0  0  0  0  0  0  0  0  0  0  0  0
   58.8930   31.0610   45.0660 C   0  0  0  0  0  0  0  0  0  0  0  0
   58.7400   29.6300   45.5190 C   0  0  0  0  0  0  0  0  0  0  0  0
   59.8310   28.9620   46.1000 C   0  0  0  0  0  0  0  0  0  0  0  0
   59.6890   27.6540   46.5680 C   0  0  0  0  0  0  0  0  0  0  0  0
   58.4560   27.0060   46.4750 C   0  0  0  0  0  0  0  0  0  0  0  0
   57.3580   27.6660   45.9160 C   0  0  0  0  0  0  0  0  0  0  0  0
   57.4890   28.9830   45.4410 C   0  0  0  0  0  0  0  0  0  0  0  0
   55.8153   31.2382   43.4723 H   0  0  0  0  0  0  0  0  0  0  0  0
   56.2124   31.7867   45.1554 H   0  0  0  0  0  0  0  0  0  0  0  0
   58.1361   30.7991   43.0172 H   0  0  0  0  0  0  0  0  0  0  0  0
   59.0881   32.9590   42.9357 H   0  0  0  0  0  0  0  0  0  0  0  0
   57.2423   33.1798   42.9471 H   0  0  0  0  0  0  0  0  0  0  0  0
   58.1060   34.8270   44.1120 H   0  0  0  0  0  0  0  0  0  0  0  0
   56.8344   34.9019   45.8343 H   0  0  0  0  0  0  0  0  0  0  0  0
   56.2861   33.3231   45.0895 H   0  0  0  0  0  0  0  0  0  0  0  0
   56.6419   33.3157   47.6144 H   0  0  0  0  0  0  0  0  0  0  0  0
   57.4941   32.0411   46.6474 H   0  0  0  0  0  0  0  0  0  0  0  0
   58.4227   31.0345   48.4860 H   0  0  0  0  0  0  0  0  0  0  0  0
   59.0828   30.3393   50.7960 H   0  0  0  0  0  0  0  0  0  0  0  0
   60.1186   32.0056   52.3484 H   0  0  0  0  0  0  0  0  0  0  0  0
   60.4944   34.3497   51.5598 H   0  0  0  0  0  0  0  0  0  0  0  0
   59.2062   35.4649   46.7492 H   0  0  0  0  0  0  0  0  0  0  0  0
   60.6105   34.3869   47.0691 H   0  0  0  0  0  0  0  0  0  0  0  0
   60.1739   34.7543   44.6249 H   0  0  0  0  0  0  0  0  0  0  0  0
   60.0528   33.0111   45.1499 H   0  0  0  0  0  0  0  0  0  0  0  0
   59.9277   31.2168   44.7268 H   0  0  0  0  0  0  0  0  0  0  0  0
   58.6492   31.7134   45.9174 H   0  0  0  0  0  0  0  0  0  0  0  0
   60.8018   29.4719   46.1866 H   0  0  0  0  0  0  0  0  0  0  0  0
   60.5507   27.1331   47.0109 H   0  0  0  0  0  0  0  0  0  0  0  0
   58.3484   25.9747   46.8421 H   0  0  0  0  0  0  0  0  0  0  0  0
   56.3874   27.1530   45.8474 H   0  0  0  0  0  0  0  0  0  0  0  0
  1  2  2  0
  2  3  1  0
  3  4  1  0
  4  5  1  0
  5  6  1  0
  6  7  1  0
  7  8  1  0
  8  9  1  0
  9 10  1  0
 10 11  2  0
 11 12  1  0
 12 13  2  0
 13 14  1  0
 14 15  2  0
  9 16  1  0
 16 17  1  0
  4 18  1  0
 18 19  1  0
 19 20  2  0
 20 21  1  0
 21 22  2  0
 22 23  1  0
 23 24  2  0
 24  2  1  0
 17  6  1  0
 24 19  1  0
 15 10  1  0
  3 25  1  0
  3 26  1  0
  4 27  1  6
  5 28  1  0
  5 29  1  0
  6 30  1  0
  7 31  1  0
  7 32  1  0
  8 33  1  0
  8 34  1  0
 11 35  1  0
 12 36  1  0
 13 37  1  0
 14 38  1  0
 16 39  1  0
 16 40  1  0
 17 41  1  0
 17 42  1  0
 18 43  1  0
 18 44  1  0
 20 45  1  0
 21 46  1  0
 22 47  1  0
 23 48  1  0
M  CHG  1   6   1
M  END
>  <UniqueID>  (22) 
22

>  <SMILES>  (22) 
O=C1C[C@@H](C[NH+]2CCN(c3ccccn3)CC2)Cc2ccccc21

>  <Energy>  (22) 
70.39006893025825

>  <Genealogy>  (22) 
O=C1CC(C[NH+]2CCN(c3ccccn3)CC2)Cc2ccccc21 (protonated)
O=C1C[C@@H](C[NH+]2CCN(c3ccccn3)CC2)Cc2ccccc21 (chirality)
O=C1C[C@@H](C[NH+]2CCN(c3ccccn3)CC2)Cc2ccccc21 (3D coordinates assigned)
O=C1C[C@@H](C[NH+]2CCN(c3ccccn3)CC2)Cc2ccccc21 (nonaromatic ring conformer: 70.39006893025825 kcal/mol)

>  <smiles>  (22) 
O=C1CC(CN2CCN(c3ccccn3)CC2)Cc2ccccc21

>  <score_type>  (22) 
oracle

>  <origin>  (22) 
adg

>  <m_score__min__energy>  (22) 
-6.7300000000000004

>  <m_primary>  (22) 
energy

$$$$
22:0
     RDKit          3D

 36 38  0  0  0  0  0  0  0  0999 V2000
   57.0250   26.7680   45.6810 C   0  0  0  0  0  0  0  0  0  0  0  0
   56.1720   27.8490   45.3200 O   0  0  0  0  0  0  0  0  0  0  0  0
   56.6250   29.0830   44.8330 C   0  0  0  0  0  0  0  0  0  0  0  0
   56.2920   29.4430   43.5040 C   0  0  0  0  0  0  0  0  0  0  0  0
   56.7080   30.6730   42.9620 C   0  0  0  0  0  0  0  0  0  0  0  0
   57.4620   31.5120   43.7770 C   0  0  0  0  0  0  0  0  0  0  0  0
   57.9380   32.7320   43.5010 N   0  0  0  0  0  0  0  0  0  0  0  0
   58.5510   33.1030   44.6510 C   0  0  0  0  0  0  0  0  0  0  0  0
   59.2900   34.7180   44.8910 S   0  0  0  0  0  0  0  0  0  0  0  0
   58.9890   34.7540   46.6960 C   0  0  0  0  0  0  0  0  0  0  0  0
   60.1800   34.2380   47.4570 C   0  0  0  0  0  0  0  0  0  0  0  0
   60.1610   34.2040   48.8590 C   0  0  0  0  0  0  0  0  0  0  0  0
   61.2920   33.7960   49.5690 C   0  0  0  0  0  0  0  0  0  0  0  0
   62.4540   33.4250   48.8870 C   0  0  0  0  0  0  0  0  0  0  0  0
   62.4860   33.4420   47.4840 C   0  0  0  0  0  0  0  0  0  0  0  0
   63.7510   33.1150   46.7490 C   0  0  0  0  0  0  0  0  0  0  0  0
   61.3470   33.8540   46.7740 C   0  0  0  0  0  0  0  0  0  0  0  0
   58.4900   32.1680   45.6350 N   0  0  0  0  0  0  0  0  0  0  0  0
   57.7940   31.1770   45.0540 C   0  0  0  0  0  0  0  0  0  0  0  0
   57.3960   29.9710   45.6260 C   0  0  0  0  0  0  0  0  0  0  0  0
   57.0818   26.6960   46.7772 H   0  0  0  0  0  0  0  0  0  0  0  0
   56.6211   25.8300   45.2724 H   0  0  0  0  0  0  0  0  0  0  0  0
   58.0312   26.9427   45.2724 H   0  0  0  0  0  0  0  0  0  0  0  0
   55.6998   28.7512   42.8870 H   0  0  0  0  0  0  0  0  0  0  0  0
   56.4471   30.9606   41.9328 H   0  0  0  0  0  0  0  0  0  0  0  0
   57.8300   33.2840   42.6220 H   0  0  0  0  0  0  0  0  0  0  0  0
   58.7870   35.7901   47.0054 H   0  0  0  0  0  0  0  0  0  0  0  0
   58.1271   34.1076   46.9182 H   0  0  0  0  0  0  0  0  0  0  0  0
   59.2511   34.5000   49.4016 H   0  0  0  0  0  0  0  0  0  0  0  0
   61.2683   33.7665   50.6683 H   0  0  0  0  0  0  0  0  0  0  0  0
   63.3468   33.1185   49.4519 H   0  0  0  0  0  0  0  0  0  0  0  0
   64.5527   32.9078   47.4731 H   0  0  0  0  0  0  0  0  0  0  0  0
   63.5895   32.2291   46.1173 H   0  0  0  0  0  0  0  0  0  0  0  0
   64.0390   33.9682   46.1173 H   0  0  0  0  0  0  0  0  0  0  0  0
   61.3680   33.8765   45.6744 H   0  0  0  0  0  0  0  0  0  0  0  0
   57.6709   29.7153   46.6600 H   0  0  0  0  0  0  0  0  0  0  0  0
  1  2  1  0
  2  3  1  0
  3  4  2  0
  4  5  1  0
  5  6  2  0
  6  7  1  0
  7  8  1  0
  8  9  1  0
  9 10  1  0
 10 11  1  0
 11 12  2  0
 12 13  1  0
 13 14  2  0
 14 15  1  0
 15 16  1  0
 15 17  2  0
  8 18  2  0
 18 19  1  0
 19 20  2  0
 20  3  1  0
 19  6  1  0
 17 11  1  0
  1 21  1  0
  1 22  1  0
  1 23  1  0
  4 24  1  0
  5 25  1  0
  7 26  1  0
 10 27  1  0
 10 28  1  0
 12 29  1  0
 13 30  1  0
 14 31  1  0
 16 32  1  0
 16 33  1  0
 16 34  1  0
 17 35  1  0
 20 36  1  0
M  END
>  <UniqueID>  (23) 
23

>  <SMILES>  (23) 
COc1ccc2[nH]c(SCc3cccc(C)c3)nc2c1

>  <Energy>  (23) 
67.12388349861637

>  <Genealogy>  (23) 
COc1ccc2[nH]c(SCc3cccc(C)c3)nc2c1 (3D coordinates assigned)
COc1ccc2[nH]c(SCc3cccc(C)c3)nc2c1 (optimized conformer: 67.12388349861637 kcal/mol)

>  <smiles>  (23) 
COc1ccc2[nH]c(SCc3cccc(C)c3)nc2c1

>  <score_type>  (23) 
oracle

>  <origin>  (23) 
adg

>  <m_score__min__energy>  (23) 
-7.3300000000000001

>  <m_primary>  (23) 
energy

$$$$
23:0
     RDKit          3D

 43 44  0  0  0  0  0  0  0  0999 V2000
   54.7200   24.8060   45.5780 C   0  0  0  0  0  0  0  0  0  0  0  0
   55.3640   25.9660   46.0570 O   0  0  0  0  0  0  0  0  0  0  0  0
   56.6040   25.6080   46.6320 C   0  0  0  0  0  0  0  0  0  0  0  0
   57.7380   26.2670   45.8510 C   0  0  0  0  0  0  0  0  0  0  0  0
   57.2340   27.3330   44.9850 N   0  0  0  0  0  0  0  0  0  0  0  0
   57.9880   28.5330   44.7620 C   0  0  0  0  0  0  0  0  0  0  0  0
   59.1470   28.6500   45.2430 O   0  0  0  0  0  0  0  0  0  0  0  0
   57.4210   29.6470   43.9200 C   0  0  1  0  0  0  0  0  0  0  0  0
   55.9310   29.8050   44.2510 C   0  0  0  0  0  0  0  0  0  0  0  0
   58.1410   30.9120   44.1720 N   0  0  0  0  0  0  0  0  0  0  0  0
   57.7600   31.5410   45.4490 C   0  0  0  0  0  0  0  0  0  0  0  0
   58.6700   32.6960   45.7830 C   0  0  0  0  0  0  0  0  0  0  0  0
   58.3690   34.0400   45.5100 C   0  0  0  0  0  0  0  0  0  0  0  0
   57.1120   34.5610   44.8930 C   0  0  0  0  0  0  0  0  0  0  0  0
   59.6420   35.0210   46.0340 S   0  0  0  0  0  0  0  0  0  0  0  0
   60.5850   33.7580   46.6030 C   0  0  0  0  0  0  0  0  0  0  0  0
   61.8430   33.8310   47.1980 C   0  0  0  0  0  0  0  0  0  0  0  0
   62.4560   32.6360   47.6010 C   0  0  0  0  0  0  0  0  0  0  0  0
   61.8070   31.4030   47.4040 C   0  0  0  0  0  0  0  0  0  0  0  0
   60.5370   31.3540   46.8040 C   0  0  0  0  0  0  0  0  0  0  0  0
   59.9290   32.5510   46.4030 C   0  0  0  0  0  0  0  0  0  0  0  0
   54.3817   24.1966   46.4290 H   0  0  0  0  0  0  0  0  0  0  0  0
   53.8528   25.0944   44.9658 H   0  0  0  0  0  0  0  0  0  0  0  0
   55.4233   24.2225   44.9658 H   0  0  0  0  0  0  0  0  0  0  0  0
   56.6343   25.9469   47.6780 H   0  0  0  0  0  0  0  0  0  0  0  0
   56.7220   24.5149   46.5964 H   0  0  0  0  0  0  0  0  0  0  0  0
   58.4621   26.6935   46.5608 H   0  0  0  0  0  0  0  0  0  0  0  0
   58.2168   25.5032   45.2207 H   0  0  0  0  0  0  0  0  0  0  0  0
   56.2930   27.2410   44.5400 H   0  0  0  0  0  0  0  0  0  0  0  0
   57.5420   29.3989   42.8552 H   0  0  0  0  0  0  0  0  0  0  0  0
   55.7974   29.8192   45.3428 H   0  0  0  0  0  0  0  0  0  0  0  0
   55.5584   30.7477   43.8238 H   0  0  0  0  0  0  0  0  0  0  0  0
   55.3690   28.9614   43.8238 H   0  0  0  0  0  0  0  0  0  0  0  0
   59.1650   30.7030   44.2430 H   0  0  0  0  0  0  0  0  0  0  0  0
   56.7264   31.9095   45.3728 H   0  0  0  0  0  0  0  0  0  0  0  0
   57.8467   30.7884   46.2466 H   0  0  0  0  0  0  0  0  0  0  0  0
   56.4079   34.8529   45.6861 H   0  0  0  0  0  0  0  0  0  0  0  0
   57.3452   35.4366   44.2693 H   0  0  0  0  0  0  0  0  0  0  0  0
   56.6574   33.7772   44.2693 H   0  0  0  0  0  0  0  0  0  0  0  0
   62.3417   34.8000   47.3475 H   0  0  0  0  0  0  0  0  0  0  0  0
   63.4490   32.6625   48.0734 H   0  0  0  0  0  0  0  0  0  0  0  0
   62.2971   30.4709   47.7219 H   0  0  0  0  0  0  0  0  0  0  0  0
   60.0282   30.3908   46.6516 H   0  0  0  0  0  0  0  0  0  0  0  0
  1  2  1  0
  2  3  1  0
  3  4  1  0
  4  5  1  0
  5  6  1  0
  6  7  2  0
  6  8  1  0
  8  9  1  0
  8 10  1  0
 10 11  1  0
 11 12  1  0
 12 13  2  0
 13 14  1  0
 13 15  1  0
 15 16  1  0
 16 17  2  0
 17 18  1  0
 18 19  2  0
 19 20  1  0
 20 21  2  0
 21 12  1  0
 21 16  1  0
  1 22  1  0
  1 23  1  0
  1 24  1  0
  3 25  1  0
  3 26  1  0
  4 27  1  0
  4 28  1  0
  5 29  1  0
  8 30  1  6
  9 31  1  0
  9 32  1  0
  9 33  1  0
 10 34  1  0
 11 35  1  0
 11 36  1  0
 14 37  1  0
 14 38  1  0
 14 39  1  0
 17 40  1  0
 18 41  1  0
 19 42  1  0
 20 43  1  0
M  END
>  <UniqueID>  (24) 
24

>  <SMILES>  (24) 
COCCNC(=O)[C@@H](C)NCc1c(C)sc2ccccc12

>  <Energy>  (24) 
61.33130653088996

>  <Genealogy>  (24) 
COCCNC(=O)[C@@H](C)NCc1c(C)sc2ccccc12 (chirality)
COCCNC(=O)[C@@H](C)NCc1c(C)sc2ccccc12 (3D coordinates assigned)
COCCNC(=O)[C@@H](C)NCc1c(C)sc2ccccc12 (optimized conformer: 61.33130653088996 kcal/mol)

>  <smiles>  (24) 
COCCNC(=O)C(C)NCc1c(C)sc2ccccc12

>  <score_type>  (24) 
oracle

>  <origin>  (24) 
adg

>  <m_score__min__energy>  (24) 
-7.0899999999999999

>  <m_primary>  (24) 
energy

$$$$
24:0
     RDKit          3D

 35 37  0  0  0  0  0  0  0  0999 V2000
   55.9800   29.8300   43.4180 C   0  0  0  0  0  0  0  0  0  0  0  0
   56.9580   29.2990   44.4180 C   0  0  0  0  0  0  0  0  0  0  0  0
   56.9320   28.0270   44.8810 N   0  0  0  0  0  0  0  0  0  0  0  0
   57.9070   27.9510   45.8030 C   0  0  0  0  0  0  0  0  0  0  0  0
   58.2580   26.8380   46.5680 C   0  0  0  0  0  0  0  0  0  0  0  0
   59.3010   26.9830   47.5000 C   0  0  0  0  0  0  0  0  0  0  0  0
   59.9600   28.2240   47.6500 C   0  0  0  0  0  0  0  0  0  0  0  0
   59.5820   29.3300   46.8670 C   0  0  0  0  0  0  0  0  0  0  0  0
   58.5510   29.1540   45.9430 C   0  0  0  0  0  0  0  0  0  0  0  0
   57.9580   30.0370   45.0590 C   0  0  0  0  0  0  0  0  0  0  0  0
   58.3120   31.4880   44.8470 C   0  0  0  0  0  0  0  0  0  0  0  0
   57.5740   32.3820   45.7730 N   0  0  0  0  0  0  0  0  0  0  0  0
   58.3240   32.6520   47.0100 C   0  0  0  0  0  0  0  0  0  0  0  0
   59.1750   33.8910   46.7690 C   0  0  0  0  0  0  0  0  0  0  0  0
   58.5400   34.5890   45.5780 C   0  0  0  0  0  0  0  0  0  0  0  0
   57.3670   33.7080   45.1680 C   0  0  0  0  0  0  0  0  0  0  0  0
   55.1311   30.2909   43.9443 H   0  0  0  0  0  0  0  0  0  0  0  0
   56.4735   30.5841   42.7872 H   0  0  0  0  0  0  0  0  0  0  0  0
   55.6164   29.0055   42.7872 H   0  0  0  0  0  0  0  0  0  0  0  0
   56.2790   27.2640   44.5940 H   0  0  0  0  0  0  0  0  0  0  0  0
   57.7355   25.8778   46.4459 H   0  0  0  0  0  0  0  0  0  0  0  0
   59.6060   26.1245   48.1165 H   0  0  0  0  0  0  0  0  0  0  0  0
   60.7735   28.3259   48.3834 H   0  0  0  0  0  0  0  0  0  0  0  0
   60.0832   30.3027   46.9795 H   0  0  0  0  0  0  0  0  0  0  0  0
   59.3916   31.6180   45.0132 H   0  0  0  0  0  0  0  0  0  0  0  0
   58.0319   31.7589   43.8183 H   0  0  0  0  0  0  0  0  0  0  0  0
   56.6440   31.9610   46.0070 H   0  0  0  0  0  0  0  0  0  0  0  0
   57.6257   32.8319   47.8407 H   0  0  0  0  0  0  0  0  0  0  0  0
   58.9577   31.7925   47.2738 H   0  0  0  0  0  0  0  0  0  0  0  0
   59.1601   34.5463   47.6524 H   0  0  0  0  0  0  0  0  0  0  0  0
   60.2279   33.6346   46.5802 H   0  0  0  0  0  0  0  0  0  0  0  0
   58.1870   35.5911   45.8630 H   0  0  0  0  0  0  0  0  0  0  0  0
   59.2565   34.7239   44.7544 H   0  0  0  0  0  0  0  0  0  0  0  0
   56.4251   34.1438   45.5325 H   0  0  0  0  0  0  0  0  0  0  0  0
   57.3081   33.6281   44.0725 H   0  0  0  0  0  0  0  0  0  0  0  0
  1  2  1  0
  2  3  1  0
  3  4  1  0
  4  5  2  0
  5  6  1  0
  6  7  2  0
  7  8  1  0
  8  9  2  0
  9 10  1  0
 10 11  1  0
 11 12  1  0
 12 13  1  0
 13 14  1  0
 14 15  1  0
 15 16  1  0
 10  2  2  0
 16 12  1  0
  9  4  1  0
  1 17  1  0
  1 18  1  0
  1 19  1  0
  3 20  1  0
  5 21  1  0
  6 22  1  0
  7 23  1  0
  8 24  1  0
 11 25  1  0
 11 26  1  0
 12 27  1  0
 13 28  1  0
 13 29  1  0
 14 30  1  0
 14 31  1  0
 15 32  1  0
 15 33  1  0
 16 34  1  0
 16 35  1  0
M  CHG  1  12   1
M  END
>  <UniqueID>  (25) 
25

>  <SMILES>  (25) 
Cc1[nH]c2ccccc2c1C[NH+]1CCCC1

>  <Energy>  (25) 
70.78356684833909

>  <Genealogy>  (25) 
Cc1[nH]c2ccccc2c1C[NH+]1CCCC1 (protonated)
Cc1[nH]c2ccccc2c1C[NH+]1CCCC1 (3D coordinates assigned)
Cc1[nH]c2ccccc2c1C[NH+]1CCCC1 (nonaromatic ring conformer: 70.78356684833909 kcal/mol)

>  <smiles>  (25) 
Cc1[nH]c2ccccc2c1CN1CCCC1

>  <score_type>  (25) 
oracle

>  <origin>  (25) 
adg

>  <m_score__min__energy>  (25) 
-5.1200000000000001

>  <m_primary>  (25) 
energy

$$$$
25:0
     RDKit          3D

 46 48  0  0  0  0  0  0  0  0999 V2000
   62.0440   34.1800   49.5840 C   0  0  0  0  0  0  0  0  0  0  0  0
   60.6460   34.3570   49.3810 O   0  0  0  0  0  0  0  0  0  0  0  0
   59.9770   34.0640   48.1840 C   0  0  0  0  0  0  0  0  0  0  0  0
   59.9570   34.9530   47.0920 C   0  0  0  0  0  0  0  0  0  0  0  0
   59.2760   34.6150   45.9190 C   0  0  0  0  0  0  0  0  0  0  0  0
   58.6160   33.3810   45.8130 C   0  0  0  0  0  0  0  0  0  0  0  0
   57.8520   33.0350   44.5650 C   0  0  0  0  0  0  0  0  0  0  0  0
   56.6450   32.2850   44.9200 N   0  0  0  0  0  0  0  0  0  0  0  0
   56.5270   30.8610   43.9310 S   0  0  0  0  0  0  0  0  0  0  0  0
   55.1260   30.3220   44.0060 O   0  0  0  0  0  0  0  0  0  0  0  0
   56.8250   31.2150   42.5010 O   0  0  0  0  0  0  0  0  0  0  0  0
   57.6470   29.6250   44.5010 C   0  0  0  0  0  0  0  0  0  0  0  0
   59.0290   29.8570   44.4890 C   0  0  0  0  0  0  0  0  0  0  0  0
   59.9060   28.8900   44.9840 C   0  0  0  0  0  0  0  0  0  0  0  0
   59.4100   27.6820   45.4810 C   0  0  0  0  0  0  0  0  0  0  0  0
   58.0270   27.4290   45.4820 C   0  0  0  0  0  0  0  0  0  0  0  0
   57.1470   28.4200   45.0110 C   0  0  0  0  0  0  0  0  0  0  0  0
   57.5540   26.1820   46.0410 N   0  0  0  0  0  0  0  0  0  0  0  0
   56.2500   25.6420   45.7500 C   0  0  0  0  0  0  0  0  0  0  0  0
   56.0860   24.2610   45.1970 C   0  0  0  0  0  0  0  0  0  0  0  0
   55.2210   26.3230   46.0070 O   0  0  0  0  0  0  0  0  0  0  0  0
   58.4480   25.4500   46.9480 C   0  0  0  0  0  0  0  0  0  0  0  0
   59.8610   25.4150   46.3580 C   0  0  0  0  0  0  0  0  0  0  0  0
   60.2920   26.7300   46.0090 O   0  0  0  0  0  0  0  0  0  0  0  0
   58.6230   32.5020   46.9080 C   0  0  0  0  0  0  0  0  0  0  0  0
   59.3040   32.8410   48.0790 C   0  0  0  0  0  0  0  0  0  0  0  0
   62.2573   34.1530   50.6628 H   0  0  0  0  0  0  0  0  0  0  0  0
   62.3646   33.2341   49.1230 H   0  0  0  0  0  0  0  0  0  0  0  0
   62.5902   35.0162   49.1230 H   0  0  0  0  0  0  0  0  0  0  0  0
   60.4799   35.9182   47.1625 H   0  0  0  0  0  0  0  0  0  0  0  0
   59.2573   35.3198   45.0747 H   0  0  0  0  0  0  0  0  0  0  0  0
   57.5677   33.9598   44.0416 H   0  0  0  0  0  0  0  0  0  0  0  0
   58.4845   32.4197   43.9082 H   0  0  0  0  0  0  0  0  0  0  0  0
   56.7430   31.9580   45.9090 H   0  0  0  0  0  0  0  0  0  0  0  0
   59.4235   30.8027   44.0889 H   0  0  0  0  0  0  0  0  0  0  0  0
   60.9896   29.0795   44.9827 H   0  0  0  0  0  0  0  0  0  0  0  0
   56.0610   28.2479   45.0433 H   0  0  0  0  0  0  0  0  0  0  0  0
   56.0006   23.5421   46.0252 H   0  0  0  0  0  0  0  0  0  0  0  0
   55.1765   24.2188   44.5797 H   0  0  0  0  0  0  0  0  0  0  0  0
   56.9603   24.0070   44.5797 H   0  0  0  0  0  0  0  0  0  0  0  0
   58.4716   25.9546   47.9251 H   0  0  0  0  0  0  0  0  0  0  0  0
   58.0788   24.4215   47.0739 H   0  0  0  0  0  0  0  0  0  0  0  0
   60.5530   24.9932   47.1017 H   0  0  0  0  0  0  0  0  0  0  0  0
   59.8515   24.7924   45.4512 H   0  0  0  0  0  0  0  0  0  0  0  0
   58.0897   31.5421   46.8431 H   0  0  0  0  0  0  0  0  0  0  0  0
   59.3117   32.1404   48.9270 H   0  0  0  0  0  0  0  0  0  0  0  0
  1  2  1  0
  2  3  1  0
  3  4  2  0
  4  5  1  0
  5  6  2  0
  6  7  1  0
  7  8  1  0
  8  9  1  0
  9 10  2  0
  9 11  2  0
  9 12  1  0
 12 13  2  0
 13 14  1  0
 14 15  2  0
 15 16  1  0
 16 17  2  0
 16 18  1  0
 18 19  1  0
 19 20  1  0
 19 21  2  0
 18 22  1  0
 22 23  1  0
 23 24  1  0
  6 25  1  0
 25 26  2  0
 26  3  1  0
 17 12  1  0
 24 15  1  0
  1 27  1  0
  1 28  1  0
  1 29  1  0
  4 30  1  0
  5 31  1  0
  7 32  1  0
  7 33  1  0
  8 34  1  0
 13 35  1  0
 14 36  1  0
 17 37  1  0
 20 38  1  0
 20 39  1  0
 20 40  1  0
 22 41  1  0
 22 42  1  0
 23 43  1  0
 23 44  1  0
 25 45  1  0
 26 46  1  0
M  END
>  <UniqueID>  (26) 
26

>  <SMILES>  (26) 
COc1ccc(CNS(=O)(=O)c2ccc3c(c2)N(C(C)=O)CCO3)cc1

>  <Energy>  (26) 
48.86631812658399

>  <Genealogy>  (26) 
COc1ccc(CNS(=O)(=O)c2ccc3c(c2)N(C(C)=O)CCO3)cc1 (3D coordinates assigned)
COc1ccc(CNS(=O)(=O)c2ccc3c(c2)N(C(C)=O)CCO3)cc1 (nonaromatic ring conformer: 48.86631812658399 kcal/mol)

>  <smiles>  (26) 
COc1ccc(CNS(=O)(=O)c2ccc3c(c2)N(C(C)=O)CCO3)cc1

>  <score_type>  (26) 
oracle

>  <origin>  (26) 
adg

>  <m_score__min__energy>  (26) 
-8.5399999999999991

>  <m_primary>  (26) 
energy

$$$$
26:0
     RDKit          3D

 58 61  0  0  0  0  0  0  0  0999 V2000
   61.8740   32.0490   51.0670 C   0  0  0  0  0  0  0  0  0  0  0  0
   60.5170   32.4710   51.1030 O   0  0  0  0  0  0  0  0  0  0  0  0
   59.6820   32.4120   52.2260 C   0  0  0  0  0  0  0  0  0  0  0  0
   59.8690   32.9440   53.5140 C   0  0  0  0  0  0  0  0  0  0  0  0
   61.0290   33.7270   54.0430 C   0  0  0  0  0  0  0  0  0  0  0  0
   58.7680   32.5590   54.2720 C   0  0  0  0  0  0  0  0  0  0  0  0
   57.9460   31.8380   53.4960 N   0  0  0  0  0  0  0  0  0  0  0  0
   56.8050   31.2510   53.8510 N   0  0  0  0  0  0  0  0  0  0  0  0
   56.1250   30.5250   52.9200 C   0  0  0  0  0  0  0  0  0  0  0  0
   56.6160   30.4150   51.6510 N   0  0  0  0  0  0  0  0  0  0  0  0
   57.7850   31.0190   51.2880 C   0  0  0  0  0  0  0  0  0  0  0  0
   58.2590   30.9140   49.9380 N   0  0  0  0  0  0  0  0  0  0  0  0
   58.9050   29.6730   49.4830 C   0  0  0  0  0  0  0  0  0  0  0  0
   60.2990   29.9790   48.9100 C   0  0  0  0  0  0  0  0  0  0  0  0
   60.2970   31.1980   48.0840 N   0  0  0  0  0  0  0  0  0  0  0  0
   61.5670   31.8190   47.8210 C   0  0  0  0  0  0  0  0  0  0  0  0
   62.3970   31.2400   47.0690 O   0  0  0  0  0  0  0  0  0  0  0  0
   61.9190   33.0540   48.4640 N   0  0  0  0  0  0  0  0  0  0  0  0
   63.1220   33.8120   48.1050 C   0  0  0  0  0  0  0  0  0  0  0  0
   64.3630   33.1420   48.7010 C   0  0  0  0  0  0  0  0  0  0  0  0
   63.2510   33.9120   46.5810 C   0  0  0  0  0  0  0  0  0  0  0  0
   59.0020   31.8390   47.7700 C   0  0  2  0  0  0  0  0  0  0  0  0
   59.1190   33.0190   46.8080 C   0  0  0  0  0  0  0  0  0  0  0  0
   58.7690   32.8170   45.4590 C   0  0  0  0  0  0  0  0  0  0  0  0
   58.8530   33.8610   44.5340 C   0  0  0  0  0  0  0  0  0  0  0  0
   59.2850   35.1240   44.9430 C   0  0  0  0  0  0  0  0  0  0  0  0
   59.6370   35.3430   46.2750 C   0  0  0  0  0  0  0  0  0  0  0  0
   59.5540   34.3020   47.2060 C   0  0  0  0  0  0  0  0  0  0  0  0
   58.2740   32.1200   49.0960 C   0  0  0  0  0  0  0  0  0  0  0  0
   58.4670   31.7480   52.2660 C   0  0  0  0  0  0  0  0  0  0  0  0
   62.2491   31.9324   52.0945 H   0  0  0  0  0  0  0  0  0  0  0  0
   61.9448   31.0864   50.5393 H   0  0  0  0  0  0  0  0  0  0  0  0
   62.4782   32.8017   50.5393 H   0  0  0  0  0  0  0  0  0  0  0  0
   61.0094   33.7137   55.1427 H   0  0  0  0  0  0  0  0  0  0  0  0
   61.9677   33.2770   53.6876 H   0  0  0  0  0  0  0  0  0  0  0  0
   60.9628   34.7659   53.6876 H   0  0  0  0  0  0  0  0  0  0  0  0
   58.5999   32.8049   55.3309 H   0  0  0  0  0  0  0  0  0  0  0  0
   55.1816   30.0282   53.1905 H   0  0  0  0  0  0  0  0  0  0  0  0
   59.0053   28.9826   50.3335 H   0  0  0  0  0  0  0  0  0  0  0  0
   58.2869   29.2138   48.6974 H   0  0  0  0  0  0  0  0  0  0  0  0
   61.0041   30.1151   49.7433 H   0  0  0  0  0  0  0  0  0  0  0  0
   60.5983   29.1347   48.2715 H   0  0  0  0  0  0  0  0  0  0  0  0
   61.3250   33.3790   49.2590 H   0  0  0  0  0  0  0  0  0  0  0  0
   63.0370   34.8285   48.5168 H   0  0  0  0  0  0  0  0  0  0  0  0
   64.3050   33.1733   49.7990 H   0  0  0  0  0  0  0  0  0  0  0  0
   64.4111   32.0953   48.3661 H   0  0  0  0  0  0  0  0  0  0  0  0
   65.2645   33.6760   48.3661 H   0  0  0  0  0  0  0  0  0  0  0  0
   64.0969   34.5677   46.3269 H   0  0  0  0  0  0  0  0  0  0  0  0
   63.4246   32.9102   46.1612 H   0  0  0  0  0  0  0  0  0  0  0  0
   62.3241   34.3299   46.1612 H   0  0  0  0  0  0  0  0  0  0  0  0
   58.3716   31.1525   47.1858 H   0  0  0  0  0  0  0  0  0  0  0  0
   58.4253   31.8254   45.1294 H   0  0  0  0  0  0  0  0  0  0  0  0
   58.5786   33.6876   43.4830 H   0  0  0  0  0  0  0  0  0  0  0  0
   59.3478   35.9463   44.2151 H   0  0  0  0  0  0  0  0  0  0  0  0
   59.9811   36.3378   46.5945 H   0  0  0  0  0  0  0  0  0  0  0  0
   59.8295   34.4843   48.2552 H   0  0  0  0  0  0  0  0  0  0  0  0
   58.7937   32.9288   49.6305 H   0  0  0  0  0  0  0  0  0  0  0  0
   57.2372   32.4162   48.8782 H   0  0  0  0  0  0  0  0  0  0  0  0
  1  2  1  0
  2  3  1  0
  3  4  1  0
  4  5  1  0
  4  6  2  0
  6  7  1  0
  7  8  1  0
  8  9  2  0
  9 10  1  0
 10 11  2  0
 11 12  1  0
 12 13  1  0
 13 14  1  0
 14 15  1  0
 15 16  1  0
 16 17  2  0
 16 18  1  0
 18 19  1  0
 19 20  1  0
 19 21  1  0
 15 22  1  0
 22 23  1  0
 23 24  2  0
 24 25  1  0
 25 26  2  0
 26 27  1  0
 27 28  2  0
 22 29  1  0
 11 30  1  0
 30  3  2  0
 30  7  1  0
 29 12  1  0
 28 23  1  0
  1 31  1  0
  1 32  1  0
  1 33  1  0
  5 34  1  0
  5 35  1  0
  5 36  1  0
  6 37  1  0
  9 38  1  0
 13 39  1  0
 13 40  1  0
 14 41  1  0
 14 42  1  0
 18 43  1  0
 19 44  1  0
 20 45  1  0
 20 46  1  0
 20 47  1  0
 21 48  1  0
 21 49  1  0
 21 50  1  0
 22 51  1  6
 24 52  1  0
 25 53  1  0
 26 54  1  0
 27 55  1  0
 28 56  1  0
 29 57  1  0
 29 58  1  0
M  END
>  <UniqueID>  (27) 
27

>  <SMILES>  (27) 
COc1c(C)cn2ncnc(N3CCN(C(=O)NC(C)C)[C@H](c4ccccc4)C3)c12

>  <Energy>  (27) 
103.53068281817303

>  <Genealogy>  (27) 
COc1c(C)cn2ncnc(N3CCN(C(=O)NC(C)C)[C@H](c4ccccc4)C3)c12 (chirality)
COc1c(C)cn2ncnc(N3CCN(C(=O)NC(C)C)[C@H](c4ccccc4)C3)c12 (3D coordinates assigned)
COc1c(C)cn2ncnc(N3CCN(C(=O)NC(C)C)[C@H](c4ccccc4)C3)c12 (nonaromatic ring conformer: 103.53068281817303 kcal/mol)

>  <smiles>  (27) 
COc1c(C)cn2ncnc(N3CCN(C(=O)NC(C)C)C(c4ccccc4)C3)c12

>  <score_type>  (27) 
oracle

>  <origin>  (27) 
adg

>  <m_score__min__energy>  (27) 
-7.1100000000000003

>  <m_primary>  (27) 
energy

$$$$
27:0
     RDKit          3D

 49 51  0  0  0  0  0  0  0  0999 V2000
   56.5210   23.1580   43.2250 C   0  0  0  0  0  0  0  0  0  0  0  0
   56.9980   23.8170   44.3940 O   0  0  0  0  0  0  0  0  0  0  0  0
   57.0830   25.2110   44.5420 C   0  0  0  0  0  0  0  0  0  0  0  0
   57.7720   26.0200   43.6200 C   0  0  0  0  0  0  0  0  0  0  0  0
   57.8350   27.4010   43.8010 C   0  0  0  0  0  0  0  0  0  0  0  0
   57.2130   28.0090   44.9030 C   0  0  0  0  0  0  0  0  0  0  0  0
   57.2920   29.4820   45.0760 C   0  0  0  0  0  0  0  0  0  0  0  0
   58.2470   30.1910   45.7870 C   0  0  0  0  0  0  0  0  0  0  0  0
   57.8620   31.5080   45.6260 C   0  0  0  0  0  0  0  0  0  0  0  0
   58.5230   32.7070   46.1670 C   0  0  0  0  0  0  0  0  0  0  0  0
   57.8080   33.6730   46.5480 O   0  0  0  0  0  0  0  0  0  0  0  0
   59.9540   32.7880   46.2690 N   0  0  0  0  0  0  0  0  0  0  0  0
   60.6370   34.0040   46.7030 C   0  0  0  0  0  0  0  0  0  0  0  0
   61.3100   33.7760   48.0300 C   0  0  0  0  0  0  0  0  0  0  0  0
   62.6870   33.5190   48.0810 C   0  0  0  0  0  0  0  0  0  0  0  0
   63.3320   33.3320   49.3130 C   0  0  0  0  0  0  0  0  0  0  0  0
   64.8140   33.1070   49.3610 C   0  0  0  0  0  0  0  0  0  0  0  0
   62.5950   33.4320   50.5010 C   0  0  0  0  0  0  0  0  0  0  0  0
   61.2130   33.6760   50.4620 C   0  0  0  0  0  0  0  0  0  0  0  0
   60.4360   33.8180   51.7370 C   0  0  0  0  0  0  0  0  0  0  0  0
   60.5780   33.8620   49.2250 C   0  0  0  0  0  0  0  0  0  0  0  0
   56.7800   31.5430   44.8850 O   0  0  0  0  0  0  0  0  0  0  0  0
   56.4090   30.3460   44.5380 N   0  0  0  0  0  0  0  0  0  0  0  0
   56.5230   27.1990   45.8240 C   0  0  0  0  0  0  0  0  0  0  0  0
   56.4560   25.8030   45.6480 C   0  0  0  0  0  0  0  0  0  0  0  0
   55.7750   24.9700   46.5510 O   0  0  0  0  0  0  0  0  0  0  0  0
   56.4020   24.0250   47.4110 C   0  0  0  0  0  0  0  0  0  0  0  0
   55.8991   22.2988   43.5164 H   0  0  0  0  0  0  0  0  0  0  0  0
   55.9202   23.8597   42.6278 H   0  0  0  0  0  0  0  0  0  0  0  0
   57.3753   22.8065   42.6278 H   0  0  0  0  0  0  0  0  0  0  0  0
   58.2643   25.5599   42.7505 H   0  0  0  0  0  0  0  0  0  0  0  0
   58.3780   28.0209   43.0724 H   0  0  0  0  0  0  0  0  0  0  0  0
   59.1082   29.7980   46.3473 H   0  0  0  0  0  0  0  0  0  0  0  0
   60.5400   31.9580   46.0350 H   0  0  0  0  0  0  0  0  0  0  0  0
   61.3937   34.2826   45.9548 H   0  0  0  0  0  0  0  0  0  0  0  0
   59.8986   34.8124   46.8089 H   0  0  0  0  0  0  0  0  0  0  0  0
   63.2666   33.4635   47.1477 H   0  0  0  0  0  0  0  0  0  0  0  0
   65.1435   33.0570   50.4093 H   0  0  0  0  0  0  0  0  0  0  0  0
   65.0579   32.1615   48.8545 H   0  0  0  0  0  0  0  0  0  0  0  0
   65.3276   33.9375   48.8545 H   0  0  0  0  0  0  0  0  0  0  0  0
   63.1027   33.3186   51.4702 H   0  0  0  0  0  0  0  0  0  0  0  0
   61.1133   33.6942   52.5949 H   0  0  0  0  0  0  0  0  0  0  0  0
   59.9739   34.8155   51.7756 H   0  0  0  0  0  0  0  0  0  0  0  0
   59.6509   33.0485   51.7756 H   0  0  0  0  0  0  0  0  0  0  0  0
   59.4997   34.0766   49.1911 H   0  0  0  0  0  0  0  0  0  0  0  0
   56.0300   27.6616   46.6918 H   0  0  0  0  0  0  0  0  0  0  0  0
   56.2171   24.3037   48.4589 H   0  0  0  0  0  0  0  0  0  0  0  0
   55.9884   23.0239   47.2194 H   0  0  0  0  0  0  0  0  0  0  0  0
   57.4852   24.0170   47.2194 H   0  0  0  0  0  0  0  0  0  0  0  0
  1  2  1  0
  2  3  1  0
  3  4  2  0
  4  5  1  0
  5  6  2  0
  6  7  1  0
  7  8  1  0
  8  9  2  0
  9 10  1  0
 10 11  2  0
 10 12  1  0
 12 13  1  0
 13 14  1  0
 14 15  2  0
 15 16  1  0
 16 17  1  0
 16 18  2  0
 18 19  1  0
 19 20  1  0
 19 21  2  0
  9 22  1  0
 22 23  1  0
  6 24  1  0
 24 25  2  0
 25 26  1  0
 26 27  1  0
 25  3  1  0
 23  7  2  0
 21 14  1  0
  1 28  1  0
  1 29  1  0
  1 30  1  0
  4 31  1  0
  5 32  1  0
  8 33  1  0
 12 34  1  0
 13 35  1  0
 13 36  1  0
 15 37  1  0
 17 38  1  0
 17 39  1  0
 17 40  1  0
 18 41  1  0
 20 42  1  0
 20 43  1  0
 20 44  1  0
 21 45  1  0
 24 46  1  0
 27 47  1  0
 27 48  1  0
 27 49  1  0
M  END
>  <UniqueID>  (28) 
28

>  <SMILES>  (28) 
COc1ccc(-c2cc(C(=O)NCc3cc(C)cc(C)c3)on2)cc1OC

>  <Energy>  (28) 
76.86587053381743

>  <Genealogy>  (28) 
COc1ccc(-c2cc(C(=O)NCc3cc(C)cc(C)c3)on2)cc1OC (3D coordinates assigned)
COc1ccc(-c2cc(C(=O)NCc3cc(C)cc(C)c3)on2)cc1OC (optimized conformer: 76.86587053381743 kcal/mol)

>  <smiles>  (28) 
COc1ccc(-c2cc(C(=O)NCc3cc(C)cc(C)c3)on2)cc1OC

>  <score_type>  (28) 
oracle

>  <origin>  (28) 
adg

>  <m_score__min__energy>  (28) 
-8.3499999999999996

>  <m_primary>  (28) 
energy

$$$$
28:0
     RDKit          3D

 29 29  0  0  0  0  0  0  0  0999 V2000
   60.2350   28.9730   45.6720 C   0  0  0  0  0  0  0  0  0  0  0  0
   59.6220   28.2170   44.4940 C   0  0  0  0  0  0  0  0  0  0  0  0
   58.0840   28.1320   44.5580 C   0  0  0  0  0  0  0  0  0  0  0  0
   57.4000   28.6160   43.3440 N   0  0  0  0  0  0  0  0  0  0  0  0
   56.5970   29.8280   43.5920 C   0  0  0  0  0  0  0  0  0  0  0  0
   57.3420   31.1010   43.1590 C   0  0  0  0  0  0  0  0  0  0  0  0
   57.6460   31.9970   44.3330 C   0  0  0  0  0  0  0  0  0  0  0  0
   57.8050   33.3790   44.1570 C   0  0  0  0  0  0  0  0  0  0  0  0
   58.1170   34.1900   45.2500 C   0  0  0  0  0  0  0  0  0  0  0  0
   58.2730   33.6100   46.5100 C   0  0  0  0  0  0  0  0  0  0  0  0
   58.1240   32.2670   46.6650 N   0  0  0  0  0  0  0  0  0  0  0  0
   57.8200   31.4560   45.6160 C   0  0  0  0  0  0  0  0  0  0  0  0
   59.8785   28.5334   46.6152 H   0  0  0  0  0  0  0  0  0  0  0  0
   61.3315   28.8992   45.6244 H   0  0  0  0  0  0  0  0  0  0  0  0
   59.9362   30.0306   45.6244 H   0  0  0  0  0  0  0  0  0  0  0  0
   59.9049   28.7314   43.5638 H   0  0  0  0  0  0  0  0  0  0  0  0
   60.0071   27.1873   44.5317 H   0  0  0  0  0  0  0  0  0  0  0  0
   57.8030   27.0803   44.7160 H   0  0  0  0  0  0  0  0  0  0  0  0
   57.7655   28.7871   45.3823 H   0  0  0  0  0  0  0  0  0  0  0  0
   56.7650   27.8500   43.0180 H   0  0  0  0  0  0  0  0  0  0  0  0
   58.0990   28.7900   42.5870 H   0  0  0  0  0  0  0  0  0  0  0  0
   55.6568   29.7549   43.0257 H   0  0  0  0  0  0  0  0  0  0  0  0
   56.4017   29.8953   44.6724 H   0  0  0  0  0  0  0  0  0  0  0  0
   58.2875   30.8136   42.6759 H   0  0  0  0  0  0  0  0  0  0  0  0
   56.6959   31.6559   42.4629 H   0  0  0  0  0  0  0  0  0  0  0  0
   57.6840   33.8240   43.1584 H   0  0  0  0  0  0  0  0  0  0  0  0
   58.2387   35.2754   45.1194 H   0  0  0  0  0  0  0  0  0  0  0  0
   58.5167   34.2397   47.3784 H   0  0  0  0  0  0  0  0  0  0  0  0
   57.7103   30.3729   45.7740 H   0  0  0  0  0  0  0  0  0  0  0  0
  1  2  1  0
  2  3  1  0
  3  4  1  0
  4  5  1  0
  5  6  1  0
  6  7  1  0
  7  8  2  0
  8  9  1  0
  9 10  2  0
 10 11  1  0
 11 12  2  0
 12  7  1  0
  1 13  1  0
  1 14  1  0
  1 15  1  0
  2 16  1  0
  2 17  1  0
  3 18  1  0
  3 19  1  0
  4 20  1  0
  4 21  1  0
  5 22  1  0
  5 23  1  0
  6 24  1  0
  6 25  1  0
  8 26  1  0
  9 27  1  0
 10 28  1  0
 12 29  1  0
M  CHG  1   4   1
M  END
>  <UniqueID>  (29) 
29

>  <SMILES>  (29) 
CCC[NH2+]CCc1cccnc1

>  <Energy>  (29) 
22.12439661331076

>  <Genealogy>  (29) 
CCC[NH2+]CCc1cccnc1 (protonated)
CCC[NH2+]CCc1cccnc1 (3D coordinates assigned)
CCC[NH2+]CCc1cccnc1 (optimized conformer: 22.12439661331076 kcal/mol)

>  <smiles>  (29) 
CCCNCCc1cccnc1

>  <score_type>  (29) 
oracle

>  <origin>  (29) 
adg

>  <m_score__min__energy>  (29) 
-3.4100000000000001

>  <m_primary>  (29) 
energy

$$$$
29:0
     RDKit          3D

 55 57  0  0  0  0  0  0  0  0999 V2000
   59.6610   26.0850   46.1680 C   0  0  0  0  0  0  0  0  0  0  0  0
   58.8790   26.4030   45.0210 O   0  0  0  0  0  0  0  0  0  0  0  0
   58.4820   27.7030   44.6680 C   0  0  0  0  0  0  0  0  0  0  0  0
   59.0950   28.8460   45.2110 C   0  0  0  0  0  0  0  0  0  0  0  0
   58.6460   30.1130   44.8360 C   0  0  0  0  0  0  0  0  0  0  0  0
   57.5930   30.2420   43.9210 C   0  0  0  0  0  0  0  0  0  0  0  0
   57.0340   31.6010   43.5830 C   0  0  0  0  0  0  0  0  0  0  0  0
   58.1440   32.6590   43.4790 C   0  0  0  0  0  0  0  0  0  0  0  0
   58.5270   33.1660   44.8150 N   0  0  0  0  0  0  0  0  0  0  0  0
   57.3900   33.1460   45.7570 C   0  0  0  0  0  0  0  0  0  0  0  0
   57.7750   33.7710   47.1180 C   0  0  0  0  0  0  0  0  0  0  0  0
   59.2190   34.0670   47.2170 N   0  0  0  0  0  0  0  0  0  0  0  0
   60.0540   32.8470   47.3330 C   0  0  0  0  0  0  0  0  0  0  0  0
   60.9600   32.9480   48.5610 C   0  0  0  0  0  0  0  0  0  0  0  0
   62.0030   33.9770   48.3430 N   0  0  0  0  0  0  0  0  0  0  0  0
   62.9660   34.0550   49.4680 C   0  0  0  0  0  0  0  0  0  0  0  0
   64.2050   33.1620   49.2480 C   0  0  0  0  0  0  0  0  0  0  0  0
   63.8910   32.0820   48.3940 O   0  0  0  0  0  0  0  0  0  0  0  0
   63.6350   32.5590   47.0840 C   0  0  0  0  0  0  0  0  0  0  0  0
   62.7050   33.7960   47.0590 C   0  0  0  0  0  0  0  0  0  0  0  0
   59.6560   34.9530   46.1140 C   0  0  0  0  0  0  0  0  0  0  0  0
   59.1000   34.5190   44.7380 C   0  0  0  0  0  0  0  0  0  0  0  0
   57.0160   29.0790   43.3930 C   0  0  0  0  0  0  0  0  0  0  0  0
   57.4670   27.8520   43.7710 N   0  0  0  0  0  0  0  0  0  0  0  0
   59.0886   26.3178   47.0780 H   0  0  0  0  0  0  0  0  0  0  0  0
   59.9109   25.0138   46.1559 H   0  0  0  0  0  0  0  0  0  0  0  0
   60.5875   26.6778   46.1559 H   0  0  0  0  0  0  0  0  0  0  0  0
   59.9235   28.7421   45.9271 H   0  0  0  0  0  0  0  0  0  0  0  0
   59.1193   31.0112   45.2592 H   0  0  0  0  0  0  0  0  0  0  0  0
   56.5068   31.5407   42.6194 H   0  0  0  0  0  0  0  0  0  0  0  0
   56.3472   31.9007   44.3882 H   0  0  0  0  0  0  0  0  0  0  0  0
   59.0257   32.2081   43.0001 H   0  0  0  0  0  0  0  0  0  0  0  0
   57.7666   33.5021   42.8816 H   0  0  0  0  0  0  0  0  0  0  0  0
   56.5559   33.7175   45.3237 H   0  0  0  0  0  0  0  0  0  0  0  0
   57.0987   32.0989   45.9265 H   0  0  0  0  0  0  0  0  0  0  0  0
   57.2133   34.7079   47.2473 H   0  0  0  0  0  0  0  0  0  0  0  0
   57.5293   33.0402   47.9026 H   0  0  0  0  0  0  0  0  0  0  0  0
   59.4015   31.9671   47.4331 H   0  0  0  0  0  0  0  0  0  0  0  0
   60.6770   32.7488   46.4318 H   0  0  0  0  0  0  0  0  0  0  0  0
   60.3550   33.2236   49.4374 H   0  0  0  0  0  0  0  0  0  0  0  0
   61.4449   31.9753   48.7307 H   0  0  0  0  0  0  0  0  0  0  0  0
   63.2978   35.0981   49.5767 H   0  0  0  0  0  0  0  0  0  0  0  0
   62.4527   33.6975   50.3728 H   0  0  0  0  0  0  0  0  0  0  0  0
   65.0073   33.7617   48.7933 H   0  0  0  0  0  0  0  0  0  0  0  0
   64.5334   32.7636   50.2193 H   0  0  0  0  0  0  0  0  0  0  0  0
   64.5930   32.8318   46.6174 H   0  0  0  0  0  0  0  0  0  0  0  0
   63.1243   31.7536   46.5357 H   0  0  0  0  0  0  0  0  0  0  0  0
   63.3091   34.6920   46.8537 H   0  0  0  0  0  0  0  0  0  0  0  0
   61.9498   33.6412   46.2743 H   0  0  0  0  0  0  0  0  0  0  0  0
   59.3092   35.9751   46.3263 H   0  0  0  0  0  0  0  0  0  0  0  0
   60.7532   34.8963   46.0597 H   0  0  0  0  0  0  0  0  0  0  0  0
   58.3175   35.2258   44.4249 H   0  0  0  0  0  0  0  0  0  0  0  0
   59.9229   34.5149   44.0080 H   0  0  0  0  0  0  0  0  0  0  0  0
   56.1927   29.1586   42.6679 H   0  0  0  0  0  0  0  0  0  0  0  0
   57.0100   27.0020   43.3710 H   0  0  0  0  0  0  0  0  0  0  0  0
  1  2  1  0
  2  3  1  0
  3  4  2  0
  4  5  1  0
  5  6  2  0
  6  7  1  0
  7  8  1  0
  8  9  1  0
  9 10  1  0
 10 11  1  0
 11 12  1  0
 12 13  1  0
 13 14  1  0
 14 15  1  0
 15 16  1  0
 16 17  1  0
 17 18  1  0
 18 19  1  0
 19 20  1  0
 12 21  1  0
 21 22  1  0
  6 23  1  0
 23 24  2  0
 24  3  1  0
 22  9  1  0
 20 15  1  0
  1 25  1  0
  1 26  1  0
  1 27  1  0
  4 28  1  0
  5 29  1  0
  7 30  1  0
  7 31  1  0
  8 32  1  0
  8 33  1  0
 10 34  1  0
 10 35  1  0
 11 36  1  0
 11 37  1  0
 13 38  1  0
 13 39  1  0
 14 40  1  0
 14 41  1  0
 16 42  1  0
 16 43  1  0
 17 44  1  0
 17 45  1  0
 19 46  1  0
 19 47  1  0
 20 48  1  0
 20 49  1  0
 21 50  1  0
 21 51  1  0
 22 52  1  0
 22 53  1  0
 23 54  1  0
 24 55  1  0
M  CHG  1  24   1
M  END
>  <UniqueID>  (30) 
30

>  <SMILES>  (30) 
COc1ccc(CCN2CCN(CCN3CCOCC3)CC2)c[nH+]1

>  <Energy>  (30) 
72.80727166480338

>  <Genealogy>  (30) 
COc1ccc(CCN2CCN(CCN3CCOCC3)CC2)c[nH+]1 (protonated)
COc1ccc(CCN2CCN(CCN3CCOCC3)CC2)c[nH+]1 (3D coordinates assigned)
COc1ccc(CCN2CCN(CCN3CCOCC3)CC2)c[nH+]1 (nonaromatic ring conformer: 72.80727166480338 kcal/mol)

>  <smiles>  (30) 
COc1ccc(CCN2CCN(CCN3CCOCC3)CC2)cn1

>  <score_type>  (30) 
oracle

>  <origin>  (30) 
adg

>  <m_score__min__energy>  (30) 
-6.9900000000000002

>  <m_primary>  (30) 
energy

$$$$
30:0
     RDKit          3D

 45 48  0  0  0  0  0  0  0  0999 V2000
   58.6480   29.3240   45.9840 C   0  0  0  0  0  0  0  0  0  0  0  0
   57.9040   29.3880   44.8820 C   0  0  0  0  0  0  0  0  0  0  0  0
   56.5690   30.0170   44.8500 C   0  0  0  0  0  0  0  0  0  0  0  0
   55.5540   29.2750   44.8790 O   0  0  0  0  0  0  0  0  0  0  0  0
   56.3830   31.4390   44.8310 N   0  0  0  0  0  0  0  0  0  0  0  0
   57.3740   32.4270   45.1500 C   0  0  0  0  0  0  0  0  0  0  0  0
   58.0570   33.1380   44.1480 C   0  0  0  0  0  0  0  0  0  0  0  0
   59.0150   34.0930   44.4950 C   0  0  0  0  0  0  0  0  0  0  0  0
   59.2820   34.3640   45.8390 C   0  0  0  0  0  0  0  0  0  0  0  0
   58.5790   33.6970   46.8480 C   0  0  0  0  0  0  0  0  0  0  0  0
   58.8810   33.9980   48.1850 O   0  0  0  0  0  0  0  0  0  0  0  0
   59.5530   33.1510   49.0750 C   0  0  0  0  0  0  0  0  0  0  0  0
   58.9680   31.9350   49.4310 C   0  0  0  0  0  0  0  0  0  0  0  0
   59.6600   31.0800   50.3020 C   0  0  0  0  0  0  0  0  0  0  0  0
   59.1210   29.8570   50.7220 O   0  0  0  0  0  0  0  0  0  0  0  0
   58.1530   29.7080   51.7220 C   0  0  0  0  0  0  0  0  0  0  0  0
   56.8960   30.1760   51.5840 N   0  0  0  0  0  0  0  0  0  0  0  0
   56.1340   29.9550   52.6930 C   0  0  0  0  0  0  0  0  0  0  0  0
   54.7140   30.3940   52.7560 C   0  0  0  0  0  0  0  0  0  0  0  0
   54.0120   30.3160   53.9740 C   0  0  0  0  0  0  0  0  0  0  0  0
   52.6770   30.7250   54.0530 C   0  0  0  0  0  0  0  0  0  0  0  0
   52.0260   31.2200   52.9220 C   0  0  0  0  0  0  0  0  0  0  0  0
   50.3520   31.7320   53.0230 Cl  0  0  0  0  0  0  0  0  0  0  0  0
   52.7130   31.3100   51.7080 C   0  0  0  0  0  0  0  0  0  0  0  0
   54.0470   30.9020   51.6230 C   0  0  0  0  0  0  0  0  0  0  0  0
   56.8090   29.3130   53.7360 C   0  0  0  0  0  0  0  0  0  0  0  0
   58.3880   29.0200   53.2410 S   0  0  0  0  0  0  0  0  0  0  0  0
   60.8690   31.4650   50.7890 N   0  0  0  0  0  0  0  0  0  0  0  0
   61.4310   32.6460   50.4240 C   0  0  0  0  0  0  0  0  0  0  0  0
   60.7780   33.4750   49.5690 N   0  0  0  0  0  0  0  0  0  0  0  0
   57.6290   32.7200   46.4970 C   0  0  0  0  0  0  0  0  0  0  0  0
   59.6370   28.8435   45.9528 H   0  0  0  0  0  0  0  0  0  0  0  0
   58.2738   29.7516   46.9259 H   0  0  0  0  0  0  0  0  0  0  0  0
   58.3019   28.9526   43.9535 H   0  0  0  0  0  0  0  0  0  0  0  0
   57.8364   32.9417   43.0884 H   0  0  0  0  0  0  0  0  0  0  0  0
   59.5609   34.6334   43.7076 H   0  0  0  0  0  0  0  0  0  0  0  0
   60.0492   35.1059   46.1055 H   0  0  0  0  0  0  0  0  0  0  0  0
   57.9814   31.6518   49.0356 H   0  0  0  0  0  0  0  0  0  0  0  0
   54.5180   29.9300   54.8712 H   0  0  0  0  0  0  0  0  0  0  0  0
   52.1383   30.6564   55.0096 H   0  0  0  0  0  0  0  0  0  0  0  0
   52.2021   31.7032   50.8167 H   0  0  0  0  0  0  0  0  0  0  0  0
   54.5807   30.9779   50.6642 H   0  0  0  0  0  0  0  0  0  0  0  0
   56.3799   29.0456   54.7129 H   0  0  0  0  0  0  0  0  0  0  0  0
   62.4162   32.9316   50.8212 H   0  0  0  0  0  0  0  0  0  0  0  0
   57.0823   32.1821   47.2856 H   0  0  0  0  0  0  0  0  0  0  0  0
  1  2  2  0
  2  3  1  0
  3  4  2  0
  3  5  1  0
  5  6  1  0
  6  7  2  0
  7  8  1  0
  8  9  2  0
  9 10  1  0
 10 11  1  0
 11 12  1  0
 12 13  2  0
 13 14  1  0
 14 15  1  0
 15 16  1  0
 16 17  2  0
 17 18  1  0
 18 19  1  0
 19 20  2  0
 20 21  1  0
 21 22  2  0
 22 23  1  0
 22 24  1  0
 24 25  2  0
 18 26  2  0
 26 27  1  0
 14 28  2  0
 28 29  1  0
 29 30  2  0
 10 31  2  0
 31  6  1  0
 30 12  1  0
 27 16  1  0
 25 19  1  0
  1 32  1  0
  1 33  1  0
  2 34  1  0
  7 35  1  0
  8 36  1  0
  9 37  1  0
 13 38  1  0
 20 39  1  0
 21 40  1  0
 24 41  1  0
 25 42  1  0
 26 43  1  0
 29 44  1  0
 31 45  1  0
M  CHG  1   5  -1
M  END
>  <UniqueID>  (31) 
31

>  <SMILES>  (31) 
C=CC(=O)[N-]c1cccc(Oc2cc(Oc3nc(-c4ccc(Cl)cc4)cs3)ncn2)c1

>  <Energy>  (31) 
98.56360621978708

>  <Genealogy>  (31) 
C=CC(=O)[N-]c1cccc(Oc2cc(Oc3nc(-c4ccc(Cl)cc4)cs3)ncn2)c1 (protonated)
C=CC(=O)[N-]c1cccc(Oc2cc(Oc3nc(-c4ccc(Cl)cc4)cs3)ncn2)c1 (3D coordinates assigned)
C=CC(=O)[N-]c1cccc(Oc2cc(Oc3nc(-c4ccc(Cl)cc4)cs3)ncn2)c1 (optimized conformer: 98.56360621978708 kcal/mol)

>  <smiles>  (31) 
C=CC(=O)Nc1cccc(Oc2cc(Oc3nc(-c4ccc(Cl)cc4)cs3)ncn2)c1

>  <score_type>  (31) 
oracle

>  <origin>  (31) 
adg

>  <m_score__min__energy>  (31) 
-11.57

>  <m_primary>  (31) 
energy

$$$$
31:0
     RDKit          3D

 36 39  0  0  1  0  0  0  0  0999 V2000
   56.4310   29.3650   42.5990 N   0  0  0  0  0  0  0  0  0  0  0  0
   56.2370   29.8790   43.9280 C   0  0  0  0  0  0  0  0  0  0  0  0
   55.3840   29.3390   44.7080 O   0  0  0  0  0  0  0  0  0  0  0  0
   57.0280   31.0300   44.3800 C   0  0  0  0  0  0  0  0  0  0  0  0
   57.4190   32.1130   43.5960 C   0  0  0  0  0  0  0  0  0  0  0  0
   58.1420   32.9540   44.4300 C   0  0  0  0  0  0  0  0  0  0  0  0
   58.1430   32.3310   45.6550 C   0  0  0  0  0  0  0  0  0  0  0  0
   58.7740   32.8180   46.8730 C   0  0  0  0  0  0  0  0  0  0  0  0
   59.6900   33.8490   46.8160 C   0  0  0  0  0  0  0  0  0  0  0  0
   60.3090   34.3380   47.9580 C   0  0  0  0  0  0  0  0  0  0  0  0
   60.0010   33.7780   49.1810 C   0  0  0  0  0  0  0  0  0  0  0  0
   60.5760   34.2160   50.3380 N   0  0  0  0  0  0  0  0  0  0  0  0
   60.2700   33.6640   51.5320 C   0  0  0  0  0  0  0  0  0  0  0  0
   59.3930   32.6770   51.5860 N   0  0  0  0  0  0  0  0  0  0  0  0
   58.7930   32.2050   50.4770 C   0  0  0  0  0  0  0  0  0  0  0  0
   57.9690   31.2680   50.5770 N   0  0  0  0  0  0  0  0  0  0  0  0
   57.1640   30.8920   51.6580 C   0  0  0  0  0  0  0  0  0  0  0  0
   56.8530   31.5230   52.9230 C   0  0  0  0  0  0  0  0  0  0  0  0
   55.7930   30.8520   51.9980 C   0  0  0  0  0  0  0  0  0  0  0  0
   59.0840   32.7450   49.2510 C   0  0  0  0  0  0  0  0  0  0  0  0
   58.4820   32.2760   48.1120 C   0  0  0  0  0  0  0  0  0  0  0  0
   57.4770   31.2050   45.5830 O   0  0  0  0  0  0  0  0  0  0  0  0
   55.6790   29.4160   41.8720 H   0  0  0  0  0  0  0  0  0  0  0  0
   57.3720   28.9400   42.4160 H   0  0  0  0  0  0  0  0  0  0  0  0
   57.1988   32.2700   42.5298 H   0  0  0  0  0  0  0  0  0  0  0  0
   58.6129   33.9128   44.1672 H   0  0  0  0  0  0  0  0  0  0  0  0
   59.9357   34.2944   45.8407 H   0  0  0  0  0  0  0  0  0  0  0  0
   61.0355   35.1611   47.8891 H   0  0  0  0  0  0  0  0  0  0  0  0
   60.7469   34.0330   52.4520 H   0  0  0  0  0  0  0  0  0  0  0  0
   59.1410   32.2400   52.4750 H   0  0  0  0  0  0  0  0  0  0  0  0
   57.8535   30.1272   51.2712 H   0  0  0  0  0  0  0  0  0  0  0  0
   57.1477   31.0518   53.8723 H   0  0  0  0  0  0  0  0  0  0  0  0
   57.0035   32.5104   53.3839 H   0  0  0  0  0  0  0  0  0  0  0  0
   55.3211   29.9027   52.2916 H   0  0  0  0  0  0  0  0  0  0  0  0
   54.8522   31.1634   51.5206 H   0  0  0  0  0  0  0  0  0  0  0  0
   57.7541   31.4544   48.1845 H   0  0  0  0  0  0  0  0  0  0  0  0
  1  2  1  0
  2  3  2  0
  2  4  1  0
  4  5  2  0
  5  6  1  0
  6  7  2  0
  7  8  1  0
  8  9  2  0
  9 10  1  0
 10 11  2  0
 11 12  1  0
 12 13  2  0
 13 14  1  0
 14 15  1  0
 15 16  2  0
 16 17  1  0
 17 18  1  0
 18 19  1  0
 15 20  1  0
 20 21  2  0
  7 22  1  0
 22  4  1  0
 21  8  1  0
 20 11  1  0
 19 17  1  0
  1 23  1  0
  1 24  1  0
  5 25  1  0
  6 26  1  0
  9 27  1  0
 10 28  1  0
 13 29  1  0
 14 30  1  0
 17 31  1  0
 18 32  1  0
 18 33  1  0
 19 34  1  0
 19 35  1  0
 21 36  1  0
M  END
>  <smiles>  (32) 
NC(=O)c1ccc(-c2ccc3nc[nH]c(=NC4CC4)c3c2)o1

>  <score_type>  (32) 
oracle

>  <origin>  (32) 
adg

>  <m_score__min__energy>  (32) 
-7.8700000000000001

>  <m_primary>  (32) 
energy

$$$$
32:0
     RDKit          3D

 29 31  0  0  0  0  0  0  0  0999 V2000
   59.8750   27.9460   45.8720 C   0  0  0  0  0  0  0  0  0  0  0  0
   59.0390   27.4360   46.8670 C   0  0  0  0  0  0  0  0  0  0  0  0
   57.7020   27.3300   46.6460 N   0  0  0  0  0  0  0  0  0  0  0  0
   57.1400   27.7140   45.4690 C   0  0  0  0  0  0  0  0  0  0  0  0
   57.9400   28.2390   44.4390 C   0  0  0  0  0  0  0  0  0  0  0  0
   57.3600   28.6210   43.1730 N   0  0  0  0  0  0  0  0  0  0  0  0
   56.3950   29.7210   43.3350 C   0  0  0  0  0  0  0  0  0  0  0  0
   57.0190   30.9100   44.0050 C   0  0  0  0  0  0  0  0  0  0  0  0
   57.0270   31.0700   45.3550 N   0  0  0  0  0  0  0  0  0  0  0  0
   57.7300   32.2010   45.5070 C   0  0  0  0  0  0  0  0  0  0  0  0
   58.0600   32.8460   46.6960 C   0  0  0  0  0  0  0  0  0  0  0  0
   58.8220   34.0260   46.6090 C   0  0  0  0  0  0  0  0  0  0  0  0
   59.2310   34.5210   45.3490 C   0  0  0  0  0  0  0  0  0  0  0  0
   58.8800   33.8400   44.1680 C   0  0  0  0  0  0  0  0  0  0  0  0
   58.1230   32.6770   44.2940 C   0  0  0  0  0  0  0  0  0  0  0  0
   57.6890   31.8710   43.3150 N   0  0  0  0  0  0  0  0  0  0  0  0
   59.3230   28.3460   44.6540 C   0  0  0  0  0  0  0  0  0  0  0  0
   60.9577   28.0317   46.0461 H   0  0  0  0  0  0  0  0  0  0  0  0
   59.4630   27.1194   47.8314 H   0  0  0  0  0  0  0  0  0  0  0  0
   56.0545   27.6134   45.3220 H   0  0  0  0  0  0  0  0  0  0  0  0
   58.1090   28.9000   42.4940 H   0  0  0  0  0  0  0  0  0  0  0  0
   56.8620   27.7970   42.7630 H   0  0  0  0  0  0  0  0  0  0  0  0
   56.0276   30.0224   42.3429 H   0  0  0  0  0  0  0  0  0  0  0  0
   55.5695   29.3636   43.9681 H   0  0  0  0  0  0  0  0  0  0  0  0
   57.7366   32.4474   47.6689 H   0  0  0  0  0  0  0  0  0  0  0  0
   59.1009   34.5661   47.5258 H   0  0  0  0  0  0  0  0  0  0  0  0
   59.8270   35.4437   45.2914 H   0  0  0  0  0  0  0  0  0  0  0  0
   59.1921   34.2126   43.1812 H   0  0  0  0  0  0  0  0  0  0  0  0
   59.9727   28.7457   43.8614 H   0  0  0  0  0  0  0  0  0  0  0  0
  1  2  2  0
  2  3  1  0
  3  4  2  0
  4  5  1  0
  5  6  1  0
  6  7  1  0
  7  8  1  0
  8  9  2  0
  9 10  1  0
 10 11  2  0
 11 12  1  0
 12 13  2  0
 13 14  1  0
 14 15  2  0
 15 16  1  0
  5 17  2  0
 17  1  1  0
 16  8  1  0
 15 10  1  0
  1 18  1  0
  2 19  1  0
  4 20  1  0
  6 21  1  0
  6 22  1  0
  7 23  1  0
  7 24  1  0
 11 25  1  0
 12 26  1  0
 13 27  1  0
 14 28  1  0
 17 29  1  0
M  CHG  2   6   1  16  -1
M  END
>  <UniqueID>  (33) 
32

>  <SMILES>  (33) 
c1cncc([NH2+]Cc2nc3ccccc3[n-]2)c1

>  <Energy>  (33) 
66.82457618622986

>  <Genealogy>  (33) 
c1cncc([NH2+]Cc2nc3ccccc3[n-]2)c1 (protonated)
c1cncc([NH2+]Cc2nc3ccccc3[n-]2)c1 (3D coordinates assigned)
c1cncc([NH2+]Cc2nc3ccccc3[n-]2)c1 (optimized conformer: 66.82457618622986 kcal/mol)

>  <smiles>  (33) 
c1cncc(NCc2nc3ccccc3[nH]2)c1

>  <score_type>  (33) 
oracle

>  <origin>  (33) 
adg

>  <m_score__min__energy>  (33) 
-6.6900000000000004

>  <m_primary>  (33) 
energy

$$$$
33:0
     RDKit          3D

 40 43  0  0  0  0  0  0  0  0999 V2000
   59.4499   32.4922   43.6097 H   0  0  0  0  0  0  0  0  0  0  0  0
   58.4520   32.7280   44.0080 C   0  0  0  0  0  0  0  0  0  0  0  0
   58.3370   33.7550   45.0650 C   0  0  0  0  0  0  0  0  0  0  0  0
   57.3950   34.5880   44.9800 O   0  0  0  0  0  0  0  0  0  0  0  0
   59.2640   33.8390   46.2180 C   0  0  0  0  0  0  0  0  0  0  0  0
   58.8000   34.2180   47.4910 C   0  0  0  0  0  0  0  0  0  0  0  0
   57.7328   34.4408   47.6377 H   0  0  0  0  0  0  0  0  0  0  0  0
   59.6810   34.3140   48.5700 C   0  0  0  0  0  0  0  0  0  0  0  0
   59.3027   34.6012   49.5622 H   0  0  0  0  0  0  0  0  0  0  0  0
   61.0450   34.0460   48.3940 C   0  0  0  0  0  0  0  0  0  0  0  0
   61.9390   34.1390   49.4720 C   0  0  0  0  0  0  0  0  0  0  0  0
   61.5696   34.4217   50.4688 H   0  0  0  0  0  0  0  0  0  0  0  0
   63.2980   33.8730   49.2810 C   0  0  0  0  0  0  0  0  0  0  0  0
   63.9949   33.9467   50.1289 H   0  0  0  0  0  0  0  0  0  0  0  0
   63.7750   33.5140   48.0180 C   0  0  0  0  0  0  0  0  0  0  0  0
   64.8458   33.3070   47.8744 H   0  0  0  0  0  0  0  0  0  0  0  0
   62.8940   33.4170   46.9350 C   0  0  0  0  0  0  0  0  0  0  0  0
   63.2732   33.1334   45.9421 H   0  0  0  0  0  0  0  0  0  0  0  0
   61.5280   33.6810   47.1140 C   0  0  0  0  0  0  0  0  0  0  0  0
   60.6350   33.5870   46.0340 C   0  0  0  0  0  0  0  0  0  0  0  0
   61.0110   33.3142   45.0369 H   0  0  0  0  0  0  0  0  0  0  0  0
   57.3950   32.0730   43.5150 C   0  0  0  0  0  0  0  0  0  0  0  0
   56.8794   32.4761   42.6309 H   0  0  0  0  0  0  0  0  0  0  0  0
   56.9050   30.8290   44.1240 C   0  0  0  0  0  0  0  0  0  0  0  0
   55.5950   30.5670   44.3090 N   0  0  0  0  0  0  0  0  0  0  0  0
   55.5960   29.3480   44.8820 C   0  0  0  0  0  0  0  0  0  0  0  0
   54.7017   28.7866   45.1905 H   0  0  0  0  0  0  0  0  0  0  0  0
   56.9020   28.9160   45.0200 C   0  0  0  0  0  0  0  0  0  0  0  0
   57.3980   27.6520   45.6140 C   0  0  0  0  0  0  0  0  0  0  0  0
   58.7890   27.4410   45.6790 C   0  0  0  0  0  0  0  0  0  0  0  0
   59.4752   28.2060   45.2868 H   0  0  0  0  0  0  0  0  0  0  0  0
   59.3050   26.2690   46.2370 C   0  0  0  0  0  0  0  0  0  0  0  0
   60.3934   26.1183   46.2883 H   0  0  0  0  0  0  0  0  0  0  0  0
   58.4430   25.2900   46.7290 C   0  0  0  0  0  0  0  0  0  0  0  0
   58.8519   24.3710   47.1743 H   0  0  0  0  0  0  0  0  0  0  0  0
   57.0620   25.4750   46.6570 C   0  0  0  0  0  0  0  0  0  0  0  0
   56.3851   24.6985   47.0429 H   0  0  0  0  0  0  0  0  0  0  0  0
   56.5330   26.6440   46.0960 C   0  0  0  0  0  0  0  0  0  0  0  0
   55.1520   26.7720   46.0040 O   0  0  0  0  0  0  0  0  0  0  0  0
   57.6830   29.8570   44.5470 O   0  0  0  0  0  0  0  0  0  0  0  0
  1  2  1  0
  2  3  1  0
  3  4  2  0
  3  5  1  0
  5  6  2  0
  6  7  1  0
  6  8  1  0
  8  9  1  0
  8 10  2  0
 10 11  1  0
 11 12  1  0
 11 13  2  0
 13 14  1  0
 13 15  1  0
 15 16  1  0
 15 17  2  0
 17 18  1  0
 17 19  1  0
 19 20  2  0
 20 21  1  0
  2 22  2  0
 22 23  1  0
 22 24  1  0
 24 25  2  0
 25 26  1  0
 26 27  1  0
 26 28  2  0
 28 29  1  0
 29 30  2  0
 30 31  1  0
 30 32  1  0
 32 33  1  0
 32 34  2  0
 34 35  1  0
 34 36  1  0
 36 37  1  0
 36 38  2  0
 38 39  1  0
 28 40  1  0
 20  5  1  0
 40 24  1  0
 19 10  1  0
 38 29  1  0
M  CHG  1  39  -1
M  END
>  <UniqueID>  (34) 
33

>  <SMILES>  (34) 
O=C(/C=C/c1ncc(-c2ccccc2[O-])o1)c1ccc2ccccc2c1

>  <Energy>  (34) 
84.38218475780565

>  <Genealogy>  (34) 
O=C(C=Cc1ncc(-c2ccccc2[O-])o1)c1ccc2ccccc2c1 (protonated)
O=C(/C=C/c1ncc(-c2ccccc2[O-])o1)c1ccc2ccccc2c1 (cis-trans isomerization)
O=C(/C=C/c1ncc(-c2ccccc2[O-])o1)c1ccc2ccccc2c1 (3D coordinates assigned)
O=C(/C=C/c1ncc(-c2ccccc2[O-])o1)c1ccc2ccccc2c1 (optimized conformer: 84.38218475780565 kcal/mol)

>  <smiles>  (34) 
O=C(C=Cc1ncc(-c2ccccc2O)o1)c1ccc2ccccc2c1

>  <score_type>  (34) 
oracle

>  <origin>  (34) 
adg

>  <m_score__min__energy>  (34) 
-13.51

>  <m_primary>  (34) 
energy

$$$$
34:0
     RDKit          3D

 27 28  0  0  0  0  0  0  0  0999 V2000
   58.9480   25.7670   46.4410 C   0  0  0  0  0  0  0  0  0  0  0  0
   57.5240   26.0690   46.3000 N   0  0  0  0  0  0  0  0  0  0  0  0
   56.9520   27.2120   45.8640 C   0  0  0  0  0  0  0  0  0  0  0  0
   57.6910   28.4560   45.4810 C   0  0  0  0  0  0  0  0  0  0  0  0
   56.6960   29.4090   44.2890 S   0  0  0  0  0  0  0  0  0  0  0  0
   57.4690   30.9710   44.7140 C   0  0  0  0  0  0  0  0  0  0  0  0
   57.7740   31.2200   46.0150 N   0  0  0  0  0  0  0  0  0  0  0  0
   58.3590   32.3810   46.4110 C   0  0  0  0  0  0  0  0  0  0  0  0
   58.6530   33.3810   45.4700 C   0  0  0  0  0  0  0  0  0  0  0  0
   59.3500   34.6510   45.8890 C   0  0  0  0  0  0  0  0  0  0  0  0
   58.8570   35.1000   47.1020 F   0  0  0  0  0  0  0  0  0  0  0  0
   59.1390   35.6240   44.9300 F   0  0  0  0  0  0  0  0  0  0  0  0
   60.7110   34.4400   46.0260 F   0  0  0  0  0  0  0  0  0  0  0  0
   58.3700   33.1310   44.1190 C   0  0  0  0  0  0  0  0  0  0  0  0
   57.7660   31.9310   43.7340 C   0  0  0  0  0  0  0  0  0  0  0  0
   57.4070   31.6580   42.0340 Cl  0  0  0  0  0  0  0  0  0  0  0  0
   55.6180   27.0740   45.7280 N   0  0  0  0  0  0  0  0  0  0  0  0
   55.3180   25.8300   46.0740 N   0  0  0  0  0  0  0  0  0  0  0  0
   56.4750   25.2290   46.4080 C   0  0  0  0  0  0  0  0  0  0  0  0
   56.5720   23.6540   46.8440 S   0  0  0  0  0  0  0  0  0  0  0  0
   59.2072   25.7120   47.5086 H   0  0  0  0  0  0  0  0  0  0  0  0
   59.1676   24.8023   45.9602 H   0  0  0  0  0  0  0  0  0  0  0  0
   59.5403   26.5595   45.9602 H   0  0  0  0  0  0  0  0  0  0  0  0
   57.8722   29.0660   46.3782 H   0  0  0  0  0  0  0  0  0  0  0  0
   58.6533   28.1849   45.0222 H   0  0  0  0  0  0  0  0  0  0  0  0
   58.6030   32.5379   47.4721 H   0  0  0  0  0  0  0  0  0  0  0  0
   58.6249   33.8837   43.3584 H   0  0  0  0  0  0  0  0  0  0  0  0
  1  2  1  0
  2  3  1  0
  3  4  1  0
  4  5  1  0
  5  6  1  0
  6  7  2  0
  7  8  1  0
  8  9  2  0
  9 10  1  0
 10 11  1  0
 10 12  1  0
 10 13  1  0
  9 14  1  0
 14 15  2  0
 15 16  1  0
  3 17  2  0
 17 18  1  0
 18 19  1  0
 19 20  2  0
 19  2  1  0
 15  6  1  0
  1 21  1  0
  1 22  1  0
  1 23  1  0
  4 24  1  0
  4 25  1  0
  8 26  1  0
 14 27  1  0
M  CHG  1  18  -1
M  END
>  <UniqueID>  (35) 
34

>  <SMILES>  (35) 
Cn1c(CSc2ncc(C(F)(F)F)cc2Cl)n[n-]c1=S

>  <Energy>  (35) 
59.36694900323774

>  <Genealogy>  (35) 
Cn1c(CSc2ncc(C(F)(F)F)cc2Cl)n[n-]c1=S (protonated)
Cn1c(CSc2ncc(C(F)(F)F)cc2Cl)n[n-]c1=S (3D coordinates assigned)
Cn1c(CSc2ncc(C(F)(F)F)cc2Cl)n[n-]c1=S (optimized conformer: 59.36694900323774 kcal/mol)

>  <smiles>  (35) 
Cn1c(CSc2ncc(C(F)(F)F)cc2Cl)n[nH]c1=S

>  <score_type>  (35) 
oracle

>  <origin>  (35) 
adg

>  <m_score__min__energy>  (35) 
-8.9800000000000004

>  <m_primary>  (35) 
energy

$$$$
35:0
     RDKit          3D

 37 39  0  0  0  0  0  0  0  0999 V2000
   58.1110   30.2200   47.2240 O   0  0  0  0  0  0  0  0  0  0  0  0
   58.6750   29.6310   46.2610 C   0  0  0  0  0  0  0  0  0  0  0  0
   59.4990   30.4520   45.3140 C   0  0  0  0  0  0  0  0  0  0  0  0
   58.5120   31.8580   44.7050 S   0  0  0  0  0  0  0  0  0  0  0  0
   57.1880   30.8140   44.1060 C   0  0  0  0  0  0  0  0  0  0  0  0
   56.8540   30.5680   42.7960 C   0  0  0  0  0  0  0  0  0  0  0  0
   55.7980   29.7310   42.8030 N   0  0  0  0  0  0  0  0  0  0  0  0
   55.5060   29.4790   44.0740 N   0  0  0  0  0  0  0  0  0  0  0  0
   56.3350   30.1250   44.8770 N   0  0  0  0  0  0  0  0  0  0  0  0
   58.4980   28.2060   46.0940 N   0  0  0  0  0  0  0  0  0  0  0  0
   58.0180   27.4230   47.2460 C   0  0  0  0  0  0  0  0  0  0  0  0
   58.1460   25.9180   46.9990 C   0  0  0  0  0  0  0  0  0  0  0  0
   57.5780   25.5780   45.6920 N   0  0  0  0  0  0  0  0  0  0  0  0
   56.5630   24.5660   45.5960 C   0  0  0  0  0  0  0  0  0  0  0  0
   55.5820   24.5930   46.3870 O   0  0  0  0  0  0  0  0  0  0  0  0
   56.6450   23.4940   44.5900 C   0  0  0  0  0  0  0  0  0  0  0  0
   55.9710   23.4490   43.3740 C   0  0  0  0  0  0  0  0  0  0  0  0
   56.2890   22.3200   42.6080 C   0  0  0  0  0  0  0  0  0  0  0  0
   57.2170   21.4810   43.2100 C   0  0  0  0  0  0  0  0  0  0  0  0
   57.6470   22.1470   44.6920 S   0  0  0  0  0  0  0  0  0  0  0  0
   57.8960   26.3980   44.5150 C   0  0  0  0  0  0  0  0  0  0  0  0
   58.8900   27.5180   44.8510 C   0  0  0  0  0  0  0  0  0  0  0  0
   60.3901   30.8296   45.8369 H   0  0  0  0  0  0  0  0  0  0  0  0
   59.8083   29.8272   44.4631 H   0  0  0  0  0  0  0  0  0  0  0  0
   57.3554   30.9781   41.9069 H   0  0  0  0  0  0  0  0  0  0  0  0
   56.3100   30.0910   45.9190 H   0  0  0  0  0  0  0  0  0  0  0  0
   58.6125   27.6909   48.1319 H   0  0  0  0  0  0  0  0  0  0  0  0
   56.9542   27.6563   47.4005 H   0  0  0  0  0  0  0  0  0  0  0  0
   59.2084   25.6338   47.0203 H   0  0  0  0  0  0  0  0  0  0  0  0
   57.6003   25.3741   47.7841 H   0  0  0  0  0  0  0  0  0  0  0  0
   55.2600   24.2220   43.0469 H   0  0  0  0  0  0  0  0  0  0  0  0
   55.8451   22.1173   41.6222 H   0  0  0  0  0  0  0  0  0  0  0  0
   57.6044   20.5414   42.7892 H   0  0  0  0  0  0  0  0  0  0  0  0
   58.3355   25.7528   43.7400 H   0  0  0  0  0  0  0  0  0  0  0  0
   56.9642   26.8633   44.1612 H   0  0  0  0  0  0  0  0  0  0  0  0
   59.8929   27.0845   44.9789 H   0  0  0  0  0  0  0  0  0  0  0  0
   58.8922   28.2479   44.0281 H   0  0  0  0  0  0  0  0  0  0  0  0
  1  2  2  0
  2  3  1  0
  3  4  1  0
  4  5  1  0
  5  6  2  0
  6  7  1  0
  7  8  1  0
  8  9  2  0
  2 10  1  0
 10 11  1  0
 11 12  1  0
 12 13  1  0
 13 14  1  0
 14 15  2  0
 14 16  1  0
 16 17  2  0
 17 18  1  0
 18 19  2  0
 19 20  1  0
 13 21  1  0
 21 22  1  0
  9  5  1  0
 22 10  1  0
 20 16  1  0
  3 23  1  0
  3 24  1  0
  6 25  1  0
  9 26  1  0
 11 27  1  0
 11 28  1  0
 12 29  1  0
 12 30  1  0
 17 31  1  0
 18 32  1  0
 19 33  1  0
 21 34  1  0
 21 35  1  0
 22 36  1  0
 22 37  1  0
M  CHG  2   7  -1   9   1
M  END
>  <UniqueID>  (36) 
35

>  <SMILES>  (36) 
O=C(CSc1c[n-]n[nH+]1)N1CCN(C(=O)c2cccs2)CC1

>  <Energy>  (36) 
99.19867094100626

>  <Genealogy>  (36) 
O=C(CSc1c[n-]n[nH+]1)N1CCN(C(=O)c2cccs2)CC1 (protonated)
O=C(CSc1c[n-]n[nH+]1)N1CCN(C(=O)c2cccs2)CC1 (3D coordinates assigned)
O=C(CSc1c[n-]n[nH+]1)N1CCN(C(=O)c2cccs2)CC1 (nonaromatic ring conformer: 99.19867094100626 kcal/mol)

>  <smiles>  (36) 
O=C(CSc1c[nH]nn1)N1CCN(C(=O)c2cccs2)CC1

>  <score_type>  (36) 
oracle

>  <origin>  (36) 
adg

>  <m_score__min__energy>  (36) 
-9.1500000000000004

>  <m_primary>  (36) 
energy

$$$$
36:0
     RDKit          3D

 44 46  0  0  0  0  0  0  0  0999 V2000
   57.4470   28.9210   43.8170 C   0  0  0  0  0  0  0  0  0  0  0  0
   57.8660   29.5610   45.0150 O   0  0  0  0  0  0  0  0  0  0  0  0
   57.7720   30.9430   45.2020 C   0  0  0  0  0  0  0  0  0  0  0  0
   56.7140   31.5550   44.8910 O   0  0  0  0  0  0  0  0  0  0  0  0
   58.9150   31.6720   45.8110 C   0  0  0  0  0  0  0  0  0  0  0  0
   59.8920   31.0300   46.5430 C   0  0  0  0  0  0  0  0  0  0  0  0
   59.6920   29.6260   46.9460 N   0  0  0  0  0  0  0  0  0  0  0  0
   59.9190   29.3750   48.3950 C   0  0  0  0  0  0  0  0  0  0  0  0
   60.0220   27.8660   48.7320 C   0  0  0  0  0  0  0  0  0  0  0  0
   59.3230   26.9870   47.6850 C   0  0  0  0  0  0  0  0  0  0  0  0
   59.8690   27.2420   46.2640 C   0  0  0  0  0  0  0  0  0  0  0  0
   60.4380   28.6660   46.0990 C   0  0  0  0  0  0  0  0  0  0  0  0
   61.1040   31.8180   47.0270 C   0  0  0  0  0  0  0  0  0  0  0  0
   62.3870   31.2330   47.1130 C   0  0  0  0  0  0  0  0  0  0  0  0
   63.4720   31.9400   47.6410 C   0  0  0  0  0  0  0  0  0  0  0  0
   63.3100   33.2550   48.0730 C   0  0  0  0  0  0  0  0  0  0  0  0
   62.0720   33.8780   47.9420 C   0  0  0  0  0  0  0  0  0  0  0  0
   60.9850   33.1740   47.4080 C   0  0  0  0  0  0  0  0  0  0  0  0
   59.5150   34.0150   47.0310 S   0  0  0  0  0  0  0  0  0  0  0  0
   59.8040   35.4320   46.6210 O   0  0  0  0  0  0  0  0  0  0  0  0
   58.5550   33.9840   48.1860 O   0  0  0  0  0  0  0  0  0  0  0  0
   58.9000   33.1110   45.7020 N   0  0  0  0  0  0  0  0  0  0  0  0
   58.2320   33.8100   44.6030 C   0  0  0  0  0  0  0  0  0  0  0  0
   56.8601   28.0246   44.0661 H   0  0  0  0  0  0  0  0  0  0  0  0
   56.8269   29.6135   43.2289 H   0  0  0  0  0  0  0  0  0  0  0  0
   58.3297   28.6296   43.2289 H   0  0  0  0  0  0  0  0  0  0  0  0
   58.6770   29.4070   46.8270 H   0  0  0  0  0  0  0  0  0  0  0  0
   60.8559   29.8672   48.6948 H   0  0  0  0  0  0  0  0  0  0  0  0
   59.0541   29.7790   48.9415 H   0  0  0  0  0  0  0  0  0  0  0  0
   61.0846   27.5852   48.7773 H   0  0  0  0  0  0  0  0  0  0  0  0
   59.5220   27.7016   49.6979 H   0  0  0  0  0  0  0  0  0  0  0  0
   59.4835   25.9299   47.9435 H   0  0  0  0  0  0  0  0  0  0  0  0
   58.2519   27.2374   47.6892 H   0  0  0  0  0  0  0  0  0  0  0  0
   60.6691   26.5159   46.0575 H   0  0  0  0  0  0  0  0  0  0  0  0
   59.0322   27.1316   45.5586 H   0  0  0  0  0  0  0  0  0  0  0  0
   61.4972   28.6689   46.3958 H   0  0  0  0  0  0  0  0  0  0  0  0
   60.3375   28.9687   45.0463 H   0  0  0  0  0  0  0  0  0  0  0  0
   62.5353   30.2024   46.7581 H   0  0  0  0  0  0  0  0  0  0  0  0
   64.4571   31.4562   47.7156 H   0  0  0  0  0  0  0  0  0  0  0  0
   64.1574   33.7988   48.5160 H   0  0  0  0  0  0  0  0  0  0  0  0
   61.9472   34.9242   48.2581 H   0  0  0  0  0  0  0  0  0  0  0  0
   57.5267   34.5480   45.0127 H   0  0  0  0  0  0  0  0  0  0  0  0
   58.9830   34.3242   43.9852 H   0  0  0  0  0  0  0  0  0  0  0  0
   57.6843   33.0831   43.9852 H   0  0  0  0  0  0  0  0  0  0  0  0
  1  2  1  0
  2  3  1  0
  3  4  2  0
  3  5  1  0
  5  6  2  0
  6  7  1  0
  7  8  1  0
  8  9  1  0
  9 10  1  0
 10 11  1  0
 11 12  1  0
  6 13  1  0
 13 14  2  0
 14 15  1  0
 15 16  2  0
 16 17  1  0
 17 18  2  0
 18 19  1  0
 19 20  2  0
 19 21  2  0
 19 22  1  0
 22 23  1  0
 22  5  1  0
 12  7  1  0
 18 13  1  0
  1 24  1  0
  1 25  1  0
  1 26  1  0
  7 27  1  0
  8 28  1  0
  8 29  1  0
  9 30  1  0
  9 31  1  0
 10 32  1  0
 10 33  1  0
 11 34  1  0
 11 35  1  0
 12 36  1  0
 12 37  1  0
 14 38  1  0
 15 39  1  0
 16 40  1  0
 17 41  1  0
 23 42  1  0
 23 43  1  0
 23 44  1  0
M  CHG  1   7   1
M  END
>  <UniqueID>  (37) 
36

>  <SMILES>  (37) 
COC(=O)C1=C([NH+]2CCCCC2)c2ccccc2S(=O)(=O)N1C

>  <Energy>  (37) 
80.28782755115985

>  <Genealogy>  (37) 
COC(=O)C1=C([NH+]2CCCCC2)c2ccccc2S(=O)(=O)N1C (protonated)
COC(=O)C1=C([NH+]2CCCCC2)c2ccccc2S(=O)(=O)N1C (3D coordinates assigned)
COC(=O)C1=C([NH+]2CCCCC2)c2ccccc2S(=O)(=O)N1C (nonaromatic ring conformer: 80.28782755115985 kcal/mol)

>  <smiles>  (37) 
COC(=O)C1=C(N2CCCCC2)c2ccccc2S(=O)(=O)N1C

>  <score_type>  (37) 
oracle

>  <origin>  (37) 
adg

>  <m_score__min__energy>  (37) 
-5.9900000000000002

>  <m_primary>  (37) 
energy

$$$$
37:0
     RDKit          3D

 32 33  0  0  0  0  0  0  0  0999 V2000
   56.9117   20.1865   42.5068 H   0  0  0  0  0  0  0  0  0  0  0  0
   57.0160   21.1730   42.9820 C   0  0  0  0  0  0  0  0  0  0  0  0
   56.0500   22.1150   42.8260 N   0  0  0  0  0  0  0  0  0  0  0  0
   56.1570   23.3400   43.4060 C   0  0  0  0  0  0  0  0  0  0  0  0
   55.3631   24.0889   43.2685 H   0  0  0  0  0  0  0  0  0  0  0  0
   57.2880   23.6430   44.1820 C   0  0  0  0  0  0  0  0  0  0  0  0
   57.4450   24.9630   44.8290 C   0  0  0  0  0  0  0  0  0  0  0  0
   57.5390   25.0360   46.0860 O   0  0  0  0  0  0  0  0  0  0  0  0
   57.4920   26.1640   44.0400 N   0  0  0  0  0  0  0  0  0  0  0  0
   57.4580   26.0870   42.9980 H   0  0  0  0  0  0  0  0  0  0  0  0
   57.6710   27.4860   44.6500 C   0  0  1  0  0  0  0  0  0  0  0  0
   57.9435   28.2002   43.8590 H   0  0  0  0  0  0  0  0  0  0  0  0
   56.3890   27.9190   45.3000 C   0  0  0  0  0  0  0  0  0  0  0  0
   55.7160   27.0840   45.9650 O   0  0  0  0  0  0  0  0  0  0  0  0
   55.9680   29.2880   45.1740 N   0  0  0  0  0  0  0  0  0  0  0  0
   56.5050   30.2190   44.4410 C   0  0  0  0  0  0  0  0  0  0  0  0
   57.0460   31.3290   44.9840 N   0  0  0  0  0  0  0  0  0  0  0  0
   57.5520   32.1620   44.0350 C   0  0  0  0  0  0  0  0  0  0  0  0
   58.0329   33.1188   44.2866 H   0  0  0  0  0  0  0  0  0  0  0  0
   57.4180   31.7180   42.7250 C   0  0  0  0  0  0  0  0  0  0  0  0
   57.7616   32.2477   41.8242 H   0  0  0  0  0  0  0  0  0  0  0  0
   56.6380   30.2280   42.7590 S   0  0  0  0  0  0  0  0  0  0  0  0
   58.8070   27.4670   45.6900 C   0  0  0  0  0  0  0  0  0  0  0  0
   59.1611   26.4326   45.8106 H   0  0  0  0  0  0  0  0  0  0  0  0
   58.4092   27.8635   46.6358 H   0  0  0  0  0  0  0  0  0  0  0  0
   59.9830   28.3450   45.2670 C   0  0  0  0  0  0  0  0  0  0  0  0
   60.4955   28.7276   46.1620 H   0  0  0  0  0  0  0  0  0  0  0  0
   60.6876   27.7502   44.6672 H   0  0  0  0  0  0  0  0  0  0  0  0
   59.6129   29.1896   44.6672 H   0  0  0  0  0  0  0  0  0  0  0  0
   58.2520   22.6920   44.3320 N   0  0  0  0  0  0  0  0  0  0  0  0
   58.1420   21.4690   43.7510 C   0  0  0  0  0  0  0  0  0  0  0  0
   58.9343   20.7180   43.8857 H   0  0  0  0  0  0  0  0  0  0  0  0
  1  2  1  0
  2  3  2  0
  3  4  1  0
  4  5  1  0
  4  6  2  0
  6  7  1  0
  7  8  2  0
  7  9  1  0
  9 10  1  0
  9 11  1  0
 11 12  1  6
 11 13  1  0
 13 14  2  0
 13 15  1  0
 15 16  2  0
 16 17  1  0
 17 18  1  0
 18 19  1  0
 18 20  2  0
 20 21  1  0
 20 22  1  0
 11 23  1  0
 23 24  1  0
 23 25  1  0
 23 26  1  0
 26 27  1  0
 26 28  1  0
 26 29  1  0
  6 30  1  0
 30 31  2  0
 31 32  1  0
 31  2  1  0
 22 16  1  0
M  CHG  1  17  -1
M  END
>  <UniqueID>  (38) 
37

>  <SMILES>  (38) 
CC[C@@H](NC(=O)c1cnccn1)C(=O)/N=c1/[n-]ccs1

>  <Energy>  (38) 
61.684681643598424

>  <Genealogy>  (38) 
CCC(NC(=O)c1cnccn1)C(=O)N=c1[n-]ccs1 (protonated)
CC[C@@H](NC(=O)c1cnccn1)C(=O)N=c1[n-]ccs1 (chirality)
CC[C@@H](NC(=O)c1cnccn1)C(=O)/N=c1/[n-]ccs1 (cis-trans isomerization)
CC[C@@H](NC(=O)c1cnccn1)C(=O)/N=c1/[n-]ccs1 (3D coordinates assigned)
CC[C@@H](NC(=O)c1cnccn1)C(=O)/N=c1/[n-]ccs1 (optimized conformer: 61.684681643598424 kcal/mol)

>  <smiles>  (38) 
CCC(NC(=O)c1cnccn1)C(=O)N=c1[nH]ccs1

>  <score_type>  (38) 
oracle

>  <origin>  (38) 
adg

>  <m_score__min__energy>  (38) 
-9.0099999999999998

>  <m_primary>  (38) 
energy

$$$$
38:0
     RDKit          3D

 49 53  0  0  1  0  0  0  0  0999 V2000
   56.2660   30.2340   42.6990 O   0  0  0  0  0  0  0  0  0  0  0  0
   56.8010   29.7310   44.0090 S   0  0  0  0  0  0  0  0  0  0  0  0
   55.5960   29.6270   44.9560 O   0  0  0  0  0  0  0  0  0  0  0  0
   57.4840   28.1850   43.9630 N   0  0  0  0  0  0  0  0  0  0  0  0
   57.8820   27.5590   45.0030 C   0  0  0  0  0  0  0  0  0  0  0  0
   59.2140   27.3540   45.2810 C   0  0  0  0  0  0  0  0  0  0  0  0
   59.6700   26.6840   46.3950 C   0  0  0  0  0  0  0  0  0  0  0  0
   58.7100   26.2160   47.2400 N   0  0  0  0  0  0  0  0  0  0  0  0
   57.4030   26.4150   46.9690 C   0  0  0  0  0  0  0  0  0  0  0  0
   56.9690   27.0720   45.8800 N   0  0  0  0  0  0  0  0  0  0  0  0
   57.8430   30.9320   44.7390 C   0  0  0  0  0  0  0  0  0  0  0  0
   58.8560   30.5310   45.6150 C   0  0  0  0  0  0  0  0  0  0  0  0
   59.7000   31.4350   46.2220 C   0  0  0  0  0  0  0  0  0  0  0  0
   59.5720   32.7820   45.9800 C   0  0  0  0  0  0  0  0  0  0  0  0
   60.4130   33.6520   46.6000 C   0  0  0  0  0  0  0  0  0  0  0  0
   61.4740   33.3010   47.5200 C   0  0  0  0  0  0  0  0  0  0  0  0
   62.7710   33.3500   47.0600 C   0  0  0  0  0  0  0  0  0  0  0  0
   63.8530   33.0030   47.8680 C   0  0  0  0  0  0  0  0  0  0  0  0
   63.6690   32.5880   49.1850 C   0  0  0  0  0  0  0  0  0  0  0  0
   64.8380   32.2470   49.9540 C   0  0  0  0  0  0  0  0  0  0  0  0
   64.9620   31.2240   50.8450 C   0  0  0  0  0  0  0  0  0  0  0  0
   66.1430   30.9640   51.5530 C   0  0  0  0  0  0  0  0  0  0  0  0
   67.2300   31.7850   51.3360 C   0  0  0  0  0  0  0  0  0  0  0  0
   67.0770   32.8030   50.4360 C   0  0  0  0  0  0  0  0  0  0  0  0
   65.9400   33.0270   49.7760 N   0  0  0  0  0  0  0  0  0  0  0  0
   62.3720   32.5450   49.6250 C   0  0  0  0  0  0  0  0  0  0  0  0
   62.0780   32.1590   50.8800 F   0  0  0  0  0  0  0  0  0  0  0  0
   61.2850   32.8920   48.8180 C   0  0  0  0  0  0  0  0  0  0  0  0
   60.2370   34.9740   46.3420 N   0  0  0  0  0  0  0  0  0  0  0  0
   59.2810   35.4210   45.5100 C   0  0  0  0  0  0  0  0  0  0  0  0
   58.4270   34.5390   44.8770 C   0  0  0  0  0  0  0  0  0  0  0  0
   58.5850   33.1920   45.1240 C   0  0  0  0  0  0  0  0  0  0  0  0
   57.7370   32.2770   44.5150 C   0  0  0  0  0  0  0  0  0  0  0  0
   59.9577   27.7479   44.5727 H   0  0  0  0  0  0  0  0  0  0  0  0
   60.7425   26.5363   46.5898 H   0  0  0  0  0  0  0  0  0  0  0  0
   59.0010   25.7100   48.0830 H   0  0  0  0  0  0  0  0  0  0  0  0
   56.6565   26.0202   47.6739 H   0  0  0  0  0  0  0  0  0  0  0  0
   58.9833   29.4590   45.8265 H   0  0  0  0  0  0  0  0  0  0  0  0
   60.4829   31.0758   46.9061 H   0  0  0  0  0  0  0  0  0  0  0  0
   62.9589   33.6722   46.0252 H   0  0  0  0  0  0  0  0  0  0  0  0
   64.8720   33.0580   47.4574 H   0  0  0  0  0  0  0  0  0  0  0  0
   64.0937   30.5709   51.0169 H   0  0  0  0  0  0  0  0  0  0  0  0
   66.2017   30.1265   52.2637 H   0  0  0  0  0  0  0  0  0  0  0  0
   68.1812   31.6272   51.8654 H   0  0  0  0  0  0  0  0  0  0  0  0
   67.9322   33.4687   50.2475 H   0  0  0  0  0  0  0  0  0  0  0  0
   60.2654   32.8370   49.2271 H   0  0  0  0  0  0  0  0  0  0  0  0
   59.1774   36.5014   45.3311 H   0  0  0  0  0  0  0  0  0  0  0  0
   57.6433   34.9011   44.1953 H   0  0  0  0  0  0  0  0  0  0  0  0
   56.9568   32.6446   43.8322 H   0  0  0  0  0  0  0  0  0  0  0  0
  1  2  2  0
  2  3  2  0
  2  4  1  0
  4  5  2  0
  5  6  1  0
  6  7  2  0
  7  8  1  0
  8  9  1  0
  9 10  2  0
  2 11  1  0
 11 12  2  0
 12 13  1  0
 13 14  2  0
 14 15  1  0
 15 16  1  0
 16 17  2  0
 17 18  1  0
 18 19  2  0
 19 20  1  0
 20 21  2  0
 21 22  1  0
 22 23  2  0
 23 24  1  0
 24 25  2  0
 19 26  1  0
 26 27  1  0
 26 28  2  0
 15 29  2  0
 29 30  1  0
 30 31  2  0
 31 32  1  0
 32 33  2  0
 10  5  1  0
 33 11  1  0
 32 14  1  0
 28 16  1  0
 25 20  1  0
  6 34  1  0
  7 35  1  0
  8 36  1  0
  9 37  1  0
 12 38  1  0
 13 39  1  0
 17 40  1  0
 18 41  1  0
 21 42  1  0
 22 43  1  0
 23 44  1  0
 24 45  1  0
 28 46  1  0
 30 47  1  0
 31 48  1  0
 33 49  1  0
M  END
>  <smiles>  (39) 
O=S(=O)(N=c1cc[nH]cn1)c1ccc2c(-c3ccc(-c4ccccn4)c(F)c3)nccc2c1

>  <score_type>  (39) 
oracle

>  <origin>  (39) 
adg

>  <m_score__min__energy>  (39) 
-10.609999999999999

>  <m_primary>  (39) 
energy

$$$$
39:0
     RDKit          3D

 38 41  0  0  1  0  0  0  0  0999 V2000
   59.2930   34.5790   47.6770 C   0  0  0  0  0  0  0  0  0  0  0  0
   59.4560   34.1290   46.3460 O   0  0  0  0  0  0  0  0  0  0  0  0
   59.0560   32.8330   46.0630 C   0  0  0  0  0  0  0  0  0  0  0  0
   57.8780   32.6450   45.4070 C   0  0  0  0  0  0  0  0  0  0  0  0
   57.4970   31.3640   45.1360 C   0  0  0  0  0  0  0  0  0  0  0  0
   56.3360   31.1870   44.4890 N   0  0  0  0  0  0  0  0  0  0  0  0
   55.8870   29.9610   44.1810 C   0  0  0  0  0  0  0  0  0  0  0  0
   56.6390   28.9180   44.5420 N   0  0  0  0  0  0  0  0  0  0  0  0
   57.8300   29.0570   45.2030 C   0  0  0  0  0  0  0  0  0  0  0  0
   58.4530   28.0510   45.4940 N   0  0  0  0  0  0  0  0  0  0  0  0
   58.2020   26.6500   45.2410 C   0  0  0  0  0  0  0  0  0  0  0  0
   57.4240   26.0110   44.4410 N   0  0  0  0  0  0  0  0  0  0  0  0
   57.4490   24.7130   44.3170 C   0  0  0  0  0  0  0  0  0  0  0  0
   56.6510   23.9100   43.4790 C   0  0  0  0  0  0  0  0  0  0  0  0
   56.8120   22.5650   43.4780 C   0  0  0  0  0  0  0  0  0  0  0  0
   57.7200   21.8680   44.2490 C   0  0  0  0  0  0  0  0  0  0  0  0
   58.5170   22.6500   45.0840 C   0  0  0  0  0  0  0  0  0  0  0  0
   58.3680   24.0330   45.1010 C   0  0  0  0  0  0  0  0  0  0  0  0
   59.1900   25.3180   46.0160 S   0  0  0  0  0  0  0  0  0  0  0  0
   58.2810   30.3100   45.5130 C   0  0  0  0  0  0  0  0  0  0  0  0
   59.4580   30.5270   46.1690 C   0  0  0  0  0  0  0  0  0  0  0  0
   59.9040   31.8350   46.4780 C   0  0  0  0  0  0  0  0  0  0  0  0
   61.0040   32.0460   47.0920 O   0  0  0  0  0  0  0  0  0  0  0  0
   62.1210   32.2500   47.7240 C   0  0  0  0  0  0  0  0  0  0  0  0
   59.5831   33.7781   48.3730 H   0  0  0  0  0  0  0  0  0  0  0  0
   59.9290   35.4603   47.8466 H   0  0  0  0  0  0  0  0  0  0  0  0
   58.2401   34.8486   47.8466 H   0  0  0  0  0  0  0  0  0  0  0  0
   57.2536   33.4989   45.1053 H   0  0  0  0  0  0  0  0  0  0  0  0
   54.9339   29.8198   43.6503 H   0  0  0  0  0  0  0  0  0  0  0  0
   56.3000   27.9600   44.3080 H   0  0  0  0  0  0  0  0  0  0  0  0
   55.8977   24.3747   42.8259 H   0  0  0  0  0  0  0  0  0  0  0  0
   56.1656   21.9800   42.8072 H   0  0  0  0  0  0  0  0  0  0  0  0
   57.8087   20.7724   44.2076 H   0  0  0  0  0  0  0  0  0  0  0  0
   59.2664   22.1716   45.7317 H   0  0  0  0  0  0  0  0  0  0  0  0
   60.0747   29.6655   46.4647 H   0  0  0  0  0  0  0  0  0  0  0  0
   61.9400   32.2169   48.8085 H   0  0  0  0  0  0  0  0  0  0  0  0
   62.8456   31.4693   47.4492 H   0  0  0  0  0  0  0  0  0  0  0  0
   62.5229   33.2364   47.4492 H   0  0  0  0  0  0  0  0  0  0  0  0
  1  2  1  0
  2  3  1  0
  3  4  2  0
  4  5  1  0
  5  6  1  0
  6  7  2  0
  7  8  1  0
  8  9  1  0
  9 10  2  0
 10 11  1  0
 11 12  2  0
 12 13  1  0
 13 14  2  0
 14 15  1  0
 15 16  2  0
 16 17  1  0
 17 18  2  0
 18 19  1  0
  9 20  1  0
 20 21  1  0
 21 22  2  0
 22 23  1  0
 23 24  1  0
 22  3  1  0
 20  5  2  0
 19 11  1  0
 18 13  1  0
  1 25  1  0
  1 26  1  0
  1 27  1  0
  4 28  1  0
  7 29  1  0
  8 30  1  0
 14 31  1  0
 15 32  1  0
 16 33  1  0
 17 34  1  0
 21 35  1  0
 24 36  1  0
 24 37  1  0
 24 38  1  0
M  END
>  <smiles>  (40) 
COc1cc2nc[nH]c(=Nc3nc4ccccc4s3)c2cc1OC

>  <score_type>  (40) 
oracle

>  <origin>  (40) 
adg

>  <m_score__min__energy>  (40) 
-6.8700000000000001

>  <m_primary>  (40) 
energy

$$$$
40:0
     RDKit          3D

 37 39  0  0  0  0  0  0  0  0999 V2000
   64.6950   31.9660   50.1280 C   0  0  0  0  0  0  0  0  0  0  0  0
   64.7580   33.0780   49.0860 C   0  0  0  0  0  0  0  0  0  0  0  0
   63.3980   33.3350   48.4980 C   0  0  0  0  0  0  0  0  0  0  0  0
   62.3430   33.7650   49.3150 C   0  0  0  0  0  0  0  0  0  0  0  0
   61.0880   34.0340   48.7650 C   0  0  0  0  0  0  0  0  0  0  0  0
   60.8570   33.8790   47.3840 C   0  0  0  0  0  0  0  0  0  0  0  0
   59.4830   34.2130   46.8030 C   0  0  1  0  0  0  0  0  0  0  0  0
   58.9070   35.3410   47.4180 O   0  0  0  0  0  0  0  0  0  0  0  0
   59.5360   34.4120   45.2440 C   0  0  0  0  0  0  0  0  0  0  0  0
   58.7190   33.3310   44.7120 N   0  0  0  0  0  0  0  0  0  0  0  0
   58.4650   33.0410   43.4110 C   0  0  0  0  0  0  0  0  0  0  0  0
   57.6360   31.9510   43.1190 C   0  0  0  0  0  0  0  0  0  0  0  0
   57.1020   31.2060   44.1850 C   0  0  0  0  0  0  0  0  0  0  0  0
   57.3920   31.5460   45.4730 N   0  0  0  0  0  0  0  0  0  0  0  0
   58.1990   32.6110   45.7120 C   0  0  0  0  0  0  0  0  0  0  0  0
   58.5860   33.0660   46.9890 N   0  0  0  0  0  0  0  0  0  0  0  0
   58.1580   32.4950   48.2620 C   0  0  0  0  0  0  0  0  0  0  0  0
   61.9310   33.4770   46.5650 C   0  0  0  0  0  0  0  0  0  0  0  0
   63.1870   33.2070   47.1180 C   0  0  0  0  0  0  0  0  0  0  0  0
   64.7199   32.4061   51.1358 H   0  0  0  0  0  0  0  0  0  0  0  0
   63.7631   31.3958   49.9998 H   0  0  0  0  0  0  0  0  0  0  0  0
   65.5565   31.2942   49.9998 H   0  0  0  0  0  0  0  0  0  0  0  0
   65.1249   33.9989   49.5628 H   0  0  0  0  0  0  0  0  0  0  0  0
   65.4385   32.7678   48.2794 H   0  0  0  0  0  0  0  0  0  0  0  0
   62.5048   33.8912   50.3957 H   0  0  0  0  0  0  0  0  0  0  0  0
   60.2696   34.3711   49.4182 H   0  0  0  0  0  0  0  0  0  0  0  0
   59.4400   36.1340   47.1460 H   0  0  0  0  0  0  0  0  0  0  0  0
   59.1187   35.3900   44.9622 H   0  0  0  0  0  0  0  0  0  0  0  0
   60.5642   34.3910   44.8538 H   0  0  0  0  0  0  0  0  0  0  0  0
   58.9005   33.6485   42.6040 H   0  0  0  0  0  0  0  0  0  0  0  0
   57.4073   31.6831   42.0769 H   0  0  0  0  0  0  0  0  0  0  0  0
   56.4480   30.3458   43.9791 H   0  0  0  0  0  0  0  0  0  0  0  0
   58.5931   33.0754   49.0890 H   0  0  0  0  0  0  0  0  0  0  0  0
   57.0605   32.5283   48.3283 H   0  0  0  0  0  0  0  0  0  0  0  0
   58.4978   31.4509   48.3283 H   0  0  0  0  0  0  0  0  0  0  0  0
   61.7801   33.3746   45.4802 H   0  0  0  0  0  0  0  0  0  0  0  0
   64.0148   32.8921   46.4657 H   0  0  0  0  0  0  0  0  0  0  0  0
  1  2  1  0
  2  3  1  0
  3  4  2  0
  4  5  1  0
  5  6  2  0
  6  7  1  0
  7  8  1  1
  7  9  1  0
  9 10  1  0
 10 11  2  0
 11 12  1  0
 12 13  2  0
 13 14  1  0
 14 15  2  0
 15 16  1  0
 16 17  1  0
  6 18  1  0
 18 19  2  0
 19  3  1  0
 16  7  1  0
 15 10  1  0
  1 20  1  0
  1 21  1  0
  1 22  1  0
  2 23  1  0
  2 24  1  0
  4 25  1  0
  5 26  1  0
  8 27  1  0
  9 28  1  0
  9 29  1  0
 11 30  1  0
 12 31  1  0
 13 32  1  0
 17 33  1  0
 17 34  1  0
 17 35  1  0
 18 36  1  0
 19 37  1  0
M  CHG  1  10   1
M  END
>  <UniqueID>  (41) 
38

>  <SMILES>  (41) 
CCc1ccc([C@@]2(O)C[n+]3cccnc3N2C)cc1

>  <Energy>  (41) 
53.74123412305916

>  <Genealogy>  (41) 
CCc1ccc([C@@]2(O)C[n+]3cccnc3N2C)cc1 (chirality)
CCc1ccc([C@@]2(O)C[n+]3cccnc3N2C)cc1 (3D coordinates assigned)
CCc1ccc([C@@]2(O)C[n+]3cccnc3N2C)cc1 (nonaromatic ring conformer: 53.74123412305916 kcal/mol)

>  <smiles>  (41) 
CCc1ccc(C2(O)C[n+]3cccnc3N2C)cc1

>  <score_type>  (41) 
oracle

>  <origin>  (41) 
adg

>  <m_score__min__energy>  (41) 
-5.4199999999999999

>  <m_primary>  (41) 
energy

$$$$
41:0
     RDKit          3D

 46 50  0  0  1  0  0  0  0  0999 V2000
   57.7720   27.4680   42.6290 C   0  0  0  0  0  0  0  0  0  0  0  0
   57.8440   27.5760   44.1340 C   0  0  1  0  0  0  0  0  0  0  0  0
   59.2010   27.4400   44.6010 N   0  0  0  0  0  0  0  0  0  0  0  0
   59.4560   27.5360   45.8620 C   0  0  0  0  0  0  0  0  0  0  0  0
   60.0820   28.6440   46.4200 C   0  0  0  0  0  0  0  0  0  0  0  0
   60.3450   28.7250   47.7680 C   0  0  0  0  0  0  0  0  0  0  0  0
   61.0000   29.8770   48.3660 C   0  0  0  0  0  0  0  0  0  0  0  0
   61.2050   30.0510   49.7080 C   0  0  0  0  0  0  0  0  0  0  0  0
   61.8190   31.1280   50.2860 C   0  0  0  0  0  0  0  0  0  0  0  0
   62.2880   32.1540   49.4570 C   0  0  0  0  0  0  0  0  0  0  0  0
   62.9030   33.2800   49.7530 N   0  0  0  0  0  0  0  0  0  0  0  0
   63.2960   34.1320   49.0970 C   0  0  0  0  0  0  0  0  0  0  0  0
   62.8040   33.4740   47.3540 S   0  0  0  0  0  0  0  0  0  0  0  0
   62.0790   31.9710   48.1180 C   0  0  0  0  0  0  0  0  0  0  0  0
   61.4650   30.8950   47.5310 C   0  0  0  0  0  0  0  0  0  0  0  0
   59.9720   27.6860   48.5320 N   0  0  0  0  0  0  0  0  0  0  0  0
   59.3710   26.6290   47.9750 C   0  0  0  0  0  0  0  0  0  0  0  0
   59.0990   26.5180   46.6640 N   0  0  0  0  0  0  0  0  0  0  0  0
   57.4400   28.9920   44.4530 C   0  0  0  0  0  0  0  0  0  0  0  0
   58.3940   29.9970   44.6460 C   0  0  0  0  0  0  0  0  0  0  0  0
   57.6340   31.1180   44.9110 C   0  0  0  0  0  0  0  0  0  0  0  0
   58.1660   32.4670   45.1900 C   0  0  0  0  0  0  0  0  0  0  0  0
   58.4030   33.3730   44.1710 C   0  0  0  0  0  0  0  0  0  0  0  0
   58.9040   34.6100   44.5540 C   0  0  0  0  0  0  0  0  0  0  0  0
   59.1630   34.9550   45.8480 C   0  0  0  0  0  0  0  0  0  0  0  0
   58.9230   34.0490   46.8500 C   0  0  0  0  0  0  0  0  0  0  0  0
   58.4260   32.8150   46.4960 C   0  0  0  0  0  0  0  0  0  0  0  0
   58.2040   31.9440   47.5320 F   0  0  0  0  0  0  0  0  0  0  0  0
   56.3510   30.7440   44.8630 N   0  0  0  0  0  0  0  0  0  0  0  0
   56.2600   29.4930   44.5940 O   0  0  0  0  0  0  0  0  0  0  0  0
   57.1814   26.5821   42.3528 H   0  0  0  0  0  0  0  0  0  0  0  0
   57.2938   28.3699   42.2191 H   0  0  0  0  0  0  0  0  0  0  0  0
   58.7884   27.3734   42.2191 H   0  0  0  0  0  0  0  0  0  0  0  0
   57.2165   26.7996   44.5960 H   0  0  0  0  0  0  0  0  0  0  0  0
   60.3752   29.4788   45.7664 H   0  0  0  0  0  0  0  0  0  0  0  0
   60.8453   29.2570   50.3790 H   0  0  0  0  0  0  0  0  0  0  0  0
   61.9415   31.1866   51.3776 H   0  0  0  0  0  0  0  0  0  0  0  0
   63.8091   35.0626   49.3812 H   0  0  0  0  0  0  0  0  0  0  0  0
   61.3428   30.8356   46.4394 H   0  0  0  0  0  0  0  0  0  0  0  0
   59.0806   25.7966   48.6329 H   0  0  0  0  0  0  0  0  0  0  0  0
   58.6330   25.6880   46.2670 H   0  0  0  0  0  0  0  0  0  0  0  0
   59.4898   29.9135   44.5979 H   0  0  0  0  0  0  0  0  0  0  0  0
   58.2056   33.1270   43.1172 H   0  0  0  0  0  0  0  0  0  0  0  0
   59.1034   35.3543   43.7690 H   0  0  0  0  0  0  0  0  0  0  0  0
   59.5613   35.9522   46.0864 H   0  0  0  0  0  0  0  0  0  0  0  0
   59.1213   34.3006   47.9023 H   0  0  0  0  0  0  0  0  0  0  0  0
  1  2  1  0
  2  3  1  0
  3  4  2  0
  4  5  1  0
  5  6  2  0
  6  7  1  0
  7  8  2  0
  8  9  1  0
  9 10  2  0
 10 11  1  0
 11 12  2  0
 12 13  1  0
 13 14  1  0
 14 15  2  0
  6 16  1  0
 16 17  2  0
 17 18  1  0
  2 19  1  0
 19 20  2  0
 20 21  1  0
 21 22  1  0
 22 23  2  0
 23 24  1  0
 24 25  2  0
 25 26  1  0
 26 27  2  0
 27 28  1  0
 21 29  2  0
 29 30  1  0
 18  4  1  0
 30 19  1  0
 15  7  1  0
 27 22  1  0
 14 10  1  0
  1 31  1  0
  1 32  1  0
  1 33  1  0
  2 34  1  1
  5 35  1  0
  8 36  1  0
  9 37  1  0
 12 38  1  0
 15 39  1  0
 17 40  1  0
 18 41  1  0
 20 42  1  0
 23 43  1  0
 24 44  1  0
 25 45  1  0
 26 46  1  0
M  END
>  <smiles>  (42) 
CC(N=c1cc(-c2ccc3ncsc3c2)nc[nH]1)c1cc(-c2ccccc2F)no1

>  <score_type>  (42) 
oracle

>  <origin>  (42) 
adg

>  <m_score__min__energy>  (42) 
-10.41

>  <m_primary>  (42) 
energy

$$$$
42:0
     RDKit          3D

 56 59  0  0  0  0  0  0  0  0999 V2000
   56.2740   31.9110   45.6270 H   0  0  0  0  0  0  0  0  0  0  0  0
   56.2900   31.3500   44.8060 O   0  0  0  0  0  0  0  0  0  0  0  0
   57.6360   31.2140   44.4400 C   0  0  2  0  0  0  0  0  0  0  0  0
   57.9577   32.0988   43.8711 H   0  0  0  0  0  0  0  0  0  0  0  0
   57.7830   30.0400   43.6320 O   0  0  0  0  0  0  0  0  0  0  0  0
   57.9160   28.7530   44.1770 C   0  0  0  0  0  0  0  0  0  0  0  0
   57.8090   27.6310   43.3490 C   0  0  0  0  0  0  0  0  0  0  0  0
   57.6332   27.7591   42.2707 H   0  0  0  0  0  0  0  0  0  0  0  0
   57.9250   26.3480   43.8890 C   0  0  0  0  0  0  0  0  0  0  0  0
   57.8369   25.4676   43.2354 H   0  0  0  0  0  0  0  0  0  0  0  0
   58.1530   26.1800   45.2590 C   0  0  0  0  0  0  0  0  0  0  0  0
   58.2380   25.1679   45.6814 H   0  0  0  0  0  0  0  0  0  0  0  0
   58.2730   27.2960   46.0920 C   0  0  0  0  0  0  0  0  0  0  0  0
   58.4527   27.1622   47.1689 H   0  0  0  0  0  0  0  0  0  0  0  0
   58.1640   28.5880   45.5530 C   0  0  0  0  0  0  0  0  0  0  0  0
   58.3360   29.7940   46.3840 C   0  0  0  0  0  0  0  0  0  0  0  0
   58.1810   29.7310   47.6300 O   0  0  0  0  0  0  0  0  0  0  0  0
   58.4930   31.0870   45.6860 C   0  0  0  0  0  0  0  0  0  0  0  0
   59.4190   32.0430   45.9560 C   0  0  0  0  0  0  0  0  0  0  0  0
   60.3756   31.9246   45.4260 H   0  0  0  0  0  0  0  0  0  0  0  0
   59.3400   33.2740   46.8930 C   0  0  2  0  0  0  0  0  0  0  0  0
   57.8650   33.7160   47.0910 C   0  0  0  0  0  0  0  0  0  0  0  0
   57.6433   33.7824   48.1664 H   0  0  0  0  0  0  0  0  0  0  0  0
   57.7111   34.6997   46.6235 H   0  0  0  0  0  0  0  0  0  0  0  0
   57.1955   32.9790   46.6235 H   0  0  0  0  0  0  0  0  0  0  0  0
   60.0790   34.4220   46.1630 C   0  0  0  0  0  0  0  0  0  0  0  0
   59.7633   35.3966   46.5637 H   0  0  0  0  0  0  0  0  0  0  0  0
   59.8557   34.4268   45.0859 H   0  0  0  0  0  0  0  0  0  0  0  0
   61.5560   34.1960   46.4260 C   0  0  0  0  0  0  0  0  0  0  0  0
   62.1132   35.1402   46.3367 H   0  0  0  0  0  0  0  0  0  0  0  0
   62.0015   33.4970   45.7029 H   0  0  0  0  0  0  0  0  0  0  0  0
   61.6280   33.6620   47.8610 C   0  0  2  0  0  0  0  0  0  0  0  0
   61.8889   34.4784   48.5505 H   0  0  0  0  0  0  0  0  0  0  0  0
   62.8290   32.6970   48.1570 C   0  0  0  0  0  0  0  0  0  0  0  0
   64.1500   33.5070   48.1340 C   0  0  0  0  0  0  0  0  0  0  0  0
   64.4757   33.7067   49.1655 H   0  0  0  0  0  0  0  0  0  0  0  0
   64.9255   32.9290   47.6101 H   0  0  0  0  0  0  0  0  0  0  0  0
   63.9865   34.4603   47.6101 H   0  0  0  0  0  0  0  0  0  0  0  0
   62.9810   31.5430   47.1230 C   0  0  0  0  0  0  0  0  0  0  0  0
   63.1067   30.5884   47.6548 H   0  0  0  0  0  0  0  0  0  0  0  0
   62.0814   31.4954   46.4918 H   0  0  0  0  0  0  0  0  0  0  0  0
   63.8623   31.7299   46.4918 H   0  0  0  0  0  0  0  0  0  0  0  0
   62.6560   32.1350   49.5950 C   0  0  0  0  0  0  0  0  0  0  0  0
   63.4489   31.3919   49.7658 H   0  0  0  0  0  0  0  0  0  0  0  0
   62.7098   33.0044   50.2668 H   0  0  0  0  0  0  0  0  0  0  0  0
   61.2990   31.4580   49.8870 C   0  0  0  0  0  0  0  0  0  0  0  0
   61.4698   30.3752   49.9788 H   0  0  0  0  0  0  0  0  0  0  0  0
   60.9166   31.9175   50.8104 H   0  0  0  0  0  0  0  0  0  0  0  0
   60.2240   31.6820   48.8170 C   0  0  0  0  0  0  0  0  0  0  0  0
   60.4110   30.9831   47.9884 H   0  0  0  0  0  0  0  0  0  0  0  0
   59.2524   31.5142   49.3047 H   0  0  0  0  0  0  0  0  0  0  0  0
   60.1910   33.1320   48.2370 C   0  0  2  0  0  0  0  0  0  0  0  0
   59.6260   34.0550   49.3630 C   0  0  0  0  0  0  0  0  0  0  0  0
   59.8837   33.6340   50.3460 H   0  0  0  0  0  0  0  0  0  0  0  0
   60.0642   35.0595   49.2680 H   0  0  0  0  0  0  0  0  0  0  0  0
   58.5321   34.1217   49.2680 H   0  0  0  0  0  0  0  0  0  0  0  0
  1  2  1  0
  2  3  1  0
  3  4  1  6
  3  5  1  0
  5  6  1  0
  6  7  2  0
  7  8  1  0
  7  9  1  0
  9 10  1  0
  9 11  2  0
 11 12  1  0
 11 13  1  0
 13 14  1  0
 13 15  2  0
 15 16  1  0
 16 17  2  0
 16 18  1  0
 18 19  2  0
 19 20  1  0
 19 21  1  0
 21 22  1  1
 22 23  1  0
 22 24  1  0
 22 25  1  0
 21 26  1  0
 26 27  1  0
 26 28  1  0
 26 29  1  0
 29 30  1  0
 29 31  1  0
 29 32  1  0
 32 33  1  1
 32 34  1  0
 34 35  1  0
 35 36  1  0
 35 37  1  0
 35 38  1  0
 34 39  1  0
 39 40  1  0
 39 41  1  0
 39 42  1  0
 34 43  1  0
 43 44  1  0
 43 45  1  0
 43 46  1  0
 46 47  1  0
 46 48  1  0
 46 49  1  0
 49 50  1  0
 49 51  1  0
 49 52  1  0
 52 53  1  1
 53 54  1  0
 53 55  1  0
 53 56  1  0
 18  3  1  0
 52 21  1  0
 15  6  1  0
 52 32  1  0
M  END
>  <UniqueID>  (43) 
39

>  <SMILES>  (43) 
CC1(C)CCC[C@@]2(C)[C@@H]1CCC2(C)/C=C1\C(=O)c2ccccc2OC1O

>  <Energy>  (43) 
99.78387029246772

>  <Genealogy>  (43) 
CC1(C)CCC[C@@]2(C)[C@@H]1CCC2(C)C=C1C(=O)c2ccccc2OC1O (chirality)
CC1(C)CCC[C@@]2(C)[C@@H]1CCC2(C)/C=C1\C(=O)c2ccccc2OC1O (cis-trans isomerization)
CC1(C)CCC[C@@]2(C)[C@@H]1CCC2(C)/C=C1\C(=O)c2ccccc2OC1O (3D coordinates assigned)
CC1(C)CCC[C@@]2(C)[C@@H]1CCC2(C)/C=C1\C(=O)c2ccccc2OC1O (nonaromatic ring conformer: 99.78387029246772 kcal/mol)

>  <smiles>  (43) 
CC1(C)CCCC2(C)C1CCC2(C)C=C1C(=O)c2ccccc2OC1O

>  <score_type>  (43) 
oracle

>  <origin>  (43) 
adg

>  <m_score__min__energy>  (43) 
-9.0899999999999999

>  <m_primary>  (43) 
energy

$$$$
43:0
     RDKit          3D

 38 40  0  0  0  0  0  0  0  0999 V2000
   59.6620   35.8120   45.9690 C   0  0  0  0  0  0  0  0  0  0  0  0
   59.1180   34.4760   45.7450 N   0  0  0  0  0  0  0  0  0  0  0  0
   57.9970   34.2560   45.0750 N   0  0  0  0  0  0  0  0  0  0  0  0
   57.7940   32.9250   45.0340 C   0  0  0  0  0  0  0  0  0  0  0  0
   58.8240   32.2810   45.6960 C   0  0  0  0  0  0  0  0  0  0  0  0
   59.0090   30.7930   45.8450 C   0  0  0  0  0  0  0  0  0  0  0  0
   57.7930   30.1360   46.3690 N   0  0  0  0  0  0  0  0  0  0  0  0
   57.3520   28.9870   45.5460 C   0  0  2  0  0  0  0  0  0  0  0  0
   58.5110   28.4260   44.7080 C   0  0  0  0  0  0  0  0  0  0  0  0
   57.9440   27.9350   43.3790 C   0  0  0  0  0  0  0  0  0  0  0  0
   56.7160   29.1570   42.8350 S   0  0  0  0  0  0  0  0  0  0  0  0
   56.2960   29.3710   44.5520 C   0  0  0  0  0  0  0  0  0  0  0  0
   55.1650   29.6810   44.8880 O   0  0  0  0  0  0  0  0  0  0  0  0
   59.6580   33.2990   46.1320 C   0  0  0  0  0  0  0  0  0  0  0  0
   60.9510   33.1440   46.8310 C   0  0  0  0  0  0  0  0  0  0  0  0
   62.1080   33.7670   46.3360 C   0  0  0  0  0  0  0  0  0  0  0  0
   63.3270   33.6220   47.0050 C   0  0  0  0  0  0  0  0  0  0  0  0
   63.4010   32.8550   48.1700 C   0  0  0  0  0  0  0  0  0  0  0  0
   64.5840   32.7150   48.8170 F   0  0  0  0  0  0  0  0  0  0  0  0
   62.2540   32.2330   48.6690 C   0  0  0  0  0  0  0  0  0  0  0  0
   61.0320   32.3760   48.0030 C   0  0  0  0  0  0  0  0  0  0  0  0
   59.7386   36.0002   47.0501 H   0  0  0  0  0  0  0  0  0  0  0  0
   60.6605   35.8826   45.5129 H   0  0  0  0  0  0  0  0  0  0  0  0
   58.9968   36.5600   45.5129 H   0  0  0  0  0  0  0  0  0  0  0  0
   56.9413   32.4272   44.5492 H   0  0  0  0  0  0  0  0  0  0  0  0
   59.2489   30.3642   44.8608 H   0  0  0  0  0  0  0  0  0  0  0  0
   59.8252   30.6211   46.5621 H   0  0  0  0  0  0  0  0  0  0  0  0
   57.0200   30.8410   46.4260 H   0  0  0  0  0  0  0  0  0  0  0  0
   57.9790   29.8120   47.3480 H   0  0  0  0  0  0  0  0  0  0  0  0
   56.9671   28.2503   46.2665 H   0  0  0  0  0  0  0  0  0  0  0  0
   59.2554   29.2152   44.5265 H   0  0  0  0  0  0  0  0  0  0  0  0
   59.0000   27.5978   45.2418 H   0  0  0  0  0  0  0  0  0  0  0  0
   58.7487   27.8518   42.6337 H   0  0  0  0  0  0  0  0  0  0  0  0
   57.4832   26.9428   43.4938 H   0  0  0  0  0  0  0  0  0  0  0  0
   62.0550   34.3714   45.4184 H   0  0  0  0  0  0  0  0  0  0  0  0
   64.2299   34.1131   46.6130 H   0  0  0  0  0  0  0  0  0  0  0  0
   62.3117   31.6298   49.5871 H   0  0  0  0  0  0  0  0  0  0  0  0
   60.1312   31.8846   48.3994 H   0  0  0  0  0  0  0  0  0  0  0  0
  1  2  1  0
  2  3  1  0
  3  4  2  0
  4  5  1  0
  5  6  1  0
  6  7  1  0
  7  8  1  0
  8  9  1  0
  9 10  1  0
 10 11  1  0
 11 12  1  0
 12 13  2  0
  5 14  2  0
 14 15  1  0
 15 16  2  0
 16 17  1  0
 17 18  2  0
 18 19  1  0
 18 20  1  0
 20 21  2  0
 14  2  1  0
 21 15  1  0
 12  8  1  0
  1 22  1  0
  1 23  1  0
  1 24  1  0
  4 25  1  0
  6 26  1  0
  6 27  1  0
  7 28  1  0
  7 29  1  0
  8 30  1  1
  9 31  1  0
  9 32  1  0
 10 33  1  0
 10 34  1  0
 16 35  1  0
 17 36  1  0
 20 37  1  0
 21 38  1  0
M  CHG  1   7   1
M  END
>  <UniqueID>  (44) 
40

>  <SMILES>  (44) 
Cn1ncc(C[NH2+][C@@H]2CCSC2=O)c1-c1ccc(F)cc1

>  <Energy>  (44) 
80.21414034708161

>  <Genealogy>  (44) 
Cn1ncc(C[NH2+]C2CCSC2=O)c1-c1ccc(F)cc1 (protonated)
Cn1ncc(C[NH2+][C@@H]2CCSC2=O)c1-c1ccc(F)cc1 (chirality)
Cn1ncc(C[NH2+][C@@H]2CCSC2=O)c1-c1ccc(F)cc1 (3D coordinates assigned)
Cn1ncc(C[NH2+][C@@H]2CCSC2=O)c1-c1ccc(F)cc1 (nonaromatic ring conformer: 80.21414034708161 kcal/mol)

>  <smiles>  (44) 
Cn1ncc(CNC2CCSC2=O)c1-c1ccc(F)cc1

>  <score_type>  (44) 
oracle

>  <origin>  (44) 
adg

>  <m_score__min__energy>  (44) 
-5.71

>  <m_primary>  (44) 
energy

$$$$
44:0
     RDKit          3D

 35 37  0  0  0  0  0  0  0  0999 V2000
   59.9954   30.3276   48.7850 H   0  0  0  0  0  0  0  0  0  0  0  0
   59.8860   29.6380   47.9350 C   0  0  0  0  0  0  0  0  0  0  0  0
   58.9770   28.5780   48.0090 C   0  0  0  0  0  0  0  0  0  0  0  0
   58.3751   28.4343   48.9184 H   0  0  0  0  0  0  0  0  0  0  0  0
   58.8300   27.6950   46.9240 C   0  0  0  0  0  0  0  0  0  0  0  0
   57.7920   26.6030   46.9650 C   0  0  0  0  0  0  0  0  0  0  0  0
   57.1466   26.7597   47.8419 H   0  0  0  0  0  0  0  0  0  0  0  0
   58.3171   25.6382   47.0235 H   0  0  0  0  0  0  0  0  0  0  0  0
   56.9180   26.5900   45.7030 C   0  0  0  0  0  0  0  0  0  0  0  0
   56.2273   25.7354   45.7544 H   0  0  0  0  0  0  0  0  0  0  0  0
   57.5764   26.5064   44.8258 H   0  0  0  0  0  0  0  0  0  0  0  0
   56.1410   27.8240   45.5810 N   0  0  0  0  0  0  0  0  0  0  0  0
   56.6080   28.9470   45.1240 C   0  0  0  0  0  0  0  0  0  0  0  0
   57.1000   29.9340   45.9130 N   0  0  0  0  0  0  0  0  0  0  0  0
   57.4750   31.0010   45.1640 C   0  0  0  0  0  0  0  0  0  0  0  0
   57.9960   32.1830   45.6900 C   0  0  0  0  0  0  0  0  0  0  0  0
   58.1384   32.2992   46.7745 H   0  0  0  0  0  0  0  0  0  0  0  0
   58.3350   33.2210   44.8090 C   0  0  0  0  0  0  0  0  0  0  0  0
   58.7482   34.1598   45.2063 H   0  0  0  0  0  0  0  0  0  0  0  0
   58.1510   33.0720   43.4200 C   0  0  0  0  0  0  0  0  0  0  0  0
   58.4237   33.8936   42.7413 H   0  0  0  0  0  0  0  0  0  0  0  0
   57.6180   31.8730   42.8930 C   0  0  0  0  0  0  0  0  0  0  0  0
   57.4060   31.6680   41.5210 O   0  0  0  0  0  0  0  0  0  0  0  0
   57.3840   32.7110   40.5520 C   0  0  0  0  0  0  0  0  0  0  0  0
   57.3634   33.6852   41.0623 H   0  0  0  0  0  0  0  0  0  0  0  0
   58.2837   32.6457   39.9225 H   0  0  0  0  0  0  0  0  0  0  0  0
   56.4878   32.6078   39.9225 H   0  0  0  0  0  0  0  0  0  0  0  0
   57.2910   30.8600   43.7960 C   0  0  0  0  0  0  0  0  0  0  0  0
   56.6310   29.3450   43.4820 S   0  0  0  0  0  0  0  0  0  0  0  0
   59.6090   27.8860   45.7720 C   0  0  0  0  0  0  0  0  0  0  0  0
   59.5033   27.1989   44.9195 H   0  0  0  0  0  0  0  0  0  0  0  0
   60.5190   28.9460   45.7030 C   0  0  0  0  0  0  0  0  0  0  0  0
   61.1275   29.0897   44.7980 H   0  0  0  0  0  0  0  0  0  0  0  0
   60.6560   29.8230   46.7830 C   0  0  0  0  0  0  0  0  0  0  0  0
   61.5310   30.8560   46.7110 F   0  0  0  0  0  0  0  0  0  0  0  0
  1  2  1  0
  2  3  2  0
  3  4  1  0
  3  5  1  0
  5  6  1  0
  6  7  1  0
  6  8  1  0
  6  9  1  0
  9 10  1  0
  9 11  1  0
  9 12  1  0
 12 13  2  0
 13 14  1  0
 14 15  1  0
 15 16  2  0
 16 17  1  0
 16 18  1  0
 18 19  1  0
 18 20  2  0
 20 21  1  0
 20 22  1  0
 22 23  1  0
 23 24  1  0
 24 25  1  0
 24 26  1  0
 24 27  1  0
 22 28  2  0
 28 29  1  0
  5 30  2  0
 30 31  1  0
 30 32  1  0
 32 33  1  0
 32 34  2  0
 34 35  1  0
 34  2  1  0
 29 13  1  0
 28 15  1  0
M  CHG  1  14  -1
M  END
>  <UniqueID>  (45) 
41

>  <SMILES>  (45) 
COc1cccc2[n-]/c(=N\CCc3ccc(F)cc3)sc12

>  <Energy>  (45) 
66.83460039984949

>  <Genealogy>  (45) 
COc1cccc2[n-]c(=NCCc3ccc(F)cc3)sc12 (protonated)
COc1cccc2[n-]/c(=N\CCc3ccc(F)cc3)sc12 (cis-trans isomerization)
COc1cccc2[n-]/c(=N\CCc3ccc(F)cc3)sc12 (3D coordinates assigned)
COc1cccc2[n-]/c(=N\CCc3ccc(F)cc3)sc12 (optimized conformer: 66.83460039984949 kcal/mol)

>  <smiles>  (45) 
COc1cccc2[nH]c(=NCCc3ccc(F)cc3)sc12

>  <score_type>  (45) 
oracle

>  <origin>  (45) 
adg

>  <m_score__min__energy>  (45) 
-8.6099999999999994

>  <m_primary>  (45) 
energy

$$$$
45:0
     RDKit          3D

 39 40  0  0  0  0  0  0  0  0999 V2000
   56.2060   33.8663   44.9258 H   0  0  0  0  0  0  0  0  0  0  0  0
   57.2950   33.7130   44.9020 C   0  0  0  0  0  0  0  0  0  0  0  0
   58.0520   34.5900   45.4990 N   0  0  0  0  0  0  0  0  0  0  0  0
   59.2280   34.3000   46.2680 C   0  0  0  0  0  0  0  0  0  0  0  0
   59.2120   34.5060   47.6520 C   0  0  0  0  0  0  0  0  0  0  0  0
   58.3049   34.8956   48.1372 H   0  0  0  0  0  0  0  0  0  0  0  0
   60.3430   34.2190   48.4200 C   0  0  0  0  0  0  0  0  0  0  0  0
   60.3185   34.3694   49.5094 H   0  0  0  0  0  0  0  0  0  0  0  0
   61.5090   33.7400   47.8070 C   0  0  0  0  0  0  0  0  0  0  0  0
   62.9410   33.3770   48.7650 S   0  0  0  0  0  0  0  0  0  0  0  0
   63.1760   34.4810   49.7560 O   0  0  0  0  0  0  0  0  0  0  0  0
   64.1430   33.2650   47.8710 O   0  0  0  0  0  0  0  0  0  0  0  0
   62.7120   31.8840   49.6050 N   0  0  0  0  0  0  0  0  0  0  0  0
   63.0850   31.1270   48.9890 H   0  0  0  0  0  0  0  0  0  0  0  0
   61.6820   31.7300   49.6800 H   0  0  0  0  0  0  0  0  0  0  0  0
   61.5420   33.5790   46.4150 C   0  0  0  0  0  0  0  0  0  0  0  0
   62.4618   33.2266   45.9253 H   0  0  0  0  0  0  0  0  0  0  0  0
   60.4090   33.8650   45.6470 C   0  0  0  0  0  0  0  0  0  0  0  0
   60.4435   33.7488   44.5537 H   0  0  0  0  0  0  0  0  0  0  0  0
   57.8260   32.5010   44.1810 C   0  0  0  0  0  0  0  0  0  0  0  0
   58.8928   32.6517   43.9591 H   0  0  0  0  0  0  0  0  0  0  0  0
   57.2569   32.3670   43.2492 H   0  0  0  0  0  0  0  0  0  0  0  0
   57.6670   31.2640   45.0270 C   0  0  0  0  0  0  0  0  0  0  0  0
   56.6250   30.5680   44.8810 O   0  0  0  0  0  0  0  0  0  0  0  0
   58.6550   30.8750   46.0630 C   0  0  0  0  0  0  0  0  0  0  0  0
   58.5200   31.2870   47.4010 C   0  0  0  0  0  0  0  0  0  0  0  0
   57.6784   31.9331   47.6915 H   0  0  0  0  0  0  0  0  0  0  0  0
   59.4480   30.8810   48.3640 C   0  0  0  0  0  0  0  0  0  0  0  0
   59.3233   31.2004   49.4092 H   0  0  0  0  0  0  0  0  0  0  0  0
   60.5330   30.0730   48.0120 C   0  0  0  0  0  0  0  0  0  0  0  0
   61.4350   29.6940   49.0170 O   0  0  0  0  0  0  0  0  0  0  0  0
   61.0590   29.0710   50.2410 C   0  0  0  0  0  0  0  0  0  0  0  0
   61.4228   29.6738   51.0861 H   0  0  0  0  0  0  0  0  0  0  0  0
   59.9629   28.9931   50.2912 H   0  0  0  0  0  0  0  0  0  0  0  0
   61.5008   28.0649   50.2912 H   0  0  0  0  0  0  0  0  0  0  0  0
   60.6820   29.6720   46.6720 C   0  0  0  0  0  0  0  0  0  0  0  0
   61.5323   29.0374   46.3818 H   0  0  0  0  0  0  0  0  0  0  0  0
   59.7550   30.0760   45.7080 C   0  0  0  0  0  0  0  0  0  0  0  0
   59.8875   29.7656   44.6610 H   0  0  0  0  0  0  0  0  0  0  0  0
  1  2  1  0
  2  3  2  0
  3  4  1  0
  4  5  2  0
  5  6  1  0
  5  7  1  0
  7  8  1  0
  7  9  2  0
  9 10  1  0
 10 11  2  0
 10 12  2  0
 10 13  1  0
 13 14  1  0
 13 15  1  0
  9 16  1  0
 16 17  1  0
 16 18  2  0
 18 19  1  0
  2 20  1  0
 20 21  1  0
 20 22  1  0
 20 23  1  0
 23 24  2  0
 23 25  1  0
 25 26  2  0
 26 27  1  0
 26 28  1  0
 28 29  1  0
 28 30  2  0
 30 31  1  0
 31 32  1  0
 32 33  1  0
 32 34  1  0
 32 35  1  0
 30 36  1  0
 36 37  1  0
 36 38  2  0
 38 39  1  0
 18  4  1  0
 38 25  1  0
M  END
>  <UniqueID>  (46) 
42

>  <SMILES>  (46) 
COc1ccc(C(=O)C/C=N\c2ccc(S(N)(=O)=O)cc2)cc1

>  <Energy>  (46) 
41.05958705320303

>  <Genealogy>  (46) 
COc1ccc(C(=O)C/C=N\c2ccc(S(N)(=O)=O)cc2)cc1 (cis-trans isomerization)
COc1ccc(C(=O)C/C=N\c2ccc(S(N)(=O)=O)cc2)cc1 (3D coordinates assigned)
COc1ccc(C(=O)C/C=N\c2ccc(S(N)(=O)=O)cc2)cc1 (optimized conformer: 41.05958705320303 kcal/mol)

>  <smiles>  (46) 
COc1ccc(C(=O)CC=Nc2ccc(S(N)(=O)=O)cc2)cc1

>  <score_type>  (46) 
oracle

>  <origin>  (46) 
adg

>  <m_score__min__energy>  (46) 
-7.9400000000000004

>  <m_primary>  (46) 
energy

$$$$
46:0
     RDKit          3D

 54 56  0  0  0  0  0  0  0  0999 V2000
   55.8920   29.7240   42.8830 C   0  0  0  0  0  0  0  0  0  0  0  0
   55.8460   29.6690   44.3040 O   0  0  0  0  0  0  0  0  0  0  0  0
   56.9600   29.4320   45.1260 C   0  0  0  0  0  0  0  0  0  0  0  0
   57.9970   30.3710   45.2670 C   0  0  0  0  0  0  0  0  0  0  0  0
   59.0950   30.0940   46.0820 C   0  0  0  0  0  0  0  0  0  0  0  0
   59.2000   28.8610   46.7460 C   0  0  0  0  0  0  0  0  0  0  0  0
   60.3860   28.6070   47.6520 C   0  0  0  0  0  0  0  0  0  0  0  0
   60.2200   29.0860   49.0410 N   0  0  0  0  0  0  0  0  0  0  0  0
   60.9320   30.3270   49.4510 C   0  0  0  0  0  0  0  0  0  0  0  0
   61.5770   31.1150   48.2770 C   0  0  0  0  0  0  0  0  0  0  0  0
   60.8060   32.3650   47.8310 C   0  0  0  0  0  0  0  0  0  0  0  0
   60.3760   33.1730   48.9870 N   0  0  0  0  0  0  0  0  0  0  0  0
   59.7410   34.4230   48.5180 C   0  0  0  0  0  0  0  0  0  0  0  0
   59.0300   34.1980   47.2090 C   0  0  0  0  0  0  0  0  0  0  0  0
   59.5790   34.7020   46.0180 C   0  0  0  0  0  0  0  0  0  0  0  0
   58.9170   34.5080   44.8020 C   0  0  0  0  0  0  0  0  0  0  0  0
   57.7040   33.8130   44.7650 C   0  0  0  0  0  0  0  0  0  0  0  0
   57.1510   33.3130   45.9470 C   0  0  0  0  0  0  0  0  0  0  0  0
   57.8100   33.5040   47.1660 C   0  0  0  0  0  0  0  0  0  0  0  0
   59.4360   32.3900   49.8100 C   0  0  0  0  0  0  0  0  0  0  0  0
   60.1590   31.2100   50.4610 C   0  0  0  0  0  0  0  0  0  0  0  0
   58.1310   27.9510   46.6580 C   0  0  0  0  0  0  0  0  0  0  0  0
   57.0220   28.2210   45.8320 C   0  0  0  0  0  0  0  0  0  0  0  0
   55.9610   27.3130   45.6890 O   0  0  0  0  0  0  0  0  0  0  0  0
   56.0380   25.9250   45.9970 C   0  0  0  0  0  0  0  0  0  0  0  0
   56.5683   30.5327   42.5691 H   0  0  0  0  0  0  0  0  0  0  0  0
   56.2606   28.7647   42.4907 H   0  0  0  0  0  0  0  0  0  0  0  0
   54.8826   29.9171   42.4907 H   0  0  0  0  0  0  0  0  0  0  0  0
   57.9422   31.3302   44.7313 H   0  0  0  0  0  0  0  0  0  0  0  0
   59.8859   30.8485   46.2056 H   0  0  0  0  0  0  0  0  0  0  0  0
   60.5663   27.5223   47.6835 H   0  0  0  0  0  0  0  0  0  0  0  0
   61.2269   29.1750   47.2274 H   0  0  0  0  0  0  0  0  0  0  0  0
   60.4230   28.3230   49.7250 H   0  0  0  0  0  0  0  0  0  0  0  0
   59.1950   29.2780   49.1580 H   0  0  0  0  0  0  0  0  0  0  0  0
   61.7909   29.9552   50.0290 H   0  0  0  0  0  0  0  0  0  0  0  0
   62.5838   31.4290   48.5897 H   0  0  0  0  0  0  0  0  0  0  0  0
   61.5794   30.4324   47.4144 H   0  0  0  0  0  0  0  0  0  0  0  0
   61.4568   32.9768   47.1890 H   0  0  0  0  0  0  0  0  0  0  0  0
   59.9093   32.0412   47.2823 H   0  0  0  0  0  0  0  0  0  0  0  0
   59.0143   34.7636   49.2702 H   0  0  0  0  0  0  0  0  0  0  0  0
   60.5217   35.1839   48.3712 H   0  0  0  0  0  0  0  0  0  0  0  0
   60.5321   35.2506   46.0423 H   0  0  0  0  0  0  0  0  0  0  0  0
   59.3514   34.9031   43.8718 H   0  0  0  0  0  0  0  0  0  0  0  0
   57.1859   33.6601   43.8068 H   0  0  0  0  0  0  0  0  0  0  0  0
   56.1958   32.7683   45.9188 H   0  0  0  0  0  0  0  0  0  0  0  0
   57.3710   33.1092   48.0941 H   0  0  0  0  0  0  0  0  0  0  0  0
   59.0154   33.0359   50.5948 H   0  0  0  0  0  0  0  0  0  0  0  0
   58.6303   32.0062   49.1669 H   0  0  0  0  0  0  0  0  0  0  0  0
   60.8742   31.6035   51.1983 H   0  0  0  0  0  0  0  0  0  0  0  0
   59.3899   30.5746   50.9244 H   0  0  0  0  0  0  0  0  0  0  0  0
   58.1612   27.0184   47.2405 H   0  0  0  0  0  0  0  0  0  0  0  0
   56.0454   25.7916   47.0889 H   0  0  0  0  0  0  0  0  0  0  0  0
   55.1673   25.4058   45.5701 H   0  0  0  0  0  0  0  0  0  0  0  0
   56.9608   25.5053   45.5701 H   0  0  0  0  0  0  0  0  0  0  0  0
  1  2  1  0
  2  3  1  0
  3  4  2  0
  4  5  1  0
  5  6  2  0
  6  7  1  0
  7  8  1  0
  8  9  1  0
  9 10  1  0
 10 11  1  0
 11 12  1  0
 12 13  1  0
 13 14  1  0
 14 15  2  0
 15 16  1  0
 16 17  2  0
 17 18  1  0
 18 19  2  0
 12 20  1  0
 20 21  1  0
  6 22  1  0
 22 23  2  0
 23 24  1  0
 24 25  1  0
 23  3  1  0
 21  9  1  0
 19 14  1  0
  1 26  1  0
  1 27  1  0
  1 28  1  0
  4 29  1  0
  5 30  1  0
  7 31  1  0
  7 32  1  0
  8 33  1  0
  8 34  1  0
  9 35  1  0
 10 36  1  0
 10 37  1  0
 11 38  1  0
 11 39  1  0
 13 40  1  0
 13 41  1  0
 15 42  1  0
 16 43  1  0
 17 44  1  0
 18 45  1  0
 19 46  1  0
 20 47  1  0
 20 48  1  0
 21 49  1  0
 21 50  1  0
 22 51  1  0
 25 52  1  0
 25 53  1  0
 25 54  1  0
M  CHG  1   8   1
M  END
>  <UniqueID>  (47) 
43

>  <SMILES>  (47) 
COc1ccc(C[NH2+]C2CCN(Cc3ccccc3)CC2)cc1OC

>  <Energy>  (47) 
65.43298349285332

>  <Genealogy>  (47) 
COc1ccc(C[NH2+]C2CCN(Cc3ccccc3)CC2)cc1OC (protonated)
COc1ccc(C[NH2+]C2CCN(Cc3ccccc3)CC2)cc1OC (3D coordinates assigned)
COc1ccc(C[NH2+]C2CCN(Cc3ccccc3)CC2)cc1OC (nonaromatic ring conformer: 65.43298349285332 kcal/mol)

>  <smiles>  (47) 
COc1ccc(CNC2CCN(Cc3ccccc3)CC2)cc1OC

>  <score_type>  (47) 
oracle

>  <origin>  (47) 
adg

>  <m_score__min__energy>  (47) 
-7.5199999999999996

>  <m_primary>  (47) 
energy

$$$$
47:0
     RDKit          3D

 31 33  0  0  0  0  0  0  0  0999 V2000
   56.6460   27.2470   45.6230 C   0  0  0  0  0  0  0  0  0  0  0  0
   55.9110   28.3860   45.2290 O   0  0  0  0  0  0  0  0  0  0  0  0
   56.6110   29.0940   44.2250 C   0  0  0  0  0  0  0  0  0  0  0  0
   57.1750   30.3810   44.7630 C   0  0  0  0  0  0  0  0  0  0  0  0
   56.6640   31.5950   44.4120 N   0  0  0  0  0  0  0  0  0  0  0  0
   57.3930   32.4530   45.1470 C   0  0  0  0  0  0  0  0  0  0  0  0
   57.3100   33.8400   45.1920 C   0  0  0  0  0  0  0  0  0  0  0  0
   58.2010   34.5100   46.0510 C   0  0  0  0  0  0  0  0  0  0  0  0
   59.1290   33.7690   46.8200 C   0  0  0  0  0  0  0  0  0  0  0  0
   59.1670   32.4040   46.7370 N   0  0  0  0  0  0  0  0  0  0  0  0
   58.2940   31.7780   45.9060 C   0  0  0  0  0  0  0  0  0  0  0  0
   58.1860   30.4630   45.6750 N   0  0  0  0  0  0  0  0  0  0  0  0
   58.9390   29.4060   46.2920 C   0  0  0  0  0  0  0  0  0  0  0  0
   58.9190   29.2490   47.6880 C   0  0  0  0  0  0  0  0  0  0  0  0
   59.6510   28.2210   48.2910 C   0  0  0  0  0  0  0  0  0  0  0  0
   60.4110   27.3480   47.5080 C   0  0  0  0  0  0  0  0  0  0  0  0
   61.1200   26.3520   48.0940 F   0  0  0  0  0  0  0  0  0  0  0  0
   60.4440   27.5060   46.1190 C   0  0  0  0  0  0  0  0  0  0  0  0
   59.7130   28.5330   45.5120 C   0  0  0  0  0  0  0  0  0  0  0  0
   56.6800   27.1944   46.7212 H   0  0  0  0  0  0  0  0  0  0  0  0
   56.1607   26.3426   45.2274 H   0  0  0  0  0  0  0  0  0  0  0  0
   57.6700   27.3165   45.2274 H   0  0  0  0  0  0  0  0  0  0  0  0
   57.4355   28.4683   43.8527 H   0  0  0  0  0  0  0  0  0  0  0  0
   55.9094   29.3328   43.4121 H   0  0  0  0  0  0  0  0  0  0  0  0
   56.5788   34.3906   44.5819 H   0  0  0  0  0  0  0  0  0  0  0  0
   58.1759   35.6073   46.1243 H   0  0  0  0  0  0  0  0  0  0  0  0
   59.8254   34.2946   47.4899 H   0  0  0  0  0  0  0  0  0  0  0  0
   58.3258   29.9367   48.3087 H   0  0  0  0  0  0  0  0  0  0  0  0
   59.6284   28.0994   49.3840 H   0  0  0  0  0  0  0  0  0  0  0  0
   61.0456   26.8218   45.5026 H   0  0  0  0  0  0  0  0  0  0  0  0
   59.7451   28.6566   44.4194 H   0  0  0  0  0  0  0  0  0  0  0  0
  1  2  1  0
  2  3  1  0
  3  4  1  0
  4  5  2  0
  5  6  1  0
  6  7  2  0
  7  8  1  0
  8  9  2  0
  9 10  1  0
 10 11  2  0
 11 12  1  0
 12 13  1  0
 13 14  2  0
 14 15  1  0
 15 16  2  0
 16 17  1  0
 16 18  1  0
 18 19  2  0
 12  4  1  0
 19 13  1  0
 11  6  1  0
  1 20  1  0
  1 21  1  0
  1 22  1  0
  3 23  1  0
  3 24  1  0
  7 25  1  0
  8 26  1  0
  9 27  1  0
 14 28  1  0
 15 29  1  0
 18 30  1  0
 19 31  1  0
M  END
>  <UniqueID>  (48) 
44

>  <SMILES>  (48) 
COCc1nc2cccnc2n1-c1ccc(F)cc1

>  <Energy>  (48) 
80.20674734347867

>  <Genealogy>  (48) 
COCc1nc2cccnc2n1-c1ccc(F)cc1 (3D coordinates assigned)
COCc1nc2cccnc2n1-c1ccc(F)cc1 (optimized conformer: 80.20674734347867 kcal/mol)

>  <smiles>  (48) 
COCc1nc2cccnc2n1-c1ccc(F)cc1

>  <score_type>  (48) 
oracle

>  <origin>  (48) 
adg

>  <m_score__min__energy>  (48) 
-6.2599999999999998

>  <m_primary>  (48) 
energy

$$$$
48:0
     RDKit          3D

 41 43  0  0  0  0  0  0  0  0999 V2000
   56.9691   24.0818   43.6931 H   0  0  0  0  0  0  0  0  0  0  0  0
   57.4040   25.0620   43.9380 C   0  0  0  0  0  0  0  0  0  0  0  0
   57.7650   25.9410   42.9130 C   0  0  0  0  0  0  0  0  0  0  0  0
   57.6079   25.6551   41.8625 H   0  0  0  0  0  0  0  0  0  0  0  0
   58.3260   27.1840   43.2230 C   0  0  0  0  0  0  0  0  0  0  0  0
   58.5986   27.8796   42.4156 H   0  0  0  0  0  0  0  0  0  0  0  0
   58.5420   27.5460   44.5610 C   0  0  0  0  0  0  0  0  0  0  0  0
   59.1520   28.8490   44.8900 C   0  0  0  0  0  0  0  0  0  0  0  0
   60.0170   28.9170   46.0360 N   0  0  0  0  0  0  0  0  0  0  0  0
   60.5980   28.0760   46.2600 H   0  0  0  0  0  0  0  0  0  0  0  0
   60.0830   30.0430   46.9290 C   0  0  0  0  0  0  0  0  0  0  0  0
   61.0800   31.0140   46.7430 C   0  0  0  0  0  0  0  0  0  0  0  0
   61.7864   30.9191   45.9051 H   0  0  0  0  0  0  0  0  0  0  0  0
   61.1800   32.1010   47.6170 C   0  0  0  0  0  0  0  0  0  0  0  0
   61.9574   32.8630   47.4588 H   0  0  0  0  0  0  0  0  0  0  0  0
   60.2940   32.2210   48.6910 C   0  0  0  0  0  0  0  0  0  0  0  0
   60.3702   33.0796   49.3743 H   0  0  0  0  0  0  0  0  0  0  0  0
   59.3110   31.2490   48.8960 C   0  0  0  0  0  0  0  0  0  0  0  0
   58.6183   31.3398   49.7457 H   0  0  0  0  0  0  0  0  0  0  0  0
   59.2060   30.1620   48.0240 C   0  0  0  0  0  0  0  0  0  0  0  0
   58.4349   29.3961   48.1938 H   0  0  0  0  0  0  0  0  0  0  0  0
   58.9970   29.8990   44.1240 N   0  0  0  0  0  0  0  0  0  0  0  0
   59.6930   30.0890   43.3690 H   0  0  0  0  0  0  0  0  0  0  0  0
   57.6390   30.9840   44.1950 S   0  0  0  0  0  0  0  0  0  0  0  0
   56.5460   30.3530   45.0130 O   0  0  0  0  0  0  0  0  0  0  0  0
   57.1190   31.2260   42.8050 O   0  0  0  0  0  0  0  0  0  0  0  0
   58.1020   32.5000   44.9650 C   0  0  0  0  0  0  0  0  0  0  0  0
   58.8260   33.4710   44.2580 C   0  0  0  0  0  0  0  0  0  0  0  0
   59.0888   33.3016   43.2034 H   0  0  0  0  0  0  0  0  0  0  0  0
   59.2140   34.6550   44.8940 C   0  0  0  0  0  0  0  0  0  0  0  0
   59.7818   35.4156   44.3381 H   0  0  0  0  0  0  0  0  0  0  0  0
   58.8820   34.8740   46.2340 C   0  0  0  0  0  0  0  0  0  0  0  0
   59.1890   35.8057   46.7317 H   0  0  0  0  0  0  0  0  0  0  0  0
   58.1600   33.9090   46.9410 C   0  0  0  0  0  0  0  0  0  0  0  0
   57.8989   34.0814   47.9956 H   0  0  0  0  0  0  0  0  0  0  0  0
   57.7690   32.7240   46.3090 C   0  0  0  0  0  0  0  0  0  0  0  0
   57.1993   31.9664   46.8670 H   0  0  0  0  0  0  0  0  0  0  0  0
   58.1540   26.6700   45.5870 C   0  0  0  0  0  0  0  0  0  0  0  0
   58.2900   26.9621   46.6387 H   0  0  0  0  0  0  0  0  0  0  0  0
   57.5950   25.4270   45.2750 C   0  0  0  0  0  0  0  0  0  0  0  0
   57.3055   24.7362   46.0806 H   0  0  0  0  0  0  0  0  0  0  0  0
  1  2  1  0
  2  3  2  0
  3  4  1  0
  3  5  1  0
  5  6  1  0
  5  7  2  0
  7  8  1  0
  8  9  1  0
  9 10  1  0
  9 11  1  0
 11 12  2  0
 12 13  1  0
 12 14  1  0
 14 15  1  0
 14 16  2  0
 16 17  1  0
 16 18  1  0
 18 19  1  0
 18 20  2  0
 20 21  1  0
  8 22  2  0
 22 23  1  0
 22 24  1  0
 24 25  2  0
 24 26  2  0
 24 27  1  0
 27 28  2  0
 28 29  1  0
 28 30  1  0
 30 31  1  0
 30 32  2  0
 32 33  1  0
 32 34  1  0
 34 35  1  0
 34 36  2  0
 36 37  1  0
  7 38  1  0
 38 39  1  0
 38 40  2  0
 40 41  1  0
 40  2  1  0
 20 11  1  0
 36 27  1  0
M  CHG  1  22   1
M  END
>  <UniqueID>  (49) 
45

>  <SMILES>  (49) 
O=S(=O)(/[NH+]=C(/Nc1ccccc1)c1ccccc1)c1ccccc1

>  <Energy>  (49) 
55.85709914561918

>  <Genealogy>  (49) 
O=S(=O)([NH+]=C(Nc1ccccc1)c1ccccc1)c1ccccc1 (protonated)
O=S(=O)(/[NH+]=C(/Nc1ccccc1)c1ccccc1)c1ccccc1 (cis-trans isomerization)
O=S(=O)(/[NH+]=C(/Nc1ccccc1)c1ccccc1)c1ccccc1 (3D coordinates assigned)
O=S(=O)(/[NH+]=C(/Nc1ccccc1)c1ccccc1)c1ccccc1 (optimized conformer: 55.85709914561918 kcal/mol)

>  <smiles>  (49) 
O=S(=O)(N=C(Nc1ccccc1)c1ccccc1)c1ccccc1

>  <score_type>  (49) 
oracle

>  <origin>  (49) 
adg

>  <m_score__min__energy>  (49) 
-6.7199999999999998

>  <m_primary>  (49) 
energy

$$$$
