0:0
     RDKit          3D

 24 25  0  0  0  0  0  0  0  0999 V2000
   57.4060   32.2070   44.1990 C   0  0  0  0  0  0  0  0  0  0  0  0
   56.6650   31.0420   44.5460 O   0  0  0  0  0  0  0  0  0  0  0  0
   57.2390   29.8200   44.9260 C   0  0  0  0  0  0  0  0  0  0  0  0
   58.6380   29.6300   45.0000 C   0  0  0  0  0  0  0  0  0  0  0  0
   59.1750   28.3820   45.3870 C   0  0  0  0  0  0  0  0  0  0  0  0
   60.5570   28.1500   45.4750 O   0  0  0  0  0  0  0  0  0  0  0  0
   61.5100   28.5900   44.5140 C   0  0  0  0  0  0  0  0  0  0  0  0
   58.2910   27.3380   45.6950 C   0  0  0  0  0  0  0  0  0  0  0  0
   56.9270   27.5280   45.6210 C   0  0  0  0  0  0  0  0  0  0  0  0
   56.3830   28.7560   45.2400 C   0  0  0  0  0  0  0  0  0  0  0  0
   56.1820   26.3400   45.9740 C   0  0  0  0  0  0  0  0  0  0  0  0
   54.9250   26.2820   45.9760 O   0  0  0  0  0  0  0  0  0  0  0  0
   57.2140   24.9510   46.4090 S   0  0  0  0  0  0  0  0  0  0  0  0
   58.7200   25.9650   46.1180 C   0  0  0  0  0  0  0  0  0  0  0  0
   57.7325   32.7203   45.1154 H   0  0  0  0  0  0  0  0  0  0  0  0
   58.2869   31.9184   43.6067 H   0  0  0  0  0  0  0  0  0  0  0  0
   56.7712   32.8824   43.6067 H   0  0  0  0  0  0  0  0  0  0  0  0
   59.3146   30.4616   44.7540 H   0  0  0  0  0  0  0  0  0  0  0  0
   62.3913   28.9969   45.0313 H   0  0  0  0  0  0  0  0  0  0  0  0
   61.8141   27.7412   43.8839 H   0  0  0  0  0  0  0  0  0  0  0  0
   61.0611   29.3720   43.8839 H   0  0  0  0  0  0  0  0  0  0  0  0
   55.2921   28.8871   45.1868 H   0  0  0  0  0  0  0  0  0  0  0  0
   59.3097   26.0289   47.0444 H   0  0  0  0  0  0  0  0  0  0  0  0
   59.3404   25.5046   45.3349 H   0  0  0  0  0  0  0  0  0  0  0  0
  1  2  1  0
  2  3  1  0
  3  4  2  0
  4  5  1  0
  5  6  1  0
  6  7  1  0
  5  8  2  0
  8  9  1  0
  9 10  2  0
  9 11  1  0
 11 12  2  0
 11 13  1  0
 13 14  1  0
 10  3  1  0
 14  8  1  0
  1 15  1  0
  1 16  1  0
  1 17  1  0
  4 18  1  0
  7 19  1  0
  7 20  1  0
  7 21  1  0
 10 22  1  0
 14 23  1  0
 14 24  1  0
M  END
>  <UniqueID>  (1) 
1

>  <SMILES>  (1) 
COc1cc(OC)c2c(c1)C(=O)SC2

>  <Energy>  (1) 
33.025359044483174

>  <Genealogy>  (1) 
COc1cc(OC)c2c(c1)C(=O)SC2 (3D coordinates assigned)
COc1cc(OC)c2c(c1)C(=O)SC2 (nonaromatic ring conformer: 33.025359044483174 kcal/mol)

>  <smiles>  (1) 
COc1cc(OC)c2c(c1)C(=O)SC2

>  <score_type>  (1) 
oracle

>  <origin>  (1) 
adg

>  <m_score__min__energy>  (1) 
-5.0099999999999998

>  <m_primary>  (1) 
energy

$$$$
1:0
     RDKit          3D

 35 36  0  0  0  0  0  0  0  0999 V2000
   62.6860   33.8590   48.3590 C   0  0  0  0  0  0  0  0  0  0  0  0
   61.3050   33.7230   47.7890 C   0  0  0  0  0  0  0  0  0  0  0  0
   60.2570   33.2400   48.5840 C   0  0  0  0  0  0  0  0  0  0  0  0
   58.9610   33.1490   48.0680 C   0  0  0  0  0  0  0  0  0  0  0  0
   58.6840   33.5680   46.7530 C   0  0  0  0  0  0  0  0  0  0  0  0
   57.3610   33.4860   46.1850 N   0  0  0  0  0  0  0  0  0  0  0  0
   57.0260   32.9410   44.8620 C   0  0  0  0  0  0  0  0  0  0  0  0
   57.8480   31.6710   44.4870 C   0  0  1  0  0  0  0  0  0  0  0  0
   57.4220   30.4400   45.2840 C   0  0  0  0  0  0  0  0  0  0  0  0
   56.5340   29.6330   44.3410 C   0  0  0  0  0  0  0  0  0  0  0  0
   56.6580   30.3050   42.9760 C   0  0  0  0  0  0  0  0  0  0  0  0
   57.7660   31.2550   43.0760 N   0  0  0  0  0  0  0  0  0  0  0  0
   57.7290   32.3220   42.0660 C   0  0  0  0  0  0  0  0  0  0  0  0
   59.7420   34.0510   45.9590 C   0  0  0  0  0  0  0  0  0  0  0  0
   59.5130   34.4630   44.6870 F   0  0  0  0  0  0  0  0  0  0  0  0
   61.0360   34.1400   46.4790 C   0  0  0  0  0  0  0  0  0  0  0  0
   62.6314   33.8536   49.4576 H   0  0  0  0  0  0  0  0  0  0  0  0
   63.3076   33.0177   48.0187 H   0  0  0  0  0  0  0  0  0  0  0  0
   63.1316   34.8054   48.0187 H   0  0  0  0  0  0  0  0  0  0  0  0
   60.4554   32.9305   49.6207 H   0  0  0  0  0  0  0  0  0  0  0  0
   58.1512   32.7468   48.6945 H   0  0  0  0  0  0  0  0  0  0  0  0
   56.5670   33.8290   46.7690 H   0  0  0  0  0  0  0  0  0  0  0  0
   55.9576   32.6794   44.8535 H   0  0  0  0  0  0  0  0  0  0  0  0
   57.2714   33.7160   44.1210 H   0  0  0  0  0  0  0  0  0  0  0  0
   58.8729   31.9963   44.7191 H   0  0  0  0  0  0  0  0  0  0  0  0
   58.3020   29.8511   45.5819 H   0  0  0  0  0  0  0  0  0  0  0  0
   56.8931   30.7146   46.2086 H   0  0  0  0  0  0  0  0  0  0  0  0
   56.8802   28.5903   44.2875 H   0  0  0  0  0  0  0  0  0  0  0  0
   55.4904   29.6105   44.6879 H   0  0  0  0  0  0  0  0  0  0  0  0
   56.8711   29.5538   42.2013 H   0  0  0  0  0  0  0  0  0  0  0  0
   55.7232   30.8141   42.6985 H   0  0  0  0  0  0  0  0  0  0  0  0
   57.6951   33.3005   42.5674 H   0  0  0  0  0  0  0  0  0  0  0  0
   58.6297   32.2632   41.4373 H   0  0  0  0  0  0  0  0  0  0  0  0
   56.8345   32.2009   41.4373 H   0  0  0  0  0  0  0  0  0  0  0  0
   61.8490   34.5403   45.8554 H   0  0  0  0  0  0  0  0  0  0  0  0
  1  2  1  0
  2  3  2  0
  3  4  1  0
  4  5  2  0
  5  6  1  0
  6  7  1  0
  7  8  1  0
  8  9  1  0
  9 10  1  0
 10 11  1  0
 11 12  1  0
 12 13  1  0
  5 14  1  0
 14 15  1  0
 14 16  2  0
 16  2  1  0
 12  8  1  0
  1 17  1  0
  1 18  1  0
  1 19  1  0
  3 20  1  0
  4 21  1  0
  6 22  1  0
  7 23  1  0
  7 24  1  0
  8 25  1  1
  9 26  1  0
  9 27  1  0
 10 28  1  0
 10 29  1  0
 11 30  1  0
 11 31  1  0
 13 32  1  0
 13 33  1  0
 13 34  1  0
 16 35  1  0
M  END
>  <UniqueID>  (2) 
2

>  <SMILES>  (2) 
Cc1ccc(NC[C@H]2CCCN2C)c(F)c1

>  <Energy>  (2) 
42.68357699826127

>  <Genealogy>  (2) 
Cc1ccc(NC[C@H]2CCCN2C)c(F)c1 (chirality)
Cc1ccc(NC[C@H]2CCCN2C)c(F)c1 (3D coordinates assigned)
Cc1ccc(NC[C@H]2CCCN2C)c(F)c1 (nonaromatic ring conformer: 42.68357699826127 kcal/mol)

>  <smiles>  (2) 
Cc1ccc(NCC2CCCN2C)c(F)c1

>  <score_type>  (2) 
oracle

>  <origin>  (2) 
adg

>  <m_score__min__energy>  (2) 
-5.7400000000000002

>  <m_primary>  (2) 
energy

$$$$
2:0
     RDKit          3D

 47 50  0  0  1  0  0  0  0  0999 V2000
   66.8470   32.9350   50.4960 C   0  0  0  0  0  0  0  0  0  0  0  0
   65.8450   31.8580   50.4970 N   0  0  0  0  0  0  0  0  0  0  0  0
   64.7200   31.9780   49.8900 C   0  0  0  0  0  0  0  0  0  0  0  0
   63.6300   31.3250   50.3500 N   0  0  0  0  0  0  0  0  0  0  0  0
   62.4290   31.4390   49.7210 C   0  0  0  0  0  0  0  0  0  0  0  0
   61.3140   30.7340   50.2430 N   0  0  0  0  0  0  0  0  0  0  0  0
   60.3540   31.3180   51.1610 C   0  0  0  0  0  0  0  0  0  0  0  0
   59.0090   31.2540   50.4710 C   0  0  0  0  0  0  0  0  0  0  0  0
   58.7840   30.0320   49.8670 O   0  0  0  0  0  0  0  0  0  0  0  0
   59.6440   29.0370   50.2790 C   0  0  0  0  0  0  0  0  0  0  0  0
   61.0720   29.3400   49.8650 C   0  0  0  0  0  0  0  0  0  0  0  0
   62.3920   32.2420   48.6160 C   0  0  0  0  0  0  0  0  0  0  0  0
   61.2040   32.3980   47.9360 C   0  0  0  0  0  0  0  0  0  0  0  0
   61.0850   33.1910   46.8110 C   0  0  0  0  0  0  0  0  0  0  0  0
   59.7910   33.3070   46.1470 C   0  0  0  0  0  0  0  0  0  0  0  0
   59.3060   34.5160   45.6760 C   0  0  0  0  0  0  0  0  0  0  0  0
   58.0680   34.5690   45.0520 C   0  0  0  0  0  0  0  0  0  0  0  0
   57.2890   33.4400   44.8820 C   0  0  0  0  0  0  0  0  0  0  0  0
   57.7650   32.2290   45.3480 C   0  0  0  0  0  0  0  0  0  0  0  0
   56.9670   31.1090   45.1660 O   0  0  0  0  0  0  0  0  0  0  0  0
   57.0050   30.4580   43.9260 C   0  0  0  0  0  0  0  0  0  0  0  0
   58.9980   32.1930   45.9650 C   0  0  0  0  0  0  0  0  0  0  0  0
   62.2200   33.8380   46.3760 C   0  0  0  0  0  0  0  0  0  0  0  0
   63.4060   33.7040   47.0250 N   0  0  0  0  0  0  0  0  0  0  0  0
   63.4880   32.9220   48.1210 C   0  0  0  0  0  0  0  0  0  0  0  0
   64.6460   32.7580   48.7980 N   0  0  0  0  0  0  0  0  0  0  0  0
   67.0972   33.2040   51.5328 H   0  0  0  0  0  0  0  0  0  0  0  0
   67.7541   32.5914   49.9772 H   0  0  0  0  0  0  0  0  0  0  0  0
   66.4389   33.8150   49.9772 H   0  0  0  0  0  0  0  0  0  0  0  0
   60.3277   30.7447   52.0994 H   0  0  0  0  0  0  0  0  0  0  0  0
   60.6235   32.3541   51.4137 H   0  0  0  0  0  0  0  0  0  0  0  0
   58.2204   31.4295   51.2175 H   0  0  0  0  0  0  0  0  0  0  0  0
   58.9986   32.0234   49.6849 H   0  0  0  0  0  0  0  0  0  0  0  0
   59.5980   28.9540   51.3749 H   0  0  0  0  0  0  0  0  0  0  0  0
   59.3368   28.0929   49.8054 H   0  0  0  0  0  0  0  0  0  0  0  0
   61.7720   28.6742   50.3910 H   0  0  0  0  0  0  0  0  0  0  0  0
   61.2211   29.1830   48.7865 H   0  0  0  0  0  0  0  0  0  0  0  0
   60.3127   31.8689   48.3043 H   0  0  0  0  0  0  0  0  0  0  0  0
   59.9016   35.4329   45.7966 H   0  0  0  0  0  0  0  0  0  0  0  0
   57.6962   35.5361   44.6824 H   0  0  0  0  0  0  0  0  0  0  0  0
   56.3095   33.5040   44.3856 H   0  0  0  0  0  0  0  0  0  0  0  0
   57.0684   29.3713   44.0842 H   0  0  0  0  0  0  0  0  0  0  0  0
   56.0916   30.6935   43.3601 H   0  0  0  0  0  0  0  0  0  0  0  0
   57.8848   30.7981   43.3601 H   0  0  0  0  0  0  0  0  0  0  0  0
   59.3688   31.2244   46.3315 H   0  0  0  0  0  0  0  0  0  0  0  0
   62.1652   34.4778   45.4829 H   0  0  0  0  0  0  0  0  0  0  0  0
   65.5260   33.2540   48.4690 H   0  0  0  0  0  0  0  0  0  0  0  0
  1  2  1  0
  2  3  2  0
  3  4  1  0
  4  5  2  0
  5  6  1  0
  6  7  1  0
  7  8  1  0
  8  9  1  0
  9 10  1  0
 10 11  1  0
  5 12  1  0
 12 13  2  0
 13 14  1  0
 14 15  1  0
 15 16  2  0
 16 17  1  0
 17 18  2  0
 18 19  1  0
 19 20  1  0
 20 21  1  0
 19 22  2  0
 14 23  2  0
 23 24  1  0
 24 25  2  0
 25 26  1  0
 26  3  1  0
 11  6  1  0
 25 12  1  0
 22 15  1  0
  1 27  1  0
  1 28  1  0
  1 29  1  0
  7 30  1  0
  7 31  1  0
  8 32  1  0
  8 33  1  0
 10 34  1  0
 10 35  1  0
 11 36  1  0
 11 37  1  0
 13 38  1  0
 16 39  1  0
 17 40  1  0
 18 41  1  0
 21 42  1  0
 21 43  1  0
 21 44  1  0
 22 45  1  0
 23 46  1  0
 26 47  1  0
M  END
>  <smiles>  (3) 
CN=c1nc(N2CCOCC2)c2cc(-c3cccc(OC)c3)cnc2[nH]1

>  <score_type>  (3) 
oracle

>  <origin>  (3) 
adg

>  <m_score__min__energy>  (3) 
-7.4299999999999997

>  <m_primary>  (3) 
energy

$$$$
3:0
     RDKit          3D

 44 45  0  0  0  0  0  0  0  0999 V2000
   63.4190   33.8000   46.6600 C   0  0  0  0  0  0  0  0  0  0  0  0
   62.1880   33.0360   47.1440 C   0  0  0  0  0  0  0  0  0  0  0  0
   62.4960   31.5640   47.4470 C   0  0  0  0  0  0  0  0  0  0  0  0
   61.2690   30.8140   47.8620 C   0  0  0  0  0  0  0  0  0  0  0  0
   60.5040   30.1040   47.0050 N   0  0  0  0  0  0  0  0  0  0  0  0
   59.4210   29.5610   47.6250 C   0  0  0  0  0  0  0  0  0  0  0  0
   58.4470   28.6890   46.8940 C   0  0  0  0  0  0  0  0  0  0  0  0
   58.2310   29.2050   45.5360 N   0  0  0  0  0  0  0  0  0  0  0  0
   59.2910   29.0940   44.5300 C   0  0  0  0  0  0  0  0  0  0  0  0
   56.9960   29.8620   45.1930 C   0  0  0  0  0  0  0  0  0  0  0  0
   55.9080   29.2240   45.2300 O   0  0  0  0  0  0  0  0  0  0  0  0
   56.9980   31.2440   44.8160 N   0  0  0  0  0  0  0  0  0  0  0  0
   58.0110   32.2020   45.2510 C   0  0  0  0  0  0  0  0  0  0  0  0
   57.9360   32.4060   46.7840 C   0  0  0  0  0  0  0  0  0  0  0  0
   58.4110   33.8000   47.2450 C   0  0  0  0  0  0  0  0  0  0  0  0
   59.4600   34.3840   46.2930 C   0  0  0  0  0  0  0  0  0  0  0  0
   58.9000   34.5570   44.8670 C   0  0  0  0  0  0  0  0  0  0  0  0
   57.8090   33.5290   44.5070 C   0  0  0  0  0  0  0  0  0  0  0  0
   59.3190   29.8330   48.9870 C   0  0  0  0  0  0  0  0  0  0  0  0
   60.6260   30.8000   49.4160 S   0  0  0  0  0  0  0  0  0  0  0  0
   63.9937   34.1567   47.5275 H   0  0  0  0  0  0  0  0  0  0  0  0
   64.0485   33.1336   46.0520 H   0  0  0  0  0  0  0  0  0  0  0  0
   63.1013   34.6599   46.0520 H   0  0  0  0  0  0  0  0  0  0  0  0
   61.8129   33.5145   48.0607 H   0  0  0  0  0  0  0  0  0  0  0  0
   61.4381   33.0634   46.3397 H   0  0  0  0  0  0  0  0  0  0  0  0
   62.9123   31.0940   46.5438 H   0  0  0  0  0  0  0  0  0  0  0  0
   63.2158   31.5291   48.2781 H   0  0  0  0  0  0  0  0  0  0  0  0
   58.8468   27.6659   46.8355 H   0  0  0  0  0  0  0  0  0  0  0  0
   57.4893   28.6852   47.4352 H   0  0  0  0  0  0  0  0  0  0  0  0
   60.2642   28.9921   45.0325 H   0  0  0  0  0  0  0  0  0  0  0  0
   59.1087   28.2100   43.9012 H   0  0  0  0  0  0  0  0  0  0  0  0
   59.2957   29.9966   43.9012 H   0  0  0  0  0  0  0  0  0  0  0  0
   59.0117   31.8120   45.0134 H   0  0  0  0  0  0  0  0  0  0  0  0
   56.8916   32.2715   47.1022 H   0  0  0  0  0  0  0  0  0  0  0  0
   58.6107   31.6674   47.2414 H   0  0  0  0  0  0  0  0  0  0  0  0
   57.5454   34.4778   47.2810 H   0  0  0  0  0  0  0  0  0  0  0  0
   58.8704   33.6947   48.2389 H   0  0  0  0  0  0  0  0  0  0  0  0
   59.7790   35.3659   46.6726 H   0  0  0  0  0  0  0  0  0  0  0  0
   60.3086   33.6856   46.2465 H   0  0  0  0  0  0  0  0  0  0  0  0
   58.4699   35.5658   44.7817 H   0  0  0  0  0  0  0  0  0  0  0  0
   59.7359   34.4001   44.1694 H   0  0  0  0  0  0  0  0  0  0  0  0
   56.8263   33.9429   44.7770 H   0  0  0  0  0  0  0  0  0  0  0  0
   57.8696   33.3290   43.4270 H   0  0  0  0  0  0  0  0  0  0  0  0
   58.5255   29.4787   49.6614 H   0  0  0  0  0  0  0  0  0  0  0  0
  1  2  1  0
  2  3  1  0
  3  4  1  0
  4  5  2  0
  5  6  1  0
  6  7  1  0
  7  8  1  0
  8  9  1  0
  8 10  1  0
 10 11  2  0
 10 12  1  0
 12 13  1  0
 13 14  1  0
 14 15  1  0
 15 16  1  0
 16 17  1  0
 17 18  1  0
  6 19  2  0
 19 20  1  0
 20  4  1  0
 18 13  1  0
  1 21  1  0
  1 22  1  0
  1 23  1  0
  2 24  1  0
  2 25  1  0
  3 26  1  0
  3 27  1  0
  7 28  1  0
  7 29  1  0
  9 30  1  0
  9 31  1  0
  9 32  1  0
 13 33  1  0
 14 34  1  0
 14 35  1  0
 15 36  1  0
 15 37  1  0
 16 38  1  0
 16 39  1  0
 17 40  1  0
 17 41  1  0
 18 42  1  0
 18 43  1  0
 19 44  1  0
M  CHG  1  12  -1
M  END
>  <UniqueID>  (4) 
3

>  <SMILES>  (4) 
CCCc1nc(CN(C)C(=O)[N-]C2CCCCC2)cs1

>  <Energy>  (4) 
61.122306374055405

>  <Genealogy>  (4) 
CCCc1nc(CN(C)C(=O)[N-]C2CCCCC2)cs1 (protonated)
CCCc1nc(CN(C)C(=O)[N-]C2CCCCC2)cs1 (3D coordinates assigned)
CCCc1nc(CN(C)C(=O)[N-]C2CCCCC2)cs1 (nonaromatic ring conformer: 61.122306374055405 kcal/mol)

>  <smiles>  (4) 
CCCc1nc(CN(C)C(=O)NC2CCCCC2)cs1

>  <score_type>  (4) 
oracle

>  <origin>  (4) 
adg

>  <m_score__min__energy>  (4) 
-9.3599999999999994

>  <m_primary>  (4) 
energy

$$$$
4:0
     RDKit          3D

 31 33  0  0  0  0  0  0  0  0999 V2000
   58.2877   33.4206   48.2314 H   0  0  0  0  0  0  0  0  0  0  0  0
   58.3360   33.5200   47.1370 C   0  0  0  0  0  0  0  0  0  0  0  0
   58.9390   34.6030   46.5810 N   0  0  0  0  0  0  0  0  0  0  0  0
   59.0170   34.7610   45.2340 C   0  0  0  0  0  0  0  0  0  0  0  0
   59.5112   35.6492   44.8133 H   0  0  0  0  0  0  0  0  0  0  0  0
   58.4710   33.7980   44.3820 C   0  0  0  0  0  0  0  0  0  0  0  0
   58.5270   33.9300   43.2914 H   0  0  0  0  0  0  0  0  0  0  0  0
   57.8500   32.6600   44.9240 C   0  0  0  0  0  0  0  0  0  0  0  0
   57.2630   31.6300   44.0320 C   0  0  0  0  0  0  0  0  0  0  0  0
   57.4310   31.7210   42.7870 O   0  0  0  0  0  0  0  0  0  0  0  0
   56.4440   30.5660   44.5370 N   0  0  0  0  0  0  0  0  0  0  0  0
   56.8740   29.4620   45.0760 C   0  0  0  0  0  0  0  0  0  0  0  0
   58.4190   29.3030   45.7430 S   0  0  0  0  0  0  0  0  0  0  0  0
   58.1340   27.7100   46.1970 C   0  0  0  0  0  0  0  0  0  0  0  0
   58.9890   26.8270   46.8470 C   0  0  0  0  0  0  0  0  0  0  0  0
   60.0067   27.1327   47.1312 H   0  0  0  0  0  0  0  0  0  0  0  0
   58.5190   25.5350   47.1310 C   0  0  0  0  0  0  0  0  0  0  0  0
   59.1757   24.8162   47.6430 H   0  0  0  0  0  0  0  0  0  0  0  0
   57.2030   25.1480   46.7630 C   0  0  0  0  0  0  0  0  0  0  0  0
   56.6970   23.8670   47.0300 O   0  0  0  0  0  0  0  0  0  0  0  0
   56.3910   22.9000   46.0310 C   0  0  0  0  0  0  0  0  0  0  0  0
   56.0926   21.9571   46.5126 H   0  0  0  0  0  0  0  0  0  0  0  0
   55.5657   23.2688   45.4043 H   0  0  0  0  0  0  0  0  0  0  0  0
   57.2783   22.7269   45.4043 H   0  0  0  0  0  0  0  0  0  0  0  0
   56.3650   26.0690   46.1070 C   0  0  0  0  0  0  0  0  0  0  0  0
   55.3429   25.7835   45.8175 H   0  0  0  0  0  0  0  0  0  0  0  0
   56.8470   27.3500   45.8280 C   0  0  0  0  0  0  0  0  0  0  0  0
   56.1380   28.3270   45.2070 N   0  0  0  0  0  0  0  0  0  0  0  0
   55.1440   28.2110   44.9040 H   0  0  0  0  0  0  0  0  0  0  0  0
   57.7770   32.5320   46.3220 C   0  0  0  0  0  0  0  0  0  0  0  0
   57.2824   31.6586   46.7721 H   0  0  0  0  0  0  0  0  0  0  0  0
  1  2  1  0
  2  3  2  0
  3  4  1  0
  4  5  1  0
  4  6  2  0
  6  7  1  0
  6  8  1  0
  8  9  1  0
  9 10  2  0
  9 11  1  0
 11 12  2  0
 12 13  1  0
 13 14  1  0
 14 15  2  0
 15 16  1  0
 15 17  1  0
 17 18  1  0
 17 19  2  0
 19 20  1  0
 20 21  1  0
 21 22  1  0
 21 23  1  0
 21 24  1  0
 19 25  1  0
 25 26  1  0
 25 27  2  0
 27 28  1  0
 28 29  1  0
  8 30  2  0
 30 31  1  0
 30  2  1  0
 28 12  1  0
 27 14  1  0
M  END
>  <UniqueID>  (5) 
4

>  <SMILES>  (5) 
COc1ccc2s/c(=N/C(=O)c3ccncc3)[nH]c2c1

>  <Energy>  (5) 
76.96763853690618

>  <Genealogy>  (5) 
COc1ccc2s/c(=N/C(=O)c3ccncc3)[nH]c2c1 (cis-trans isomerization)
COc1ccc2s/c(=N/C(=O)c3ccncc3)[nH]c2c1 (3D coordinates assigned)
COc1ccc2s/c(=N/C(=O)c3ccncc3)[nH]c2c1 (optimized conformer: 76.96763853690618 kcal/mol)

>  <smiles>  (5) 
COc1ccc2sc(=NC(=O)c3ccncc3)[nH]c2c1

>  <score_type>  (5) 
oracle

>  <origin>  (5) 
adg

>  <m_score__min__energy>  (5) 
-7.1399999999999997

>  <m_primary>  (5) 
energy

$$$$
5:0
     RDKit          3D

 36 38  0  0  0  0  0  0  0  0999 V2000
   59.3400   31.1450   48.2730 C   0  0  0  0  0  0  0  0  0  0  0  0
   59.8250   32.2250   47.3570 C   0  0  0  0  0  0  0  0  0  0  0  0
   59.0120   33.0090   46.5140 C   0  0  0  0  0  0  0  0  0  0  0  0
   57.5260   32.8760   46.3530 C   0  0  0  0  0  0  0  0  0  0  0  0
   57.2040   31.9670   45.2460 N   0  0  0  0  0  0  0  0  0  0  0  0
   58.3510   31.1110   44.9030 C   0  0  0  0  0  0  0  0  0  0  0  0
   57.9720   30.1260   43.7720 C   0  0  0  0  0  0  0  0  0  0  0  0
   56.6270   30.4930   43.0880 C   0  0  0  0  0  0  0  0  0  0  0  0
   55.4310   29.7030   43.6530 C   0  0  0  0  0  0  0  0  0  0  0  0
   55.6440   29.3960   45.0710 N   0  0  0  0  0  0  0  0  0  0  0  0
   56.7450   28.4340   45.2560 C   0  0  0  0  0  0  0  0  0  0  0  0
   57.9270   28.6740   44.2900 C   0  0  0  0  0  0  0  0  0  0  0  0
   59.9550   34.1960   45.7130 S   0  0  0  0  0  0  0  0  0  0  0  0
   61.3740   33.7030   46.4510 C   0  0  0  0  0  0  0  0  0  0  0  0
   62.6470   34.1730   46.3750 N   0  0  0  0  0  0  0  0  0  0  0  0
   63.4780   33.4940   47.1740 N   0  0  0  0  0  0  0  0  0  0  0  0
   62.6090   32.3060   47.9820 S   0  0  0  0  0  0  0  0  0  0  0  0
   61.1410   32.6660   47.2890 C   0  0  0  0  0  0  0  0  0  0  0  0
   59.4812   31.4594   49.3176 H   0  0  0  0  0  0  0  0  0  0  0  0
   58.2719   30.9589   48.0873 H   0  0  0  0  0  0  0  0  0  0  0  0
   59.9105   30.2230   48.0873 H   0  0  0  0  0  0  0  0  0  0  0  0
   57.0960   32.4780   47.2840 H   0  0  0  0  0  0  0  0  0  0  0  0
   57.1039   33.8673   46.1313 H   0  0  0  0  0  0  0  0  0  0  0  0
   56.4230   31.3520   45.5710 H   0  0  0  0  0  0  0  0  0  0  0  0
   59.1869   31.7427   44.5680 H   0  0  0  0  0  0  0  0  0  0  0  0
   58.6443   30.5352   45.7932 H   0  0  0  0  0  0  0  0  0  0  0  0
   58.7619   30.2091   43.0110 H   0  0  0  0  0  0  0  0  0  0  0  0
   56.4396   31.5668   43.2360 H   0  0  0  0  0  0  0  0  0  0  0  0
   56.7181   30.2361   42.0223 H   0  0  0  0  0  0  0  0  0  0  0  0
   54.5164   30.3046   43.5460 H   0  0  0  0  0  0  0  0  0  0  0  0
   55.3312   28.7601   43.0953 H   0  0  0  0  0  0  0  0  0  0  0  0
   54.7670   28.9650   45.4480 H   0  0  0  0  0  0  0  0  0  0  0  0
   57.1140   28.5184   46.2888 H   0  0  0  0  0  0  0  0  0  0  0  0
   56.3448   27.4318   45.0428 H   0  0  0  0  0  0  0  0  0  0  0  0
   58.8666   28.4578   44.8196 H   0  0  0  0  0  0  0  0  0  0  0  0
   57.7938   28.0106   43.4228 H   0  0  0  0  0  0  0  0  0  0  0  0
  1  2  1  0
  2  3  2  0
  3  4  1  0
  4  5  1  0
  5  6  1  0
  6  7  1  0
  7  8  1  0
  8  9  1  0
  9 10  1  0
 10 11  1  0
 11 12  1  0
  3 13  1  0
 13 14  1  0
 14 15  1  0
 15 16  2  0
 16 17  1  0
 17 18  1  0
 18  2  1  0
 12  7  1  0
 18 14  2  0
  1 19  1  0
  1 20  1  0
  1 21  1  0
  4 22  1  0
  4 23  1  0
  5 24  1  0
  6 25  1  0
  6 26  1  0
  7 27  1  0
  8 28  1  0
  8 29  1  0
  9 30  1  0
  9 31  1  0
 10 32  1  0
 11 33  1  0
 11 34  1  0
 12 35  1  0
 12 36  1  0
M  END
>  <UniqueID>  (6) 
5

>  <SMILES>  (6) 
Cc1c(CNCC2CCNCC2)sc2nnsc12

>  <Energy>  (6) 
120.43610873763289

>  <Genealogy>  (6) 
Cc1c(CNCC2CCNCC2)sc2nnsc12 (3D coordinates assigned)
Cc1c(CNCC2CCNCC2)sc2nnsc12 (nonaromatic ring conformer: 120.43610873763289 kcal/mol)

>  <smiles>  (6) 
Cc1c(CNCC2CCNCC2)sc2nnsc12

>  <score_type>  (6) 
oracle

>  <origin>  (6) 
adg

>  <m_score__min__energy>  (6) 
-7.9500000000000002

>  <m_primary>  (6) 
energy

$$$$
6:0
     RDKit          3D

 32 33  0  0  0  0  0  0  0  0999 V2000
   55.1630   29.7380   43.7520 C   0  0  0  0  0  0  0  0  0  0  0  0
   56.3010   29.5590   42.7420 C   0  0  0  0  0  0  0  0  0  0  0  0
   57.3460   28.6420   43.2410 N   0  0  0  0  0  0  0  0  0  0  0  0
   57.7070   28.8920   44.6570 C   0  0  0  0  0  0  0  0  0  0  0  0
   58.9160   29.8550   44.8200 C   0  0  2  0  0  0  0  0  0  0  0  0
   59.8900   29.3410   45.9030 C   0  0  0  0  0  0  0  0  0  0  0  0
   59.2890   29.4830   47.3060 C   0  0  0  0  0  0  0  0  0  0  0  0
   58.8390   30.8190   47.5390 O   0  0  0  0  0  0  0  0  0  0  0  0
   58.3960   31.6650   46.5150 C   0  0  0  0  0  0  0  0  0  0  0  0
   57.9270   32.9430   46.8380 C   0  0  0  0  0  0  0  0  0  0  0  0
   57.5500   33.8310   45.8270 C   0  0  0  0  0  0  0  0  0  0  0  0
   57.6530   33.4500   44.4870 C   0  0  0  0  0  0  0  0  0  0  0  0
   58.1140   32.1730   44.1550 C   0  0  0  0  0  0  0  0  0  0  0  0
   58.4680   31.2610   45.1650 C   0  0  0  0  0  0  0  0  0  0  0  0
   55.5660   29.6746   44.7735 H   0  0  0  0  0  0  0  0  0  0  0  0
   54.6925   30.7212   43.6038 H   0  0  0  0  0  0  0  0  0  0  0  0
   54.4134   28.9467   43.6038 H   0  0  0  0  0  0  0  0  0  0  0  0
   55.8863   29.1503   41.8088 H   0  0  0  0  0  0  0  0  0  0  0  0
   56.7643   30.5426   42.5750 H   0  0  0  0  0  0  0  0  0  0  0  0
   57.0120   27.6550   43.1410 H   0  0  0  0  0  0  0  0  0  0  0  0
   58.1870   28.7210   42.6250 H   0  0  0  0  0  0  0  0  0  0  0  0
   56.8377   29.3329   45.1668 H   0  0  0  0  0  0  0  0  0  0  0  0
   57.9972   27.9259   45.0957 H   0  0  0  0  0  0  0  0  0  0  0  0
   59.4367   29.8839   43.8515 H   0  0  0  0  0  0  0  0  0  0  0  0
   60.1094   28.2800   45.7130 H   0  0  0  0  0  0  0  0  0  0  0  0
   60.8094   29.9432   45.8568 H   0  0  0  0  0  0  0  0  0  0  0  0
   58.4366   28.7945   47.4033 H   0  0  0  0  0  0  0  0  0  0  0  0
   60.0666   29.2418   48.0457 H   0  0  0  0  0  0  0  0  0  0  0  0
   57.8547   33.2499   47.8918 H   0  0  0  0  0  0  0  0  0  0  0  0
   57.1718   34.8308   46.0866 H   0  0  0  0  0  0  0  0  0  0  0  0
   57.3709   34.1560   43.6920 H   0  0  0  0  0  0  0  0  0  0  0  0
   58.2003   31.8799   43.0983 H   0  0  0  0  0  0  0  0  0  0  0  0
  1  2  1  0
  2  3  1  0
  3  4  1  0
  4  5  1  0
  5  6  1  0
  6  7  1  0
  7  8  1  0
  8  9  1  0
  9 10  2  0
 10 11  1  0
 11 12  2  0
 12 13  1  0
 13 14  2  0
 14  5  1  0
 14  9  1  0
  1 15  1  0
  1 16  1  0
  1 17  1  0
  2 18  1  0
  2 19  1  0
  3 20  1  0
  3 21  1  0
  4 22  1  0
  4 23  1  0
  5 24  1  6
  6 25  1  0
  6 26  1  0
  7 27  1  0
  7 28  1  0
 10 29  1  0
 11 30  1  0
 12 31  1  0
 13 32  1  0
M  CHG  1   3   1
M  END
>  <UniqueID>  (7) 
6

>  <SMILES>  (7) 
CC[NH2+]C[C@@H]1CCOc2ccccc21

>  <Energy>  (7) 
32.30903369380007

>  <Genealogy>  (7) 
CC[NH2+]CC1CCOc2ccccc21 (protonated)
CC[NH2+]C[C@@H]1CCOc2ccccc21 (chirality)
CC[NH2+]C[C@@H]1CCOc2ccccc21 (3D coordinates assigned)
CC[NH2+]C[C@@H]1CCOc2ccccc21 (nonaromatic ring conformer: 32.30903369380007 kcal/mol)

>  <smiles>  (7) 
CCNCC1CCOc2ccccc21

>  <score_type>  (7) 
oracle

>  <origin>  (7) 
adg

>  <m_score__min__energy>  (7) 
-4.1699999999999999

>  <m_primary>  (7) 
energy

$$$$
7:0
     RDKit          3D

 28 28  0  0  0  0  0  0  0  0999 V2000
   59.4970   35.0150   45.6130 C   0  0  0  0  0  0  0  0  0  0  0  0
   58.7790   33.7360   45.2670 C   0  0  0  0  0  0  0  0  0  0  0  0
   58.4510   33.4720   43.9260 C   0  0  0  0  0  0  0  0  0  0  0  0
   57.7880   32.2940   43.5770 C   0  0  0  0  0  0  0  0  0  0  0  0
   57.4420   31.3630   44.5590 C   0  0  0  0  0  0  0  0  0  0  0  0
   56.5910   29.8900   44.1010 S   0  0  0  0  0  0  0  0  0  0  0  0
   56.6590   29.6700   42.6150 O   0  0  0  0  0  0  0  0  0  0  0  0
   55.1490   30.0270   44.5000 O   0  0  0  0  0  0  0  0  0  0  0  0
   57.2750   28.5170   44.9190 N   0  0  0  0  0  0  0  0  0  0  0  0
   58.0480   27.6510   44.3830 N   0  0  0  0  0  0  0  0  0  0  0  0
   59.2170   27.0970   45.0650 C   0  0  0  0  0  0  0  0  0  0  0  0
   57.7650   27.2040   43.1100 O   0  0  0  0  0  0  0  0  0  0  0  0
   57.7710   31.6090   45.8970 C   0  0  0  0  0  0  0  0  0  0  0  0
   58.4430   32.7890   46.2630 C   0  0  0  0  0  0  0  0  0  0  0  0
   58.7760   33.0280   47.7130 C   0  0  0  0  0  0  0  0  0  0  0  0
   59.5551   35.1186   46.7066 H   0  0  0  0  0  0  0  0  0  0  0  0
   60.5132   34.9903   45.1925 H   0  0  0  0  0  0  0  0  0  0  0  0
   58.9468   35.8697   45.1925 H   0  0  0  0  0  0  0  0  0  0  0  0
   58.7188   34.1993   43.1454 H   0  0  0  0  0  0  0  0  0  0  0  0
   57.5370   32.0982   42.5241 H   0  0  0  0  0  0  0  0  0  0  0  0
   59.0730   27.1652   46.1534 H   0  0  0  0  0  0  0  0  0  0  0  0
   59.3440   26.0429   44.7773 H   0  0  0  0  0  0  0  0  0  0  0  0
   60.1133   27.6661   44.7773 H   0  0  0  0  0  0  0  0  0  0  0  0
   56.9250   27.5010   42.6270 H   0  0  0  0  0  0  0  0  0  0  0  0
   57.5016   30.8731   46.6689 H   0  0  0  0  0  0  0  0  0  0  0  0
   58.0463   32.5043   48.3479 H   0  0  0  0  0  0  0  0  0  0  0  0
   59.7861   32.6474   47.9248 H   0  0  0  0  0  0  0  0  0  0  0  0
   58.7387   34.1068   47.9248 H   0  0  0  0  0  0  0  0  0  0  0  0
  1  2  1  0
  2  3  2  0
  3  4  1  0
  4  5  2  0
  5  6  1  0
  6  7  2  0
  6  8  2  0
  6  9  1  0
  9 10  2  3
 10 11  1  0
 10 12  1  0
  5 13  1  0
 13 14  2  0
 14 15  1  0
 14  2  1  0
  1 16  1  0
  1 17  1  0
  1 18  1  0
  3 19  1  0
  4 20  1  0
 11 21  1  0
 11 22  1  0
 11 23  1  0
 12 24  1  0
 13 25  1  0
 15 26  1  0
 15 27  1  0
 15 28  1  0
M  CHG  1  10   1
M  END
>  <UniqueID>  (8) 
7

>  <SMILES>  (8) 
Cc1ccc(S(=O)(=O)N=[N+](C)O)cc1C

>  <Energy>  (8) 
29.027412987070708

>  <Genealogy>  (8) 
Cc1ccc(S(=O)(=O)N=[N+](C)O)cc1C (protonated)
Cc1ccc(S(=O)(=O)N=[N+](C)O)cc1C (3D coordinates assigned)
Cc1ccc(S(=O)(=O)N=[N+](C)O)cc1C (optimized conformer: 29.027412987070708 kcal/mol)

>  <smiles>  (8) 
Cc1ccc(S(=O)(=O)N=[N+](C)[O-])cc1C

>  <score_type>  (8) 
oracle

>  <origin>  (8) 
adg

>  <m_score__min__energy>  (8) 
-5.2199999999999998

>  <m_primary>  (8) 
energy

$$$$
8:0
     RDKit          3D

 36 37  0  0  0  0  0  0  0  0999 V2000
   57.6310   32.3400   40.9350 C   0  0  0  0  0  0  0  0  0  0  0  0
   58.1330   32.3360   42.3750 C   0  0  0  0  0  0  0  0  0  0  0  0
   57.3900   31.3570   43.1690 N   0  0  0  0  0  0  0  0  0  0  0  0
   56.5600   30.4190   42.6800 C   0  0  0  0  0  0  0  0  0  0  0  0
   56.1060   29.6570   43.7320 C   0  0  0  0  0  0  0  0  0  0  0  0
   56.6540   30.1020   44.8810 N   0  0  0  0  0  0  0  0  0  0  0  0
   57.4450   31.1300   44.5020 C   0  0  0  0  0  0  0  0  0  0  0  0
   58.2300   31.9740   45.4880 C   0  0  2  0  0  0  0  0  0  0  0  0
   58.5110   31.2230   46.7970 C   0  0  0  0  0  0  0  0  0  0  0  0
   57.5970   33.2830   45.7490 N   0  0  0  0  0  0  0  0  0  0  0  0
   58.5010   34.4350   45.6070 C   0  0  0  0  0  0  0  0  0  0  0  0
   59.6790   34.2610   46.5240 C   0  0  0  0  0  0  0  0  0  0  0  0
   60.9280   33.8760   46.0100 C   0  0  0  0  0  0  0  0  0  0  0  0
   62.0130   33.6790   46.8710 C   0  0  0  0  0  0  0  0  0  0  0  0
   61.8550   33.8530   48.2490 C   0  0  0  0  0  0  0  0  0  0  0  0
   62.9070   33.6600   49.0810 F   0  0  0  0  0  0  0  0  0  0  0  0
   60.6100   34.2210   48.7690 C   0  0  0  0  0  0  0  0  0  0  0  0
   59.5230   34.4180   47.9110 C   0  0  0  0  0  0  0  0  0  0  0  0
   56.5310   32.3488   40.9302 H   0  0  0  0  0  0  0  0  0  0  0  0
   58.0071   33.2352   40.4181 H   0  0  0  0  0  0  0  0  0  0  0  0
   57.9928   31.4389   40.4181 H   0  0  0  0  0  0  0  0  0  0  0  0
   59.2018   32.0761   42.3860 H   0  0  0  0  0  0  0  0  0  0  0  0
   57.9839   33.3358   42.8087 H   0  0  0  0  0  0  0  0  0  0  0  0
   56.2905   30.2841   41.6221 H   0  0  0  0  0  0  0  0  0  0  0  0
   55.4039   28.8143   43.6485 H   0  0  0  0  0  0  0  0  0  0  0  0
   59.1981   32.1765   45.0066 H   0  0  0  0  0  0  0  0  0  0  0  0
   58.2682   31.8719   47.6514 H   0  0  0  0  0  0  0  0  0  0  0  0
   57.8919   30.3147   46.8388 H   0  0  0  0  0  0  0  0  0  0  0  0
   59.5743   30.9442   46.8388 H   0  0  0  0  0  0  0  0  0  0  0  0
   57.2270   33.2830   46.7280 H   0  0  0  0  0  0  0  0  0  0  0  0
   58.8522   34.4999   44.5666 H   0  0  0  0  0  0  0  0  0  0  0  0
   57.9639   35.3582   45.8699 H   0  0  0  0  0  0  0  0  0  0  0  0
   61.0536   33.7289   44.9271 H   0  0  0  0  0  0  0  0  0  0  0  0
   62.9918   33.3868   46.4630 H   0  0  0  0  0  0  0  0  0  0  0  0
   60.4855   34.3556   49.8536 H   0  0  0  0  0  0  0  0  0  0  0  0
   58.5424   34.6969   48.3240 H   0  0  0  0  0  0  0  0  0  0  0  0
  1  2  1  0
  2  3  1  0
  3  4  1  0
  4  5  2  0
  5  6  1  0
  6  7  2  0
  7  8  1  0
  8  9  1  0
  8 10  1  0
 10 11  1  0
 11 12  1  0
 12 13  2  0
 13 14  1  0
 14 15  2  0
 15 16  1  0
 15 17  1  0
 17 18  2  0
  7  3  1  0
 18 12  1  0
  1 19  1  0
  1 20  1  0
  1 21  1  0
  2 22  1  0
  2 23  1  0
  4 24  1  0
  5 25  1  0
  8 26  1  6
  9 27  1  0
  9 28  1  0
  9 29  1  0
 10 30  1  0
 11 31  1  0
 11 32  1  0
 13 33  1  0
 14 34  1  0
 17 35  1  0
 18 36  1  0
M  END
>  <UniqueID>  (9) 
8

>  <SMILES>  (9) 
CCn1ccnc1[C@H](C)NCc1ccc(F)cc1

>  <Energy>  (9) 
61.37289544947966

>  <Genealogy>  (9) 
CCn1ccnc1[C@H](C)NCc1ccc(F)cc1 (chirality)
CCn1ccnc1[C@H](C)NCc1ccc(F)cc1 (3D coordinates assigned)
CCn1ccnc1[C@H](C)NCc1ccc(F)cc1 (optimized conformer: 61.37289544947966 kcal/mol)

>  <smiles>  (9) 
CCn1ccnc1C(C)NCc1ccc(F)cc1

>  <score_type>  (9) 
oracle

>  <origin>  (9) 
adg

>  <m_score__min__energy>  (9) 
-6.4699999999999998

>  <m_primary>  (9) 
energy

$$$$
9:0
     RDKit          3D

 42 44  0  0  0  0  0  0  0  0999 V2000
   58.0660   26.7100   43.1780 C   0  0  0  0  0  0  0  0  0  0  0  0
   58.1080   28.0980   43.7440 C   0  0  0  0  0  0  0  0  0  0  0  0
   57.0980   29.0190   43.4340 C   0  0  0  0  0  0  0  0  0  0  0  0
   57.1540   30.3230   43.9310 C   0  0  0  0  0  0  0  0  0  0  0  0
   58.2310   30.7360   44.7370 C   0  0  0  0  0  0  0  0  0  0  0  0
   58.2920   32.1220   45.2670 C   0  0  0  0  0  0  0  0  0  0  0  0
   57.3260   33.1020   45.0890 C   0  0  0  0  0  0  0  0  0  0  0  0
   57.7740   34.2230   45.7580 C   0  0  0  0  0  0  0  0  0  0  0  0
   58.9950   33.8850   46.3050 C   0  0  0  0  0  0  0  0  0  0  0  0
   59.8380   34.7780   47.1710 C   0  0  0  0  0  0  0  0  0  0  0  0
   59.5270   34.6020   48.6000 N   0  0  0  0  0  0  0  0  0  0  0  0
   60.7180   34.2300   49.3820 C   0  0  0  0  0  0  0  0  0  0  0  0
   61.6300   33.3530   48.5660 C   0  0  0  0  0  0  0  0  0  0  0  0
   61.3050   32.0050   48.3460 C   0  0  0  0  0  0  0  0  0  0  0  0
   62.1700   31.1820   47.6170 C   0  0  0  0  0  0  0  0  0  0  0  0
   63.3690   31.6960   47.1140 C   0  0  0  0  0  0  0  0  0  0  0  0
   63.7060   33.0320   47.3430 C   0  0  0  0  0  0  0  0  0  0  0  0
   62.8440   33.8590   48.0710 C   0  0  0  0  0  0  0  0  0  0  0  0
   59.3060   32.6090   46.0120 N   0  0  0  0  0  0  0  0  0  0  0  0
   59.2500   29.8110   45.0320 C   0  0  0  0  0  0  0  0  0  0  0  0
   59.1910   28.5080   44.5340 C   0  0  0  0  0  0  0  0  0  0  0  0
   58.0439   25.9793   44.0000 H   0  0  0  0  0  0  0  0  0  0  0  0
   57.1639   26.5934   42.5594 H   0  0  0  0  0  0  0  0  0  0  0  0
   58.9594   26.5391   42.5594 H   0  0  0  0  0  0  0  0  0  0  0  0
   56.2562   28.7130   42.7955 H   0  0  0  0  0  0  0  0  0  0  0  0
   56.3493   31.0333   43.6903 H   0  0  0  0  0  0  0  0  0  0  0  0
   56.3867   33.0045   44.5249 H   0  0  0  0  0  0  0  0  0  0  0  0
   57.2603   35.1923   45.8390 H   0  0  0  0  0  0  0  0  0  0  0  0
   60.8986   34.5380   47.0047 H   0  0  0  0  0  0  0  0  0  0  0  0
   59.6229   35.8219   46.8991 H   0  0  0  0  0  0  0  0  0  0  0  0
   58.7830   33.8720   48.7130 H   0  0  0  0  0  0  0  0  0  0  0  0
   59.1530   35.5110   48.9640 H   0  0  0  0  0  0  0  0  0  0  0  0
   61.2588   35.1422   49.6745 H   0  0  0  0  0  0  0  0  0  0  0  0
   60.3980   33.6763   50.2770 H   0  0  0  0  0  0  0  0  0  0  0  0
   60.3670   31.5946   48.7482 H   0  0  0  0  0  0  0  0  0  0  0  0
   61.9065   30.1289   47.4393 H   0  0  0  0  0  0  0  0  0  0  0  0
   64.0466   31.0485   46.5382 H   0  0  0  0  0  0  0  0  0  0  0  0
   64.6512   33.4347   46.9501 H   0  0  0  0  0  0  0  0  0  0  0  0
   63.1172   34.9083   48.2565 H   0  0  0  0  0  0  0  0  0  0  0  0
   60.1740   32.1100   46.3050 H   0  0  0  0  0  0  0  0  0  0  0  0
   60.0997   30.1171   45.6600 H   0  0  0  0  0  0  0  0  0  0  0  0
   59.9997   27.7984   44.7631 H   0  0  0  0  0  0  0  0  0  0  0  0
  1  2  1  0
  2  3  2  0
  3  4  1  0
  4  5  2  0
  5  6  1  0
  6  7  2  0
  7  8  1  0
  8  9  2  0
  9 10  1  0
 10 11  1  0
 11 12  1  0
 12 13  1  0
 13 14  2  0
 14 15  1  0
 15 16  2  0
 16 17  1  0
 17 18  2  0
  9 19  1  0
  5 20  1  0
 20 21  2  0
 21  2  1  0
 19  6  1  0
 18 13  1  0
  1 22  1  0
  1 23  1  0
  1 24  1  0
  3 25  1  0
  4 26  1  0
  7 27  1  0
  8 28  1  0
 10 29  1  0
 10 30  1  0
 11 31  1  0
 11 32  1  0
 12 33  1  0
 12 34  1  0
 14 35  1  0
 15 36  1  0
 16 37  1  0
 17 38  1  0
 18 39  1  0
 19 40  1  0
 20 41  1  0
 21 42  1  0
M  CHG  1  11   1
M  END
>  <UniqueID>  (10) 
9

>  <SMILES>  (10) 
Cc1ccc(-c2ccc(C[NH2+]Cc3ccccc3)[nH]2)cc1

>  <Energy>  (10) 
69.19958872234668

>  <Genealogy>  (10) 
Cc1ccc(-c2ccc(C[NH2+]Cc3ccccc3)[nH]2)cc1 (protonated)
Cc1ccc(-c2ccc(C[NH2+]Cc3ccccc3)[nH]2)cc1 (3D coordinates assigned)
Cc1ccc(-c2ccc(C[NH2+]Cc3ccccc3)[nH]2)cc1 (optimized conformer: 69.19958872234668 kcal/mol)

>  <smiles>  (10) 
Cc1ccc(-c2ccc(CNCc3ccccc3)[nH]2)cc1

>  <score_type>  (10) 
oracle

>  <origin>  (10) 
adg

>  <m_score__min__energy>  (10) 
-5.6699999999999999

>  <m_primary>  (10) 
energy

$$$$
10:0
     RDKit          3D

 41 43  0  0  0  0  0  0  0  0999 V2000
   56.1990   22.5850   48.2780 C   0  0  0  0  0  0  0  0  0  0  0  0
   57.3740   22.9740   47.5750 O   0  0  0  0  0  0  0  0  0  0  0  0
   57.4450   24.0590   46.6900 C   0  0  0  0  0  0  0  0  0  0  0  0
   57.5290   23.8930   45.2940 C   0  0  0  0  0  0  0  0  0  0  0  0
   57.5950   25.0070   44.4540 C   0  0  0  0  0  0  0  0  0  0  0  0
   57.5700   26.3070   44.9900 C   0  0  0  0  0  0  0  0  0  0  0  0
   57.6500   27.4720   44.1490 N   0  0  0  0  0  0  0  0  0  0  0  0
   58.0310   28.7730   44.6190 C   0  0  0  0  0  0  0  0  0  0  0  0
   59.2760   28.9460   45.2200 C   0  0  0  0  0  0  0  0  0  0  0  0
   59.6440   30.1710   45.6660 N   0  0  0  0  0  0  0  0  0  0  0  0
   58.8490   31.2430   45.5720 N   0  0  0  0  0  0  0  0  0  0  0  0
   59.3750   32.5190   46.0980 C   0  0  0  0  0  0  0  0  0  0  0  0
   59.2720   33.6660   45.0680 C   0  0  0  0  0  0  0  0  0  0  0  0
   59.2840   35.0370   45.7650 C   0  0  0  0  0  0  0  0  0  0  0  0
   60.0240   34.9770   46.9680 O   0  0  0  0  0  0  0  0  0  0  0  0
   59.3040   34.2500   47.9550 C   0  0  0  0  0  0  0  0  0  0  0  0
   58.7340   32.9050   47.4430 C   0  0  0  0  0  0  0  0  0  0  0  0
   57.5970   31.1180   45.0160 C   0  0  0  0  0  0  0  0  0  0  0  0
   56.8230   32.1110   44.9310 O   0  0  0  0  0  0  0  0  0  0  0  0
   57.1660   29.8730   44.5370 C   0  0  0  0  0  0  0  0  0  0  0  0
   55.5290   29.6970   43.9010 Cl  0  0  0  0  0  0  0  0  0  0  0  0
   57.5020   26.4680   46.3820 C   0  0  0  0  0  0  0  0  0  0  0  0
   57.4350   25.3540   47.2220 C   0  0  0  0  0  0  0  0  0  0  0  0
   56.3826   22.6458   49.3609 H   0  0  0  0  0  0  0  0  0  0  0  0
   55.3709   23.2569   48.0082 H   0  0  0  0  0  0  0  0  0  0  0  0
   55.9355   21.5517   48.0082 H   0  0  0  0  0  0  0  0  0  0  0  0
   57.5427   22.8810   44.8630 H   0  0  0  0  0  0  0  0  0  0  0  0
   57.6671   24.8665   43.3654 H   0  0  0  0  0  0  0  0  0  0  0  0
   57.3020   27.3970   43.1660 H   0  0  0  0  0  0  0  0  0  0  0  0
   59.9581   28.0903   45.3320 H   0  0  0  0  0  0  0  0  0  0  0  0
   60.4458   32.3541   46.2880 H   0  0  0  0  0  0  0  0  0  0  0  0
   60.1259   33.6065   44.3771 H   0  0  0  0  0  0  0  0  0  0  0  0
   58.3240   33.5603   44.5201 H   0  0  0  0  0  0  0  0  0  0  0  0
   59.7427   35.7792   45.0950 H   0  0  0  0  0  0  0  0  0  0  0  0
   58.2485   35.3247   45.9995 H   0  0  0  0  0  0  0  0  0  0  0  0
   59.9811   34.0426   48.7967 H   0  0  0  0  0  0  0  0  0  0  0  0
   58.4460   34.8716   48.2508 H   0  0  0  0  0  0  0  0  0  0  0  0
   58.9451   32.1185   48.1825 H   0  0  0  0  0  0  0  0  0  0  0  0
   57.6487   33.0127   47.2995 H   0  0  0  0  0  0  0  0  0  0  0  0
   57.5014   27.4791   46.8152 H   0  0  0  0  0  0  0  0  0  0  0  0
   57.3738   25.4954   48.3112 H   0  0  0  0  0  0  0  0  0  0  0  0
  1  2  1  0
  2  3  1  0
  3  4  2  0
  4  5  1  0
  5  6  2  0
  6  7  1  0
  7  8  1  0
  8  9  1  0
  9 10  2  0
 10 11  1  0
 11 12  1  0
 12 13  1  0
 13 14  1  0
 14 15  1  0
 15 16  1  0
 16 17  1  0
 11 18  1  0
 18 19  2  0
 18 20  1  0
 20 21  1  0
  6 22  1  0
 22 23  2  0
 23  3  1  0
 20  8  2  0
 17 12  1  0
  1 24  1  0
  1 25  1  0
  1 26  1  0
  4 27  1  0
  5 28  1  0
  7 29  1  0
  9 30  1  0
 12 31  1  0
 13 32  1  0
 13 33  1  0
 14 34  1  0
 14 35  1  0
 16 36  1  0
 16 37  1  0
 17 38  1  0
 17 39  1  0
 22 40  1  0
 23 41  1  0
M  END
>  <UniqueID>  (11) 
10

>  <SMILES>  (11) 
COc1ccc(Nc2cnn(C3CCOCC3)c(=O)c2Cl)cc1

>  <Energy>  (11) 
61.23176120092674

>  <Genealogy>  (11) 
COc1ccc(Nc2cnn(C3CCOCC3)c(=O)c2Cl)cc1 (3D coordinates assigned)
COc1ccc(Nc2cnn(C3CCOCC3)c(=O)c2Cl)cc1 (nonaromatic ring conformer: 61.23176120092674 kcal/mol)

>  <smiles>  (11) 
COc1ccc(Nc2cnn(C3CCOCC3)c(=O)c2Cl)cc1

>  <score_type>  (11) 
oracle

>  <origin>  (11) 
adg

>  <m_score__min__energy>  (11) 
-7.4000000000000004

>  <m_primary>  (11) 
energy

$$$$
11:0
     RDKit          3D

 45 47  0  0  0  0  0  0  0  0999 V2000
   62.9150   33.8400   47.3860 C   0  0  0  0  0  0  0  0  0  0  0  0
   61.6160   34.1970   48.6090 S   0  0  0  0  0  0  0  0  0  0  0  0
   60.2800   33.9950   47.4250 C   0  0  0  0  0  0  0  0  0  0  0  0
   60.2460   34.8360   46.3550 N   0  0  0  0  0  0  0  0  0  0  0  0
   59.2450   34.8010   45.4390 C   0  0  0  0  0  0  0  0  0  0  0  0
   58.1950   33.8980   45.5880 C   0  0  0  0  0  0  0  0  0  0  0  0
   58.1980   33.0220   46.6720 C   0  0  0  0  0  0  0  0  0  0  0  0
   59.2510   33.0420   47.5980 C   0  0  0  0  0  0  0  0  0  0  0  0
   59.2210   32.0740   48.7180 C   0  0  0  0  0  0  0  0  0  0  0  0
   58.1480   31.9790   49.3780 O   0  0  0  0  0  0  0  0  0  0  0  0
   60.3710   31.2350   49.0430 N   0  0  0  0  0  0  0  0  0  0  0  0
   59.9900   29.9180   49.6120 C   0  0  0  0  0  0  0  0  0  0  0  0
   59.5120   28.9130   48.5370 C   0  0  0  0  0  0  0  0  0  0  0  0
   59.3120   29.5820   47.2360 N   0  0  0  0  0  0  0  0  0  0  0  0
   58.7670   28.6520   46.2290 C   0  0  0  0  0  0  0  0  0  0  0  0
   57.9770   29.4110   45.1970 C   0  0  0  0  0  0  0  0  0  0  0  0
   58.5560   30.4780   44.4890 C   0  0  0  0  0  0  0  0  0  0  0  0
   57.8180   31.1610   43.5180 C   0  0  0  0  0  0  0  0  0  0  0  0
   56.5010   30.7830   43.2450 C   0  0  0  0  0  0  0  0  0  0  0  0
   55.9210   29.7190   43.9420 C   0  0  0  0  0  0  0  0  0  0  0  0
   56.6540   29.0330   44.9140 C   0  0  0  0  0  0  0  0  0  0  0  0
   60.5750   30.1850   46.7650 C   0  0  0  0  0  0  0  0  0  0  0  0
   61.2520   31.0290   47.8710 C   0  0  0  0  0  0  0  0  0  0  0  0
   63.8489   33.5833   47.9074 H   0  0  0  0  0  0  0  0  0  0  0  0
   62.6027   32.9944   46.7556 H   0  0  0  0  0  0  0  0  0  0  0  0
   63.0787   34.7265   46.7556 H   0  0  0  0  0  0  0  0  0  0  0  0
   59.2630   35.4861   44.5786 H   0  0  0  0  0  0  0  0  0  0  0  0
   57.3724   33.8765   44.8581 H   0  0  0  0  0  0  0  0  0  0  0  0
   57.3692   32.3105   46.8020 H   0  0  0  0  0  0  0  0  0  0  0  0
   60.9270   31.7280   49.7760 H   0  0  0  0  0  0  0  0  0  0  0  0
   60.8638   29.4921   50.1268 H   0  0  0  0  0  0  0  0  0  0  0  0
   59.1504   30.0871   50.3022 H   0  0  0  0  0  0  0  0  0  0  0  0
   60.2685   28.1228   48.4222 H   0  0  0  0  0  0  0  0  0  0  0  0
   58.5520   28.4847   48.8611 H   0  0  0  0  0  0  0  0  0  0  0  0
   59.5960   28.1232   45.7359 H   0  0  0  0  0  0  0  0  0  0  0  0
   58.1054   27.9287   46.7281 H   0  0  0  0  0  0  0  0  0  0  0  0
   59.5935   30.7767   44.6997 H   0  0  0  0  0  0  0  0  0  0  0  0
   58.2747   31.9971   42.9682 H   0  0  0  0  0  0  0  0  0  0  0  0
   55.9207   31.3224   42.4819 H   0  0  0  0  0  0  0  0  0  0  0  0
   54.8847   29.4210   43.7247 H   0  0  0  0  0  0  0  0  0  0  0  0
   56.1941   28.1953   45.4587 H   0  0  0  0  0  0  0  0  0  0  0  0
   61.2614   29.3818   46.4588 H   0  0  0  0  0  0  0  0  0  0  0  0
   60.3441   30.8491   45.9191 H   0  0  0  0  0  0  0  0  0  0  0  0
   62.1645   30.5112   48.2017 H   0  0  0  0  0  0  0  0  0  0  0  0
   61.4808   32.0173   47.4457 H   0  0  0  0  0  0  0  0  0  0  0  0
  1  2  1  0
  2  3  1  0
  3  4  2  0
  4  5  1  0
  5  6  2  0
  6  7  1  0
  7  8  2  0
  8  9  1  0
  9 10  2  0
  9 11  1  0
 11 12  1  0
 12 13  1  0
 13 14  1  0
 14 15  1  0
 15 16  1  0
 16 17  2  0
 17 18  1  0
 18 19  2  0
 19 20  1  0
 20 21  2  0
 14 22  1  0
 22 23  1  0
  8  3  1  0
 23 11  1  0
 21 16  1  0
  1 24  1  0
  1 25  1  0
  1 26  1  0
  5 27  1  0
  6 28  1  0
  7 29  1  0
 11 30  1  0
 12 31  1  0
 12 32  1  0
 13 33  1  0
 13 34  1  0
 15 35  1  0
 15 36  1  0
 17 37  1  0
 18 38  1  0
 19 39  1  0
 20 40  1  0
 21 41  1  0
 22 42  1  0
 22 43  1  0
 23 44  1  0
 23 45  1  0
M  CHG  1  11   1
M  END
>  <UniqueID>  (12) 
11

>  <SMILES>  (12) 
CSc1ncccc1C(=O)[NH+]1CCN(Cc2ccccc2)CC1

>  <Energy>  (12) 
63.68608812490988

>  <Genealogy>  (12) 
CSc1ncccc1C(=O)[NH+]1CCN(Cc2ccccc2)CC1 (protonated)
CSc1ncccc1C(=O)[NH+]1CCN(Cc2ccccc2)CC1 (3D coordinates assigned)
CSc1ncccc1C(=O)[NH+]1CCN(Cc2ccccc2)CC1 (nonaromatic ring conformer: 63.68608812490988 kcal/mol)

>  <smiles>  (12) 
CSc1ncccc1C(=O)N1CCN(Cc2ccccc2)CC1

>  <score_type>  (12) 
oracle

>  <origin>  (12) 
adg

>  <m_score__min__energy>  (12) 
-6.29

>  <m_primary>  (12) 
energy

$$$$
12:0
     RDKit          3D

 35 37  0  0  0  0  0  0  0  0999 V2000
   55.5220   28.5970   45.1530 O   0  0  0  0  0  0  0  0  0  0  0  0
   55.9690   29.6360   44.5980 C   0  0  0  0  0  0  0  0  0  0  0  0
   55.1410   30.7410   44.4460 O   0  0  0  0  0  0  0  0  0  0  0  0
   57.3520   29.6590   44.0290 C   0  0  0  0  0  0  0  0  0  0  0  0
   58.3320   30.0780   45.0360 N   0  0  0  0  0  0  0  0  0  0  0  0
   58.8990   31.3060   45.1960 C   0  0  0  0  0  0  0  0  0  0  0  0
   58.4830   32.7550   44.2170 S   0  0  0  0  0  0  0  0  0  0  0  0
   57.5630   33.6020   45.5490 C   0  0  0  0  0  0  0  0  0  0  0  0
   58.3170   33.5700   46.8520 C   0  0  0  0  0  0  0  0  0  0  0  0
   57.8920   32.7130   47.8800 C   0  0  0  0  0  0  0  0  0  0  0  0
   58.5660   32.6900   49.1040 C   0  0  0  0  0  0  0  0  0  0  0  0
   59.6750   33.5150   49.3090 C   0  0  0  0  0  0  0  0  0  0  0  0
   60.6050   33.4700   50.9760 Br  0  0  0  0  0  0  0  0  0  0  0  0
   60.1100   34.3660   48.2890 C   0  0  0  0  0  0  0  0  0  0  0  0
   59.4390   34.3940   47.0620 C   0  0  0  0  0  0  0  0  0  0  0  0
   59.8820   35.2280   46.0870 F   0  0  0  0  0  0  0  0  0  0  0  0
   59.8470   31.3220   46.1640 N   0  0  0  0  0  0  0  0  0  0  0  0
   59.8580   30.0660   46.6370 C   0  0  0  0  0  0  0  0  0  0  0  0
   60.6560   29.5340   47.6480 C   0  0  0  0  0  0  0  0  0  0  0  0
   60.4960   28.1700   47.9550 C   0  0  0  0  0  0  0  0  0  0  0  0
   59.5580   27.3820   47.2490 C   0  0  0  0  0  0  0  0  0  0  0  0
   58.7690   27.9510   46.2310 C   0  0  0  0  0  0  0  0  0  0  0  0
   58.9470   29.3090   45.9570 C   0  0  0  0  0  0  0  0  0  0  0  0
   57.6109   28.6506   43.6740 H   0  0  0  0  0  0  0  0  0  0  0  0
   57.3754   30.3800   43.1986 H   0  0  0  0  0  0  0  0  0  0  0  0
   57.3979   34.6499   45.2580 H   0  0  0  0  0  0  0  0  0  0  0  0
   56.6065   33.0782   45.6926 H   0  0  0  0  0  0  0  0  0  0  0  0
   57.0240   32.0563   47.7210 H   0  0  0  0  0  0  0  0  0  0  0  0
   58.2230   32.0214   49.9073 H   0  0  0  0  0  0  0  0  0  0  0  0
   60.9826   35.0156   48.4517 H   0  0  0  0  0  0  0  0  0  0  0  0
   60.4340   32.1290   46.4740 H   0  0  0  0  0  0  0  0  0  0  0  0
   61.3846   30.1577   48.1866 H   0  0  0  0  0  0  0  0  0  0  0  0
   61.1047   27.7138   48.7495 H   0  0  0  0  0  0  0  0  0  0  0  0
   59.4438   26.3164   47.4969 H   0  0  0  0  0  0  0  0  0  0  0  0
   58.0388   27.3478   45.6717 H   0  0  0  0  0  0  0  0  0  0  0  0
  1  2  2  0
  2  3  1  0
  2  4  1  0
  4  5  1  0
  5  6  1  0
  6  7  1  0
  7  8  1  0
  8  9  1  0
  9 10  2  0
 10 11  1  0
 11 12  2  0
 12 13  1  0
 12 14  1  0
 14 15  2  0
 15 16  1  0
  6 17  2  0
 17 18  1  0
 18 19  2  0
 19 20  1  0
 20 21  2  0
 21 22  1  0
 22 23  2  0
 23  5  1  0
 15  9  1  0
 23 18  1  0
  4 24  1  0
  4 25  1  0
  8 26  1  0
  8 27  1  0
 10 28  1  0
 11 29  1  0
 14 30  1  0
 17 31  1  0
 19 32  1  0
 20 33  1  0
 21 34  1  0
 22 35  1  0
M  CHG  2   3  -1  17   1
M  END
>  <UniqueID>  (13) 
12

>  <SMILES>  (13) 
O=C([O-])Cn1c(SCc2ccc(Br)cc2F)[nH+]c2ccccc21

>  <Energy>  (13) 
69.97393534116513

>  <Genealogy>  (13) 
O=C([O-])Cn1c(SCc2ccc(Br)cc2F)[nH+]c2ccccc21 (protonated)
O=C([O-])Cn1c(SCc2ccc(Br)cc2F)[nH+]c2ccccc21 (3D coordinates assigned)
O=C([O-])Cn1c(SCc2ccc(Br)cc2F)[nH+]c2ccccc21 (optimized conformer: 69.97393534116513 kcal/mol)

>  <smiles>  (13) 
O=C(O)Cn1c(SCc2ccc(Br)cc2F)nc2ccccc21

>  <score_type>  (13) 
oracle

>  <origin>  (13) 
adg

>  <m_score__min__energy>  (13) 
-8.9900000000000002

>  <m_primary>  (13) 
energy

$$$$
13:0
     RDKit          3D

 47 50  0  0  0  0  0  0  0  0999 V2000
   63.4040   32.0830   47.9520 C   0  0  0  0  0  0  0  0  0  0  0  0
   63.5730   33.0910   46.9760 C   0  0  0  0  0  0  0  0  0  0  0  0
   62.4640   33.8090   46.4910 C   0  0  0  0  0  0  0  0  0  0  0  0
   61.2080   33.4890   47.0130 C   0  0  0  0  0  0  0  0  0  0  0  0
   61.0460   32.5120   47.9540 C   0  0  0  0  0  0  0  0  0  0  0  0
   62.1220   31.7830   48.4520 C   0  0  0  0  0  0  0  0  0  0  0  0
   59.7440   32.3740   48.2770 N   0  0  0  0  0  0  0  0  0  0  0  0
   59.1430   33.3100   47.4960 C   0  0  0  0  0  0  0  0  0  0  0  0
   60.0040   34.0060   46.7220 N   0  0  0  0  0  0  0  0  0  0  0  0
   59.6260   35.0140   45.7370 C   0  0  0  0  0  0  0  0  0  0  0  0
   58.8320   34.3650   44.5960 C   0  0  0  0  0  0  0  0  0  0  0  0
   58.0570   33.1360   44.9390 N   0  0  2  0  0  0  0  0  0  0  0  0
   57.6960   32.2500   43.7890 C   0  0  0  0  0  0  0  0  0  0  0  0
   58.1300   30.7630   43.8390 C   0  0  0  0  0  0  0  0  0  0  0  0
   58.8940   30.4200   45.0600 N   0  0  0  0  0  0  0  0  0  0  0  0
   59.8600   29.3270   44.8130 C   0  0  0  0  0  0  0  0  0  0  0  0
   59.1550   27.9600   44.6410 C   0  0  0  0  0  0  0  0  0  0  0  0
   57.8450   27.9300   45.1770 O   0  0  0  0  0  0  0  0  0  0  0  0
   57.8160   28.5900   46.4220 C   0  0  0  0  0  0  0  0  0  0  0  0
   58.0280   30.1040   46.2260 C   0  0  0  0  0  0  0  0  0  0  0  0
   57.0870   33.2130   46.0690 C   0  0  0  0  0  0  0  0  0  0  0  0
   57.6720   33.5380   47.4560 C   0  0  0  0  0  0  0  0  0  0  0  0
   64.2790   31.5294   48.3234 H   0  0  0  0  0  0  0  0  0  0  0  0
   64.5791   33.3161   46.5925 H   0  0  0  0  0  0  0  0  0  0  0  0
   62.5817   34.5934   45.7289 H   0  0  0  0  0  0  0  0  0  0  0  0
   61.9761   30.9994   49.2101 H   0  0  0  0  0  0  0  0  0  0  0  0
   59.0047   35.7814   46.2219 H   0  0  0  0  0  0  0  0  0  0  0  0
   60.5364   35.4742   45.3255 H   0  0  0  0  0  0  0  0  0  0  0  0
   58.1210   35.1133   44.2158 H   0  0  0  0  0  0  0  0  0  0  0  0
   59.5865   34.0389   43.8649 H   0  0  0  0  0  0  0  0  0  0  0  0
   58.8200   32.5640   45.3800 H   0  0  0  0  0  0  0  0  0  0  0  0
   56.5999   32.2659   43.6979 H   0  0  0  0  0  0  0  0  0  0  0  0
   58.2576   32.6670   42.9400 H   0  0  0  0  0  0  0  0  0  0  0  0
   57.2283   30.1340   43.8024 H   0  0  0  0  0  0  0  0  0  0  0  0
   58.7918   30.5861   42.9784 H   0  0  0  0  0  0  0  0  0  0  0  0
   60.4257   29.5529   43.8970 H   0  0  0  0  0  0  0  0  0  0  0  0
   60.5270   29.2587   45.6850 H   0  0  0  0  0  0  0  0  0  0  0  0
   59.0972   27.7305   43.5668 H   0  0  0  0  0  0  0  0  0  0  0  0
   59.7486   27.2174   45.1943 H   0  0  0  0  0  0  0  0  0  0  0  0
   56.8410   28.4186   46.9017 H   0  0  0  0  0  0  0  0  0  0  0  0
   58.6216   28.1937   47.0575 H   0  0  0  0  0  0  0  0  0  0  0  0
   57.0476   30.5791   46.0741 H   0  0  0  0  0  0  0  0  0  0  0  0
   58.5327   30.4861   47.1256 H   0  0  0  0  0  0  0  0  0  0  0  0
   56.3514   33.9937   45.8253 H   0  0  0  0  0  0  0  0  0  0  0  0
   56.6659   32.2009   46.1606 H   0  0  0  0  0  0  0  0  0  0  0  0
   57.4674   34.5928   47.6918 H   0  0  0  0  0  0  0  0  0  0  0  0
   57.1999   32.8726   48.1938 H   0  0  0  0  0  0  0  0  0  0  0  0
  1  2  2  0
  2  3  1  0
  3  4  2  0
  4  5  1  0
  5  6  2  0
  5  7  1  0
  7  8  2  0
  8  9  1  0
  9 10  1  0
 10 11  1  0
 11 12  1  0
 12 13  1  0
 13 14  1  0
 14 15  1  0
 15 16  1  0
 16 17  1  0
 17 18  1  0
 18 19  1  0
 19 20  1  0
 12 21  1  0
 21 22  1  0
  6  1  1  0
 22  8  1  0
  9  4  1  0
 20 15  1  0
  1 23  1  0
  2 24  1  0
  3 25  1  0
  6 26  1  0
 10 27  1  0
 10 28  1  0
 11 29  1  0
 11 30  1  0
 12 31  1  1
 13 32  1  0
 13 33  1  0
 14 34  1  0
 14 35  1  0
 16 36  1  0
 16 37  1  0
 17 38  1  0
 17 39  1  0
 19 40  1  0
 19 41  1  0
 20 42  1  0
 20 43  1  0
 21 44  1  0
 21 45  1  0
 22 46  1  0
 22 47  1  0
M  CHG  1  12   1
M  END
>  <UniqueID>  (14) 
13

>  <SMILES>  (14) 
c1ccc2c(c1)nc1n2CC[N@H+](CCN2CCOCC2)CC1

>  <Energy>  (14) 
123.4203194731669

>  <Genealogy>  (14) 
c1ccc2c(c1)nc1n2CC[NH+](CCN2CCOCC2)CC1 (protonated)
c1ccc2c(c1)nc1n2CC[N@H+](CCN2CCOCC2)CC1 (chirality)
c1ccc2c(c1)nc1n2CC[N@H+](CCN2CCOCC2)CC1 (3D coordinates assigned)
c1ccc2c(c1)nc1n2CC[N@H+](CCN2CCOCC2)CC1 (nonaromatic ring conformer: 123.4203194731669 kcal/mol)

>  <smiles>  (14) 
c1ccc2c(c1)nc1n2CCN(CCN2CCOCC2)CC1

>  <score_type>  (14) 
oracle

>  <origin>  (14) 
adg

>  <m_score__min__energy>  (14) 
-3.8999999999999999

>  <m_primary>  (14) 
energy

$$$$
14:0
     RDKit          3D

 46 48  0  0  0  0  0  0  0  0999 V2000
   56.0780   22.4250   46.7160 C   0  0  0  0  0  0  0  0  0  0  0  0
   56.2510   23.3050   47.9500 C   0  0  0  0  0  0  0  0  0  0  0  0
   57.1190   24.4470   47.6630 N   0  0  0  0  0  0  0  0  0  0  0  0
   56.6700   25.5360   46.8410 C   0  0  0  0  0  0  0  0  0  0  0  0
   55.5050   25.5120   46.3570 O   0  0  0  0  0  0  0  0  0  0  0  0
   57.5610   26.6820   46.5580 C   0  0  0  0  0  0  0  0  0  0  0  0
   57.2450   27.6150   45.5540 C   0  0  0  0  0  0  0  0  0  0  0  0
   58.1140   28.6920   45.2960 C   0  0  0  0  0  0  0  0  0  0  0  0
   57.7880   29.7450   44.2490 C   0  0  1  0  0  0  0  0  0  0  0  0
   57.0190   29.1800   43.0480 C   0  0  0  0  0  0  0  0  0  0  0  0
   55.6030   29.7200   43.1620 C   0  0  0  0  0  0  0  0  0  0  0  0
   55.5700   30.5420   44.4430 C   0  0  0  0  0  0  0  0  0  0  0  0
   56.9550   30.7970   44.8570 N   0  0  0  0  0  0  0  0  0  0  0  0
   57.4210   32.1790   44.5760 C   0  0  0  0  0  0  0  0  0  0  0  0
   58.1360   32.8550   45.7360 C   0  0  0  0  0  0  0  0  0  0  0  0
   58.6790   34.1450   45.5860 C   0  0  0  0  0  0  0  0  0  0  0  0
   59.3430   34.7610   46.6510 C   0  0  0  0  0  0  0  0  0  0  0  0
   59.4540   34.1080   47.8810 C   0  0  0  0  0  0  0  0  0  0  0  0
   60.0970   34.7090   48.9130 F   0  0  0  0  0  0  0  0  0  0  0  0
   58.8860   32.8440   48.0520 C   0  0  0  0  0  0  0  0  0  0  0  0
   58.2200   32.2240   46.9900 C   0  0  0  0  0  0  0  0  0  0  0  0
   59.2730   28.8230   46.0760 C   0  0  0  0  0  0  0  0  0  0  0  0
   59.5540   27.8800   47.0640 C   0  0  0  0  0  0  0  0  0  0  0  0
   58.7040   26.8430   47.2790 N   0  0  0  0  0  0  0  0  0  0  0  0
   55.8746   21.3903   47.0291 H   0  0  0  0  0  0  0  0  0  0  0  0
   55.2361   22.7983   46.1145 H   0  0  0  0  0  0  0  0  0  0  0  0
   56.9986   22.4518   46.1145 H   0  0  0  0  0  0  0  0  0  0  0  0
   55.2652   23.6740   48.2696 H   0  0  0  0  0  0  0  0  0  0  0  0
   56.7147   22.7042   48.7462 H   0  0  0  0  0  0  0  0  0  0  0  0
   58.0840   24.4720   48.0630 H   0  0  0  0  0  0  0  0  0  0  0  0
   56.3192   27.5031   44.9706 H   0  0  0  0  0  0  0  0  0  0  0  0
   58.7508   30.1368   43.8893 H   0  0  0  0  0  0  0  0  0  0  0  0
   57.4806   29.5148   42.1074 H   0  0  0  0  0  0  0  0  0  0  0  0
   57.0305   28.0801   43.0450 H   0  0  0  0  0  0  0  0  0  0  0  0
   55.3644   30.3535   42.2950 H   0  0  0  0  0  0  0  0  0  0  0  0
   54.8622   28.9072   43.1853 H   0  0  0  0  0  0  0  0  0  0  0  0
   55.0537   31.4960   44.2606 H   0  0  0  0  0  0  0  0  0  0  0  0
   55.0307   29.9970   45.2317 H   0  0  0  0  0  0  0  0  0  0  0  0
   58.1132   32.1405   43.7220 H   0  0  0  0  0  0  0  0  0  0  0  0
   56.5198   32.7767   44.3748 H   0  0  0  0  0  0  0  0  0  0  0  0
   58.5803   34.6715   44.6252 H   0  0  0  0  0  0  0  0  0  0  0  0
   59.7791   35.7623   46.5201 H   0  0  0  0  0  0  0  0  0  0  0  0
   58.9625   32.3348   49.0240 H   0  0  0  0  0  0  0  0  0  0  0  0
   57.7588   31.2362   47.1365 H   0  0  0  0  0  0  0  0  0  0  0  0
   59.9580   29.6672   45.9085 H   0  0  0  0  0  0  0  0  0  0  0  0
   60.4665   27.9763   47.6707 H   0  0  0  0  0  0  0  0  0  0  0  0
  1  2  1  0
  2  3  1  0
  3  4  1  0
  4  5  2  0
  4  6  1  0
  6  7  2  0
  7  8  1  0
  8  9  1  0
  9 10  1  0
 10 11  1  0
 11 12  1  0
 12 13  1  0
 13 14  1  0
 14 15  1  0
 15 16  2  0
 16 17  1  0
 17 18  2  0
 18 19  1  0
 18 20  1  0
 20 21  2  0
  8 22  2  0
 22 23  1  0
 23 24  2  0
 24  6  1  0
 13  9  1  0
 21 15  1  0
  1 25  1  0
  1 26  1  0
  1 27  1  0
  2 28  1  0
  2 29  1  0
  3 30  1  0
  7 31  1  0
  9 32  1  6
 10 33  1  0
 10 34  1  0
 11 35  1  0
 11 36  1  0
 12 37  1  0
 12 38  1  0
 14 39  1  0
 14 40  1  0
 16 41  1  0
 17 42  1  0
 20 43  1  0
 21 44  1  0
 22 45  1  0
 23 46  1  0
M  END
>  <UniqueID>  (15) 
14

>  <SMILES>  (15) 
CCNC(=O)c1cc([C@H]2CCCN2Cc2ccc(F)cc2)ccn1

>  <Energy>  (15) 
50.962790596442446

>  <Genealogy>  (15) 
CCNC(=O)c1cc([C@H]2CCCN2Cc2ccc(F)cc2)ccn1 (chirality)
CCNC(=O)c1cc([C@H]2CCCN2Cc2ccc(F)cc2)ccn1 (3D coordinates assigned)
CCNC(=O)c1cc([C@H]2CCCN2Cc2ccc(F)cc2)ccn1 (nonaromatic ring conformer: 50.962790596442446 kcal/mol)

>  <smiles>  (15) 
CCNC(=O)c1cc(C2CCCN2Cc2ccc(F)cc2)ccn1

>  <score_type>  (15) 
oracle

>  <origin>  (15) 
adg

>  <m_score__min__energy>  (15) 
-7.9100000000000001

>  <m_primary>  (15) 
energy

$$$$
15:0
     RDKit          3D

 48 50  0  0  0  0  0  0  0  0999 V2000
   62.1240   29.8680   50.9870 C   0  0  0  0  0  0  0  0  0  0  0  0
   61.5330   30.0540   49.7060 O   0  0  0  0  0  0  0  0  0  0  0  0
   61.7500   31.1710   48.8810 C   0  0  0  0  0  0  0  0  0  0  0  0
   62.5140   32.2740   49.3140 C   0  0  0  0  0  0  0  0  0  0  0  0
   62.7150   33.3690   48.4710 C   0  0  0  0  0  0  0  0  0  0  0  0
   62.1630   33.3790   47.1910 C   0  0  0  0  0  0  0  0  0  0  0  0
   61.4040   32.2930   46.7480 C   0  0  0  0  0  0  0  0  0  0  0  0
   61.1920   31.1840   47.5840 C   0  0  0  0  0  0  0  0  0  0  0  0
   60.3460   30.0290   47.0940 C   0  0  0  0  0  0  0  0  0  0  0  0
   59.9050   29.1520   48.1940 N   0  0  0  0  0  0  0  0  0  0  0  0
   58.8730   28.1650   47.8140 C   0  0  0  0  0  0  0  0  0  0  0  0
   58.6360   28.0350   46.2940 C   0  0  0  0  0  0  0  0  0  0  0  0
   57.1980   27.6480   45.9160 C   0  0  0  0  0  0  0  0  0  0  0  0
   56.6240   28.6170   44.9800 N   0  0  0  0  0  0  0  0  0  0  0  0
   57.1110   29.9600   44.8360 C   0  0  0  0  0  0  0  0  0  0  0  0
   57.2860   30.5070   43.5580 C   0  0  0  0  0  0  0  0  0  0  0  0
   57.7470   31.8190   43.4190 C   0  0  0  0  0  0  0  0  0  0  0  0
   57.9000   32.3010   42.2640 O   0  0  0  0  0  0  0  0  0  0  0  0
   58.0320   32.5830   44.5660 C   0  0  0  0  0  0  0  0  0  0  0  0
   58.4970   33.9090   44.4830 C   0  0  0  0  0  0  0  0  0  0  0  0
   58.7660   34.6330   45.6490 C   0  0  0  0  0  0  0  0  0  0  0  0
   58.5740   34.0440   46.9030 C   0  0  0  0  0  0  0  0  0  0  0  0
   58.1130   32.7290   46.9970 C   0  0  0  0  0  0  0  0  0  0  0  0
   57.8410   31.9940   45.8370 C   0  0  0  0  0  0  0  0  0  0  0  0
   57.3910   30.7160   45.9340 N   0  0  0  0  0  0  0  0  0  0  0  0
   61.3857   30.1004   51.7686 H   0  0  0  0  0  0  0  0  0  0  0  0
   62.4519   28.8232   51.0913 H   0  0  0  0  0  0  0  0  0  0  0  0
   62.9912   30.5366   51.0913 H   0  0  0  0  0  0  0  0  0  0  0  0
   62.9544   32.2720   50.3220 H   0  0  0  0  0  0  0  0  0  0  0  0
   63.3107   34.2262   48.8180 H   0  0  0  0  0  0  0  0  0  0  0  0
   62.3251   34.2426   46.5293 H   0  0  0  0  0  0  0  0  0  0  0  0
   60.9694   32.3063   45.7376 H   0  0  0  0  0  0  0  0  0  0  0  0
   59.4579   30.4320   46.5852 H   0  0  0  0  0  0  0  0  0  0  0  0
   60.9623   29.4269   46.4102 H   0  0  0  0  0  0  0  0  0  0  0  0
   59.5160   29.7450   48.9640 H   0  0  0  0  0  0  0  0  0  0  0  0
   60.7320   28.6600   48.5970 H   0  0  0  0  0  0  0  0  0  0  0  0
   59.1810   27.1815   48.1985 H   0  0  0  0  0  0  0  0  0  0  0  0
   57.9268   28.5211   48.2475 H   0  0  0  0  0  0  0  0  0  0  0  0
   58.8689   29.0018   45.8238 H   0  0  0  0  0  0  0  0  0  0  0  0
   59.2876   27.2230   45.9389 H   0  0  0  0  0  0  0  0  0  0  0  0
   57.2046   26.6536   45.4457 H   0  0  0  0  0  0  0  0  0  0  0  0
   56.5856   27.6373   46.8297 H   0  0  0  0  0  0  0  0  0  0  0  0
   55.8950   28.2760   44.3130 H   0  0  0  0  0  0  0  0  0  0  0  0
   57.0609   29.9047   42.6655 H   0  0  0  0  0  0  0  0  0  0  0  0
   58.6491   34.3767   43.4991 H   0  0  0  0  0  0  0  0  0  0  0  0
   59.1297   35.6688   45.5796 H   0  0  0  0  0  0  0  0  0  0  0  0
   58.7866   34.6177   47.8171 H   0  0  0  0  0  0  0  0  0  0  0  0
   57.9632   32.2696   47.9852 H   0  0  0  0  0  0  0  0  0  0  0  0
  1  2  1  0
  2  3  1  0
  3  4  2  0
  4  5  1  0
  5  6  2  0
  6  7  1  0
  7  8  2  0
  8  9  1  0
  9 10  1  0
 10 11  1  0
 11 12  1  0
 12 13  1  0
 13 14  1  0
 14 15  1  0
 15 16  2  0
 16 17  1  0
 17 18  2  0
 17 19  1  0
 19 20  2  0
 20 21  1  0
 21 22  2  0
 22 23  1  0
 23 24  2  0
 24 25  1  0
  8  3  1  0
 25 15  1  0
 24 19  1  0
  1 26  1  0
  1 27  1  0
  1 28  1  0
  4 29  1  0
  5 30  1  0
  6 31  1  0
  7 32  1  0
  9 33  1  0
  9 34  1  0
 10 35  1  0
 10 36  1  0
 11 37  1  0
 11 38  1  0
 12 39  1  0
 12 40  1  0
 13 41  1  0
 13 42  1  0
 14 43  1  0
 16 44  1  0
 20 45  1  0
 21 46  1  0
 22 47  1  0
 23 48  1  0
M  CHG  2  10   1  25  -1
M  END
>  <UniqueID>  (16) 
15

>  <SMILES>  (16) 
COc1ccccc1C[NH2+]CCCNc1cc(=O)c2ccccc2[n-]1

>  <Energy>  (16) 
52.53505777901756

>  <Genealogy>  (16) 
COc1ccccc1C[NH2+]CCCNc1cc(=O)c2ccccc2[n-]1 (protonated)
COc1ccccc1C[NH2+]CCCNc1cc(=O)c2ccccc2[n-]1 (3D coordinates assigned)
COc1ccccc1C[NH2+]CCCNc1cc(=O)c2ccccc2[n-]1 (optimized conformer: 52.53505777901756 kcal/mol)

>  <smiles>  (16) 
COc1ccccc1CNCCCNc1cc(=O)c2ccccc2[nH]1

>  <score_type>  (16) 
oracle

>  <origin>  (16) 
adg

>  <m_score__min__energy>  (16) 
-7.3200000000000003

>  <m_primary>  (16) 
energy

$$$$
16:0
     RDKit          3D

 50 52  0  0  0  0  0  0  0  0999 V2000
   58.7178   31.5011   43.4883 H   0  0  0  0  0  0  0  0  0  0  0  0
   57.9790   31.7450   44.2660 C   0  0  0  0  0  0  0  0  0  0  0  0
   57.0430   30.6790   44.6760 C   0  0  0  0  0  0  0  0  0  0  0  0
   55.8030   30.8330   44.5070 O   0  0  0  0  0  0  0  0  0  0  0  0
   57.5380   29.3870   45.1870 C   0  0  0  0  0  0  0  0  0  0  0  0
   57.2620   28.1420   44.6280 C   0  0  0  0  0  0  0  0  0  0  0  0
   56.6386   27.9791   43.7365 H   0  0  0  0  0  0  0  0  0  0  0  0
   57.8680   27.1610   45.3350 N   0  0  0  0  0  0  0  0  0  0  0  0
   57.8510   25.7350   45.0100 C   0  0  0  0  0  0  0  0  0  0  0  0
   58.5246   25.1986   45.6945 H   0  0  0  0  0  0  0  0  0  0  0  0
   58.1853   25.6006   43.9707 H   0  0  0  0  0  0  0  0  0  0  0  0
   56.4340   25.1750   45.1540 C   0  0  0  0  0  0  0  0  0  0  0  0
   56.4644   24.0798   45.0557 H   0  0  0  0  0  0  0  0  0  0  0  0
   55.7965   25.6051   44.3675 H   0  0  0  0  0  0  0  0  0  0  0  0
   55.9000   25.5160   46.4190 O   0  0  0  0  0  0  0  0  0  0  0  0
   56.5900   24.8360   47.4440 C   0  0  0  0  0  0  0  0  0  0  0  0
   56.2325   25.1883   48.4228 H   0  0  0  0  0  0  0  0  0  0  0  0
   56.4074   23.7550   47.3543 H   0  0  0  0  0  0  0  0  0  0  0  0
   57.6682   25.0344   47.3543 H   0  0  0  0  0  0  0  0  0  0  0  0
   58.5330   27.7700   46.3390 C   0  0  0  0  0  0  0  0  0  0  0  0
   59.3100   27.1750   47.3380 C   0  0  0  0  0  0  0  0  0  0  0  0
   59.4659   26.0863   47.3609 H   0  0  0  0  0  0  0  0  0  0  0  0
   59.8860   28.0090   48.3120 C   0  0  0  0  0  0  0  0  0  0  0  0
   60.5085   27.5720   49.1067 H   0  0  0  0  0  0  0  0  0  0  0  0
   59.6710   29.4020   48.2770 C   0  0  0  0  0  0  0  0  0  0  0  0
   60.1192   30.0431   49.0504 H   0  0  0  0  0  0  0  0  0  0  0  0
   58.8880   29.9780   47.2610 C   0  0  0  0  0  0  0  0  0  0  0  0
   58.7078   31.0627   47.2317 H   0  0  0  0  0  0  0  0  0  0  0  0
   58.3450   29.1320   46.2890 C   0  0  0  0  0  0  0  0  0  0  0  0
   57.9970   32.9890   44.7700 C   0  0  0  0  0  0  0  0  0  0  0  0
   57.3037   33.7228   44.3331 H   0  0  0  0  0  0  0  0  0  0  0  0
   58.8760   33.4510   45.8670 C   0  0  0  0  0  0  0  0  0  0  0  0
   58.5200   34.5390   46.6770 C   0  0  0  0  0  0  0  0  0  0  0  0
   57.5857   35.0850   46.4796 H   0  0  0  0  0  0  0  0  0  0  0  0
   59.3440   34.9330   47.7320 C   0  0  0  0  0  0  0  0  0  0  0  0
   59.0639   35.7986   48.3503 H   0  0  0  0  0  0  0  0  0  0  0  0
   60.5310   34.2300   48.0100 C   0  0  0  0  0  0  0  0  0  0  0  0
   61.3880   34.5990   49.0590 O   0  0  0  0  0  0  0  0  0  0  0  0
   61.6310   33.8060   50.2170 C   0  0  0  0  0  0  0  0  0  0  0  0
   61.4465   34.4080   51.1190 H   0  0  0  0  0  0  0  0  0  0  0  0
   60.9583   32.9357   50.2132 H   0  0  0  0  0  0  0  0  0  0  0  0
   62.6758   33.4619   50.2132 H   0  0  0  0  0  0  0  0  0  0  0  0
   60.8790   33.1210   47.2220 C   0  0  0  0  0  0  0  0  0  0  0  0
   62.0650   32.4330   47.5290 O   0  0  0  0  0  0  0  0  0  0  0  0
   63.3700   32.8810   47.1820 C   0  0  0  0  0  0  0  0  0  0  0  0
   63.9456   33.0786   48.0983 H   0  0  0  0  0  0  0  0  0  0  0  0
   63.8783   32.1059   46.5897 H   0  0  0  0  0  0  0  0  0  0  0  0
   63.2951   33.8049   46.5897 H   0  0  0  0  0  0  0  0  0  0  0  0
   60.0410   32.7300   46.1600 C   0  0  0  0  0  0  0  0  0  0  0  0
   60.3036   31.8499   45.5546 H   0  0  0  0  0  0  0  0  0  0  0  0
  1  2  1  0
  2  3  1  0
  3  4  2  0
  3  5  1  0
  5  6  2  0
  6  7  1  0
  6  8  1  0
  8  9  1  0
  9 10  1  0
  9 11  1  0
  9 12  1  0
 12 13  1  0
 12 14  1  0
 12 15  1  0
 15 16  1  0
 16 17  1  0
 16 18  1  0
 16 19  1  0
  8 20  1  0
 20 21  2  0
 21 22  1  0
 21 23  1  0
 23 24  1  0
 23 25  2  0
 25 26  1  0
 25 27  1  0
 27 28  1  0
 27 29  2  0
  2 30  2  0
 30 31  1  0
 30 32  1  0
 32 33  2  0
 33 34  1  0
 33 35  1  0
 35 36  1  0
 35 37  2  0
 37 38  1  0
 38 39  1  0
 39 40  1  0
 39 41  1  0
 39 42  1  0
 37 43  1  0
 43 44  1  0
 44 45  1  0
 45 46  1  0
 45 47  1  0
 45 48  1  0
 43 49  2  0
 49 50  1  0
 29  5  1  0
 49 32  1  0
 29 20  1  0
M  END
>  <UniqueID>  (17) 
16

>  <SMILES>  (17) 
COCCn1cc(C(=O)/C=C\c2ccc(OC)c(OC)c2)c2ccccc21

>  <Energy>  (17) 
93.66531453738571

>  <Genealogy>  (17) 
COCCn1cc(C(=O)/C=C\c2ccc(OC)c(OC)c2)c2ccccc21 (cis-trans isomerization)
COCCn1cc(C(=O)/C=C\c2ccc(OC)c(OC)c2)c2ccccc21 (3D coordinates assigned)
COCCn1cc(C(=O)/C=C\c2ccc(OC)c(OC)c2)c2ccccc21 (optimized conformer: 93.66531453738571 kcal/mol)

>  <smiles>  (17) 
COCCn1cc(C(=O)C=Cc2ccc(OC)c(OC)c2)c2ccccc21

>  <score_type>  (17) 
oracle

>  <origin>  (17) 
adg

>  <m_score__min__energy>  (17) 
-8.2899999999999991

>  <m_primary>  (17) 
energy

$$$$
17:0
     RDKit          3D

 57 59  0  0  0  0  0  0  0  0999 V2000
   56.2740   23.7820   43.6530 C   0  0  0  0  0  0  0  0  0  0  0  0
   57.4660   24.2810   44.4670 C   0  0  0  0  0  0  0  0  0  0  0  0
   57.2390   25.6940   44.8790 N   0  0  0  0  0  0  0  0  0  0  0  0
   56.6230   25.7960   46.2240 C   0  0  0  0  0  0  0  0  0  0  0  0
   57.2330   24.7920   47.2020 C   0  0  0  0  0  0  0  0  0  0  0  0
   58.4660   26.5280   44.8010 C   0  0  0  0  0  0  0  0  0  0  0  0
   58.0900   27.9890   44.8580 C   0  0  0  0  0  0  0  0  0  0  0  0
   57.3980   28.5690   43.7810 C   0  0  0  0  0  0  0  0  0  0  0  0
   57.0730   29.9270   43.7890 C   0  0  0  0  0  0  0  0  0  0  0  0
   57.4390   30.7370   44.8750 C   0  0  0  0  0  0  0  0  0  0  0  0
   57.0920   32.2140   44.8840 C   0  0  0  0  0  0  0  0  0  0  0  0
   58.0770   33.0560   45.6000 N   0  0  0  0  0  0  0  0  0  0  0  0
   57.7890   33.1900   47.0450 C   0  0  0  0  0  0  0  0  0  0  0  0
   58.6430   34.2830   47.7250 C   0  0  0  0  0  0  0  0  0  0  0  0
   59.9390   34.6010   46.9560 C   0  0  0  0  0  0  0  0  0  0  0  0
   60.9710   33.4950   47.1340 C   0  0  0  0  0  0  0  0  0  0  0  0
   62.2520   33.8320   47.6080 C   0  0  0  0  0  0  0  0  0  0  0  0
   63.2020   32.8320   47.8090 C   0  0  0  0  0  0  0  0  0  0  0  0
   62.8740   31.5020   47.5520 C   0  0  0  0  0  0  0  0  0  0  0  0
   61.5940   31.1900   47.0970 C   0  0  0  0  0  0  0  0  0  0  0  0
   60.6740   32.1770   46.9020 N   0  0  0  0  0  0  0  0  0  0  0  0
   59.6440   34.9690   45.4780 C   0  0  0  0  0  0  0  0  0  0  0  0
   58.3370   34.3520   44.9470 C   0  0  0  0  0  0  0  0  0  0  0  0
   58.1070   30.1580   45.9630 C   0  0  0  0  0  0  0  0  0  0  0  0
   58.4470   28.8020   45.9580 C   0  0  0  0  0  0  0  0  0  0  0  0
   59.3770   28.1120   47.4900 Br  0  0  0  0  0  0  0  0  0  0  0  0
   55.4779   23.4487   44.3351 H   0  0  0  0  0  0  0  0  0  0  0  0
   55.8959   24.5974   43.0188 H   0  0  0  0  0  0  0  0  0  0  0  0
   56.5896   22.9404   43.0188 H   0  0  0  0  0  0  0  0  0  0  0  0
   57.5847   23.6539   45.3629 H   0  0  0  0  0  0  0  0  0  0  0  0
   58.3759   24.2237   43.8515 H   0  0  0  0  0  0  0  0  0  0  0  0
   56.7807   26.8130   46.6123 H   0  0  0  0  0  0  0  0  0  0  0  0
   55.5501   25.5731   46.1279 H   0  0  0  0  0  0  0  0  0  0  0  0
   57.0348   25.1182   48.2336 H   0  0  0  0  0  0  0  0  0  0  0  0
   56.7840   23.8013   47.0381 H   0  0  0  0  0  0  0  0  0  0  0  0
   58.3192   24.7340   47.0381 H   0  0  0  0  0  0  0  0  0  0  0  0
   59.1269   26.2868   45.6466 H   0  0  0  0  0  0  0  0  0  0  0  0
   58.9882   26.3219   43.8550 H   0  0  0  0  0  0  0  0  0  0  0  0
   57.1090   27.9459   42.9218 H   0  0  0  0  0  0  0  0  0  0  0  0
   56.5273   30.3641   42.9398 H   0  0  0  0  0  0  0  0  0  0  0  0
   57.0308   32.5620   43.8423 H   0  0  0  0  0  0  0  0  0  0  0  0
   56.1362   32.3148   45.4190 H   0  0  0  0  0  0  0  0  0  0  0  0
   56.7264   33.4455   47.1697 H   0  0  0  0  0  0  0  0  0  0  0  0
   58.0359   32.2306   47.5230 H   0  0  0  0  0  0  0  0  0  0  0  0
   58.0433   35.2024   47.7961 H   0  0  0  0  0  0  0  0  0  0  0  0
   58.9336   33.9038   48.7159 H   0  0  0  0  0  0  0  0  0  0  0  0
   60.3973   35.5011   47.3916 H   0  0  0  0  0  0  0  0  0  0  0  0
   62.5032   34.8818   47.8194 H   0  0  0  0  0  0  0  0  0  0  0  0
   64.2082   33.0919   48.1696 H   0  0  0  0  0  0  0  0  0  0  0  0
   63.6178   30.7065   47.7067 H   0  0  0  0  0  0  0  0  0  0  0  0
   61.3250   30.1428   46.8944 H   0  0  0  0  0  0  0  0  0  0  0  0
   59.7340   31.8890   46.5590 H   0  0  0  0  0  0  0  0  0  0  0  0
   59.5711   36.0637   45.3984 H   0  0  0  0  0  0  0  0  0  0  0  0
   60.4665   34.5636   44.8704 H   0  0  0  0  0  0  0  0  0  0  0  0
   57.5020   35.0369   45.1559 H   0  0  0  0  0  0  0  0  0  0  0  0
   58.4331   34.1920   43.8629 H   0  0  0  0  0  0  0  0  0  0  0  0
   58.3672   30.7792   46.8327 H   0  0  0  0  0  0  0  0  0  0  0  0
  1  2  1  0
  2  3  1  0
  3  4  1  0
  4  5  1  0
  3  6  1  0
  6  7  1  0
  7  8  2  0
  8  9  1  0
  9 10  2  0
 10 11  1  0
 11 12  1  0
 12 13  1  0
 13 14  1  0
 14 15  1  0
 15 16  1  0
 16 17  2  0
 17 18  1  0
 18 19  2  0
 19 20  1  0
 20 21  2  0
 15 22  1  0
 22 23  1  0
 10 24  1  0
 24 25  2  0
 25 26  1  0
 25  7  1  0
 23 12  1  0
 21 16  1  0
  1 27  1  0
  1 28  1  0
  1 29  1  0
  2 30  1  0
  2 31  1  0
  4 32  1  0
  4 33  1  0
  5 34  1  0
  5 35  1  0
  5 36  1  0
  6 37  1  0
  6 38  1  0
  8 39  1  0
  9 40  1  0
 11 41  1  0
 11 42  1  0
 13 43  1  0
 13 44  1  0
 14 45  1  0
 14 46  1  0
 15 47  1  0
 17 48  1  0
 18 49  1  0
 19 50  1  0
 20 51  1  0
 21 52  1  0
 22 53  1  0
 22 54  1  0
 23 55  1  0
 23 56  1  0
 24 57  1  0
M  CHG  1  21   1
M  END
>  <UniqueID>  (18) 
17

>  <SMILES>  (18) 
CCN(CC)Cc1ccc(CN2CCC(c3cccc[nH+]3)CC2)cc1Br

>  <Energy>  (18) 
72.20334559528321

>  <Genealogy>  (18) 
CCN(CC)Cc1ccc(CN2CCC(c3cccc[nH+]3)CC2)cc1Br (protonated)
CCN(CC)Cc1ccc(CN2CCC(c3cccc[nH+]3)CC2)cc1Br (3D coordinates assigned)
CCN(CC)Cc1ccc(CN2CCC(c3cccc[nH+]3)CC2)cc1Br (nonaromatic ring conformer: 72.20334559528321 kcal/mol)

>  <smiles>  (18) 
CCN(CC)Cc1ccc(CN2CCC(c3ccccn3)CC2)cc1Br

>  <score_type>  (18) 
oracle

>  <origin>  (18) 
adg

>  <m_score__min__energy>  (18) 
-7

>  <m_primary>  (18) 
energy

$$$$
18:0
     RDKit          3D

 34 34  0  0  0  0  0  0  0  0999 V2000
   57.6380   31.6530   42.6060 C   0  0  0  0  0  0  0  0  0  0  0  0
   56.8380   30.8450   43.6210 C   0  0  0  0  0  0  0  0  0  0  0  0
   56.8280   31.4960   44.8920 O   0  0  0  0  0  0  0  0  0  0  0  0
   57.9270   32.1300   45.4950 C   0  0  0  0  0  0  0  0  0  0  0  0
   58.0900   33.5290   45.5070 C   0  0  0  0  0  0  0  0  0  0  0  0
   59.2060   34.1040   46.1240 C   0  0  0  0  0  0  0  0  0  0  0  0
   60.1760   33.2940   46.7320 C   0  0  0  0  0  0  0  0  0  0  0  0
   61.3640   33.9200   47.4190 C   0  0  0  0  0  0  0  0  0  0  0  0
   62.6770   33.7000   46.6390 C   0  0  0  0  0  0  0  0  0  0  0  0
   63.6650   32.8570   47.3570 N   0  0  0  0  0  0  0  0  0  0  0  0
   63.0940   31.5190   47.5950 C   0  0  0  0  0  0  0  0  0  0  0  0
   64.0630   33.4570   48.6440 C   0  0  0  0  0  0  0  0  0  0  0  0
   60.0140   31.9000   46.7180 C   0  0  0  0  0  0  0  0  0  0  0  0
   58.9000   31.3270   46.1020 C   0  0  0  0  0  0  0  0  0  0  0  0
   58.3164   32.3382   43.1355 H   0  0  0  0  0  0  0  0  0  0  0  0
   58.2257   30.9701   41.9750 H   0  0  0  0  0  0  0  0  0  0  0  0
   56.9493   32.2339   41.9750 H   0  0  0  0  0  0  0  0  0  0  0  0
   55.8036   30.7381   43.2623 H   0  0  0  0  0  0  0  0  0  0  0  0
   57.3077   29.8568   43.7344 H   0  0  0  0  0  0  0  0  0  0  0  0
   57.3364   34.1722   45.0291 H   0  0  0  0  0  0  0  0  0  0  0  0
   59.3234   35.1977   46.1323 H   0  0  0  0  0  0  0  0  0  0  0  0
   61.1871   35.0014   47.5153 H   0  0  0  0  0  0  0  0  0  0  0  0
   61.4738   33.4406   48.4030 H   0  0  0  0  0  0  0  0  0  0  0  0
   62.4351   33.2130   45.6828 H   0  0  0  0  0  0  0  0  0  0  0  0
   63.1385   34.6891   46.5022 H   0  0  0  0  0  0  0  0  0  0  0  0
   64.5210   32.7300   46.7690 H   0  0  0  0  0  0  0  0  0  0  0  0
   63.0177   31.3402   48.6777 H   0  0  0  0  0  0  0  0  0  0  0  0
   62.0930   31.4617   47.1425 H   0  0  0  0  0  0  0  0  0  0  0  0
   63.7452   30.7566   47.1425 H   0  0  0  0  0  0  0  0  0  0  0  0
   63.6617   32.8519   49.4703 H   0  0  0  0  0  0  0  0  0  0  0  0
   65.1606   33.4868   48.7108 H   0  0  0  0  0  0  0  0  0  0  0  0
   63.6637   34.4798   48.7108 H   0  0  0  0  0  0  0  0  0  0  0  0
   60.7680   31.2562   47.1944 H   0  0  0  0  0  0  0  0  0  0  0  0
   58.7855   30.2330   46.0935 H   0  0  0  0  0  0  0  0  0  0  0  0
  1  2  1  0
  2  3  1  0
  3  4  1  0
  4  5  2  0
  5  6  1  0
  6  7  2  0
  7  8  1  0
  8  9  1  0
  9 10  1  0
 10 11  1  0
 10 12  1  0
  7 13  1  0
 13 14  2  0
 14  4  1  0
  1 15  1  0
  1 16  1  0
  1 17  1  0
  2 18  1  0
  2 19  1  0
  5 20  1  0
  6 21  1  0
  8 22  1  0
  8 23  1  0
  9 24  1  0
  9 25  1  0
 10 26  1  0
 11 27  1  0
 11 28  1  0
 11 29  1  0
 12 30  1  0
 12 31  1  0
 12 32  1  0
 13 33  1  0
 14 34  1  0
M  CHG  1  10   1
M  END
>  <UniqueID>  (19) 
18

>  <SMILES>  (19) 
CCOc1ccc(CC[NH+](C)C)cc1

>  <Energy>  (19) 
28.561128395380646

>  <Genealogy>  (19) 
CCOc1ccc(CC[NH+](C)C)cc1 (protonated)
CCOc1ccc(CC[NH+](C)C)cc1 (3D coordinates assigned)
CCOc1ccc(CC[NH+](C)C)cc1 (optimized conformer: 28.561128395380646 kcal/mol)

>  <smiles>  (19) 
CCOc1ccc(CCN(C)C)cc1

>  <score_type>  (19) 
oracle

>  <origin>  (19) 
adg

>  <m_score__min__energy>  (19) 
-4.04

>  <m_primary>  (19) 
energy

$$$$
19:0
     RDKit          3D

 37 39  0  0  0  0  0  0  0  0999 V2000
   56.8210   29.6760   43.6430 C   0  0  0  0  0  0  0  0  0  0  0  0
   57.7330   28.6280   43.7870 C   0  0  0  0  0  0  0  0  0  0  0  0
   58.7140   28.6930   44.7780 C   0  0  0  0  0  0  0  0  0  0  0  0
   58.7690   29.8140   45.6200 C   0  0  0  0  0  0  0  0  0  0  0  0
   59.8470   29.9420   46.6620 C   0  0  0  0  0  0  0  0  0  0  0  0
   59.7110   31.1840   47.4400 N   0  0  0  0  0  0  0  0  0  0  0  0
   60.9830   31.8560   47.5980 C   0  0  0  0  0  0  0  0  0  0  0  0
   62.1550   31.2180   47.1450 C   0  0  0  0  0  0  0  0  0  0  0  0
   63.3920   31.8630   47.2130 C   0  0  0  0  0  0  0  0  0  0  0  0
   63.4780   33.1560   47.7270 C   0  0  0  0  0  0  0  0  0  0  0  0
   62.3300   33.8040   48.1850 C   0  0  0  0  0  0  0  0  0  0  0  0
   61.0840   33.1630   48.1420 C   0  0  0  0  0  0  0  0  0  0  0  0
   59.6540   34.0580   48.7730 S   0  0  0  0  0  0  0  0  0  0  0  0
   58.9010   34.2190   47.1510 C   0  0  0  0  0  0  0  0  0  0  0  0
   59.6060   34.8340   46.1110 C   0  0  0  0  0  0  0  0  0  0  0  0
   59.0080   34.9530   44.8550 C   0  0  0  0  0  0  0  0  0  0  0  0
   57.7550   34.4660   44.6470 N   0  0  0  0  0  0  0  0  0  0  0  0
   57.0540   33.8560   45.6410 C   0  0  0  0  0  0  0  0  0  0  0  0
   57.6170   33.7180   46.9110 C   0  0  0  0  0  0  0  0  0  0  0  0
   57.8730   30.8260   45.4530 N   0  0  0  0  0  0  0  0  0  0  0  0
   56.9080   30.7790   44.4950 C   0  0  0  0  0  0  0  0  0  0  0  0
   56.0427   29.6330   42.8669 H   0  0  0  0  0  0  0  0  0  0  0  0
   57.6784   27.7539   43.1214 H   0  0  0  0  0  0  0  0  0  0  0  0
   59.4373   27.8729   44.8977 H   0  0  0  0  0  0  0  0  0  0  0  0
   59.7834   29.0839   47.3473 H   0  0  0  0  0  0  0  0  0  0  0  0
   60.8188   29.9659   46.1472 H   0  0  0  0  0  0  0  0  0  0  0  0
   58.9950   31.8010   46.9960 H   0  0  0  0  0  0  0  0  0  0  0  0
   59.3410   30.9410   48.3890 H   0  0  0  0  0  0  0  0  0  0  0  0
   62.0949   30.1999   46.7329 H   0  0  0  0  0  0  0  0  0  0  0  0
   64.2992   31.3503   46.8607 H   0  0  0  0  0  0  0  0  0  0  0  0
   64.4516   33.6659   47.7716 H   0  0  0  0  0  0  0  0  0  0  0  0
   62.4035   34.8267   48.5833 H   0  0  0  0  0  0  0  0  0  0  0  0
   60.6218   35.2202   46.2811 H   0  0  0  0  0  0  0  0  0  0  0  0
   59.5509   35.4413   44.0323 H   0  0  0  0  0  0  0  0  0  0  0  0
   56.0426   33.4712   45.4436 H   0  0  0  0  0  0  0  0  0  0  0  0
   57.0562   33.2199   47.7156 H   0  0  0  0  0  0  0  0  0  0  0  0
   56.1956   31.6107   44.3915 H   0  0  0  0  0  0  0  0  0  0  0  0
  1  2  2  0
  2  3  1  0
  3  4  2  0
  4  5  1  0
  5  6  1  0
  6  7  1  0
  7  8  2  0
  8  9  1  0
  9 10  2  0
 10 11  1  0
 11 12  2  0
 12 13  1  0
 13 14  1  0
 14 15  2  0
 15 16  1  0
 16 17  2  0
 17 18  1  0
 18 19  2  0
  4 20  1  0
 20 21  2  0
 21  1  1  0
 12  7  1  0
 19 14  1  0
  1 22  1  0
  2 23  1  0
  3 24  1  0
  5 25  1  0
  5 26  1  0
  6 27  1  0
  6 28  1  0
  8 29  1  0
  9 30  1  0
 10 31  1  0
 11 32  1  0
 15 33  1  0
 16 34  1  0
 18 35  1  0
 19 36  1  0
 21 37  1  0
M  CHG  1   6   1
M  END
>  <UniqueID>  (20) 
19

>  <SMILES>  (20) 
c1ccc(C[NH2+]c2ccccc2Sc2ccncc2)nc1

>  <Energy>  (20) 
37.781327555636445

>  <Genealogy>  (20) 
c1ccc(C[NH2+]c2ccccc2Sc2ccncc2)nc1 (protonated)
c1ccc(C[NH2+]c2ccccc2Sc2ccncc2)nc1 (3D coordinates assigned)
c1ccc(C[NH2+]c2ccccc2Sc2ccncc2)nc1 (optimized conformer: 37.781327555636445 kcal/mol)

>  <smiles>  (20) 
c1ccc(CNc2ccccc2Sc2ccncc2)nc1

>  <score_type>  (20) 
oracle

>  <origin>  (20) 
adg

>  <m_score__min__energy>  (20) 
-5.5300000000000002

>  <m_primary>  (20) 
energy

$$$$
20:0
     RDKit          3D

 35 37  0  0  0  0  0  0  0  0999 V2000
   59.4900   29.4740   46.9910 N   0  0  0  0  0  0  0  0  0  0  0  0
   59.8520   29.4660   48.4070 C   0  0  0  0  0  0  0  0  0  0  0  0
   58.9270   30.3870   49.2100 C   0  0  0  0  0  0  0  0  0  0  0  0
   59.3070   31.8390   49.0420 C   0  0  0  0  0  0  0  0  0  0  0  0
   59.9160   32.5280   50.1030 C   0  0  0  0  0  0  0  0  0  0  0  0
   60.2970   33.8640   49.9550 C   0  0  0  0  0  0  0  0  0  0  0  0
   60.0840   34.5270   48.7450 C   0  0  0  0  0  0  0  0  0  0  0  0
   59.4880   33.8530   47.6660 C   0  0  0  0  0  0  0  0  0  0  0  0
   59.2690   34.4740   46.4270 C   0  0  0  0  0  0  0  0  0  0  0  0
   59.6020   35.6750   46.2340 O   0  0  0  0  0  0  0  0  0  0  0  0
   58.6780   33.7500   45.3910 C   0  0  0  0  0  0  0  0  0  0  0  0
   58.3100   32.4120   45.6090 C   0  0  0  0  0  0  0  0  0  0  0  0
   57.6830   31.5850   44.5460 C   0  0  0  0  0  0  0  0  0  0  0  0
   57.6450   32.0080   43.2010 C   0  0  0  0  0  0  0  0  0  0  0  0
   57.0390   31.2100   42.2260 C   0  0  0  0  0  0  0  0  0  0  0  0
   56.4580   29.9910   42.5780 C   0  0  0  0  0  0  0  0  0  0  0  0
   56.4760   29.5680   43.9080 C   0  0  0  0  0  0  0  0  0  0  0  0
   57.0810   30.3600   44.8880 C   0  0  0  0  0  0  0  0  0  0  0  0
   58.5400   31.8540   46.7960 O   0  0  0  0  0  0  0  0  0  0  0  0
   59.1000   32.5010   47.8160 C   0  0  0  0  0  0  0  0  0  0  0  0
   59.9990   30.2670   46.5380 H   0  0  0  0  0  0  0  0  0  0  0  0
   58.4700   29.6910   46.9150 H   0  0  0  0  0  0  0  0  0  0  0  0
   59.7659   28.4405   48.7955 H   0  0  0  0  0  0  0  0  0  0  0  0
   60.8856   29.8283   48.5089 H   0  0  0  0  0  0  0  0  0  0  0  0
   57.8930   30.2459   48.8623 H   0  0  0  0  0  0  0  0  0  0  0  0
   59.0219   30.1271   50.2746 H   0  0  0  0  0  0  0  0  0  0  0  0
   60.0945   32.0120   51.0580 H   0  0  0  0  0  0  0  0  0  0  0  0
   60.7668   34.3958   50.7955 H   0  0  0  0  0  0  0  0  0  0  0  0
   60.3836   35.5798   48.6362 H   0  0  0  0  0  0  0  0  0  0  0  0
   58.5020   34.2223   44.4133 H   0  0  0  0  0  0  0  0  0  0  0  0
   58.0946   32.9711   42.9176 H   0  0  0  0  0  0  0  0  0  0  0  0
   57.0201   31.5441   41.1781 H   0  0  0  0  0  0  0  0  0  0  0  0
   55.9860   29.3637   41.8075 H   0  0  0  0  0  0  0  0  0  0  0  0
   56.0132   28.6095   44.1855 H   0  0  0  0  0  0  0  0  0  0  0  0
   57.0866   30.0229   45.9351 H   0  0  0  0  0  0  0  0  0  0  0  0
  1  2  1  0
  2  3  1  0
  3  4  1  0
  4  5  2  0
  5  6  1  0
  6  7  2  0
  7  8  1  0
  8  9  1  0
  9 10  2  0
  9 11  1  0
 11 12  2  0
 12 13  1  0
 13 14  2  0
 14 15  1  0
 15 16  2  0
 16 17  1  0
 17 18  2  0
 12 19  1  0
 19 20  1  0
 20  4  1  0
 20  8  2  0
 18 13  1  0
  1 21  1  0
  1 22  1  0
  2 23  1  0
  2 24  1  0
  3 25  1  0
  3 26  1  0
  5 27  1  0
  6 28  1  0
  7 29  1  0
 11 30  1  0
 14 31  1  0
 15 32  1  0
 16 33  1  0
 17 34  1  0
 18 35  1  0
M  END
>  <UniqueID>  (21) 
20

>  <SMILES>  (21) 
NCCc1cccc2c(=O)cc(-c3ccccc3)oc12

>  <Energy>  (21) 
42.22282730627429

>  <Genealogy>  (21) 
NCCc1cccc2c(=O)cc(-c3ccccc3)oc12 (3D coordinates assigned)
NCCc1cccc2c(=O)cc(-c3ccccc3)oc12 (optimized conformer: 42.22282730627429 kcal/mol)

>  <smiles>  (21) 
NCCc1cccc2c(=O)cc(-c3ccccc3)oc12

>  <score_type>  (21) 
oracle

>  <origin>  (21) 
adg

>  <m_score__min__energy>  (21) 
-7.3799999999999999

>  <m_primary>  (21) 
energy

$$$$
21:0
     RDKit          3D

 53 56  0  0  1  0  0  0  0  0999 V2000
   59.6410   32.8740   52.8050 C   0  0  0  0  0  0  0  0  0  0  0  0
   60.3450   33.3210   51.5710 C   0  0  0  0  0  0  0  0  0  0  0  0
   59.6220   33.8570   50.5330 C   0  0  0  0  0  0  0  0  0  0  0  0
   60.2070   34.2850   49.3750 C   0  0  0  0  0  0  0  0  0  0  0  0
   59.4890   34.7710   48.4520 N   0  0  0  0  0  0  0  0  0  0  0  0
   59.1970   34.1490   47.2010 C   0  0  0  0  0  0  0  0  0  0  0  0
   59.4820   34.9470   45.9630 C   0  0  0  0  0  0  0  0  0  0  0  0
   59.4040   33.8950   44.8460 C   0  0  0  0  0  0  0  0  0  0  0  0
   58.0300   33.5590   44.6860 N   0  0  0  0  0  0  0  0  0  0  0  0
   57.7670   32.7110   43.5660 C   0  0  0  0  0  0  0  0  0  0  0  0
   57.5950   31.3030   43.9890 C   0  0  0  0  0  0  0  0  0  0  0  0
   58.6180   30.5310   44.5060 C   0  0  0  0  0  0  0  0  0  0  0  0
   58.3120   29.2320   44.8590 C   0  0  0  0  0  0  0  0  0  0  0  0
   57.0610   28.6800   44.7230 C   0  0  0  0  0  0  0  0  0  0  0  0
   56.0390   29.4510   44.2060 C   0  0  0  0  0  0  0  0  0  0  0  0
   56.3290   30.7380   43.8530 C   0  0  0  0  0  0  0  0  0  0  0  0
   57.2640   33.2940   45.8400 C   0  0  0  0  0  0  0  0  0  0  0  0
   58.0410   33.2240   47.1330 C   0  0  0  0  0  0  0  0  0  0  0  0
   61.5420   34.1690   49.2690 N   0  0  0  0  0  0  0  0  0  0  0  0
   62.2780   33.6480   50.2680 C   0  0  0  0  0  0  0  0  0  0  0  0
   63.6870   33.5010   50.2130 N   0  0  0  0  0  0  0  0  0  0  0  0
   64.5780   33.7310   51.1980 C   0  0  0  0  0  0  0  0  0  0  0  0
   65.8240   33.4510   50.6790 C   0  0  0  0  0  0  0  0  0  0  0  0
   65.6380   33.0620   49.3990 N   0  0  0  0  0  0  0  0  0  0  0  0
   64.3370   33.0920   49.1110 C   0  0  0  0  0  0  0  0  0  0  0  0
   63.7340   32.7280   47.7870 C   0  0  0  0  0  0  0  0  0  0  0  0
   61.6810   33.2240   51.4200 N   0  0  0  0  0  0  0  0  0  0  0  0
   60.1931   33.2245   53.6895 H   0  0  0  0  0  0  0  0  0  0  0  0
   58.6236   33.2919   52.8185 H   0  0  0  0  0  0  0  0  0  0  0  0
   59.5864   31.7754   52.8185 H   0  0  0  0  0  0  0  0  0  0  0  0
   58.5306   33.9449   50.6383 H   0  0  0  0  0  0  0  0  0  0  0  0
   60.0181   33.4171   47.1895 H   0  0  0  0  0  0  0  0  0  0  0  0
   58.7273   35.7340   45.8178 H   0  0  0  0  0  0  0  0  0  0  0  0
   60.4491   35.4700   45.9983 H   0  0  0  0  0  0  0  0  0  0  0  0
   59.8033   34.3092   43.9084 H   0  0  0  0  0  0  0  0  0  0  0  0
   59.9984   33.0056   45.1022 H   0  0  0  0  0  0  0  0  0  0  0  0
   56.8474   33.0506   43.0670 H   0  0  0  0  0  0  0  0  0  0  0  0
   58.6242   32.7659   42.8788 H   0  0  0  0  0  0  0  0  0  0  0  0
   59.6336   30.9347   44.6310 H   0  0  0  0  0  0  0  0  0  0  0  0
   59.1146   28.6035   45.2723 H   0  0  0  0  0  0  0  0  0  0  0  0
   56.8763   27.6377   45.0221 H   0  0  0  0  0  0  0  0  0  0  0  0
   55.0252   29.0424   44.0826 H   0  0  0  0  0  0  0  0  0  0  0  0
   55.5215   31.3604   43.4401 H   0  0  0  0  0  0  0  0  0  0  0  0
   56.5126   34.0913   45.9387 H   0  0  0  0  0  0  0  0  0  0  0  0
   56.8314   32.2934   45.6926 H   0  0  0  0  0  0  0  0  0  0  0  0
   57.3568   33.4664   47.9595 H   0  0  0  0  0  0  0  0  0  0  0  0
   58.4490   32.2047   47.2004 H   0  0  0  0  0  0  0  0  0  0  0  0
   62.0510   34.4750   48.4160 H   0  0  0  0  0  0  0  0  0  0  0  0
   64.3542   34.0754   52.2184 H   0  0  0  0  0  0  0  0  0  0  0  0
   66.7860   33.5294   51.2066 H   0  0  0  0  0  0  0  0  0  0  0  0
   62.8027   32.1658   47.9504 H   0  0  0  0  0  0  0  0  0  0  0  0
   63.5143   33.6445   47.2197 H   0  0  0  0  0  0  0  0  0  0  0  0
   64.4426   32.1067   47.2197 H   0  0  0  0  0  0  0  0  0  0  0  0
  1  2  1  0
  2  3  2  0
  3  4  1  0
  4  5  2  0
  5  6  1  0
  6  7  1  0
  7  8  1  0
  8  9  1  0
  9 10  1  0
 10 11  1  0
 11 12  2  0
 12 13  1  0
 13 14  2  0
 14 15  1  0
 15 16  2  0
  9 17  1  0
 17 18  1  0
  4 19  1  0
 19 20  1  0
 20 21  1  0
 21 22  1  0
 22 23  2  0
 23 24  1  0
 24 25  2  0
 25 26  1  0
 20 27  2  0
 27  2  1  0
 18  6  1  0
 25 21  1  0
 16 11  1  0
  1 28  1  0
  1 29  1  0
  1 30  1  0
  3 31  1  0
  6 32  1  0
  7 33  1  0
  7 34  1  0
  8 35  1  0
  8 36  1  0
 10 37  1  0
 10 38  1  0
 12 39  1  0
 13 40  1  0
 14 41  1  0
 15 42  1  0
 16 43  1  0
 17 44  1  0
 17 45  1  0
 18 46  1  0
 18 47  1  0
 19 48  1  0
 22 49  1  0
 23 50  1  0
 26 51  1  0
 26 52  1  0
 26 53  1  0
M  END
>  <smiles>  (22) 
Cc1cc(=NC2CCN(Cc3ccccc3)CC2)[nH]c(-n2ccnc2C)n1

>  <score_type>  (22) 
oracle

>  <origin>  (22) 
adg

>  <m_score__min__energy>  (22) 
-8.7400000000000002

>  <m_primary>  (22) 
energy

$$$$
22:0
     RDKit          3D

 63 66  0  0  0  0  0  0  0  0999 V2000
   59.9900   33.8020   49.1990 C   0  0  0  0  0  0  0  0  0  0  0  0
   61.4340   33.3870   49.1280 C   0  0  0  0  0  0  0  0  0  0  0  0
   62.4050   34.1610   49.7850 C   0  0  0  0  0  0  0  0  0  0  0  0
   63.7560   33.8080   49.7210 C   0  0  0  0  0  0  0  0  0  0  0  0
   64.1520   32.6840   48.9930 C   0  0  0  0  0  0  0  0  0  0  0  0
   63.1990   31.9170   48.3210 C   0  0  0  0  0  0  0  0  0  0  0  0
   61.8420   32.2660   48.3720 C   0  0  0  0  0  0  0  0  0  0  0  0
   60.8920   31.4630   47.6570 N   0  0  0  0  0  0  0  0  0  0  0  0
   60.2600   31.9930   46.4470 C   0  0  0  0  0  0  0  0  0  0  0  0
   59.6230   30.8630   45.6300 C   0  0  0  0  0  0  0  0  0  0  0  0
   60.4920   29.6650   45.6630 N   0  0  0  0  0  0  0  0  0  0  0  0
   60.0350   28.6420   44.6920 C   0  0  0  0  0  0  0  0  0  0  0  0
   58.6650   28.1030   45.0350 C   0  0  0  0  0  0  0  0  0  0  0  0
   57.5370   28.9290   44.9280 C   0  0  0  0  0  0  0  0  0  0  0  0
   56.2700   28.4380   45.2490 C   0  0  0  0  0  0  0  0  0  0  0  0
   56.1140   27.1170   45.6800 C   0  0  0  0  0  0  0  0  0  0  0  0
   54.8430   26.6460   45.9880 O   0  0  0  0  0  0  0  0  0  0  0  0
   57.2370   26.2770   45.8000 C   0  0  0  0  0  0  0  0  0  0  0  0
   57.0810   24.8460   46.2490 C   0  0  0  0  0  0  0  0  0  0  0  0
   57.8120   23.9330   45.3410 N   0  0  0  0  0  0  0  0  0  0  0  0
   57.6660   22.5060   45.7000 C   0  0  0  0  0  0  0  0  0  0  0  0
   56.2860   21.9310   45.3220 C   0  0  0  0  0  0  0  0  0  0  0  0
   55.9260   22.1920   43.9150 N   0  0  0  0  0  0  0  0  0  0  0  0
   56.6280   21.2950   42.9800 C   0  0  0  0  0  0  0  0  0  0  0  0
   56.0840   23.6150   43.5590 C   0  0  0  0  0  0  0  0  0  0  0  0
   57.4770   24.1610   43.9220 C   0  0  0  0  0  0  0  0  0  0  0  0
   58.5090   26.7760   45.4710 C   0  0  0  0  0  0  0  0  0  0  0  0
   60.5360   29.0790   47.0280 C   0  0  0  0  0  0  0  0  0  0  0  0
   60.5390   30.1330   48.1590 C   0  0  0  0  0  0  0  0  0  0  0  0
   59.6850   33.8896   50.2522 H   0  0  0  0  0  0  0  0  0  0  0  0
   59.8625   34.7731   48.6983 H   0  0  0  0  0  0  0  0  0  0  0  0
   59.3664   33.0467   48.6983 H   0  0  0  0  0  0  0  0  0  0  0  0
   62.0999   35.0515   50.3541 H   0  0  0  0  0  0  0  0  0  0  0  0
   64.5081   34.4163   50.2447 H   0  0  0  0  0  0  0  0  0  0  0  0
   65.2147   32.4032   48.9492 H   0  0  0  0  0  0  0  0  0  0  0  0
   63.5146   31.0329   47.7476 H   0  0  0  0  0  0  0  0  0  0  0  0
   59.4812   32.7153   46.7330 H   0  0  0  0  0  0  0  0  0  0  0  0
   61.0286   32.4844   45.8324 H   0  0  0  0  0  0  0  0  0  0  0  0
   58.6408   30.6129   46.0575 H   0  0  0  0  0  0  0  0  0  0  0  0
   59.5019   31.1937   44.5879 H   0  0  0  0  0  0  0  0  0  0  0  0
   61.4690   29.9500   45.4070 H   0  0  0  0  0  0  0  0  0  0  0  0
   59.9970   29.0956   43.6906 H   0  0  0  0  0  0  0  0  0  0  0  0
   60.7462   27.8035   44.7241 H   0  0  0  0  0  0  0  0  0  0  0  0
   57.6509   29.9694   44.5894 H   0  0  0  0  0  0  0  0  0  0  0  0
   55.3907   29.0932   45.1625 H   0  0  0  0  0  0  0  0  0  0  0  0
   57.4825   24.7408   47.2677 H   0  0  0  0  0  0  0  0  0  0  0  0
   56.0130   24.5832   46.2323 H   0  0  0  0  0  0  0  0  0  0  0  0
   58.4421   21.9305   45.1743 H   0  0  0  0  0  0  0  0  0  0  0  0
   57.7685   22.4280   46.7924 H   0  0  0  0  0  0  0  0  0  0  0  0
   56.3013   20.8433   45.4853 H   0  0  0  0  0  0  0  0  0  0  0  0
   55.5350   22.4270   45.9545 H   0  0  0  0  0  0  0  0  0  0  0  0
   57.2082   20.5536   43.5490 H   0  0  0  0  0  0  0  0  0  0  0  0
   55.8926   20.7774   42.3466 H   0  0  0  0  0  0  0  0  0  0  0  0
   57.3072   21.8844   42.3466 H   0  0  0  0  0  0  0  0  0  0  0  0
   55.9325   23.7267   42.4752 H   0  0  0  0  0  0  0  0  0  0  0  0
   55.3401   24.1881   44.1318 H   0  0  0  0  0  0  0  0  0  0  0  0
   58.2288   23.6589   43.2953 H   0  0  0  0  0  0  0  0  0  0  0  0
   57.4707   25.2469   43.7465 H   0  0  0  0  0  0  0  0  0  0  0  0
   59.3898   26.1225   45.5554 H   0  0  0  0  0  0  0  0  0  0  0  0
   59.6544   28.4340   47.1572 H   0  0  0  0  0  0  0  0  0  0  0  0
   61.4807   28.5211   47.1071 H   0  0  0  0  0  0  0  0  0  0  0  0
   59.5363   30.1761   48.6092 H   0  0  0  0  0  0  0  0  0  0  0  0
   61.2921   29.8358   48.9037 H   0  0  0  0  0  0  0  0  0  0  0  0
  1  2  1  0
  2  3  2  0
  3  4  1  0
  4  5  2  0
  5  6  1  0
  6  7  2  0
  7  8  1  0
  8  9  1  0
  9 10  1  0
 10 11  1  0
 11 12  1  0
 12 13  1  0
 13 14  2  0
 14 15  1  0
 15 16  2  0
 16 17  1  0
 16 18  1  0
 18 19  1  0
 19 20  1  0
 20 21  1  0
 21 22  1  0
 22 23  1  0
 23 24  1  0
 23 25  1  0
 25 26  1  0
 18 27  2  0
 11 28  1  0
 28 29  1  0
  7  2  1  0
 29  8  1  0
 27 13  1  0
 26 20  1  0
  1 30  1  0
  1 31  1  0
  1 32  1  0
  3 33  1  0
  4 34  1  0
  5 35  1  0
  6 36  1  0
  9 37  1  0
  9 38  1  0
 10 39  1  0
 10 40  1  0
 11 41  1  0
 12 42  1  0
 12 43  1  0
 14 44  1  0
 15 45  1  0
 19 46  1  0
 19 47  1  0
 21 48  1  0
 21 49  1  0
 22 50  1  0
 22 51  1  0
 24 52  1  0
 24 53  1  0
 24 54  1  0
 25 55  1  0
 25 56  1  0
 26 57  1  0
 26 58  1  0
 27 59  1  0
 28 60  1  0
 28 61  1  0
 29 62  1  0
 29 63  1  0
M  CHG  2  11   1  17  -1
M  END
>  <UniqueID>  (23) 
21

>  <SMILES>  (23) 
Cc1ccccc1N1CC[NH+](Cc2ccc([O-])c(CN3CCN(C)CC3)c2)CC1

>  <Energy>  (23) 
84.19879425164505

>  <Genealogy>  (23) 
Cc1ccccc1N1CC[NH+](Cc2ccc([O-])c(CN3CCN(C)CC3)c2)CC1 (protonated)
Cc1ccccc1N1CC[NH+](Cc2ccc([O-])c(CN3CCN(C)CC3)c2)CC1 (3D coordinates assigned)
Cc1ccccc1N1CC[NH+](Cc2ccc([O-])c(CN3CCN(C)CC3)c2)CC1 (nonaromatic ring conformer: 84.19879425164505 kcal/mol)

>  <smiles>  (23) 
Cc1ccccc1N1CCN(Cc2ccc(O)c(CN3CCN(C)CC3)c2)CC1

>  <score_type>  (23) 
oracle

>  <origin>  (23) 
adg

>  <m_score__min__energy>  (23) 
-10.34

>  <m_primary>  (23) 
energy

$$$$
23:0
     RDKit          3D

 49 51  0  0  0  0  0  0  0  0999 V2000
   58.1010   32.3960   42.8270 C   0  0  0  0  0  0  0  0  0  0  0  0
   57.4290   32.0520   44.0850 N   0  0  0  0  0  0  0  0  0  0  0  0
   57.0130   33.1300   44.9970 C   0  0  0  0  0  0  0  0  0  0  0  0
   58.1640   33.5590   45.8720 C   0  0  0  0  0  0  0  0  0  0  0  0
   59.3020   34.1520   45.3010 C   0  0  0  0  0  0  0  0  0  0  0  0
   60.3600   34.5730   46.1150 C   0  0  0  0  0  0  0  0  0  0  0  0
   60.2940   34.3980   47.4970 C   0  0  0  0  0  0  0  0  0  0  0  0
   59.1660   33.8100   48.0730 C   0  0  0  0  0  0  0  0  0  0  0  0
   58.1030   33.3930   47.2670 C   0  0  0  0  0  0  0  0  0  0  0  0
   57.1030   30.6790   44.4080 C   0  0  0  0  0  0  0  0  0  0  0  0
   55.9360   30.3960   44.7900 O   0  0  0  0  0  0  0  0  0  0  0  0
   58.1200   29.5580   44.3130 C   0  0  0  0  0  0  0  0  0  0  0  0
   58.6580   29.1480   45.6280 N   0  0  0  0  0  0  0  0  0  0  0  0
   60.0410   28.6110   45.5890 C   0  0  0  0  0  0  0  0  0  0  0  0
   61.0980   29.6310   46.0430 C   0  0  0  0  0  0  0  0  0  0  0  0
   60.7090   30.2760   47.3010 N   0  0  0  0  0  0  0  0  0  0  0  0
   61.5750   31.2550   47.8910 C   0  0  0  0  0  0  0  0  0  0  0  0
   62.5340   31.9110   47.1030 C   0  0  0  0  0  0  0  0  0  0  0  0
   63.3840   32.8630   47.6730 C   0  0  0  0  0  0  0  0  0  0  0  0
   63.2820   33.1680   49.0310 C   0  0  0  0  0  0  0  0  0  0  0  0
   62.3300   32.5190   49.8250 C   0  0  0  0  0  0  0  0  0  0  0  0
   61.4770   31.5650   49.2580 C   0  0  0  0  0  0  0  0  0  0  0  0
   60.5400   30.9670   50.0360 F   0  0  0  0  0  0  0  0  0  0  0  0
   59.3740   30.0400   47.8540 C   0  0  0  0  0  0  0  0  0  0  0  0
   58.3490   30.1020   46.7220 C   0  0  0  0  0  0  0  0  0  0  0  0
   59.0605   32.8872   43.0463 H   0  0  0  0  0  0  0  0  0  0  0  0
   58.2824   31.4799   42.2458 H   0  0  0  0  0  0  0  0  0  0  0  0
   57.4639   33.0788   42.2458 H   0  0  0  0  0  0  0  0  0  0  0  0
   56.6681   33.9909   44.4055 H   0  0  0  0  0  0  0  0  0  0  0  0
   56.1999   32.7582   45.6378 H   0  0  0  0  0  0  0  0  0  0  0  0
   59.3620   34.2860   44.2108 H   0  0  0  0  0  0  0  0  0  0  0  0
   61.2460   35.0432   45.6634 H   0  0  0  0  0  0  0  0  0  0  0  0
   61.1304   34.7231   48.1332 H   0  0  0  0  0  0  0  0  0  0  0  0
   59.1139   33.6747   49.1634 H   0  0  0  0  0  0  0  0  0  0  0  0
   57.2152   32.9332   47.7257 H   0  0  0  0  0  0  0  0  0  0  0  0
   57.6378   28.6869   43.8453 H   0  0  0  0  0  0  0  0  0  0  0  0
   58.9647   29.9321   43.7159 H   0  0  0  0  0  0  0  0  0  0  0  0
   60.0945   27.7337   46.2504 H   0  0  0  0  0  0  0  0  0  0  0  0
   60.2628   28.3529   44.5430 H   0  0  0  0  0  0  0  0  0  0  0  0
   62.0574   29.1127   46.1876 H   0  0  0  0  0  0  0  0  0  0  0  0
   61.1880   30.4065   45.2681 H   0  0  0  0  0  0  0  0  0  0  0  0
   62.6169   31.6747   46.0319 H   0  0  0  0  0  0  0  0  0  0  0  0
   64.1343   33.3724   47.0504 H   0  0  0  0  0  0  0  0  0  0  0  0
   63.9504   33.9190   49.4774 H   0  0  0  0  0  0  0  0  0  0  0  0
   62.2519   32.7587   50.8957 H   0  0  0  0  0  0  0  0  0  0  0  0
   59.3410   29.0477   48.3276 H   0  0  0  0  0  0  0  0  0  0  0  0
   59.1427   30.8072   48.6075 H   0  0  0  0  0  0  0  0  0  0  0  0
   57.3562   29.8620   47.1305 H   0  0  0  0  0  0  0  0  0  0  0  0
   58.3756   31.1174   46.2999 H   0  0  0  0  0  0  0  0  0  0  0  0
  1  2  1  0
  2  3  1  0
  3  4  1  0
  4  5  2  0
  5  6  1  0
  6  7  2  0
  7  8  1  0
  8  9  2  0
  2 10  1  0
 10 11  2  0
 10 12  1  0
 12 13  1  0
 13 14  1  0
 14 15  1  0
 15 16  1  0
 16 17  1  0
 17 18  2  0
 18 19  1  0
 19 20  2  0
 20 21  1  0
 21 22  2  0
 22 23  1  0
 16 24  1  0
 24 25  1  0
  9  4  1  0
 25 13  1  0
 22 17  1  0
  1 26  1  0
  1 27  1  0
  1 28  1  0
  3 29  1  0
  3 30  1  0
  5 31  1  0
  6 32  1  0
  7 33  1  0
  8 34  1  0
  9 35  1  0
 12 36  1  0
 12 37  1  0
 14 38  1  0
 14 39  1  0
 15 40  1  0
 15 41  1  0
 18 42  1  0
 19 43  1  0
 20 44  1  0
 21 45  1  0
 24 46  1  0
 24 47  1  0
 25 48  1  0
 25 49  1  0
M  END
>  <UniqueID>  (24) 
22

>  <SMILES>  (24) 
CN(Cc1ccccc1)C(=O)CN1CCN(c2ccccc2F)CC1

>  <Energy>  (24) 
63.797955439424996

>  <Genealogy>  (24) 
CN(Cc1ccccc1)C(=O)CN1CCN(c2ccccc2F)CC1 (3D coordinates assigned)
CN(Cc1ccccc1)C(=O)CN1CCN(c2ccccc2F)CC1 (nonaromatic ring conformer: 63.797955439424996 kcal/mol)

>  <smiles>  (24) 
CN(Cc1ccccc1)C(=O)CN1CCN(c2ccccc2F)CC1

>  <score_type>  (24) 
oracle

>  <origin>  (24) 
adg

>  <m_score__min__energy>  (24) 
-7.5700000000000003

>  <m_primary>  (24) 
energy

$$$$
24:0
     RDKit          3D

 59 60  0  0  0  0  0  0  0  0999 V2000
   59.2423   28.8948   49.6309 H   0  0  0  0  0  0  0  0  0  0  0  0
   59.0050   29.4110   48.6890 C   0  0  0  0  0  0  0  0  0  0  0  0
   58.9180   28.6840   47.5010 C   0  0  0  0  0  0  0  0  0  0  0  0
   59.0725   27.5951   47.5205 H   0  0  0  0  0  0  0  0  0  0  0  0
   58.6350   29.3230   46.2750 C   0  0  0  0  0  0  0  0  0  0  0  0
   58.4790   30.7270   46.2680 C   0  0  0  0  0  0  0  0  0  0  0  0
   58.5180   31.4430   47.4800 C   0  0  0  0  0  0  0  0  0  0  0  0
   58.3305   32.5269   47.4752 H   0  0  0  0  0  0  0  0  0  0  0  0
   58.7910   30.7980   48.6870 C   0  0  0  0  0  0  0  0  0  0  0  0
   58.8300   31.5670   49.8600 O   0  0  0  0  0  0  0  0  0  0  0  0
   57.9880   31.3540   50.9900 C   0  0  0  0  0  0  0  0  0  0  0  0
   58.5685   31.5009   51.9127 H   0  0  0  0  0  0  0  0  0  0  0  0
   57.1525   32.0691   50.9647 H   0  0  0  0  0  0  0  0  0  0  0  0
   57.5931   30.3277   50.9647 H   0  0  0  0  0  0  0  0  0  0  0  0
   58.1340   31.3880   44.9930 C   0  0  0  0  0  0  0  0  0  0  0  0
   58.5280   32.5930   44.6900 N   0  0  0  0  0  0  0  0  0  0  0  0
   58.1170   33.7180   45.3680 O   0  0  0  0  0  0  0  0  0  0  0  0
   58.7790   34.9560   45.1710 C   0  0  0  0  0  0  0  0  0  0  0  0
   58.1252   35.7784   45.4970 H   0  0  0  0  0  0  0  0  0  0  0  0
   59.0174   35.0811   44.1045 H   0  0  0  0  0  0  0  0  0  0  0  0
   60.0740   34.9740   45.9930 C   0  0  0  0  0  0  0  0  0  0  0  0
   60.0995   35.9100   46.5703 H   0  0  0  0  0  0  0  0  0  0  0  0
   60.8993   34.8855   45.2712 H   0  0  0  0  0  0  0  0  0  0  0  0
   60.2270   33.8410   46.9430 N   0  0  0  0  0  0  0  0  0  0  0  0
   59.4670   33.1790   46.6540 H   0  0  0  0  0  0  0  0  0  0  0  0
   59.9140   34.2300   48.3430 C   0  0  0  0  0  0  0  0  0  0  0  0
   58.9435   33.7942   48.6228 H   0  0  0  0  0  0  0  0  0  0  0  0
   59.8892   35.3287   48.3896 H   0  0  0  0  0  0  0  0  0  0  0  0
   60.9780   33.7420   49.3340 C   0  0  0  0  0  0  0  0  0  0  0  0
   60.6233   33.9047   50.3624 H   0  0  0  0  0  0  0  0  0  0  0  0
   61.1625   32.6693   49.1752 H   0  0  0  0  0  0  0  0  0  0  0  0
   61.9113   34.3020   49.1752 H   0  0  0  0  0  0  0  0  0  0  0  0
   61.4990   33.0810   46.7570 C   0  0  0  0  0  0  0  0  0  0  0  0
   61.6578   32.4655   47.6548 H   0  0  0  0  0  0  0  0  0  0  0  0
   61.3657   32.5010   45.8319 H   0  0  0  0  0  0  0  0  0  0  0  0
   62.7650   33.9290   46.5370 C   0  0  0  0  0  0  0  0  0  0  0  0
   63.1896   34.2134   47.5111 H   0  0  0  0  0  0  0  0  0  0  0  0
   63.5048   33.3435   45.9714 H   0  0  0  0  0  0  0  0  0  0  0  0
   62.5051   34.8359   45.9714 H   0  0  0  0  0  0  0  0  0  0  0  0
   57.3880   30.5440   43.9860 C   0  0  0  0  0  0  0  0  0  0  0  0
   55.9590   30.2590   44.4960 C   0  0  0  0  0  0  0  0  0  0  0  0
   55.9556   30.2583   45.5960 H   0  0  0  0  0  0  0  0  0  0  0  0
   55.2759   31.0386   44.1277 H   0  0  0  0  0  0  0  0  0  0  0  0
   55.6273   29.2770   44.1277 H   0  0  0  0  0  0  0  0  0  0  0  0
   57.2540   31.2660   42.6210 C   0  0  0  0  0  0  0  0  0  0  0  0
   57.0556   32.3348   42.7894 H   0  0  0  0  0  0  0  0  0  0  0  0
   58.1887   31.1517   42.0524 H   0  0  0  0  0  0  0  0  0  0  0  0
   56.4226   30.8239   42.0524 H   0  0  0  0  0  0  0  0  0  0  0  0
   58.1390   29.2850   43.7740 N   0  0  0  0  0  0  0  0  0  0  0  0
   58.9940   29.5180   43.2150 H   0  0  0  0  0  0  0  0  0  0  0  0
   58.5270   28.4910   44.9820 C   0  0  0  0  0  0  0  0  0  0  0  0
   57.4910   27.3570   45.1520 C   0  0  0  0  0  0  0  0  0  0  0  0
   57.3221   27.1722   46.2231 H   0  0  0  0  0  0  0  0  0  0  0  0
   56.5436   27.6516   44.6769 H   0  0  0  0  0  0  0  0  0  0  0  0
   57.8698   26.4400   44.6769 H   0  0  0  0  0  0  0  0  0  0  0  0
   59.9040   27.8300   44.7160 C   0  0  0  0  0  0  0  0  0  0  0  0
   60.3901   27.5967   45.6748 H   0  0  0  0  0  0  0  0  0  0  0  0
   59.7608   26.9025   44.1422 H   0  0  0  0  0  0  0  0  0  0  0  0
   60.5381   28.5219   44.1422 H   0  0  0  0  0  0  0  0  0  0  0  0
  1  2  1  0
  2  3  2  0
  3  4  1  0
  3  5  1  0
  5  6  2  0
  6  7  1  0
  7  8  1  0
  7  9  2  0
  9 10  1  0
 10 11  1  0
 11 12  1  0
 11 13  1  0
 11 14  1  0
  6 15  1  0
 15 16  2  0
 16 17  1  0
 17 18  1  0
 18 19  1  0
 18 20  1  0
 18 21  1  0
 21 22  1  0
 21 23  1  0
 21 24  1  0
 24 25  1  0
 24 26  1  0
 26 27  1  0
 26 28  1  0
 26 29  1  0
 29 30  1  0
 29 31  1  0
 29 32  1  0
 24 33  1  0
 33 34  1  0
 33 35  1  0
 33 36  1  0
 36 37  1  0
 36 38  1  0
 36 39  1  0
 15 40  1  0
 40 41  1  0
 41 42  1  0
 41 43  1  0
 41 44  1  0
 40 45  1  0
 45 46  1  0
 45 47  1  0
 45 48  1  0
 40 49  1  0
 49 50  1  0
 49 51  1  0
 51 52  1  0
 52 53  1  0
 52 54  1  0
 52 55  1  0
 51 56  1  0
 56 57  1  0
 56 58  1  0
 56 59  1  0
  9  2  1  0
 51  5  1  0
M  CHG  1  24   1
M  END
>  <UniqueID>  (25) 
23

>  <SMILES>  (25) 
CC[NH+](CC)CCO/N=C1\c2cc(OC)ccc2C(C)(C)NC1(C)C

>  <Energy>  (25) 
74.9371485174996

>  <Genealogy>  (25) 
CC[NH+](CC)CCON=C1c2cc(OC)ccc2C(C)(C)NC1(C)C (protonated)
CC[NH+](CC)CCO/N=C1\c2cc(OC)ccc2C(C)(C)NC1(C)C (cis-trans isomerization)
CC[NH+](CC)CCO/N=C1\c2cc(OC)ccc2C(C)(C)NC1(C)C (3D coordinates assigned)
CC[NH+](CC)CCO/N=C1\c2cc(OC)ccc2C(C)(C)NC1(C)C (nonaromatic ring conformer: 74.9371485174996 kcal/mol)

>  <smiles>  (25) 
CCN(CC)CCON=C1c2cc(OC)ccc2C(C)(C)NC1(C)C

>  <score_type>  (25) 
oracle

>  <origin>  (25) 
adg

>  <m_score__min__energy>  (25) 
-4.75

>  <m_primary>  (25) 
energy

$$$$
25:0
     RDKit          3D

 41 43  0  0  0  0  0  0  0  0999 V2000
   60.1150   30.2900   48.1010 C   0  0  0  0  0  0  0  0  0  0  0  0
   59.4950   30.2220   46.8210 O   0  0  0  0  0  0  0  0  0  0  0  0
   59.1010   29.0320   46.1880 C   0  0  0  0  0  0  0  0  0  0  0  0
   59.4340   27.7680   46.7170 C   0  0  0  0  0  0  0  0  0  0  0  0
   59.0290   26.5990   46.0710 C   0  0  0  0  0  0  0  0  0  0  0  0
   58.2860   26.6720   44.8940 C   0  0  0  0  0  0  0  0  0  0  0  0
   57.9480   27.9150   44.3560 C   0  0  0  0  0  0  0  0  0  0  0  0
   58.3510   29.1020   44.9920 C   0  0  0  0  0  0  0  0  0  0  0  0
   57.9770   30.4320   44.3680 C   0  0  0  0  0  0  0  0  0  0  0  0
   57.1160   31.2380   45.2520 N   0  0  0  0  0  0  0  0  0  0  0  0
   57.0730   32.6540   44.8650 C   0  0  0  0  0  0  0  0  0  0  0  0
   58.2730   33.3720   45.4010 C   0  0  0  0  0  0  0  0  0  0  0  0
   58.5260   34.7240   45.3130 C   0  0  0  0  0  0  0  0  0  0  0  0
   59.6550   34.9610   45.9410 O   0  0  0  0  0  0  0  0  0  0  0  0
   60.0880   33.8130   46.4180 C   0  0  0  0  0  0  0  0  0  0  0  0
   61.3460   33.6680   47.1760 C   0  0  0  0  0  0  0  0  0  0  0  0
   62.5550   33.6190   46.4630 C   0  0  0  0  0  0  0  0  0  0  0  0
   63.7690   33.4600   47.1350 C   0  0  0  0  0  0  0  0  0  0  0  0
   63.7900   33.3620   48.5280 C   0  0  0  0  0  0  0  0  0  0  0  0
   62.5970   33.4370   49.2510 C   0  0  0  0  0  0  0  0  0  0  0  0
   61.3740   33.5960   48.5880 C   0  0  0  0  0  0  0  0  0  0  0  0
   59.8030   33.8230   49.6680 Br  0  0  0  0  0  0  0  0  0  0  0  0
   59.2640   32.7940   46.1000 N   0  0  0  0  0  0  0  0  0  0  0  0
   59.3479   30.2059   48.8849 H   0  0  0  0  0  0  0  0  0  0  0  0
   60.8360   29.4655   48.2035 H   0  0  0  0  0  0  0  0  0  0  0  0
   60.6401   31.2511   48.2035 H   0  0  0  0  0  0  0  0  0  0  0  0
   60.0180   27.7028   47.6469 H   0  0  0  0  0  0  0  0  0  0  0  0
   59.2966   25.6184   46.4915 H   0  0  0  0  0  0  0  0  0  0  0  0
   57.9656   25.7491   44.3885 H   0  0  0  0  0  0  0  0  0  0  0  0
   57.3615   27.9660   43.4268 H   0  0  0  0  0  0  0  0  0  0  0  0
   58.8975   30.9967   44.1587 H   0  0  0  0  0  0  0  0  0  0  0  0
   57.4155   30.2264   43.4447 H   0  0  0  0  0  0  0  0  0  0  0  0
   56.1420   30.8550   45.2380 H   0  0  0  0  0  0  0  0  0  0  0  0
   57.0633   32.7309   43.7677 H   0  0  0  0  0  0  0  0  0  0  0  0
   56.1640   33.1129   45.2810 H   0  0  0  0  0  0  0  0  0  0  0  0
   57.8956   35.4705   44.8076 H   0  0  0  0  0  0  0  0  0  0  0  0
   62.5457   33.7065   45.3665 H   0  0  0  0  0  0  0  0  0  0  0  0
   64.7095   33.4119   46.5665 H   0  0  0  0  0  0  0  0  0  0  0  0
   64.7455   33.2258   49.0557 H   0  0  0  0  0  0  0  0  0  0  0  0
   62.6186   33.3707   50.3488 H   0  0  0  0  0  0  0  0  0  0  0  0
   59.3830   31.7790   46.3100 H   0  0  0  0  0  0  0  0  0  0  0  0
  1  2  1  0
  2  3  1  0
  3  4  2  0
  4  5  1  0
  5  6  2  0
  6  7  1  0
  7  8  2  0
  8  9  1  0
  9 10  1  0
 10 11  1  0
 11 12  1  0
 12 13  2  0
 13 14  1  0
 14 15  1  0
 15 16  1  0
 16 17  2  0
 17 18  1  0
 18 19  2  0
 19 20  1  0
 20 21  2  0
 21 22  1  0
 15 23  2  0
  8  3  1  0
 23 12  1  0
 21 16  1  0
  1 24  1  0
  1 25  1  0
  1 26  1  0
  4 27  1  0
  5 28  1  0
  6 29  1  0
  7 30  1  0
  9 31  1  0
  9 32  1  0
 10 33  1  0
 11 34  1  0
 11 35  1  0
 13 36  1  0
 17 37  1  0
 18 38  1  0
 19 39  1  0
 20 40  1  0
 23 41  1  0
M  CHG  1  23   1
M  END
>  <UniqueID>  (26) 
24

>  <SMILES>  (26) 
COc1ccccc1CNCc1coc(-c2ccccc2Br)[nH+]1

>  <Energy>  (26) 
77.90960428985979

>  <Genealogy>  (26) 
COc1ccccc1CNCc1coc(-c2ccccc2Br)[nH+]1 (protonated)
COc1ccccc1CNCc1coc(-c2ccccc2Br)[nH+]1 (3D coordinates assigned)
COc1ccccc1CNCc1coc(-c2ccccc2Br)[nH+]1 (optimized conformer: 77.90960428985979 kcal/mol)

>  <smiles>  (26) 
COc1ccccc1CNCc1coc(-c2ccccc2Br)n1

>  <score_type>  (26) 
oracle

>  <origin>  (26) 
adg

>  <m_score__min__energy>  (26) 
-6.7599999999999998

>  <m_primary>  (26) 
energy

$$$$
26:0
     RDKit          3D

 28 29  0  0  0  0  0  0  0  0999 V2000
   58.1210   34.0150   46.1220 C   0  0  0  0  0  0  0  0  0  0  0  0
   58.0320   32.9100   45.1190 C   0  0  0  0  0  0  0  0  0  0  0  0
   58.1380   33.1830   43.7530 C   0  0  0  0  0  0  0  0  0  0  0  0
   58.0550   32.1210   42.8470 C   0  0  0  0  0  0  0  0  0  0  0  0
   58.1460   32.3800   41.3730 C   0  0  0  0  0  0  0  0  0  0  0  0
   57.8340   30.8560   43.3090 N   0  0  0  0  0  0  0  0  0  0  0  0
   57.7120   30.6090   44.6460 C   0  0  0  0  0  0  0  0  0  0  0  0
   57.4950   29.2730   45.1300 N   0  0  0  0  0  0  0  0  0  0  0  0
   58.6590   28.4290   45.4400 C   0  0  0  0  0  0  0  0  0  0  0  0
   58.3520   27.4300   46.5620 C   0  0  0  0  0  0  0  0  0  0  0  0
   57.0850   26.6840   46.2700 C   0  0  0  0  0  0  0  0  0  0  0  0
   56.9500   25.4910   46.6460 O   0  0  0  0  0  0  0  0  0  0  0  0
   56.0020   27.3540   45.6280 N   0  0  0  0  0  0  0  0  0  0  0  0
   56.1780   28.6830   45.1400 C   0  0  0  0  0  0  0  0  0  0  0  0
   55.1720   29.3370   44.7560 O   0  0  0  0  0  0  0  0  0  0  0  0
   57.8210   31.6340   45.5330 N   0  0  0  0  0  0  0  0  0  0  0  0
   58.0870   33.5925   47.1370 H   0  0  0  0  0  0  0  0  0  0  0  0
   59.0660   34.5607   45.9835 H   0  0  0  0  0  0  0  0  0  0  0  0
   57.2755   34.7049   45.9835 H   0  0  0  0  0  0  0  0  0  0  0  0
   58.2839   34.2135   43.3970 H   0  0  0  0  0  0  0  0  0  0  0  0
   58.5062   33.4053   41.2024 H   0  0  0  0  0  0  0  0  0  0  0  0
   58.8466   31.6647   40.9176 H   0  0  0  0  0  0  0  0  0  0  0  0
   57.1519   32.2601   40.9176 H   0  0  0  0  0  0  0  0  0  0  0  0
   57.7850   30.0640   42.6290 H   0  0  0  0  0  0  0  0  0  0  0  0
   58.9467   27.8724   44.5359 H   0  0  0  0  0  0  0  0  0  0  0  0
   59.4768   29.0829   45.7771 H   0  0  0  0  0  0  0  0  0  0  0  0
   59.1825   26.7136   46.6458 H   0  0  0  0  0  0  0  0  0  0  0  0
   58.2299   27.9820   47.5056 H   0  0  0  0  0  0  0  0  0  0  0  0
  1  2  1  0
  2  3  2  0
  3  4  1  0
  4  5  1  0
  4  6  2  0
  6  7  1  0
  7  8  1  0
  8  9  1  0
  9 10  1  0
 10 11  1  0
 11 12  2  0
 11 13  1  0
 13 14  1  0
 14 15  2  0
  7 16  2  0
 16  2  1  0
 14  8  1  0
  1 17  1  0
  1 18  1  0
  1 19  1  0
  3 20  1  0
  5 21  1  0
  5 22  1  0
  5 23  1  0
  6 24  1  0
  9 25  1  0
  9 26  1  0
 10 27  1  0
 10 28  1  0
M  CHG  2   6   1  13  -1
M  END
>  <UniqueID>  (27) 
25

>  <SMILES>  (27) 
Cc1cc(C)[nH+]c(N2CCC(=O)[N-]C2=O)n1

>  <Energy>  (27) 
29.40327097670281

>  <Genealogy>  (27) 
Cc1cc(C)[nH+]c(N2CCC(=O)[N-]C2=O)n1 (protonated)
Cc1cc(C)[nH+]c(N2CCC(=O)[N-]C2=O)n1 (3D coordinates assigned)
Cc1cc(C)[nH+]c(N2CCC(=O)[N-]C2=O)n1 (nonaromatic ring conformer: 29.40327097670281 kcal/mol)

>  <smiles>  (27) 
Cc1cc(C)nc(N2CCC(=O)NC2=O)n1

>  <score_type>  (27) 
oracle

>  <origin>  (27) 
adg

>  <m_score__min__energy>  (27) 
-7.7699999999999996

>  <m_primary>  (27) 
energy

$$$$
27:0
     RDKit          3D

 65 68  0  0  0  0  0  0  0  0999 V2000
   57.0427   32.1463   51.5785 H   0  0  0  0  0  0  0  0  0  0  0  0
   58.0520   32.3370   51.1850 C   0  0  0  0  0  0  0  0  0  0  0  0
   58.6940   33.4400   51.5920 C   0  0  0  0  0  0  0  0  0  0  0  0
   58.3356   34.4242   51.2558 H   0  0  0  0  0  0  0  0  0  0  0  0
   59.8910   33.3660   52.4960 C   0  0  0  0  0  0  0  0  0  0  0  0
   60.2003   34.3845   52.7736 H   0  0  0  0  0  0  0  0  0  0  0  0
   59.6250   32.7955   53.3981 H   0  0  0  0  0  0  0  0  0  0  0  0
   61.0100   32.6860   51.8070 N   0  0  0  0  0  0  0  0  0  0  0  0
   61.7060   31.7920   52.7500 C   0  0  0  0  0  0  0  0  0  0  0  0
   61.4716   32.0931   53.7817 H   0  0  0  0  0  0  0  0  0  0  0  0
   61.3742   30.7561   52.5860 H   0  0  0  0  0  0  0  0  0  0  0  0
   62.7916   31.8596   52.5860 H   0  0  0  0  0  0  0  0  0  0  0  0
   61.9550   33.6710   51.2340 C   0  0  0  0  0  0  0  0  0  0  0  0
   61.5093   34.6749   51.2929 H   0  0  0  0  0  0  0  0  0  0  0  0
   62.8931   33.6345   51.8072 H   0  0  0  0  0  0  0  0  0  0  0  0
   62.2580   33.3460   49.7850 C   0  0  0  0  0  0  0  0  0  0  0  0
   63.4150   32.5860   49.5310 C   0  0  0  0  0  0  0  0  0  0  0  0
   64.0550   32.2786   50.3712 H   0  0  0  0  0  0  0  0  0  0  0  0
   63.7640   32.2160   48.2330 C   0  0  0  0  0  0  0  0  0  0  0  0
   64.6696   31.6162   48.0592 H   0  0  0  0  0  0  0  0  0  0  0  0
   62.9720   32.6020   47.1570 C   0  0  0  0  0  0  0  0  0  0  0  0
   63.2474   32.2964   46.1368 H   0  0  0  0  0  0  0  0  0  0  0  0
   61.8240   33.3790   47.3670 C   0  0  0  0  0  0  0  0  0  0  0  0
   61.0430   33.7750   46.2690 C   0  0  0  0  0  0  0  0  0  0  0  0
   61.3294   33.4640   45.2535 H   0  0  0  0  0  0  0  0  0  0  0  0
   59.9070   34.5600   46.4590 C   0  0  0  0  0  0  0  0  0  0  0  0
   59.2966   34.8605   45.5947 H   0  0  0  0  0  0  0  0  0  0  0  0
   59.5430   34.9650   47.7420 C   0  0  0  0  0  0  0  0  0  0  0  0
   58.6504   35.5917   47.8854 H   0  0  0  0  0  0  0  0  0  0  0  0
   60.3060   34.5790   48.8470 C   0  0  0  0  0  0  0  0  0  0  0  0
   60.0084   34.9070   49.8539 H   0  0  0  0  0  0  0  0  0  0  0  0
   61.4560   33.7720   48.6870 C   0  0  0  0  0  0  0  0  0  0  0  0
   58.6300   31.3610   50.2330 C   0  0  0  0  0  0  0  0  0  0  0  0
   59.2920   30.2380   50.7410 C   0  0  0  0  0  0  0  0  0  0  0  0
   59.3744   30.1004   51.8292 H   0  0  0  0  0  0  0  0  0  0  0  0
   59.8480   29.2920   49.8820 C   0  0  0  0  0  0  0  0  0  0  0  0
   60.3417   28.4012   50.2977 H   0  0  0  0  0  0  0  0  0  0  0  0
   59.7830   29.4670   48.4860 C   0  0  0  0  0  0  0  0  0  0  0  0
   60.3110   28.5120   47.6030 O   0  0  0  0  0  0  0  0  0  0  0  0
   59.5430   27.5130   46.9380 C   0  0  0  0  0  0  0  0  0  0  0  0
   59.0503   26.8722   47.6841 H   0  0  0  0  0  0  0  0  0  0  0  0
   58.7808   27.9952   46.3083 H   0  0  0  0  0  0  0  0  0  0  0  0
   60.2049   26.9004   46.3083 H   0  0  0  0  0  0  0  0  0  0  0  0
   59.1720   30.6260   47.9620 C   0  0  0  0  0  0  0  0  0  0  0  0
   59.1410   30.8860   46.4680 C   0  0  0  0  0  0  0  0  0  0  0  0
   59.8764   31.6708   46.2371 H   0  0  0  0  0  0  0  0  0  0  0  0
   59.3736   29.9323   45.9717 H   0  0  0  0  0  0  0  0  0  0  0  0
   57.8180   31.3230   45.9650 N   0  0  0  0  0  0  0  0  0  0  0  0
   57.3730   30.7360   44.6840 C   0  0  0  0  0  0  0  0  0  0  0  0
   57.8134   29.7326   44.5881 H   0  0  0  0  0  0  0  0  0  0  0  0
   56.2736   30.7061   44.7039 H   0  0  0  0  0  0  0  0  0  0  0  0
   57.7850   31.5710   43.4540 C   0  0  0  0  0  0  0  0  0  0  0  0
   58.7626   31.2106   43.1014 H   0  0  0  0  0  0  0  0  0  0  0  0
   56.9938   31.4444   42.7003 H   0  0  0  0  0  0  0  0  0  0  0  0
   57.8970   33.0760   43.7380 C   0  0  0  0  0  0  0  0  0  0  0  0
   58.9461   33.3207   43.9603 H   0  0  0  0  0  0  0  0  0  0  0  0
   57.5475   33.6219   42.8493 H   0  0  0  0  0  0  0  0  0  0  0  0
   57.0300   33.4870   44.9240 C   0  0  0  0  0  0  0  0  0  0  0  0
   57.1290   34.5706   45.0856 H   0  0  0  0  0  0  0  0  0  0  0  0
   55.9836   33.2285   44.7042 H   0  0  0  0  0  0  0  0  0  0  0  0
   57.4660   32.7450   46.1970 C   0  0  0  0  0  0  0  0  0  0  0  0
   58.3456   33.2573   46.6140 H   0  0  0  0  0  0  0  0  0  0  0  0
   56.6089   32.7565   46.8864 H   0  0  0  0  0  0  0  0  0  0  0  0
   58.5660   31.5440   48.8400 C   0  0  0  0  0  0  0  0  0  0  0  0
   58.0351   32.4164   48.4312 H   0  0  0  0  0  0  0  0  0  0  0  0
  1  2  1  0
  2  3  2  0
  3  4  1  0
  3  5  1  0
  5  6  1  0
  5  7  1  0
  5  8  1  0
  8  9  1  0
  9 10  1  0
  9 11  1  0
  9 12  1  0
  8 13  1  0
 13 14  1  0
 13 15  1  0
 13 16  1  0
 16 17  2  0
 17 18  1  0
 17 19  1  0
 19 20  1  0
 19 21  2  0
 21 22  1  0
 21 23  1  0
 23 24  2  0
 24 25  1  0
 24 26  1  0
 26 27  1  0
 26 28  2  0
 28 29  1  0
 28 30  1  0
 30 31  1  0
 30 32  2  0
  2 33  1  0
 33 34  2  0
 34 35  1  0
 34 36  1  0
 36 37  1  0
 36 38  2  0
 38 39  1  0
 39 40  1  0
 40 41  1  0
 40 42  1  0
 40 43  1  0
 38 44  1  0
 44 45  1  0
 45 46  1  0
 45 47  1  0
 45 48  1  0
 48 49  1  0
 49 50  1  0
 49 51  1  0
 49 52  1  0
 52 53  1  0
 52 54  1  0
 52 55  1  0
 55 56  1  0
 55 57  1  0
 55 58  1  0
 58 59  1  0
 58 60  1  0
 58 61  1  0
 61 62  1  0
 61 63  1  0
 44 64  2  0
 64 65  1  0
 32 16  1  0
 64 33  1  0
 32 23  1  0
 61 48  1  0
M  END
>  <UniqueID>  (28) 
26

>  <SMILES>  (28) 
COc1ccc(/C=C/CN(C)Cc2cccc3ccccc23)cc1CN1CCCCC1

>  <Energy>  (28) 
88.36506731001698

>  <Genealogy>  (28) 
COc1ccc(/C=C/CN(C)Cc2cccc3ccccc23)cc1CN1CCCCC1 (cis-trans isomerization)
COc1ccc(/C=C/CN(C)Cc2cccc3ccccc23)cc1CN1CCCCC1 (3D coordinates assigned)
COc1ccc(/C=C/CN(C)Cc2cccc3ccccc23)cc1CN1CCCCC1 (nonaromatic ring conformer: 88.36506731001698 kcal/mol)

>  <smiles>  (28) 
COc1ccc(C=CCN(C)Cc2cccc3ccccc23)cc1CN1CCCCC1

>  <score_type>  (28) 
oracle

>  <origin>  (28) 
adg

>  <m_score__min__energy>  (28) 
-9.1500000000000004

>  <m_primary>  (28) 
energy

$$$$
28:0
     RDKit          3D

 36 37  0  0  0  0  0  0  0  0999 V2000
   63.3830   34.1450   46.3540 C   0  0  0  0  0  0  0  0  0  0  0  0
   63.1950   33.2190   47.1020 C   0  0  0  0  0  0  0  0  0  0  0  0
   62.9660   32.0910   48.0140 C   0  0  0  0  0  0  0  0  0  0  0  0
   62.0110   31.0600   47.4020 C   0  0  0  0  0  0  0  0  0  0  0  0
   60.6390   30.9830   48.1000 C   0  0  0  0  0  0  0  0  0  0  0  0
   59.5220   30.9110   47.1200 N   0  0  0  0  0  0  0  0  0  0  0  0
   58.9790   29.6700   46.8630 C   0  0  0  0  0  0  0  0  0  0  0  0
   59.4400   28.6510   47.4540 O   0  0  0  0  0  0  0  0  0  0  0  0
   57.9470   29.5140   45.9730 N   0  0  0  0  0  0  0  0  0  0  0  0
   57.4060   28.1610   45.7160 C   0  0  0  0  0  0  0  0  0  0  0  0
   58.3000   27.4030   44.7740 C   0  0  0  0  0  0  0  0  0  0  0  0
   58.1760   27.5100   43.4480 C   0  0  0  0  0  0  0  0  0  0  0  0
   57.4440   30.5950   45.3060 C   0  0  0  0  0  0  0  0  0  0  0  0
   56.5070   30.4460   44.4700 O   0  0  0  0  0  0  0  0  0  0  0  0
   57.9620   31.8740   45.5420 C   0  0  0  0  0  0  0  0  0  0  0  0
   57.4410   32.9980   44.8660 C   0  0  0  0  0  0  0  0  0  0  0  0
   57.9510   34.2690   45.1120 C   0  0  0  0  0  0  0  0  0  0  0  0
   58.9790   34.4380   46.0310 C   0  0  0  0  0  0  0  0  0  0  0  0
   59.5100   33.3380   46.7070 C   0  0  0  0  0  0  0  0  0  0  0  0
   59.0180   32.0260   46.4760 C   0  0  0  0  0  0  0  0  0  0  0  0
   63.5546   34.9902   45.6712 H   0  0  0  0  0  0  0  0  0  0  0  0
   63.9285   31.6037   48.2288 H   0  0  0  0  0  0  0  0  0  0  0  0
   62.5099   32.4796   48.9365 H   0  0  0  0  0  0  0  0  0  0  0  0
   61.8477   31.3238   46.3467 H   0  0  0  0  0  0  0  0  0  0  0  0
   62.4856   30.0752   47.5245 H   0  0  0  0  0  0  0  0  0  0  0  0
   60.6131   30.0856   48.7355 H   0  0  0  0  0  0  0  0  0  0  0  0
   60.5091   31.8965   48.6989 H   0  0  0  0  0  0  0  0  0  0  0  0
   57.3359   27.6131   46.6673 H   0  0  0  0  0  0  0  0  0  0  0  0
   56.4104   28.2585   45.2584 H   0  0  0  0  0  0  0  0  0  0  0  0
   59.0767   26.7429   45.1876 H   0  0  0  0  0  0  0  0  0  0  0  0
   58.8457   26.9421   42.7854 H   0  0  0  0  0  0  0  0  0  0  0  0
   57.4042   28.1659   43.0189 H   0  0  0  0  0  0  0  0  0  0  0  0
   56.6256   32.8683   44.1392 H   0  0  0  0  0  0  0  0  0  0  0  0
   57.5405   35.1394   44.5792 H   0  0  0  0  0  0  0  0  0  0  0  0
   59.3770   35.4445   46.2272 H   0  0  0  0  0  0  0  0  0  0  0  0
   60.3238   33.4902   47.4313 H   0  0  0  0  0  0  0  0  0  0  0  0
  1  2  3  0
  2  3  1  0
  3  4  1  0
  4  5  1  0
  5  6  1  0
  6  7  1  0
  7  8  2  0
  7  9  1  0
  9 10  1  0
 10 11  1  0
 11 12  2  0
  9 13  1  0
 13 14  2  0
 13 15  1  0
 15 16  2  0
 16 17  1  0
 17 18  2  0
 18 19  1  0
 19 20  2  0
 20  6  1  0
 20 15  1  0
  1 21  1  0
  3 22  1  0
  3 23  1  0
  4 24  1  0
  4 25  1  0
  5 26  1  0
  5 27  1  0
 10 28  1  0
 10 29  1  0
 11 30  1  0
 12 31  1  0
 12 32  1  0
 16 33  1  0
 17 34  1  0
 18 35  1  0
 19 36  1  0
M  END
>  <UniqueID>  (29) 
27

>  <SMILES>  (29) 
C#CCCCn1c(=O)n(CC=C)c(=O)c2ccccc21

>  <Energy>  (29) 
45.051814950487454

>  <Genealogy>  (29) 
C#CCCCn1c(=O)n(CC=C)c(=O)c2ccccc21 (3D coordinates assigned)
C#CCCCn1c(=O)n(CC=C)c(=O)c2ccccc21 (optimized conformer: 45.051814950487454 kcal/mol)

>  <smiles>  (29) 
C#CCCCn1c(=O)n(CC=C)c(=O)c2ccccc21

>  <score_type>  (29) 
oracle

>  <origin>  (29) 
adg

>  <m_score__min__energy>  (29) 
-6.4500000000000002

>  <m_primary>  (29) 
energy

$$$$
29:0
     RDKit          3D

 50 52  0  0  0  0  0  0  0  0999 V2000
   57.7050   27.6240   45.0240 C   0  0  0  0  0  0  0  0  0  0  0  0
   57.6770   28.5170   43.7900 C   0  0  0  0  0  0  0  0  0  0  0  0
   56.7750   30.0250   44.1080 S   0  0  0  0  0  0  0  0  0  0  0  0
   56.4130   30.6730   42.8010 O   0  0  0  0  0  0  0  0  0  0  0  0
   55.5060   29.7080   44.8510 O   0  0  0  0  0  0  0  0  0  0  0  0
   57.7650   31.1330   45.0540 C   0  0  0  0  0  0  0  0  0  0  0  0
   57.3840   32.4730   45.1850 C   0  0  0  0  0  0  0  0  0  0  0  0
   58.1790   33.3650   45.9090 C   0  0  0  0  0  0  0  0  0  0  0  0
   59.3710   32.9240   46.5110 C   0  0  0  0  0  0  0  0  0  0  0  0
   59.7490   31.5740   46.3920 C   0  0  0  0  0  0  0  0  0  0  0  0
   58.9540   30.6890   45.6500 C   0  0  0  0  0  0  0  0  0  0  0  0
   61.0390   31.0960   46.9990 C   0  0  0  0  0  0  0  0  0  0  0  0
   61.4550   31.9850   48.1790 C   0  0  0  0  0  0  0  0  0  0  0  0
   61.5270   33.4100   47.7830 N   0  0  2  0  0  0  0  0  0  0  0  0
   61.9950   34.2260   48.9360 C   0  0  0  0  0  0  0  0  0  0  0  0
   61.4910   33.6830   50.2810 C   0  0  0  0  0  0  0  0  0  0  0  0
   60.0860   33.8930   50.3890 O   0  0  0  0  0  0  0  0  0  0  0  0
   59.1680   32.9400   50.8590 C   0  0  0  0  0  0  0  0  0  0  0  0
   58.9990   31.6920   50.2270 C   0  0  0  0  0  0  0  0  0  0  0  0
   58.0770   30.7680   50.7230 C   0  0  0  0  0  0  0  0  0  0  0  0
   57.3160   31.0740   51.8510 C   0  0  0  0  0  0  0  0  0  0  0  0
   57.4730   32.3070   52.4880 C   0  0  0  0  0  0  0  0  0  0  0  0
   58.3950   33.2460   51.9980 C   0  0  0  0  0  0  0  0  0  0  0  0
   58.5610   34.5710   52.6870 C   0  0  0  0  0  0  0  0  0  0  0  0
   60.2340   33.8540   47.2800 C   0  0  0  0  0  0  0  0  0  0  0  0
   59.8680   35.0550   47.4210 O   0  0  0  0  0  0  0  0  0  0  0  0
   57.6854   28.2487   45.9292 H   0  0  0  0  0  0  0  0  0  0  0  0
   56.8272   26.9611   45.0169 H   0  0  0  0  0  0  0  0  0  0  0  0
   58.6226   27.0174   45.0169 H   0  0  0  0  0  0  0  0  0  0  0  0
   58.7092   28.7690   43.5054 H   0  0  0  0  0  0  0  0  0  0  0  0
   57.1735   27.9736   42.9769 H   0  0  0  0  0  0  0  0  0  0  0  0
   56.4539   32.8259   44.7156 H   0  0  0  0  0  0  0  0  0  0  0  0
   57.8714   34.4164   46.0086 H   0  0  0  0  0  0  0  0  0  0  0  0
   59.2649   29.6402   45.5347 H   0  0  0  0  0  0  0  0  0  0  0  0
   60.9080   30.0636   47.3553 H   0  0  0  0  0  0  0  0  0  0  0  0
   61.8255   31.1422   46.2314 H   0  0  0  0  0  0  0  0  0  0  0  0
   60.7172   31.8751   48.9874 H   0  0  0  0  0  0  0  0  0  0  0  0
   62.4532   31.6685   48.5158 H   0  0  0  0  0  0  0  0  0  0  0  0
   62.2170   33.4860   46.9970 H   0  0  0  0  0  0  0  0  0  0  0  0
   63.0950   34.2263   48.9451 H   0  0  0  0  0  0  0  0  0  0  0  0
   61.5924   35.2422   48.8128 H   0  0  0  0  0  0  0  0  0  0  0  0
   61.7053   32.6059   50.3436 H   0  0  0  0  0  0  0  0  0  0  0  0
   62.0016   34.2102   51.1004 H   0  0  0  0  0  0  0  0  0  0  0  0
   59.5969   31.4441   49.3376 H   0  0  0  0  0  0  0  0  0  0  0  0
   57.9506   29.7965   50.2229 H   0  0  0  0  0  0  0  0  0  0  0  0
   56.5913   30.3434   52.2395 H   0  0  0  0  0  0  0  0  0  0  0  0
   56.8714   32.5437   53.3780 H   0  0  0  0  0  0  0  0  0  0  0  0
   58.5424   34.4225   53.7768 H   0  0  0  0  0  0  0  0  0  0  0  0
   59.5222   35.0186   52.3943 H   0  0  0  0  0  0  0  0  0  0  0  0
   57.7399   35.2419   52.3943 H   0  0  0  0  0  0  0  0  0  0  0  0
  1  2  1  0
  2  3  1  0
  3  4  2  0
  3  5  2  0
  3  6  1  0
  6  7  2  0
  7  8  1  0
  8  9  2  0
  9 10  1  0
 10 11  2  0
 10 12  1  0
 12 13  1  0
 13 14  1  0
 14 15  1  0
 15 16  1  0
 16 17  1  0
 17 18  1  0
 18 19  2  0
 19 20  1  0
 20 21  2  0
 21 22  1  0
 22 23  2  0
 23 24  1  0
 14 25  1  0
 25 26  2  0
 11  6  1  0
 23 18  1  0
 25  9  1  0
  1 27  1  0
  1 28  1  0
  1 29  1  0
  2 30  1  0
  2 31  1  0
  7 32  1  0
  8 33  1  0
 11 34  1  0
 12 35  1  0
 12 36  1  0
 13 37  1  0
 13 38  1  0
 14 39  1  6
 15 40  1  0
 15 41  1  0
 16 42  1  0
 16 43  1  0
 19 44  1  0
 20 45  1  0
 21 46  1  0
 22 47  1  0
 24 48  1  0
 24 49  1  0
 24 50  1  0
M  CHG  1  14   1
M  END
>  <UniqueID>  (30) 
28

>  <SMILES>  (30) 
CCS(=O)(=O)c1ccc2c(c1)CC[N@H+](CCOc1ccccc1C)C2=O

>  <Energy>  (30) 
51.39201974243088

>  <Genealogy>  (30) 
CCS(=O)(=O)c1ccc2c(c1)CC[NH+](CCOc1ccccc1C)C2=O (protonated)
CCS(=O)(=O)c1ccc2c(c1)CC[N@H+](CCOc1ccccc1C)C2=O (chirality)
CCS(=O)(=O)c1ccc2c(c1)CC[N@H+](CCOc1ccccc1C)C2=O (3D coordinates assigned)
CCS(=O)(=O)c1ccc2c(c1)CC[N@H+](CCOc1ccccc1C)C2=O (nonaromatic ring conformer: 51.39201974243088 kcal/mol)

>  <smiles>  (30) 
CCS(=O)(=O)c1ccc2c(c1)CCN(CCOc1ccccc1C)C2=O

>  <score_type>  (30) 
oracle

>  <origin>  (30) 
adg

>  <m_score__min__energy>  (30) 
-6.9299999999999997

>  <m_primary>  (30) 
energy

$$$$
30:0
     RDKit          3D

 34 34  0  0  0  0  0  0  0  0999 V2000
   56.4310   29.7180   42.8400 C   0  0  0  0  0  0  0  0  0  0  0  0
   55.9000   30.4590   44.0660 C   0  0  0  0  0  0  0  0  0  0  0  0
   57.0150   30.8260   44.9690 N   0  0  0  0  0  0  0  0  0  0  0  0
   58.0460   29.7650   45.0100 C   0  0  0  0  0  0  0  0  0  0  0  0
   59.2490   30.2300   45.8250 C   0  0  0  0  0  0  0  0  0  0  0  0
   57.6030   32.1340   44.5940 C   0  0  0  0  0  0  0  0  0  0  0  0
   56.8290   33.2840   45.2530 C   0  0  0  0  0  0  0  0  0  0  0  0
   57.3620   33.5860   46.5840 N   0  0  0  0  0  0  0  0  0  0  0  0
   58.7610   33.5630   46.9250 C   0  0  0  0  0  0  0  0  0  0  0  0
   59.2320   32.9280   48.0900 C   0  0  0  0  0  0  0  0  0  0  0  0
   60.6000   32.9120   48.3810 C   0  0  0  0  0  0  0  0  0  0  0  0
   61.5090   33.5310   47.5200 C   0  0  0  0  0  0  0  0  0  0  0  0
   63.3770   33.5020   47.9180 Br  0  0  0  0  0  0  0  0  0  0  0  0
   61.0490   34.1750   46.3680 C   0  0  0  0  0  0  0  0  0  0  0  0
   59.6830   34.1940   46.0740 C   0  0  0  0  0  0  0  0  0  0  0  0
   57.0432   28.8637   43.1646 H   0  0  0  0  0  0  0  0  0  0  0  0
   55.5860   29.3552   42.2363 H   0  0  0  0  0  0  0  0  0  0  0  0
   57.0461   30.4016   42.2363 H   0  0  0  0  0  0  0  0  0  0  0  0
   55.3809   31.3727   43.7409 H   0  0  0  0  0  0  0  0  0  0  0  0
   55.2036   29.8015   44.6071 H   0  0  0  0  0  0  0  0  0  0  0  0
   57.6204   28.8626   45.4731 H   0  0  0  0  0  0  0  0  0  0  0  0
   58.3726   29.5422   43.9835 H   0  0  0  0  0  0  0  0  0  0  0  0
   59.0214   30.1420   46.8976 H   0  0  0  0  0  0  0  0  0  0  0  0
   60.1203   29.6039   45.5825 H   0  0  0  0  0  0  0  0  0  0  0  0
   59.4727   31.2794   45.5825 H   0  0  0  0  0  0  0  0  0  0  0  0
   58.6513   32.1673   44.9255 H   0  0  0  0  0  0  0  0  0  0  0  0
   57.5452   32.2483   43.5015 H   0  0  0  0  0  0  0  0  0  0  0  0
   56.9116   34.1807   44.6213 H   0  0  0  0  0  0  0  0  0  0  0  0
   55.7770   32.9805   45.3592 H   0  0  0  0  0  0  0  0  0  0  0  0
   56.6810   33.9150   47.3060 H   0  0  0  0  0  0  0  0  0  0  0  0
   58.5209   32.4423   48.7744 H   0  0  0  0  0  0  0  0  0  0  0  0
   60.9611   32.4103   49.2909 H   0  0  0  0  0  0  0  0  0  0  0  0
   61.7632   34.6676   45.6918 H   0  0  0  0  0  0  0  0  0  0  0  0
   59.3270   34.7074   45.1686 H   0  0  0  0  0  0  0  0  0  0  0  0
  1  2  1  0
  2  3  1  0
  3  4  1  0
  4  5  1  0
  3  6  1  0
  6  7  1  0
  7  8  1  0
  8  9  1  0
  9 10  2  0
 10 11  1  0
 11 12  2  0
 12 13  1  0
 12 14  1  0
 14 15  2  0
 15  9  1  0
  1 16  1  0
  1 17  1  0
  1 18  1  0
  2 19  1  0
  2 20  1  0
  4 21  1  0
  4 22  1  0
  5 23  1  0
  5 24  1  0
  5 25  1  0
  6 26  1  0
  6 27  1  0
  7 28  1  0
  7 29  1  0
  8 30  1  0
 10 31  1  0
 11 32  1  0
 14 33  1  0
 15 34  1  0
M  END
>  <UniqueID>  (31) 
29

>  <SMILES>  (31) 
CCN(CC)CCNc1ccc(Br)cc1

>  <Energy>  (31) 
26.942588444539687

>  <Genealogy>  (31) 
CCN(CC)CCNc1ccc(Br)cc1 (3D coordinates assigned)
CCN(CC)CCNc1ccc(Br)cc1 (optimized conformer: 26.942588444539687 kcal/mol)

>  <smiles>  (31) 
CCN(CC)CCNc1ccc(Br)cc1

>  <score_type>  (31) 
oracle

>  <origin>  (31) 
adg

>  <m_score__min__energy>  (31) 
-5.8499999999999996

>  <m_primary>  (31) 
energy

$$$$
31:0
     RDKit          3D

 65 64  0  0  0  0  0  0  0  0999 V2000
   57.1190   30.8020   43.8550 C   0  0  0  0  0  0  0  0  0  0  0  0
   58.1470   31.6590   44.5950 C   0  0  0  0  0  0  0  0  0  0  0  0
   57.7260   31.9660   45.9770 N   0  0  0  0  0  0  0  0  0  0  0  0
   57.4500   33.3930   46.2010 C   0  0  0  0  0  0  0  0  0  0  0  0
   58.2650   34.2970   45.2570 C   0  0  0  0  0  0  0  0  0  0  0  0
   59.7580   34.3420   45.6190 C   0  0  0  0  0  0  0  0  0  0  0  0
   60.0300   34.5850   47.1110 C   0  0  0  0  0  0  0  0  0  0  0  0
   60.4630   33.3260   47.7740 N   0  0  0  0  0  0  0  0  0  0  0  0
   61.7060   32.7940   47.1650 C   0  0  0  0  0  0  0  0  0  0  0  0
   61.6830   31.2610   47.0600 C   0  0  0  0  0  0  0  0  0  0  0  0
   60.3810   30.7930   46.5910 N   0  0  0  0  0  0  0  0  0  0  0  0
   60.5940   33.4880   49.2450 C   0  0  0  0  0  0  0  0  0  0  0  0
   59.2700   33.1480   49.9570 C   0  0  0  0  0  0  0  0  0  0  0  0
   58.3130   32.3330   49.0800 C   0  0  0  0  0  0  0  0  0  0  0  0
   58.9650   31.0830   48.6680 N   0  0  0  0  0  0  0  0  0  0  0  0
   58.9200   30.0450   49.7130 C   0  0  0  0  0  0  0  0  0  0  0  0
   60.2830   29.3780   50.0040 C   0  0  0  0  0  0  0  0  0  0  0  0
   60.7330   28.3690   48.9370 C   0  0  0  0  0  0  0  0  0  0  0  0
   59.7220   28.2450   47.8790 N   0  0  0  0  0  0  0  0  0  0  0  0
   60.3450   27.8030   46.6260 C   0  0  0  0  0  0  0  0  0  0  0  0
   59.3830   28.0360   45.4550 C   0  0  0  0  0  0  0  0  0  0  0  0
   57.9640   28.3620   45.9350 C   0  0  0  0  0  0  0  0  0  0  0  0
   57.9510   29.6000   46.7100 N   0  0  0  0  0  0  0  0  0  0  0  0
   56.4871   30.2752   44.5852 H   0  0  0  0  0  0  0  0  0  0  0  0
   56.4901   31.4471   43.2238 H   0  0  0  0  0  0  0  0  0  0  0  0
   57.6404   30.0673   43.2238 H   0  0  0  0  0  0  0  0  0  0  0  0
   59.1029   31.1158   44.6283 H   0  0  0  0  0  0  0  0  0  0  0  0
   58.2462   32.6109   44.0528 H   0  0  0  0  0  0  0  0  0  0  0  0
   58.4150   31.6180   46.6860 H   0  0  0  0  0  0  0  0  0  0  0  0
   56.3789   33.5778   46.0317 H   0  0  0  0  0  0  0  0  0  0  0  0
   57.7388   33.6353   47.2344 H   0  0  0  0  0  0  0  0  0  0  0  0
   58.1634   33.9156   44.2303 H   0  0  0  0  0  0  0  0  0  0  0  0
   57.8695   35.3189   45.3530 H   0  0  0  0  0  0  0  0  0  0  0  0
   60.2120   33.3807   45.3363 H   0  0  0  0  0  0  0  0  0  0  0  0
   60.1933   35.1917   45.0727 H   0  0  0  0  0  0  0  0  0  0  0  0
   60.8227   35.3404   47.2160 H   0  0  0  0  0  0  0  0  0  0  0  0
   59.1039   34.9378   47.5883 H   0  0  0  0  0  0  0  0  0  0  0  0
   61.8171   33.2178   46.1560 H   0  0  0  0  0  0  0  0  0  0  0  0
   62.5502   33.0785   47.8102 H   0  0  0  0  0  0  0  0  0  0  0  0
   62.4595   30.9363   46.3518 H   0  0  0  0  0  0  0  0  0  0  0  0
   61.8724   30.8363   48.0569 H   0  0  0  0  0  0  0  0  0  0  0  0
   60.0760   30.0080   47.2120 H   0  0  0  0  0  0  0  0  0  0  0  0
   59.6920   31.5650   46.7370 H   0  0  0  0  0  0  0  0  0  0  0  0
   61.3832   32.8155   49.6123 H   0  0  0  0  0  0  0  0  0  0  0  0
   60.8498   34.5357   49.4613 H   0  0  0  0  0  0  0  0  0  0  0  0
   59.4978   32.5663   50.8624 H   0  0  0  0  0  0  0  0  0  0  0  0
   58.7703   34.0984   50.1958 H   0  0  0  0  0  0  0  0  0  0  0  0
   57.4022   32.0998   49.6510 H   0  0  0  0  0  0  0  0  0  0  0  0
   58.0483   32.9182   48.1870 H   0  0  0  0  0  0  0  0  0  0  0  0
   58.5190   30.7270   47.7900 H   0  0  0  0  0  0  0  0  0  0  0  0
   58.5570   30.5074   50.6428 H   0  0  0  0  0  0  0  0  0  0  0  0
   58.2536   29.2524   49.3420 H   0  0  0  0  0  0  0  0  0  0  0  0
   61.0452   30.1680   50.0744 H   0  0  0  0  0  0  0  0  0  0  0  0
   60.1643   28.8141   50.9410 H   0  0  0  0  0  0  0  0  0  0  0  0
   61.6796   28.7111   48.4933 H   0  0  0  0  0  0  0  0  0  0  0  0
   60.8673   27.3869   49.4140 H   0  0  0  0  0  0  0  0  0  0  0  0
   59.3110   29.1950   47.7170 H   0  0  0  0  0  0  0  0  0  0  0  0
   61.2701   28.3738   46.4573 H   0  0  0  0  0  0  0  0  0  0  0  0
   60.5778   26.7302   46.6958 H   0  0  0  0  0  0  0  0  0  0  0  0
   59.7556   28.8764   44.8509 H   0  0  0  0  0  0  0  0  0  0  0  0
   59.3375   27.1102   44.8627 H   0  0  0  0  0  0  0  0  0  0  0  0
   57.3050   28.4762   45.0617 H   0  0  0  0  0  0  0  0  0  0  0  0
   57.6108   27.5407   46.5759 H   0  0  0  0  0  0  0  0  0  0  0  0
   58.8630   30.0900   46.5620 H   0  0  0  0  0  0  0  0  0  0  0  0
   57.9130   29.3410   47.7230 H   0  0  0  0  0  0  0  0  0  0  0  0
  1  2  1  0
  2  3  1  0
  3  4  1  0
  4  5  1  0
  5  6  1  0
  6  7  1  0
  7  8  1  0
  8  9  1  0
  9 10  1  0
 10 11  1  0
  8 12  1  0
 12 13  1  0
 13 14  1  0
 14 15  1  0
 15 16  1  0
 16 17  1  0
 17 18  1  0
 18 19  1  0
 19 20  1  0
 20 21  1  0
 21 22  1  0
 22 23  1  0
  1 24  1  0
  1 25  1  0
  1 26  1  0
  2 27  1  0
  2 28  1  0
  3 29  1  0
  4 30  1  0
  4 31  1  0
  5 32  1  0
  5 33  1  0
  6 34  1  0
  6 35  1  0
  7 36  1  0
  7 37  1  0
  9 38  1  0
  9 39  1  0
 10 40  1  0
 10 41  1  0
 11 42  1  0
 11 43  1  0
 12 44  1  0
 12 45  1  0
 13 46  1  0
 13 47  1  0
 14 48  1  0
 14 49  1  0
 15 50  1  0
 16 51  1  0
 16 52  1  0
 17 53  1  0
 17 54  1  0
 18 55  1  0
 18 56  1  0
 19 57  1  0
 20 58  1  0
 20 59  1  0
 21 60  1  0
 21 61  1  0
 22 62  1  0
 22 63  1  0
 23 64  1  0
 23 65  1  0
M  END
>  <UniqueID>  (32) 
30

>  <SMILES>  (32) 
CCNCCCCN(CCN)CCCNCCCNCCCN

>  <Energy>  (32) 
44.94911804135346

>  <Genealogy>  (32) 
CCNCCCCN(CCN)CCCNCCCNCCCN (3D coordinates assigned)
CCNCCCCN(CCN)CCCNCCCNCCCN (optimized conformer: 44.94911804135346 kcal/mol)

>  <smiles>  (32) 
CCNCCCCN(CCN)CCCNCCCNCCCN

>  <score_type>  (32) 
oracle

>  <origin>  (32) 
adg

>  <m_score__min__energy>  (32) 
-2.4900000000000002

>  <m_primary>  (32) 
energy

$$$$
32:0
     RDKit          3D

 49 50  0  0  0  0  0  0  0  0999 V2000
   63.0610   33.4290   47.2290 C   0  0  0  0  0  0  0  0  0  0  0  0
   61.9150   32.4120   47.1360 C   0  0  0  0  0  0  0  0  0  0  0  0
   61.1190   32.2820   48.3820 N   0  0  0  0  0  0  0  0  0  0  0  0
   61.2300   33.4800   49.2430 C   0  0  0  0  0  0  0  0  0  0  0  0
   60.0230   33.5760   50.1720 C   0  0  0  0  0  0  0  0  0  0  0  0
   61.3840   31.0380   49.1440 C   0  0  0  0  0  0  0  0  0  0  0  0
   60.2310   30.0290   49.0150 C   0  0  0  0  0  0  0  0  0  0  0  0
   59.4710   30.2530   47.7730 N   0  0  0  0  0  0  0  0  0  0  0  0
   59.6730   29.1650   46.8000 C   0  0  0  0  0  0  0  0  0  0  0  0
   58.7190   29.2690   45.6270 C   0  0  0  0  0  0  0  0  0  0  0  0
   58.6820   28.2270   44.6850 C   0  0  0  0  0  0  0  0  0  0  0  0
   57.7790   28.2650   43.6190 C   0  0  0  0  0  0  0  0  0  0  0  0
   56.8950   29.3360   43.4900 C   0  0  0  0  0  0  0  0  0  0  0  0
   56.9100   30.3720   44.4250 C   0  0  0  0  0  0  0  0  0  0  0  0
   57.8200   30.3520   45.4890 C   0  0  0  0  0  0  0  0  0  0  0  0
   57.7910   31.4000   46.4160 O   0  0  0  0  0  0  0  0  0  0  0  0
   58.3140   32.6790   46.1760 C   0  0  0  0  0  0  0  0  0  0  0  0
   58.6300   33.0340   44.8590 C   0  0  0  0  0  0  0  0  0  0  0  0
   59.1490   34.3000   44.5720 C   0  0  0  0  0  0  0  0  0  0  0  0
   59.3590   35.2200   45.6030 C   0  0  0  0  0  0  0  0  0  0  0  0
   59.0510   34.8740   46.9220 C   0  0  0  0  0  0  0  0  0  0  0  0
   58.5310   33.6080   47.2120 C   0  0  0  0  0  0  0  0  0  0  0  0
   63.2877   33.6302   48.2864 H   0  0  0  0  0  0  0  0  0  0  0  0
   63.9544   33.0210   46.7336 H   0  0  0  0  0  0  0  0  0  0  0  0
   62.7621   34.3646   46.7336 H   0  0  0  0  0  0  0  0  0  0  0  0
   61.2401   32.7249   46.3257 H   0  0  0  0  0  0  0  0  0  0  0  0
   62.3755   31.4306   46.9494 H   0  0  0  0  0  0  0  0  0  0  0  0
   62.1476   33.4104   49.8457 H   0  0  0  0  0  0  0  0  0  0  0  0
   61.2651   34.3767   48.6069 H   0  0  0  0  0  0  0  0  0  0  0  0
   60.3623   33.5490   51.2180 H   0  0  0  0  0  0  0  0  0  0  0  0
   59.4896   34.5194   49.9838 H   0  0  0  0  0  0  0  0  0  0  0  0
   59.3471   32.7288   49.9838 H   0  0  0  0  0  0  0  0  0  0  0  0
   62.3055   30.5757   48.7605 H   0  0  0  0  0  0  0  0  0  0  0  0
   61.4860   31.3046   50.2063 H   0  0  0  0  0  0  0  0  0  0  0  0
   60.6443   29.0096   49.0051 H   0  0  0  0  0  0  0  0  0  0  0  0
   59.5521   30.1609   49.8704 H   0  0  0  0  0  0  0  0  0  0  0  0
   58.4500   30.2930   48.0020 H   0  0  0  0  0  0  0  0  0  0  0  0
   59.7490   31.1670   47.3450 H   0  0  0  0  0  0  0  0  0  0  0  0
   60.7055   29.2122   46.4235 H   0  0  0  0  0  0  0  0  0  0  0  0
   59.4798   28.2107   47.3119 H   0  0  0  0  0  0  0  0  0  0  0  0
   59.3694   27.3744   44.7875 H   0  0  0  0  0  0  0  0  0  0  0  0
   57.7655   27.4494   42.8810 H   0  0  0  0  0  0  0  0  0  0  0  0
   56.1851   29.3642   42.6502 H   0  0  0  0  0  0  0  0  0  0  0  0
   56.2031   31.2089   44.3255 H   0  0  0  0  0  0  0  0  0  0  0  0
   58.4689   32.3121   44.0448 H   0  0  0  0  0  0  0  0  0  0  0  0
   59.3922   34.5722   43.5343 H   0  0  0  0  0  0  0  0  0  0  0  0
   59.7666   36.2163   45.3766 H   0  0  0  0  0  0  0  0  0  0  0  0
   59.2177   35.5982   47.7330 H   0  0  0  0  0  0  0  0  0  0  0  0
   58.2912   33.3377   48.2510 H   0  0  0  0  0  0  0  0  0  0  0  0
  1  2  1  0
  2  3  1  0
  3  4  1  0
  4  5  1  0
  3  6  1  0
  6  7  1  0
  7  8  1  0
  8  9  1  0
  9 10  1  0
 10 11  2  0
 11 12  1  0
 12 13  2  0
 13 14  1  0
 14 15  2  0
 15 16  1  0
 16 17  1  0
 17 18  2  0
 18 19  1  0
 19 20  2  0
 20 21  1  0
 21 22  2  0
 15 10  1  0
 22 17  1  0
  1 23  1  0
  1 24  1  0
  1 25  1  0
  2 26  1  0
  2 27  1  0
  4 28  1  0
  4 29  1  0
  5 30  1  0
  5 31  1  0
  5 32  1  0
  6 33  1  0
  6 34  1  0
  7 35  1  0
  7 36  1  0
  8 37  1  0
  8 38  1  0
  9 39  1  0
  9 40  1  0
 11 41  1  0
 12 42  1  0
 13 43  1  0
 14 44  1  0
 18 45  1  0
 19 46  1  0
 20 47  1  0
 21 48  1  0
 22 49  1  0
M  CHG  1   8   1
M  END
>  <UniqueID>  (33) 
31

>  <SMILES>  (33) 
CCN(CC)CC[NH2+]Cc1ccccc1Oc1ccccc1

>  <Energy>  (33) 
56.78021279966537

>  <Genealogy>  (33) 
CCN(CC)CC[NH2+]Cc1ccccc1Oc1ccccc1 (protonated)
CCN(CC)CC[NH2+]Cc1ccccc1Oc1ccccc1 (3D coordinates assigned)
CCN(CC)CC[NH2+]Cc1ccccc1Oc1ccccc1 (optimized conformer: 56.78021279966537 kcal/mol)

>  <smiles>  (33) 
CCN(CC)CCNCc1ccccc1Oc1ccccc1

>  <score_type>  (33) 
oracle

>  <origin>  (33) 
adg

>  <m_score__min__energy>  (33) 
-4.1399999999999997

>  <m_primary>  (33) 
energy

$$$$
33:0
     RDKit          3D

 43 45  0  0  0  0  0  0  0  0999 V2000
   61.8060   30.7450   48.7990 C   0  0  0  0  0  0  0  0  0  0  0  0
   60.7400   30.0050   48.0470 C   0  0  0  0  0  0  0  0  0  0  0  0
   59.8770   29.1250   48.7210 C   0  0  0  0  0  0  0  0  0  0  0  0
   58.8610   28.4630   48.0250 C   0  0  0  0  0  0  0  0  0  0  0  0
   58.6910   28.6730   46.6480 C   0  0  0  0  0  0  0  0  0  0  0  0
   57.5730   27.9910   45.9130 C   0  0  0  0  0  0  0  0  0  0  0  0
   57.3030   28.7090   44.6740 N   0  0  0  0  0  0  0  0  0  0  0  0
   56.3630   29.7820   44.5920 C   0  0  0  0  0  0  0  0  0  0  0  0
   55.1480   29.5930   44.8710 O   0  0  0  0  0  0  0  0  0  0  0  0
   56.8250   31.1440   44.1940 C   0  0  0  0  0  0  0  0  0  0  0  0
   56.5130   32.0690   45.2300 O   0  0  0  0  0  0  0  0  0  0  0  0
   57.1380   33.3150   45.3460 C   0  0  0  0  0  0  0  0  0  0  0  0
   56.6440   34.3240   44.7720 O   0  0  0  0  0  0  0  0  0  0  0  0
   58.3790   33.4470   46.1410 C   0  0  0  0  0  0  0  0  0  0  0  0
   59.5670   33.8900   45.5370 C   0  0  0  0  0  0  0  0  0  0  0  0
   60.7430   34.0080   46.2820 C   0  0  0  0  0  0  0  0  0  0  0  0
   60.7570   33.6850   47.6510 C   0  0  0  0  0  0  0  0  0  0  0  0
   61.9620   33.7970   48.4330 N   0  0  0  0  0  0  0  0  0  0  0  0
   62.1060   34.2010   49.7100 C   0  0  0  0  0  0  0  0  0  0  0  0
   63.4090   34.1680   50.0340 N   0  0  0  0  0  0  0  0  0  0  0  0
   64.0550   33.7480   48.9580 N   0  0  0  0  0  0  0  0  0  0  0  0
   63.1800   33.5240   47.9880 N   0  0  0  0  0  0  0  0  0  0  0  0
   59.5670   33.2480   48.2560 C   0  0  0  0  0  0  0  0  0  0  0  0
   58.3910   33.1280   47.5100 C   0  0  0  0  0  0  0  0  0  0  0  0
   59.5340   29.5760   45.9810 C   0  0  0  0  0  0  0  0  0  0  0  0
   60.5520   30.2370   46.6770 C   0  0  0  0  0  0  0  0  0  0  0  0
   61.6394   30.6294   49.8802 H   0  0  0  0  0  0  0  0  0  0  0  0
   62.7924   30.3364   48.5342 H   0  0  0  0  0  0  0  0  0  0  0  0
   61.7680   31.8120   48.5342 H   0  0  0  0  0  0  0  0  0  0  0  0
   60.0011   28.9560   49.8008 H   0  0  0  0  0  0  0  0  0  0  0  0
   58.1911   27.7737   48.5599 H   0  0  0  0  0  0  0  0  0  0  0  0
   57.8630   26.9554   45.6819 H   0  0  0  0  0  0  0  0  0  0  0  0
   56.6692   27.9851   46.5400 H   0  0  0  0  0  0  0  0  0  0  0  0
   57.9126   31.1295   44.0298 H   0  0  0  0  0  0  0  0  0  0  0  0
   56.3196   31.4473   43.2652 H   0  0  0  0  0  0  0  0  0  0  0  0
   59.5716   34.1465   44.4673 H   0  0  0  0  0  0  0  0  0  0  0  0
   61.6653   34.3563   45.7941 H   0  0  0  0  0  0  0  0  0  0  0  0
   61.2887   34.5082   50.3791 H   0  0  0  0  0  0  0  0  0  0  0  0
   63.8510   34.4250   50.9440 H   0  0  0  0  0  0  0  0  0  0  0  0
   59.5605   32.9978   49.3272 H   0  0  0  0  0  0  0  0  0  0  0  0
   57.4680   32.7814   47.9978 H   0  0  0  0  0  0  0  0  0  0  0  0
   59.3936   29.7647   44.9064 H   0  0  0  0  0  0  0  0  0  0  0  0
   61.2084   30.9425   46.1465 H   0  0  0  0  0  0  0  0  0  0  0  0
  1  2  1  0
  2  3  2  0
  3  4  1  0
  4  5  2  0
  5  6  1  0
  6  7  1  0
  7  8  1  0
  8  9  2  0
  8 10  1  0
 10 11  1  0
 11 12  1  0
 12 13  2  0
 12 14  1  0
 14 15  2  0
 15 16  1  0
 16 17  2  0
 17 18  1  0
 18 19  1  0
 19 20  2  0
 20 21  1  0
 21 22  2  0
 17 23  1  0
 23 24  2  0
  5 25  1  0
 25 26  2  0
 26  2  1  0
 24 14  1  0
 22 18  1  0
  1 27  1  0
  1 28  1  0
  1 29  1  0
  3 30  1  0
  4 31  1  0
  6 32  1  0
  6 33  1  0
 10 34  1  0
 10 35  1  0
 15 36  1  0
 16 37  1  0
 19 38  1  0
 20 39  1  0
 23 40  1  0
 24 41  1  0
 25 42  1  0
 26 43  1  0
M  CHG  2   7  -1  20   1
M  END
>  <UniqueID>  (34) 
32

>  <SMILES>  (34) 
Cc1ccc(C[N-]C(=O)COC(=O)c2ccc(-n3c[nH+]nn3)cc2)cc1

>  <Energy>  (34) 
81.85751641511607

>  <Genealogy>  (34) 
Cc1ccc(C[N-]C(=O)COC(=O)c2ccc(-n3c[nH+]nn3)cc2)cc1 (protonated)
Cc1ccc(C[N-]C(=O)COC(=O)c2ccc(-n3c[nH+]nn3)cc2)cc1 (3D coordinates assigned)
Cc1ccc(C[N-]C(=O)COC(=O)c2ccc(-n3c[nH+]nn3)cc2)cc1 (optimized conformer: 81.85751641511607 kcal/mol)

>  <smiles>  (34) 
Cc1ccc(CNC(=O)COC(=O)c2ccc(-n3cnnn3)cc2)cc1

>  <score_type>  (34) 
oracle

>  <origin>  (34) 
adg

>  <m_score__min__energy>  (34) 
-9.0700000000000003

>  <m_primary>  (34) 
energy

$$$$
34:0
     RDKit          3D

 48 51  0  0  0  0  0  0  0  0999 V2000
   59.5820   27.7390   47.7930 C   0  0  0  0  0  0  0  0  0  0  0  0
   58.6880   27.8830   46.6510 N   0  0  0  0  0  0  0  0  0  0  0  0
   58.6770   28.9540   45.8730 N   0  0  0  0  0  0  0  0  0  0  0  0
   57.7450   28.7510   44.9210 C   0  0  0  0  0  0  0  0  0  0  0  0
   57.3920   29.7570   43.8700 C   0  0  0  0  0  0  0  0  0  0  0  0
   58.3650   30.8590   43.8490 N   0  0  0  0  0  0  0  0  0  0  0  0
   57.7710   32.1580   44.2080 C   0  0  0  0  0  0  0  0  0  0  0  0
   58.5710   32.8780   45.2620 C   0  0  0  0  0  0  0  0  0  0  0  0
   58.4790   34.2710   45.4090 C   0  0  0  0  0  0  0  0  0  0  0  0
   59.2190   34.9040   46.4090 C   0  0  0  0  0  0  0  0  0  0  0  0
   60.0400   34.1500   47.2490 C   0  0  0  0  0  0  0  0  0  0  0  0
   60.1050   32.7660   47.0770 C   0  0  0  0  0  0  0  0  0  0  0  0
   59.3760   32.1660   46.0990 N   0  0  0  0  0  0  0  0  0  0  0  0
   57.1420   27.5210   45.1000 C   0  0  0  0  0  0  0  0  0  0  0  0
   57.7830   26.9850   46.2000 C   0  0  0  0  0  0  0  0  0  0  0  0
   57.4610   25.6550   46.8320 C   0  0  0  0  0  0  0  0  0  0  0  0
   56.6640   24.8060   45.9250 N   0  0  0  0  0  0  0  0  0  0  0  0
   55.2730   25.1140   45.6910 C   0  0  0  0  0  0  0  0  0  0  0  0
   54.7970   26.2400   45.9990 O   0  0  0  0  0  0  0  0  0  0  0  0
   54.3600   24.0610   45.1400 C   0  0  0  0  0  0  0  0  0  0  0  0
   55.0550   23.1970   44.2450 O   0  0  0  0  0  0  0  0  0  0  0  0
   56.4100   22.8900   44.3890 C   0  0  0  0  0  0  0  0  0  0  0  0
   56.9430   21.8140   43.6700 C   0  0  0  0  0  0  0  0  0  0  0  0
   58.2970   21.4980   43.7790 C   0  0  0  0  0  0  0  0  0  0  0  0
   59.1290   22.2650   44.5950 C   0  0  0  0  0  0  0  0  0  0  0  0
   58.6080   23.3480   45.3090 C   0  0  0  0  0  0  0  0  0  0  0  0
   57.2360   23.6700   45.2260 C   0  0  0  0  0  0  0  0  0  0  0  0
   59.0046   27.8320   48.7247 H   0  0  0  0  0  0  0  0  0  0  0  0
   60.0652   26.7514   47.7581 H   0  0  0  0  0  0  0  0  0  0  0  0
   60.3509   28.5249   47.7581 H   0  0  0  0  0  0  0  0  0  0  0  0
   57.3859   29.2635   42.8870 H   0  0  0  0  0  0  0  0  0  0  0  0
   56.3987   30.1702   44.0993 H   0  0  0  0  0  0  0  0  0  0  0  0
   59.1320   30.6370   44.5270 H   0  0  0  0  0  0  0  0  0  0  0  0
   57.7246   32.7874   43.3070 H   0  0  0  0  0  0  0  0  0  0  0  0
   56.7673   31.9689   44.6165 H   0  0  0  0  0  0  0  0  0  0  0  0
   57.8300   34.8581   44.7426 H   0  0  0  0  0  0  0  0  0  0  0  0
   59.1553   35.9949   46.5348 H   0  0  0  0  0  0  0  0  0  0  0  0
   60.6292   34.6407   48.0377 H   0  0  0  0  0  0  0  0  0  0  0  0
   60.7469   32.1604   47.7337 H   0  0  0  0  0  0  0  0  0  0  0  0
   56.3353   27.0710   44.5027 H   0  0  0  0  0  0  0  0  0  0  0  0
   58.4007   25.1368   47.0736 H   0  0  0  0  0  0  0  0  0  0  0  0
   56.8709   25.8382   47.7420 H   0  0  0  0  0  0  0  0  0  0  0  0
   53.9546   23.4660   45.9716 H   0  0  0  0  0  0  0  0  0  0  0  0
   53.5481   24.5566   44.5876 H   0  0  0  0  0  0  0  0  0  0  0  0
   56.2915   21.2153   43.0165 H   0  0  0  0  0  0  0  0  0  0  0  0
   58.7090   20.6439   43.2215 H   0  0  0  0  0  0  0  0  0  0  0  0
   60.1975   22.0169   44.6767 H   0  0  0  0  0  0  0  0  0  0  0  0
   59.2730   23.9547   45.9412 H   0  0  0  0  0  0  0  0  0  0  0  0
  1  2  1  0
  2  3  1  0
  3  4  2  0
  4  5  1  0
  5  6  1  0
  6  7  1  0
  7  8  1  0
  8  9  2  0
  9 10  1  0
 10 11  2  0
 11 12  1  0
 12 13  2  0
  4 14  1  0
 14 15  2  0
 15 16  1  0
 16 17  1  0
 17 18  1  0
 18 19  2  0
 18 20  1  0
 20 21  1  0
 21 22  1  0
 22 23  2  0
 23 24  1  0
 24 25  2  0
 25 26  1  0
 26 27  2  0
 15  2  1  0
 27 17  1  0
 13  8  1  0
 27 22  1  0
  1 28  1  0
  1 29  1  0
  1 30  1  0
  5 31  1  0
  5 32  1  0
  6 33  1  0
  7 34  1  0
  7 35  1  0
  9 36  1  0
 10 37  1  0
 11 38  1  0
 12 39  1  0
 14 40  1  0
 16 41  1  0
 16 42  1  0
 20 43  1  0
 20 44  1  0
 23 45  1  0
 24 46  1  0
 25 47  1  0
 26 48  1  0
M  END
>  <UniqueID>  (35) 
33

>  <SMILES>  (35) 
Cn1nc(CNCc2ccccn2)cc1CN1C(=O)COc2ccccc21

>  <Energy>  (35) 
84.67444949113253

>  <Genealogy>  (35) 
Cn1nc(CNCc2ccccn2)cc1CN1C(=O)COc2ccccc21 (3D coordinates assigned)
Cn1nc(CNCc2ccccn2)cc1CN1C(=O)COc2ccccc21 (nonaromatic ring conformer: 84.67444949113253 kcal/mol)

>  <smiles>  (35) 
Cn1nc(CNCc2ccccn2)cc1CN1C(=O)COc2ccccc21

>  <score_type>  (35) 
oracle

>  <origin>  (35) 
adg

>  <m_score__min__energy>  (35) 
-7.6600000000000001

>  <m_primary>  (35) 
energy

$$$$
35:0
     RDKit          3D

 36 37  0  0  0  0  0  0  0  0999 V2000
   60.3020   34.6010   46.7770 C   0  0  0  0  0  0  0  0  0  0  0  0
   59.2230   33.7300   46.2030 C   0  0  0  0  0  0  0  0  0  0  0  0
   58.3810   34.2200   45.1950 C   0  0  0  0  0  0  0  0  0  0  0  0
   57.3990   33.3980   44.6330 C   0  0  0  0  0  0  0  0  0  0  0  0
   57.2490   32.0710   45.0760 C   0  0  0  0  0  0  0  0  0  0  0  0
   56.2710   31.1860   44.5120 N   0  0  0  0  0  0  0  0  0  0  0  0
   56.3190   29.7530   44.4940 C   0  0  0  0  0  0  0  0  0  0  0  0
   55.5190   29.0710   45.1890 O   0  0  0  0  0  0  0  0  0  0  0  0
   57.3680   29.0590   43.6780 C   0  0  0  0  0  0  0  0  0  0  0  0
   58.6860   28.8390   44.4670 C   0  0  0  0  0  0  0  0  0  0  0  0
   58.8380   27.4980   45.0770 N   0  0  0  0  0  0  0  0  0  0  0  0
   57.8180   26.5230   44.6700 C   0  0  0  0  0  0  0  0  0  0  0  0
   56.9470   26.2400   45.8790 C   0  0  0  0  0  0  0  0  0  0  0  0
   57.8300   26.5490   47.0690 C   0  0  0  0  0  0  0  0  0  0  0  0
   58.8900   27.5130   46.5480 C   0  0  0  0  0  0  0  0  0  0  0  0
   58.1200   31.5720   46.0510 C   0  0  0  0  0  0  0  0  0  0  0  0
   59.1000   32.3950   46.6140 C   0  0  0  0  0  0  0  0  0  0  0  0
   60.2570   34.5647   47.8755 H   0  0  0  0  0  0  0  0  0  0  0  0
   61.2841   34.2395   46.4381 H   0  0  0  0  0  0  0  0  0  0  0  0
   60.1558   35.6372   46.4381 H   0  0  0  0  0  0  0  0  0  0  0  0
   58.4933   35.2565   44.8442 H   0  0  0  0  0  0  0  0  0  0  0  0
   56.7421   33.7900   43.8425 H   0  0  0  0  0  0  0  0  0  0  0  0
   56.9785   28.0800   43.3619 H   0  0  0  0  0  0  0  0  0  0  0  0
   57.5985   29.7006   42.8148 H   0  0  0  0  0  0  0  0  0  0  0  0
   59.5270   28.9959   43.7756 H   0  0  0  0  0  0  0  0  0  0  0  0
   58.6654   29.5544   45.3023 H   0  0  0  0  0  0  0  0  0  0  0  0
   57.2061   26.9380   43.8555 H   0  0  0  0  0  0  0  0  0  0  0  0
   58.2902   25.5976   44.3085 H   0  0  0  0  0  0  0  0  0  0  0  0
   56.0580   26.8878   45.8769 H   0  0  0  0  0  0  0  0  0  0  0  0
   56.5775   25.2040   45.8926 H   0  0  0  0  0  0  0  0  0  0  0  0
   57.2432   27.0196   47.8716 H   0  0  0  0  0  0  0  0  0  0  0  0
   58.2785   25.6383   47.4927 H   0  0  0  0  0  0  0  0  0  0  0  0
   58.6848   28.5284   46.9180 H   0  0  0  0  0  0  0  0  0  0  0  0
   59.8874   27.2079   46.8973 H   0  0  0  0  0  0  0  0  0  0  0  0
   58.0330   30.5249   46.3767 H   0  0  0  0  0  0  0  0  0  0  0  0
   59.7772   31.9937   47.3824 H   0  0  0  0  0  0  0  0  0  0  0  0
  1  2  1  0
  2  3  2  0
  3  4  1  0
  4  5  2  0
  5  6  1  0
  6  7  1  0
  7  8  2  0
  7  9  1  0
  9 10  1  0
 10 11  1  0
 11 12  1  0
 12 13  1  0
 13 14  1  0
 14 15  1  0
  5 16  1  0
 16 17  2  0
 17  2  1  0
 15 11  1  0
  1 18  1  0
  1 19  1  0
  1 20  1  0
  3 21  1  0
  4 22  1  0
  9 23  1  0
  9 24  1  0
 10 25  1  0
 10 26  1  0
 12 27  1  0
 12 28  1  0
 13 29  1  0
 13 30  1  0
 14 31  1  0
 14 32  1  0
 15 33  1  0
 15 34  1  0
 16 35  1  0
 17 36  1  0
M  CHG  1   6  -1
M  END
>  <UniqueID>  (36) 
34

>  <SMILES>  (36) 
Cc1ccc([N-]C(=O)CCN2CCCC2)cc1

>  <Energy>  (36) 
42.58566075402159

>  <Genealogy>  (36) 
Cc1ccc([N-]C(=O)CCN2CCCC2)cc1 (protonated)
Cc1ccc([N-]C(=O)CCN2CCCC2)cc1 (3D coordinates assigned)
Cc1ccc([N-]C(=O)CCN2CCCC2)cc1 (nonaromatic ring conformer: 42.58566075402159 kcal/mol)

>  <smiles>  (36) 
Cc1ccc(NC(=O)CCN2CCCC2)cc1

>  <score_type>  (36) 
oracle

>  <origin>  (36) 
adg

>  <m_score__min__energy>  (36) 
-8.1099999999999994

>  <m_primary>  (36) 
energy

$$$$
36:0
     RDKit          3D

113117  0  0  0  0  0  0  0  0999 V2000
   62.9500   31.1480   51.3800 H   0  0  0  0  0  0  0  0  0  0  0  0
   62.4570   31.2560   52.2390 O   0  0  0  0  0  0  0  0  0  0  0  0
   61.2110   31.8320   51.9380 C   0  0  1  0  0  0  0  0  0  0  0  0
   60.3790   31.1748   52.2312 H   0  0  0  0  0  0  0  0  0  0  0  0
   61.0380   33.1330   52.7470 C   0  0  2  0  0  0  0  0  0  0  0  0
   61.8630   33.8098   52.4800 H   0  0  0  0  0  0  0  0  0  0  0  0
   61.0940   32.8430   54.1220 O   0  0  0  0  0  0  0  0  0  0  0  0
   61.6750   32.0410   54.2270 H   0  0  0  0  0  0  0  0  0  0  0  0
   59.7150   33.8820   52.3910 C   0  0  2  0  0  0  0  0  0  0  0  0
   59.9276   34.9342   52.6313 H   0  0  0  0  0  0  0  0  0  0  0  0
   58.5770   33.4060   53.1890 N   0  0  0  0  0  0  0  0  0  0  0  0
   58.9350   32.8700   54.0160 H   0  0  0  0  0  0  0  0  0  0  0  0
   58.0270   34.2250   53.5350 H   0  0  0  0  0  0  0  0  0  0  0  0
   59.3330   33.7950   50.8910 C   0  0  0  0  0  0  0  0  0  0  0  0
   58.5371   33.0439   50.7800 H   0  0  0  0  0  0  0  0  0  0  0  0
   59.0117   34.8019   50.5861 H   0  0  0  0  0  0  0  0  0  0  0  0
   60.5020   33.4020   49.9670 C   0  0  1  0  0  0  0  0  0  0  0  0
   60.0848   33.2762   48.9570 H   0  0  0  0  0  0  0  0  0  0  0  0
   61.5120   34.4620   49.8290 N   0  0  0  0  0  0  0  0  0  0  0  0
   61.4580   34.9500   48.9020 H   0  0  0  0  0  0  0  0  0  0  0  0
   62.4810   34.0810   49.9470 H   0  0  0  0  0  0  0  0  0  0  0  0
   61.1130   32.0330   50.3880 C   0  0  2  0  0  0  0  0  0  0  0  0
   62.1382   31.9990   49.9906 H   0  0  0  0  0  0  0  0  0  0  0  0
   60.2720   31.0090   49.8730 O   0  0  0  0  0  0  0  0  0  0  0  0
   60.8810   30.2090   48.8650 C   0  0  2  0  0  0  0  0  0  0  0  0
   61.7438   30.7320   48.4267 H   0  0  0  0  0  0  0  0  0  0  0  0
   59.8820   29.9800   47.6920 C   0  0  0  0  0  0  0  0  0  0  0  0
   60.3925   29.3704   46.9319 H   0  0  0  0  0  0  0  0  0  0  0  0
   59.5952   30.9860   47.3519 H   0  0  0  0  0  0  0  0  0  0  0  0
   58.5470   29.2690   48.0500 C   0  0  0  0  0  0  0  0  0  0  0  0
   57.7662   29.6622   47.3824 H   0  0  0  0  0  0  0  0  0  0  0  0
   58.3742   29.4796   49.1157 H   0  0  0  0  0  0  0  0  0  0  0  0
   58.5470   27.7300   47.9230 C   0  0  1  0  0  0  0  0  0  0  0  0
   57.7321   27.3572   48.5609 H   0  0  0  0  0  0  0  0  0  0  0  0
   58.3400   27.3560   46.5710 O   0  0  0  0  0  0  0  0  0  0  0  0
   58.5160   28.4350   45.6640 C   0  0  1  0  0  0  0  0  0  0  0  0
   59.1023   29.2243   46.1572 H   0  0  0  0  0  0  0  0  0  0  0  0
   59.2410   27.9690   44.5320 O   0  0  0  0  0  0  0  0  0  0  0  0
   58.4190   27.4310   43.5050 C   0  0  1  0  0  0  0  0  0  0  0  0
   59.0813   27.2255   42.6511 H   0  0  0  0  0  0  0  0  0  0  0  0
   57.8020   26.0780   43.8990 C   0  0  0  0  0  0  0  0  0  0  0  0
   57.7651   25.9972   44.9954 H   0  0  0  0  0  0  0  0  0  0  0  0
   56.7826   26.0073   43.4917 H   0  0  0  0  0  0  0  0  0  0  0  0
   58.4170   25.2620   43.4917 H   0  0  0  0  0  0  0  0  0  0  0  0
   57.3660   28.4520   42.9830 C   0  0  0  0  0  0  0  0  0  0  0  0
   57.6952   28.8269   42.0027 H   0  0  0  0  0  0  0  0  0  0  0  0
   56.4009   27.9286   42.9152 H   0  0  0  0  0  0  0  0  0  0  0  0
   57.1870   29.6020   43.8930 N   0  0  0  0  0  0  0  0  0  0  0  0
   58.1820   30.6800   43.6680 C   0  0  0  0  0  0  0  0  0  0  0  0
   59.0896   30.4686   44.2524 H   0  0  0  0  0  0  0  0  0  0  0  0
   58.4358   30.7262   42.5987 H   0  0  0  0  0  0  0  0  0  0  0  0
   57.6080   31.9860   44.0980 C   0  0  0  0  0  0  0  0  0  0  0  0
   57.6630   32.9830   43.3250 O   0  0  0  0  0  0  0  0  0  0  0  0
   56.9780   32.1020   45.3750 N   0  0  0  0  0  0  0  0  0  0  0  0
   57.7180   32.4150   46.5880 C   0  0  0  0  0  0  0  0  0  0  0  0
   57.2055   31.9709   47.4541 H   0  0  0  0  0  0  0  0  0  0  0  0
   58.7354   32.0040   46.5108 H   0  0  0  0  0  0  0  0  0  0  0  0
   57.7960   33.9320   46.7660 C   0  0  0  0  0  0  0  0  0  0  0  0
   56.7723   34.3294   46.8306 H   0  0  0  0  0  0  0  0  0  0  0  0
   58.3729   34.1240   47.6827 H   0  0  0  0  0  0  0  0  0  0  0  0
   58.5260   34.6440   45.6080 C   0  0  0  0  0  0  0  0  0  0  0  0
   58.0036   34.3973   44.6719 H   0  0  0  0  0  0  0  0  0  0  0  0
   58.5089   35.7176   45.8469 H   0  0  0  0  0  0  0  0  0  0  0  0
   60.0070   34.2630   45.4430 C   0  0  0  0  0  0  0  0  0  0  0  0
   60.0657   33.2091   45.1335 H   0  0  0  0  0  0  0  0  0  0  0  0
   60.4385   34.9367   44.6880 H   0  0  0  0  0  0  0  0  0  0  0  0
   60.8190   34.4400   46.7360 C   0  0  0  0  0  0  0  0  0  0  0  0
   60.9942   35.5122   46.9081 H   0  0  0  0  0  0  0  0  0  0  0  0
   60.2506   34.0064   47.5720 H   0  0  0  0  0  0  0  0  0  0  0  0
   62.1670   33.7210   46.6330 C   0  0  0  0  0  0  0  0  0  0  0  0
   62.1068   32.9468   45.8539 H   0  0  0  0  0  0  0  0  0  0  0  0
   62.9452   34.4546   46.3757 H   0  0  0  0  0  0  0  0  0  0  0  0
   62.5090   33.0910   47.9180 N   0  0  0  0  0  0  0  0  0  0  0  0
   62.9360   33.8320   48.5270 H   0  0  0  0  0  0  0  0  0  0  0  0
   63.5100   32.0370   47.7440 C   0  0  0  0  0  0  0  0  0  0  0  0
   63.0495   31.1777   47.2346 H   0  0  0  0  0  0  0  0  0  0  0  0
   64.3429   32.4260   47.1399 H   0  0  0  0  0  0  0  0  0  0  0  0
   64.0430   31.5920   49.1070 C   0  0  0  0  0  0  0  0  0  0  0  0
   63.3339   30.8819   49.5575 H   0  0  0  0  0  0  0  0  0  0  0  0
   65.0234   31.1141   48.9641 H   0  0  0  0  0  0  0  0  0  0  0  0
   64.2050   32.7380   49.9980 N   0  0  0  0  0  0  0  0  0  0  0  0
   65.2150   33.2490   50.6590 C   0  0  0  0  0  0  0  0  0  0  0  0
   66.4760   32.9400   50.1270 C   0  0  0  0  0  0  0  0  0  0  0  0
   66.5523   32.2499   49.2738 H   0  0  0  0  0  0  0  0  0  0  0  0
   67.6310   33.4970   50.6670 C   0  0  0  0  0  0  0  0  0  0  0  0
   68.6128   33.2282   50.2502 H   0  0  0  0  0  0  0  0  0  0  0  0
   67.5560   34.3660   51.7000 N   0  0  0  0  0  0  0  0  0  0  0  0
   66.3730   34.6880   52.2840 C   0  0  0  0  0  0  0  0  0  0  0  0
   66.3880   35.5670   53.3700 C   0  0  0  0  0  0  0  0  0  0  0  0
   67.3364   36.0165   53.6993 H   0  0  0  0  0  0  0  0  0  0  0  0
   65.2050   35.8750   54.0360 C   0  0  0  0  0  0  0  0  0  0  0  0
   65.2250   36.9670   55.4180 Cl  0  0  0  0  0  0  0  0  0  0  0  0
   64.0030   35.3200   53.6100 C   0  0  0  0  0  0  0  0  0  0  0  0
   63.0715   35.5647   54.1415 H   0  0  0  0  0  0  0  0  0  0  0  0
   63.9670   34.4550   52.5140 C   0  0  0  0  0  0  0  0  0  0  0  0
   63.0063   34.0244   52.1953 H   0  0  0  0  0  0  0  0  0  0  0  0
   65.1510   34.1230   51.8050 C   0  0  0  0  0  0  0  0  0  0  0  0
   57.1740   29.1330   45.2860 C   0  0  0  0  0  0  0  0  0  0  0  0
   57.0186   29.9944   45.9522 H   0  0  0  0  0  0  0  0  0  0  0  0
   56.3600   28.4015   45.3973 H   0  0  0  0  0  0  0  0  0  0  0  0
   59.8730   27.1000   48.4090 C   0  0  1  0  0  0  0  0  0  0  0  0
   59.6288   26.0557   48.6534 H   0  0  0  0  0  0  0  0  0  0  0  0
   60.8880   27.1580   47.3500 N   0  0  0  0  0  0  0  0  0  0  0  0
   61.2560   26.1950   47.1800 H   0  0  0  0  0  0  0  0  0  0  0  0
   60.4170   27.4400   46.4570 H   0  0  0  0  0  0  0  0  0  0  0  0
   60.4410   27.7360   49.7030 C   0  0  0  0  0  0  0  0  0  0  0  0
   60.9366   26.9417   50.2804 H   0  0  0  0  0  0  0  0  0  0  0  0
   59.5806   28.1905   50.2160 H   0  0  0  0  0  0  0  0  0  0  0  0
   61.4660   28.8860   49.4960 C   0  0  2  0  0  0  0  0  0  0  0  0
   62.1736   28.5219   48.7366 H   0  0  0  0  0  0  0  0  0  0  0  0
   62.1700   29.1580   50.7570 N   0  0  0  0  0  0  0  0  0  0  0  0
   61.4970   29.5830   51.4300 H   0  0  0  0  0  0  0  0  0  0  0  0
   62.8790   29.9070   50.5820 H   0  0  0  0  0  0  0  0  0  0  0  0
  1  2  1  0
  2  3  1  0
  3  4  1  1
  3  5  1  0
  5  6  1  6
  5  7  1  0
  7  8  1  0
  5  9  1  0
  9 10  1  1
  9 11  1  0
 11 12  1  0
 11 13  1  0
  9 14  1  0
 14 15  1  0
 14 16  1  0
 14 17  1  0
 17 18  1  6
 17 19  1  0
 19 20  1  0
 19 21  1  0
 17 22  1  0
 22 23  1  6
 22 24  1  0
 24 25  1  0
 25 26  1  6
 25 27  1  0
 27 28  1  0
 27 29  1  0
 27 30  1  0
 30 31  1  0
 30 32  1  0
 30 33  1  0
 33 34  1  1
 33 35  1  0
 35 36  1  0
 36 37  1  1
 36 38  1  0
 38 39  1  0
 39 40  1  6
 39 41  1  0
 41 42  1  0
 41 43  1  0
 41 44  1  0
 39 45  1  0
 45 46  1  0
 45 47  1  0
 45 48  1  0
 48 49  1  0
 49 50  1  0
 49 51  1  0
 49 52  1  0
 52 53  2  0
 52 54  1  0
 54 55  1  0
 55 56  1  0
 55 57  1  0
 55 58  1  0
 58 59  1  0
 58 60  1  0
 58 61  1  0
 61 62  1  0
 61 63  1  0
 61 64  1  0
 64 65  1  0
 64 66  1  0
 64 67  1  0
 67 68  1  0
 67 69  1  0
 67 70  1  0
 70 71  1  0
 70 72  1  0
 70 73  1  0
 73 74  1  0
 73 75  1  0
 75 76  1  0
 75 77  1  0
 75 78  1  0
 78 79  1  0
 78 80  1  0
 78 81  1  0
 81 82  2  0
 82 83  1  0
 83 84  1  0
 83 85  2  0
 85 86  1  0
 85 87  1  0
 87 88  1  0
 88 89  2  0
 89 90  1  0
 89 91  1  0
 91 92  1  0
 91 93  2  0
 93 94  1  0
 93 95  1  0
 95 96  1  0
 95 97  2  0
 48 98  1  0
 98 99  1  0
 98100  1  0
 33101  1  0
101102  1  1
101103  1  0
103104  1  0
103105  1  0
101106  1  0
106107  1  0
106108  1  0
106109  1  0
109110  1  6
109111  1  0
111112  1  0
111113  1  0
 22  3  1  0
109 25  1  0
 98 36  1  0
 97 82  1  0
 97 88  1  0
M  CHG  2  54  -1  87  -1
M  END
>  <UniqueID>  (37) 
35

>  <SMILES>  (37) 
C[C@H]1CN(CC(=O)[N-]CCCCCCNCC/N=c2/cc[n-]c3cc(Cl)ccc23)C[C@@H](OC2CCC(OC3C(N)CC(N)C(O)C3O)C(N)CC2N)O1

>  <Energy>  (37) 
165.2015515049683

>  <Genealogy>  (37) 
CC1CN(CC(=O)[N-]CCCCCCNCCN=c2cc[n-]c3cc(Cl)ccc23)CC(OC2CCC(OC3C(N)CC(N)C(O)C3O)C(N)CC2N)O1 (protonated)
C[C@H]1CN(CC(=O)[N-]CCCCCCNCCN=c2cc[n-]c3cc(Cl)ccc23)C[C@@H](OC2CCC(OC3C(N)CC(N)C(O)C3O)C(N)CC2N)O1 (chirality)
C[C@H]1CN(CC(=O)[N-]CCCCCCNCC/N=c2/cc[n-]c3cc(Cl)ccc23)C[C@@H](OC2CCC(OC3C(N)CC(N)C(O)C3O)C(N)CC2N)O1 (cis-trans isomerization)
C[C@H]1CN(CC(=O)[N-]CCCCCCNCC/N=c2/cc[n-]c3cc(Cl)ccc23)C[C@@H](OC2CCC(OC3C(N)CC(N)C(O)C3O)C(N)CC2N)O1 (3D coordinates assigned)
C[C@H]1CN(CC(=O)[N-]CCCCCCNCC/N=c2/cc[n-]c3cc(Cl)ccc23)C[C@@H](OC2CCC(OC3C(N)CC(N)C(O)C3O)C(N)CC2N)O1 (nonaromatic ring conformer: 165.2015515049683 kcal/mol)

>  <smiles>  (37) 
CC1CN(CC(=O)NCCCCCCNCCN=c2cc[nH]c3cc(Cl)ccc23)CC(OC2CCC(OC3C(N)CC(N)C(O)C3O)C(N)CC2N)O1

>  <score_type>  (37) 
oracle

>  <origin>  (37) 
adg

>  <m_score__min__energy>  (37) 
-7.4400000000000004

>  <m_primary>  (37) 
energy

$$$$
37:0
     RDKit          3D

 68 72  0  0  0  0  0  0  0  0999 V2000
   59.0630   31.9210   49.7980 C   0  0  0  0  0  0  0  0  0  0  0  0
   60.5170   31.8700   50.1780 C   0  0  0  0  0  0  0  0  0  0  0  0
   60.9420   31.0290   51.2220 C   0  0  0  0  0  0  0  0  0  0  0  0
   62.2930   30.9700   51.5750 C   0  0  0  0  0  0  0  0  0  0  0  0
   63.2320   31.7420   50.8890 C   0  0  0  0  0  0  0  0  0  0  0  0
   62.8240   32.5730   49.8440 C   0  0  0  0  0  0  0  0  0  0  0  0
   61.4720   32.6390   49.4800 C   0  0  0  0  0  0  0  0  0  0  0  0
   61.0730   33.4920   48.3990 N   0  0  0  0  0  0  0  0  0  0  0  0
   60.1340   34.5880   48.6610 C   0  0  0  0  0  0  0  0  0  0  0  0
   59.2490   34.9060   47.4310 C   0  0  0  0  0  0  0  0  0  0  0  0
   59.6200   34.1220   46.2290 N   0  0  0  0  0  0  0  0  0  0  0  0
   58.8890   34.6170   45.0260 C   0  0  0  0  0  0  0  0  0  0  0  0
   57.4650   34.0370   44.9130 C   0  0  0  0  0  0  0  0  0  0  0  0
   57.3440   32.6280   45.5080 C   0  0  0  0  0  0  0  0  0  0  0  0
   57.8720   31.5670   44.5360 C   0  0  0  0  0  0  0  0  0  0  0  0
   58.2590   30.3480   45.2780 N   0  0  0  0  0  0  0  0  0  0  0  0
   57.6590   29.1550   44.9800 C   0  0  0  0  0  0  0  0  0  0  0  0
   56.8060   29.0880   44.0500 O   0  0  0  0  0  0  0  0  0  0  0  0
   57.9830   27.9960   45.6960 C   0  0  0  0  0  0  0  0  0  0  0  0
   57.3290   26.7140   45.3360 C   0  0  0  0  0  0  0  0  0  0  0  0
   57.8960   25.8830   44.3570 C   0  0  0  0  0  0  0  0  0  0  0  0
   57.2840   24.6700   44.0260 C   0  0  0  0  0  0  0  0  0  0  0  0
   56.1080   24.2790   44.6720 C   0  0  0  0  0  0  0  0  0  0  0  0
   55.5430   25.0990   45.6530 C   0  0  0  0  0  0  0  0  0  0  0  0
   56.1520   26.3120   45.9890 C   0  0  0  0  0  0  0  0  0  0  0  0
   58.9240   28.0910   46.7420 C   0  0  0  0  0  0  0  0  0  0  0  0
   59.2590   26.9600   47.5190 C   0  0  0  0  0  0  0  0  0  0  0  0
   60.1900   27.0720   48.5460 C   0  0  0  0  0  0  0  0  0  0  0  0
   60.7810   28.2980   48.8090 C   0  0  0  0  0  0  0  0  0  0  0  0
   60.4300   29.4080   48.0450 C   0  0  0  0  0  0  0  0  0  0  0  0
   59.5100   29.3090   47.0270 N   0  0  0  0  0  0  0  0  0  0  0  0
   59.1670   30.4270   46.3050 C   0  0  0  0  0  0  0  0  0  0  0  0
   59.6860   31.5450   46.5900 O   0  0  0  0  0  0  0  0  0  0  0  0
   61.0850   34.1920   46.0290 C   0  0  0  0  0  0  0  0  0  0  0  0
   61.8070   33.4110   47.1330 C   0  0  0  0  0  0  0  0  0  0  0  0
   58.4465   31.9426   50.7088 H   0  0  0  0  0  0  0  0  0  0  0  0
   58.8709   32.8264   49.2036 H   0  0  0  0  0  0  0  0  0  0  0  0
   58.8079   31.0312   49.2036 H   0  0  0  0  0  0  0  0  0  0  0  0
   60.2075   30.4146   51.7634 H   0  0  0  0  0  0  0  0  0  0  0  0
   62.6172   30.3133   52.3958 H   0  0  0  0  0  0  0  0  0  0  0  0
   64.2940   31.6956   51.1719 H   0  0  0  0  0  0  0  0  0  0  0  0
   63.5667   33.1786   49.3040 H   0  0  0  0  0  0  0  0  0  0  0  0
   59.4837   34.3041   49.5015 H   0  0  0  0  0  0  0  0  0  0  0  0
   60.7218   35.4876   48.8960 H   0  0  0  0  0  0  0  0  0  0  0  0
   58.2025   34.6823   47.6855 H   0  0  0  0  0  0  0  0  0  0  0  0
   59.3957   35.9686   47.1875 H   0  0  0  0  0  0  0  0  0  0  0  0
   59.3490   33.1270   46.4160 H   0  0  0  0  0  0  0  0  0  0  0  0
   58.8187   35.7132   45.0836 H   0  0  0  0  0  0  0  0  0  0  0  0
   59.4514   34.2908   44.1387 H   0  0  0  0  0  0  0  0  0  0  0  0
   56.7714   34.7037   45.4463 H   0  0  0  0  0  0  0  0  0  0  0  0
   57.2226   33.9646   43.8425 H   0  0  0  0  0  0  0  0  0  0  0  0
   57.9259   32.5813   46.4403 H   0  0  0  0  0  0  0  0  0  0  0  0
   56.2810   32.4229   45.7027 H   0  0  0  0  0  0  0  0  0  0  0  0
   57.0859   31.3163   43.8085 H   0  0  0  0  0  0  0  0  0  0  0  0
   58.7532   31.9650   44.0115 H   0  0  0  0  0  0  0  0  0  0  0  0
   58.8234   26.1865   43.8493 H   0  0  0  0  0  0  0  0  0  0  0  0
   57.7289   24.0226   43.2560 H   0  0  0  0  0  0  0  0  0  0  0  0
   55.6268   23.3256   44.4084 H   0  0  0  0  0  0  0  0  0  0  0  0
   54.6179   24.7896   46.1614 H   0  0  0  0  0  0  0  0  0  0  0  0
   55.7088   26.9524   46.7658 H   0  0  0  0  0  0  0  0  0  0  0  0
   58.7832   25.9901   47.3117 H   0  0  0  0  0  0  0  0  0  0  0  0
   60.4565   26.1906   49.1477 H   0  0  0  0  0  0  0  0  0  0  0  0
   61.5224   28.3934   49.6160 H   0  0  0  0  0  0  0  0  0  0  0  0
   60.8965   30.3809   48.2592 H   0  0  0  0  0  0  0  0  0  0  0  0
   61.3395   33.7580   45.0508 H   0  0  0  0  0  0  0  0  0  0  0  0
   61.4029   35.2444   46.0666 H   0  0  0  0  0  0  0  0  0  0  0  0
   61.8901   32.3562   46.8321 H   0  0  0  0  0  0  0  0  0  0  0  0
   62.8052   33.8500   47.2777 H   0  0  0  0  0  0  0  0  0  0  0  0
  1  2  1  0
  2  3  2  0
  3  4  1  0
  4  5  2  0
  5  6  1  0
  6  7  2  0
  7  8  1  0
  8  9  1  0
  9 10  1  0
 10 11  1  0
 11 12  1  0
 12 13  1  0
 13 14  1  0
 14 15  1  0
 15 16  1  0
 16 17  1  0
 17 18  2  0
 17 19  1  0
 19 20  1  0
 20 21  2  0
 21 22  1  0
 22 23  2  0
 23 24  1  0
 24 25  2  0
 19 26  2  0
 26 27  1  0
 27 28  2  0
 28 29  1  0
 29 30  2  0
 30 31  1  0
 31 32  1  0
 32 33  2  0
 11 34  1  0
 34 35  1  0
  7  2  1  0
 35  8  1  0
 32 16  1  0
 25 20  1  0
 31 26  1  0
  1 36  1  0
  1 37  1  0
  1 38  1  0
  3 39  1  0
  4 40  1  0
  5 41  1  0
  6 42  1  0
  9 43  1  0
  9 44  1  0
 10 45  1  0
 10 46  1  0
 11 47  1  0
 12 48  1  0
 12 49  1  0
 13 50  1  0
 13 51  1  0
 14 52  1  0
 14 53  1  0
 15 54  1  0
 15 55  1  0
 21 56  1  0
 22 57  1  0
 23 58  1  0
 24 59  1  0
 25 60  1  0
 27 61  1  0
 28 62  1  0
 29 63  1  0
 30 64  1  0
 34 65  1  0
 34 66  1  0
 35 67  1  0
 35 68  1  0
M  CHG  1  11   1
M  END
>  <UniqueID>  (38) 
36

>  <SMILES>  (38) 
Cc1ccccc1N1CC[NH+](CCCCn2c(=O)c(-c3ccccc3)c3ccccn3c2=O)CC1

>  <Energy>  (38) 
101.91160680735021

>  <Genealogy>  (38) 
Cc1ccccc1N1CC[NH+](CCCCn2c(=O)c(-c3ccccc3)c3ccccn3c2=O)CC1 (protonated)
Cc1ccccc1N1CC[NH+](CCCCn2c(=O)c(-c3ccccc3)c3ccccn3c2=O)CC1 (3D coordinates assigned)
Cc1ccccc1N1CC[NH+](CCCCn2c(=O)c(-c3ccccc3)c3ccccn3c2=O)CC1 (nonaromatic ring conformer: 101.91160680735021 kcal/mol)

>  <smiles>  (38) 
Cc1ccccc1N1CCN(CCCCn2c(=O)c(-c3ccccc3)c3ccccn3c2=O)CC1

>  <score_type>  (38) 
oracle

>  <origin>  (38) 
adg

>  <m_score__min__energy>  (38) 
-7.4900000000000002

>  <m_primary>  (38) 
energy

$$$$
38:0
     RDKit          3D

 41 42  0  0  0  0  0  0  0  0999 V2000
   59.3060   26.0780   46.0200 C   0  0  0  0  0  0  0  0  0  0  0  0
   58.2620   27.1040   45.6580 C   0  0  0  0  0  0  0  0  0  0  0  0
   56.9150   26.7920   45.8770 C   0  0  0  0  0  0  0  0  0  0  0  0
   55.9440   27.6900   45.5890 N   0  0  0  0  0  0  0  0  0  0  0  0
   56.2190   28.9110   45.0740 C   0  0  0  0  0  0  0  0  0  0  0  0
   55.2660   29.7040   44.8480 O   0  0  0  0  0  0  0  0  0  0  0  0
   57.5520   29.2900   44.8030 C   0  0  0  0  0  0  0  0  0  0  0  0
   57.8190   30.6680   44.2040 C   0  0  0  0  0  0  0  0  0  0  0  0
   57.2820   31.7570   45.0430 N   0  0  0  0  0  0  0  0  0  0  0  0
   57.4420   33.0760   44.4080 C   0  0  0  0  0  0  0  0  0  0  0  0
   58.0390   34.1140   45.3810 C   0  0  0  0  0  0  0  0  0  0  0  0
   59.0110   33.4940   46.3050 N   0  0  0  0  0  0  0  0  0  0  0  0
   58.5370   33.4410   47.6930 C   0  0  0  0  0  0  0  0  0  0  0  0
   59.7690   33.4880   48.5880 C   0  0  0  0  0  0  0  0  0  0  0  0
   60.9090   33.9370   47.6900 C   0  0  0  0  0  0  0  0  0  0  0  0
   60.2610   34.2550   46.3550 C   0  0  0  0  0  0  0  0  0  0  0  0
   58.5970   28.3700   45.1040 C   0  0  0  0  0  0  0  0  0  0  0  0
   60.0450   28.7630   44.8920 C   0  0  0  0  0  0  0  0  0  0  0  0
   59.3823   26.0030   47.1148 H   0  0  0  0  0  0  0  0  0  0  0  0
   59.0191   25.1007   45.6046 H   0  0  0  0  0  0  0  0  0  0  0  0
   60.2782   26.3818   45.6046 H   0  0  0  0  0  0  0  0  0  0  0  0
   56.6432   25.8081   46.2869 H   0  0  0  0  0  0  0  0  0  0  0  0
   58.9056   30.8042   44.1004 H   0  0  0  0  0  0  0  0  0  0  0  0
   57.3135   30.7145   43.2281 H   0  0  0  0  0  0  0  0  0  0  0  0
   57.8030   31.7440   45.9480 H   0  0  0  0  0  0  0  0  0  0  0  0
   56.2710   31.5860   45.2500 H   0  0  0  0  0  0  0  0  0  0  0  0
   58.1117   32.9746   43.5413 H   0  0  0  0  0  0  0  0  0  0  0  0
   56.4467   33.4295   44.1007 H   0  0  0  0  0  0  0  0  0  0  0  0
   58.5477   34.8973   44.8000 H   0  0  0  0  0  0  0  0  0  0  0  0
   57.2186   34.5394   45.9777 H   0  0  0  0  0  0  0  0  0  0  0  0
   57.8852   34.3019   47.9025 H   0  0  0  0  0  0  0  0  0  0  0  0
   57.9557   32.5248   47.8740 H   0  0  0  0  0  0  0  0  0  0  0  0
   59.6207   34.2058   49.4082 H   0  0  0  0  0  0  0  0  0  0  0  0
   59.9747   32.5108   49.0493 H   0  0  0  0  0  0  0  0  0  0  0  0
   61.3976   34.8311   48.1045 H   0  0  0  0  0  0  0  0  0  0  0  0
   61.6874   33.1654   47.5962 H   0  0  0  0  0  0  0  0  0  0  0  0
   60.0526   35.3326   46.2814 H   0  0  0  0  0  0  0  0  0  0  0  0
   60.9229   33.9861   45.5186 H   0  0  0  0  0  0  0  0  0  0  0  0
   60.5354   28.8961   45.8676 H   0  0  0  0  0  0  0  0  0  0  0  0
   60.5606   27.9723   44.3273 H   0  0  0  0  0  0  0  0  0  0  0  0
   60.0901   29.7059   44.3273 H   0  0  0  0  0  0  0  0  0  0  0  0
  1  2  1  0
  2  3  2  0
  3  4  1  0
  4  5  1  0
  5  6  2  0
  5  7  1  0
  7  8  1  0
  8  9  1  0
  9 10  1  0
 10 11  1  0
 11 12  1  0
 12 13  1  0
 13 14  1  0
 14 15  1  0
 15 16  1  0
  7 17  2  0
 17 18  1  0
 17  2  1  0
 16 12  1  0
  1 19  1  0
  1 20  1  0
  1 21  1  0
  3 22  1  0
  8 23  1  0
  8 24  1  0
  9 25  1  0
  9 26  1  0
 10 27  1  0
 10 28  1  0
 11 29  1  0
 11 30  1  0
 13 31  1  0
 13 32  1  0
 14 33  1  0
 14 34  1  0
 15 35  1  0
 15 36  1  0
 16 37  1  0
 16 38  1  0
 18 39  1  0
 18 40  1  0
 18 41  1  0
M  CHG  2   4  -1   9   1
M  END
>  <UniqueID>  (39) 
37

>  <SMILES>  (39) 
Cc1c[n-]c(=O)c(C[NH2+]CCN2CCCC2)c1C

>  <Energy>  (39) 
48.534184326858785

>  <Genealogy>  (39) 
Cc1c[n-]c(=O)c(C[NH2+]CCN2CCCC2)c1C (protonated)
Cc1c[n-]c(=O)c(C[NH2+]CCN2CCCC2)c1C (3D coordinates assigned)
Cc1c[n-]c(=O)c(C[NH2+]CCN2CCCC2)c1C (nonaromatic ring conformer: 48.534184326858785 kcal/mol)

>  <smiles>  (39) 
Cc1c[nH]c(=O)c(CNCCN2CCCC2)c1C

>  <score_type>  (39) 
oracle

>  <origin>  (39) 
adg

>  <m_score__min__energy>  (39) 
-7.5499999999999998

>  <m_primary>  (39) 
energy

$$$$
39:0
     RDKit          3D

 52 55  0  0  0  0  0  0  0  0999 V2000
   54.7680   28.5290   44.5470 H   0  0  0  0  0  0  0  0  0  0  0  0
   55.1070   29.4530   44.7820 O   0  0  0  0  0  0  0  0  0  0  0  0
   56.4610   29.6900   44.8640 N   0  0  0  0  0  0  0  0  0  0  0  0
   57.2860   28.8670   45.4390 C   0  0  0  0  0  0  0  0  0  0  0  0
   58.5210   29.3360   46.1160 C   0  0  0  0  0  0  0  0  0  0  0  0
   58.5220   29.5560   47.5020 C   0  0  0  0  0  0  0  0  0  0  0  0
   57.6125   29.3577   48.0881 H   0  0  0  0  0  0  0  0  0  0  0  0
   59.6730   30.0260   48.1420 C   0  0  0  0  0  0  0  0  0  0  0  0
   59.6632   30.1888   49.2298 H   0  0  0  0  0  0  0  0  0  0  0  0
   60.8360   30.2910   47.4130 C   0  0  0  0  0  0  0  0  0  0  0  0
   61.9660   30.7530   48.1090 O   0  0  0  0  0  0  0  0  0  0  0  0
   62.4570   32.0940   48.0890 C   0  0  0  0  0  0  0  0  0  0  0  0
   62.9552   32.3101   49.0456 H   0  0  0  0  0  0  0  0  0  0  0  0
   63.1677   32.1973   47.2558 H   0  0  0  0  0  0  0  0  0  0  0  0
   61.3300   33.0720   47.8870 C   0  0  0  0  0  0  0  0  0  0  0  0
   60.7150   33.6730   48.9970 C   0  0  0  0  0  0  0  0  0  0  0  0
   61.0563   33.4251   50.0129 H   0  0  0  0  0  0  0  0  0  0  0  0
   59.6720   34.5840   48.8170 C   0  0  0  0  0  0  0  0  0  0  0  0
   59.2011   35.0587   49.6904 H   0  0  0  0  0  0  0  0  0  0  0  0
   59.2250   34.8940   47.5290 C   0  0  0  0  0  0  0  0  0  0  0  0
   58.4130   35.6231   47.3911 H   0  0  0  0  0  0  0  0  0  0  0  0
   59.8090   34.2780   46.4120 C   0  0  0  0  0  0  0  0  0  0  0  0
   59.3550   34.6370   45.0280 C   0  0  0  0  0  0  0  0  0  0  0  0
   58.4935   35.3182   45.0899 H   0  0  0  0  0  0  0  0  0  0  0  0
   60.1764   35.1325   44.4897 H   0  0  0  0  0  0  0  0  0  0  0  0
   59.0622   33.7235   44.4897 H   0  0  0  0  0  0  0  0  0  0  0  0
   60.8680   33.3750   46.5960 C   0  0  0  0  0  0  0  0  0  0  0  0
   61.3394   32.9012   45.7223 H   0  0  0  0  0  0  0  0  0  0  0  0
   60.8320   30.0910   46.0200 C   0  0  0  0  0  0  0  0  0  0  0  0
   61.7378   30.3047   45.4336 H   0  0  0  0  0  0  0  0  0  0  0  0
   59.6820   29.6220   45.3780 C   0  0  0  0  0  0  0  0  0  0  0  0
   59.6861   29.4759   44.2878 H   0  0  0  0  0  0  0  0  0  0  0  0
   57.0210   27.3970   45.3310 C   0  0  2  0  0  0  0  0  0  0  0  0
   57.6882   27.1936   44.4804 H   0  0  0  0  0  0  0  0  0  0  0  0
   55.7050   27.0760   45.7200 O   0  0  0  0  0  0  0  0  0  0  0  0
   56.7330   26.7090   46.6130 C   0  0  1  0  0  0  0  0  0  0  0  0
   56.9979   26.8941   47.6645 H   0  0  0  0  0  0  0  0  0  0  0  0
   56.9700   25.2280   46.6160 C   0  0  0  0  0  0  0  0  0  0  0  0
   56.3480   24.4220   47.5790 C   0  0  0  0  0  0  0  0  0  0  0  0
   55.7071   24.8807   48.3463 H   0  0  0  0  0  0  0  0  0  0  0  0
   56.5390   23.0380   47.5680 C   0  0  0  0  0  0  0  0  0  0  0  0
   56.0556   22.4145   48.3345 H   0  0  0  0  0  0  0  0  0  0  0  0
   57.3410   22.4380   46.5890 C   0  0  0  0  0  0  0  0  0  0  0  0
   57.5030   21.0460   46.6220 O   0  0  0  0  0  0  0  0  0  0  0  0
   57.0140   20.1570   45.6230 C   0  0  0  0  0  0  0  0  0  0  0  0
   56.5374   19.2905   46.1047 H   0  0  0  0  0  0  0  0  0  0  0  0
   56.2765   20.6797   44.9962 H   0  0  0  0  0  0  0  0  0  0  0  0
   57.8504   19.8140   44.9962 H   0  0  0  0  0  0  0  0  0  0  0  0
   57.9520   23.2470   45.6110 C   0  0  0  0  0  0  0  0  0  0  0  0
   58.5822   22.7876   44.8352 H   0  0  0  0  0  0  0  0  0  0  0  0
   57.7600   24.6330   45.6230 C   0  0  0  0  0  0  0  0  0  0  0  0
   58.2310   25.2580   44.8500 H   0  0  0  0  0  0  0  0  0  0  0  0
  1  2  1  0
  2  3  1  0
  3  4  2  0
  4  5  1  0
  5  6  2  0
  6  7  1  0
  6  8  1  0
  8  9  1  0
  8 10  2  0
 10 11  1  0
 11 12  1  0
 12 13  1  0
 12 14  1  0
 12 15  1  0
 15 16  2  0
 16 17  1  0
 16 18  1  0
 18 19  1  0
 18 20  2  0
 20 21  1  0
 20 22  1  0
 22 23  1  0
 23 24  1  0
 23 25  1  0
 23 26  1  0
 22 27  2  0
 27 28  1  0
 10 29  1  0
 29 30  1  0
 29 31  2  0
 31 32  1  0
  4 33  1  0
 33 34  1  6
 33 35  1  0
 35 36  1  0
 36 37  1  1
 36 38  1  0
 38 39  2  0
 39 40  1  0
 39 41  1  0
 41 42  1  0
 41 43  2  0
 43 44  1  0
 44 45  1  0
 45 46  1  0
 45 47  1  0
 45 48  1  0
 43 49  1  0
 49 50  1  0
 49 51  2  0
 51 52  1  0
 31  5  1  0
 36 33  1  0
 51 38  1  0
 27 15  1  0
M  END
>  <UniqueID>  (40) 
38

>  <SMILES>  (40) 
COc1ccc([C@@H]2O[C@H]2/C(=N/O)c2ccc(OCc3cccc(C)c3)cc2)cc1

>  <Energy>  (40) 
387.749807415874

>  <Genealogy>  (40) 
COc1ccc([C@@H]2O[C@H]2C(=NO)c2ccc(OCc3cccc(C)c3)cc2)cc1 (chirality)
COc1ccc([C@@H]2O[C@H]2/C(=N/O)c2ccc(OCc3cccc(C)c3)cc2)cc1 (cis-trans isomerization)
COc1ccc([C@@H]2O[C@H]2/C(=N/O)c2ccc(OCc3cccc(C)c3)cc2)cc1 (3D coordinates assigned)
COc1ccc([C@@H]2O[C@H]2/C(=N/O)c2ccc(OCc3cccc(C)c3)cc2)cc1 (nonaromatic ring conformer: 387.749807415874 kcal/mol)

>  <smiles>  (40) 
COc1ccc(C2OC2C(=NO)c2ccc(OCc3cccc(C)c3)cc2)cc1

>  <score_type>  (40) 
oracle

>  <origin>  (40) 
adg

>  <m_score__min__energy>  (40) 
-8.9399999999999995

>  <m_primary>  (40) 
energy

$$$$
40:0
     RDKit          3D

 43 45  0  0  0  0  0  0  0  0999 V2000
   52.8710   23.1370   45.5460 N   0  0  0  0  0  0  0  0  0  0  0  0
   53.8880   23.6780   45.4350 C   0  0  0  0  0  0  0  0  0  0  0  0
   55.1510   24.3490   45.2980 C   0  0  0  0  0  0  0  0  0  0  0  0
   56.1600   23.9870   44.4330 C   0  0  0  0  0  0  0  0  0  0  0  0
   57.1700   24.9030   44.6400 C   0  0  0  0  0  0  0  0  0  0  0  0
   56.7090   25.7660   45.6240 C   0  0  0  0  0  0  0  0  0  0  0  0
   57.4260   26.9280   46.2020 C   0  0  0  0  0  0  0  0  0  0  0  0
   58.2240   26.8010   47.3520 C   0  0  0  0  0  0  0  0  0  0  0  0
   58.8890   27.9120   47.8790 C   0  0  0  0  0  0  0  0  0  0  0  0
   58.7690   29.1700   47.2770 C   0  0  0  0  0  0  0  0  0  0  0  0
   59.4600   30.2450   47.8630 O   0  0  0  0  0  0  0  0  0  0  0  0
   58.9780   31.1090   48.8950 C   0  0  0  0  0  0  0  0  0  0  0  0
   58.8090   32.5540   48.3860 C   0  0  0  0  0  0  0  0  0  0  0  0
   59.0890   32.7130   46.9360 N   0  0  0  0  0  0  0  0  0  0  0  0
   57.8280   33.0500   46.2210 C   0  0  0  0  0  0  0  0  0  0  0  0
   58.1030   33.6280   44.8290 C   0  0  0  0  0  0  0  0  0  0  0  0
   58.8800   34.9510   44.9240 C   0  0  0  0  0  0  0  0  0  0  0  0
   59.6920   35.0670   46.2240 C   0  0  0  0  0  0  0  0  0  0  0  0
   60.1940   33.6900   46.6860 C   0  0  0  0  0  0  0  0  0  0  0  0
   57.9760   29.2980   46.1200 C   0  0  0  0  0  0  0  0  0  0  0  0
   57.3110   28.1880   45.5940 C   0  0  0  0  0  0  0  0  0  0  0  0
   55.4990   25.4050   45.9930 O   0  0  0  0  0  0  0  0  0  0  0  0
   56.1602   23.1445   43.7258 H   0  0  0  0  0  0  0  0  0  0  0  0
   58.1433   24.9416   44.1289 H   0  0  0  0  0  0  0  0  0  0  0  0
   58.3260   25.8208   47.8407 H   0  0  0  0  0  0  0  0  0  0  0  0
   59.5137   27.7963   48.7770 H   0  0  0  0  0  0  0  0  0  0  0  0
   58.0043   30.7374   49.2470 H   0  0  0  0  0  0  0  0  0  0  0  0
   59.7131   31.1142   49.7133 H   0  0  0  0  0  0  0  0  0  0  0  0
   57.7728   32.8702   48.5763 H   0  0  0  0  0  0  0  0  0  0  0  0
   59.5422   33.1723   48.9246 H   0  0  0  0  0  0  0  0  0  0  0  0
   59.3930   31.7880   46.5570 H   0  0  0  0  0  0  0  0  0  0  0  0
   57.2235   32.1372   46.1149 H   0  0  0  0  0  0  0  0  0  0  0  0
   57.2934   33.8108   46.8087 H   0  0  0  0  0  0  0  0  0  0  0  0
   58.6951   32.9042   44.2498 H   0  0  0  0  0  0  0  0  0  0  0  0
   57.1399   33.8226   44.3345 H   0  0  0  0  0  0  0  0  0  0  0  0
   59.5705   35.0162   44.0702 H   0  0  0  0  0  0  0  0  0  0  0  0
   58.1459   35.7701   44.9153 H   0  0  0  0  0  0  0  0  0  0  0  0
   60.5562   35.7250   46.0505 H   0  0  0  0  0  0  0  0  0  0  0  0
   59.0411   35.4830   47.0072 H   0  0  0  0  0  0  0  0  0  0  0  0
   60.8541   33.2795   45.9078 H   0  0  0  0  0  0  0  0  0  0  0  0
   60.7216   33.8377   47.6399 H   0  0  0  0  0  0  0  0  0  0  0  0
   57.8799   30.2772   45.6281 H   0  0  0  0  0  0  0  0  0  0  0  0
   56.6902   28.3025   44.6932 H   0  0  0  0  0  0  0  0  0  0  0  0
  1  2  3  0
  2  3  1  0
  3  4  2  0
  4  5  1  0
  5  6  2  0
  6  7  1  0
  7  8  2  0
  8  9  1  0
  9 10  2  0
 10 11  1  0
 11 12  1  0
 12 13  1  0
 13 14  1  0
 14 15  1  0
 15 16  1  0
 16 17  1  0
 17 18  1  0
 18 19  1  0
 10 20  1  0
 20 21  2  0
  6 22  1  0
 22  3  1  0
 21  7  1  0
 19 14  1  0
  4 23  1  0
  5 24  1  0
  8 25  1  0
  9 26  1  0
 12 27  1  0
 12 28  1  0
 13 29  1  0
 13 30  1  0
 14 31  1  0
 15 32  1  0
 15 33  1  0
 16 34  1  0
 16 35  1  0
 17 36  1  0
 17 37  1  0
 18 38  1  0
 18 39  1  0
 19 40  1  0
 19 41  1  0
 20 42  1  0
 21 43  1  0
M  CHG  1  14   1
M  END
>  <UniqueID>  (41) 
39

>  <SMILES>  (41) 
N#Cc1ccc(-c2ccc(OCC[NH+]3CCCCC3)cc2)o1

>  <Energy>  (41) 
80.23836445728894

>  <Genealogy>  (41) 
N#Cc1ccc(-c2ccc(OCC[NH+]3CCCCC3)cc2)o1 (protonated)
N#Cc1ccc(-c2ccc(OCC[NH+]3CCCCC3)cc2)o1 (3D coordinates assigned)
N#Cc1ccc(-c2ccc(OCC[NH+]3CCCCC3)cc2)o1 (nonaromatic ring conformer: 80.23836445728894 kcal/mol)

>  <smiles>  (41) 
N#Cc1ccc(-c2ccc(OCCN3CCCCC3)cc2)o1

>  <score_type>  (41) 
oracle

>  <origin>  (41) 
adg

>  <m_score__min__energy>  (41) 
-5.2599999999999998

>  <m_primary>  (41) 
energy

$$$$
41:0
     RDKit          3D

 70 71  0  0  0  0  0  0  0  0999 V2000
   61.4620   30.5640   48.8030 C   0  0  0  0  0  0  0  0  0  0  0  0
   62.3800   30.9350   49.9870 C   0  0  0  0  0  0  0  0  0  0  0  0
   63.3470   32.0350   49.6390 N   0  0  0  0  0  0  0  0  0  0  0  0
   64.5890   31.9520   50.4490 C   0  0  0  0  0  0  0  0  0  0  0  0
   65.5910   33.0690   50.0990 C   0  0  0  0  0  0  0  0  0  0  0  0
   63.6960   31.9940   48.1800 C   0  0  0  0  0  0  0  0  0  0  0  0
   63.6040   33.3870   47.5080 C   0  0  0  0  0  0  0  0  0  0  0  0
   62.7110   34.2550   48.2090 O   0  0  0  0  0  0  0  0  0  0  0  0
   61.3740   33.9450   48.4930 C   0  0  0  0  0  0  0  0  0  0  0  0
   60.9950   33.9890   49.7030 O   0  0  0  0  0  0  0  0  0  0  0  0
   60.4010   33.6850   47.3720 C   0  0  0  0  0  0  0  0  0  0  0  0
   60.0330   35.0130   46.6850 C   0  0  0  0  0  0  0  0  0  0  0  0
   59.0360   34.8180   45.5150 C   0  0  0  0  0  0  0  0  0  0  0  0
   58.3910   33.4800   45.5520 N   0  0  0  0  0  0  0  0  0  0  0  0
   57.3820   33.2660   44.5060 C   0  0  0  0  0  0  0  0  0  0  0  0
   57.7140   32.1070   43.5940 C   0  0  0  0  0  0  0  0  0  0  0  0
   57.7300   32.2860   42.3430 O   0  0  0  0  0  0  0  0  0  0  0  0
   58.0490   30.7840   44.1510 C   0  0  0  0  0  0  0  0  0  0  0  0
   58.9920   30.5440   45.1280 C   0  0  0  0  0  0  0  0  0  0  0  0
   58.8470   29.2060   45.4750 C   0  0  0  0  0  0  0  0  0  0  0  0
   59.6090   28.5260   46.5820 C   0  0  0  0  0  0  0  0  0  0  0  0
   57.8920   28.6240   44.7170 N   0  0  0  0  0  0  0  0  0  0  0  0
   57.3980   27.2400   44.8510 C   0  0  0  0  0  0  0  0  0  0  0  0
   56.6950   27.0340   46.1980 C   0  0  0  0  0  0  0  0  0  0  0  0
   55.3930   26.5100   45.9780 O   0  0  0  0  0  0  0  0  0  0  0  0
   55.4970   25.1540   45.5900 C   0  0  0  0  0  0  0  0  0  0  0  0
   57.4090   29.5880   43.8970 C   0  0  0  0  0  0  0  0  0  0  0  0
   56.3440   29.4010   42.8570 C   0  0  0  0  0  0  0  0  0  0  0  0
   57.9330   33.1300   46.9170 C   0  0  0  0  0  0  0  0  0  0  0  0
   59.1260   32.9300   47.8600 C   0  0  0  0  0  0  0  0  0  0  0  0
   60.5063   30.1778   49.1870 H   0  0  0  0  0  0  0  0  0  0  0  0
   61.2762   31.4576   48.1891 H   0  0  0  0  0  0  0  0  0  0  0  0
   61.9493   29.7922   48.1891 H   0  0  0  0  0  0  0  0  0  0  0  0
   61.7545   31.2673   50.8286 H   0  0  0  0  0  0  0  0  0  0  0  0
   62.9668   30.0424   50.2496 H   0  0  0  0  0  0  0  0  0  0  0  0
   62.9190   32.9740   49.8200 H   0  0  0  0  0  0  0  0  0  0  0  0
   64.3235   32.0356   51.5132 H   0  0  0  0  0  0  0  0  0  0  0  0
   65.0701   30.9874   50.2296 H   0  0  0  0  0  0  0  0  0  0  0  0
   65.9867   33.5102   51.0257 H   0  0  0  0  0  0  0  0  0  0  0  0
   66.4194   32.6474   49.5107 H   0  0  0  0  0  0  0  0  0  0  0  0
   65.0822   33.8469   49.5107 H   0  0  0  0  0  0  0  0  0  0  0  0
   64.7244   31.6185   48.0738 H   0  0  0  0  0  0  0  0  0  0  0  0
   62.9707   31.3341   47.6815 H   0  0  0  0  0  0  0  0  0  0  0  0
   64.6052   33.8423   47.4933 H   0  0  0  0  0  0  0  0  0  0  0  0
   63.2177   33.2500   46.4872 H   0  0  0  0  0  0  0  0  0  0  0  0
   60.8924   33.0256   46.6414 H   0  0  0  0  0  0  0  0  0  0  0  0
   59.5766   35.6812   47.4301 H   0  0  0  0  0  0  0  0  0  0  0  0
   60.9567   35.4423   46.2697 H   0  0  0  0  0  0  0  0  0  0  0  0
   58.2557   35.5906   45.5805 H   0  0  0  0  0  0  0  0  0  0  0  0
   59.5973   34.8992   44.5725 H   0  0  0  0  0  0  0  0  0  0  0  0
   56.4138   33.0664   44.9884 H   0  0  0  0  0  0  0  0  0  0  0  0
   57.3523   34.1744   43.8864 H   0  0  0  0  0  0  0  0  0  0  0  0
   59.7111   31.2635   45.5466 H   0  0  0  0  0  0  0  0  0  0  0  0
   59.2258   28.8680   47.5547 H   0  0  0  0  0  0  0  0  0  0  0  0
   59.4809   27.4366   46.4999 H   0  0  0  0  0  0  0  0  0  0  0  0
   60.6769   28.7768   46.4999 H   0  0  0  0  0  0  0  0  0  0  0  0
   56.6862   27.0321   44.0385 H   0  0  0  0  0  0  0  0  0  0  0  0
   58.2570   26.5551   44.7963 H   0  0  0  0  0  0  0  0  0  0  0  0
   57.2755   26.3283   46.8103 H   0  0  0  0  0  0  0  0  0  0  0  0
   56.6183   27.9979   46.7225 H   0  0  0  0  0  0  0  0  0  0  0  0
   55.5457   24.5187   46.4867 H   0  0  0  0  0  0  0  0  0  0  0  0
   54.6176   24.8756   44.9908 H   0  0  0  0  0  0  0  0  0  0  0  0
   56.4086   25.0130   44.9908 H   0  0  0  0  0  0  0  0  0  0  0  0
   55.3756   29.2310   43.3503 H   0  0  0  0  0  0  0  0  0  0  0  0
   56.2824   30.3021   42.2291 H   0  0  0  0  0  0  0  0  0  0  0  0
   56.5931   28.5328   42.2291 H   0  0  0  0  0  0  0  0  0  0  0  0
   57.3003   33.9424   47.3040 H   0  0  0  0  0  0  0  0  0  0  0  0
   57.3635   32.1903   46.8665 H   0  0  0  0  0  0  0  0  0  0  0  0
   58.8542   33.3038   48.8582 H   0  0  0  0  0  0  0  0  0  0  0  0
   59.3599   31.8554   47.8827 H   0  0  0  0  0  0  0  0  0  0  0  0
  1  2  1  0
  2  3  1  0
  3  4  1  0
  4  5  1  0
  3  6  1  0
  6  7  1  0
  7  8  1  0
  8  9  1  0
  9 10  2  0
  9 11  1  0
 11 12  1  0
 12 13  1  0
 13 14  1  0
 14 15  1  0
 15 16  1  0
 16 17  2  0
 16 18  1  0
 18 19  1  0
 19 20  2  0
 20 21  1  0
 20 22  1  0
 22 23  1  0
 23 24  1  0
 24 25  1  0
 25 26  1  0
 22 27  1  0
 27 28  1  0
 14 29  1  0
 29 30  1  0
 30 11  1  0
 27 18  2  0
  1 31  1  0
  1 32  1  0
  1 33  1  0
  2 34  1  0
  2 35  1  0
  3 36  1  0
  4 37  1  0
  4 38  1  0
  5 39  1  0
  5 40  1  0
  5 41  1  0
  6 42  1  0
  6 43  1  0
  7 44  1  0
  7 45  1  0
 11 46  1  0
 12 47  1  0
 12 48  1  0
 13 49  1  0
 13 50  1  0
 15 51  1  0
 15 52  1  0
 19 53  1  0
 21 54  1  0
 21 55  1  0
 21 56  1  0
 23 57  1  0
 23 58  1  0
 24 59  1  0
 24 60  1  0
 26 61  1  0
 26 62  1  0
 26 63  1  0
 28 64  1  0
 28 65  1  0
 28 66  1  0
 29 67  1  0
 29 68  1  0
 30 69  1  0
 30 70  1  0
M  CHG  1   3   1
M  END
>  <UniqueID>  (42) 
40

>  <SMILES>  (42) 
CC[NH+](CC)CCOC(=O)C1CCN(CC(=O)c2cc(C)n(CCOC)c2C)CC1

>  <Energy>  (42) 
113.65129243143724

>  <Genealogy>  (42) 
CC[NH+](CC)CCOC(=O)C1CCN(CC(=O)c2cc(C)n(CCOC)c2C)CC1 (protonated)
CC[NH+](CC)CCOC(=O)C1CCN(CC(=O)c2cc(C)n(CCOC)c2C)CC1 (3D coordinates assigned)
CC[NH+](CC)CCOC(=O)C1CCN(CC(=O)c2cc(C)n(CCOC)c2C)CC1 (nonaromatic ring conformer: 113.65129243143724 kcal/mol)

>  <smiles>  (42) 
CCN(CC)CCOC(=O)C1CCN(CC(=O)c2cc(C)n(CCOC)c2C)CC1

>  <score_type>  (42) 
oracle

>  <origin>  (42) 
adg

>  <m_score__min__energy>  (42) 
-6.4400000000000004

>  <m_primary>  (42) 
energy

$$$$
42:0
     RDKit          3D

 32 34  0  0  0  0  0  0  0  0999 V2000
   55.0870   26.1670   45.9990 N   0  0  0  0  0  0  0  0  0  0  0  0
   56.8120   26.1060   46.0980 S   0  0  0  0  0  0  0  0  0  0  0  0
   57.2170   25.4820   47.4030 O   0  0  0  0  0  0  0  0  0  0  0  0
   57.3310   25.2700   44.9620 O   0  0  0  0  0  0  0  0  0  0  0  0
   57.4760   27.7340   45.9980 C   0  0  0  0  0  0  0  0  0  0  0  0
   58.6940   28.0400   46.6220 C   0  0  0  0  0  0  0  0  0  0  0  0
   59.2200   29.3340   46.5510 C   0  0  0  0  0  0  0  0  0  0  0  0
   58.5260   30.3350   45.8560 C   0  0  0  0  0  0  0  0  0  0  0  0
   59.0270   31.6400   45.7690 C   0  0  0  0  0  0  0  0  0  0  0  0
   58.3040   32.6160   45.0750 C   0  0  0  0  0  0  0  0  0  0  0  0
   58.9280   34.2930   44.9640 S   0  0  0  0  0  0  0  0  0  0  0  0
   59.9030   34.1280   46.4600 C   0  0  0  0  0  0  0  0  0  0  0  0
   61.2710   33.8370   46.3770 C   0  0  0  0  0  0  0  0  0  0  0  0
   62.0320   33.7140   47.5440 C   0  0  0  0  0  0  0  0  0  0  0  0
   61.4270   33.8780   48.7950 C   0  0  0  0  0  0  0  0  0  0  0  0
   60.0610   34.1650   48.8780 C   0  0  0  0  0  0  0  0  0  0  0  0
   59.2990   34.2880   47.7130 C   0  0  0  0  0  0  0  0  0  0  0  0
   57.0920   32.2710   44.4700 C   0  0  0  0  0  0  0  0  0  0  0  0
   56.6180   31.0010   44.5610 N   0  0  0  0  0  0  0  0  0  0  0  0
   57.2960   30.0320   45.2320 C   0  0  0  0  0  0  0  0  0  0  0  0
   56.7760   28.7340   45.3080 C   0  0  0  0  0  0  0  0  0  0  0  0
   54.7920   27.0870   46.3980 H   0  0  0  0  0  0  0  0  0  0  0  0
   59.2390   27.2577   47.1706 H   0  0  0  0  0  0  0  0  0  0  0  0
   60.1775   29.5664   47.0400 H   0  0  0  0  0  0  0  0  0  0  0  0
   59.9852   31.8965   46.2445 H   0  0  0  0  0  0  0  0  0  0  0  0
   61.7466   33.7053   45.3939 H   0  0  0  0  0  0  0  0  0  0  0  0
   63.1066   33.4882   47.4784 H   0  0  0  0  0  0  0  0  0  0  0  0
   62.0257   33.7812   49.7127 H   0  0  0  0  0  0  0  0  0  0  0  0
   59.5856   34.2941   49.8615 H   0  0  0  0  0  0  0  0  0  0  0  0
   58.2239   34.5107   47.7804 H   0  0  0  0  0  0  0  0  0  0  0  0
   56.5196   33.0310   43.9179 H   0  0  0  0  0  0  0  0  0  0  0  0
   55.8161   28.4983   44.8252 H   0  0  0  0  0  0  0  0  0  0  0  0
  1  2  1  0
  2  3  2  0
  2  4  2  0
  2  5  1  0
  5  6  2  0
  6  7  1  0
  7  8  2  0
  8  9  1  0
  9 10  2  0
 10 11  1  0
 11 12  1  0
 12 13  2  0
 13 14  1  0
 14 15  2  0
 15 16  1  0
 16 17  2  0
 10 18  1  0
 18 19  2  0
 19 20  1  0
 20 21  2  0
 21  5  1  0
 20  8  1  0
 17 12  1  0
  1 22  1  0
  6 23  1  0
  7 24  1  0
  9 25  1  0
 13 26  1  0
 14 27  1  0
 15 28  1  0
 16 29  1  0
 17 30  1  0
 18 31  1  0
 21 32  1  0
M  CHG  1   1  -1
M  END
>  <UniqueID>  (43) 
41

>  <SMILES>  (43) 
[NH-]S(=O)(=O)c1ccc2cc(Sc3ccccc3)cnc2c1

>  <Energy>  (43) 
33.08585581146193

>  <Genealogy>  (43) 
[NH-]S(=O)(=O)c1ccc2cc(Sc3ccccc3)cnc2c1 (protonated)
[NH-]S(=O)(=O)c1ccc2cc(Sc3ccccc3)cnc2c1 (3D coordinates assigned)
[NH-]S(=O)(=O)c1ccc2cc(Sc3ccccc3)cnc2c1 (optimized conformer: 33.08585581146193 kcal/mol)

>  <smiles>  (43) 
NS(=O)(=O)c1ccc2cc(Sc3ccccc3)cnc2c1

>  <score_type>  (43) 
oracle

>  <origin>  (43) 
adg

>  <m_score__min__energy>  (43) 
-11.77

>  <m_primary>  (43) 
energy

$$$$
43:0
     RDKit          3D

 49 52  0  0  0  0  0  0  0  0999 V2000
   60.0250   29.3110   49.1970 C   0  0  0  0  0  0  0  0  0  0  0  0
   60.8230   30.4900   49.1440 O   0  0  0  0  0  0  0  0  0  0  0  0
   60.5130   31.6220   48.3760 C   0  0  0  0  0  0  0  0  0  0  0  0
   61.3660   32.1080   47.3700 C   0  0  0  0  0  0  0  0  0  0  0  0
   60.9920   33.2140   46.6020 C   0  0  0  0  0  0  0  0  0  0  0  0
   59.7520   33.8390   46.8090 C   0  0  0  0  0  0  0  0  0  0  0  0
   59.3090   34.9870   45.9290 C   0  0  0  0  0  0  0  0  0  0  0  0
   58.3580   34.5870   44.8670 N   0  0  0  0  0  0  0  0  0  0  0  0
   56.9950   34.2280   45.3200 C   0  0  0  0  0  0  0  0  0  0  0  0
   56.8360   32.7220   45.6140 C   0  0  0  0  0  0  0  0  0  0  0  0
   57.6840   31.9060   44.7370 N   0  0  0  0  0  0  0  0  0  0  0  0
   58.0770   30.5720   45.1410 C   0  0  0  0  0  0  0  0  0  0  0  0
   59.3810   30.2940   45.3280 C   0  0  0  0  0  0  0  0  0  0  0  0
   59.8470   28.9340   45.6480 C   0  0  0  0  0  0  0  0  0  0  0  0
   61.0780   28.7320   45.8320 O   0  0  0  0  0  0  0  0  0  0  0  0
   58.8780   27.8230   45.7350 C   0  0  0  0  0  0  0  0  0  0  0  0
   59.3010   26.5050   45.9850 C   0  0  0  0  0  0  0  0  0  0  0  0
   58.3680   25.4680   46.0500 C   0  0  0  0  0  0  0  0  0  0  0  0
   57.0090   25.7350   45.8690 C   0  0  0  0  0  0  0  0  0  0  0  0
   56.5780   27.0410   45.6230 C   0  0  0  0  0  0  0  0  0  0  0  0
   57.5080   28.0940   45.5550 C   0  0  0  0  0  0  0  0  0  0  0  0
   57.0700   29.4820   45.2770 C   0  0  0  0  0  0  0  0  0  0  0  0
   55.8440   29.7280   45.1280 O   0  0  0  0  0  0  0  0  0  0  0  0
   58.1200   32.5000   43.4740 C   0  0  0  0  0  0  0  0  0  0  0  0
   58.9270   33.7710   43.7650 C   0  0  0  0  0  0  0  0  0  0  0  0
   58.9320   33.3910   47.8570 C   0  0  0  0  0  0  0  0  0  0  0  0
   59.3060   32.2850   48.6260 C   0  0  0  0  0  0  0  0  0  0  0  0
   59.8412   29.0395   50.2470 H   0  0  0  0  0  0  0  0  0  0  0  0
   59.0650   29.4950   48.6925 H   0  0  0  0  0  0  0  0  0  0  0  0
   60.5526   28.4882   48.6925 H   0  0  0  0  0  0  0  0  0  0  0  0
   62.3323   31.6155   47.1864 H   0  0  0  0  0  0  0  0  0  0  0  0
   61.6744   33.5978   45.8294 H   0  0  0  0  0  0  0  0  0  0  0  0
   58.8242   35.7441   46.5629 H   0  0  0  0  0  0  0  0  0  0  0  0
   60.2081   35.3747   45.4276 H   0  0  0  0  0  0  0  0  0  0  0  0
   56.7712   34.7902   46.2386 H   0  0  0  0  0  0  0  0  0  0  0  0
   56.3000   34.4800   44.5055 H   0  0  0  0  0  0  0  0  0  0  0  0
   57.1172   32.5312   46.6602 H   0  0  0  0  0  0  0  0  0  0  0  0
   55.7871   32.4455   45.4315 H   0  0  0  0  0  0  0  0  0  0  0  0
   60.1188   31.1051   45.2393 H   0  0  0  0  0  0  0  0  0  0  0  0
   60.3701   26.2905   46.1298 H   0  0  0  0  0  0  0  0  0  0  0  0
   58.7040   24.4387   46.2441 H   0  0  0  0  0  0  0  0  0  0  0  0
   56.2769   24.9156   45.9202 H   0  0  0  0  0  0  0  0  0  0  0  0
   55.5066   27.2467   45.4819 H   0  0  0  0  0  0  0  0  0  0  0  0
   58.7493   31.7819   42.9279 H   0  0  0  0  0  0  0  0  0  0  0  0
   57.2414   32.7528   42.8624 H   0  0  0  0  0  0  0  0  0  0  0  0
   59.9515   33.4792   44.0394 H   0  0  0  0  0  0  0  0  0  0  0  0
   58.9023   34.3887   42.8552 H   0  0  0  0  0  0  0  0  0  0  0  0
   57.9889   33.9138   48.0744 H   0  0  0  0  0  0  0  0  0  0  0  0
   58.6469   31.9333   49.4334 H   0  0  0  0  0  0  0  0  0  0  0  0
  1  2  1  0
  2  3  1  0
  3  4  2  0
  4  5  1  0
  5  6  2  0
  6  7  1  0
  7  8  1  0
  8  9  1  0
  9 10  1  0
 10 11  1  0
 11 12  1  0
 12 13  2  0
 13 14  1  0
 14 15  2  0
 14 16  1  0
 16 17  2  0
 17 18  1  0
 18 19  2  0
 19 20  1  0
 20 21  2  0
 21 22  1  0
 22 23  2  0
 11 24  1  0
 24 25  1  0
  6 26  1  0
 26 27  2  0
 27  3  1  0
 25  8  1  0
 22 12  1  0
 21 16  1  0
  1 28  1  0
  1 29  1  0
  1 30  1  0
  4 31  1  0
  5 32  1  0
  7 33  1  0
  7 34  1  0
  9 35  1  0
  9 36  1  0
 10 37  1  0
 10 38  1  0
 13 39  1  0
 17 40  1  0
 18 41  1  0
 19 42  1  0
 20 43  1  0
 24 44  1  0
 24 45  1  0
 25 46  1  0
 25 47  1  0
 26 48  1  0
 27 49  1  0
M  END
>  <UniqueID>  (44) 
42

>  <SMILES>  (44) 
COc1ccc(CN2CCN(C3=CC(=O)c4ccccc4C3=O)CC2)cc1

>  <Energy>  (44) 
66.6462663817835

>  <Genealogy>  (44) 
COc1ccc(CN2CCN(C3=CC(=O)c4ccccc4C3=O)CC2)cc1 (3D coordinates assigned)
COc1ccc(CN2CCN(C3=CC(=O)c4ccccc4C3=O)CC2)cc1 (nonaromatic ring conformer: 66.6462663817835 kcal/mol)

>  <smiles>  (44) 
COc1ccc(CN2CCN(C3=CC(=O)c4ccccc4C3=O)CC2)cc1

>  <score_type>  (44) 
oracle

>  <origin>  (44) 
adg

>  <m_score__min__energy>  (44) 
-9.3100000000000005

>  <m_primary>  (44) 
energy

$$$$
44:0
     RDKit          3D

 42 44  0  0  0  0  0  0  0  0999 V2000
   57.9080   31.9460   42.4550 C   0  0  0  0  0  0  0  0  0  0  0  0
   56.9530   31.1810   43.3750 C   0  0  0  0  0  0  0  0  0  0  0  0
   57.6040   30.8530   44.6700 N   0  0  0  0  0  0  0  0  0  0  0  0
   57.8790   31.8600   45.5840 C   0  0  0  0  0  0  0  0  0  0  0  0
   57.5000   33.3180   45.3600 C   0  0  0  0  0  0  0  0  0  0  0  0
   58.5090   34.0240   44.5580 N   0  0  0  0  0  0  0  0  0  0  0  0
   59.2270   35.0630   45.3180 C   0  0  0  0  0  0  0  0  0  0  0  0
   59.8810   34.5150   46.5640 C   0  0  0  0  0  0  0  0  0  0  0  0
   59.2760   34.6890   47.8210 C   0  0  0  0  0  0  0  0  0  0  0  0
   59.8920   34.1920   48.9730 C   0  0  0  0  0  0  0  0  0  0  0  0
   61.1130   33.5180   48.8810 C   0  0  0  0  0  0  0  0  0  0  0  0
   61.7200   33.3380   47.6340 C   0  0  0  0  0  0  0  0  0  0  0  0
   63.3870   32.4150   47.5090 Br  0  0  0  0  0  0  0  0  0  0  0  0
   61.1070   33.8330   46.4790 C   0  0  0  0  0  0  0  0  0  0  0  0
   58.5180   31.5610   46.7950 C   0  0  0  0  0  0  0  0  0  0  0  0
   58.8880   30.2630   47.0970 C   0  0  0  0  0  0  0  0  0  0  0  0
   59.4650   30.0290   48.1950 O   0  0  0  0  0  0  0  0  0  0  0  0
   58.6180   29.2340   46.1890 C   0  0  0  0  0  0  0  0  0  0  0  0
   58.9870   27.9070   46.4870 C   0  0  0  0  0  0  0  0  0  0  0  0
   58.7190   26.8770   45.5880 C   0  0  0  0  0  0  0  0  0  0  0  0
   59.1850   25.2300   45.9730 Cl  0  0  0  0  0  0  0  0  0  0  0  0
   58.0810   27.1570   44.3850 C   0  0  0  0  0  0  0  0  0  0  0  0
   57.7080   28.4650   44.0700 C   0  0  0  0  0  0  0  0  0  0  0  0
   57.9660   29.5400   44.9610 C   0  0  0  0  0  0  0  0  0  0  0  0
   58.6232   32.5189   43.0636 H   0  0  0  0  0  0  0  0  0  0  0  0
   58.4550   31.2334   41.8202 H   0  0  0  0  0  0  0  0  0  0  0  0
   57.3320   32.6354   41.8202 H   0  0  0  0  0  0  0  0  0  0  0  0
   56.0650   31.8013   43.5665 H   0  0  0  0  0  0  0  0  0  0  0  0
   56.6691   30.2410   42.8792 H   0  0  0  0  0  0  0  0  0  0  0  0
   56.5344   33.3588   44.8347 H   0  0  0  0  0  0  0  0  0  0  0  0
   57.4355   33.8106   46.3414 H   0  0  0  0  0  0  0  0  0  0  0  0
   58.0360   34.4600   43.7330 H   0  0  0  0  0  0  0  0  0  0  0  0
   60.0044   35.4988   44.6732 H   0  0  0  0  0  0  0  0  0  0  0  0
   58.4918   35.8195   45.6296 H   0  0  0  0  0  0  0  0  0  0  0  0
   58.3147   35.2180   47.8982 H   0  0  0  0  0  0  0  0  0  0  0  0
   59.4148   34.3316   49.9542 H   0  0  0  0  0  0  0  0  0  0  0  0
   61.5965   33.1292   49.7893 H   0  0  0  0  0  0  0  0  0  0  0  0
   61.5863   33.6881   45.4996 H   0  0  0  0  0  0  0  0  0  0  0  0
   58.7275   32.3675   47.5131 H   0  0  0  0  0  0  0  0  0  0  0  0
   59.4914   27.6823   47.4384 H   0  0  0  0  0  0  0  0  0  0  0  0
   57.8687   26.3427   43.6767 H   0  0  0  0  0  0  0  0  0  0  0  0
   57.2045   28.6666   43.1130 H   0  0  0  0  0  0  0  0  0  0  0  0
  1  2  1  0
  2  3  1  0
  3  4  1  0
  4  5  1  0
  5  6  1  0
  6  7  1  0
  7  8  1  0
  8  9  2  0
  9 10  1  0
 10 11  2  0
 11 12  1  0
 12 13  1  0
 12 14  2  0
  4 15  2  0
 15 16  1  0
 16 17  2  0
 16 18  1  0
 18 19  2  0
 19 20  1  0
 20 21  1  0
 20 22  2  0
 22 23  1  0
 23 24  2  0
 24  3  1  0
 14  8  1  0
 24 18  1  0
  1 25  1  0
  1 26  1  0
  1 27  1  0
  2 28  1  0
  2 29  1  0
  5 30  1  0
  5 31  1  0
  6 32  1  0
  7 33  1  0
  7 34  1  0
  9 35  1  0
 10 36  1  0
 11 37  1  0
 14 38  1  0
 15 39  1  0
 19 40  1  0
 22 41  1  0
 23 42  1  0
M  END
>  <UniqueID>  (45) 
43

>  <SMILES>  (45) 
CCn1c(CNCc2cccc(Br)c2)cc(=O)c2cc(Cl)ccc21

>  <Energy>  (45) 
56.59696036776046

>  <Genealogy>  (45) 
CCn1c(CNCc2cccc(Br)c2)cc(=O)c2cc(Cl)ccc21 (3D coordinates assigned)
CCn1c(CNCc2cccc(Br)c2)cc(=O)c2cc(Cl)ccc21 (optimized conformer: 56.59696036776046 kcal/mol)

>  <smiles>  (45) 
CCn1c(CNCc2cccc(Br)c2)cc(=O)c2cc(Cl)ccc21

>  <score_type>  (45) 
oracle

>  <origin>  (45) 
adg

>  <m_score__min__energy>  (45) 
-8.4000000000000004

>  <m_primary>  (45) 
energy

$$$$
