0:0
     RDKit          3D

 42 44  0  0  0  0  0  0  0  0999 V2000
   62.3417   33.6390   50.4558 H   0  0  0  0  0  0  0  0  0  0  0  0
   62.3450   33.6910   49.3570 C   0  0  0  0  0  0  0  0  0  0  0  0
   61.2190   34.1650   48.6780 C   0  0  0  0  0  0  0  0  0  0  0  0
   60.3358   34.4929   49.2458 H   0  0  0  0  0  0  0  0  0  0  0  0
   61.2090   34.2250   47.2730 C   0  0  0  0  0  0  0  0  0  0  0  0
   60.0190   34.7370   46.5550 C   0  0  0  0  0  0  0  0  0  0  0  0
   59.9280   35.9710   46.3070 O   0  0  0  0  0  0  0  0  0  0  0  0
   58.9770   33.8510   46.1090 N   0  0  0  0  0  0  0  0  0  0  0  0
   58.3610   34.0840   44.7950 C   0  0  0  0  0  0  0  0  0  0  0  0
   59.1544   34.1564   44.0366 H   0  0  0  0  0  0  0  0  0  0  0  0
   57.7813   35.0174   44.8474 H   0  0  0  0  0  0  0  0  0  0  0  0
   57.4050   32.9460   44.4090 C   0  0  0  0  0  0  0  0  0  0  0  0
   57.2558   32.9483   43.3192 H   0  0  0  0  0  0  0  0  0  0  0  0
   56.4400   33.0948   44.9156 H   0  0  0  0  0  0  0  0  0  0  0  0
   58.0020   31.5950   44.8400 C   0  0  0  0  0  0  0  0  0  0  0  0
   59.0033   31.5190   44.3910 H   0  0  0  0  0  0  0  0  0  0  0  0
   57.1740   30.4390   44.3300 C   0  0  0  0  0  0  0  0  0  0  0  0
   55.9270   30.4370   44.5100 O   0  0  0  0  0  0  0  0  0  0  0  0
   57.7990   29.2600   43.8050 N   0  0  0  0  0  0  0  0  0  0  0  0
   58.3250   28.2830   44.4900 C   0  0  0  0  0  0  0  0  0  0  0  0
   59.4990   28.5290   45.2140 C   0  0  0  0  0  0  0  0  0  0  0  0
   59.9588   29.5281   45.1982 H   0  0  0  0  0  0  0  0  0  0  0  0
   60.0820   27.5010   45.9550 C   0  0  0  0  0  0  0  0  0  0  0  0
   61.0093   27.6844   46.5176 H   0  0  0  0  0  0  0  0  0  0  0  0
   59.4870   26.2410   45.9810 C   0  0  0  0  0  0  0  0  0  0  0  0
   59.9443   25.4218   46.5553 H   0  0  0  0  0  0  0  0  0  0  0  0
   58.3040   26.0300   45.2700 C   0  0  0  0  0  0  0  0  0  0  0  0
   57.8212   25.0418   45.2915 H   0  0  0  0  0  0  0  0  0  0  0  0
   57.7450   27.0420   44.5500 N   0  0  0  0  0  0  0  0  0  0  0  0
   56.8390   26.8440   44.0750 H   0  0  0  0  0  0  0  0  0  0  0  0
   58.1520   31.5190   46.3790 C   0  0  0  0  0  0  0  0  0  0  0  0
   59.0158   30.8797   46.6139 H   0  0  0  0  0  0  0  0  0  0  0  0
   57.2114   31.1104   46.7769 H   0  0  0  0  0  0  0  0  0  0  0  0
   58.3670   32.8930   47.0420 C   0  0  0  0  0  0  0  0  0  0  0  0
   59.0287   32.7705   47.9122 H   0  0  0  0  0  0  0  0  0  0  0  0
   57.3863   33.2859   47.3484 H   0  0  0  0  0  0  0  0  0  0  0  0
   62.3560   33.8270   46.5640 C   0  0  0  0  0  0  0  0  0  0  0  0
   62.3686   33.8880   45.4658 H   0  0  0  0  0  0  0  0  0  0  0  0
   63.4810   33.3540   47.2470 C   0  0  0  0  0  0  0  0  0  0  0  0
   64.3719   33.0374   46.6848 H   0  0  0  0  0  0  0  0  0  0  0  0
   63.4750   33.2830   48.6430 C   0  0  0  0  0  0  0  0  0  0  0  0
   64.8880   32.6910   49.4980 Cl  0  0  0  0  0  0  0  0  0  0  0  0
  1  2  1  0
  2  3  2  0
  3  4  1  0
  3  5  1  0
  5  6  1  0
  6  7  2  0
  6  8  1  0
  8  9  1  0
  9 10  1  0
  9 11  1  0
  9 12  1  0
 12 13  1  0
 12 14  1  0
 12 15  1  0
 15 16  1  0
 15 17  1  0
 17 18  2  0
 17 19  1  0
 19 20  2  0
 20 21  1  0
 21 22  1  0
 21 23  2  0
 23 24  1  0
 23 25  1  0
 25 26  1  0
 25 27  2  0
 27 28  1  0
 27 29  1  0
 29 30  1  0
 15 31  1  0
 31 32  1  0
 31 33  1  0
 31 34  1  0
 34 35  1  0
 34 36  1  0
  5 37  2  0
 37 38  1  0
 37 39  1  0
 39 40  1  0
 39 41  2  0
 41 42  1  0
 41  2  1  0
 34  8  1  0
 29 20  1  0
M  END
>  <UniqueID>  (1) 
1

>  <SMILES>  (1) 
O=C(/N=c1/cccc[nH]1)C1CCN(C(=O)c2ccc(Cl)cc2)CC1

>  <Energy>  (1) 
58.766389332919736

>  <Genealogy>  (1) 
O=C(/N=c1/cccc[nH]1)C1CCN(C(=O)c2ccc(Cl)cc2)CC1 (cis-trans isomerization)
O=C(/N=c1/cccc[nH]1)C1CCN(C(=O)c2ccc(Cl)cc2)CC1 (3D coordinates assigned)
O=C(/N=c1/cccc[nH]1)C1CCN(C(=O)c2ccc(Cl)cc2)CC1 (nonaromatic ring conformer: 58.766389332919736 kcal/mol)

>  <smiles>  (1) 
O=C(N=c1cccc[nH]1)C1CCN(C(=O)c2ccc(Cl)cc2)CC1

>  <score_type>  (1) 
oracle

>  <origin>  (1) 
adg

>  <m_score__min__energy>  (1) 
-9.5

>  <m_primary>  (1) 
energy

$$$$
1:0
     RDKit          3D

 33 35  0  0  0  0  0  0  0  0999 V2000
   58.1350   29.1840   46.3940 C   0  0  0  0  0  0  0  0  0  0  0  0
   57.0830   29.9880   45.8710 O   0  0  0  0  0  0  0  0  0  0  0  0
   57.0360   30.4880   44.5590 C   0  0  0  0  0  0  0  0  0  0  0  0
   56.4060   29.7780   43.5170 C   0  0  0  0  0  0  0  0  0  0  0  0
   56.4180   30.2640   42.2470 N   0  0  0  0  0  0  0  0  0  0  0  0
   57.0330   31.4360   41.9400 C   0  0  0  0  0  0  0  0  0  0  0  0
   57.6630   32.1790   42.9350 C   0  0  0  0  0  0  0  0  0  0  0  0
   57.6550   31.7210   44.2610 C   0  0  0  0  0  0  0  0  0  0  0  0
   58.3240   32.5320   45.3050 C   0  0  0  0  0  0  0  0  0  0  0  0
   57.8630   33.8160   45.6420 C   0  0  0  0  0  0  0  0  0  0  0  0
   58.5330   34.5570   46.6180 C   0  0  0  0  0  0  0  0  0  0  0  0
   59.6610   34.0230   47.2430 C   0  0  0  0  0  0  0  0  0  0  0  0
   60.3250   34.7300   48.1940 N   0  0  0  0  0  0  0  0  0  0  0  0
   61.4290   34.2310   48.8110 C   0  0  0  0  0  0  0  0  0  0  0  0
   61.9120   32.9630   48.4740 C   0  0  0  0  0  0  0  0  0  0  0  0
   61.2530   32.2040   47.4940 C   0  0  0  0  0  0  0  0  0  0  0  0
   61.7620   30.8380   47.1250 C   0  0  0  0  0  0  0  0  0  0  0  0
   60.1110   32.7380   46.8710 C   0  0  0  0  0  0  0  0  0  0  0  0
   59.4360   32.0390   45.9180 N   0  0  0  0  0  0  0  0  0  0  0  0
   58.1032   29.2083   47.4933 H   0  0  0  0  0  0  0  0  0  0  0  0
   58.0119   28.1476   46.0464 H   0  0  0  0  0  0  0  0  0  0  0  0
   59.1027   29.5748   46.0464 H   0  0  0  0  0  0  0  0  0  0  0  0
   55.9014   28.8246   43.7325 H   0  0  0  0  0  0  0  0  0  0  0  0
   55.9480   29.7200   41.4880 H   0  0  0  0  0  0  0  0  0  0  0  0
   57.0332   31.7992   40.9017 H   0  0  0  0  0  0  0  0  0  0  0  0
   58.1662   33.1238   42.6817 H   0  0  0  0  0  0  0  0  0  0  0  0
   56.9789   34.2354   45.1396 H   0  0  0  0  0  0  0  0  0  0  0  0
   58.1726   35.5591   46.8935 H   0  0  0  0  0  0  0  0  0  0  0  0
   61.9443   34.8273   49.5784 H   0  0  0  0  0  0  0  0  0  0  0  0
   62.8052   32.5615   48.9750 H   0  0  0  0  0  0  0  0  0  0  0  0
   61.9750   30.2664   48.0404 H   0  0  0  0  0  0  0  0  0  0  0  0
   61.0001   30.3105   46.5323 H   0  0  0  0  0  0  0  0  0  0  0  0
   62.6833   30.9378   46.5323 H   0  0  0  0  0  0  0  0  0  0  0  0
  1  2  1  0
  2  3  1  0
  3  4  2  0
  4  5  1  0
  5  6  2  0
  6  7  1  0
  7  8  2  0
  8  9  1  0
  9 10  2  0
 10 11  1  0
 11 12  2  0
 12 13  1  0
 13 14  2  0
 14 15  1  0
 15 16  2  0
 16 17  1  0
 16 18  1  0
 18 19  2  0
  8  3  1  0
 19  9  1  0
 18 12  1  0
  1 20  1  0
  1 21  1  0
  1 22  1  0
  4 23  1  0
  5 24  1  0
  6 25  1  0
  7 26  1  0
 10 27  1  0
 11 28  1  0
 14 29  1  0
 15 30  1  0
 17 31  1  0
 17 32  1  0
 17 33  1  0
M  CHG  1   5   1
M  END
>  <UniqueID>  (2) 
2

>  <SMILES>  (2) 
COc1c[nH+]ccc1-c1ccc2nccc(C)c2n1

>  <Energy>  (2) 
43.933617121522566

>  <Genealogy>  (2) 
COc1c[nH+]ccc1-c1ccc2nccc(C)c2n1 (protonated)
COc1c[nH+]ccc1-c1ccc2nccc(C)c2n1 (3D coordinates assigned)
COc1c[nH+]ccc1-c1ccc2nccc(C)c2n1 (optimized conformer: 43.933617121522566 kcal/mol)

>  <smiles>  (2) 
COc1cnccc1-c1ccc2nccc(C)c2n1

>  <score_type>  (2) 
oracle

>  <origin>  (2) 
adg

>  <m_score__min__energy>  (2) 
-5.0899999999999999

>  <m_primary>  (2) 
energy

$$$$
2:0
     RDKit          3D

 59 59  0  0  0  0  0  0  0  0999 V2000
   59.0710   33.8330   51.8730 C   0  0  0  0  0  0  0  0  0  0  0  0
   59.7340   33.2440   50.6080 C   0  0  0  0  0  0  0  0  0  0  0  0
   59.6170   31.7530   50.4120 N   0  0  1  0  0  0  0  0  0  0  0  0
   58.9650   31.1540   51.6060 C   0  0  0  0  0  0  0  0  0  0  0  0
   58.8330   31.5030   49.1550 C   0  0  0  0  0  0  0  0  0  0  0  0
   58.5070   32.7310   48.2730 C   0  0  0  0  0  0  0  0  0  0  0  0
   58.1180   32.2670   46.9910 O   0  0  0  0  0  0  0  0  0  0  0  0
   57.9660   33.3080   46.0420 C   0  0  0  0  0  0  0  0  0  0  0  0
   57.5490   32.7450   44.6890 C   0  0  0  0  0  0  0  0  0  0  0  0
   56.9620   31.4800   44.8860 O   0  0  0  0  0  0  0  0  0  0  0  0
   56.6770   30.8600   43.6460 C   0  0  0  0  0  0  0  0  0  0  0  0
   56.6100   29.3420   43.8180 C   0  0  0  0  0  0  0  0  0  0  0  0
   56.2710   29.0160   45.1540 O   0  0  0  0  0  0  0  0  0  0  0  0
   57.0470   27.9260   45.6090 C   0  0  0  0  0  0  0  0  0  0  0  0
   58.2690   28.4440   46.3730 C   0  0  0  0  0  0  0  0  0  0  0  0
   58.2940   29.9090   46.4120 N   0  0  0  0  0  0  0  0  0  0  0  0
   61.0380   31.2570   50.2820 C   0  0  0  0  0  0  0  0  0  0  0  0
   61.9470   31.9990   49.3010 C   0  0  0  0  0  0  0  0  0  0  0  0
   62.7750   32.9950   49.8640 C   0  0  0  0  0  0  0  0  0  0  0  0
   63.6980   33.7020   49.0970 C   0  0  0  0  0  0  0  0  0  0  0  0
   63.7880   33.4600   47.7320 C   0  0  0  0  0  0  0  0  0  0  0  0
   62.9400   32.5280   47.1250 C   0  0  0  0  0  0  0  0  0  0  0  0
   61.9860   31.8010   47.8770 C   0  0  0  0  0  0  0  0  0  0  0  0
   61.1140   30.8960   47.1590 N   0  0  0  0  0  0  0  0  0  0  0  0
   60.8680   29.7450   47.5660 O   0  0  0  0  0  0  0  0  0  0  0  0
   60.4010   31.3480   46.0730 O   0  0  0  0  0  0  0  0  0  0  0  0
   59.5485   33.4088   52.7686 H   0  0  0  0  0  0  0  0  0  0  0  0
   59.1927   34.9262   51.8756 H   0  0  0  0  0  0  0  0  0  0  0  0
   57.9997   33.5833   51.8756 H   0  0  0  0  0  0  0  0  0  0  0  0
   59.2766   33.7316   49.7345 H   0  0  0  0  0  0  0  0  0  0  0  0
   60.8103   33.4352   50.7308 H   0  0  0  0  0  0  0  0  0  0  0  0
   59.4176   31.5698   52.5183 H   0  0  0  0  0  0  0  0  0  0  0  0
   57.8898   31.3858   51.5917 H   0  0  0  0  0  0  0  0  0  0  0  0
   59.1051   30.0630   51.5917 H   0  0  0  0  0  0  0  0  0  0  0  0
   59.4095   30.7965   48.5397 H   0  0  0  0  0  0  0  0  0  0  0  0
   57.8562   31.1309   49.4977 H   0  0  0  0  0  0  0  0  0  0  0  0
   57.6859   33.3065   48.7253 H   0  0  0  0  0  0  0  0  0  0  0  0
   59.3894   33.3824   48.1889 H   0  0  0  0  0  0  0  0  0  0  0  0
   57.1951   34.0089   46.3948 H   0  0  0  0  0  0  0  0  0  0  0  0
   58.9292   33.8268   45.9281 H   0  0  0  0  0  0  0  0  0  0  0  0
   56.8214   33.4207   44.2156 H   0  0  0  0  0  0  0  0  0  0  0  0
   58.4289   32.6514   44.0355 H   0  0  0  0  0  0  0  0  0  0  0  0
   55.7102   31.2262   43.2703 H   0  0  0  0  0  0  0  0  0  0  0  0
   57.4752   31.1054   42.9300 H   0  0  0  0  0  0  0  0  0  0  0  0
   55.8473   28.9327   43.1393 H   0  0  0  0  0  0  0  0  0  0  0  0
   57.5936   28.9100   43.5815 H   0  0  0  0  0  0  0  0  0  0  0  0
   56.4386   27.2974   46.2759 H   0  0  0  0  0  0  0  0  0  0  0  0
   57.3824   27.3328   44.7456 H   0  0  0  0  0  0  0  0  0  0  0  0
   58.2367   28.0591   47.4030 H   0  0  0  0  0  0  0  0  0  0  0  0
   59.1745   28.0960   45.8544 H   0  0  0  0  0  0  0  0  0  0  0  0
   58.9190   30.2470   47.1800 H   0  0  0  0  0  0  0  0  0  0  0  0
   58.6270   30.2890   45.4920 H   0  0  0  0  0  0  0  0  0  0  0  0
   57.3280   30.2640   46.5960 H   0  0  0  0  0  0  0  0  0  0  0  0
   61.5032   31.3191   51.2769 H   0  0  0  0  0  0  0  0  0  0  0  0
   60.9484   30.2395   49.8737 H   0  0  0  0  0  0  0  0  0  0  0  0
   62.6886   33.2185   50.9376 H   0  0  0  0  0  0  0  0  0  0  0  0
   64.3528   34.4487   49.5700 H   0  0  0  0  0  0  0  0  0  0  0  0
   64.5286   34.0031   47.1266 H   0  0  0  0  0  0  0  0  0  0  0  0
   63.0159   32.3564   46.0411 H   0  0  0  0  0  0  0  0  0  0  0  0
  1  2  1  0
  3  2  1  1
  3  4  1  0
  3  5  1  0
  5  6  1  0
  6  7  1  0
  7  8  1  0
  8  9  1  0
  9 10  1  0
 10 11  1  0
 11 12  1  0
 12 13  1  0
 13 14  1  0
 14 15  1  0
 15 16  1  0
  3 17  1  0
 17 18  1  0
 18 19  2  0
 19 20  1  0
 20 21  2  0
 21 22  1  0
 22 23  2  0
 23 24  1  0
 24 25  2  0
 24 26  1  0
 23 18  1  0
  1 27  1  0
  1 28  1  0
  1 29  1  0
  2 30  1  0
  2 31  1  0
  4 32  1  0
  4 33  1  0
  4 34  1  0
  5 35  1  0
  5 36  1  0
  6 37  1  0
  6 38  1  0
  8 39  1  0
  8 40  1  0
  9 41  1  0
  9 42  1  0
 11 43  1  0
 11 44  1  0
 12 45  1  0
 12 46  1  0
 14 47  1  0
 14 48  1  0
 15 49  1  0
 15 50  1  0
 16 51  1  0
 16 52  1  0
 16 53  1  0
 17 54  1  0
 17 55  1  0
 19 56  1  0
 20 57  1  0
 21 58  1  0
 22 59  1  0
M  CHG  4   3   1  16   1  24   1  26  -1
M  END
>  <UniqueID>  (3) 
3

>  <SMILES>  (3) 
CC[N@@+](C)(CCOCCOCCOCC[NH3+])Cc1ccccc1[N+](=O)[O-]

>  <Energy>  (3) 
84.47176432464974

>  <Genealogy>  (3) 
CC[N+](C)(CCOCCOCCOCC[NH3+])Cc1ccccc1[N+](=O)[O-] (protonated)
CC[N@@+](C)(CCOCCOCCOCC[NH3+])Cc1ccccc1[N+](=O)[O-] (chirality)
CC[N@@+](C)(CCOCCOCCOCC[NH3+])Cc1ccccc1[N+](=O)[O-] (3D coordinates assigned)
CC[N@@+](C)(CCOCCOCCOCC[NH3+])Cc1ccccc1[N+](=O)[O-] (optimized conformer: 84.47176432464974 kcal/mol)

>  <smiles>  (3) 
CC[N+](C)(CCOCCOCCOCCN)Cc1ccccc1[N+](=O)[O-]

>  <score_type>  (3) 
oracle

>  <origin>  (3) 
adg

>  <m_score__min__energy>  (3) 
-1.1799999999999999

>  <m_primary>  (3) 
energy

$$$$
3:0
     RDKit          3D

 60 62  0  0  0  0  0  0  0  0999 V2000
   55.7010   30.4630   52.4310 C   0  0  0  0  0  0  0  0  0  0  0  0
   56.8090   30.0910   51.6200 O   0  0  0  0  0  0  0  0  0  0  0  0
   57.8240   30.9700   51.2150 C   0  0  0  0  0  0  0  0  0  0  0  0
   58.7930   30.5020   50.3220 C   0  0  0  0  0  0  0  0  0  0  0  0
   59.8250   31.3390   49.8880 C   0  0  0  0  0  0  0  0  0  0  0  0
   59.9090   32.6710   50.3370 C   0  0  0  0  0  0  0  0  0  0  0  0
   61.0130   33.5490   49.8530 C   0  0  0  0  0  0  0  0  0  0  0  0
   62.1670   33.4240   50.3480 O   0  0  0  0  0  0  0  0  0  0  0  0
   60.8240   34.5630   48.7560 C   0  0  0  0  0  0  0  0  0  0  0  0
   60.8060   33.8840   47.3790 C   0  0  0  0  0  0  0  0  0  0  0  0
   59.4170   33.6670   46.9260 N   0  0  0  0  0  0  0  0  0  0  0  0
   59.1320   32.2210   46.7950 C   0  0  0  0  0  0  0  0  0  0  0  0
   57.7790   31.9860   46.1180 C   0  0  0  0  0  0  0  0  0  0  0  0
   57.7400   32.5520   44.6630 C   0  0  0  0  0  0  0  0  0  0  0  0
   57.8080   31.4650   43.6390 N   0  0  2  0  0  0  0  0  0  0  0  0
   57.4130   31.9350   42.2950 C   0  0  0  0  0  0  0  0  0  0  0  0
   56.9400   30.3530   43.9950 C   0  0  0  0  0  0  0  0  0  0  0  0
   55.8140   30.5660   44.4280 O   0  0  0  0  0  0  0  0  0  0  0  0
   57.4030   28.9260   43.8430 C   0  0  0  0  0  0  0  0  0  0  0  0
   58.2690   28.5340   45.0100 C   0  0  0  0  0  0  0  0  0  0  0  0
   59.6140   28.9390   45.0610 C   0  0  0  0  0  0  0  0  0  0  0  0
   60.4300   28.5390   46.1240 C   0  0  0  0  0  0  0  0  0  0  0  0
   59.9110   27.7290   47.1380 C   0  0  0  0  0  0  0  0  0  0  0  0
   58.5770   27.3150   47.0900 C   0  0  0  0  0  0  0  0  0  0  0  0
   57.7580   27.7110   46.0270 C   0  0  0  0  0  0  0  0  0  0  0  0
   58.8640   33.6060   44.4570 C   0  0  0  0  0  0  0  0  0  0  0  0
   59.0770   34.4640   45.7150 C   0  0  0  0  0  0  0  0  0  0  0  0
   58.9280   33.1380   51.2350 C   0  0  0  0  0  0  0  0  0  0  0  0
   57.8990   32.2980   51.6710 C   0  0  0  0  0  0  0  0  0  0  0  0
   55.9759   30.3707   53.4921 H   0  0  0  0  0  0  0  0  0  0  0  0
   55.4210   31.5044   52.2140 H   0  0  0  0  0  0  0  0  0  0  0  0
   54.8493   29.8015   52.2140 H   0  0  0  0  0  0  0  0  0  0  0  0
   58.7427   29.4653   49.9576 H   0  0  0  0  0  0  0  0  0  0  0  0
   60.5802   30.9527   49.1877 H   0  0  0  0  0  0  0  0  0  0  0  0
   59.8698   35.0878   48.9112 H   0  0  0  0  0  0  0  0  0  0  0  0
   61.6629   35.2738   48.7863 H   0  0  0  0  0  0  0  0  0  0  0  0
   61.3274   34.5249   46.6528 H   0  0  0  0  0  0  0  0  0  0  0  0
   61.3106   32.9097   47.4568 H   0  0  0  0  0  0  0  0  0  0  0  0
   59.9226   31.7521   46.1907 H   0  0  0  0  0  0  0  0  0  0  0  0
   59.1012   31.7780   47.8014 H   0  0  0  0  0  0  0  0  0  0  0  0
   57.5841   30.9040   46.0823 H   0  0  0  0  0  0  0  0  0  0  0  0
   57.0121   32.5123   46.7053 H   0  0  0  0  0  0  0  0  0  0  0  0
   56.7714   33.0544   44.5236 H   0  0  0  0  0  0  0  0  0  0  0  0
   58.7980   31.1330   43.5790 H   0  0  0  0  0  0  0  0  0  0  0  0
   56.7081   32.7738   42.3924 H   0  0  0  0  0  0  0  0  0  0  0  0
   58.3060   32.2684   41.7460 H   0  0  0  0  0  0  0  0  0  0  0  0
   56.9309   31.1127   41.7460 H   0  0  0  0  0  0  0  0  0  0  0  0
   56.5269   28.2621   43.8013 H   0  0  0  0  0  0  0  0  0  0  0  0
   57.9873   28.8349   42.9155 H   0  0  0  0  0  0  0  0  0  0  0  0
   60.0262   29.5728   44.2620 H   0  0  0  0  0  0  0  0  0  0  0  0
   61.4808   28.8620   46.1621 H   0  0  0  0  0  0  0  0  0  0  0  0
   60.5533   27.4170   47.9748 H   0  0  0  0  0  0  0  0  0  0  0  0
   58.1706   26.6772   47.8887 H   0  0  0  0  0  0  0  0  0  0  0  0
   56.7107   27.3768   45.9876 H   0  0  0  0  0  0  0  0  0  0  0  0
   59.8025   33.0842   44.2183 H   0  0  0  0  0  0  0  0  0  0  0  0
   58.5629   34.2719   43.6349 H   0  0  0  0  0  0  0  0  0  0  0  0
   59.8982   35.1696   45.5205 H   0  0  0  0  0  0  0  0  0  0  0  0
   58.1264   34.9776   45.9216 H   0  0  0  0  0  0  0  0  0  0  0  0
   58.9726   34.1757   51.5971 H   0  0  0  0  0  0  0  0  0  0  0  0
   57.1438   32.6781   52.3747 H   0  0  0  0  0  0  0  0  0  0  0  0
  1  2  1  0
  2  3  1  0
  3  4  2  0
  4  5  1  0
  5  6  2  0
  6  7  1  0
  7  8  2  0
  7  9  1  0
  9 10  1  0
 10 11  1  0
 11 12  1  0
 12 13  1  0
 13 14  1  0
 14 15  1  0
 15 16  1  0
 15 17  1  0
 17 18  2  0
 17 19  1  0
 19 20  1  0
 20 21  2  0
 21 22  1  0
 22 23  2  0
 23 24  1  0
 24 25  2  0
 14 26  1  0
 26 27  1  0
  6 28  1  0
 28 29  2  0
 29  3  1  0
 27 11  1  0
 25 20  1  0
  1 30  1  0
  1 31  1  0
  1 32  1  0
  4 33  1  0
  5 34  1  0
  9 35  1  0
  9 36  1  0
 10 37  1  0
 10 38  1  0
 12 39  1  0
 12 40  1  0
 13 41  1  0
 13 42  1  0
 14 43  1  0
 15 44  1  6
 16 45  1  0
 16 46  1  0
 16 47  1  0
 19 48  1  0
 19 49  1  0
 21 50  1  0
 22 51  1  0
 23 52  1  0
 24 53  1  0
 25 54  1  0
 26 55  1  0
 26 56  1  0
 27 57  1  0
 27 58  1  0
 28 59  1  0
 29 60  1  0
M  CHG  1  15   1
M  END
>  <UniqueID>  (4) 
4

>  <SMILES>  (4) 
COc1ccc(C(=O)CCN2CCC([N@H+](C)C(=O)Cc3ccccc3)CC2)cc1

>  <Energy>  (4) 
72.1117136572133

>  <Genealogy>  (4) 
COc1ccc(C(=O)CCN2CCC([NH+](C)C(=O)Cc3ccccc3)CC2)cc1 (protonated)
COc1ccc(C(=O)CCN2CCC([N@H+](C)C(=O)Cc3ccccc3)CC2)cc1 (chirality)
COc1ccc(C(=O)CCN2CCC([N@H+](C)C(=O)Cc3ccccc3)CC2)cc1 (3D coordinates assigned)
COc1ccc(C(=O)CCN2CCC([N@H+](C)C(=O)Cc3ccccc3)CC2)cc1 (nonaromatic ring conformer: 72.1117136572133 kcal/mol)

>  <smiles>  (4) 
COc1ccc(C(=O)CCN2CCC(N(C)C(=O)Cc3ccccc3)CC2)cc1

>  <score_type>  (4) 
oracle

>  <origin>  (4) 
adg

>  <m_score__min__energy>  (4) 
-7.5300000000000002

>  <m_primary>  (4) 
energy

$$$$
4:0
     RDKit          3D

 53 56  0  0  0  0  0  0  0  0999 V2000
   63.7630   34.2160   47.8920 C   0  0  0  0  0  0  0  0  0  0  0  0
   62.8220   33.0500   47.8180 C   0  0  0  0  0  0  0  0  0  0  0  0
   61.8380   32.9980   46.8190 C   0  0  0  0  0  0  0  0  0  0  0  0
   60.9370   31.9310   46.7720 C   0  0  0  0  0  0  0  0  0  0  0  0
   60.9990   30.9120   47.7340 C   0  0  0  0  0  0  0  0  0  0  0  0
   60.0840   29.8070   47.6770 N   0  0  0  0  0  0  0  0  0  0  0  0
   59.2280   29.4420   48.6550 C   0  0  0  0  0  0  0  0  0  0  0  0
   59.0620   30.1600   49.9600 C   0  0  0  0  0  0  0  0  0  0  0  0
   58.5140   28.3270   48.2730 C   0  0  0  0  0  0  0  0  0  0  0  0
   58.9490   27.9910   47.0010 C   0  0  0  0  0  0  0  0  0  0  0  0
   58.4220   26.8400   46.2320 C   0  0  0  0  0  0  0  0  0  0  0  0
   58.8440   25.6860   46.5110 O   0  0  0  0  0  0  0  0  0  0  0  0
   57.3490   26.9700   45.1880 C   0  0  0  0  0  0  0  0  0  0  0  0
   58.0140   27.6900   43.6440 S   0  0  0  0  0  0  0  0  0  0  0  0
   57.4950   29.3600   44.0270 C   0  0  0  0  0  0  0  0  0  0  0  0
   56.4410   29.6620   44.8070 N   0  0  0  0  0  0  0  0  0  0  0  0
   56.3820   30.9840   44.8500 N   0  0  0  0  0  0  0  0  0  0  0  0
   57.4010   31.4310   44.0900 C   0  0  0  0  0  0  0  0  0  0  0  0
   57.7260   32.8750   43.8860 C   0  0  0  0  0  0  0  0  0  0  0  0
   58.1820   33.4850   45.1820 C   0  0  0  0  0  0  0  0  0  0  0  0
   57.7960   32.9160   46.4070 C   0  0  0  0  0  0  0  0  0  0  0  0
   58.2510   33.4650   47.6110 C   0  0  0  0  0  0  0  0  0  0  0  0
   59.0980   34.5760   47.5990 C   0  0  0  0  0  0  0  0  0  0  0  0
   59.4960   35.1380   46.3840 C   0  0  0  0  0  0  0  0  0  0  0  0
   59.0440   34.5940   45.1780 C   0  0  0  0  0  0  0  0  0  0  0  0
   58.0930   30.4390   43.5850 O   0  0  0  0  0  0  0  0  0  0  0  0
   59.9310   28.9240   46.6600 C   0  0  0  0  0  0  0  0  0  0  0  0
   60.7270   28.9540   45.3850 C   0  0  0  0  0  0  0  0  0  0  0  0
   61.9740   30.9680   48.7390 C   0  0  0  0  0  0  0  0  0  0  0  0
   62.8750   32.0360   48.7870 C   0  0  0  0  0  0  0  0  0  0  0  0
   63.9609   34.4612   48.9459 H   0  0  0  0  0  0  0  0  0  0  0  0
   64.7080   33.9568   47.3922 H   0  0  0  0  0  0  0  0  0  0  0  0
   63.3101   35.0850   47.3922 H   0  0  0  0  0  0  0  0  0  0  0  0
   61.7756   33.8008   46.0695 H   0  0  0  0  0  0  0  0  0  0  0  0
   60.1767   31.8900   45.9781 H   0  0  0  0  0  0  0  0  0  0  0  0
   59.2248   29.4558   50.7892 H   0  0  0  0  0  0  0  0  0  0  0  0
   59.7947   30.9779   50.0243 H   0  0  0  0  0  0  0  0  0  0  0  0
   58.0446   30.5733   50.0243 H   0  0  0  0  0  0  0  0  0  0  0  0
   57.7470   27.8047   48.8636 H   0  0  0  0  0  0  0  0  0  0  0  0
   56.9367   25.9736   44.9710 H   0  0  0  0  0  0  0  0  0  0  0  0
   56.5651   27.6377   45.5748 H   0  0  0  0  0  0  0  0  0  0  0  0
   58.5274   32.9663   43.1380 H   0  0  0  0  0  0  0  0  0  0  0  0
   56.8270   33.4023   43.5342 H   0  0  0  0  0  0  0  0  0  0  0  0
   57.1347   32.0371   46.4198 H   0  0  0  0  0  0  0  0  0  0  0  0
   57.9413   33.0211   48.5686 H   0  0  0  0  0  0  0  0  0  0  0  0
   59.4515   35.0082   48.5468 H   0  0  0  0  0  0  0  0  0  0  0  0
   60.1663   36.0102   46.3759 H   0  0  0  0  0  0  0  0  0  0  0  0
   59.3644   35.0359   44.2230 H   0  0  0  0  0  0  0  0  0  0  0  0
   61.8001   28.9944   45.6235 H   0  0  0  0  0  0  0  0  0  0  0  0
   60.5155   28.0472   44.7993 H   0  0  0  0  0  0  0  0  0  0  0  0
   60.4479   29.8423   44.7993 H   0  0  0  0  0  0  0  0  0  0  0  0
   62.0306   30.1689   49.4928 H   0  0  0  0  0  0  0  0  0  0  0  0
   63.6283   32.0818   49.5873 H   0  0  0  0  0  0  0  0  0  0  0  0
  1  2  1  0
  2  3  2  0
  3  4  1  0
  4  5  2  0
  5  6  1  0
  6  7  1  0
  7  8  1  0
  7  9  2  0
  9 10  1  0
 10 11  1  0
 11 12  2  0
 11 13  1  0
 13 14  1  0
 14 15  1  0
 15 16  2  0
 16 17  1  0
 17 18  2  0
 18 19  1  0
 19 20  1  0
 20 21  2  0
 21 22  1  0
 22 23  2  0
 23 24  1  0
 24 25  2  0
 18 26  1  0
 10 27  2  0
 27 28  1  0
  5 29  1  0
 29 30  2  0
 30  2  1  0
 27  6  1  0
 26 15  1  0
 25 20  1  0
  1 31  1  0
  1 32  1  0
  1 33  1  0
  3 34  1  0
  4 35  1  0
  8 36  1  0
  8 37  1  0
  8 38  1  0
  9 39  1  0
 13 40  1  0
 13 41  1  0
 19 42  1  0
 19 43  1  0
 21 44  1  0
 22 45  1  0
 23 46  1  0
 24 47  1  0
 25 48  1  0
 28 49  1  0
 28 50  1  0
 28 51  1  0
 29 52  1  0
 30 53  1  0
M  END
>  <UniqueID>  (5) 
5

>  <SMILES>  (5) 
Cc1ccc(-n2c(C)cc(C(=O)CSc3nnc(Cc4ccccc4)o3)c2C)cc1

>  <Energy>  (5) 
119.53193308601902

>  <Genealogy>  (5) 
Cc1ccc(-n2c(C)cc(C(=O)CSc3nnc(Cc4ccccc4)o3)c2C)cc1 (3D coordinates assigned)
Cc1ccc(-n2c(C)cc(C(=O)CSc3nnc(Cc4ccccc4)o3)c2C)cc1 (optimized conformer: 119.53193308601902 kcal/mol)

>  <smiles>  (5) 
Cc1ccc(-n2c(C)cc(C(=O)CSc3nnc(Cc4ccccc4)o3)c2C)cc1

>  <score_type>  (5) 
oracle

>  <origin>  (5) 
adg

>  <m_score__min__energy>  (5) 
-9.4600000000000009

>  <m_primary>  (5) 
energy

$$$$
5:0
     RDKit          3D

 54 59  0  0  0  0  0  0  0  0999 V2000
   56.6640   34.7170   44.8820 C   0  0  0  0  0  0  0  0  0  0  0  0
   57.8390   34.0120   44.4920 O   0  0  0  0  0  0  0  0  0  0  0  0
   58.2230   32.7670   45.0110 C   0  0  0  0  0  0  0  0  0  0  0  0
   57.6770   31.6130   44.4450 C   0  0  0  0  0  0  0  0  0  0  0  0
   58.0210   30.3510   44.9370 C   0  0  0  0  0  0  0  0  0  0  0  0
   58.8510   30.2100   46.0680 C   0  0  0  0  0  0  0  0  0  0  0  0
   59.3190   28.8230   46.5150 C   0  0  2  0  0  0  0  0  0  0  0  0
   58.4090   27.6070   46.3550 C   0  0  0  0  0  0  0  0  0  0  0  0
   57.0260   27.6600   46.0600 C   0  0  0  0  0  0  0  0  0  0  0  0
   56.3320   26.4560   45.9800 C   0  0  0  0  0  0  0  0  0  0  0  0
   56.9230   25.2610   46.2320 C   0  0  0  0  0  0  0  0  0  0  0  0
   58.2540   25.1600   46.6200 C   0  0  0  0  0  0  0  0  0  0  0  0
   59.0000   26.3510   46.7270 C   0  0  0  0  0  0  0  0  0  0  0  0
   60.3770   26.3450   47.3820 C   0  0  0  0  0  0  0  0  0  0  0  0
   60.4630   27.5670   48.2720 C   0  0  0  0  0  0  0  0  0  0  0  0
   60.5200   27.5550   49.6540 C   0  0  0  0  0  0  0  0  0  0  0  0
   61.0150   26.5290   50.4580 O   0  0  0  0  0  0  0  0  0  0  0  0
   59.9460   28.6760   50.1330 N   0  0  0  0  0  0  0  0  0  0  0  0
   59.6400   28.9800   51.5040 C   0  0  0  0  0  0  0  0  0  0  0  0
   58.3760   29.5020   51.8260 C   0  0  0  0  0  0  0  0  0  0  0  0
   58.0780   29.8860   53.1340 C   0  0  0  0  0  0  0  0  0  0  0  0
   59.0410   29.7580   54.1350 C   0  0  0  0  0  0  0  0  0  0  0  0
   60.3000   29.2340   53.8340 C   0  0  0  0  0  0  0  0  0  0  0  0
   60.6120   28.8260   52.5240 C   0  0  0  0  0  0  0  0  0  0  0  0
   61.8940   28.2310   52.2530 N   0  0  0  0  0  0  0  0  0  0  0  0
   62.2470   27.1950   52.8550 O   0  0  0  0  0  0  0  0  0  0  0  0
   62.6780   28.6980   51.2230 O   0  0  0  0  0  0  0  0  0  0  0  0
   59.4850   29.3170   49.0370 C   0  0  0  0  0  0  0  0  0  0  0  0
   58.6700   30.2760   49.0980 O   0  0  0  0  0  0  0  0  0  0  0  0
   59.8760   28.7260   47.8790 N   0  0  0  0  0  0  0  0  0  0  0  0
   55.9930   24.2490   46.0880 O   0  0  0  0  0  0  0  0  0  0  0  0
   54.7410   24.8460   45.7250 C   0  0  0  0  0  0  0  0  0  0  0  0
   55.0000   26.2550   45.6730 O   0  0  0  0  0  0  0  0  0  0  0  0
   59.4940   31.3740   46.5420 C   0  0  0  0  0  0  0  0  0  0  0  0
   59.1530   32.6380   46.0540 C   0  0  0  0  0  0  0  0  0  0  0  0
   56.6050   34.7524   45.9798 H   0  0  0  0  0  0  0  0  0  0  0  0
   56.7020   35.7416   44.4836 H   0  0  0  0  0  0  0  0  0  0  0  0
   55.7778   34.2013   44.4836 H   0  0  0  0  0  0  0  0  0  0  0  0
   56.9710   31.6980   43.6058 H   0  0  0  0  0  0  0  0  0  0  0  0
   57.6374   29.4517   44.4329 H   0  0  0  0  0  0  0  0  0  0  0  0
   60.0935   28.7576   45.7367 H   0  0  0  0  0  0  0  0  0  0  0  0
   56.5160   28.6213   45.8992 H   0  0  0  0  0  0  0  0  0  0  0  0
   58.7100   24.1827   46.8364 H   0  0  0  0  0  0  0  0  0  0  0  0
   60.5028   25.4327   47.9835 H   0  0  0  0  0  0  0  0  0  0  0  0
   61.1691   26.3649   46.6190 H   0  0  0  0  0  0  0  0  0  0  0  0
   61.8710   26.6370   50.9880 H   0  0  0  0  0  0  0  0  0  0  0  0
   57.6142   29.6090   51.0397 H   0  0  0  0  0  0  0  0  0  0  0  0
   57.0837   30.2896   53.3757 H   0  0  0  0  0  0  0  0  0  0  0  0
   58.8082   30.0705   55.1637 H   0  0  0  0  0  0  0  0  0  0  0  0
   61.0549   29.1393   54.6285 H   0  0  0  0  0  0  0  0  0  0  0  0
   54.4080   24.4781   44.7433 H   0  0  0  0  0  0  0  0  0  0  0  0
   53.9439   24.5998   46.4419 H   0  0  0  0  0  0  0  0  0  0  0  0
   60.2773   31.2842   47.3091 H   0  0  0  0  0  0  0  0  0  0  0  0
   59.6156   33.5361   46.4893 H   0  0  0  0  0  0  0  0  0  0  0  0
  1  2  1  0
  2  3  1  0
  3  4  2  0
  4  5  1  0
  5  6  2  0
  6  7  1  0
  7  8  1  0
  8  9  2  0
  9 10  1  0
 10 11  2  0
 11 12  1  0
 12 13  2  0
 13 14  1  0
 14 15  1  0
 15 16  2  0
 16 17  1  0
 16 18  1  0
 18 19  1  0
 19 20  2  0
 20 21  1  0
 21 22  2  0
 22 23  1  0
 23 24  2  0
 24 25  1  0
 25 26  2  0
 25 27  1  0
 18 28  1  0
 28 29  2  0
 28 30  1  0
 11 31  1  0
 31 32  1  0
 32 33  1  0
  6 34  1  0
 34 35  2  0
 35  3  1  0
 30  7  1  0
 13  8  1  0
 30 15  1  0
 33 10  1  0
 24 19  1  0
  1 36  1  0
  1 37  1  0
  1 38  1  0
  4 39  1  0
  5 40  1  0
  7 41  1  6
  9 42  1  0
 12 43  1  0
 14 44  1  0
 14 45  1  0
 17 46  1  0
 20 47  1  0
 21 48  1  0
 22 49  1  0
 23 50  1  0
 32 51  1  0
 32 52  1  0
 34 53  1  0
 35 54  1  0
M  CHG  2  25   1  27  -1
M  END
>  <UniqueID>  (6) 
6

>  <SMILES>  (6) 
COc1ccc([C@@H]2c3cc4c(cc3Cc3c(O)n(-c5ccccc5[N+](=O)[O-])c(=O)n32)OCO4)cc1

>  <Energy>  (6) 
167.9837245425001

>  <Genealogy>  (6) 
COc1ccc([C@@H]2c3cc4c(cc3Cc3c(O)n(-c5ccccc5[N+](=O)[O-])c(=O)n32)OCO4)cc1 (chirality)
COc1ccc([C@@H]2c3cc4c(cc3Cc3c(O)n(-c5ccccc5[N+](=O)[O-])c(=O)n32)OCO4)cc1 (3D coordinates assigned)
COc1ccc([C@@H]2c3cc4c(cc3Cc3c(O)n(-c5ccccc5[N+](=O)[O-])c(=O)n32)OCO4)cc1 (nonaromatic ring conformer: 167.9837245425001 kcal/mol)

>  <smiles>  (6) 
COc1ccc(C2c3cc4c(cc3Cc3c(O)n(-c5ccccc5[N+](=O)[O-])c(=O)n32)OCO4)cc1

>  <score_type>  (6) 
oracle

>  <origin>  (6) 
adg

>  <m_score__min__energy>  (6) 
-7.1100000000000003

>  <m_primary>  (6) 
energy

$$$$
6:0
     RDKit          3D

 27 28  0  0  0  0  0  0  0  0999 V2000
   60.7360   27.8870   45.6500 C   0  0  0  0  0  0  0  0  0  0  0  0
   60.1630   29.2440   45.8760 C   0  0  0  0  0  0  0  0  0  0  0  0
   58.9870   29.6520   45.3390 N   0  0  0  0  0  0  0  0  0  0  0  0
   58.7330   30.9500   45.6500 C   0  0  0  0  0  0  0  0  0  0  0  0
   57.5920   31.6500   45.2450 C   0  0  0  0  0  0  0  0  0  0  0  0
   56.6260   30.9900   44.4700 O   0  0  0  0  0  0  0  0  0  0  0  0
   56.6600   30.9020   43.0480 C   0  0  0  0  0  0  0  0  0  0  0  0
   56.6440   29.4340   42.6170 C   0  0  0  0  0  0  0  0  0  0  0  0
   57.3640   28.5880   43.5700 N   0  0  0  0  0  0  0  0  0  0  0  0
   57.4650   33.0030   45.6400 C   0  0  0  0  0  0  0  0  0  0  0  0
   58.4650   33.6200   46.4170 C   0  0  0  0  0  0  0  0  0  0  0  0
   59.6030   32.9010   46.8110 C   0  0  0  0  0  0  0  0  0  0  0  0
   59.7080   31.5720   46.4150 C   0  0  0  0  0  0  0  0  0  0  0  0
   60.9460   30.4820   46.7270 S   0  0  0  0  0  0  0  0  0  0  0  0
   60.9382   27.4082   46.6195 H   0  0  0  0  0  0  0  0  0  0  0  0
   60.0190   27.2762   45.0818 H   0  0  0  0  0  0  0  0  0  0  0  0
   61.6738   27.9749   45.0818 H   0  0  0  0  0  0  0  0  0  0  0  0
   55.7813   31.4146   42.6297 H   0  0  0  0  0  0  0  0  0  0  0  0
   57.5796   31.3784   42.6774 H   0  0  0  0  0  0  0  0  0  0  0  0
   55.6006   29.0917   42.5522 H   0  0  0  0  0  0  0  0  0  0  0  0
   57.1429   29.3554   41.6398 H   0  0  0  0  0  0  0  0  0  0  0  0
   57.1270   28.8690   44.5500 H   0  0  0  0  0  0  0  0  0  0  0  0
   58.3920   28.7080   43.4230 H   0  0  0  0  0  0  0  0  0  0  0  0
   57.1180   27.5830   43.4200 H   0  0  0  0  0  0  0  0  0  0  0  0
   56.5774   33.5781   45.3376 H   0  0  0  0  0  0  0  0  0  0  0  0
   58.3526   34.6724   46.7166 H   0  0  0  0  0  0  0  0  0  0  0  0
   60.3901   33.3748   47.4160 H   0  0  0  0  0  0  0  0  0  0  0  0
  1  2  1  0
  2  3  2  0
  3  4  1  0
  4  5  2  0
  5  6  1  0
  6  7  1  0
  7  8  1  0
  8  9  1  0
  5 10  1  0
 10 11  2  0
 11 12  1  0
 12 13  2  0
 13 14  1  0
 14  2  1  0
 13  4  1  0
  1 15  1  0
  1 16  1  0
  1 17  1  0
  7 18  1  0
  7 19  1  0
  8 20  1  0
  8 21  1  0
  9 22  1  0
  9 23  1  0
  9 24  1  0
 10 25  1  0
 11 26  1  0
 12 27  1  0
M  CHG  1   9   1
M  END
>  <UniqueID>  (7) 
7

>  <SMILES>  (7) 
Cc1nc2c(OCC[NH3+])cccc2s1

>  <Energy>  (7) 
55.65583903197146

>  <Genealogy>  (7) 
Cc1nc2c(OCC[NH3+])cccc2s1 (protonated)
Cc1nc2c(OCC[NH3+])cccc2s1 (3D coordinates assigned)
Cc1nc2c(OCC[NH3+])cccc2s1 (optimized conformer: 55.65583903197146 kcal/mol)

>  <smiles>  (7) 
Cc1nc2c(OCCN)cccc2s1

>  <score_type>  (7) 
oracle

>  <origin>  (7) 
adg

>  <m_score__min__energy>  (7) 
-3.3599999999999999

>  <m_primary>  (7) 
energy

$$$$
7:0
     RDKit          3D

 64 66  0  0  0  0  0  0  0  0999 V2000
   65.2830   32.7310   49.7850 C   0  0  0  0  0  0  0  0  0  0  0  0
   63.8210   32.4970   49.3650 C   0  0  0  0  0  0  0  0  0  0  0  0
   63.2760   33.5110   48.4290 N   0  0  0  0  0  0  0  0  0  0  0  0
   62.7000   32.9650   47.1790 C   0  0  0  0  0  0  0  0  0  0  0  0
   62.2270   31.5240   47.3610 C   0  0  0  0  0  0  0  0  0  0  0  0
   62.5000   34.5970   49.0770 C   0  0  0  0  0  0  0  0  0  0  0  0
   61.2320   34.1150   49.8020 C   0  0  0  0  0  0  0  0  0  0  0  0
   60.0230   34.6160   49.1420 N   0  0  0  0  0  0  0  0  0  0  0  0
   59.3710   33.8950   48.0810 C   0  0  0  0  0  0  0  0  0  0  0  0
   59.0390   34.5740   46.8830 C   0  0  0  0  0  0  0  0  0  0  0  0
   58.4710   33.8870   45.7960 C   0  0  0  0  0  0  0  0  0  0  0  0
   58.2390   32.5220   45.9390 C   0  0  0  0  0  0  0  0  0  0  0  0
   57.7730   31.5800   45.0520 C   0  0  0  0  0  0  0  0  0  0  0  0
   57.3730   31.6840   43.7210 C   0  0  0  0  0  0  0  0  0  0  0  0
   56.9910   30.5060   43.0580 C   0  0  0  0  0  0  0  0  0  0  0  0
   57.0280   29.2630   43.7270 C   0  0  0  0  0  0  0  0  0  0  0  0
   57.4420   29.1840   45.0690 C   0  0  0  0  0  0  0  0  0  0  0  0
   57.8070   30.3690   45.7170 C   0  0  0  0  0  0  0  0  0  0  0  0
   58.2570   30.5210   46.9880 N   0  0  0  0  0  0  0  0  0  0  0  0
   58.5170   29.4650   47.9730 C   0  0  0  0  0  0  0  0  0  0  0  0
   59.8250   28.7370   47.6580 C   0  0  0  0  0  0  0  0  0  0  0  0
   59.5860   27.6930   46.6320 N   0  0  0  0  0  0  0  0  0  0  0  0
   60.6660   27.6190   45.6180 C   0  0  0  0  0  0  0  0  0  0  0  0
   60.9130   28.9390   44.8730 C   0  0  0  0  0  0  0  0  0  0  0  0
   59.1860   26.3970   47.2240 C   0  0  0  0  0  0  0  0  0  0  0  0
   57.7710   25.9940   46.8110 C   0  0  0  0  0  0  0  0  0  0  0  0
   58.5310   31.8470   47.1060 C   0  0  0  0  0  0  0  0  0  0  0  0
   59.0910   32.5110   48.1990 C   0  0  0  0  0  0  0  0  0  0  0  0
   65.3518   32.7420   50.8828 H   0  0  0  0  0  0  0  0  0  0  0  0
   65.9130   31.9223   49.3862 H   0  0  0  0  0  0  0  0  0  0  0  0
   65.6291   33.6960   49.3862 H   0  0  0  0  0  0  0  0  0  0  0  0
   63.7574   31.5124   48.8788 H   0  0  0  0  0  0  0  0  0  0  0  0
   63.2188   32.5655   50.2830 H   0  0  0  0  0  0  0  0  0  0  0  0
   61.8436   33.5868   46.8791 H   0  0  0  0  0  0  0  0  0  0  0  0
   63.4825   32.9755   46.4060 H   0  0  0  0  0  0  0  0  0  0  0  0
   62.1520   31.2955   48.4344 H   0  0  0  0  0  0  0  0  0  0  0  0
   61.2408   31.3995   46.8898 H   0  0  0  0  0  0  0  0  0  0  0  0
   62.9475   30.8393   46.8898 H   0  0  0  0  0  0  0  0  0  0  0  0
   63.1498   35.0953   49.8115 H   0  0  0  0  0  0  0  0  0  0  0  0
   62.1696   35.2734   48.2750 H   0  0  0  0  0  0  0  0  0  0  0  0
   61.2130   33.0152   49.7994 H   0  0  0  0  0  0  0  0  0  0  0  0
   61.2518   34.4994   50.8325 H   0  0  0  0  0  0  0  0  0  0  0  0
   59.6690   35.5700   49.3860 H   0  0  0  0  0  0  0  0  0  0  0  0
   59.2284   35.6545   46.8021 H   0  0  0  0  0  0  0  0  0  0  0  0
   58.2181   34.4112   44.8626 H   0  0  0  0  0  0  0  0  0  0  0  0
   57.3570   32.6563   43.2068 H   0  0  0  0  0  0  0  0  0  0  0  0
   56.6606   30.5522   42.0098 H   0  0  0  0  0  0  0  0  0  0  0  0
   56.7303   28.3481   43.1938 H   0  0  0  0  0  0  0  0  0  0  0  0
   57.4778   28.2180   45.5940 H   0  0  0  0  0  0  0  0  0  0  0  0
   58.5872   29.9153   48.9742 H   0  0  0  0  0  0  0  0  0  0  0  0
   57.6919   28.7384   47.9364 H   0  0  0  0  0  0  0  0  0  0  0  0
   60.5625   29.4595   47.2785 H   0  0  0  0  0  0  0  0  0  0  0  0
   60.2065   28.2638   48.5748 H   0  0  0  0  0  0  0  0  0  0  0  0
   61.5977   27.3282   46.1253 H   0  0  0  0  0  0  0  0  0  0  0  0
   60.3468   26.8830   44.8654 H   0  0  0  0  0  0  0  0  0  0  0  0
   61.0645   29.7487   45.6020 H   0  0  0  0  0  0  0  0  0  0  0  0
   61.8085   28.8417   44.2417 H   0  0  0  0  0  0  0  0  0  0  0  0
   60.0429   29.1721   44.2417 H   0  0  0  0  0  0  0  0  0  0  0  0
   59.8891   25.6206   46.8882 H   0  0  0  0  0  0  0  0  0  0  0  0
   59.2045   26.5023   48.3188 H   0  0  0  0  0  0  0  0  0  0  0  0
   57.1619   25.8205   47.7104 H   0  0  0  0  0  0  0  0  0  0  0  0
   57.3202   26.7995   46.2127 H   0  0  0  0  0  0  0  0  0  0  0  0
   57.8123   25.0719   46.2127 H   0  0  0  0  0  0  0  0  0  0  0  0
   59.3102   31.9712   49.1320 H   0  0  0  0  0  0  0  0  0  0  0  0
  1  2  1  0
  2  3  1  0
  3  4  1  0
  4  5  1  0
  3  6  1  0
  6  7  1  0
  7  8  1  0
  8  9  1  0
  9 10  2  0
 10 11  1  0
 11 12  2  0
 12 13  1  0
 13 14  2  0
 14 15  1  0
 15 16  2  0
 16 17  1  0
 17 18  2  0
 18 19  1  0
 19 20  1  0
 20 21  1  0
 21 22  1  0
 22 23  1  0
 23 24  1  0
 22 25  1  0
 25 26  1  0
 19 27  1  0
 27 28  2  0
 28  9  1  0
 27 12  1  0
 18 13  1  0
  1 29  1  0
  1 30  1  0
  1 31  1  0
  2 32  1  0
  2 33  1  0
  4 34  1  0
  4 35  1  0
  5 36  1  0
  5 37  1  0
  5 38  1  0
  6 39  1  0
  6 40  1  0
  7 41  1  0
  7 42  1  0
  8 43  1  0
 10 44  1  0
 11 45  1  0
 14 46  1  0
 15 47  1  0
 16 48  1  0
 17 49  1  0
 20 50  1  0
 20 51  1  0
 21 52  1  0
 21 53  1  0
 23 54  1  0
 23 55  1  0
 24 56  1  0
 24 57  1  0
 24 58  1  0
 25 59  1  0
 25 60  1  0
 26 61  1  0
 26 62  1  0
 26 63  1  0
 28 64  1  0
M  END
>  <UniqueID>  (8) 
8

>  <SMILES>  (8) 
CCN(CC)CCNc1ccc2c3ccccc3n(CCN(CC)CC)c2c1

>  <Energy>  (8) 
106.82603903247448

>  <Genealogy>  (8) 
CCN(CC)CCNc1ccc2c3ccccc3n(CCN(CC)CC)c2c1 (3D coordinates assigned)
CCN(CC)CCNc1ccc2c3ccccc3n(CCN(CC)CC)c2c1 (optimized conformer: 106.82603903247448 kcal/mol)

>  <smiles>  (8) 
CCN(CC)CCNc1ccc2c3ccccc3n(CCN(CC)CC)c2c1

>  <score_type>  (8) 
oracle

>  <origin>  (8) 
adg

>  <m_score__min__energy>  (8) 
-7.8799999999999999

>  <m_primary>  (8) 
energy

$$$$
8:0
     RDKit          3D

 37 39  0  0  0  0  0  0  0  0999 V2000
   59.7299   35.7520   47.4646 H   0  0  0  0  0  0  0  0  0  0  0  0
   59.3280   34.9960   46.7740 C   0  0  0  0  0  0  0  0  0  0  0  0
   58.5980   33.9130   47.2710 C   0  0  0  0  0  0  0  0  0  0  0  0
   58.4265   33.8169   48.3533 H   0  0  0  0  0  0  0  0  0  0  0  0
   58.0850   32.9510   46.3950 C   0  0  0  0  0  0  0  0  0  0  0  0
   57.5134   32.0987   46.7911 H   0  0  0  0  0  0  0  0  0  0  0  0
   58.2970   33.0690   45.0100 C   0  0  0  0  0  0  0  0  0  0  0  0
   57.7760   32.0760   44.1050 N   0  0  0  0  0  0  0  0  0  0  0  0
   57.3390   30.7970   44.6050 C   0  0  0  0  0  0  0  0  0  0  0  0
   56.0580   30.3670   44.5370 N   0  0  0  0  0  0  0  0  0  0  0  0
   55.8760   29.1640   45.0810 N   0  0  0  0  0  0  0  0  0  0  0  0
   57.0110   28.6400   45.5950 C   0  0  0  0  0  0  0  0  0  0  0  0
   57.0950   27.4680   46.1520 N   0  0  0  0  0  0  0  0  0  0  0  0
   56.5640   26.2420   45.6270 C   0  0  0  0  0  0  0  0  0  0  0  0
   55.4850   25.8000   46.1030 O   0  0  0  0  0  0  0  0  0  0  0  0
   57.1880   25.5710   44.5200 N   0  0  0  0  0  0  0  0  0  0  0  0
   57.7020   26.1570   43.8240 H   0  0  0  0  0  0  0  0  0  0  0  0
   57.0090   24.1730   44.2280 C   0  0  0  0  0  0  0  0  0  0  0  0
   56.4470   23.7430   43.0110 C   0  0  0  0  0  0  0  0  0  0  0  0
   56.1499   24.4827   42.2530 H   0  0  0  0  0  0  0  0  0  0  0  0
   56.2650   22.3790   42.7620 C   0  0  0  0  0  0  0  0  0  0  0  0
   55.8351   22.0485   41.8050 H   0  0  0  0  0  0  0  0  0  0  0  0
   56.6280   21.4350   43.7260 C   0  0  0  0  0  0  0  0  0  0  0  0
   56.4480   20.1130   43.4820 F   0  0  0  0  0  0  0  0  0  0  0  0
   57.1680   21.8540   44.9440 C   0  0  0  0  0  0  0  0  0  0  0  0
   57.4490   21.1108   45.7047 H   0  0  0  0  0  0  0  0  0  0  0  0
   57.3520   23.2170   45.1980 C   0  0  0  0  0  0  0  0  0  0  0  0
   57.7678   23.5421   46.1631 H   0  0  0  0  0  0  0  0  0  0  0  0
   58.3270   29.6630   45.3800 S   0  0  0  0  0  0  0  0  0  0  0  0
   57.8250   32.3170   42.6600 C   0  0  0  0  0  0  0  0  0  0  0  0
   58.0410   33.3792   42.4725 H   0  0  0  0  0  0  0  0  0  0  0  0
   58.6155   31.6974   42.2115 H   0  0  0  0  0  0  0  0  0  0  0  0
   56.8553   32.0553   42.2115 H   0  0  0  0  0  0  0  0  0  0  0  0
   59.0360   34.1590   44.5200 C   0  0  0  0  0  0  0  0  0  0  0  0
   59.2134   34.2584   43.4390 H   0  0  0  0  0  0  0  0  0  0  0  0
   59.5470   35.1180   45.4000 C   0  0  0  0  0  0  0  0  0  0  0  0
   60.1226   35.9701   45.0094 H   0  0  0  0  0  0  0  0  0  0  0  0
  1  2  1  0
  2  3  2  0
  3  4  1  0
  3  5  1  0
  5  6  1  0
  5  7  2  0
  7  8  1  0
  8  9  1  0
  9 10  2  0
 10 11  1  0
 11 12  1  0
 12 13  2  0
 13 14  1  0
 14 15  2  0
 14 16  1  0
 16 17  1  0
 16 18  1  0
 18 19  2  0
 19 20  1  0
 19 21  1  0
 21 22  1  0
 21 23  2  0
 23 24  1  0
 23 25  1  0
 25 26  1  0
 25 27  2  0
 27 28  1  0
 12 29  1  0
  8 30  1  0
 30 31  1  0
 30 32  1  0
 30 33  1  0
  7 34  1  0
 34 35  1  0
 34 36  2  0
 36 37  1  0
 36  2  1  0
 29  9  1  0
 27 18  1  0
M  CHG  1  11  -1
M  END
>  <UniqueID>  (9) 
9

>  <SMILES>  (9) 
CN(c1ccccc1)c1n[n-]/c(=N\C(=O)Nc2ccc(F)cc2)s1

>  <Energy>  (9) 
86.2450921943233

>  <Genealogy>  (9) 
CN(c1ccccc1)c1n[n-]c(=NC(=O)Nc2ccc(F)cc2)s1 (protonated)
CN(c1ccccc1)c1n[n-]/c(=N\C(=O)Nc2ccc(F)cc2)s1 (cis-trans isomerization)
CN(c1ccccc1)c1n[n-]/c(=N\C(=O)Nc2ccc(F)cc2)s1 (3D coordinates assigned)
CN(c1ccccc1)c1n[n-]/c(=N\C(=O)Nc2ccc(F)cc2)s1 (optimized conformer: 86.2450921943233 kcal/mol)

>  <smiles>  (9) 
CN(c1ccccc1)c1n[nH]c(=NC(=O)Nc2ccc(F)cc2)s1

>  <score_type>  (9) 
oracle

>  <origin>  (9) 
adg

>  <m_score__min__energy>  (9) 
-10.5

>  <m_primary>  (9) 
energy

$$$$
9:0
     RDKit          3D

 42 44  0  0  0  0  0  0  0  0999 V2000
   58.0420   26.7820   43.1690 C   0  0  0  0  0  0  0  0  0  0  0  0
   58.4530   26.4540   44.4780 O   0  0  0  0  0  0  0  0  0  0  0  0
   57.5350   25.5520   45.0650 C   0  0  0  0  0  0  0  0  0  0  0  0
   56.3870   26.2930   45.6790 C   0  0  0  0  0  0  0  0  0  0  0  0
   55.4990   25.6540   46.3060 O   0  0  0  0  0  0  0  0  0  0  0  0
   56.3660   27.6920   45.6190 O   0  0  0  0  0  0  0  0  0  0  0  0
   57.4050   28.5350   46.0440 C   0  0  0  0  0  0  0  0  0  0  0  0
   58.4210   28.0860   46.9050 C   0  0  0  0  0  0  0  0  0  0  0  0
   59.4320   28.9530   47.3200 C   0  0  0  0  0  0  0  0  0  0  0  0
   59.4450   30.2900   46.8920 C   0  0  0  0  0  0  0  0  0  0  0  0
   60.5230   31.2120   47.3330 C   0  0  0  0  0  0  0  0  0  0  0  0
   60.6640   32.4780   46.7370 C   0  0  0  0  0  0  0  0  0  0  0  0
   61.6760   33.3490   47.1450 C   0  0  0  0  0  0  0  0  0  0  0  0
   62.5660   32.9720   48.1590 C   0  0  0  0  0  0  0  0  0  0  0  0
   63.5860   33.8410   48.5770 C   0  0  0  0  0  0  0  0  0  0  0  0
   64.4660   33.4530   49.5910 C   0  0  0  0  0  0  0  0  0  0  0  0
   64.3360   32.1990   50.1940 C   0  0  0  0  0  0  0  0  0  0  0  0
   63.3250   31.3240   49.7860 C   0  0  0  0  0  0  0  0  0  0  0  0
   62.4340   31.7010   48.7680 C   0  0  0  0  0  0  0  0  0  0  0  0
   61.4160   30.8310   48.3510 C   0  0  0  0  0  0  0  0  0  0  0  0
   58.4170   30.7450   46.0470 C   0  0  0  0  0  0  0  0  0  0  0  0
   57.3930   29.8740   45.6250 C   0  0  0  0  0  0  0  0  0  0  0  0
   56.3500   30.3000   44.7870 O   0  0  0  0  0  0  0  0  0  0  0  0
   56.2880   30.0530   43.3860 C   0  0  0  0  0  0  0  0  0  0  0  0
   57.1830   27.4675   43.2153 H   0  0  0  0  0  0  0  0  0  0  0  0
   58.8715   27.2691   42.6355 H   0  0  0  0  0  0  0  0  0  0  0  0
   57.7510   25.8651   42.6355 H   0  0  0  0  0  0  0  0  0  0  0  0
   57.1527   24.8704   44.2909 H   0  0  0  0  0  0  0  0  0  0  0  0
   58.0512   24.9827   45.8521 H   0  0  0  0  0  0  0  0  0  0  0  0
   58.4190   27.0429   47.2543 H   0  0  0  0  0  0  0  0  0  0  0  0
   60.2253   28.5862   47.9879 H   0  0  0  0  0  0  0  0  0  0  0  0
   59.9697   32.7852   45.9410 H   0  0  0  0  0  0  0  0  0  0  0  0
   61.7749   34.3354   46.6683 H   0  0  0  0  0  0  0  0  0  0  0  0
   63.6929   34.8291   48.1056 H   0  0  0  0  0  0  0  0  0  0  0  0
   65.2639   34.1371   49.9157 H   0  0  0  0  0  0  0  0  0  0  0  0
   65.0313   31.8996   50.9921 H   0  0  0  0  0  0  0  0  0  0  0  0
   63.2271   30.3379   50.2634 H   0  0  0  0  0  0  0  0  0  0  0  0
   61.3151   29.8429   48.8237 H   0  0  0  0  0  0  0  0  0  0  0  0
   58.4123   31.7927   45.7118 H   0  0  0  0  0  0  0  0  0  0  0  0
   56.0236   28.9997   43.2107 H   0  0  0  0  0  0  0  0  0  0  0  0
   55.5251   30.7029   42.9325 H   0  0  0  0  0  0  0  0  0  0  0  0
   57.2674   30.2656   42.9325 H   0  0  0  0  0  0  0  0  0  0  0  0
  1  2  1  0
  2  3  1  0
  3  4  1  0
  4  5  2  0
  4  6  1  0
  6  7  1  0
  7  8  2  0
  8  9  1  0
  9 10  2  0
 10 11  1  0
 11 12  2  0
 12 13  1  0
 13 14  2  0
 14 15  1  0
 15 16  2  0
 16 17  1  0
 17 18  2  0
 18 19  1  0
 19 20  2  0
 10 21  1  0
 21 22  2  0
 22 23  1  0
 23 24  1  0
 22  7  1  0
 20 11  1  0
 19 14  1  0
  1 25  1  0
  1 26  1  0
  1 27  1  0
  3 28  1  0
  3 29  1  0
  8 30  1  0
  9 31  1  0
 12 32  1  0
 13 33  1  0
 15 34  1  0
 16 35  1  0
 17 36  1  0
 18 37  1  0
 20 38  1  0
 21 39  1  0
 24 40  1  0
 24 41  1  0
 24 42  1  0
M  END
>  <UniqueID>  (10) 
10

>  <SMILES>  (10) 
COCC(=O)Oc1ccc(-c2ccc3ccccc3c2)cc1OC

>  <Energy>  (10) 
57.29939494895062

>  <Genealogy>  (10) 
COCC(=O)Oc1ccc(-c2ccc3ccccc3c2)cc1OC (3D coordinates assigned)
COCC(=O)Oc1ccc(-c2ccc3ccccc3c2)cc1OC (optimized conformer: 57.29939494895062 kcal/mol)

>  <smiles>  (10) 
COCC(=O)Oc1ccc(-c2ccc3ccccc3c2)cc1OC

>  <score_type>  (10) 
oracle

>  <origin>  (10) 
adg

>  <m_score__min__energy>  (10) 
-8.0299999999999994

>  <m_primary>  (10) 
energy

$$$$
10:0
     RDKit          3D

 34 36  0  0  0  0  0  0  0  0999 V2000
   59.9350   34.5470   47.8910 C   0  0  0  0  0  0  0  0  0  0  0  0
   59.4670   34.0620   46.6010 N   0  0  0  0  0  0  0  0  0  0  0  0
   58.8140   32.9260   46.4240 N   0  0  0  0  0  0  0  0  0  0  0  0
   58.5070   32.9310   45.1090 C   0  0  0  0  0  0  0  0  0  0  0  0
   57.7780   31.8450   44.4200 C   0  0  0  0  0  0  0  0  0  0  0  0
   57.6730   31.8370   43.0180 C   0  0  0  0  0  0  0  0  0  0  0  0
   56.9750   30.8160   42.3680 C   0  0  0  0  0  0  0  0  0  0  0  0
   56.3800   29.7920   43.1080 C   0  0  0  0  0  0  0  0  0  0  0  0
   56.4940   29.7670   44.5030 C   0  0  0  0  0  0  0  0  0  0  0  0
   55.8530   28.7080   45.2270 N   0  0  0  0  0  0  0  0  0  0  0  0
   56.4510   27.4660   45.6180 C   0  0  0  0  0  0  0  0  0  0  0  0
   55.8200   26.6410   46.3340 O   0  0  0  0  0  0  0  0  0  0  0  0
   57.8450   27.1510   45.1840 C   0  0  0  0  0  0  0  0  0  0  0  0
   58.8070   28.0950   45.8330 C   0  0  0  0  0  0  0  0  0  0  0  0
   58.7550   28.5320   47.1510 C   0  0  0  0  0  0  0  0  0  0  0  0
   59.7480   29.4710   47.4560 C   0  0  0  0  0  0  0  0  0  0  0  0
   60.5720   29.7830   46.3810 C   0  0  0  0  0  0  0  0  0  0  0  0
   60.0610   28.8930   45.0480 S   0  0  0  0  0  0  0  0  0  0  0  0
   57.1790   30.8090   45.1580 C   0  0  0  0  0  0  0  0  0  0  0  0
   58.9500   34.0560   44.5030 N   0  0  0  0  0  0  0  0  0  0  0  0
   59.5390   34.7370   45.4690 N   0  0  0  0  0  0  0  0  0  0  0  0
   59.4146   34.0077   48.6962 H   0  0  0  0  0  0  0  0  0  0  0  0
   61.0184   34.3763   47.9759 H   0  0  0  0  0  0  0  0  0  0  0  0
   59.7257   35.6236   47.9759 H   0  0  0  0  0  0  0  0  0  0  0  0
   58.1429   32.6389   42.4297 H   0  0  0  0  0  0  0  0  0  0  0  0
   56.8940   30.8188   41.2710 H   0  0  0  0  0  0  0  0  0  0  0  0
   55.8181   28.9999   42.5914 H   0  0  0  0  0  0  0  0  0  0  0  0
   58.0933   26.1198   45.4755 H   0  0  0  0  0  0  0  0  0  0  0  0
   57.9162   27.2564   44.0914 H   0  0  0  0  0  0  0  0  0  0  0  0
   58.0109   28.1771   47.8793 H   0  0  0  0  0  0  0  0  0  0  0  0
   59.8650   29.9199   48.4534 H   0  0  0  0  0  0  0  0  0  0  0  0
   61.4140   30.4906   46.3988 H   0  0  0  0  0  0  0  0  0  0  0  0
   57.2459   30.8122   46.2560 H   0  0  0  0  0  0  0  0  0  0  0  0
   59.9810   35.6760   45.3520 H   0  0  0  0  0  0  0  0  0  0  0  0
  1  2  1  0
  2  3  1  0
  3  4  2  0
  4  5  1  0
  5  6  2  0
  6  7  1  0
  7  8  2  0
  8  9  1  0
  9 10  1  0
 10 11  1  0
 11 12  2  0
 11 13  1  0
 13 14  1  0
 14 15  2  0
 15 16  1  0
 16 17  2  0
 17 18  1  0
  9 19  2  0
  4 20  1  0
 20 21  2  0
 21  2  1  0
 19  5  1  0
 18 14  1  0
  1 22  1  0
  1 23  1  0
  1 24  1  0
  6 25  1  0
  7 26  1  0
  8 27  1  0
 13 28  1  0
 13 29  1  0
 15 30  1  0
 16 31  1  0
 17 32  1  0
 19 33  1  0
 21 34  1  0
M  CHG  2  10  -1  21   1
M  END
>  <UniqueID>  (11) 
11

>  <SMILES>  (11) 
Cn1nc(-c2cccc([N-]C(=O)Cc3cccs3)c2)n[nH+]1

>  <Energy>  (11) 
100.95190369276449

>  <Genealogy>  (11) 
Cn1nc(-c2cccc([N-]C(=O)Cc3cccs3)c2)n[nH+]1 (protonated)
Cn1nc(-c2cccc([N-]C(=O)Cc3cccs3)c2)n[nH+]1 (3D coordinates assigned)
Cn1nc(-c2cccc([N-]C(=O)Cc3cccs3)c2)n[nH+]1 (optimized conformer: 100.95190369276449 kcal/mol)

>  <smiles>  (11) 
Cn1nnc(-c2cccc(NC(=O)Cc3cccs3)c2)n1

>  <score_type>  (11) 
oracle

>  <origin>  (11) 
adg

>  <m_score__min__energy>  (11) 
-9.25

>  <m_primary>  (11) 
energy

$$$$
11:0
     RDKit          3D

 68 72  0  0  0  0  0  0  0  0999 V2000
   59.6770   33.6660   50.6260 C   0  0  0  0  0  0  0  0  0  0  0  0
   60.0030   34.4850   49.5080 O   0  0  0  0  0  0  0  0  0  0  0  0
   61.0860   34.2170   48.6660 C   0  0  0  0  0  0  0  0  0  0  0  0
   62.3680   34.1910   49.2300 C   0  0  0  0  0  0  0  0  0  0  0  0
   63.4930   33.9920   48.4270 C   0  0  0  0  0  0  0  0  0  0  0  0
   63.3480   33.8070   47.0520 C   0  0  0  0  0  0  0  0  0  0  0  0
   62.0730   33.7970   46.4800 C   0  0  0  0  0  0  0  0  0  0  0  0
   60.9320   33.9850   47.2780 C   0  0  0  0  0  0  0  0  0  0  0  0
   59.6290   33.8280   46.6890 N   0  0  0  0  0  0  0  0  0  0  0  0
   58.5690   33.1530   47.4500 C   0  0  0  0  0  0  0  0  0  0  0  0
   57.3840   32.8190   46.5420 C   0  0  0  0  0  0  0  0  0  0  0  0
   57.8850   32.1850   45.3070 N   0  0  0  0  0  0  0  0  0  0  0  0
   56.7710   31.6210   44.5160 C   0  0  0  0  0  0  0  0  0  0  0  0
   56.7380   30.1270   44.6460 C   0  0  0  0  0  0  0  0  0  0  0  0
   55.9760   29.4600   43.8920 O   0  0  0  0  0  0  0  0  0  0  0  0
   57.5930   29.4570   45.5840 N   0  0  0  0  0  0  0  0  0  0  0  0
   57.6470   28.0260   45.6710 C   0  0  0  0  0  0  0  0  0  0  0  0
   56.4420   27.3120   45.6280 C   0  0  0  0  0  0  0  0  0  0  0  0
   56.4430   25.9170   45.6130 C   0  0  0  0  0  0  0  0  0  0  0  0
   57.6490   25.2200   45.6370 C   0  0  0  0  0  0  0  0  0  0  0  0
   57.6470   23.3080   45.6080 Br  0  0  0  0  0  0  0  0  0  0  0  0
   58.8590   25.9170   45.6990 C   0  0  0  0  0  0  0  0  0  0  0  0
   58.8820   27.3240   45.7590 C   0  0  0  0  0  0  0  0  0  0  0  0
   60.1820   28.0240   45.9610 C   0  0  0  0  0  0  0  0  0  0  0  0
   61.1120   27.9090   45.1160 O   0  0  0  0  0  0  0  0  0  0  0  0
   60.4040   28.8410   47.1190 N   0  0  0  0  0  0  0  0  0  0  0  0
   60.9970   30.1780   46.9210 C   0  0  0  0  0  0  0  0  0  0  0  0
   60.9710   31.0320   48.2020 C   0  0  0  0  0  0  0  0  0  0  0  0
   61.3090   30.2080   49.4140 C   0  0  0  0  0  0  0  0  0  0  0  0
   62.0940   30.7300   50.4540 C   0  0  0  0  0  0  0  0  0  0  0  0
   62.3510   29.9570   51.5910 C   0  0  0  0  0  0  0  0  0  0  0  0
   61.8130   28.6710   51.7040 C   0  0  0  0  0  0  0  0  0  0  0  0
   61.0190   28.1520   50.6790 C   0  0  0  0  0  0  0  0  0  0  0  0
   60.7700   28.9150   49.5280 C   0  0  0  0  0  0  0  0  0  0  0  0
   59.8900   28.3950   48.4200 C   0  0  0  0  0  0  0  0  0  0  0  0
   58.7320   33.0970   44.4900 C   0  0  0  0  0  0  0  0  0  0  0  0
   59.3870   34.2370   45.3000 C   0  0  0  0  0  0  0  0  0  0  0  0
   59.8942   34.2117   51.5560 H   0  0  0  0  0  0  0  0  0  0  0  0
   58.6080   33.4089   50.5929 H   0  0  0  0  0  0  0  0  0  0  0  0
   60.2769   32.7446   50.5929 H   0  0  0  0  0  0  0  0  0  0  0  0
   62.4895   34.3285   50.3146 H   0  0  0  0  0  0  0  0  0  0  0  0
   64.4955   33.9811   48.8796 H   0  0  0  0  0  0  0  0  0  0  0  0
   64.2366   33.6691   46.4184 H   0  0  0  0  0  0  0  0  0  0  0  0
   61.9619   33.6408   45.3968 H   0  0  0  0  0  0  0  0  0  0  0  0
   58.9688   32.2226   47.8796 H   0  0  0  0  0  0  0  0  0  0  0  0
   58.2245   33.8243   48.2504 H   0  0  0  0  0  0  0  0  0  0  0  0
   56.7052   32.1270   47.0620 H   0  0  0  0  0  0  0  0  0  0  0  0
   56.8389   33.7407   46.2903 H   0  0  0  0  0  0  0  0  0  0  0  0
   55.8206   32.0372   44.8813 H   0  0  0  0  0  0  0  0  0  0  0  0
   56.9178   31.8828   43.4578 H   0  0  0  0  0  0  0  0  0  0  0  0
   58.0750   30.0200   46.3230 H   0  0  0  0  0  0  0  0  0  0  0  0
   55.4865   27.8565   45.6059 H   0  0  0  0  0  0  0  0  0  0  0  0
   55.4909   25.3670   45.5822 H   0  0  0  0  0  0  0  0  0  0  0  0
   59.8068   25.3587   45.7010 H   0  0  0  0  0  0  0  0  0  0  0  0
   62.0420   30.0560   46.5999 H   0  0  0  0  0  0  0  0  0  0  0  0
   60.3975   30.6994   46.1603 H   0  0  0  0  0  0  0  0  0  0  0  0
   61.7051   31.8455   48.1055 H   0  0  0  0  0  0  0  0  0  0  0  0
   59.9563   31.4372   48.3291 H   0  0  0  0  0  0  0  0  0  0  0  0
   62.5069   31.7465   50.3748 H   0  0  0  0  0  0  0  0  0  0  0  0
   62.9783   30.3618   52.3989 H   0  0  0  0  0  0  0  0  0  0  0  0
   62.0155   28.0677   52.6012 H   0  0  0  0  0  0  0  0  0  0  0  0
   60.5884   27.1442   50.7740 H   0  0  0  0  0  0  0  0  0  0  0  0
   59.8785   27.2955   48.4496 H   0  0  0  0  0  0  0  0  0  0  0  0
   58.8698   28.7827   48.5572 H   0  0  0  0  0  0  0  0  0  0  0  0
   59.5301   32.5019   44.0222 H   0  0  0  0  0  0  0  0  0  0  0  0
   58.0694   33.5709   43.7508 H   0  0  0  0  0  0  0  0  0  0  0  0
   60.3459   34.5049   44.8323 H   0  0  0  0  0  0  0  0  0  0  0  0
   58.7041   35.0993   45.3040 H   0  0  0  0  0  0  0  0  0  0  0  0
  1  2  1  0
  2  3  1  0
  3  4  2  0
  4  5  1  0
  5  6  2  0
  6  7  1  0
  7  8  2  0
  8  9  1  0
  9 10  1  0
 10 11  1  0
 11 12  1  0
 12 13  1  0
 13 14  1  0
 14 15  2  0
 14 16  1  0
 16 17  1  0
 17 18  2  0
 18 19  1  0
 19 20  2  0
 20 21  1  0
 20 22  1  0
 22 23  2  0
 23 24  1  0
 24 25  2  0
 24 26  1  0
 26 27  1  0
 27 28  1  0
 28 29  1  0
 29 30  2  0
 30 31  1  0
 31 32  2  0
 32 33  1  0
 33 34  2  0
 34 35  1  0
 12 36  1  0
 36 37  1  0
  8  3  1  0
 37  9  1  0
 23 17  1  0
 35 26  1  0
 34 29  1  0
  1 38  1  0
  1 39  1  0
  1 40  1  0
  4 41  1  0
  5 42  1  0
  6 43  1  0
  7 44  1  0
 10 45  1  0
 10 46  1  0
 11 47  1  0
 11 48  1  0
 13 49  1  0
 13 50  1  0
 16 51  1  0
 18 52  1  0
 19 53  1  0
 22 54  1  0
 27 55  1  0
 27 56  1  0
 28 57  1  0
 28 58  1  0
 30 59  1  0
 31 60  1  0
 32 61  1  0
 33 62  1  0
 35 63  1  0
 35 64  1  0
 36 65  1  0
 36 66  1  0
 37 67  1  0
 37 68  1  0
M  END
>  <UniqueID>  (12) 
12

>  <SMILES>  (12) 
COc1ccccc1N1CCN(CC(=O)Nc2ccc(Br)cc2C(=O)N2CCc3ccccc3C2)CC1

>  <Energy>  (12) 
105.18564776688426

>  <Genealogy>  (12) 
COc1ccccc1N1CCN(CC(=O)Nc2ccc(Br)cc2C(=O)N2CCc3ccccc3C2)CC1 (3D coordinates assigned)
COc1ccccc1N1CCN(CC(=O)Nc2ccc(Br)cc2C(=O)N2CCc3ccccc3C2)CC1 (nonaromatic ring conformer: 105.18564776688426 kcal/mol)

>  <smiles>  (12) 
COc1ccccc1N1CCN(CC(=O)Nc2ccc(Br)cc2C(=O)N2CCc3ccccc3C2)CC1

>  <score_type>  (12) 
oracle

>  <origin>  (12) 
adg

>  <m_score__min__energy>  (12) 
-9.3100000000000005

>  <m_primary>  (12) 
energy

$$$$
12:0
     RDKit          3D

 20 21  0  0  0  0  0  0  0  0999 V2000
   60.2230   34.5880   48.5450 C   0  0  0  0  0  0  0  0  0  0  0  0
   59.6080   34.0780   47.2750 C   0  0  0  0  0  0  0  0  0  0  0  0
   59.5870   34.8870   46.1280 C   0  0  0  0  0  0  0  0  0  0  0  0
   58.9830   34.4330   44.9520 C   0  0  0  0  0  0  0  0  0  0  0  0
   58.3800   33.1680   44.9130 C   0  0  0  0  0  0  0  0  0  0  0  0
   57.7690   32.6980   43.7430 C   0  0  0  0  0  0  0  0  0  0  0  0
   57.1740   31.4340   43.7410 C   0  0  0  0  0  0  0  0  0  0  0  0
   57.1860   30.6700   44.8660 N   0  0  0  0  0  0  0  0  0  0  0  0
   57.7700   31.0960   46.0170 C   0  0  0  0  0  0  0  0  0  0  0  0
   58.3820   32.3560   46.0690 C   0  0  0  0  0  0  0  0  0  0  0  0
   58.9900   32.8180   47.2470 C   0  0  0  0  0  0  0  0  0  0  0  0
   59.6976   34.1523   49.4076 H   0  0  0  0  0  0  0  0  0  0  0  0
   61.2845   34.3015   48.5792 H   0  0  0  0  0  0  0  0  0  0  0  0
   60.1378   35.6842   48.5792 H   0  0  0  0  0  0  0  0  0  0  0  0
   60.0490   35.8849   46.1548 H   0  0  0  0  0  0  0  0  0  0  0  0
   58.9808   35.0698   44.0551 H   0  0  0  0  0  0  0  0  0  0  0  0
   57.7579   33.3183   42.8347 H   0  0  0  0  0  0  0  0  0  0  0  0
   56.6942   31.0554   42.8264 H   0  0  0  0  0  0  0  0  0  0  0  0
   57.7624   30.4515   46.9084 H   0  0  0  0  0  0  0  0  0  0  0  0
   58.9821   32.1908   48.1507 H   0  0  0  0  0  0  0  0  0  0  0  0
  1  2  1  0
  2  3  2  0
  3  4  1  0
  4  5  2  0
  5  6  1  0
  6  7  2  0
  7  8  1  0
  8  9  2  0
  9 10  1  0
 10 11  2  0
 11  2  1  0
 10  5  1  0
  1 12  1  0
  1 13  1  0
  1 14  1  0
  3 15  1  0
  4 16  1  0
  6 17  1  0
  7 18  1  0
  9 19  1  0
 11 20  1  0
M  END
>  <UniqueID>  (13) 
13

>  <SMILES>  (13) 
Cc1ccc2ccncc2c1

>  <Energy>  (13) 
23.640162326527857

>  <Genealogy>  (13) 
Cc1ccc2ccncc2c1 (3D coordinates assigned)
Cc1ccc2ccncc2c1 (optimized conformer: 23.640162326527857 kcal/mol)

>  <smiles>  (13) 
Cc1ccc2ccncc2c1

>  <score_type>  (13) 
oracle

>  <origin>  (13) 
adg

>  <m_score__min__energy>  (13) 
-5.1900000000000004

>  <m_primary>  (13) 
energy

$$$$
13:0
     RDKit          3D

 41 42  0  0  0  0  0  0  0  0999 V2000
   60.1349   36.6126   46.2758 H   0  0  0  0  0  0  0  0  0  0  0  0
   59.6650   35.6260   46.1500 C   0  0  0  0  0  0  0  0  0  0  0  0
   59.2890   35.1910   44.8800 C   0  0  0  0  0  0  0  0  0  0  0  0
   59.4677   35.8314   44.0036 H   0  0  0  0  0  0  0  0  0  0  0  0
   58.6850   33.9410   44.7210 C   0  0  0  0  0  0  0  0  0  0  0  0
   58.4011   33.5960   43.7158 H   0  0  0  0  0  0  0  0  0  0  0  0
   58.4370   33.1200   45.8370 C   0  0  0  0  0  0  0  0  0  0  0  0
   57.7770   31.8160   45.6280 C   0  0  0  0  0  0  0  0  0  0  0  0
   57.9590   30.8170   46.5320 N   0  0  0  0  0  0  0  0  0  0  0  0
   57.3970   29.6190   46.3760 N   0  0  0  0  0  0  0  0  0  0  0  0
   56.6190   29.3230   45.3010 C   0  0  0  0  0  0  0  0  0  0  0  0
   56.0980   28.1330   45.2150 N   0  0  0  0  0  0  0  0  0  0  0  0
   56.6290   26.9290   45.7870 C   0  0  0  0  0  0  0  0  0  0  0  0
   55.8470   26.1160   46.3470 O   0  0  0  0  0  0  0  0  0  0  0  0
   58.0870   26.5730   45.6240 C   0  0  0  0  0  0  0  0  0  0  0  0
   58.3274   26.5379   44.5512 H   0  0  0  0  0  0  0  0  0  0  0  0
   58.2558   25.5951   46.0986 H   0  0  0  0  0  0  0  0  0  0  0  0
   58.9740   27.5670   46.2840 N   0  0  0  0  0  0  0  0  0  0  0  0
   58.5360   28.5170   46.1960 H   0  0  0  0  0  0  0  0  0  0  0  0
   59.1190   27.2430   47.7280 C   0  0  0  0  0  0  0  0  0  0  0  0
   59.8241   26.4055   47.8353 H   0  0  0  0  0  0  0  0  0  0  0  0
   58.1255   26.9782   48.1190 H   0  0  0  0  0  0  0  0  0  0  0  0
   59.6420   28.4360   48.5320 C   0  0  0  0  0  0  0  0  0  0  0  0
   59.5486   28.2229   49.6071 H   0  0  0  0  0  0  0  0  0  0  0  0
   60.6992   28.6106   48.2833 H   0  0  0  0  0  0  0  0  0  0  0  0
   59.0541   29.3318   48.2833 H   0  0  0  0  0  0  0  0  0  0  0  0
   60.3020   27.5930   45.6160 C   0  0  0  0  0  0  0  0  0  0  0  0
   61.0831   27.4332   46.3739 H   0  0  0  0  0  0  0  0  0  0  0  0
   60.3136   26.7980   44.8558 H   0  0  0  0  0  0  0  0  0  0  0  0
   60.5670   28.9270   44.9070 C   0  0  0  0  0  0  0  0  0  0  0  0
   60.7238   29.7161   45.6571 H   0  0  0  0  0  0  0  0  0  0  0  0
   61.4646   28.8358   44.2777 H   0  0  0  0  0  0  0  0  0  0  0  0
   59.7027   29.1858   44.2777 H   0  0  0  0  0  0  0  0  0  0  0  0
   56.4420   30.3030   44.3090 C   0  0  0  0  0  0  0  0  0  0  0  0
   55.8519   30.0810   43.4076 H   0  0  0  0  0  0  0  0  0  0  0  0
   57.0210   31.5570   44.4790 C   0  0  0  0  0  0  0  0  0  0  0  0
   56.8856   32.3382   43.7166 H   0  0  0  0  0  0  0  0  0  0  0  0
   58.8390   33.5590   47.1180 C   0  0  0  0  0  0  0  0  0  0  0  0
   58.6720   32.5460   48.5490 Cl  0  0  0  0  0  0  0  0  0  0  0  0
   59.4460   34.8110   47.2630 C   0  0  0  0  0  0  0  0  0  0  0  0
   59.7532   35.1563   48.2612 H   0  0  0  0  0  0  0  0  0  0  0  0
  1  2  1  0
  2  3  2  0
  3  4  1  0
  3  5  1  0
  5  6  1  0
  5  7  2  0
  7  8  1  0
  8  9  2  0
  9 10  1  0
 10 11  1  0
 11 12  2  0
 12 13  1  0
 13 14  2  0
 13 15  1  0
 15 16  1  0
 15 17  1  0
 15 18  1  0
 18 19  1  0
 18 20  1  0
 20 21  1  0
 20 22  1  0
 20 23  1  0
 23 24  1  0
 23 25  1  0
 23 26  1  0
 18 27  1  0
 27 28  1  0
 27 29  1  0
 27 30  1  0
 30 31  1  0
 30 32  1  0
 30 33  1  0
 11 34  1  0
 34 35  1  0
 34 36  2  0
 36 37  1  0
  7 38  1  0
 38 39  1  0
 38 40  2  0
 40 41  1  0
 40  2  1  0
 36  8  1  0
M  CHG  2  10  -1  18   1
M  END
>  <UniqueID>  (14) 
14

>  <SMILES>  (14) 
CC[NH+](CC)CC(=O)/N=c1\ccc(-c2ccccc2Cl)n[n-]1

>  <Energy>  (14) 
60.63304759308179

>  <Genealogy>  (14) 
CC[NH+](CC)CC(=O)N=c1ccc(-c2ccccc2Cl)n[n-]1 (protonated)
CC[NH+](CC)CC(=O)/N=c1\ccc(-c2ccccc2Cl)n[n-]1 (cis-trans isomerization)
CC[NH+](CC)CC(=O)/N=c1\ccc(-c2ccccc2Cl)n[n-]1 (3D coordinates assigned)
CC[NH+](CC)CC(=O)/N=c1\ccc(-c2ccccc2Cl)n[n-]1 (optimized conformer: 60.63304759308179 kcal/mol)

>  <smiles>  (14) 
CCN(CC)CC(=O)N=c1ccc(-c2ccccc2Cl)n[nH]1

>  <score_type>  (14) 
oracle

>  <origin>  (14) 
adg

>  <m_score__min__energy>  (14) 
-7.1299999999999999

>  <m_primary>  (14) 
energy

$$$$
14:0
     RDKit          3D

 52 55  0  0  0  0  0  0  0  0999 V2000
   58.8130   34.2140   45.9540 C   0  0  0  0  0  0  0  0  0  0  0  0
   60.2790   34.4060   46.3570 C   0  0  0  0  0  0  0  0  0  0  0  0
   60.6450   33.6670   47.5960 N   0  0  1  0  0  0  0  0  0  0  0  0
   59.5570   32.6990   47.9060 C   0  0  0  0  0  0  0  0  0  0  0  0
   60.0410   31.5650   48.8120 C   0  0  0  0  0  0  0  0  0  0  0  0
   61.1080   30.7750   48.1630 N   0  0  0  0  0  0  0  0  0  0  0  0
   60.7060   29.4160   47.7330 C   0  0  0  0  0  0  0  0  0  0  0  0
   59.5490   29.3990   46.7530 C   0  0  0  0  0  0  0  0  0  0  0  0
   58.5330   28.4350   46.8640 C   0  0  0  0  0  0  0  0  0  0  0  0
   57.4590   28.4270   45.9710 C   0  0  0  0  0  0  0  0  0  0  0  0
   57.3900   29.3740   44.9410 C   0  0  0  0  0  0  0  0  0  0  0  0
   56.3130   29.3780   44.0410 C   0  0  0  0  0  0  0  0  0  0  0  0
   56.2600   30.3240   43.0140 C   0  0  0  0  0  0  0  0  0  0  0  0
   57.2790   31.2700   42.8760 C   0  0  0  0  0  0  0  0  0  0  0  0
   58.3580   31.2770   43.7650 C   0  0  0  0  0  0  0  0  0  0  0  0
   58.4220   30.3330   44.8030 C   0  0  0  0  0  0  0  0  0  0  0  0
   59.4980   30.3310   45.7030 C   0  0  0  0  0  0  0  0  0  0  0  0
   61.8980   31.5150   47.1530 C   0  0  0  0  0  0  0  0  0  0  0  0
   62.0050   33.0250   47.4890 C   0  0  2  0  0  0  0  0  0  0  0  0
   62.8860   33.3430   48.7080 C   0  0  0  0  0  0  0  0  0  0  0  0
   64.1490   32.7240   48.8020 C   0  0  0  0  0  0  0  0  0  0  0  0
   64.9950   32.9750   49.8850 C   0  0  0  0  0  0  0  0  0  0  0  0
   64.5940   33.8430   50.9000 C   0  0  0  0  0  0  0  0  0  0  0  0
   65.4160   34.0850   51.9510 F   0  0  0  0  0  0  0  0  0  0  0  0
   63.3420   34.4550   50.8360 C   0  0  0  0  0  0  0  0  0  0  0  0
   62.4910   34.2080   49.7550 C   0  0  0  0  0  0  0  0  0  0  0  0
   58.1918   34.1326   46.8582 H   0  0  0  0  0  0  0  0  0  0  0  0
   58.4808   35.0763   45.3573 H   0  0  0  0  0  0  0  0  0  0  0  0
   58.7141   33.2952   45.3573 H   0  0  0  0  0  0  0  0  0  0  0  0
   60.9176   34.0498   45.5352 H   0  0  0  0  0  0  0  0  0  0  0  0
   60.4265   35.4773   46.5582 H   0  0  0  0  0  0  0  0  0  0  0  0
   60.6430   34.3590   48.3840 H   0  0  0  0  0  0  0  0  0  0  0  0
   58.7393   33.2335   48.4117 H   0  0  0  0  0  0  0  0  0  0  0  0
   59.2160   32.2557   46.9588 H   0  0  0  0  0  0  0  0  0  0  0  0
   60.4317   31.9950   49.7460 H   0  0  0  0  0  0  0  0  0  0  0  0
   59.1908   30.8974   49.0156 H   0  0  0  0  0  0  0  0  0  0  0  0
   61.5716   28.9336   47.2554 H   0  0  0  0  0  0  0  0  0  0  0  0
   60.3692   28.8825   48.6341 H   0  0  0  0  0  0  0  0  0  0  0  0
   58.5838   27.6793   47.6618 H   0  0  0  0  0  0  0  0  0  0  0  0
   56.6641   27.6740   46.0769 H   0  0  0  0  0  0  0  0  0  0  0  0
   55.5088   28.6347   44.1444 H   0  0  0  0  0  0  0  0  0  0  0  0
   55.4133   30.3240   42.3118 H   0  0  0  0  0  0  0  0  0  0  0  0
   57.2321   32.0118   42.0651 H   0  0  0  0  0  0  0  0  0  0  0  0
   59.1582   32.0231   43.6513 H   0  0  0  0  0  0  0  0  0  0  0  0
   60.3086   31.0653   45.5856 H   0  0  0  0  0  0  0  0  0  0  0  0
   62.9109   31.0879   47.1123 H   0  0  0  0  0  0  0  0  0  0  0  0
   61.3854   31.4187   46.1845 H   0  0  0  0  0  0  0  0  0  0  0  0
   62.5306   33.4756   46.6342 H   0  0  0  0  0  0  0  0  0  0  0  0
   64.4734   32.0326   48.0103 H   0  0  0  0  0  0  0  0  0  0  0  0
   65.9794   32.4869   49.9372 H   0  0  0  0  0  0  0  0  0  0  0  0
   63.0231   35.1349   51.6398 H   0  0  0  0  0  0  0  0  0  0  0  0
   61.5036   34.6915   49.7182 H   0  0  0  0  0  0  0  0  0  0  0  0
  1  2  1  0
  2  3  1  0
  3  4  1  0
  4  5  1  0
  5  6  1  0
  6  7  1  0
  7  8  1  0
  8  9  2  0
  9 10  1  0
 10 11  2  0
 11 12  1  0
 12 13  2  0
 13 14  1  0
 14 15  2  0
 15 16  1  0
 16 17  2  0
  6 18  1  0
 18 19  1  0
 19 20  1  0
 20 21  2  0
 21 22  1  0
 22 23  2  0
 23 24  1  0
 23 25  1  0
 25 26  2  0
 19  3  1  0
 26 20  1  0
 17  8  1  0
 16 11  1  0
  1 27  1  0
  1 28  1  0
  1 29  1  0
  2 30  1  0
  2 31  1  0
  3 32  1  1
  4 33  1  0
  4 34  1  0
  5 35  1  0
  5 36  1  0
  7 37  1  0
  7 38  1  0
  9 39  1  0
 10 40  1  0
 12 41  1  0
 13 42  1  0
 14 43  1  0
 15 44  1  0
 17 45  1  0
 18 46  1  0
 18 47  1  0
 19 48  1  6
 21 49  1  0
 22 50  1  0
 25 51  1  0
 26 52  1  0
M  CHG  1   3   1
M  END
>  <UniqueID>  (15) 
15

>  <SMILES>  (15) 
CC[N@H+]1CCN(Cc2ccc3ccccc3c2)C[C@@H]1c1ccc(F)cc1

>  <Energy>  (15) 
80.35683427504992

>  <Genealogy>  (15) 
CC[NH+]1CCN(Cc2ccc3ccccc3c2)CC1c1ccc(F)cc1 (protonated)
CC[N@H+]1CCN(Cc2ccc3ccccc3c2)C[C@@H]1c1ccc(F)cc1 (chirality)
CC[N@H+]1CCN(Cc2ccc3ccccc3c2)C[C@@H]1c1ccc(F)cc1 (3D coordinates assigned)
CC[N@H+]1CCN(Cc2ccc3ccccc3c2)C[C@@H]1c1ccc(F)cc1 (nonaromatic ring conformer: 80.35683427504992 kcal/mol)

>  <smiles>  (15) 
CCN1CCN(Cc2ccc3ccccc3c2)CC1c1ccc(F)cc1

>  <score_type>  (15) 
oracle

>  <origin>  (15) 
adg

>  <m_score__min__energy>  (15) 
-6.4699999999999998

>  <m_primary>  (15) 
energy

$$$$
15:0
     RDKit          3D

 46 46  0  0  0  0  0  0  0  0999 V2000
   56.8582   29.7064   42.2629 H   0  0  0  0  0  0  0  0  0  0  0  0
   56.9090   29.2930   43.2810 C   0  0  0  0  0  0  0  0  0  0  0  0
   56.1260   29.9410   44.3570 C   0  0  0  0  0  0  0  0  0  0  0  0
   55.1570   29.3340   44.8870 O   0  0  0  0  0  0  0  0  0  0  0  0
   56.4410   31.2580   44.8230 N   0  0  0  0  0  0  0  0  0  0  0  0
   57.3870   32.1620   44.1840 C   0  0  0  0  0  0  0  0  0  0  0  0
   56.8476   33.0569   43.8403 H   0  0  0  0  0  0  0  0  0  0  0  0
   57.8503   31.6307   43.3396 H   0  0  0  0  0  0  0  0  0  0  0  0
   58.5120   32.5970   45.1540 C   0  0  0  0  0  0  0  0  0  0  0  0
   58.6298   33.6869   45.0629 H   0  0  0  0  0  0  0  0  0  0  0  0
   59.3973   32.0170   44.8543 H   0  0  0  0  0  0  0  0  0  0  0  0
   58.3010   32.2820   46.5970 N   0  0  0  0  0  0  0  0  0  0  0  0
   57.3680   31.8100   46.6310 H   0  0  0  0  0  0  0  0  0  0  0  0
   59.3280   31.3290   47.1160 C   0  0  0  0  0  0  0  0  0  0  0  0
   60.2710   31.8751   47.2658 H   0  0  0  0  0  0  0  0  0  0  0  0
   59.4378   30.5231   46.3754 H   0  0  0  0  0  0  0  0  0  0  0  0
   58.9160   30.6800   48.4530 C   0  0  0  0  0  0  0  0  0  0  0  0
   58.2292   29.8467   48.2437 H   0  0  0  0  0  0  0  0  0  0  0  0
   58.4354   31.4559   49.0670 H   0  0  0  0  0  0  0  0  0  0  0  0
   60.1140   30.1430   49.2370 C   0  0  0  0  0  0  0  0  0  0  0  0
   59.9160   30.2317   50.3154 H   0  0  0  0  0  0  0  0  0  0  0  0
   60.2765   29.0859   48.9798 H   0  0  0  0  0  0  0  0  0  0  0  0
   61.0112   30.7251   48.9798 H   0  0  0  0  0  0  0  0  0  0  0  0
   58.1880   33.5040   47.4370 C   0  0  0  0  0  0  0  0  0  0  0  0
   57.4131   34.1544   47.0051 H   0  0  0  0  0  0  0  0  0  0  0  0
   57.9333   33.1770   48.4559 H   0  0  0  0  0  0  0  0  0  0  0  0
   59.5070   34.3060   47.5290 C   0  0  0  0  0  0  0  0  0  0  0  0
   59.5282   34.8393   48.4909 H   0  0  0  0  0  0  0  0  0  0  0  0
   60.3378   33.5903   47.4422 H   0  0  0  0  0  0  0  0  0  0  0  0
   59.6570   35.3270   46.4000 C   0  0  0  0  0  0  0  0  0  0  0  0
   59.8042   36.3291   46.8291 H   0  0  0  0  0  0  0  0  0  0  0  0
   60.5259   35.0625   45.7795 H   0  0  0  0  0  0  0  0  0  0  0  0
   58.7487   35.3236   45.7795 H   0  0  0  0  0  0  0  0  0  0  0  0
   57.6770   28.2200   43.5070 C   0  0  0  0  0  0  0  0  0  0  0  0
   57.6716   27.4018   42.7718 H   0  0  0  0  0  0  0  0  0  0  0  0
   58.5320   28.0920   44.7060 C   0  0  0  0  0  0  0  0  0  0  0  0
   60.0850   28.7210   44.8930 S   0  0  0  0  0  0  0  0  0  0  0  0
   60.3400   28.1620   46.4560 C   0  0  0  0  0  0  0  0  0  0  0  0
   61.2484   28.3173   47.0565 H   0  0  0  0  0  0  0  0  0  0  0  0
   59.2060   27.4700   46.8590 C   0  0  0  0  0  0  0  0  0  0  0  0
   59.1094   26.9984   47.8481 H   0  0  0  0  0  0  0  0  0  0  0  0
   58.1940   27.4280   45.8870 C   0  0  0  0  0  0  0  0  0  0  0  0
   56.8840   26.7330   46.1120 C   0  0  0  0  0  0  0  0  0  0  0  0
   56.7012   26.6360   47.1924 H   0  0  0  0  0  0  0  0  0  0  0  0
   56.0741   27.3200   45.6543 H   0  0  0  0  0  0  0  0  0  0  0  0
   56.9160   25.7332   45.6543 H   0  0  0  0  0  0  0  0  0  0  0  0
  1  2  1  0
  2  3  1  0
  3  4  2  0
  3  5  1  0
  5  6  1  0
  6  7  1  0
  6  8  1  0
  6  9  1  0
  9 10  1  0
  9 11  1  0
  9 12  1  0
 12 13  1  0
 12 14  1  0
 14 15  1  0
 14 16  1  0
 14 17  1  0
 17 18  1  0
 17 19  1  0
 17 20  1  0
 20 21  1  0
 20 22  1  0
 20 23  1  0
 12 24  1  0
 24 25  1  0
 24 26  1  0
 24 27  1  0
 27 28  1  0
 27 29  1  0
 27 30  1  0
 30 31  1  0
 30 32  1  0
 30 33  1  0
  2 34  2  0
 34 35  1  0
 34 36  1  0
 36 37  1  0
 37 38  1  0
 38 39  1  0
 38 40  2  0
 40 41  1  0
 40 42  1  0
 42 43  1  0
 43 44  1  0
 43 45  1  0
 43 46  1  0
 42 36  2  0
M  CHG  2   5  -1  12   1
M  END
>  <UniqueID>  (16) 
16

>  <SMILES>  (16) 
CCC[NH+](CCC)CC[N-]C(=O)/C=C/c1sccc1C

>  <Energy>  (16) 
68.47206728051471

>  <Genealogy>  (16) 
CCC[NH+](CCC)CC[N-]C(=O)C=Cc1sccc1C (protonated)
CCC[NH+](CCC)CC[N-]C(=O)/C=C/c1sccc1C (cis-trans isomerization)
CCC[NH+](CCC)CC[N-]C(=O)/C=C/c1sccc1C (3D coordinates assigned)
CCC[NH+](CCC)CC[N-]C(=O)/C=C/c1sccc1C (optimized conformer: 68.47206728051471 kcal/mol)

>  <smiles>  (16) 
CCCN(CCC)CCNC(=O)C=Cc1sccc1C

>  <score_type>  (16) 
oracle

>  <origin>  (16) 
adg

>  <m_score__min__energy>  (16) 
-6.1200000000000001

>  <m_primary>  (16) 
energy

$$$$
16:0
     RDKit          3D

 55 56  0  0  0  0  0  0  0  0999 V2000
   57.9857   33.8869   42.7306 H   0  0  0  0  0  0  0  0  0  0  0  0
   58.1400   33.0710   43.4520 C   0  0  0  0  0  0  0  0  0  0  0  0
   57.9670   31.8480   43.0340 N   0  0  0  0  0  0  0  0  0  0  0  0
   57.6410   30.6930   43.8240 C   0  0  0  0  0  0  0  0  0  0  0  0
   56.3080   30.3370   44.0890 C   0  0  0  0  0  0  0  0  0  0  0  0
   55.4872   30.9377   43.6702 H   0  0  0  0  0  0  0  0  0  0  0  0
   56.0200   29.2220   44.8830 C   0  0  0  0  0  0  0  0  0  0  0  0
   54.9739   28.9444   45.0793 H   0  0  0  0  0  0  0  0  0  0  0  0
   57.0630   28.4550   45.4310 C   0  0  0  0  0  0  0  0  0  0  0  0
   56.8130   27.3120   46.2630 N   0  0  0  0  0  0  0  0  0  0  0  0
   55.9920   26.1840   45.9370 C   0  0  0  0  0  0  0  0  0  0  0  0
   54.7360   26.2640   45.9780 O   0  0  0  0  0  0  0  0  0  0  0  0
   56.6340   24.9340   45.4360 C   0  0  0  0  0  0  0  0  0  0  0  0
   56.9509   24.3170   46.2897 H   0  0  0  0  0  0  0  0  0  0  0  0
   55.9133   24.3713   44.8244 H   0  0  0  0  0  0  0  0  0  0  0  0
   57.5112   25.1920   44.8244 H   0  0  0  0  0  0  0  0  0  0  0  0
   58.3880   28.8510   45.2160 C   0  0  0  0  0  0  0  0  0  0  0  0
   59.2092   28.2819   45.6762 H   0  0  0  0  0  0  0  0  0  0  0  0
   58.6760   29.9640   44.4210 C   0  0  0  0  0  0  0  0  0  0  0  0
   59.7213   30.2685   44.2638 H   0  0  0  0  0  0  0  0  0  0  0  0
   58.5300   33.4340   44.8320 C   0  0  0  0  0  0  0  0  0  0  0  0
   59.6340   34.2730   45.0320 C   0  0  0  0  0  0  0  0  0  0  0  0
   60.2067   34.6378   44.1666 H   0  0  0  0  0  0  0  0  0  0  0  0
   60.0130   34.6500   46.3250 C   0  0  0  0  0  0  0  0  0  0  0  0
   60.8907   35.2967   46.4716 H   0  0  0  0  0  0  0  0  0  0  0  0
   59.2770   34.2060   47.4380 C   0  0  0  0  0  0  0  0  0  0  0  0
   59.6550   34.5880   48.8130 C   0  0  0  0  0  0  0  0  0  0  0  0
   58.9564   35.1815   49.4211 H   0  0  0  0  0  0  0  0  0  0  0  0
   60.7980   34.2350   49.3160 N   0  0  0  0  0  0  0  0  0  0  0  0
   60.9840   33.0100   50.0880 C   0  0  0  0  0  0  0  0  0  0  0  0
   60.0018   32.5473   50.2645 H   0  0  0  0  0  0  0  0  0  0  0  0
   61.4719   33.2742   51.0378 H   0  0  0  0  0  0  0  0  0  0  0  0
   61.8860   32.0010   49.3490 C   0  0  0  0  0  0  0  0  0  0  0  0
   61.5157   30.9868   49.5595 H   0  0  0  0  0  0  0  0  0  0  0  0
   62.9107   32.1616   49.7153 H   0  0  0  0  0  0  0  0  0  0  0  0
   61.9210   32.1900   47.8720 N   0  0  0  0  0  0  0  0  0  0  0  0
   61.3330   33.0270   47.6400 H   0  0  0  0  0  0  0  0  0  0  0  0
   63.3060   32.4750   47.4060 C   0  0  0  0  0  0  0  0  0  0  0  0
   63.6122   31.6832   46.7065 H   0  0  0  0  0  0  0  0  0  0  0  0
   63.9558   32.5066   48.2930 H   0  0  0  0  0  0  0  0  0  0  0  0
   63.4230   33.8300   46.6960 C   0  0  0  0  0  0  0  0  0  0  0  0
   63.4923   34.6320   47.4457 H   0  0  0  0  0  0  0  0  0  0  0  0
   64.3251   33.8375   46.0666 H   0  0  0  0  0  0  0  0  0  0  0  0
   62.5355   33.9920   46.0666 H   0  0  0  0  0  0  0  0  0  0  0  0
   61.3270   31.0550   47.1150 C   0  0  0  0  0  0  0  0  0  0  0  0
   61.0822   31.4079   46.1023 H   0  0  0  0  0  0  0  0  0  0  0  0
   62.0758   30.2492   47.1199 H   0  0  0  0  0  0  0  0  0  0  0  0
   60.0520   30.4710   47.7410 C   0  0  0  0  0  0  0  0  0  0  0  0
   60.1319   30.5076   48.8375 H   0  0  0  0  0  0  0  0  0  0  0  0
   59.1814   31.0601   47.4169 H   0  0  0  0  0  0  0  0  0  0  0  0
   59.9294   29.4270   47.4169 H   0  0  0  0  0  0  0  0  0  0  0  0
   58.1530   33.3920   47.2340 C   0  0  0  0  0  0  0  0  0  0  0  0
   57.5654   33.0451   48.0968 H   0  0  0  0  0  0  0  0  0  0  0  0
   57.7750   33.0190   45.9410 C   0  0  0  0  0  0  0  0  0  0  0  0
   56.8805   32.3965   45.7912 H   0  0  0  0  0  0  0  0  0  0  0  0
  1  2  1  0
  2  3  2  0
  3  4  1  0
  4  5  2  0
  5  6  1  0
  5  7  1  0
  7  8  1  0
  7  9  2  0
  9 10  1  0
 10 11  1  0
 11 12  2  0
 11 13  1  0
 13 14  1  0
 13 15  1  0
 13 16  1  0
  9 17  1  0
 17 18  1  0
 17 19  2  0
 19 20  1  0
  2 21  1  0
 21 22  2  0
 22 23  1  0
 22 24  1  0
 24 25  1  0
 24 26  2  0
 26 27  1  0
 27 28  1  0
 27 29  2  0
 29 30  1  0
 30 31  1  0
 30 32  1  0
 30 33  1  0
 33 34  1  0
 33 35  1  0
 33 36  1  0
 36 37  1  0
 36 38  1  0
 38 39  1  0
 38 40  1  0
 38 41  1  0
 41 42  1  0
 41 43  1  0
 41 44  1  0
 36 45  1  0
 45 46  1  0
 45 47  1  0
 45 48  1  0
 48 49  1  0
 48 50  1  0
 48 51  1  0
 26 52  1  0
 52 53  1  0
 52 54  2  0
 54 55  1  0
 19  4  1  0
 54 21  1  0
M  CHG  2  10  -1  36   1
M  END
>  <UniqueID>  (17) 
17

>  <SMILES>  (17) 
CC[NH+](CC)CC/N=C/c1ccc(/C=N\c2ccc([N-]C(C)=O)cc2)cc1

>  <Energy>  (17) 
67.01579015968744

>  <Genealogy>  (17) 
CC[NH+](CC)CCN=Cc1ccc(C=Nc2ccc([N-]C(C)=O)cc2)cc1 (protonated)
CC[NH+](CC)CC/N=C/c1ccc(/C=N\c2ccc([N-]C(C)=O)cc2)cc1 (cis-trans isomerization)
CC[NH+](CC)CC/N=C/c1ccc(/C=N\c2ccc([N-]C(C)=O)cc2)cc1 (3D coordinates assigned)
CC[NH+](CC)CC/N=C/c1ccc(/C=N\c2ccc([N-]C(C)=O)cc2)cc1 (optimized conformer: 67.01579015968744 kcal/mol)

>  <smiles>  (17) 
CCN(CC)CCN=Cc1ccc(C=Nc2ccc(NC(C)=O)cc2)cc1

>  <score_type>  (17) 
oracle

>  <origin>  (17) 
adg

>  <m_score__min__energy>  (17) 
-8.9600000000000009

>  <m_primary>  (17) 
energy

$$$$
17:0
     RDKit          3D

 34 35  0  0  0  0  0  0  0  0999 V2000
   58.1270   32.7680   46.7500 C   0  0  0  0  0  0  0  0  0  0  0  0
   58.2060   33.3460   45.3850 N   0  0  0  0  0  0  0  0  0  0  0  0
   59.4080   34.2030   45.2830 C   0  0  0  0  0  0  0  0  0  0  0  0
   57.0170   34.2190   45.2040 C   0  0  0  0  0  0  0  0  0  0  0  0
   58.1490   32.2950   44.3110 C   0  0  0  0  0  0  0  0  0  0  0  0
   57.4000   30.9420   44.5580 C   0  0  1  0  0  0  0  0  0  0  0  0
   56.6100   30.3680   43.3520 C   0  0  0  0  0  0  0  0  0  0  0  0
   57.0740   28.9850   43.1070 N   0  0  0  0  0  0  0  0  0  0  0  0
   58.0040   28.7290   44.1560 C   0  0  0  0  0  0  0  0  0  0  0  0
   58.6160   27.4950   44.3990 C   0  0  0  0  0  0  0  0  0  0  0  0
   59.4310   27.3540   45.5330 C   0  0  0  0  0  0  0  0  0  0  0  0
   59.6030   28.4330   46.4180 C   0  0  0  0  0  0  0  0  0  0  0  0
   58.9740   29.6610   46.1610 C   0  0  0  0  0  0  0  0  0  0  0  0
   58.2150   29.7920   44.9930 C   0  0  0  0  0  0  0  0  0  0  0  0
   58.2366   33.5701   47.4947 H   0  0  0  0  0  0  0  0  0  0  0  0
   57.1530   32.2744   46.8834 H   0  0  0  0  0  0  0  0  0  0  0  0
   58.9328   32.0312   46.8834 H   0  0  0  0  0  0  0  0  0  0  0  0
   59.7640   34.4569   46.2924 H   0  0  0  0  0  0  0  0  0  0  0  0
   60.1981   33.6633   44.7404 H   0  0  0  0  0  0  0  0  0  0  0  0
   59.1553   35.1259   44.7404 H   0  0  0  0  0  0  0  0  0  0  0  0
   56.6218   34.5091   46.1887 H   0  0  0  0  0  0  0  0  0  0  0  0
   57.3061   35.1210   44.6447 H   0  0  0  0  0  0  0  0  0  0  0  0
   56.2430   33.6731   44.6447 H   0  0  0  0  0  0  0  0  0  0  0  0
   57.6723   32.7635   43.4374 H   0  0  0  0  0  0  0  0  0  0  0  0
   59.1992   31.9814   44.2176 H   0  0  0  0  0  0  0  0  0  0  0  0
   56.7432   31.3015   45.3638 H   0  0  0  0  0  0  0  0  0  0  0  0
   55.5340   30.3641   43.5804 H   0  0  0  0  0  0  0  0  0  0  0  0
   56.7794   30.9878   42.4591 H   0  0  0  0  0  0  0  0  0  0  0  0
   56.2760   28.3100   43.1720 H   0  0  0  0  0  0  0  0  0  0  0  0
   57.5510   28.9030   42.1800 H   0  0  0  0  0  0  0  0  0  0  0  0
   58.4612   26.6492   43.7129 H   0  0  0  0  0  0  0  0  0  0  0  0
   59.9364   26.3970   45.7299 H   0  0  0  0  0  0  0  0  0  0  0  0
   60.2314   28.3145   47.3130 H   0  0  0  0  0  0  0  0  0  0  0  0
   59.0755   30.5021   46.8626 H   0  0  0  0  0  0  0  0  0  0  0  0
  1  2  1  0
  2  3  1  0
  2  4  1  0
  2  5  1  0
  5  6  1  0
  6  7  1  0
  7  8  1  0
  8  9  1  0
  9 10  2  0
 10 11  1  0
 11 12  2  0
 12 13  1  0
 13 14  2  0
 14  6  1  0
 14  9  1  0
  1 15  1  0
  1 16  1  0
  1 17  1  0
  3 18  1  0
  3 19  1  0
  3 20  1  0
  4 21  1  0
  4 22  1  0
  4 23  1  0
  5 24  1  0
  5 25  1  0
  6 26  1  1
  7 27  1  0
  7 28  1  0
  8 29  1  0
  8 30  1  0
 10 31  1  0
 11 32  1  0
 12 33  1  0
 13 34  1  0
M  CHG  2   2   1   8   1
M  END
>  <UniqueID>  (18) 
18

>  <SMILES>  (18) 
C[N+](C)(C)C[C@H]1C[NH2+]c2ccccc21

>  <Energy>  (18) 
58.80683691144257

>  <Genealogy>  (18) 
C[N+](C)(C)CC1C[NH2+]c2ccccc21 (protonated)
C[N+](C)(C)C[C@H]1C[NH2+]c2ccccc21 (chirality)
C[N+](C)(C)C[C@H]1C[NH2+]c2ccccc21 (3D coordinates assigned)
C[N+](C)(C)C[C@H]1C[NH2+]c2ccccc21 (nonaromatic ring conformer: 58.80683691144257 kcal/mol)

>  <smiles>  (18) 
C[N+](C)(C)CC1CNc2ccccc21

>  <score_type>  (18) 
oracle

>  <origin>  (18) 
adg

>  <m_score__min__energy>  (18) 
-2.8100000000000001

>  <m_primary>  (18) 
energy

$$$$
18:0
     RDKit          3D

 64 68  0  0  0  0  0  0  0  0999 V2000
   56.8357   33.3950   45.7390 H   0  0  0  0  0  0  0  0  0  0  0  0
   57.8450   33.4490   46.1730 C   0  0  0  0  0  0  0  0  0  0  0  0
   58.6940   32.3950   46.0490 N   0  0  0  0  0  0  0  0  0  0  0  0
   59.9520   32.4110   46.5680 C   0  0  0  0  0  0  0  0  0  0  0  0
   60.7670   31.2870   46.3670 O   0  0  0  0  0  0  0  0  0  0  0  0
   60.4010   29.9720   46.6870 C   0  0  0  0  0  0  0  0  0  0  0  0
   59.5420   29.6880   47.7640 C   0  0  0  0  0  0  0  0  0  0  0  0
   59.1991   30.5010   48.4209 H   0  0  0  0  0  0  0  0  0  0  0  0
   59.1230   28.3770   48.0020 C   0  0  0  0  0  0  0  0  0  0  0  0
   58.4223   28.1670   48.8235 H   0  0  0  0  0  0  0  0  0  0  0  0
   59.5900   27.3300   47.2010 C   0  0  0  0  0  0  0  0  0  0  0  0
   59.0730   26.0100   47.4080 N   0  0  0  0  0  0  0  0  0  0  0  0
   57.9690   25.5050   46.9290 C   0  0  0  0  0  0  0  0  0  0  0  0
   57.7580   24.0300   47.1590 C   0  0  0  0  0  0  0  0  0  0  0  0
   57.4881   23.8772   48.2144 H   0  0  0  0  0  0  0  0  0  0  0  0
   58.6967   23.5229   46.8912 H   0  0  0  0  0  0  0  0  0  0  0  0
   56.6570   23.4290   46.2860 C   0  0  0  0  0  0  0  0  0  0  0  0
   56.4599   22.3986   46.6167 H   0  0  0  0  0  0  0  0  0  0  0  0
   56.9966   23.4437   45.2398 H   0  0  0  0  0  0  0  0  0  0  0  0
   55.3690   24.2370   46.3850 C   0  0  0  0  0  0  0  0  0  0  0  0
   54.9926   24.1855   47.4173 H   0  0  0  0  0  0  0  0  0  0  0  0
   54.6382   23.8114   45.6816 H   0  0  0  0  0  0  0  0  0  0  0  0
   55.5960   25.6780   46.0180 C   0  0  0  0  0  0  0  0  0  0  0  0
   54.6430   26.3420   45.6390 O   0  0  0  0  0  0  0  0  0  0  0  0
   56.9490   26.3500   46.1610 C   0  0  2  0  0  0  0  0  0  0  0  0
   56.7920   27.2437   46.7829 H   0  0  0  0  0  0  0  0  0  0  0  0
   57.4850   26.8230   44.7890 C   0  0  0  0  0  0  0  0  0  0  0  0
   58.5595   26.5935   44.7360 H   0  0  0  0  0  0  0  0  0  0  0  0
   56.9095   26.2945   44.0147 H   0  0  0  0  0  0  0  0  0  0  0  0
   57.2990   28.3010   44.5530 C   0  0  0  0  0  0  0  0  0  0  0  0
   58.3840   29.0940   44.1390 C   0  0  0  0  0  0  0  0  0  0  0  0
   59.3753   28.6376   44.0011 H   0  0  0  0  0  0  0  0  0  0  0  0
   58.2070   30.4610   43.9020 C   0  0  0  0  0  0  0  0  0  0  0  0
   59.0597   31.0780   43.5822 H   0  0  0  0  0  0  0  0  0  0  0  0
   56.9480   31.0440   44.0710 C   0  0  0  0  0  0  0  0  0  0  0  0
   56.8102   32.1187   43.8811 H   0  0  0  0  0  0  0  0  0  0  0  0
   55.8640   30.2630   44.4810 C   0  0  0  0  0  0  0  0  0  0  0  0
   54.8739   30.7235   44.6135 H   0  0  0  0  0  0  0  0  0  0  0  0
   56.0370   28.8960   44.7230 C   0  0  0  0  0  0  0  0  0  0  0  0
   55.1822   28.2845   45.0475 H   0  0  0  0  0  0  0  0  0  0  0  0
   60.4610   27.6090   46.1350 C   0  0  0  0  0  0  0  0  0  0  0  0
   60.8111   26.7940   45.4845 H   0  0  0  0  0  0  0  0  0  0  0  0
   60.8840   28.9210   45.8990 C   0  0  0  0  0  0  0  0  0  0  0  0
   61.6000   29.1279   45.0899 H   0  0  0  0  0  0  0  0  0  0  0  0
   60.3910   33.5480   47.2960 C   0  0  0  0  0  0  0  0  0  0  0  0
   61.7150   33.5960   47.9580 C   0  0  0  0  0  0  0  0  0  0  0  0
   62.8790   33.3120   47.2280 C   0  0  0  0  0  0  0  0  0  0  0  0
   62.8173   33.1474   46.1421 H   0  0  0  0  0  0  0  0  0  0  0  0
   64.1180   33.2370   47.8740 C   0  0  0  0  0  0  0  0  0  0  0  0
   65.0238   33.0000   47.2967 H   0  0  0  0  0  0  0  0  0  0  0  0
   64.2090   33.4640   49.2610 C   0  0  0  0  0  0  0  0  0  0  0  0
   65.4190   33.3630   49.9660 O   0  0  0  0  0  0  0  0  0  0  0  0
   65.8330   32.2150   50.7050 C   0  0  0  0  0  0  0  0  0  0  0  0
   65.8990   32.4753   51.7717 H   0  0  0  0  0  0  0  0  0  0  0  0
   64.9180   31.1890   50.5390 F   0  0  0  0  0  0  0  0  0  0  0  0
   67.0640   31.7970   50.2350 F   0  0  0  0  0  0  0  0  0  0  0  0
   63.0530   33.7940   49.9760 C   0  0  0  0  0  0  0  0  0  0  0  0
   63.1195   34.0010   51.0543 H   0  0  0  0  0  0  0  0  0  0  0  0
   61.8150   33.8630   49.3330 C   0  0  0  0  0  0  0  0  0  0  0  0
   60.9143   34.1277   49.9063 H   0  0  0  0  0  0  0  0  0  0  0  0
   59.5260   34.6460   47.4110 C   0  0  0  0  0  0  0  0  0  0  0  0
   59.8549   35.5487   47.9468 H   0  0  0  0  0  0  0  0  0  0  0  0
   58.2510   34.5980   46.8490 C   0  0  0  0  0  0  0  0  0  0  0  0
   57.5720   35.4588   46.9383 H   0  0  0  0  0  0  0  0  0  0  0  0
  1  2  1  0
  2  3  2  0
  3  4  1  0
  4  5  1  0
  5  6  1  0
  6  7  2  0
  7  8  1  0
  7  9  1  0
  9 10  1  0
  9 11  2  0
 11 12  1  0
 12 13  2  0
 13 14  1  0
 14 15  1  0
 14 16  1  0
 14 17  1  0
 17 18  1  0
 17 19  1  0
 17 20  1  0
 20 21  1  0
 20 22  1  0
 20 23  1  0
 23 24  2  0
 23 25  1  0
 25 26  1  1
 25 27  1  0
 27 28  1  0
 27 29  1  0
 27 30  1  0
 30 31  2  0
 31 32  1  0
 31 33  1  0
 33 34  1  0
 33 35  2  0
 35 36  1  0
 35 37  1  0
 37 38  1  0
 37 39  2  0
 39 40  1  0
 11 41  1  0
 41 42  1  0
 41 43  2  0
 43 44  1  0
  4 45  2  0
 45 46  1  0
 46 47  2  0
 47 48  1  0
 47 49  1  0
 49 50  1  0
 49 51  2  0
 51 52  1  0
 52 53  1  0
 53 54  1  0
 53 55  1  0
 53 56  1  0
 51 57  1  0
 57 58  1  0
 57 59  2  0
 59 60  1  0
 45 61  1  0
 61 62  1  0
 61 63  2  0
 63 64  1  0
 63  2  1  0
 43  6  1  0
 59 46  1  0
 25 13  1  0
 39 30  1  0
M  END
>  <UniqueID>  (19) 
19

>  <SMILES>  (19) 
O=C1CCC/C(=N/c2ccc(Oc3ncccc3-c3ccc(OC(F)F)cc3)cc2)[C@H]1Cc1ccccc1

>  <Energy>  (19) 
86.10033633407794

>  <Genealogy>  (19) 
O=C1CCCC(=Nc2ccc(Oc3ncccc3-c3ccc(OC(F)F)cc3)cc2)[C@H]1Cc1ccccc1 (chirality)
O=C1CCC/C(=N/c2ccc(Oc3ncccc3-c3ccc(OC(F)F)cc3)cc2)[C@H]1Cc1ccccc1 (cis-trans isomerization)
O=C1CCC/C(=N/c2ccc(Oc3ncccc3-c3ccc(OC(F)F)cc3)cc2)[C@H]1Cc1ccccc1 (3D coordinates assigned)
O=C1CCC/C(=N/c2ccc(Oc3ncccc3-c3ccc(OC(F)F)cc3)cc2)[C@H]1Cc1ccccc1 (nonaromatic ring conformer: 86.10033633407794 kcal/mol)

>  <smiles>  (19) 
O=C1CCCC(=Nc2ccc(Oc3ncccc3-c3ccc(OC(F)F)cc3)cc2)C1Cc1ccccc1

>  <score_type>  (19) 
oracle

>  <origin>  (19) 
adg

>  <m_score__min__energy>  (19) 
-10.15

>  <m_primary>  (19) 
energy

$$$$
19:0
     RDKit          3D

 33 34  0  0  0  0  0  0  0  0999 V2000
   57.4570   28.8530   44.4390 C   0  0  0  0  0  0  0  0  0  0  0  0
   56.3150   29.8030   44.6400 C   0  0  0  0  0  0  0  0  0  0  0  0
   55.1790   29.3380   44.9220 O   0  0  0  0  0  0  0  0  0  0  0  0
   56.4650   31.2190   44.4810 N   0  0  0  0  0  0  0  0  0  0  0  0
   57.3390   32.0770   45.2260 C   0  0  0  0  0  0  0  0  0  0  0  0
   57.4670   33.4440   44.9260 C   0  0  0  0  0  0  0  0  0  0  0  0
   58.3510   34.2460   45.6540 C   0  0  0  0  0  0  0  0  0  0  0  0
   59.1210   33.6970   46.6890 C   0  0  0  0  0  0  0  0  0  0  0  0
   60.0440   34.5360   47.4060 N   0  0  0  0  0  0  0  0  0  0  0  0
   61.3100   34.0940   47.9240 C   0  0  0  0  0  0  0  0  0  0  0  0
   62.2730   33.5000   47.0950 C   0  0  0  0  0  0  0  0  0  0  0  0
   63.4800   33.0570   47.6430 C   0  0  0  0  0  0  0  0  0  0  0  0
   63.7280   33.1980   48.9790 N   0  0  0  0  0  0  0  0  0  0  0  0
   64.9830   32.6920   49.5410 C   0  0  0  0  0  0  0  0  0  0  0  0
   62.7830   33.7350   49.8080 C   0  0  0  0  0  0  0  0  0  0  0  0
   61.5660   34.1880   49.2960 C   0  0  0  0  0  0  0  0  0  0  0  0
   59.0290   32.3190   46.9530 C   0  0  0  0  0  0  0  0  0  0  0  0
   58.1470   31.5170   46.2240 C   0  0  0  0  0  0  0  0  0  0  0  0
   57.8432   28.5317   45.4176 H   0  0  0  0  0  0  0  0  0  0  0  0
   57.1085   27.9746   43.8760 H   0  0  0  0  0  0  0  0  0  0  0  0
   58.2573   29.3556   43.8760 H   0  0  0  0  0  0  0  0  0  0  0  0
   56.8690   33.8849   44.1148 H   0  0  0  0  0  0  0  0  0  0  0  0
   58.4430   35.3153   45.4130 H   0  0  0  0  0  0  0  0  0  0  0  0
   59.7730   35.5340   47.5650 H   0  0  0  0  0  0  0  0  0  0  0  0
   62.0791   33.3834   46.0185 H   0  0  0  0  0  0  0  0  0  0  0  0
   64.2360   32.5913   46.9937 H   0  0  0  0  0  0  0  0  0  0  0  0
   64.9281   32.7141   50.6394 H   0  0  0  0  0  0  0  0  0  0  0  0
   65.1457   31.6580   49.2028 H   0  0  0  0  0  0  0  0  0  0  0  0
   65.8174   33.3240   49.2028 H   0  0  0  0  0  0  0  0  0  0  0  0
   62.9832   33.8107   50.8870 H   0  0  0  0  0  0  0  0  0  0  0  0
   60.8101   34.6178   49.9697 H   0  0  0  0  0  0  0  0  0  0  0  0
   59.6550   31.8697   47.7380 H   0  0  0  0  0  0  0  0  0  0  0  0
   58.0868   30.4391   46.4351 H   0  0  0  0  0  0  0  0  0  0  0  0
  1  2  1  0
  2  3  2  0
  2  4  1  0
  4  5  1  0
  5  6  2  0
  6  7  1  0
  7  8  2  0
  8  9  1  0
  9 10  1  0
 10 11  2  0
 11 12  1  0
 12 13  2  0
 13 14  1  0
 13 15  1  0
 15 16  2  0
  8 17  1  0
 17 18  2  0
 18  5  1  0
 16 10  1  0
  1 19  1  0
  1 20  1  0
  1 21  1  0
  6 22  1  0
  7 23  1  0
  9 24  1  0
 11 25  1  0
 12 26  1  0
 14 27  1  0
 14 28  1  0
 14 29  1  0
 15 30  1  0
 16 31  1  0
 17 32  1  0
 18 33  1  0
M  CHG  2   4  -1  13   1
M  END
>  <UniqueID>  (20) 
20

>  <SMILES>  (20) 
CC(=O)[N-]c1ccc(Nc2cc[n+](C)cc2)cc1

>  <Energy>  (20) 
42.08195280052601

>  <Genealogy>  (20) 
CC(=O)[N-]c1ccc(Nc2cc[n+](C)cc2)cc1 (protonated)
CC(=O)[N-]c1ccc(Nc2cc[n+](C)cc2)cc1 (3D coordinates assigned)
CC(=O)[N-]c1ccc(Nc2cc[n+](C)cc2)cc1 (optimized conformer: 42.08195280052601 kcal/mol)

>  <smiles>  (20) 
CC(=O)Nc1ccc(Nc2cc[n+](C)cc2)cc1

>  <score_type>  (20) 
oracle

>  <origin>  (20) 
adg

>  <m_score__min__energy>  (20) 
-7.4000000000000004

>  <m_primary>  (20) 
energy

$$$$
20:0
     RDKit          3D

 41 43  0  0  0  0  0  0  0  0999 V2000
   56.7860   21.0800   43.2220 C   0  0  0  0  0  0  0  0  0  0  0  0
   55.8930   22.0440   43.7690 O   0  0  0  0  0  0  0  0  0  0  0  0
   56.2780   23.3170   44.2170 C   0  0  0  0  0  0  0  0  0  0  0  0
   57.0090   24.1340   43.3500 C   0  0  0  0  0  0  0  0  0  0  0  0
   57.4180   25.4090   43.7490 C   0  0  0  0  0  0  0  0  0  0  0  0
   57.1080   25.8920   45.0330 C   0  0  0  0  0  0  0  0  0  0  0  0
   57.5460   27.2520   45.4370 C   0  0  0  0  0  0  0  0  0  0  0  0
   56.9670   28.4140   44.8720 C   0  0  0  0  0  0  0  0  0  0  0  0
   57.4350   29.6450   45.3150 C   0  0  0  0  0  0  0  0  0  0  0  0
   57.0430   30.8370   44.9370 O   0  0  0  0  0  0  0  0  0  0  0  0
   57.7520   31.7210   45.6160 C   0  0  0  0  0  0  0  0  0  0  0  0
   57.5790   33.2050   45.4870 C   0  0  2  0  0  0  0  0  0  0  0  0
   58.6340   33.7530   44.5240 C   0  0  0  0  0  0  0  0  0  0  0  0
   57.7470   33.7900   46.7670 O   0  0  0  0  0  0  0  0  0  0  0  0
   58.9290   34.5590   46.8130 C   0  0  0  0  0  0  0  0  0  0  0  0
   58.6380   31.0830   46.4800 C   0  0  0  0  0  0  0  0  0  0  0  0
   58.4140   29.7420   46.2630 C   0  0  0  0  0  0  0  0  0  0  0  0
   58.9770   28.5980   46.8270 C   0  0  0  0  0  0  0  0  0  0  0  0
   60.0430   28.6790   47.8740 C   0  0  0  0  0  0  0  0  0  0  0  0
   58.5220   27.3850   46.3950 N   0  0  0  0  0  0  0  0  0  0  0  0
   56.3620   25.0720   45.9010 C   0  0  0  0  0  0  0  0  0  0  0  0
   55.9530   23.7960   45.4990 C   0  0  0  0  0  0  0  0  0  0  0  0
   57.2869   20.5393   44.0385 H   0  0  0  0  0  0  0  0  0  0  0  0
   56.2217   20.3675   42.6024 H   0  0  0  0  0  0  0  0  0  0  0  0
   57.5395   21.5882   42.6024 H   0  0  0  0  0  0  0  0  0  0  0  0
   57.2647   23.7698   42.3440 H   0  0  0  0  0  0  0  0  0  0  0  0
   57.9880   26.0411   43.0522 H   0  0  0  0  0  0  0  0  0  0  0  0
   56.1761   28.3448   44.1107 H   0  0  0  0  0  0  0  0  0  0  0  0
   56.5781   33.4420   45.0971 H   0  0  0  0  0  0  0  0  0  0  0  0
   59.4661   34.1852   45.0991 H   0  0  0  0  0  0  0  0  0  0  0  0
   59.0112   32.9368   43.8903 H   0  0  0  0  0  0  0  0  0  0  0  0
   58.1832   34.5309   43.8903 H   0  0  0  0  0  0  0  0  0  0  0  0
   59.2078   34.7404   47.8615 H   0  0  0  0  0  0  0  0  0  0  0  0
   59.7401   34.0152   46.3067 H   0  0  0  0  0  0  0  0  0  0  0  0
   58.7606   35.5209   46.3067 H   0  0  0  0  0  0  0  0  0  0  0  0
   59.3533   31.5447   47.1766 H   0  0  0  0  0  0  0  0  0  0  0  0
   59.5806   28.6439   48.8715 H   0  0  0  0  0  0  0  0  0  0  0  0
   60.7340   27.8308   47.7601 H   0  0  0  0  0  0  0  0  0  0  0  0
   60.5979   29.6219   47.7601 H   0  0  0  0  0  0  0  0  0  0  0  0
   56.0984   25.4380   46.9043 H   0  0  0  0  0  0  0  0  0  0  0  0
   55.3744   23.1641   46.1889 H   0  0  0  0  0  0  0  0  0  0  0  0
  1  2  1  0
  2  3  1  0
  3  4  2  0
  4  5  1  0
  5  6  2  0
  6  7  1  0
  7  8  2  0
  8  9  1  0
  9 10  1  0
 10 11  1  0
 11 12  1  0
 12 13  1  0
 12 14  1  0
 14 15  1  0
 11 16  2  0
 16 17  1  0
 17 18  1  0
 18 19  1  0
 18 20  2  0
  6 21  1  0
 21 22  2  0
 22  3  1  0
 20  7  1  0
 17  9  2  0
  1 23  1  0
  1 24  1  0
  1 25  1  0
  4 26  1  0
  5 27  1  0
  8 28  1  0
 12 29  1  6
 13 30  1  0
 13 31  1  0
 13 32  1  0
 15 33  1  0
 15 34  1  0
 15 35  1  0
 16 36  1  0
 19 37  1  0
 19 38  1  0
 19 39  1  0
 21 40  1  0
 22 41  1  0
M  END
>  <UniqueID>  (21) 
21

>  <SMILES>  (21) 
COc1ccc(-c2cc3oc([C@H](C)OC)cc3c(C)n2)cc1

>  <Energy>  (21) 
78.91653199401371

>  <Genealogy>  (21) 
COc1ccc(-c2cc3oc([C@H](C)OC)cc3c(C)n2)cc1 (chirality)
COc1ccc(-c2cc3oc([C@H](C)OC)cc3c(C)n2)cc1 (3D coordinates assigned)
COc1ccc(-c2cc3oc([C@H](C)OC)cc3c(C)n2)cc1 (optimized conformer: 78.91653199401371 kcal/mol)

>  <smiles>  (21) 
COc1ccc(-c2cc3oc(C(C)OC)cc3c(C)n2)cc1

>  <score_type>  (21) 
oracle

>  <origin>  (21) 
adg

>  <m_score__min__energy>  (21) 
-6.9500000000000002

>  <m_primary>  (21) 
energy

$$$$
21:0
     RDKit          3D

 41 44  0  0  0  0  0  0  0  0999 V2000
   58.1090   21.6800   45.2470 C   0  0  0  0  0  0  0  0  0  0  0  0
   57.7590   22.5030   46.3550 O   0  0  0  0  0  0  0  0  0  0  0  0
   57.8650   23.9030   46.3650 C   0  0  0  0  0  0  0  0  0  0  0  0
   56.7970   24.7390   46.7380 C   0  0  0  0  0  0  0  0  0  0  0  0
   56.9520   26.1280   46.7310 C   0  0  0  0  0  0  0  0  0  0  0  0
   58.1730   26.7070   46.3430 C   0  0  0  0  0  0  0  0  0  0  0  0
   58.3550   28.1370   46.3380 N   0  0  0  0  0  0  0  0  0  0  0  0
   59.3020   28.7620   47.0330 N   0  0  0  0  0  0  0  0  0  0  0  0
   59.2030   30.0950   46.8010 C   0  0  0  0  0  0  0  0  0  0  0  0
   58.1640   30.3030   45.9160 C   0  0  0  0  0  0  0  0  0  0  0  0
   57.5970   31.4280   45.3230 C   0  0  0  0  0  0  0  0  0  0  0  0
   58.0960   32.7520   45.5610 N   0  0  0  0  0  0  0  0  0  0  0  0
   58.5440   33.5590   44.4190 C   0  0  0  0  0  0  0  0  0  0  0  0
   58.9260   34.9730   44.8680 C   0  0  0  0  0  0  0  0  0  0  0  0
   59.6910   34.9190   46.1190 N   0  0  0  0  0  0  0  0  0  0  0  0
   58.8910   34.4010   47.2450 C   0  0  0  0  0  0  0  0  0  0  0  0
   57.7800   33.4120   46.8310 C   0  0  0  0  0  0  0  0  0  0  0  0
   56.5270   31.2300   44.4950 N   0  0  0  0  0  0  0  0  0  0  0  0
   56.0420   29.9730   44.2370 C   0  0  0  0  0  0  0  0  0  0  0  0
   56.6140   28.8760   44.8170 N   0  0  0  0  0  0  0  0  0  0  0  0
   57.6600   29.0690   45.6590 C   0  0  0  0  0  0  0  0  0  0  0  0
   59.2400   25.8680   45.9870 C   0  0  0  0  0  0  0  0  0  0  0  0
   59.0840   24.4790   45.9930 C   0  0  0  0  0  0  0  0  0  0  0  0
   58.5150   20.7254   45.6131 H   0  0  0  0  0  0  0  0  0  0  0  0
   57.2147   21.4879   44.6360 H   0  0  0  0  0  0  0  0  0  0  0  0
   58.8677   22.1909   44.6360 H   0  0  0  0  0  0  0  0  0  0  0  0
   55.8349   24.2973   47.0367 H   0  0  0  0  0  0  0  0  0  0  0  0
   56.1128   26.7727   47.0312 H   0  0  0  0  0  0  0  0  0  0  0  0
   59.8406   30.8754   47.2419 H   0  0  0  0  0  0  0  0  0  0  0  0
   59.4197   33.0779   43.9590 H   0  0  0  0  0  0  0  0  0  0  0  0
   57.7205   33.6302   43.6932 H   0  0  0  0  0  0  0  0  0  0  0  0
   59.5385   35.4487   44.0879 H   0  0  0  0  0  0  0  0  0  0  0  0
   58.0085   35.5567   45.0337 H   0  0  0  0  0  0  0  0  0  0  0  0
   60.5200   34.2930   45.9750 H   0  0  0  0  0  0  0  0  0  0  0  0
   59.5690   33.8861   47.9415 H   0  0  0  0  0  0  0  0  0  0  0  0
   58.3889   35.2673   47.7004 H   0  0  0  0  0  0  0  0  0  0  0  0
   57.6718   32.6473   47.6143 H   0  0  0  0  0  0  0  0  0  0  0  0
   56.8445   33.9765   46.7038 H   0  0  0  0  0  0  0  0  0  0  0  0
   55.1859   29.8472   43.5579 H   0  0  0  0  0  0  0  0  0  0  0  0
   60.2071   26.3070   45.7009 H   0  0  0  0  0  0  0  0  0  0  0  0
   59.9265   23.8339   45.7029 H   0  0  0  0  0  0  0  0  0  0  0  0
  1  2  1  0
  2  3  1  0
  3  4  2  0
  4  5  1  0
  5  6  2  0
  6  7  1  0
  7  8  1  0
  8  9  2  0
  9 10  1  0
 10 11  2  0
 11 12  1  0
 12 13  1  0
 13 14  1  0
 14 15  1  0
 15 16  1  0
 16 17  1  0
 11 18  1  0
 18 19  2  0
 19 20  1  0
 20 21  2  0
  6 22  1  0
 22 23  2  0
 23  3  1  0
 21  7  1  0
 21 10  1  0
 17 12  1  0
  1 24  1  0
  1 25  1  0
  1 26  1  0
  4 27  1  0
  5 28  1  0
  9 29  1  0
 13 30  1  0
 13 31  1  0
 14 32  1  0
 14 33  1  0
 15 34  1  0
 16 35  1  0
 16 36  1  0
 17 37  1  0
 17 38  1  0
 19 39  1  0
 22 40  1  0
 23 41  1  0
M  END
>  <UniqueID>  (22) 
22

>  <SMILES>  (22) 
COc1ccc(-n2ncc3c(N4CCNCC4)ncnc32)cc1

>  <Energy>  (22) 
98.84794381452983

>  <Genealogy>  (22) 
COc1ccc(-n2ncc3c(N4CCNCC4)ncnc32)cc1 (3D coordinates assigned)
COc1ccc(-n2ncc3c(N4CCNCC4)ncnc32)cc1 (nonaromatic ring conformer: 98.84794381452983 kcal/mol)

>  <smiles>  (22) 
COc1ccc(-n2ncc3c(N4CCNCC4)ncnc32)cc1

>  <score_type>  (22) 
oracle

>  <origin>  (22) 
adg

>  <m_score__min__energy>  (22) 
-6.8899999999999997

>  <m_primary>  (22) 
energy

$$$$
22:0
     RDKit          3D

 46 46  0  0  0  0  0  0  0  0999 V2000
   63.6860   33.1220   47.0590 C   0  0  0  0  0  0  0  0  0  0  0  0
   62.2090   33.4680   46.8660 C   0  0  0  0  0  0  0  0  0  0  0  0
   61.3430   33.0160   48.0530 C   0  0  0  0  0  0  0  0  0  0  0  0
   59.9050   33.5770   48.0170 C   0  0  0  0  0  0  0  0  0  0  0  0
   59.2160   33.2870   46.7300 N   0  0  0  0  0  0  0  0  0  0  0  0
   59.1720   34.2480   45.7320 C   0  0  0  0  0  0  0  0  0  0  0  0
   59.6880   35.6550   45.9370 C   0  0  0  0  0  0  0  0  0  0  0  0
   58.6350   33.9500   44.5160 N   0  0  0  0  0  0  0  0  0  0  0  0
   58.1070   32.7360   44.2470 C   0  0  0  0  0  0  0  0  0  0  0  0
   57.6680   32.4960   43.0880 O   0  0  0  0  0  0  0  0  0  0  0  0
   58.0550   31.7610   45.2420 C   0  0  0  0  0  0  0  0  0  0  0  0
   57.4690   30.4340   44.9250 C   0  0  0  0  0  0  0  0  0  0  0  0
   56.2190   30.3490   44.7690 O   0  0  0  0  0  0  0  0  0  0  0  0
   58.2870   29.2450   44.8230 N   0  0  0  0  0  0  0  0  0  0  0  0
   57.6620   27.9240   44.9770 C   0  0  0  0  0  0  0  0  0  0  0  0
   58.1420   26.9780   43.8810 C   0  0  0  0  0  0  0  0  0  0  0  0
   59.7210   29.3310   44.4970 C   0  0  0  0  0  0  0  0  0  0  0  0
   60.5740   28.9570   45.7040 C   0  0  0  0  0  0  0  0  0  0  0  0
   58.6140   32.0550   46.5090 C   0  0  0  0  0  0  0  0  0  0  0  0
   58.5640   30.9680   47.5760 C   0  0  0  0  0  0  0  0  0  0  0  0
   63.9127   33.0689   48.1341 H   0  0  0  0  0  0  0  0  0  0  0  0
   63.8990   32.1496   46.5909 H   0  0  0  0  0  0  0  0  0  0  0  0
   64.3087   33.8986   46.5909 H   0  0  0  0  0  0  0  0  0  0  0  0
   62.1130   34.5580   46.7531 H   0  0  0  0  0  0  0  0  0  0  0  0
   61.8540   32.9380   45.9699 H   0  0  0  0  0  0  0  0  0  0  0  0
   61.2881   31.9174   48.0452 H   0  0  0  0  0  0  0  0  0  0  0  0
   61.8183   33.4043   48.9659 H   0  0  0  0  0  0  0  0  0  0  0  0
   59.3282   33.1238   48.8367 H   0  0  0  0  0  0  0  0  0  0  0  0
   59.9680   34.6698   48.1254 H   0  0  0  0  0  0  0  0  0  0  0  0
   59.7647   35.8641   47.0142 H   0  0  0  0  0  0  0  0  0  0  0  0
   60.6805   35.7528   45.4729 H   0  0  0  0  0  0  0  0  0  0  0  0
   58.9941   36.3713   45.4729 H   0  0  0  0  0  0  0  0  0  0  0  0
   58.6320   34.6690   43.7570 H   0  0  0  0  0  0  0  0  0  0  0  0
   57.9315   27.5077   45.9589 H   0  0  0  0  0  0  0  0  0  0  0  0
   56.5703   28.0345   44.9002 H   0  0  0  0  0  0  0  0  0  0  0  0
   58.5946   26.0860   44.3388 H   0  0  0  0  0  0  0  0  0  0  0  0
   57.2878   26.6765   43.2569 H   0  0  0  0  0  0  0  0  0  0  0  0
   58.8897   27.4893   43.2569 H   0  0  0  0  0  0  0  0  0  0  0  0
   59.9447   28.6414   43.6697 H   0  0  0  0  0  0  0  0  0  0  0  0
   59.9552   30.3659   44.2069 H   0  0  0  0  0  0  0  0  0  0  0  0
   60.0272   29.1967   46.6279 H   0  0  0  0  0  0  0  0  0  0  0  0
   60.7945   27.8796   45.6775 H   0  0  0  0  0  0  0  0  0  0  0  0
   61.5158   29.5248   45.6775 H   0  0  0  0  0  0  0  0  0  0  0  0
   58.5853   31.4318   48.5732 H   0  0  0  0  0  0  0  0  0  0  0  0
   57.6381   30.3851   47.4625 H   0  0  0  0  0  0  0  0  0  0  0  0
   59.4325   30.3025   47.4625 H   0  0  0  0  0  0  0  0  0  0  0  0
  1  2  1  0
  2  3  1  0
  3  4  1  0
  4  5  1  0
  5  6  1  0
  6  7  1  0
  6  8  2  0
  8  9  1  0
  9 10  2  0
  9 11  1  0
 11 12  1  0
 12 13  2  0
 12 14  1  0
 14 15  1  0
 15 16  1  0
 14 17  1  0
 17 18  1  0
 11 19  2  0
 19 20  1  0
 19  5  1  0
  1 21  1  0
  1 22  1  0
  1 23  1  0
  2 24  1  0
  2 25  1  0
  3 26  1  0
  3 27  1  0
  4 28  1  0
  4 29  1  0
  7 30  1  0
  7 31  1  0
  7 32  1  0
  8 33  1  0
 15 34  1  0
 15 35  1  0
 16 36  1  0
 16 37  1  0
 16 38  1  0
 17 39  1  0
 17 40  1  0
 18 41  1  0
 18 42  1  0
 18 43  1  0
 20 44  1  0
 20 45  1  0
 20 46  1  0
M  CHG  1   8   1
M  END
>  <UniqueID>  (23) 
23

>  <SMILES>  (23) 
CCCCn1c(C)[nH+]c(=O)c(C(=O)N(CC)CC)c1C

>  <Energy>  (23) 
49.748848606051844

>  <Genealogy>  (23) 
CCCCn1c(C)[nH+]c(=O)c(C(=O)N(CC)CC)c1C (protonated)
CCCCn1c(C)[nH+]c(=O)c(C(=O)N(CC)CC)c1C (3D coordinates assigned)
CCCCn1c(C)[nH+]c(=O)c(C(=O)N(CC)CC)c1C (optimized conformer: 49.748848606051844 kcal/mol)

>  <smiles>  (23) 
CCCCn1c(C)nc(=O)c(C(=O)N(CC)CC)c1C

>  <score_type>  (23) 
oracle

>  <origin>  (23) 
adg

>  <m_score__min__energy>  (23) 
-4.9100000000000001

>  <m_primary>  (23) 
energy

$$$$
23:0
     RDKit          3D

 36 38  0  0  0  0  0  0  0  0999 V2000
   59.8946   35.3995   46.3673 H   0  0  0  0  0  0  0  0  0  0  0  0
   60.0850   34.3320   46.5520 C   0  0  0  0  0  0  0  0  0  0  0  0
   61.1790   34.0150   47.2780 C   0  0  0  0  0  0  0  0  0  0  0  0
   61.2410   34.0680   48.7680 C   0  0  0  0  0  0  0  0  0  0  0  0
   60.2990   34.5590   49.4470 O   0  0  0  0  0  0  0  0  0  0  0  0
   62.4570   33.5860   49.4570 C   0  0  0  0  0  0  0  0  0  0  0  0
   62.4410   33.2880   50.8310 C   0  0  0  0  0  0  0  0  0  0  0  0
   61.5145   33.4183   51.4094 H   0  0  0  0  0  0  0  0  0  0  0  0
   63.5980   32.8270   51.4640 C   0  0  0  0  0  0  0  0  0  0  0  0
   63.5780   32.5879   52.5375 H   0  0  0  0  0  0  0  0  0  0  0  0
   64.7800   32.6690   50.7370 C   0  0  0  0  0  0  0  0  0  0  0  0
   65.6888   32.3053   51.2388 H   0  0  0  0  0  0  0  0  0  0  0  0
   64.8100   32.9720   49.3740 C   0  0  0  0  0  0  0  0  0  0  0  0
   65.7469   32.8601   48.8086 H   0  0  0  0  0  0  0  0  0  0  0  0
   63.6490   33.4190   48.7220 C   0  0  0  0  0  0  0  0  0  0  0  0
   63.7030   33.8350   47.2740 C   0  0  0  0  0  0  0  0  0  0  0  0
   64.5351   33.3100   46.7820 H   0  0  0  0  0  0  0  0  0  0  0  0
   63.8487   34.9245   47.2330 H   0  0  0  0  0  0  0  0  0  0  0  0
   62.3980   33.4960   46.5430 C   0  0  0  0  0  0  0  0  0  0  0  0
   62.3173   32.4028   46.4507 H   0  0  0  0  0  0  0  0  0  0  0  0
   62.4284   33.9799   45.5556 H   0  0  0  0  0  0  0  0  0  0  0  0
   59.1240   33.3660   45.9860 C   0  0  0  0  0  0  0  0  0  0  0  0
   57.9490   33.8070   45.3570 C   0  0  0  0  0  0  0  0  0  0  0  0
   57.7583   34.8846   45.2456 H   0  0  0  0  0  0  0  0  0  0  0  0
   57.0210   32.8820   44.8720 C   0  0  0  0  0  0  0  0  0  0  0  0
   56.1112   33.2357   44.3649 H   0  0  0  0  0  0  0  0  0  0  0  0
   57.2410   31.5070   45.0270 C   0  0  0  0  0  0  0  0  0  0  0  0
   56.2800   30.6180   44.5200 O   0  0  0  0  0  0  0  0  0  0  0  0
   56.3870   29.9490   43.2680 C   0  0  0  0  0  0  0  0  0  0  0  0
   56.5586   28.8760   43.4391 H   0  0  0  0  0  0  0  0  0  0  0  0
   55.4557   30.0852   42.6987 H   0  0  0  0  0  0  0  0  0  0  0  0
   57.2294   30.3689   42.6987 H   0  0  0  0  0  0  0  0  0  0  0  0
   58.4050   31.0660   45.6840 C   0  0  0  0  0  0  0  0  0  0  0  0
   58.5855   29.9889   45.8157 H   0  0  0  0  0  0  0  0  0  0  0  0
   59.3330   31.9930   46.1700 C   0  0  0  0  0  0  0  0  0  0  0  0
   60.2312   31.6422   46.6992 H   0  0  0  0  0  0  0  0  0  0  0  0
  1  2  1  0
  2  3  2  0
  3  4  1  0
  4  5  2  0
  4  6  1  0
  6  7  2  0
  7  8  1  0
  7  9  1  0
  9 10  1  0
  9 11  2  0
 11 12  1  0
 11 13  1  0
 13 14  1  0
 13 15  2  0
 15 16  1  0
 16 17  1  0
 16 18  1  0
 16 19  1  0
 19 20  1  0
 19 21  1  0
  2 22  1  0
 22 23  2  0
 23 24  1  0
 23 25  1  0
 25 26  1  0
 25 27  2  0
 27 28  1  0
 28 29  1  0
 29 30  1  0
 29 31  1  0
 29 32  1  0
 27 33  1  0
 33 34  1  0
 33 35  2  0
 35 36  1  0
 19  3  1  0
 35 22  1  0
 15  6  1  0
M  END
>  <UniqueID>  (24) 
24

>  <SMILES>  (24) 
COc1ccc(/C=C2/CCc3ccccc3C2=O)cc1

>  <Energy>  (24) 
49.733115676174336

>  <Genealogy>  (24) 
COc1ccc(/C=C2/CCc3ccccc3C2=O)cc1 (cis-trans isomerization)
COc1ccc(/C=C2/CCc3ccccc3C2=O)cc1 (3D coordinates assigned)
COc1ccc(/C=C2/CCc3ccccc3C2=O)cc1 (nonaromatic ring conformer: 49.733115676174336 kcal/mol)

>  <smiles>  (24) 
COc1ccc(C=C2CCc3ccccc3C2=O)cc1

>  <score_type>  (24) 
oracle

>  <origin>  (24) 
adg

>  <m_score__min__energy>  (24) 
-7.6200000000000001

>  <m_primary>  (24) 
energy

$$$$
24:0
     RDKit          3D

 55 56  0  0  0  0  0  0  0  0999 V2000
   65.0420   32.7350   49.7260 C   0  0  0  0  0  0  0  0  0  0  0  0
   64.5110   33.3810   48.5730 O   0  0  0  0  0  0  0  0  0  0  0  0
   63.1420   33.5330   48.3110 C   0  0  0  0  0  0  0  0  0  0  0  0
   62.2760   34.2170   49.1850 C   0  0  0  0  0  0  0  0  0  0  0  0
   60.9180   34.3390   48.8800 C   0  0  0  0  0  0  0  0  0  0  0  0
   60.4040   33.7830   47.7000 C   0  0  0  0  0  0  0  0  0  0  0  0
   58.9330   33.8870   47.3990 C   0  0  0  0  0  0  0  0  0  0  0  0
   58.7030   34.4860   46.0650 N   0  0  0  0  0  0  0  0  0  0  0  0
   59.6520   35.5950   45.8550 C   0  0  0  0  0  0  0  0  0  0  0  0
   58.8120   33.4890   44.9690 C   0  0  0  0  0  0  0  0  0  0  0  0
   57.8420   32.3130   45.1820 C   0  0  0  0  0  0  0  0  0  0  0  0
   57.2440   31.7500   43.8800 C   0  0  0  0  0  0  0  0  0  0  0  0
   56.0380   30.8330   44.1150 C   0  0  0  0  0  0  0  0  0  0  0  0
   56.4120   29.7160   44.9920 N   0  0  0  0  0  0  0  0  0  0  0  0
   57.5990   29.0060   44.4880 C   0  0  0  0  0  0  0  0  0  0  0  0
   58.2130   28.1070   45.5420 C   0  0  0  0  0  0  0  0  0  0  0  0
   58.3600   26.7360   45.2690 C   0  0  0  0  0  0  0  0  0  0  0  0
   58.8750   25.8710   46.2360 C   0  0  0  0  0  0  0  0  0  0  0  0
   59.2450   26.3630   47.4870 C   0  0  0  0  0  0  0  0  0  0  0  0
   59.1040   27.7220   47.7750 C   0  0  0  0  0  0  0  0  0  0  0  0
   58.5910   28.6100   46.8080 C   0  0  0  0  0  0  0  0  0  0  0  0
   58.4440   29.9810   47.0720 O   0  0  0  0  0  0  0  0  0  0  0  0
   59.0410   30.6600   48.1740 C   0  0  0  0  0  0  0  0  0  0  0  0
   61.2660   33.0990   46.8290 C   0  0  0  0  0  0  0  0  0  0  0  0
   62.6240   32.9780   47.1340 C   0  0  0  0  0  0  0  0  0  0  0  0
   64.6456   33.2173   50.6317 H   0  0  0  0  0  0  0  0  0  0  0  0
   64.7514   31.6741   49.7184 H   0  0  0  0  0  0  0  0  0  0  0  0
   66.1391   32.8147   49.7184 H   0  0  0  0  0  0  0  0  0  0  0  0
   62.6704   34.6576   50.1126 H   0  0  0  0  0  0  0  0  0  0  0  0
   60.2485   34.8742   49.5694 H   0  0  0  0  0  0  0  0  0  0  0  0
   58.4895   32.8806   47.4222 H   0  0  0  0  0  0  0  0  0  0  0  0
   58.4661   34.5329   48.1572 H   0  0  0  0  0  0  0  0  0  0  0  0
   59.9840   35.9830   46.8293 H   0  0  0  0  0  0  0  0  0  0  0  0
   60.5224   35.2307   45.2895 H   0  0  0  0  0  0  0  0  0  0  0  0
   59.1576   36.3986   45.2895 H   0  0  0  0  0  0  0  0  0  0  0  0
   58.5751   33.9799   44.0136 H   0  0  0  0  0  0  0  0  0  0  0  0
   59.8387   33.0942   44.9606 H   0  0  0  0  0  0  0  0  0  0  0  0
   58.3862   31.5037   45.6908 H   0  0  0  0  0  0  0  0  0  0  0  0
   57.0012   32.6982   45.7775 H   0  0  0  0  0  0  0  0  0  0  0  0
   56.9245   32.5927   43.2493 H   0  0  0  0  0  0  0  0  0  0  0  0
   58.0252   31.1446   43.3971 H   0  0  0  0  0  0  0  0  0  0  0  0
   55.2294   31.4103   44.5871 H   0  0  0  0  0  0  0  0  0  0  0  0
   55.6990   30.4319   43.1485 H   0  0  0  0  0  0  0  0  0  0  0  0
   56.6170   30.0860   45.9510 H   0  0  0  0  0  0  0  0  0  0  0  0
   57.3050   28.3913   43.6244 H   0  0  0  0  0  0  0  0  0  0  0  0
   58.3496   29.7582   44.2040 H   0  0  0  0  0  0  0  0  0  0  0  0
   58.0667   26.3414   44.2850 H   0  0  0  0  0  0  0  0  0  0  0  0
   58.9890   24.8003   46.0109 H   0  0  0  0  0  0  0  0  0  0  0  0
   59.6487   25.6794   48.2484 H   0  0  0  0  0  0  0  0  0  0  0  0
   59.3957   28.1028   48.7649 H   0  0  0  0  0  0  0  0  0  0  0  0
   58.6652   30.2325   49.1153 H   0  0  0  0  0  0  0  0  0  0  0  0
   60.1338   30.5427   48.1286 H   0  0  0  0  0  0  0  0  0  0  0  0
   58.7848   31.7288   48.1286 H   0  0  0  0  0  0  0  0  0  0  0  0
   60.8709   32.6565   45.9027 H   0  0  0  0  0  0  0  0  0  0  0  0
   63.2922   32.4422   46.4438 H   0  0  0  0  0  0  0  0  0  0  0  0
  1  2  1  0
  2  3  1  0
  3  4  2  0
  4  5  1  0
  5  6  2  0
  6  7  1  0
  7  8  1  0
  8  9  1  0
  8 10  1  0
 10 11  1  0
 11 12  1  0
 12 13  1  0
 13 14  1  0
 14 15  1  0
 15 16  1  0
 16 17  2  0
 17 18  1  0
 18 19  2  0
 19 20  1  0
 20 21  2  0
 21 22  1  0
 22 23  1  0
  6 24  1  0
 24 25  2  0
 25  3  1  0
 21 16  1  0
  1 26  1  0
  1 27  1  0
  1 28  1  0
  4 29  1  0
  5 30  1  0
  7 31  1  0
  7 32  1  0
  9 33  1  0
  9 34  1  0
  9 35  1  0
 10 36  1  0
 10 37  1  0
 11 38  1  0
 11 39  1  0
 12 40  1  0
 12 41  1  0
 13 42  1  0
 13 43  1  0
 14 44  1  0
 15 45  1  0
 15 46  1  0
 17 47  1  0
 18 48  1  0
 19 49  1  0
 20 50  1  0
 23 51  1  0
 23 52  1  0
 23 53  1  0
 24 54  1  0
 25 55  1  0
M  END
>  <UniqueID>  (25) 
25

>  <SMILES>  (25) 
COc1ccc(CN(C)CCCCNCc2ccccc2OC)cc1

>  <Energy>  (25) 
47.6586923756931

>  <Genealogy>  (25) 
COc1ccc(CN(C)CCCCNCc2ccccc2OC)cc1 (3D coordinates assigned)
COc1ccc(CN(C)CCCCNCc2ccccc2OC)cc1 (optimized conformer: 47.6586923756931 kcal/mol)

>  <smiles>  (25) 
COc1ccc(CN(C)CCCCNCc2ccccc2OC)cc1

>  <score_type>  (25) 
oracle

>  <origin>  (25) 
adg

>  <m_score__min__energy>  (25) 
-6.8600000000000003

>  <m_primary>  (25) 
energy

$$$$
25:0
     RDKit          3D

 56 59  0  0  0  0  0  0  0  0999 V2000
   58.6480   33.6860   52.0980 C   0  0  0  0  0  0  0  0  0  0  0  0
   58.0880   32.4730   51.3620 C   0  0  0  0  0  0  0  0  0  0  0  0
   59.1420   31.7980   50.6110 N   0  0  0  0  0  0  0  0  0  0  0  0
   59.0920   30.4010   50.2870 C   0  0  0  0  0  0  0  0  0  0  0  0
   58.1500   29.6840   50.7240 O   0  0  0  0  0  0  0  0  0  0  0  0
   60.1100   29.8170   49.3370 C   0  0  0  0  0  0  0  0  0  0  0  0
   60.1890   30.6990   48.0720 C   0  0  0  0  0  0  0  0  0  0  0  0
   60.8770   29.9580   46.9140 C   0  0  0  0  0  0  0  0  0  0  0  0
   60.2420   28.6510   46.6000 N   0  0  0  0  0  0  0  0  0  0  0  0
   59.8120   28.4900   45.1910 C   0  0  0  0  0  0  0  0  0  0  0  0
   58.5730   29.2850   44.8250 C   0  0  0  0  0  0  0  0  0  0  0  0
   57.3670   28.6190   44.5600 C   0  0  0  0  0  0  0  0  0  0  0  0
   56.2210   29.3390   44.2150 C   0  0  0  0  0  0  0  0  0  0  0  0
   56.2730   30.7300   44.1110 C   0  0  0  0  0  0  0  0  0  0  0  0
   57.4730   31.4120   44.3410 C   0  0  0  0  0  0  0  0  0  0  0  0
   57.4790   32.8460   44.2510 N   0  0  0  0  0  0  0  0  0  0  0  0
   57.6440   33.7760   45.3320 C   0  0  0  0  0  0  0  0  0  0  0  0
   56.7150   34.5940   45.5740 O   0  0  0  0  0  0  0  0  0  0  0  0
   58.8740   33.8300   46.1400 C   0  0  0  0  0  0  0  0  0  0  0  0
   60.1860   33.8110   45.6550 C   0  0  0  0  0  0  0  0  0  0  0  0
   61.1320   33.8420   46.6830 C   0  0  0  0  0  0  0  0  0  0  0  0
   62.5220   33.7980   46.5280 C   0  0  0  0  0  0  0  0  0  0  0  0
   63.3320   33.8130   47.6780 C   0  0  0  0  0  0  0  0  0  0  0  0
   62.7520   33.8740   48.9600 C   0  0  0  0  0  0  0  0  0  0  0  0
   61.3540   33.9230   49.1050 C   0  0  0  0  0  0  0  0  0  0  0  0
   60.5720   33.9030   47.9520 C   0  0  0  0  0  0  0  0  0  0  0  0
   58.9000   33.9130   47.8300 S   0  0  0  0  0  0  0  0  0  0  0  0
   58.6180   30.6850   44.7210 C   0  0  0  0  0  0  0  0  0  0  0  0
   59.2710   28.1490   47.5970 C   0  0  0  0  0  0  0  0  0  0  0  0
   59.8290   28.3230   49.0120 C   0  0  0  0  0  0  0  0  0  0  0  0
   58.5729   33.5233   53.1833 H   0  0  0  0  0  0  0  0  0  0  0  0
   59.7029   33.8283   51.8207 H   0  0  0  0  0  0  0  0  0  0  0  0
   58.0720   34.5812   51.8207 H   0  0  0  0  0  0  0  0  0  0  0  0
   57.6593   31.7721   52.0934 H   0  0  0  0  0  0  0  0  0  0  0  0
   57.3118   32.8107   50.6596 H   0  0  0  0  0  0  0  0  0  0  0  0
   59.9630   32.3650   50.2930 H   0  0  0  0  0  0  0  0  0  0  0  0
   61.0952   29.8208   49.8262 H   0  0  0  0  0  0  0  0  0  0  0  0
   59.1698   30.9759   47.7645 H   0  0  0  0  0  0  0  0  0  0  0  0
   60.7814   31.5946   48.3107 H   0  0  0  0  0  0  0  0  0  0  0  0
   60.8336   30.5930   46.0169 H   0  0  0  0  0  0  0  0  0  0  0  0
   61.9125   29.7540   47.2239 H   0  0  0  0  0  0  0  0  0  0  0  0
   60.6361   28.8158   44.5393 H   0  0  0  0  0  0  0  0  0  0  0  0
   59.5576   27.4282   45.0572 H   0  0  0  0  0  0  0  0  0  0  0  0
   57.3237   27.5217   44.6244 H   0  0  0  0  0  0  0  0  0  0  0  0
   55.2760   28.8091   44.0249 H   0  0  0  0  0  0  0  0  0  0  0  0
   55.3657   31.2931   43.8468 H   0  0  0  0  0  0  0  0  0  0  0  0
   60.4436   33.7757   44.5862 H   0  0  0  0  0  0  0  0  0  0  0  0
   62.9728   33.7525   45.5257 H   0  0  0  0  0  0  0  0  0  0  0  0
   64.4266   33.7768   47.5752 H   0  0  0  0  0  0  0  0  0  0  0  0
   63.3955   33.8834   49.8521 H   0  0  0  0  0  0  0  0  0  0  0  0
   60.8907   33.9757   50.1013 H   0  0  0  0  0  0  0  0  0  0  0  0
   59.5553   31.2182   44.9381 H   0  0  0  0  0  0  0  0  0  0  0  0
   58.3312   28.7131   47.5050 H   0  0  0  0  0  0  0  0  0  0  0  0
   59.0869   27.0803   47.4125 H   0  0  0  0  0  0  0  0  0  0  0  0
   59.0976   27.9320   49.7347 H   0  0  0  0  0  0  0  0  0  0  0  0
   60.7790   27.7723   49.0772 H   0  0  0  0  0  0  0  0  0  0  0  0
  1  2  1  0
  2  3  1  0
  3  4  1  0
  4  5  2  0
  4  6  1  0
  6  7  1  0
  7  8  1  0
  8  9  1  0
  9 10  1  0
 10 11  1  0
 11 12  2  0
 12 13  1  0
 13 14  2  0
 14 15  1  0
 15 16  1  0
 16 17  1  0
 17 18  2  0
 17 19  1  0
 19 20  2  0
 20 21  1  0
 21 22  2  0
 22 23  1  0
 23 24  2  0
 24 25  1  0
 25 26  2  0
 26 27  1  0
 15 28  2  0
  9 29  1  0
 29 30  1  0
 30  6  1  0
 28 11  1  0
 27 19  1  0
 26 21  1  0
  1 31  1  0
  1 32  1  0
  1 33  1  0
  2 34  1  0
  2 35  1  0
  3 36  1  0
  6 37  1  0
  7 38  1  0
  7 39  1  0
  8 40  1  0
  8 41  1  0
 10 42  1  0
 10 43  1  0
 12 44  1  0
 13 45  1  0
 14 46  1  0
 20 47  1  0
 22 48  1  0
 23 49  1  0
 24 50  1  0
 25 51  1  0
 28 52  1  0
 29 53  1  0
 29 54  1  0
 30 55  1  0
 30 56  1  0
M  CHG  1  16  -1
M  END
>  <UniqueID>  (26) 
26

>  <SMILES>  (26) 
CCNC(=O)C1CCN(Cc2cccc([N-]C(=O)c3cc4ccccc4s3)c2)CC1

>  <Energy>  (26) 
101.11907972817215

>  <Genealogy>  (26) 
CCNC(=O)C1CCN(Cc2cccc([N-]C(=O)c3cc4ccccc4s3)c2)CC1 (protonated)
CCNC(=O)C1CCN(Cc2cccc([N-]C(=O)c3cc4ccccc4s3)c2)CC1 (3D coordinates assigned)
CCNC(=O)C1CCN(Cc2cccc([N-]C(=O)c3cc4ccccc4s3)c2)CC1 (nonaromatic ring conformer: 101.11907972817215 kcal/mol)

>  <smiles>  (26) 
CCNC(=O)C1CCN(Cc2cccc(NC(=O)c3cc4ccccc4s3)c2)CC1

>  <score_type>  (26) 
oracle

>  <origin>  (26) 
adg

>  <m_score__min__energy>  (26) 
-10.640000000000001

>  <m_primary>  (26) 
energy

$$$$
26:0
     RDKit          3D

 70 75  0  0  0  0  0  0  0  0999 V2000
   57.3660   19.9810   47.9180 C   0  0  0  0  0  0  0  0  0  0  0  0
   57.3720   21.1190   48.7700 O   0  0  0  0  0  0  0  0  0  0  0  0
   56.6840   21.1650   49.9890 C   0  0  0  0  0  0  0  0  0  0  0  0
   57.3250   20.8430   51.1480 N   0  0  0  0  0  0  0  0  0  0  0  0
   56.6910   20.8490   52.3490 C   0  0  0  0  0  0  0  0  0  0  0  0
   55.3400   21.1870   52.4230 C   0  0  0  0  0  0  0  0  0  0  0  0
   54.6550   21.5240   51.2570 C   0  0  0  0  0  0  0  0  0  0  0  0
   55.3200   21.5250   50.0200 C   0  0  0  0  0  0  0  0  0  0  0  0
   54.5910   21.9070   48.7840 C   0  0  0  0  0  0  0  0  0  0  0  0
   53.2540   21.5210   48.6000 C   0  0  0  0  0  0  0  0  0  0  0  0
   52.5640   21.8810   47.4400 C   0  0  0  0  0  0  0  0  0  0  0  0
   53.2040   22.6250   46.4430 C   0  0  0  0  0  0  0  0  0  0  0  0
   52.5260   22.9780   45.3210 N   0  0  0  0  0  0  0  0  0  0  0  0
   53.1250   23.7000   44.3400 C   0  0  0  0  0  0  0  0  0  0  0  0
   54.4230   24.0730   44.4640 N   0  0  0  0  0  0  0  0  0  0  0  0
   55.1560   23.7510   45.5630 C   0  0  0  0  0  0  0  0  0  0  0  0
   56.5780   24.1570   45.6070 C   0  0  0  0  0  0  0  0  0  0  0  0
   57.5550   23.2130   45.2550 C   0  0  0  0  0  0  0  0  0  0  0  0
   58.9060   23.5480   45.2800 C   0  0  0  0  0  0  0  0  0  0  0  0
   59.3000   24.8330   45.6450 C   0  0  0  0  0  0  0  0  0  0  0  0
   58.3460   25.7960   45.9950 C   0  0  0  0  0  0  0  0  0  0  0  0
   58.7910   27.1100   46.3580 N   0  0  0  0  0  0  0  0  0  0  0  0
   59.5580   27.2410   47.4430 N   0  0  0  0  0  0  0  0  0  0  0  0
   60.0180   28.4470   47.8610 C   0  0  0  0  0  0  0  0  0  0  0  0
   59.6870   29.5990   47.1450 C   0  0  0  0  0  0  0  0  0  0  0  0
   60.1490   30.8590   47.5570 C   0  0  0  0  0  0  0  0  0  0  0  0
   59.8160   32.0290   46.8330 C   0  0  0  0  0  0  0  0  0  0  0  0
   60.2970   33.4350   47.2500 C   0  0  0  0  0  0  0  0  0  0  0  0
   61.8370   33.4970   47.1650 C   0  0  0  0  0  0  0  0  0  0  0  0
   59.8900   33.8150   48.6950 C   0  0  0  0  0  0  0  0  0  0  0  0
   59.6870   34.4910   46.3020 C   0  0  0  0  0  0  0  0  0  0  0  0
   59.0090   31.8840   45.6830 C   0  0  0  0  0  0  0  0  0  0  0  0
   58.5480   30.6310   45.2720 C   0  0  0  0  0  0  0  0  0  0  0  0
   58.8800   29.4790   46.0000 C   0  0  0  0  0  0  0  0  0  0  0  0
   58.4320   28.2030   45.6160 C   0  0  0  0  0  0  0  0  0  0  0  0
   57.7050   28.0620   44.5910 O   0  0  0  0  0  0  0  0  0  0  0  0
   56.9690   25.4650   45.9910 C   0  0  0  0  0  0  0  0  0  0  0  0
   55.9320   26.4990   46.3810 C   0  0  0  0  0  0  0  0  0  0  0  0
   54.7690   26.3330   45.6160 O   0  0  0  0  0  0  0  0  0  0  0  0
   54.5510   23.0140   46.6060 C   0  0  0  0  0  0  0  0  0  0  0  0
   55.2280   22.6720   47.7910 C   0  0  0  0  0  0  0  0  0  0  0  0
   57.3612   19.0659   48.5285 H   0  0  0  0  0  0  0  0  0  0  0  0
   56.4680   20.0030   47.2831 H   0  0  0  0  0  0  0  0  0  0  0  0
   58.2642   19.9935   47.2831 H   0  0  0  0  0  0  0  0  0  0  0  0
   57.2432   20.5872   53.2636 H   0  0  0  0  0  0  0  0  0  0  0  0
   54.8200   21.1876   53.3924 H   0  0  0  0  0  0  0  0  0  0  0  0
   53.5889   21.7904   51.3058 H   0  0  0  0  0  0  0  0  0  0  0  0
   52.7453   20.9300   49.3759 H   0  0  0  0  0  0  0  0  0  0  0  0
   51.5144   21.5786   47.3101 H   0  0  0  0  0  0  0  0  0  0  0  0
   52.5562   23.9833   43.4421 H   0  0  0  0  0  0  0  0  0  0  0  0
   57.2505   22.1990   44.9566 H   0  0  0  0  0  0  0  0  0  0  0  0
   59.6633   22.7968   45.0111 H   0  0  0  0  0  0  0  0  0  0  0  0
   60.3687   25.0932   45.6584 H   0  0  0  0  0  0  0  0  0  0  0  0
   60.6486   28.5168   48.7596 H   0  0  0  0  0  0  0  0  0  0  0  0
   60.7788   30.9383   48.4553 H   0  0  0  0  0  0  0  0  0  0  0  0
   62.2599   33.5140   48.1803 H   0  0  0  0  0  0  0  0  0  0  0  0
   62.2104   32.6132   46.6271 H   0  0  0  0  0  0  0  0  0  0  0  0
   62.1382   34.4080   46.6271 H   0  0  0  0  0  0  0  0  0  0  0  0
   60.5010   33.2446   49.4100 H   0  0  0  0  0  0  0  0  0  0  0  0
   60.0529   34.8917   48.8507 H   0  0  0  0  0  0  0  0  0  0  0  0
   58.8270   33.5787   48.8507 H   0  0  0  0  0  0  0  0  0  0  0  0
   59.2238   35.2928   46.8958 H   0  0  0  0  0  0  0  0  0  0  0  0
   60.4791   34.9153   45.6676 H   0  0  0  0  0  0  0  0  0  0  0  0
   58.9237   34.0169   45.6676 H   0  0  0  0  0  0  0  0  0  0  0  0
   58.7380   32.7759   45.0991 H   0  0  0  0  0  0  0  0  0  0  0  0
   57.9209   30.5473   44.3721 H   0  0  0  0  0  0  0  0  0  0  0  0
   55.6854   26.3819   47.4466 H   0  0  0  0  0  0  0  0  0  0  0  0
   56.3411   27.5035   46.1975 H   0  0  0  0  0  0  0  0  0  0  0  0
   55.0530   25.9550   44.7440 H   0  0  0  0  0  0  0  0  0  0  0  0
   56.2651   23.0061   47.9420 H   0  0  0  0  0  0  0  0  0  0  0  0
  1  2  1  0
  2  3  1  0
  3  4  2  0
  4  5  1  0
  5  6  2  0
  6  7  1  0
  7  8  2  0
  8  9  1  0
  9 10  2  0
 10 11  1  0
 11 12  2  0
 12 13  1  0
 13 14  2  0
 14 15  1  0
 15 16  2  0
 16 17  1  0
 17 18  2  0
 18 19  1  0
 19 20  2  0
 20 21  1  0
 21 22  1  0
 22 23  1  0
 23 24  2  0
 24 25  1  0
 25 26  2  0
 26 27  1  0
 27 28  1  0
 28 29  1  0
 28 30  1  0
 28 31  1  0
 27 32  2  0
 32 33  1  0
 33 34  2  0
 34 35  1  0
 35 36  2  0
 21 37  2  0
 37 38  1  0
 38 39  1  0
 16 40  1  0
 40 41  2  0
  8  3  1  0
 41  9  1  0
 40 12  1  0
 37 17  1  0
 35 22  1  0
 34 25  1  0
  1 42  1  0
  1 43  1  0
  1 44  1  0
  5 45  1  0
  6 46  1  0
  7 47  1  0
 10 48  1  0
 11 49  1  0
 14 50  1  0
 18 51  1  0
 19 52  1  0
 20 53  1  0
 24 54  1  0
 26 55  1  0
 29 56  1  0
 29 57  1  0
 29 58  1  0
 30 59  1  0
 30 60  1  0
 30 61  1  0
 31 62  1  0
 31 63  1  0
 31 64  1  0
 32 65  1  0
 33 66  1  0
 38 67  1  0
 38 68  1  0
 39 69  1  0
 41 70  1  0
M  END
>  <UniqueID>  (27) 
27

>  <SMILES>  (27) 
COc1ncccc1-c1ccc2ncnc(-c3cccc(-n4ncc5cc(C(C)(C)C)ccc5c4=O)c3CO)c2c1

>  <Energy>  (27) 
110.57621006515963

>  <Genealogy>  (27) 
COc1ncccc1-c1ccc2ncnc(-c3cccc(-n4ncc5cc(C(C)(C)C)ccc5c4=O)c3CO)c2c1 (3D coordinates assigned)
COc1ncccc1-c1ccc2ncnc(-c3cccc(-n4ncc5cc(C(C)(C)C)ccc5c4=O)c3CO)c2c1 (optimized conformer: 110.57621006515963 kcal/mol)

>  <smiles>  (27) 
COc1ncccc1-c1ccc2ncnc(-c3cccc(-n4ncc5cc(C(C)(C)C)ccc5c4=O)c3CO)c2c1

>  <score_type>  (27) 
oracle

>  <origin>  (27) 
adg

>  <m_score__min__energy>  (27) 
-9.9700000000000006

>  <m_primary>  (27) 
energy

$$$$
27:0
     RDKit          3D

 35 36  0  0  0  0  0  0  0  0999 V2000
   56.4920   29.9010   42.5220 N   0  0  0  0  0  0  0  0  0  0  0  0
   56.3970   30.0810   44.2400 S   0  0  0  0  0  0  0  0  0  0  0  0
   55.1650   29.3700   44.7270 O   0  0  0  0  0  0  0  0  0  0  0  0
   56.3010   31.5420   44.5740 O   0  0  0  0  0  0  0  0  0  0  0  0
   57.8290   29.3920   45.0190 C   0  0  0  0  0  0  0  0  0  0  0  0
   59.0150   30.1440   45.0500 C   0  0  0  0  0  0  0  0  0  0  0  0
   60.1740   29.6190   45.6220 C   0  0  0  0  0  0  0  0  0  0  0  0
   60.1630   28.3400   46.1730 C   0  0  0  0  0  0  0  0  0  0  0  0
   58.9910   27.5830   46.1610 C   0  0  0  0  0  0  0  0  0  0  0  0
   57.8110   28.0940   45.5870 C   0  0  0  0  0  0  0  0  0  0  0  0
   56.6010   27.3120   45.6030 N   0  0  0  0  0  0  0  0  0  0  0  0
   56.4200   26.1270   46.4420 C   0  0  0  0  0  0  0  0  0  0  0  0
   56.5430   24.8770   45.6150 C   0  0  0  0  0  0  0  0  0  0  0  0
   55.3910   24.2550   45.1110 C   0  0  0  0  0  0  0  0  0  0  0  0
   55.4970   23.1190   44.3040 C   0  0  0  0  0  0  0  0  0  0  0  0
   56.7570   22.5770   43.9990 C   0  0  0  0  0  0  0  0  0  0  0  0
   56.8740   21.3840   43.0840 C   0  0  0  0  0  0  0  0  0  0  0  0
   56.2550   21.6370   41.8720 F   0  0  0  0  0  0  0  0  0  0  0  0
   56.2710   20.2920   43.6790 F   0  0  0  0  0  0  0  0  0  0  0  0
   58.2040   21.0870   42.8370 F   0  0  0  0  0  0  0  0  0  0  0  0
   57.9110   23.2200   44.4810 C   0  0  0  0  0  0  0  0  0  0  0  0
   57.8040   24.3560   45.2870 C   0  0  0  0  0  0  0  0  0  0  0  0
   57.3760   29.3840   42.3170 H   0  0  0  0  0  0  0  0  0  0  0  0
   55.7060   29.2760   42.2360 H   0  0  0  0  0  0  0  0  0  0  0  0
   59.0300   31.1561   44.6193 H   0  0  0  0  0  0  0  0  0  0  0  0
   61.0978   30.2160   45.6379 H   0  0  0  0  0  0  0  0  0  0  0  0
   61.0797   27.9260   46.6183 H   0  0  0  0  0  0  0  0  0  0  0  0
   58.9888   26.5764   46.6046 H   0  0  0  0  0  0  0  0  0  0  0  0
   55.8370   27.5380   44.9280 H   0  0  0  0  0  0  0  0  0  0  0  0
   57.1889   26.1186   47.2286 H   0  0  0  0  0  0  0  0  0  0  0  0
   55.4178   26.1591   46.8944 H   0  0  0  0  0  0  0  0  0  0  0  0
   54.3987   24.6637   45.3524 H   0  0  0  0  0  0  0  0  0  0  0  0
   54.5877   22.6458   43.9048 H   0  0  0  0  0  0  0  0  0  0  0  0
   58.9047   22.8258   44.2216 H   0  0  0  0  0  0  0  0  0  0  0  0
   58.7133   24.8448   45.6667 H   0  0  0  0  0  0  0  0  0  0  0  0
  1  2  1  0
  2  3  2  0
  2  4  2  0
  2  5  1  0
  5  6  2  0
  6  7  1  0
  7  8  2  0
  8  9  1  0
  9 10  2  0
 10 11  1  0
 11 12  1  0
 12 13  1  0
 13 14  2  0
 14 15  1  0
 15 16  2  0
 16 17  1  0
 17 18  1  0
 17 19  1  0
 17 20  1  0
 16 21  1  0
 21 22  2  0
 10  5  1  0
 22 13  1  0
  1 23  1  0
  1 24  1  0
  6 25  1  0
  7 26  1  0
  8 27  1  0
  9 28  1  0
 11 29  1  0
 12 30  1  0
 12 31  1  0
 14 32  1  0
 15 33  1  0
 21 34  1  0
 22 35  1  0
M  END
>  <UniqueID>  (28) 
28

>  <SMILES>  (28) 
NS(=O)(=O)c1ccccc1NCc1ccc(C(F)(F)F)cc1

>  <Energy>  (28) 
36.052941466496094

>  <Genealogy>  (28) 
NS(=O)(=O)c1ccccc1NCc1ccc(C(F)(F)F)cc1 (3D coordinates assigned)
NS(=O)(=O)c1ccccc1NCc1ccc(C(F)(F)F)cc1 (optimized conformer: 36.052941466496094 kcal/mol)

>  <smiles>  (28) 
NS(=O)(=O)c1ccccc1NCc1ccc(C(F)(F)F)cc1

>  <score_type>  (28) 
oracle

>  <origin>  (28) 
adg

>  <m_score__min__energy>  (28) 
-7.5099999999999998

>  <m_primary>  (28) 
energy

$$$$
28:0
     RDKit          3D

 51 55  0  0  0  0  0  0  0  0999 V2000
   59.0650   31.4380   48.2760 C   0  0  0  0  0  0  0  0  0  0  0  0
   59.5720   31.6600   46.8530 C   0  0  0  0  0  0  0  0  0  0  0  0
   59.5210   33.0790   46.4770 N   0  0  0  0  0  0  0  0  0  0  0  0
   58.5540   33.7310   45.7930 C   0  0  0  0  0  0  0  0  0  0  0  0
   57.0000   33.0170   45.2420 S   0  0  0  0  0  0  0  0  0  0  0  0
   57.7610   31.8540   44.0560 C   0  0  0  0  0  0  0  0  0  0  0  0
   57.3400   30.4480   44.3440 C   0  0  0  0  0  0  0  0  0  0  0  0
   56.2030   30.2360   44.8450 O   0  0  0  0  0  0  0  0  0  0  0  0
   58.1970   29.3550   43.9760 N   0  0  0  0  0  0  0  0  0  0  0  0
   57.8530   27.9730   44.1680 C   0  0  0  0  0  0  0  0  0  0  0  0
   58.1220   27.0090   43.1780 C   0  0  0  0  0  0  0  0  0  0  0  0
   57.7660   25.6700   43.3800 C   0  0  0  0  0  0  0  0  0  0  0  0
   57.1280   25.2910   44.5630 C   0  0  0  0  0  0  0  0  0  0  0  0
   56.8660   26.2440   45.5560 C   0  0  0  0  0  0  0  0  0  0  0  0
   57.2050   27.5830   45.3500 C   0  0  0  0  0  0  0  0  0  0  0  0
   56.2620   25.8330   46.7490 O   0  0  0  0  0  0  0  0  0  0  0  0
   56.1650   24.4470   47.0880 C   0  0  0  0  0  0  0  0  0  0  0  0
   55.8500   23.6160   45.8380 C   0  0  0  0  0  0  0  0  0  0  0  0
   56.7380   23.9640   44.7730 O   0  0  0  0  0  0  0  0  0  0  0  0
   58.9130   34.9970   45.5120 N   0  0  0  0  0  0  0  0  0  0  0  0
   60.1350   35.1690   45.9910 N   0  0  0  0  0  0  0  0  0  0  0  0
   60.4960   34.0110   46.5760 C   0  0  0  0  0  0  0  0  0  0  0  0
   61.8430   33.7920   47.1260 C   0  0  0  0  0  0  0  0  0  0  0  0
   63.0230   33.6790   46.4000 C   0  0  0  0  0  0  0  0  0  0  0  0
   64.0660   33.5020   47.2440 N   0  0  0  0  0  0  0  0  0  0  0  0
   63.5740   33.5160   48.4710 N   0  0  0  0  0  0  0  0  0  0  0  0
   64.2840   33.4010   49.6220 C   0  0  0  0  0  0  0  0  0  0  0  0
   63.5950   33.4890   50.8400 C   0  0  0  0  0  0  0  0  0  0  0  0
   62.2040   33.7060   50.8360 C   0  0  0  0  0  0  0  0  0  0  0  0
   61.5090   33.8240   49.6220 C   0  0  0  0  0  0  0  0  0  0  0  0
   62.2440   33.6990   48.4430 C   0  0  0  0  0  0  0  0  0  0  0  0
   59.8286   31.7724   48.9937 H   0  0  0  0  0  0  0  0  0  0  0  0
   58.1403   32.0136   48.4298 H   0  0  0  0  0  0  0  0  0  0  0  0
   58.8608   30.3681   48.4298 H   0  0  0  0  0  0  0  0  0  0  0  0
   60.6127   31.3099   46.7860 H   0  0  0  0  0  0  0  0  0  0  0  0
   58.9238   31.0978   46.1647 H   0  0  0  0  0  0  0  0  0  0  0  0
   57.4473   32.1224   43.0364 H   0  0  0  0  0  0  0  0  0  0  0  0
   58.8549   31.9202   44.1508 H   0  0  0  0  0  0  0  0  0  0  0  0
   59.0370   29.5720   43.3930 H   0  0  0  0  0  0  0  0  0  0  0  0
   58.6143   27.3091   42.2412 H   0  0  0  0  0  0  0  0  0  0  0  0
   57.9884   24.9182   42.6085 H   0  0  0  0  0  0  0  0  0  0  0  0
   56.9634   28.3341   46.1165 H   0  0  0  0  0  0  0  0  0  0  0  0
   57.1204   24.1102   47.5168 H   0  0  0  0  0  0  0  0  0  0  0  0
   55.3559   24.3129   47.8211 H   0  0  0  0  0  0  0  0  0  0  0  0
   55.9671   22.5479   46.0735 H   0  0  0  0  0  0  0  0  0  0  0  0
   54.8163   23.8218   45.5231 H   0  0  0  0  0  0  0  0  0  0  0  0
   63.0978   33.7264   45.3036 H   0  0  0  0  0  0  0  0  0  0  0  0
   65.3723   33.2428   49.5999 H   0  0  0  0  0  0  0  0  0  0  0  0
   64.1374   33.3892   51.7918 H   0  0  0  0  0  0  0  0  0  0  0  0
   61.6592   33.7834   51.7885 H   0  0  0  0  0  0  0  0  0  0  0  0
   60.4247   34.0083   49.6012 H   0  0  0  0  0  0  0  0  0  0  0  0
  1  2  1  0
  2  3  1  0
  3  4  1  0
  4  5  1  0
  5  6  1  0
  6  7  1  0
  7  8  2  0
  7  9  1  0
  9 10  1  0
 10 11  2  0
 11 12  1  0
 12 13  2  0
 13 14  1  0
 14 15  2  0
 14 16  1  0
 16 17  1  0
 17 18  1  0
 18 19  1  0
  4 20  2  0
 20 21  1  0
 21 22  2  0
 22 23  1  0
 23 24  1  0
 24 25  2  0
 25 26  1  0
 26 27  1  0
 27 28  2  0
 28 29  1  0
 29 30  2  0
 30 31  1  0
 22  3  1  0
 31 23  2  0
 15 10  1  0
 31 26  1  0
 19 13  1  0
  1 32  1  0
  1 33  1  0
  1 34  1  0
  2 35  1  0
  2 36  1  0
  6 37  1  0
  6 38  1  0
  9 39  1  0
 11 40  1  0
 12 41  1  0
 15 42  1  0
 17 43  1  0
 17 44  1  0
 18 45  1  0
 18 46  1  0
 24 47  1  0
 27 48  1  0
 28 49  1  0
 29 50  1  0
 30 51  1  0
M  END
>  <UniqueID>  (29) 
29

>  <SMILES>  (29) 
CCn1c(SCC(=O)Nc2ccc3c(c2)OCCO3)nnc1-c1cnn2ccccc12

>  <Energy>  (29) 
129.270843955519

>  <Genealogy>  (29) 
CCn1c(SCC(=O)Nc2ccc3c(c2)OCCO3)nnc1-c1cnn2ccccc12 (3D coordinates assigned)
CCn1c(SCC(=O)Nc2ccc3c(c2)OCCO3)nnc1-c1cnn2ccccc12 (nonaromatic ring conformer: 129.270843955519 kcal/mol)

>  <smiles>  (29) 
CCn1c(SCC(=O)Nc2ccc3c(c2)OCCO3)nnc1-c1cnn2ccccc12

>  <score_type>  (29) 
oracle

>  <origin>  (29) 
adg

>  <m_score__min__energy>  (29) 
-9.5999999999999996

>  <m_primary>  (29) 
energy

$$$$
29:0
     RDKit          3D

 39 40  0  0  0  0  0  0  0  0999 V2000
   56.6820   21.7080   42.9690 C   0  0  0  0  0  0  0  0  0  0  0  0
   55.7940   22.9470   42.9810 C   0  0  0  0  0  0  0  0  0  0  0  0
   56.6250   24.1590   42.9720 N   0  0  0  0  0  0  0  0  0  0  0  0
   57.6020   24.1500   44.0720 C   0  0  0  0  0  0  0  0  0  0  0  0
   58.0500   25.5770   44.4430 C   0  0  0  0  0  0  0  0  0  0  0  0
   57.7470   26.5710   43.3980 N   0  0  0  0  0  0  0  0  0  0  0  0
   57.8630   27.9220   43.8930 C   0  0  0  0  0  0  0  0  0  0  0  0
   58.8090   28.2380   44.8820 C   0  0  0  0  0  0  0  0  0  0  0  0
   58.9350   29.5490   45.3500 C   0  0  0  0  0  0  0  0  0  0  0  0
   58.1190   30.5730   44.8360 C   0  0  0  0  0  0  0  0  0  0  0  0
   58.2560   31.9660   45.3300 C   0  0  0  0  0  0  0  0  0  0  0  0
   58.0720   33.0570   44.4580 C   0  0  0  0  0  0  0  0  0  0  0  0
   58.2010   34.3680   44.9260 C   0  0  0  0  0  0  0  0  0  0  0  0
   58.5140   34.6050   46.2670 C   0  0  0  0  0  0  0  0  0  0  0  0
   58.6980   33.5330   47.1410 C   0  0  0  0  0  0  0  0  0  0  0  0
   58.5710   32.2200   46.6790 C   0  0  0  0  0  0  0  0  0  0  0  0
   57.1740   30.2550   43.8440 C   0  0  0  0  0  0  0  0  0  0  0  0
   57.0470   28.9430   43.3780 C   0  0  0  0  0  0  0  0  0  0  0  0
   56.9003   21.4034   44.0032 H   0  0  0  0  0  0  0  0  0  0  0  0
   56.1632   20.8901   42.4476 H   0  0  0  0  0  0  0  0  0  0  0  0
   57.6232   21.9365   42.4476 H   0  0  0  0  0  0  0  0  0  0  0  0
   55.1480   22.9412   42.0907 H   0  0  0  0  0  0  0  0  0  0  0  0
   55.1748   22.9396   43.8902 H   0  0  0  0  0  0  0  0  0  0  0  0
   57.1610   24.1680   42.0730 H   0  0  0  0  0  0  0  0  0  0  0  0
   57.1428   23.6792   44.9537 H   0  0  0  0  0  0  0  0  0  0  0  0
   58.4869   23.5859   43.7423 H   0  0  0  0  0  0  0  0  0  0  0  0
   57.5360   25.8752   45.3687 H   0  0  0  0  0  0  0  0  0  0  0  0
   59.1429   25.5548   44.5659 H   0  0  0  0  0  0  0  0  0  0  0  0
   58.3650   26.4240   42.5660 H   0  0  0  0  0  0  0  0  0  0  0  0
   56.7640   26.4180   43.0720 H   0  0  0  0  0  0  0  0  0  0  0  0
   59.4555   27.4478   45.2913 H   0  0  0  0  0  0  0  0  0  0  0  0
   59.6784   29.7819   46.1266 H   0  0  0  0  0  0  0  0  0  0  0  0
   57.8251   32.8761   43.4014 H   0  0  0  0  0  0  0  0  0  0  0  0
   58.0560   35.2138   44.2379 H   0  0  0  0  0  0  0  0  0  0  0  0
   58.6154   35.6371   46.6338 H   0  0  0  0  0  0  0  0  0  0  0  0
   58.9437   33.7217   48.1965 H   0  0  0  0  0  0  0  0  0  0  0  0
   58.7180   31.3797   47.3734 H   0  0  0  0  0  0  0  0  0  0  0  0
   56.5295   31.0451   43.4314 H   0  0  0  0  0  0  0  0  0  0  0  0
   56.3029   28.7085   42.6026 H   0  0  0  0  0  0  0  0  0  0  0  0
  1  2  1  0
  2  3  1  0
  3  4  1  0
  4  5  1  0
  5  6  1  0
  6  7  1  0
  7  8  2  0
  8  9  1  0
  9 10  2  0
 10 11  1  0
 11 12  2  0
 12 13  1  0
 13 14  2  0
 14 15  1  0
 15 16  2  0
 10 17  1  0
 17 18  2  0
 18  7  1  0
 16 11  1  0
  1 19  1  0
  1 20  1  0
  1 21  1  0
  2 22  1  0
  2 23  1  0
  3 24  1  0
  4 25  1  0
  4 26  1  0
  5 27  1  0
  5 28  1  0
  6 29  1  0
  6 30  1  0
  8 31  1  0
  9 32  1  0
 12 33  1  0
 13 34  1  0
 14 35  1  0
 15 36  1  0
 16 37  1  0
 17 38  1  0
 18 39  1  0
M  CHG  1   6   1
M  END
>  <UniqueID>  (30) 
30

>  <SMILES>  (30) 
CCNCC[NH2+]c1ccc(-c2ccccc2)cc1

>  <Energy>  (30) 
40.83331650657343

>  <Genealogy>  (30) 
CCNCC[NH2+]c1ccc(-c2ccccc2)cc1 (protonated)
CCNCC[NH2+]c1ccc(-c2ccccc2)cc1 (3D coordinates assigned)
CCNCC[NH2+]c1ccc(-c2ccccc2)cc1 (optimized conformer: 40.83331650657343 kcal/mol)

>  <smiles>  (30) 
CCNCCNc1ccc(-c2ccccc2)cc1

>  <score_type>  (30) 
oracle

>  <origin>  (30) 
adg

>  <m_score__min__energy>  (30) 
-5.2699999999999996

>  <m_primary>  (30) 
energy

$$$$
30:0
     RDKit          3D

 31 33  0  0  0  0  0  0  0  0999 V2000
   58.5370   31.8610   47.9830 C   0  0  0  0  0  0  0  0  0  0  0  0
   58.2350   31.6350   46.5240 C   0  0  0  0  0  0  0  0  0  0  0  0
   58.1940   30.3150   46.0380 C   0  0  0  0  0  0  0  0  0  0  0  0
   57.9390   30.0590   44.6890 C   0  0  0  0  0  0  0  0  0  0  0  0
   57.8840   28.2590   44.0520 Br  0  0  0  0  0  0  0  0  0  0  0  0
   57.7270   31.1180   43.8060 C   0  0  0  0  0  0  0  0  0  0  0  0
   57.7630   32.4330   44.2700 C   0  0  0  0  0  0  0  0  0  0  0  0
   58.0070   32.7120   45.6260 C   0  0  0  0  0  0  0  0  0  0  0  0
   57.9930   34.1590   46.0680 C   0  0  0  0  0  0  0  0  0  0  0  0
   59.6140   34.9550   45.7760 S   0  0  0  0  0  0  0  0  0  0  0  0
   60.3260   34.4370   47.3450 C   0  0  0  0  0  0  0  0  0  0  0  0
   59.6170   34.5950   48.5020 N   0  0  0  0  0  0  0  0  0  0  0  0
   60.1220   34.1930   49.7080 C   0  0  0  0  0  0  0  0  0  0  0  0
   61.3590   33.6270   49.7840 N   0  0  0  0  0  0  0  0  0  0  0  0
   62.0760   33.4720   48.6470 C   0  0  0  0  0  0  0  0  0  0  0  0
   63.6000   32.7960   48.4930 S   0  0  0  0  0  0  0  0  0  0  0  0
   63.6700   33.0000   46.8130 C   0  0  0  0  0  0  0  0  0  0  0  0
   62.4910   33.6000   46.3690 C   0  0  0  0  0  0  0  0  0  0  0  0
   61.5980   33.8640   47.4150 C   0  0  0  0  0  0  0  0  0  0  0  0
   57.8066   31.3144   48.5976 H   0  0  0  0  0  0  0  0  0  0  0  0
   59.5506   31.4977   48.2082 H   0  0  0  0  0  0  0  0  0  0  0  0
   58.4743   32.9359   48.2082 H   0  0  0  0  0  0  0  0  0  0  0  0
   58.3647   29.4756   46.7282 H   0  0  0  0  0  0  0  0  0  0  0  0
   57.5312   30.9158   42.7426 H   0  0  0  0  0  0  0  0  0  0  0  0
   57.5984   33.2620   43.5660 H   0  0  0  0  0  0  0  0  0  0  0  0
   57.2204   34.6998   45.5017 H   0  0  0  0  0  0  0  0  0  0  0  0
   57.7777   34.1920   47.1462 H   0  0  0  0  0  0  0  0  0  0  0  0
   58.6640   35.0240   48.4700 H   0  0  0  0  0  0  0  0  0  0  0  0
   59.5255   34.3276   50.6224 H   0  0  0  0  0  0  0  0  0  0  0  0
   64.5137   32.7053   46.1717 H   0  0  0  0  0  0  0  0  0  0  0  0
   62.2859   33.8389   45.3150 H   0  0  0  0  0  0  0  0  0  0  0  0
  1  2  1  0
  2  3  2  0
  3  4  1  0
  4  5  1  0
  4  6  2  0
  6  7  1  0
  7  8  2  0
  8  9  1  0
  9 10  1  0
 10 11  1  0
 11 12  2  0
 12 13  1  0
 13 14  2  0
 14 15  1  0
 15 16  1  0
 16 17  1  0
 17 18  2  0
 18 19  1  0
  8  2  1  0
 19 11  1  0
 19 15  2  0
  1 20  1  0
  1 21  1  0
  1 22  1  0
  3 23  1  0
  6 24  1  0
  7 25  1  0
  9 26  1  0
  9 27  1  0
 12 28  1  0
 13 29  1  0
 17 30  1  0
 18 31  1  0
M  CHG  1  12   1
M  END
>  <UniqueID>  (31) 
31

>  <SMILES>  (31) 
Cc1cc(Br)ccc1CSc1[nH+]cnc2sccc12

>  <Energy>  (31) 
61.87412334569932

>  <Genealogy>  (31) 
Cc1cc(Br)ccc1CSc1[nH+]cnc2sccc12 (protonated)
Cc1cc(Br)ccc1CSc1[nH+]cnc2sccc12 (3D coordinates assigned)
Cc1cc(Br)ccc1CSc1[nH+]cnc2sccc12 (optimized conformer: 61.87412334569932 kcal/mol)

>  <smiles>  (31) 
Cc1cc(Br)ccc1CSc1ncnc2sccc12

>  <score_type>  (31) 
oracle

>  <origin>  (31) 
adg

>  <m_score__min__energy>  (31) 
-6.2000000000000002

>  <m_primary>  (31) 
energy

$$$$
31:0
     RDKit          3D

 51 53  0  0  0  0  0  0  0  0999 V2000
   58.5230   32.5330   54.1290 C   0  0  0  0  0  0  0  0  0  0  0  0
   58.0510   31.1640   53.8770 N   0  0  0  0  0  0  0  0  0  0  0  0
   57.0100   30.7900   54.8420 C   0  0  0  0  0  0  0  0  0  0  0  0
   57.4270   31.0350   52.2510 S   0  0  0  0  0  0  0  0  0  0  0  0
   56.2530   31.9570   52.0750 O   0  0  0  0  0  0  0  0  0  0  0  0
   56.9710   29.6260   51.9920 O   0  0  0  0  0  0  0  0  0  0  0  0
   58.6880   31.4430   51.0900 C   0  0  0  0  0  0  0  0  0  0  0  0
   60.0120   31.0670   51.3370 C   0  0  0  0  0  0  0  0  0  0  0  0
   61.0200   31.4080   50.4330 C   0  0  0  0  0  0  0  0  0  0  0  0
   60.7180   32.1320   49.2710 C   0  0  0  0  0  0  0  0  0  0  0  0
   61.7800   32.5290   48.3940 N   0  0  0  0  0  0  0  0  0  0  0  0
   62.4790   31.6040   47.5210 C   0  0  0  0  0  0  0  0  0  0  0  0
   63.6790   32.3770   46.9860 C   0  0  0  0  0  0  0  0  0  0  0  0
   63.4060   33.8480   47.2960 C   0  0  0  0  0  0  0  0  0  0  0  0
   62.3720   33.8540   48.4130 C   0  0  0  0  0  0  0  0  0  0  0  0
   59.3820   32.5080   49.0110 C   0  0  0  0  0  0  0  0  0  0  0  0
   59.0280   33.2050   47.8040 N   0  0  0  0  0  0  0  0  0  0  0  0
   59.2720   34.6490   47.6870 C   0  0  0  0  0  0  0  0  0  0  0  0
   59.7510   34.9820   46.2710 C   0  0  0  0  0  0  0  0  0  0  0  0
   58.7710   34.4930   45.1840 C   0  0  0  0  0  0  0  0  0  0  0  0
   57.7980   33.4010   45.6650 C   0  0  0  0  0  0  0  0  0  0  0  0
   58.4540   32.4550   46.6770 C   0  0  0  0  0  0  0  0  0  0  0  0
   58.3770   32.1650   49.9300 C   0  0  0  0  0  0  0  0  0  0  0  0
   58.5828   32.7064   55.2136 H   0  0  0  0  0  0  0  0  0  0  0  0
   59.5188   32.6658   53.6810 H   0  0  0  0  0  0  0  0  0  0  0  0
   57.8206   33.2513   53.6810 H   0  0  0  0  0  0  0  0  0  0  0  0
   58.8580   30.5030   53.9740 H   0  0  0  0  0  0  0  0  0  0  0  0
   57.3916   30.9271   55.8645 H   0  0  0  0  0  0  0  0  0  0  0  0
   56.1255   31.4266   54.6923 H   0  0  0  0  0  0  0  0  0  0  0  0
   56.7328   29.7361   54.6923 H   0  0  0  0  0  0  0  0  0  0  0  0
   60.2603   30.5006   52.2467 H   0  0  0  0  0  0  0  0  0  0  0  0
   62.0586   31.1064   50.6340 H   0  0  0  0  0  0  0  0  0  0  0  0
   62.8115   30.7199   48.0848 H   0  0  0  0  0  0  0  0  0  0  0  0
   61.8320   31.2413   46.7087 H   0  0  0  0  0  0  0  0  0  0  0  0
   64.6008   32.0458   47.4866 H   0  0  0  0  0  0  0  0  0  0  0  0
   63.8157   32.2117   45.9071 H   0  0  0  0  0  0  0  0  0  0  0  0
   64.3289   34.3471   47.6263 H   0  0  0  0  0  0  0  0  0  0  0  0
   63.0445   34.3875   46.4082 H   0  0  0  0  0  0  0  0  0  0  0  0
   62.8537   34.0469   49.3829 H   0  0  0  0  0  0  0  0  0  0  0  0
   61.6181   34.6421   48.2697 H   0  0  0  0  0  0  0  0  0  0  0  0
   58.3398   35.1947   47.8948 H   0  0  0  0  0  0  0  0  0  0  0  0
   60.0452   34.9461   48.4108 H   0  0  0  0  0  0  0  0  0  0  0  0
   59.8593   36.0731   46.1830 H   0  0  0  0  0  0  0  0  0  0  0  0
   60.7094   34.4657   46.1129 H   0  0  0  0  0  0  0  0  0  0  0  0
   58.1808   35.3541   44.8374 H   0  0  0  0  0  0  0  0  0  0  0  0
   59.3796   34.0474   44.3833 H   0  0  0  0  0  0  0  0  0  0  0  0
   56.9299   33.8822   46.1392 H   0  0  0  0  0  0  0  0  0  0  0  0
   57.4941   32.8066   44.7907 H   0  0  0  0  0  0  0  0  0  0  0  0
   57.6960   31.7554   47.0592 H   0  0  0  0  0  0  0  0  0  0  0  0
   59.2634   31.9078   46.1716 H   0  0  0  0  0  0  0  0  0  0  0  0
   57.3366   32.4657   49.7375 H   0  0  0  0  0  0  0  0  0  0  0  0
  1  2  1  0
  2  3  1  0
  2  4  1  0
  4  5  2  0
  4  6  2  0
  4  7  1  0
  7  8  2  0
  8  9  1  0
  9 10  2  0
 10 11  1  0
 11 12  1  0
 12 13  1  0
 13 14  1  0
 14 15  1  0
 10 16  1  0
 16 17  1  0
 17 18  1  0
 18 19  1  0
 19 20  1  0
 20 21  1  0
 21 22  1  0
 16 23  2  0
 23  7  1  0
 15 11  1  0
 22 17  1  0
  1 24  1  0
  1 25  1  0
  1 26  1  0
  2 27  1  0
  3 28  1  0
  3 29  1  0
  3 30  1  0
  8 31  1  0
  9 32  1  0
 12 33  1  0
 12 34  1  0
 13 35  1  0
 13 36  1  0
 14 37  1  0
 14 38  1  0
 15 39  1  0
 15 40  1  0
 18 41  1  0
 18 42  1  0
 19 43  1  0
 19 44  1  0
 20 45  1  0
 20 46  1  0
 21 47  1  0
 21 48  1  0
 22 49  1  0
 22 50  1  0
 23 51  1  0
M  CHG  1   2   1
M  END
>  <UniqueID>  (32) 
32

>  <SMILES>  (32) 
C[NH+](C)S(=O)(=O)c1ccc(N2CCCC2)c(N2CCCCC2)c1

>  <Energy>  (32) 
56.20018646146031

>  <Genealogy>  (32) 
C[NH+](C)S(=O)(=O)c1ccc(N2CCCC2)c(N2CCCCC2)c1 (protonated)
C[NH+](C)S(=O)(=O)c1ccc(N2CCCC2)c(N2CCCCC2)c1 (3D coordinates assigned)
C[NH+](C)S(=O)(=O)c1ccc(N2CCCC2)c(N2CCCCC2)c1 (nonaromatic ring conformer: 56.20018646146031 kcal/mol)

>  <smiles>  (32) 
CN(C)S(=O)(=O)c1ccc(N2CCCC2)c(N2CCCCC2)c1

>  <score_type>  (32) 
oracle

>  <origin>  (32) 
adg

>  <m_score__min__energy>  (32) 
-6.2800000000000002

>  <m_primary>  (32) 
energy

$$$$
32:0
     RDKit          3D

 59 62  0  0  0  0  0  0  0  0999 V2000
   59.9090   33.8220   49.6700 C   0  0  0  0  0  0  0  0  0  0  0  0
   59.0840   32.9550   50.6200 C   0  0  0  0  0  0  0  0  0  0  0  0
   59.8540   32.6620   51.8580 N   0  0  0  0  0  0  0  0  0  0  0  0
   59.8510   33.8100   52.8000 C   0  0  0  0  0  0  0  0  0  0  0  0
   58.5250   34.5690   52.7990 C   0  0  0  0  0  0  0  0  0  0  0  0
   59.3460   31.4430   52.5420 C   0  0  0  0  0  0  0  0  0  0  0  0
   60.3950   30.3200   52.5360 C   0  0  0  0  0  0  0  0  0  0  0  0
   61.6260   30.7070   51.8280 N   0  0  0  0  0  0  0  0  0  0  0  0
   61.4570   30.5450   50.3980 C   0  0  0  0  0  0  0  0  0  0  0  0
   60.5420   29.5850   49.9350 C   0  0  0  0  0  0  0  0  0  0  0  0
   60.3220   29.3980   48.5750 C   0  0  0  0  0  0  0  0  0  0  0  0
   61.0050   30.1640   47.6220 C   0  0  0  0  0  0  0  0  0  0  0  0
   60.7120   29.9850   46.2190 N   0  0  0  0  0  0  0  0  0  0  0  0
   59.4340   30.3010   45.6400 C   0  0  0  0  0  0  0  0  0  0  0  0
   58.6990   29.2690   45.0420 C   0  0  0  0  0  0  0  0  0  0  0  0
   57.4830   29.5320   44.4110 C   0  0  0  0  0  0  0  0  0  0  0  0
   56.9770   30.8310   44.3760 C   0  0  0  0  0  0  0  0  0  0  0  0
   57.6730   31.8770   44.9950 C   0  0  0  0  0  0  0  0  0  0  0  0
   57.1480   33.1800   44.9820 C   0  0  0  0  0  0  0  0  0  0  0  0
   57.8220   34.2180   45.6290 C   0  0  0  0  0  0  0  0  0  0  0  0
   59.0180   33.9630   46.3000 C   0  0  0  0  0  0  0  0  0  0  0  0
   59.5580   32.6750   46.3190 C   0  0  0  0  0  0  0  0  0  0  0  0
   58.9070   31.6180   45.6500 C   0  0  0  0  0  0  0  0  0  0  0  0
   61.9350   31.1410   48.0560 C   0  0  0  0  0  0  0  0  0  0  0  0
   62.6720   31.9030   47.1240 C   0  0  0  0  0  0  0  0  0  0  0  0
   63.5740   32.8740   47.5530 C   0  0  0  0  0  0  0  0  0  0  0  0
   63.7590   33.1060   48.9120 C   0  0  0  0  0  0  0  0  0  0  0  0
   63.0600   32.3540   49.8550 C   0  0  0  0  0  0  0  0  0  0  0  0
   62.1530   31.3480   49.4510 C   0  0  0  0  0  0  0  0  0  0  0  0
   60.5514   34.4971   50.2543 H   0  0  0  0  0  0  0  0  0  0  0  0
   60.5354   33.1774   49.0359 H   0  0  0  0  0  0  0  0  0  0  0  0
   59.2341   34.4156   49.0359 H   0  0  0  0  0  0  0  0  0  0  0  0
   58.1595   33.4883   50.8863 H   0  0  0  0  0  0  0  0  0  0  0  0
   58.8430   32.0065   50.1177 H   0  0  0  0  0  0  0  0  0  0  0  0
   60.0398   33.4324   53.8158 H   0  0  0  0  0  0  0  0  0  0  0  0
   60.6349   34.5096   52.4743 H   0  0  0  0  0  0  0  0  0  0  0  0
   58.2062   34.7515   53.8359 H   0  0  0  0  0  0  0  0  0  0  0  0
   58.6532   35.5305   52.2802 H   0  0  0  0  0  0  0  0  0  0  0  0
   57.7609   33.9715   52.2802 H   0  0  0  0  0  0  0  0  0  0  0  0
   59.0964   31.6944   53.5834 H   0  0  0  0  0  0  0  0  0  0  0  0
   58.4553   31.0884   52.0026 H   0  0  0  0  0  0  0  0  0  0  0  0
   60.6497   30.0687   53.5762 H   0  0  0  0  0  0  0  0  0  0  0  0
   59.9610   29.4580   52.0082 H   0  0  0  0  0  0  0  0  0  0  0  0
   61.9100   31.6850   52.0590 H   0  0  0  0  0  0  0  0  0  0  0  0
   62.4070   30.0950   52.1510 H   0  0  0  0  0  0  0  0  0  0  0  0
   59.9898   28.9704   50.6612 H   0  0  0  0  0  0  0  0  0  0  0  0
   59.6007   28.6370   48.2425 H   0  0  0  0  0  0  0  0  0  0  0  0
   61.5190   29.9070   45.5640 H   0  0  0  0  0  0  0  0  0  0  0  0
   59.0853   28.2394   45.0704 H   0  0  0  0  0  0  0  0  0  0  0  0
   56.9214   28.7120   43.9395 H   0  0  0  0  0  0  0  0  0  0  0  0
   56.0272   31.0350   43.8600 H   0  0  0  0  0  0  0  0  0  0  0  0
   56.2016   33.3836   44.4597 H   0  0  0  0  0  0  0  0  0  0  0  0
   57.4094   35.2375   45.6095 H   0  0  0  0  0  0  0  0  0  0  0  0
   59.5394   34.7817   46.8176 H   0  0  0  0  0  0  0  0  0  0  0  0
   60.4970   32.4839   46.8592 H   0  0  0  0  0  0  0  0  0  0  0  0
   62.5325   31.7281   46.0470 H   0  0  0  0  0  0  0  0  0  0  0  0
   64.1418   33.4592   46.8147 H   0  0  0  0  0  0  0  0  0  0  0  0
   64.4598   33.8861   49.2440 H   0  0  0  0  0  0  0  0  0  0  0  0
   63.2162   32.5459   50.9268 H   0  0  0  0  0  0  0  0  0  0  0  0
  1  2  1  0
  2  3  1  0
  3  4  1  0
  4  5  1  0
  3  6  1  0
  6  7  1  0
  7  8  1  0
  8  9  1  0
  9 10  2  0
 10 11  1  0
 11 12  2  0
 12 13  1  0
 13 14  1  0
 14 15  2  0
 15 16  1  0
 16 17  2  0
 17 18  1  0
 18 19  2  0
 19 20  1  0
 20 21  2  0
 21 22  1  0
 22 23  2  0
 12 24  1  0
 24 25  2  0
 25 26  1  0
 26 27  2  0
 27 28  1  0
 28 29  2  0
 29  9  1  0
 23 14  1  0
 29 24  1  0
 23 18  1  0
  1 30  1  0
  1 31  1  0
  1 32  1  0
  2 33  1  0
  2 34  1  0
  4 35  1  0
  4 36  1  0
  5 37  1  0
  5 38  1  0
  5 39  1  0
  6 40  1  0
  6 41  1  0
  7 42  1  0
  7 43  1  0
  8 44  1  0
  8 45  1  0
 10 46  1  0
 11 47  1  0
 13 48  1  0
 15 49  1  0
 16 50  1  0
 17 51  1  0
 19 52  1  0
 20 53  1  0
 21 54  1  0
 22 55  1  0
 25 56  1  0
 26 57  1  0
 27 58  1  0
 28 59  1  0
M  CHG  1   8   1
M  END
>  <UniqueID>  (33) 
33

>  <SMILES>  (33) 
CCN(CC)CC[NH2+]c1ccc(Nc2cccc3ccccc23)c2ccccc12

>  <Energy>  (33) 
85.18247229261624

>  <Genealogy>  (33) 
CCN(CC)CC[NH2+]c1ccc(Nc2cccc3ccccc23)c2ccccc12 (protonated)
CCN(CC)CC[NH2+]c1ccc(Nc2cccc3ccccc23)c2ccccc12 (3D coordinates assigned)
CCN(CC)CC[NH2+]c1ccc(Nc2cccc3ccccc23)c2ccccc12 (optimized conformer: 85.18247229261624 kcal/mol)

>  <smiles>  (33) 
CCN(CC)CCNc1ccc(Nc2cccc3ccccc23)c2ccccc12

>  <score_type>  (33) 
oracle

>  <origin>  (33) 
adg

>  <m_score__min__energy>  (33) 
-7.2800000000000002

>  <m_primary>  (33) 
energy

$$$$
33:0
     RDKit          3D

 35 36  0  0  0  0  0  0  0  0999 V2000
   58.9470   34.7460   44.9370 C   0  0  0  0  0  0  0  0  0  0  0  0
   58.3360   33.4140   44.6150 C   0  0  0  0  0  0  0  0  0  0  0  0
   58.3140   32.9920   43.3210 N   0  0  0  0  0  0  0  0  0  0  0  0
   57.7720   31.7980   42.9700 C   0  0  0  0  0  0  0  0  0  0  0  0
   57.2230   30.9740   43.9570 C   0  0  0  0  0  0  0  0  0  0  0  0
   56.5700   29.6720   43.5980 C   0  0  0  0  0  0  0  0  0  0  0  0
   57.0220   28.5970   44.4930 N   0  0  0  0  0  0  0  0  0  0  0  0
   58.1830   27.8600   43.9590 C   0  0  0  0  0  0  0  0  0  0  0  0
   59.4900   28.4830   44.4540 C   0  0  0  0  0  0  0  0  0  0  0  0
   59.4680   28.6450   45.9070 N   0  0  0  0  0  0  0  0  0  0  0  0
   60.3760   28.1590   46.7750 C   0  0  0  0  0  0  0  0  0  0  0  0
   60.0290   28.5770   48.0460 C   0  0  0  0  0  0  0  0  0  0  0  0
   58.8830   29.3320   47.8750 C   0  0  0  0  0  0  0  0  0  0  0  0
   58.5710   29.3570   46.5670 N   0  0  0  0  0  0  0  0  0  0  0  0
   57.2370   31.3920   45.2500 N   0  0  0  0  0  0  0  0  0  0  0  0
   57.7790   32.5860   45.6130 C   0  0  0  0  0  0  0  0  0  0  0  0
   57.7580   32.9870   47.0570 C   0  0  0  0  0  0  0  0  0  0  0  0
   59.0035   34.8692   46.0286 H   0  0  0  0  0  0  0  0  0  0  0  0
   59.9591   34.7982   44.5092 H   0  0  0  0  0  0  0  0  0  0  0  0
   58.3264   35.5471   44.5092 H   0  0  0  0  0  0  0  0  0  0  0  0
   57.7648   31.4811   41.9167 H   0  0  0  0  0  0  0  0  0  0  0  0
   55.4788   29.7795   43.6859 H   0  0  0  0  0  0  0  0  0  0  0  0
   56.8472   29.4114   42.5659 H   0  0  0  0  0  0  0  0  0  0  0  0
   56.2270   27.9210   44.5850 H   0  0  0  0  0  0  0  0  0  0  0  0
   58.1319   26.8134   44.2935 H   0  0  0  0  0  0  0  0  0  0  0  0
   58.1600   27.9097   42.8604 H   0  0  0  0  0  0  0  0  0  0  0  0
   60.3296   27.8288   44.1764 H   0  0  0  0  0  0  0  0  0  0  0  0
   59.6077   29.4732   43.9897 H   0  0  0  0  0  0  0  0  0  0  0  0
   61.2450   27.5360   46.5166 H   0  0  0  0  0  0  0  0  0  0  0  0
   60.5511   28.3569   48.9889 H   0  0  0  0  0  0  0  0  0  0  0  0
   58.3191   29.8304   48.6773 H   0  0  0  0  0  0  0  0  0  0  0  0
   57.7650   29.8590   46.1320 H   0  0  0  0  0  0  0  0  0  0  0  0
   57.8051   32.0873   47.6881 H   0  0  0  0  0  0  0  0  0  0  0  0
   58.6237   33.6310   47.2713 H   0  0  0  0  0  0  0  0  0  0  0  0
   56.8298   33.5370   47.2713 H   0  0  0  0  0  0  0  0  0  0  0  0
  1  2  1  0
  2  3  2  0
  3  4  1  0
  4  5  2  0
  5  6  1  0
  6  7  1  0
  7  8  1  0
  8  9  1  0
  9 10  1  0
 10 11  1  0
 11 12  2  0
 12 13  1  0
 13 14  2  0
  5 15  1  0
 15 16  2  0
 16 17  1  0
 16  2  1  0
 14 10  1  0
  1 18  1  0
  1 19  1  0
  1 20  1  0
  4 21  1  0
  6 22  1  0
  6 23  1  0
  7 24  1  0
  8 25  1  0
  8 26  1  0
  9 27  1  0
  9 28  1  0
 11 29  1  0
 12 30  1  0
 13 31  1  0
 14 32  1  0
 17 33  1  0
 17 34  1  0
 17 35  1  0
M  CHG  1  14   1
M  END
>  <UniqueID>  (34) 
34

>  <SMILES>  (34) 
Cc1ncc(CNCCn2ccc[nH+]2)nc1C

>  <Energy>  (34) 
60.81109394942064

>  <Genealogy>  (34) 
Cc1ncc(CNCCn2ccc[nH+]2)nc1C (protonated)
Cc1ncc(CNCCn2ccc[nH+]2)nc1C (3D coordinates assigned)
Cc1ncc(CNCCn2ccc[nH+]2)nc1C (optimized conformer: 60.81109394942064 kcal/mol)

>  <smiles>  (34) 
Cc1ncc(CNCCn2cccn2)nc1C

>  <score_type>  (34) 
oracle

>  <origin>  (34) 
adg

>  <m_score__min__energy>  (34) 
-4.8200000000000003

>  <m_primary>  (34) 
energy

$$$$
34:0
     RDKit          3D

 55 58  0  0  0  0  0  0  0  0999 V2000
   58.1380   32.3670   43.3210 C   0  0  0  0  0  0  0  0  0  0  0  0
   57.8100   33.4080   44.3870 C   0  0  0  0  0  0  0  0  0  0  0  0
   58.7280   33.2650   45.5480 N   0  0  0  0  0  0  0  0  0  0  0  0
   59.6540   34.4180   45.6640 C   0  0  0  0  0  0  0  0  0  0  0  0
   59.6710   34.9920   47.0800 C   0  0  0  0  0  0  0  0  0  0  0  0
   57.9720   33.0970   46.8140 C   0  0  0  0  0  0  0  0  0  0  0  0
   58.5890   32.0030   47.7050 C   0  0  0  0  0  0  0  0  0  0  0  0
   59.3180   30.9860   46.9280 N   0  0  0  0  0  0  0  0  0  0  0  0
   60.6540   30.7010   46.9250 C   0  0  0  0  0  0  0  0  0  0  0  0
   61.6550   31.3260   47.8070 C   0  0  0  0  0  0  0  0  0  0  0  0
   62.5670   32.2640   47.3000 C   0  0  0  0  0  0  0  0  0  0  0  0
   63.5160   32.8460   48.1420 C   0  0  0  0  0  0  0  0  0  0  0  0
   63.5600   32.5130   49.5070 C   0  0  0  0  0  0  0  0  0  0  0  0
   64.5730   33.1290   50.3950 C   0  0  0  0  0  0  0  0  0  0  0  0
   64.2510   34.2570   51.1760 C   0  0  0  0  0  0  0  0  0  0  0  0
   63.0120   34.8070   51.1220 F   0  0  0  0  0  0  0  0  0  0  0  0
   65.2180   34.8440   51.9990 C   0  0  0  0  0  0  0  0  0  0  0  0
   66.5100   34.3170   52.0510 C   0  0  0  0  0  0  0  0  0  0  0  0
   66.8380   33.1960   51.2860 C   0  0  0  0  0  0  0  0  0  0  0  0
   65.8790   32.6020   50.4590 C   0  0  0  0  0  0  0  0  0  0  0  0
   66.2170   31.4950   49.7480 F   0  0  0  0  0  0  0  0  0  0  0  0
   62.6250   31.5960   50.0150 C   0  0  0  0  0  0  0  0  0  0  0  0
   61.6750   31.0130   49.1730 C   0  0  0  0  0  0  0  0  0  0  0  0
   61.0010   29.7410   46.0300 N   0  0  0  0  0  0  0  0  0  0  0  0
   59.8250   29.3980   45.4780 C   0  0  0  0  0  0  0  0  0  0  0  0
   59.6040   28.4320   44.5000 C   0  0  0  0  0  0  0  0  0  0  0  0
   58.2800   28.2190   44.0770 C   0  0  0  0  0  0  0  0  0  0  0  0
   57.2220   28.9640   44.6390 C   0  0  0  0  0  0  0  0  0  0  0  0
   57.4780   29.9330   45.6270 C   0  0  0  0  0  0  0  0  0  0  0  0
   58.8080   30.1290   46.0190 C   0  0  0  0  0  0  0  0  0  0  0  0
   58.4346   31.4257   43.8067 H   0  0  0  0  0  0  0  0  0  0  0  0
   57.2513   32.1925   42.6938 H   0  0  0  0  0  0  0  0  0  0  0  0
   58.9646   32.7323   42.6938 H   0  0  0  0  0  0  0  0  0  0  0  0
   57.9220   34.4146   43.9578 H   0  0  0  0  0  0  0  0  0  0  0  0
   56.7753   33.2567   44.7283 H   0  0  0  0  0  0  0  0  0  0  0  0
   60.6697   34.0867   45.4019 H   0  0  0  0  0  0  0  0  0  0  0  0
   59.3062   35.2060   44.9798 H   0  0  0  0  0  0  0  0  0  0  0  0
   59.6466   34.1691   47.8095 H   0  0  0  0  0  0  0  0  0  0  0  0
   60.5871   35.5835   47.2249 H   0  0  0  0  0  0  0  0  0  0  0  0
   58.7916   35.6367   47.2249 H   0  0  0  0  0  0  0  0  0  0  0  0
   57.9797   34.0502   47.3630 H   0  0  0  0  0  0  0  0  0  0  0  0
   56.9446   32.7953   46.5624 H   0  0  0  0  0  0  0  0  0  0  0  0
   59.2881   32.4757   48.4106 H   0  0  0  0  0  0  0  0  0  0  0  0
   57.7657   31.4957   48.2292 H   0  0  0  0  0  0  0  0  0  0  0  0
   62.5340   32.5415   46.2361 H   0  0  0  0  0  0  0  0  0  0  0  0
   64.2354   33.5713   47.7340 H   0  0  0  0  0  0  0  0  0  0  0  0
   64.9597   35.7235   52.6071 H   0  0  0  0  0  0  0  0  0  0  0  0
   67.2694   34.7850   52.6946 H   0  0  0  0  0  0  0  0  0  0  0  0
   67.8545   32.7784   51.3339 H   0  0  0  0  0  0  0  0  0  0  0  0
   62.6410   31.3351   51.0835 H   0  0  0  0  0  0  0  0  0  0  0  0
   60.9397   30.3054   49.5837 H   0  0  0  0  0  0  0  0  0  0  0  0
   60.4372   27.8548   44.0726 H   0  0  0  0  0  0  0  0  0  0  0  0
   58.0679   27.4667   43.3030 H   0  0  0  0  0  0  0  0  0  0  0  0
   56.1899   28.7863   44.3027 H   0  0  0  0  0  0  0  0  0  0  0  0
   56.6610   30.5167   46.0761 H   0  0  0  0  0  0  0  0  0  0  0  0
  1  2  1  0
  2  3  1  0
  3  4  1  0
  4  5  1  0
  3  6  1  0
  6  7  1  0
  7  8  1  0
  8  9  1  0
  9 10  1  0
 10 11  2  0
 11 12  1  0
 12 13  2  0
 13 14  1  0
 14 15  2  0
 15 16  1  0
 15 17  1  0
 17 18  2  0
 18 19  1  0
 19 20  2  0
 20 21  1  0
 13 22  1  0
 22 23  2  0
  9 24  2  0
 24 25  1  0
 25 26  2  0
 26 27  1  0
 27 28  2  0
 28 29  1  0
 29 30  2  0
 30  8  1  0
 23 10  1  0
 30 25  1  0
 20 14  1  0
  1 31  1  0
  1 32  1  0
  1 33  1  0
  2 34  1  0
  2 35  1  0
  4 36  1  0
  4 37  1  0
  5 38  1  0
  5 39  1  0
  5 40  1  0
  6 41  1  0
  6 42  1  0
  7 43  1  0
  7 44  1  0
 11 45  1  0
 12 46  1  0
 17 47  1  0
 18 48  1  0
 19 49  1  0
 22 50  1  0
 23 51  1  0
 26 52  1  0
 27 53  1  0
 28 54  1  0
 29 55  1  0
M  END
>  <UniqueID>  (35) 
35

>  <SMILES>  (35) 
CCN(CC)CCn1c(-c2ccc(-c3c(F)cccc3F)cc2)nc2ccccc21

>  <Energy>  (35) 
106.51479329144577

>  <Genealogy>  (35) 
CCN(CC)CCn1c(-c2ccc(-c3c(F)cccc3F)cc2)nc2ccccc21 (3D coordinates assigned)
CCN(CC)CCn1c(-c2ccc(-c3c(F)cccc3F)cc2)nc2ccccc21 (optimized conformer: 106.51479329144577 kcal/mol)

>  <smiles>  (35) 
CCN(CC)CCn1c(-c2ccc(-c3c(F)cccc3F)cc2)nc2ccccc21

>  <score_type>  (35) 
oracle

>  <origin>  (35) 
adg

>  <m_score__min__energy>  (35) 
-8.1600000000000001

>  <m_primary>  (35) 
energy

$$$$
35:0
     RDKit          3D

 41 43  0  0  0  0  0  0  0  0999 V2000
   60.5670   29.6840   45.6460 C   0  0  0  0  0  0  0  0  0  0  0  0
   60.4350   30.4910   46.9020 C   0  0  0  0  0  0  0  0  0  0  0  0
   61.3550   31.4590   47.1700 N   0  0  0  0  0  0  0  0  0  0  0  0
   61.2900   32.2230   48.2920 C   0  0  0  0  0  0  0  0  0  0  0  0
   60.2650   32.0220   49.2170 C   0  0  0  0  0  0  0  0  0  0  0  0
   59.3080   31.0380   48.9720 C   0  0  0  0  0  0  0  0  0  0  0  0
   59.3680   30.2730   47.7960 C   0  0  0  0  0  0  0  0  0  0  0  0
   58.4210   29.2230   47.5430 N   0  0  0  0  0  0  0  0  0  0  0  0
   58.7420   27.8500   47.2910 C   0  0  0  0  0  0  0  0  0  0  0  0
   59.3520   27.1940   48.1770 O   0  0  0  0  0  0  0  0  0  0  0  0
   58.5020   27.2160   45.9450 C   0  0  0  0  0  0  0  0  0  0  0  0
   57.0390   27.3570   45.5140 C   0  0  0  0  0  0  0  0  0  0  0  0
   56.7440   28.7330   45.0020 C   0  0  0  0  0  0  0  0  0  0  0  0
   57.6830   29.5810   44.5370 N   0  0  0  0  0  0  0  0  0  0  0  0
   56.9310   30.6610   44.2370 C   0  0  0  0  0  0  0  0  0  0  0  0
   57.4850   31.9110   43.6300 C   0  0  0  0  0  0  0  0  0  0  0  0
   57.9730   32.8370   44.7100 C   0  0  0  0  0  0  0  0  0  0  0  0
   58.9240   33.8280   44.4170 C   0  0  0  0  0  0  0  0  0  0  0  0
   59.3960   34.6730   45.4280 C   0  0  0  0  0  0  0  0  0  0  0  0
   58.9290   34.5280   46.7370 C   0  0  0  0  0  0  0  0  0  0  0  0
   59.3880   35.3460   47.7150 F   0  0  0  0  0  0  0  0  0  0  0  0
   57.9930   33.5340   47.0380 C   0  0  0  0  0  0  0  0  0  0  0  0
   57.5200   32.6860   46.0310 C   0  0  0  0  0  0  0  0  0  0  0  0
   55.6200   30.4710   44.4930 N   0  0  0  0  0  0  0  0  0  0  0  0
   55.5480   29.2660   44.9710 O   0  0  0  0  0  0  0  0  0  0  0  0
   60.7396   28.6288   45.9046 H   0  0  0  0  0  0  0  0  0  0  0  0
   59.6428   29.7704   45.0558 H   0  0  0  0  0  0  0  0  0  0  0  0
   61.4155   30.0604   45.0558 H   0  0  0  0  0  0  0  0  0  0  0  0
   62.0467   33.0011   48.4712 H   0  0  0  0  0  0  0  0  0  0  0  0
   60.2124   32.6334   50.1299 H   0  0  0  0  0  0  0  0  0  0  0  0
   58.5042   30.8606   49.7016 H   0  0  0  0  0  0  0  0  0  0  0  0
   59.1439   27.7068   45.1986 H   0  0  0  0  0  0  0  0  0  0  0  0
   58.7393   26.1445   46.0197 H   0  0  0  0  0  0  0  0  0  0  0  0
   56.8298   26.6276   44.7176 H   0  0  0  0  0  0  0  0  0  0  0  0
   56.4029   27.1737   46.3925 H   0  0  0  0  0  0  0  0  0  0  0  0
   58.3231   31.6527   42.9660 H   0  0  0  0  0  0  0  0  0  0  0  0
   56.6935   32.4137   43.0549 H   0  0  0  0  0  0  0  0  0  0  0  0
   59.2993   33.9405   43.3891 H   0  0  0  0  0  0  0  0  0  0  0  0
   60.1356   35.4523   45.1918 H   0  0  0  0  0  0  0  0  0  0  0  0
   57.6277   33.4185   48.0691 H   0  0  0  0  0  0  0  0  0  0  0  0
   56.7913   31.8987   46.2743 H   0  0  0  0  0  0  0  0  0  0  0  0
  1  2  1  0
  2  3  2  0
  3  4  1  0
  4  5  2  0
  5  6  1  0
  6  7  2  0
  7  8  1  0
  8  9  1  0
  9 10  2  0
  9 11  1  0
 11 12  1  0
 12 13  1  0
 13 14  2  0
 14 15  1  0
 15 16  1  0
 16 17  1  0
 17 18  2  0
 18 19  1  0
 19 20  2  0
 20 21  1  0
 20 22  1  0
 22 23  2  0
 15 24  2  0
 24 25  1  0
  7  2  1  0
 25 13  1  0
 23 17  1  0
  1 26  1  0
  1 27  1  0
  1 28  1  0
  4 29  1  0
  5 30  1  0
  6 31  1  0
 11 32  1  0
 11 33  1  0
 12 34  1  0
 12 35  1  0
 16 36  1  0
 16 37  1  0
 18 38  1  0
 19 39  1  0
 22 40  1  0
 23 41  1  0
M  CHG  1   8  -1
M  END
>  <UniqueID>  (36) 
36

>  <SMILES>  (36) 
Cc1ncccc1[N-]C(=O)CCc1nc(Cc2ccc(F)cc2)no1

>  <Energy>  (36) 
76.41011465539835

>  <Genealogy>  (36) 
Cc1ncccc1[N-]C(=O)CCc1nc(Cc2ccc(F)cc2)no1 (protonated)
Cc1ncccc1[N-]C(=O)CCc1nc(Cc2ccc(F)cc2)no1 (3D coordinates assigned)
Cc1ncccc1[N-]C(=O)CCc1nc(Cc2ccc(F)cc2)no1 (optimized conformer: 76.41011465539835 kcal/mol)

>  <smiles>  (36) 
Cc1ncccc1NC(=O)CCc1nc(Cc2ccc(F)cc2)no1

>  <score_type>  (36) 
oracle

>  <origin>  (36) 
adg

>  <m_score__min__energy>  (36) 
-11.51

>  <m_primary>  (36) 
energy

$$$$
36:0
     RDKit          3D

 39 40  0  0  0  0  0  0  0  0999 V2000
   58.9510   34.6610   44.9330 C   0  0  0  0  0  0  0  0  0  0  0  0
   57.6620   33.9050   45.2520 C   0  0  0  0  0  0  0  0  0  0  0  0
   57.9350   32.6230   45.9280 N   0  0  0  0  0  0  0  0  0  0  0  0
   58.1440   32.6210   47.3780 C   0  0  0  0  0  0  0  0  0  0  0  0
   59.5520   32.1290   47.7470 C   0  0  0  0  0  0  0  0  0  0  0  0
   59.8010   30.6790   47.5170 N   0  0  2  0  0  0  0  0  0  0  0  0
   60.9000   30.1250   48.3560 C   0  0  0  0  0  0  0  0  0  0  0  0
   60.5280   28.7920   49.0240 C   0  0  0  0  0  0  0  0  0  0  0  0
   59.2650   28.3630   48.5580 O   0  0  0  0  0  0  0  0  0  0  0  0
   59.4340   27.2510   47.7070 C   0  0  0  0  0  0  0  0  0  0  0  0
   59.9480   30.3260   46.0820 C   0  0  0  0  0  0  0  0  0  0  0  0
   58.6450   30.2940   45.2920 C   0  0  0  0  0  0  0  0  0  0  0  0
   58.3230   29.1050   44.6110 C   0  0  0  0  0  0  0  0  0  0  0  0
   57.1440   28.9970   43.8800 C   0  0  0  0  0  0  0  0  0  0  0  0
   56.2710   30.0770   43.8370 C   0  0  0  0  0  0  0  0  0  0  0  0
   56.5710   31.2160   44.5080 N   0  0  0  0  0  0  0  0  0  0  0  0
   57.7140   31.3700   45.2380 C   0  0  0  0  0  0  0  0  0  0  0  0
   59.4471   34.9519   45.8707 H   0  0  0  0  0  0  0  0  0  0  0  0
   59.6213   34.0129   44.3493 H   0  0  0  0  0  0  0  0  0  0  0  0
   58.7126   35.5624   44.3493 H   0  0  0  0  0  0  0  0  0  0  0  0
   57.0364   34.5279   45.9082 H   0  0  0  0  0  0  0  0  0  0  0  0
   57.1468   33.6901   44.3042 H   0  0  0  0  0  0  0  0  0  0  0  0
   58.0126   33.6446   47.7588 H   0  0  0  0  0  0  0  0  0  0  0  0
   57.4114   31.9360   47.8298 H   0  0  0  0  0  0  0  0  0  0  0  0
   60.2784   32.6976   47.1478 H   0  0  0  0  0  0  0  0  0  0  0  0
   59.6545   32.2866   48.8308 H   0  0  0  0  0  0  0  0  0  0  0  0
   58.9190   30.1950   47.8160 H   0  0  0  0  0  0  0  0  0  0  0  0
   61.7816   29.9640   47.7182 H   0  0  0  0  0  0  0  0  0  0  0  0
   61.1018   30.8510   49.1574 H   0  0  0  0  0  0  0  0  0  0  0  0
   61.2861   28.0345   48.7760 H   0  0  0  0  0  0  0  0  0  0  0  0
   60.4869   28.9296   50.1146 H   0  0  0  0  0  0  0  0  0  0  0  0
   59.5720   26.3433   48.3128 H   0  0  0  0  0  0  0  0  0  0  0  0
   58.5430   27.1363   47.0722 H   0  0  0  0  0  0  0  0  0  0  0  0
   60.3189   27.4062   47.0722 H   0  0  0  0  0  0  0  0  0  0  0  0
   60.6130   31.0670   45.6143 H   0  0  0  0  0  0  0  0  0  0  0  0
   60.3497   29.3023   46.0558 H   0  0  0  0  0  0  0  0  0  0  0  0
   59.0129   28.2495   44.6573 H   0  0  0  0  0  0  0  0  0  0  0  0
   56.9059   28.0673   43.3424 H   0  0  0  0  0  0  0  0  0  0  0  0
   55.3375   30.0079   43.2592 H   0  0  0  0  0  0  0  0  0  0  0  0
  1  2  1  0
  2  3  1  0
  3  4  1  0
  4  5  1  0
  5  6  1  0
  6  7  1  0
  7  8  1  0
  8  9  1  0
  9 10  1  0
  6 11  1  0
 11 12  1  0
 12 13  2  0
 13 14  1  0
 14 15  2  0
 15 16  1  0
 16 17  2  0
 17  3  1  0
 17 12  1  0
  1 18  1  0
  1 19  1  0
  1 20  1  0
  2 21  1  0
  2 22  1  0
  4 23  1  0
  4 24  1  0
  5 25  1  0
  5 26  1  0
  6 27  1  1
  7 28  1  0
  7 29  1  0
  8 30  1  0
  8 31  1  0
 10 32  1  0
 10 33  1  0
 10 34  1  0
 11 35  1  0
 11 36  1  0
 13 37  1  0
 14 38  1  0
 15 39  1  0
M  CHG  1   6   1
M  END
>  <UniqueID>  (37) 
37

>  <SMILES>  (37) 
CCN1CC[N@H+](CCOC)Cc2cccnc21

>  <Energy>  (37) 
52.864816224849974

>  <Genealogy>  (37) 
CCN1CC[NH+](CCOC)Cc2cccnc21 (protonated)
CCN1CC[N@H+](CCOC)Cc2cccnc21 (chirality)
CCN1CC[N@H+](CCOC)Cc2cccnc21 (3D coordinates assigned)
CCN1CC[N@H+](CCOC)Cc2cccnc21 (nonaromatic ring conformer: 52.864816224849974 kcal/mol)

>  <smiles>  (37) 
CCN1CCN(CCOC)Cc2cccnc21

>  <score_type>  (37) 
oracle

>  <origin>  (37) 
adg

>  <m_score__min__energy>  (37) 
-1.8700000000000001

>  <m_primary>  (37) 
energy

$$$$
37:0
     RDKit          3D

 46 49  0  0  0  0  0  0  0  0999 V2000
   64.5980   32.7940   49.3870 C   0  0  0  0  0  0  0  0  0  0  0  0
   64.1260   32.1350   48.2150 O   0  0  0  0  0  0  0  0  0  0  0  0
   62.8430   32.3070   47.6720 C   0  0  0  0  0  0  0  0  0  0  0  0
   61.9460   31.2330   47.7270 C   0  0  0  0  0  0  0  0  0  0  0  0
   60.6520   31.3620   47.2140 C   0  0  0  0  0  0  0  0  0  0  0  0
   60.2320   32.5670   46.6310 C   0  0  0  0  0  0  0  0  0  0  0  0
   58.8940   32.7190   46.1210 N   0  0  0  0  0  0  0  0  0  0  0  0
   58.1440   33.8330   46.2050 C   0  0  0  0  0  0  0  0  0  0  0  0
   57.0010   33.6440   45.4630 C   0  0  0  0  0  0  0  0  0  0  0  0
   57.0310   32.4230   44.8930 N   0  0  0  0  0  0  0  0  0  0  0  0
   58.1900   31.8800   45.3240 C   0  0  0  0  0  0  0  0  0  0  0  0
   58.7630   30.2700   44.7620 S   0  0  0  0  0  0  0  0  0  0  0  0
   57.3120   29.9240   43.7020 C   0  0  0  0  0  0  0  0  0  0  0  0
   56.1350   29.4610   44.5140 C   0  0  0  0  0  0  0  0  0  0  0  0
   55.1490   30.2310   44.6540 O   0  0  0  0  0  0  0  0  0  0  0  0
   56.1550   28.2270   45.2440 N   0  0  0  0  0  0  0  0  0  0  0  0
   57.2310   27.7470   46.0590 C   0  0  0  0  0  0  0  0  0  0  0  0
   57.8060   26.5010   45.7660 C   0  0  0  0  0  0  0  0  0  0  0  0
   58.8820   26.0220   46.5240 C   0  0  0  0  0  0  0  0  0  0  0  0
   59.3970   26.7980   47.5670 C   0  0  0  0  0  0  0  0  0  0  0  0
   58.8630   28.0680   47.8280 C   0  0  0  0  0  0  0  0  0  0  0  0
   57.7820   28.5420   47.0800 C   0  0  0  0  0  0  0  0  0  0  0  0
   59.4300   28.8490   48.8410 O   0  0  0  0  0  0  0  0  0  0  0  0
   60.6910   28.5030   49.4230 C   0  0  0  0  0  0  0  0  0  0  0  0
   60.8050   26.9790   49.5780 C   0  0  0  0  0  0  0  0  0  0  0  0
   60.4510   26.3270   48.3570 O   0  0  0  0  0  0  0  0  0  0  0  0
   61.1310   33.6460   46.5780 C   0  0  0  0  0  0  0  0  0  0  0  0
   62.4260   33.5190   47.0890 C   0  0  0  0  0  0  0  0  0  0  0  0
   64.2228   32.2701   50.2785 H   0  0  0  0  0  0  0  0  0  0  0  0
   65.6980   32.7873   49.3936 H   0  0  0  0  0  0  0  0  0  0  0  0
   64.2376   33.8333   49.3936 H   0  0  0  0  0  0  0  0  0  0  0  0
   62.2621   30.2805   48.1774 H   0  0  0  0  0  0  0  0  0  0  0  0
   59.9569   30.5112   47.2679 H   0  0  0  0  0  0  0  0  0  0  0  0
   58.4011   34.7406   46.7708 H   0  0  0  0  0  0  0  0  0  0  0  0
   56.1879   34.3765   45.3520 H   0  0  0  0  0  0  0  0  0  0  0  0
   57.0356   30.8424   43.1633 H   0  0  0  0  0  0  0  0  0  0  0  0
   57.5820   29.1234   42.9977 H   0  0  0  0  0  0  0  0  0  0  0  0
   57.4095   25.8971   44.9365 H   0  0  0  0  0  0  0  0  0  0  0  0
   59.3205   25.0385   46.2995 H   0  0  0  0  0  0  0  0  0  0  0  0
   57.3621   29.5368   47.2897 H   0  0  0  0  0  0  0  0  0  0  0  0
   61.5020   28.8636   48.7732 H   0  0  0  0  0  0  0  0  0  0  0  0
   60.7680   28.9709   50.4155 H   0  0  0  0  0  0  0  0  0  0  0  0
   61.8405   26.7178   49.8415 H   0  0  0  0  0  0  0  0  0  0  0  0
   60.1186   26.6484   50.3714 H   0  0  0  0  0  0  0  0  0  0  0  0
   60.8128   34.5991   46.1304 H   0  0  0  0  0  0  0  0  0  0  0  0
   63.1219   34.3692   47.0354 H   0  0  0  0  0  0  0  0  0  0  0  0
  1  2  1  0
  2  3  1  0
  3  4  2  0
  4  5  1  0
  5  6  2  0
  6  7  1  0
  7  8  1  0
  8  9  2  0
  9 10  1  0
 10 11  2  0
 11 12  1  0
 12 13  1  0
 13 14  1  0
 14 15  2  0
 14 16  1  0
 16 17  1  0
 17 18  2  0
 18 19  1  0
 19 20  2  0
 20 21  1  0
 21 22  2  0
 21 23  1  0
 23 24  1  0
 24 25  1  0
 25 26  1  0
  6 27  1  0
 27 28  2  0
 28  3  1  0
 11  7  1  0
 22 17  1  0
 26 20  1  0
  1 29  1  0
  1 30  1  0
  1 31  1  0
  4 32  1  0
  5 33  1  0
  8 34  1  0
  9 35  1  0
 13 36  1  0
 13 37  1  0
 18 38  1  0
 19 39  1  0
 22 40  1  0
 24 41  1  0
 24 42  1  0
 25 43  1  0
 25 44  1  0
 27 45  1  0
 28 46  1  0
M  CHG  1  16  -1
M  END
>  <UniqueID>  (38) 
38

>  <SMILES>  (38) 
COc1ccc(-n2ccnc2SCC(=O)[N-]c2ccc3c(c2)OCCO3)cc1

>  <Energy>  (38) 
87.88342631029359

>  <Genealogy>  (38) 
COc1ccc(-n2ccnc2SCC(=O)[N-]c2ccc3c(c2)OCCO3)cc1 (protonated)
COc1ccc(-n2ccnc2SCC(=O)[N-]c2ccc3c(c2)OCCO3)cc1 (3D coordinates assigned)
COc1ccc(-n2ccnc2SCC(=O)[N-]c2ccc3c(c2)OCCO3)cc1 (nonaromatic ring conformer: 87.88342631029359 kcal/mol)

>  <smiles>  (38) 
COc1ccc(-n2ccnc2SCC(=O)Nc2ccc3c(c2)OCCO3)cc1

>  <score_type>  (38) 
oracle

>  <origin>  (38) 
adg

>  <m_score__min__energy>  (38) 
-10.09

>  <m_primary>  (38) 
energy

$$$$
38:0
     RDKit          3D

 36 38  0  0  0  0  0  0  0  0999 V2000
   65.6080   32.6980   50.1090 C   0  0  0  0  0  0  0  0  0  0  0  0
   64.2400   32.2850   49.7750 N   0  0  0  0  0  0  0  0  0  0  0  0
   63.6000   31.2140   50.5470 C   0  0  0  0  0  0  0  0  0  0  0  0
   63.4980   32.8990   48.6910 C   0  0  0  0  0  0  0  0  0  0  0  0
   64.0600   32.9850   47.4450 N   0  0  0  0  0  0  0  0  0  0  0  0
   63.4030   33.5490   46.3820 C   0  0  0  0  0  0  0  0  0  0  0  0
   62.1440   34.0530   46.5370 N   0  0  0  0  0  0  0  0  0  0  0  0
   61.5780   33.9780   47.7650 C   0  0  0  0  0  0  0  0  0  0  0  0
   62.2040   33.4220   48.8320 C   0  0  0  0  0  0  0  0  0  0  0  0
   61.3910   33.4550   49.9070 N   0  0  0  0  0  0  0  0  0  0  0  0
   60.2660   34.0540   49.4310 C   0  0  0  0  0  0  0  0  0  0  0  0
   60.3580   34.3940   48.1220 N   0  0  0  0  0  0  0  0  0  0  0  0
   59.3110   34.9610   47.2750 C   0  0  0  0  0  0  0  0  0  0  0  0
   58.6840   33.8780   46.4410 C   0  0  0  0  0  0  0  0  0  0  0  0
   58.7010   32.5470   46.8800 C   0  0  0  0  0  0  0  0  0  0  0  0
   58.0820   31.5470   46.1250 C   0  0  0  0  0  0  0  0  0  0  0  0
   57.4240   31.8630   44.9230 C   0  0  0  0  0  0  0  0  0  0  0  0
   56.7860   30.8310   44.1490 N   0  0  0  0  0  0  0  0  0  0  0  0
   57.1090   30.6360   42.9590 O   0  0  0  0  0  0  0  0  0  0  0  0
   55.8090   30.0400   44.7080 O   0  0  0  0  0  0  0  0  0  0  0  0
   57.3980   33.2030   44.4940 C   0  0  0  0  0  0  0  0  0  0  0  0
   58.0190   34.2010   45.2510 C   0  0  0  0  0  0  0  0  0  0  0  0
   65.7238   32.7330   51.2023 H   0  0  0  0  0  0  0  0  0  0  0  0
   66.3224   31.9755   49.6875 H   0  0  0  0  0  0  0  0  0  0  0  0
   65.8032   33.6951   49.6875 H   0  0  0  0  0  0  0  0  0  0  0  0
   63.7200   31.4148   51.6218 H   0  0  0  0  0  0  0  0  0  0  0  0
   62.5291   31.1728   50.2990 H   0  0  0  0  0  0  0  0  0  0  0  0
   64.0711   30.2514   50.2990 H   0  0  0  0  0  0  0  0  0  0  0  0
   63.8934   33.5956   45.3984 H   0  0  0  0  0  0  0  0  0  0  0  0
   59.3733   34.2430   50.0453 H   0  0  0  0  0  0  0  0  0  0  0  0
   58.5409   35.4252   47.9086 H   0  0  0  0  0  0  0  0  0  0  0  0
   59.7532   35.7186   46.6113 H   0  0  0  0  0  0  0  0  0  0  0  0
   59.2040   32.2882   47.8234 H   0  0  0  0  0  0  0  0  0  0  0  0
   58.1097   30.5041   46.4738 H   0  0  0  0  0  0  0  0  0  0  0  0
   56.8858   33.4669   43.5570 H   0  0  0  0  0  0  0  0  0  0  0  0
   57.9852   35.2463   44.9101 H   0  0  0  0  0  0  0  0  0  0  0  0
  1  2  1  0
  2  3  1  0
  2  4  1  0
  4  5  2  0
  5  6  1  0
  6  7  2  0
  7  8  1  0
  8  9  2  0
  9 10  1  0
 10 11  2  0
 11 12  1  0
 12 13  1  0
 13 14  1  0
 14 15  2  0
 15 16  1  0
 16 17  2  0
 17 18  1  0
 18 19  2  0
 18 20  1  0
 17 21  1  0
 21 22  2  0
  9  4  1  0
 22 14  1  0
 12  8  1  0
  1 23  1  0
  1 24  1  0
  1 25  1  0
  3 26  1  0
  3 27  1  0
  3 28  1  0
  6 29  1  0
 11 30  1  0
 13 31  1  0
 13 32  1  0
 15 33  1  0
 16 34  1  0
 21 35  1  0
 22 36  1  0
M  CHG  2  18   1  20  -1
M  END
>  <UniqueID>  (39) 
39

>  <SMILES>  (39) 
CN(C)c1ncnc2c1ncn2Cc1ccc([N+](=O)[O-])cc1

>  <Energy>  (39) 
78.61190490375189

>  <Genealogy>  (39) 
CN(C)c1ncnc2c1ncn2Cc1ccc([N+](=O)[O-])cc1 (3D coordinates assigned)
CN(C)c1ncnc2c1ncn2Cc1ccc([N+](=O)[O-])cc1 (optimized conformer: 78.61190490375189 kcal/mol)

>  <smiles>  (39) 
CN(C)c1ncnc2c1ncn2Cc1ccc([N+](=O)[O-])cc1

>  <score_type>  (39) 
oracle

>  <origin>  (39) 
adg

>  <m_score__min__energy>  (39) 
-7.1600000000000001

>  <m_primary>  (39) 
energy

$$$$
39:0
     RDKit          3D

 38 40  0  0  0  0  0  0  0  0999 V2000
   56.6470   29.9290   43.4600 C   0  0  0  0  0  0  0  0  0  0  0  0
   56.7510   30.3160   44.8270 O   0  0  0  0  0  0  0  0  0  0  0  0
   57.4320   31.4570   45.2770 C   0  0  0  0  0  0  0  0  0  0  0  0
   57.3860   32.6140   44.4900 C   0  0  0  0  0  0  0  0  0  0  0  0
   58.0500   33.7760   44.8950 C   0  0  0  0  0  0  0  0  0  0  0  0
   58.7700   33.7890   46.0940 C   0  0  0  0  0  0  0  0  0  0  0  0
   59.6270   35.2770   46.6110 S   0  0  0  0  0  0  0  0  0  0  0  0
   61.0260   34.3600   47.2560 C   0  0  0  0  0  0  0  0  0  0  0  0
   61.1620   34.1660   48.6350 C   0  0  0  0  0  0  0  0  0  0  0  0
   62.2560   33.4560   49.1390 C   0  0  0  0  0  0  0  0  0  0  0  0
   63.2180   32.9180   48.2650 C   0  0  0  0  0  0  0  0  0  0  0  0
   64.3650   32.2050   48.7570 N   0  0  0  0  0  0  0  0  0  0  0  0
   65.2120   32.6700   49.8190 C   0  0  0  0  0  0  0  0  0  0  0  0
   64.9040   33.6570   50.5880 N   0  0  0  0  0  0  0  0  0  0  0  0
   65.9470   33.8330   51.5910 C   0  0  0  0  0  0  0  0  0  0  0  0
   66.9680   32.7180   51.3110 C   0  0  0  0  0  0  0  0  0  0  0  0
   66.4190   32.0250   50.1640 N   0  0  0  0  0  0  0  0  0  0  0  0
   63.0830   33.1350   46.8850 C   0  0  0  0  0  0  0  0  0  0  0  0
   61.9880   33.8430   46.3820 C   0  0  0  0  0  0  0  0  0  0  0  0
   58.8190   32.6390   46.8900 C   0  0  0  0  0  0  0  0  0  0  0  0
   58.1560   31.4770   46.4860 C   0  0  0  0  0  0  0  0  0  0  0  0
   56.3619   28.8683   43.3999 H   0  0  0  0  0  0  0  0  0  0  0  0
   55.8820   30.5430   42.9623 H   0  0  0  0  0  0  0  0  0  0  0  0
   57.6167   30.0769   42.9623 H   0  0  0  0  0  0  0  0  0  0  0  0
   56.8228   32.6089   43.5451 H   0  0  0  0  0  0  0  0  0  0  0  0
   58.0061   34.6803   44.2703 H   0  0  0  0  0  0  0  0  0  0  0  0
   60.4069   34.5728   49.3238 H   0  0  0  0  0  0  0  0  0  0  0  0
   62.3650   33.3174   50.2248 H   0  0  0  0  0  0  0  0  0  0  0  0
   64.5530   31.2490   48.3810 H   0  0  0  0  0  0  0  0  0  0  0  0
   66.4179   34.8218   51.4884 H   0  0  0  0  0  0  0  0  0  0  0  0
   65.5471   33.7767   52.6142 H   0  0  0  0  0  0  0  0  0  0  0  0
   67.9559   33.1414   51.0768 H   0  0  0  0  0  0  0  0  0  0  0  0
   67.1204   32.0547   52.1752 H   0  0  0  0  0  0  0  0  0  0  0  0
   66.8350   31.1950   49.6870 H   0  0  0  0  0  0  0  0  0  0  0  0
   63.8448   32.7449   46.1940 H   0  0  0  0  0  0  0  0  0  0  0  0
   61.8826   33.9938   45.2975 H   0  0  0  0  0  0  0  0  0  0  0  0
   59.3806   32.6497   47.8358 H   0  0  0  0  0  0  0  0  0  0  0  0
   58.1994   30.5748   47.1138 H   0  0  0  0  0  0  0  0  0  0  0  0
  1  2  1  0
  2  3  1  0
  3  4  2  0
  4  5  1  0
  5  6  2  0
  6  7  1  0
  7  8  1  0
  8  9  2  0
  9 10  1  0
 10 11  2  0
 11 12  1  0
 12 13  1  0
 13 14  2  0
 14 15  1  0
 15 16  1  0
 16 17  1  0
 11 18  1  0
 18 19  2  0
  6 20  1  0
 20 21  2  0
 21  3  1  0
 19  8  1  0
 17 13  1  0
  1 22  1  0
  1 23  1  0
  1 24  1  0
  4 25  1  0
  5 26  1  0
  9 27  1  0
 10 28  1  0
 12 29  1  0
 15 30  1  0
 15 31  1  0
 16 32  1  0
 16 33  1  0
 17 34  1  0
 18 35  1  0
 19 36  1  0
 20 37  1  0
 21 38  1  0
M  END
>  <UniqueID>  (40) 
40

>  <SMILES>  (40) 
COc1ccc(Sc2ccc(NC3=NCCN3)cc2)cc1

>  <Energy>  (40) 
49.259712555599485

>  <Genealogy>  (40) 
COc1ccc(Sc2ccc(NC3=NCCN3)cc2)cc1 (3D coordinates assigned)
COc1ccc(Sc2ccc(NC3=NCCN3)cc2)cc1 (nonaromatic ring conformer: 49.259712555599485 kcal/mol)

>  <smiles>  (40) 
COc1ccc(Sc2ccc(NC3=NCCN3)cc2)cc1

>  <score_type>  (40) 
oracle

>  <origin>  (40) 
adg

>  <m_score__min__energy>  (40) 
-7.29

>  <m_primary>  (40) 
energy

$$$$
40:0
     RDKit          3D

 30 31  0  0  0  0  0  0  0  0999 V2000
   56.4250   29.6250   42.7400 N   0  0  0  0  0  0  0  0  0  0  0  0
   56.5480   29.5060   44.1570 C   0  0  0  0  0  0  0  0  0  0  0  0
   55.5170   29.3150   44.8580 O   0  0  0  0  0  0  0  0  0  0  0  0
   57.8940   29.5830   44.8170 C   0  0  0  0  0  0  0  0  0  0  0  0
   58.4080   31.0380   44.9470 C   0  0  1  0  0  0  0  0  0  0  0  0
   57.3090   32.1350   44.8830 C   0  0  0  0  0  0  0  0  0  0  0  0
   57.7620   33.5200   44.4030 C   0  0  0  0  0  0  0  0  0  0  0  0
   58.5360   34.2780   45.4780 C   0  0  0  0  0  0  0  0  0  0  0  0
   59.7380   33.6100   45.8710 O   0  0  0  0  0  0  0  0  0  0  0  0
   59.8500   32.4090   46.5960 C   0  0  0  0  0  0  0  0  0  0  0  0
   60.5360   32.4740   47.8150 C   0  0  0  0  0  0  0  0  0  0  0  0
   60.7480   31.3280   48.5810 C   0  0  0  0  0  0  0  0  0  0  0  0
   60.2610   30.0980   48.1430 C   0  0  0  0  0  0  0  0  0  0  0  0
   60.5480   28.5290   49.1940 Br  0  0  0  0  0  0  0  0  0  0  0  0
   59.5460   30.0160   46.9470 C   0  0  0  0  0  0  0  0  0  0  0  0
   59.3190   31.1630   46.1580 C   0  0  0  0  0  0  0  0  0  0  0  0
   57.2690   29.7660   42.1400 H   0  0  0  0  0  0  0  0  0  0  0  0
   55.4880   29.5630   42.2860 H   0  0  0  0  0  0  0  0  0  0  0  0
   57.8194   29.1440   45.8228 H   0  0  0  0  0  0  0  0  0  0  0  0
   58.6074   29.0314   44.1870 H   0  0  0  0  0  0  0  0  0  0  0  0
   59.0005   31.2420   44.0429 H   0  0  0  0  0  0  0  0  0  0  0  0
   56.5229   31.7831   44.1987 H   0  0  0  0  0  0  0  0  0  0  0  0
   56.9747   32.2779   45.9212 H   0  0  0  0  0  0  0  0  0  0  0  0
   58.4089   33.3955   43.5221 H   0  0  0  0  0  0  0  0  0  0  0  0
   56.8622   34.1040   44.1596 H   0  0  0  0  0  0  0  0  0  0  0  0
   58.7982   35.2722   45.0870 H   0  0  0  0  0  0  0  0  0  0  0  0
   57.8897   34.3458   46.3655 H   0  0  0  0  0  0  0  0  0  0  0  0
   60.9132   33.4431   48.1736 H   0  0  0  0  0  0  0  0  0  0  0  0
   61.2994   31.3950   49.5305 H   0  0  0  0  0  0  0  0  0  0  0  0
   59.1541   29.0433   46.6151 H   0  0  0  0  0  0  0  0  0  0  0  0
  1  2  1  0
  2  3  2  0
  2  4  1  0
  4  5  1  0
  5  6  1  0
  6  7  1  0
  7  8  1  0
  8  9  1  0
  9 10  1  0
 10 11  2  0
 11 12  1  0
 12 13  2  0
 13 14  1  0
 13 15  1  0
 15 16  2  0
 16  5  1  0
 16 10  1  0
  1 17  1  0
  1 18  1  0
  4 19  1  0
  4 20  1  0
  5 21  1  6
  6 22  1  0
  6 23  1  0
  7 24  1  0
  7 25  1  0
  8 26  1  0
  8 27  1  0
 11 28  1  0
 12 29  1  0
 15 30  1  0
M  END
>  <UniqueID>  (41) 
41

>  <SMILES>  (41) 
NC(=O)C[C@H]1CCCOc2ccc(Br)cc21

>  <Energy>  (41) 
39.42393379580326

>  <Genealogy>  (41) 
NC(=O)C[C@H]1CCCOc2ccc(Br)cc21 (chirality)
NC(=O)C[C@H]1CCCOc2ccc(Br)cc21 (3D coordinates assigned)
NC(=O)C[C@H]1CCCOc2ccc(Br)cc21 (nonaromatic ring conformer: 39.42393379580326 kcal/mol)

>  <smiles>  (41) 
NC(=O)CC1CCCOc2ccc(Br)cc21

>  <score_type>  (41) 
oracle

>  <origin>  (41) 
adg

>  <m_score__min__energy>  (41) 
-5.7400000000000002

>  <m_primary>  (41) 
energy

$$$$
41:0
     RDKit          3D

 55 57  0  0  0  0  0  0  0  0999 V2000
   59.6830   34.0090   49.0630 C   0  0  0  0  0  0  0  0  0  0  0  0
   60.3510   34.5580   47.8070 C   0  0  0  0  0  0  0  0  0  0  0  0
   60.4770   33.5410   46.8140 O   0  0  0  0  0  0  0  0  0  0  0  0
   59.4130   32.9060   46.1470 C   0  0  0  0  0  0  0  0  0  0  0  0
   58.3150   33.6200   45.6290 C   0  0  0  0  0  0  0  0  0  0  0  0
   57.2820   32.9490   44.9740 C   0  0  0  0  0  0  0  0  0  0  0  0
   57.3150   31.5550   44.8420 C   0  0  0  0  0  0  0  0  0  0  0  0
   56.2200   30.8360   44.0990 C   0  0  0  0  0  0  0  0  0  0  0  0
   56.5050   29.3370   44.0500 C   0  0  0  0  0  0  0  0  0  0  0  0
   55.8690   28.6800   45.1870 N   0  0  0  0  0  0  0  0  0  0  0  0
   56.3410   27.4640   45.7800 C   0  0  0  0  0  0  0  0  0  0  0  0
   55.5240   26.5290   45.9870 O   0  0  0  0  0  0  0  0  0  0  0  0
   57.7470   27.2930   46.1900 C   0  0  0  0  0  0  0  0  0  0  0  0
   58.2200   27.9480   47.3340 C   0  0  0  0  0  0  0  0  0  0  0  0
   59.5550   27.8090   47.7170 C   0  0  0  0  0  0  0  0  0  0  0  0
   60.4030   27.0060   46.9540 C   0  0  0  0  0  0  0  0  0  0  0  0
   59.9240   26.3570   45.8610 N   0  0  0  0  0  0  0  0  0  0  0  0
   58.6230   26.4620   45.4690 C   0  0  0  0  0  0  0  0  0  0  0  0
   58.1540   25.7710   44.3430 O   0  0  0  0  0  0  0  0  0  0  0  0
   57.6710   24.4560   44.3350 C   0  0  0  0  0  0  0  0  0  0  0  0
   58.1610   23.5610   45.2930 C   0  0  0  0  0  0  0  0  0  0  0  0
   57.7140   22.2350   45.3180 C   0  0  0  0  0  0  0  0  0  0  0  0
   56.7810   21.7930   44.3750 C   0  0  0  0  0  0  0  0  0  0  0  0
   56.2220   20.1300   44.4060 Cl  0  0  0  0  0  0  0  0  0  0  0  0
   56.3030   22.6740   43.4010 C   0  0  0  0  0  0  0  0  0  0  0  0
   56.7480   24.0000   43.3750 C   0  0  0  0  0  0  0  0  0  0  0  0
   58.4090   30.8400   45.3510 C   0  0  0  0  0  0  0  0  0  0  0  0
   59.4640   31.5110   46.0020 C   0  0  0  0  0  0  0  0  0  0  0  0
   60.5780   30.8320   46.5230 O   0  0  0  0  0  0  0  0  0  0  0  0
   61.0920   30.9670   47.8490 C   0  0  0  0  0  0  0  0  0  0  0  0
   62.4860   31.5830   47.8290 C   0  0  0  0  0  0  0  0  0  0  0  0
   60.1823   34.4194   49.9531 H   0  0  0  0  0  0  0  0  0  0  0  0
   58.6221   34.2997   49.0710 H   0  0  0  0  0  0  0  0  0  0  0  0
   59.7627   32.9119   49.0710 H   0  0  0  0  0  0  0  0  0  0  0  0
   59.7418   35.3810   47.4050 H   0  0  0  0  0  0  0  0  0  0  0  0
   61.3559   34.9190   48.0713 H   0  0  0  0  0  0  0  0  0  0  0  0
   58.2717   34.7134   45.7416 H   0  0  0  0  0  0  0  0  0  0  0  0
   56.4370   33.5179   44.5589 H   0  0  0  0  0  0  0  0  0  0  0  0
   55.2619   31.0061   44.6119 H   0  0  0  0  0  0  0  0  0  0  0  0
   56.1726   31.2238   43.0707 H   0  0  0  0  0  0  0  0  0  0  0  0
   56.1047   28.9187   43.1147 H   0  0  0  0  0  0  0  0  0  0  0  0
   57.5915   29.1703   44.0929 H   0  0  0  0  0  0  0  0  0  0  0  0
   57.5390   28.5724   47.9310 H   0  0  0  0  0  0  0  0  0  0  0  0
   59.9341   28.3268   48.6104 H   0  0  0  0  0  0  0  0  0  0  0  0
   61.4603   26.8983   47.2376 H   0  0  0  0  0  0  0  0  0  0  0  0
   58.9021   23.9019   46.0309 H   0  0  0  0  0  0  0  0  0  0  0  0
   58.0969   21.5401   46.0799 H   0  0  0  0  0  0  0  0  0  0  0  0
   55.5757   22.3242   42.6536 H   0  0  0  0  0  0  0  0  0  0  0  0
   56.3755   24.6884   42.6021 H   0  0  0  0  0  0  0  0  0  0  0  0
   58.4441   29.7461   45.2412 H   0  0  0  0  0  0  0  0  0  0  0  0
   60.4201   31.6140   48.4321 H   0  0  0  0  0  0  0  0  0  0  0  0
   61.1543   29.9685   48.3064 H   0  0  0  0  0  0  0  0  0  0  0  0
   62.8338   31.7367   48.8612 H   0  0  0  0  0  0  0  0  0  0  0  0
   63.1782   30.9069   47.3057 H   0  0  0  0  0  0  0  0  0  0  0  0
   62.4521   32.5500   47.3057 H   0  0  0  0  0  0  0  0  0  0  0  0
  1  2  1  0
  2  3  1  0
  3  4  1  0
  4  5  2  0
  5  6  1  0
  6  7  2  0
  7  8  1  0
  8  9  1  0
  9 10  1  0
 10 11  1  0
 11 12  2  0
 11 13  1  0
 13 14  2  0
 14 15  1  0
 15 16  2  0
 16 17  1  0
 17 18  2  0
 18 19  1  0
 19 20  1  0
 20 21  2  0
 21 22  1  0
 22 23  2  0
 23 24  1  0
 23 25  1  0
 25 26  2  0
  7 27  1  0
 27 28  2  0
 28 29  1  0
 29 30  1  0
 30 31  1  0
 28  4  1  0
 18 13  1  0
 26 20  1  0
  1 32  1  0
  1 33  1  0
  1 34  1  0
  2 35  1  0
  2 36  1  0
  5 37  1  0
  6 38  1  0
  8 39  1  0
  8 40  1  0
  9 41  1  0
  9 42  1  0
 14 43  1  0
 15 44  1  0
 16 45  1  0
 21 46  1  0
 22 47  1  0
 25 48  1  0
 26 49  1  0
 27 50  1  0
 30 51  1  0
 30 52  1  0
 31 53  1  0
 31 54  1  0
 31 55  1  0
M  CHG  1  10  -1
M  END
>  <UniqueID>  (42) 
42

>  <SMILES>  (42) 
CCOc1ccc(CC[N-]C(=O)c2cccnc2Oc2ccc(Cl)cc2)cc1OCC

>  <Energy>  (42) 
59.55605546449985

>  <Genealogy>  (42) 
CCOc1ccc(CC[N-]C(=O)c2cccnc2Oc2ccc(Cl)cc2)cc1OCC (protonated)
CCOc1ccc(CC[N-]C(=O)c2cccnc2Oc2ccc(Cl)cc2)cc1OCC (3D coordinates assigned)
CCOc1ccc(CC[N-]C(=O)c2cccnc2Oc2ccc(Cl)cc2)cc1OCC (optimized conformer: 59.55605546449985 kcal/mol)

>  <smiles>  (42) 
CCOc1ccc(CCNC(=O)c2cccnc2Oc2ccc(Cl)cc2)cc1OCC

>  <score_type>  (42) 
oracle

>  <origin>  (42) 
adg

>  <m_score__min__energy>  (42) 
-10.039999999999999

>  <m_primary>  (42) 
energy

$$$$
42:0
     RDKit          3D

 50 52  0  0  0  0  0  0  0  0999 V2000
   66.1760   32.2760   50.4980 C   0  0  0  0  0  0  0  0  0  0  0  0
   64.7890   31.9530   50.4890 O   0  0  0  0  0  0  0  0  0  0  0  0
   63.9000   32.2960   49.4600 C   0  0  0  0  0  0  0  0  0  0  0  0
   64.1590   33.4530   48.7210 C   0  0  0  0  0  0  0  0  0  0  0  0
   63.3070   33.8410   47.6880 C   0  0  0  0  0  0  0  0  0  0  0  0
   62.1770   33.0730   47.3680 C   0  0  0  0  0  0  0  0  0  0  0  0
   61.2660   33.5380   46.2570 C   0  0  0  0  0  0  0  0  0  0  0  0
   60.3200   34.5690   46.7450 N   0  0  0  0  0  0  0  0  0  0  0  0
   59.3740   34.0600   47.7620 C   0  0  0  0  0  0  0  0  0  0  0  0
   58.3260   33.0890   47.1720 C   0  0  0  0  0  0  0  0  0  0  0  0
   58.2490   33.1860   45.7000 N   0  0  0  0  0  0  0  0  0  0  0  0
   57.0570   32.4780   45.1940 C   0  0  0  0  0  0  0  0  0  0  0  0
   57.4260   31.0820   44.7690 C   0  0  0  0  0  0  0  0  0  0  0  0
   58.5260   30.4240   45.3430 C   0  0  0  0  0  0  0  0  0  0  0  0
   58.8490   29.1200   44.9530 C   0  0  0  0  0  0  0  0  0  0  0  0
   58.0750   28.4650   43.9900 C   0  0  0  0  0  0  0  0  0  0  0  0
   58.3890   27.2000   43.6140 F   0  0  0  0  0  0  0  0  0  0  0  0
   56.9770   29.1130   43.4160 C   0  0  0  0  0  0  0  0  0  0  0  0
   56.6520   30.4160   43.8040 C   0  0  0  0  0  0  0  0  0  0  0  0
   58.2560   34.5990   45.2820 C   0  0  0  0  0  0  0  0  0  0  0  0
   59.6070   35.2550   45.6390 C   0  0  0  0  0  0  0  0  0  0  0  0
   61.8960   31.9040   48.1090 C   0  0  0  0  0  0  0  0  0  0  0  0
   60.7520   31.1530   47.7890 O   0  0  0  0  0  0  0  0  0  0  0  0
   60.4590   29.8610   48.3070 C   0  0  0  0  0  0  0  0  0  0  0  0
   62.7660   31.5220   49.1510 C   0  0  0  0  0  0  0  0  0  0  0  0
   66.5267   32.3577   51.5374 H   0  0  0  0  0  0  0  0  0  0  0  0
   66.7400   31.4852   49.9818 H   0  0  0  0  0  0  0  0  0  0  0  0
   66.3326   33.2346   49.9818 H   0  0  0  0  0  0  0  0  0  0  0  0
   65.0433   34.0634   48.9564 H   0  0  0  0  0  0  0  0  0  0  0  0
   63.5224   34.7573   47.1187 H   0  0  0  0  0  0  0  0  0  0  0  0
   61.8753   33.9634   45.4460 H   0  0  0  0  0  0  0  0  0  0  0  0
   60.6885   32.6758   45.8922 H   0  0  0  0  0  0  0  0  0  0  0  0
   59.9448   33.5311   48.5395 H   0  0  0  0  0  0  0  0  0  0  0  0
   58.8311   34.9246   48.1716 H   0  0  0  0  0  0  0  0  0  0  0  0
   58.6012   32.0599   47.4462 H   0  0  0  0  0  0  0  0  0  0  0  0
   57.3422   33.3604   47.5824 H   0  0  0  0  0  0  0  0  0  0  0  0
   56.2988   32.4277   45.9894 H   0  0  0  0  0  0  0  0  0  0  0  0
   56.6550   33.0236   44.3276 H   0  0  0  0  0  0  0  0  0  0  0  0
   59.1358   30.9359   46.1020 H   0  0  0  0  0  0  0  0  0  0  0  0
   59.7125   28.6094   45.4042 H   0  0  0  0  0  0  0  0  0  0  0  0
   56.3685   28.5971   42.6586 H   0  0  0  0  0  0  0  0  0  0  0  0
   55.7864   30.9222   43.3518 H   0  0  0  0  0  0  0  0  0  0  0  0
   58.1003   34.6568   44.1946 H   0  0  0  0  0  0  0  0  0  0  0  0
   57.4491   35.1319   45.8063 H   0  0  0  0  0  0  0  0  0  0  0  0
   60.2496   35.2384   44.7464 H   0  0  0  0  0  0  0  0  0  0  0  0
   59.3919   36.2795   45.9768 H   0  0  0  0  0  0  0  0  0  0  0  0
   60.4670   29.8963   49.4064 H   0  0  0  0  0  0  0  0  0  0  0  0
   59.4658   29.5424   47.9576 H   0  0  0  0  0  0  0  0  0  0  0  0
   61.2176   29.1452   47.9576 H   0  0  0  0  0  0  0  0  0  0  0  0
   62.5561   30.6095   49.7283 H   0  0  0  0  0  0  0  0  0  0  0  0
  1  2  1  0
  2  3  1  0
  3  4  2  0
  4  5  1  0
  5  6  2  0
  6  7  1  0
  7  8  1  0
  8  9  1  0
  9 10  1  0
 10 11  1  0
 11 12  1  0
 12 13  1  0
 13 14  2  0
 14 15  1  0
 15 16  2  0
 16 17  1  0
 16 18  1  0
 18 19  2  0
 11 20  1  0
 20 21  1  0
  6 22  1  0
 22 23  1  0
 23 24  1  0
 22 25  2  0
 25  3  1  0
 21  8  1  0
 19 13  1  0
  1 26  1  0
  1 27  1  0
  1 28  1  0
  4 29  1  0
  5 30  1  0
  7 31  1  0
  7 32  1  0
  9 33  1  0
  9 34  1  0
 10 35  1  0
 10 36  1  0
 12 37  1  0
 12 38  1  0
 14 39  1  0
 15 40  1  0
 18 41  1  0
 19 42  1  0
 20 43  1  0
 20 44  1  0
 21 45  1  0
 21 46  1  0
 24 47  1  0
 24 48  1  0
 24 49  1  0
 25 50  1  0
M  END
>  <UniqueID>  (43) 
43

>  <SMILES>  (43) 
COc1ccc(CN2CCN(Cc3ccc(F)cc3)CC2)c(OC)c1

>  <Energy>  (43) 
61.16736898298628

>  <Genealogy>  (43) 
COc1ccc(CN2CCN(Cc3ccc(F)cc3)CC2)c(OC)c1 (3D coordinates assigned)
COc1ccc(CN2CCN(Cc3ccc(F)cc3)CC2)c(OC)c1 (nonaromatic ring conformer: 61.16736898298628 kcal/mol)

>  <smiles>  (43) 
COc1ccc(CN2CCN(Cc3ccc(F)cc3)CC2)c(OC)c1

>  <score_type>  (43) 
oracle

>  <origin>  (43) 
adg

>  <m_score__min__energy>  (43) 
-7.6500000000000004

>  <m_primary>  (43) 
energy

$$$$
43:0
     RDKit          3D

 39 40  0  0  0  0  0  0  0  0999 V2000
   60.3520   28.9190   47.4660 C   0  0  0  0  0  0  0  0  0  0  0  0
   60.0170   28.0580   46.3170 N   0  0  0  0  0  0  0  0  0  0  0  0
   60.5280   28.6740   45.0810 C   0  0  0  0  0  0  0  0  0  0  0  0
   60.5850   26.7020   46.4850 C   0  0  0  0  0  0  0  0  0  0  0  0
   59.5040   25.6290   46.3350 C   0  0  0  0  0  0  0  0  0  0  0  0
   58.4640   25.8440   47.2760 O   0  0  0  0  0  0  0  0  0  0  0  0
   57.2160   25.3890   46.7880 C   0  0  0  0  0  0  0  0  0  0  0  0
   56.4060   26.5290   46.2440 C   0  0  0  0  0  0  0  0  0  0  0  0
   55.1810   26.3620   46.0000 O   0  0  0  0  0  0  0  0  0  0  0  0
   57.0300   27.7920   45.9820 N   0  0  0  0  0  0  0  0  0  0  0  0
   56.5000   28.7160   44.9830 C   0  0  0  0  0  0  0  0  0  0  0  0
   57.0190   30.0910   45.2540 C   0  0  0  0  0  0  0  0  0  0  0  0
   57.9970   30.3360   46.1660 N   0  0  0  0  0  0  0  0  0  0  0  0
   58.2310   31.6440   45.9950 C   0  0  0  0  0  0  0  0  0  0  0  0
   59.1570   32.4400   46.6650 C   0  0  0  0  0  0  0  0  0  0  0  0
   59.2450   33.7950   46.2920 C   0  0  0  0  0  0  0  0  0  0  0  0
   58.4150   34.3100   45.2690 C   0  0  0  0  0  0  0  0  0  0  0  0
   57.4930   33.4740   44.6120 C   0  0  0  0  0  0  0  0  0  0  0  0
   57.4320   32.1410   45.0110 C   0  0  0  0  0  0  0  0  0  0  0  0
   56.6520   31.1700   44.5130 N   0  0  0  0  0  0  0  0  0  0  0  0
   60.1422   28.3799   48.4016 H   0  0  0  0  0  0  0  0  0  0  0  0
   61.4189   29.1841   47.4268 H   0  0  0  0  0  0  0  0  0  0  0  0
   59.7448   29.8354   47.4268 H   0  0  0  0  0  0  0  0  0  0  0  0
   61.2110   29.4974   45.3369 H   0  0  0  0  0  0  0  0  0  0  0  0
   61.0686   27.9190   44.4914 H   0  0  0  0  0  0  0  0  0  0  0  0
   59.6861   29.0658   44.4914 H   0  0  0  0  0  0  0  0  0  0  0  0
   61.3602   26.5401   45.7215 H   0  0  0  0  0  0  0  0  0  0  0  0
   61.0148   26.6260   47.4947 H   0  0  0  0  0  0  0  0  0  0  0  0
   59.0879   25.6726   45.3177 H   0  0  0  0  0  0  0  0  0  0  0  0
   59.9524   24.6410   46.5162 H   0  0  0  0  0  0  0  0  0  0  0  0
   57.3884   24.6552   45.9869 H   0  0  0  0  0  0  0  0  0  0  0  0
   56.6608   24.9281   47.6183 H   0  0  0  0  0  0  0  0  0  0  0  0
   57.9770   27.9830   46.3820 H   0  0  0  0  0  0  0  0  0  0  0  0
   56.8183   28.3946   43.9803 H   0  0  0  0  0  0  0  0  0  0  0  0
   55.4012   28.7213   45.0337 H   0  0  0  0  0  0  0  0  0  0  0  0
   59.7970   32.0248   47.4575 H   0  0  0  0  0  0  0  0  0  0  0  0
   59.9630   34.4565   46.7989 H   0  0  0  0  0  0  0  0  0  0  0  0
   58.4906   35.3701   44.9853 H   0  0  0  0  0  0  0  0  0  0  0  0
   56.8438   33.8595   43.8120 H   0  0  0  0  0  0  0  0  0  0  0  0
  1  2  1  0
  2  3  1  0
  2  4  1  0
  4  5  1  0
  5  6  1  0
  6  7  1  0
  7  8  1  0
  8  9  2  0
  8 10  1  0
 10 11  1  0
 11 12  1  0
 12 13  2  0
 13 14  1  0
 14 15  2  0
 15 16  1  0
 16 17  2  0
 17 18  1  0
 18 19  2  0
 19 20  1  0
 20 12  1  0
 19 14  1  0
  1 21  1  0
  1 22  1  0
  1 23  1  0
  3 24  1  0
  3 25  1  0
  3 26  1  0
  4 27  1  0
  4 28  1  0
  5 29  1  0
  5 30  1  0
  7 31  1  0
  7 32  1  0
 10 33  1  0
 11 34  1  0
 11 35  1  0
 15 36  1  0
 16 37  1  0
 17 38  1  0
 18 39  1  0
M  CHG  1  20  -1
M  END
>  <UniqueID>  (44) 
44

>  <SMILES>  (44) 
CN(C)CCOCC(=O)NCc1nc2ccccc2[n-]1

>  <Energy>  (44) 
70.39936909667291

>  <Genealogy>  (44) 
CN(C)CCOCC(=O)NCc1nc2ccccc2[n-]1 (protonated)
CN(C)CCOCC(=O)NCc1nc2ccccc2[n-]1 (3D coordinates assigned)
CN(C)CCOCC(=O)NCc1nc2ccccc2[n-]1 (optimized conformer: 70.39936909667291 kcal/mol)

>  <smiles>  (44) 
CN(C)CCOCC(=O)NCc1nc2ccccc2[nH]1

>  <score_type>  (44) 
oracle

>  <origin>  (44) 
adg

>  <m_score__min__energy>  (44) 
-7.4100000000000001

>  <m_primary>  (44) 
energy

$$$$
44:0
     RDKit          3D

 31 33  0  0  0  0  0  0  0  0999 V2000
   56.8010   30.1890   42.8590 C   0  0  0  0  0  0  0  0  0  0  0  0
   55.7300   29.7130   43.8370 C   0  0  0  0  0  0  0  0  0  0  0  0
   56.2330   29.7030   45.2110 N   0  0  0  0  0  0  0  0  0  0  0  0
   57.6140   29.4800   45.5270 C   0  0  0  0  0  0  0  0  0  0  0  0
   58.6060   30.4530   45.6490 C   0  0  0  0  0  0  0  0  0  0  0  0
   58.4740   31.9210   45.5390 C   0  0  0  0  0  0  0  0  0  0  0  0
   57.5310   32.6400   44.8090 C   0  0  0  0  0  0  0  0  0  0  0  0
   57.6680   34.0280   44.9360 C   0  0  0  0  0  0  0  0  0  0  0  0
   58.7110   34.4140   45.7660 C   0  0  0  0  0  0  0  0  0  0  0  0
   59.4590   33.0260   46.3430 S   0  0  0  0  0  0  0  0  0  0  0  0
   59.7810   29.8310   45.9070 N   0  0  0  0  0  0  0  0  0  0  0  0
   59.4880   28.5170   45.9260 C   0  0  0  0  0  0  0  0  0  0  0  0
   60.3950   27.4770   46.1220 C   0  0  0  0  0  0  0  0  0  0  0  0
   59.9060   26.1630   46.0490 C   0  0  0  0  0  0  0  0  0  0  0  0
   58.5470   25.9270   45.7680 C   0  0  0  0  0  0  0  0  0  0  0  0
   57.6800   27.0130   45.5760 C   0  0  0  0  0  0  0  0  0  0  0  0
   58.1860   28.2700   45.6890 N   0  0  0  0  0  0  0  0  0  0  0  0
   57.6654   30.5732   43.4204 H   0  0  0  0  0  0  0  0  0  0  0  0
   57.1194   29.3477   42.2259 H   0  0  0  0  0  0  0  0  0  0  0  0
   56.3899   30.9891   42.2259 H   0  0  0  0  0  0  0  0  0  0  0  0
   54.8640   30.3886   43.7771 H   0  0  0  0  0  0  0  0  0  0  0  0
   55.4419   28.6869   43.5647 H   0  0  0  0  0  0  0  0  0  0  0  0
   55.5420   29.7170   45.9950 H   0  0  0  0  0  0  0  0  0  0  0  0
   56.7541   32.1641   44.1926 H   0  0  0  0  0  0  0  0  0  0  0  0
   57.0096   34.7459   44.4250 H   0  0  0  0  0  0  0  0  0  0  0  0
   58.9977   35.4489   46.0043 H   0  0  0  0  0  0  0  0  0  0  0  0
   60.7190   30.2690   46.0530 H   0  0  0  0  0  0  0  0  0  0  0  0
   61.4568   27.6787   46.3267 H   0  0  0  0  0  0  0  0  0  0  0  0
   60.5873   25.3149   46.2120 H   0  0  0  0  0  0  0  0  0  0  0  0
   58.1671   24.8970   45.6994 H   0  0  0  0  0  0  0  0  0  0  0  0
   56.6178   26.8518   45.3400 H   0  0  0  0  0  0  0  0  0  0  0  0
  1  2  1  0
  2  3  1  0
  3  4  1  0
  4  5  2  0
  5  6  1  0
  6  7  2  0
  7  8  1  0
  8  9  2  0
  9 10  1  0
  5 11  1  0
 11 12  2  0
 12 13  1  0
 13 14  2  0
 14 15  1  0
 15 16  2  0
 16 17  1  0
 17  4  1  0
 10  6  1  0
 17 12  1  0
  1 18  1  0
  1 19  1  0
  1 20  1  0
  2 21  1  0
  2 22  1  0
  3 23  1  0
  7 24  1  0
  8 25  1  0
  9 26  1  0
 11 27  1  0
 13 28  1  0
 14 29  1  0
 15 30  1  0
 16 31  1  0
M  CHG  1  11   1
M  END
>  <UniqueID>  (45) 
45

>  <SMILES>  (45) 
CCNc1c(-c2cccs2)[nH+]c2ccccn12

>  <Energy>  (45) 
98.70856397444037

>  <Genealogy>  (45) 
CCNc1c(-c2cccs2)[nH+]c2ccccn12 (protonated)
CCNc1c(-c2cccs2)[nH+]c2ccccn12 (3D coordinates assigned)
CCNc1c(-c2cccs2)[nH+]c2ccccn12 (optimized conformer: 98.70856397444037 kcal/mol)

>  <smiles>  (45) 
CCNc1c(-c2cccs2)nc2ccccn12

>  <score_type>  (45) 
oracle

>  <origin>  (45) 
adg

>  <m_score__min__energy>  (45) 
-4.6100000000000003

>  <m_primary>  (45) 
energy

$$$$
