0:0
     RDKit          3D

 35 37  0  0  0  0  0  0  0  0999 V2000
   56.6880   32.8050   45.2630 C   0  0  0  0  0  0  0  0  0  0  0  0
   57.4070   31.5270   45.3750 N   0  0  0  0  0  0  0  0  0  0  0  0
   58.0680   31.1940   44.1030 C   0  0  0  0  0  0  0  0  0  0  0  0
   58.5140   29.7360   44.1540 C   0  0  0  0  0  0  0  0  0  0  0  0
   59.0970   29.4160   45.4610 N   0  0  0  0  0  0  0  0  0  0  0  0
   59.4470   28.0550   45.7480 C   0  0  0  0  0  0  0  0  0  0  0  0
   60.8030   27.7090   45.8210 C   0  0  0  0  0  0  0  0  0  0  0  0
   61.1860   26.3950   46.0930 C   0  0  0  0  0  0  0  0  0  0  0  0
   60.2210   25.4080   46.2940 C   0  0  0  0  0  0  0  0  0  0  0  0
   58.8570   25.7290   46.2260 C   0  0  0  0  0  0  0  0  0  0  0  0
   57.8860   24.7360   46.4280 C   0  0  0  0  0  0  0  0  0  0  0  0
   56.5290   25.0570   46.3620 C   0  0  0  0  0  0  0  0  0  0  0  0
   56.1280   26.3670   46.0950 C   0  0  0  0  0  0  0  0  0  0  0  0
   54.7750   26.6780   46.0320 O   0  0  0  0  0  0  0  0  0  0  0  0
   57.0830   27.3670   45.8900 C   0  0  0  0  0  0  0  0  0  0  0  0
   58.4580   27.0640   45.9510 C   0  0  0  0  0  0  0  0  0  0  0  0
   59.4580   30.4710   46.4140 C   0  0  0  0  0  0  0  0  0  0  0  0
   58.3820   31.5800   46.4870 C   0  0  0  0  0  0  0  0  0  0  0  0
   56.4700   33.1925   46.2692 H   0  0  0  0  0  0  0  0  0  0  0  0
   57.3109   33.5296   44.7180 H   0  0  0  0  0  0  0  0  0  0  0  0
   55.7453   32.6488   44.7180 H   0  0  0  0  0  0  0  0  0  0  0  0
   57.3634   31.3372   43.2705 H   0  0  0  0  0  0  0  0  0  0  0  0
   58.9387   31.8484   43.9491 H   0  0  0  0  0  0  0  0  0  0  0  0
   57.6440   29.0862   43.9782 H   0  0  0  0  0  0  0  0  0  0  0  0
   59.2763   29.5728   43.3780 H   0  0  0  0  0  0  0  0  0  0  0  0
   61.5718   28.4796   45.6626 H   0  0  0  0  0  0  0  0  0  0  0  0
   62.2537   26.1364   46.1492 H   0  0  0  0  0  0  0  0  0  0  0  0
   60.5307   24.3741   46.5066 H   0  0  0  0  0  0  0  0  0  0  0  0
   58.1952   23.7016   46.6390 H   0  0  0  0  0  0  0  0  0  0  0  0
   55.7726   24.2743   46.5211 H   0  0  0  0  0  0  0  0  0  0  0  0
   56.7592   28.3970   45.6797 H   0  0  0  0  0  0  0  0  0  0  0  0
   59.5746   30.0232   47.4120 H   0  0  0  0  0  0  0  0  0  0  0  0
   60.3968   30.9309   46.0717 H   0  0  0  0  0  0  0  0  0  0  0  0
   57.8352   31.4734   47.4355 H   0  0  0  0  0  0  0  0  0  0  0  0
   58.9049   32.5451   46.4147 H   0  0  0  0  0  0  0  0  0  0  0  0
  1  2  1  0
  2  3  1  0
  3  4  1  0
  4  5  1  0
  5  6  1  0
  6  7  2  0
  7  8  1  0
  8  9  2  0
  9 10  1  0
 10 11  2  0
 11 12  1  0
 12 13  2  0
 13 14  1  0
 13 15  1  0
 15 16  2  0
  5 17  1  0
 17 18  1  0
 18  2  1  0
 16  6  1  0
 16 10  1  0
  1 19  1  0
  1 20  1  0
  1 21  1  0
  3 22  1  0
  3 23  1  0
  4 24  1  0
  4 25  1  0
  7 26  1  0
  8 27  1  0
  9 28  1  0
 11 29  1  0
 12 30  1  0
 15 31  1  0
 17 32  1  0
 17 33  1  0
 18 34  1  0
 18 35  1  0
M  CHG  1  14  -1
M  END
>  <UniqueID>  (1) 
1

>  <SMILES>  (1) 
CN1CCN(c2cccc3ccc([O-])cc23)CC1

>  <Energy>  (1) 
50.596065830840296

>  <Genealogy>  (1) 
CN1CCN(c2cccc3ccc([O-])cc23)CC1 (protonated)
CN1CCN(c2cccc3ccc([O-])cc23)CC1 (3D coordinates assigned)
CN1CCN(c2cccc3ccc([O-])cc23)CC1 (nonaromatic ring conformer: 50.596065830840296 kcal/mol)

>  <smiles>  (1) 
CN1CCN(c2cccc3ccc(O)cc23)CC1

>  <score_type>  (1) 
oracle

>  <origin>  (1) 
adg

>  <m_score__min__energy>  (1) 
-10.4

>  <m_primary>  (1) 
energy

$$$$
1:0
     RDKit          3D

 41 42  0  0  0  0  0  0  0  0999 V2000
   57.0260   32.3440   41.1190 C   0  0  0  0  0  0  0  0  0  0  0  0
   58.1900   32.1890   42.0930 C   0  0  0  0  0  0  0  0  0  0  0  0
   57.7010   31.8850   43.4440 N   0  0  0  0  0  0  0  0  0  0  0  0
   58.0010   32.7550   44.5510 C   0  0  0  0  0  0  0  0  0  0  0  0
   57.3960   32.5540   45.8040 C   0  0  0  0  0  0  0  0  0  0  0  0
   57.6850   33.4100   46.8730 C   0  0  0  0  0  0  0  0  0  0  0  0
   58.5760   34.4720   46.7000 C   0  0  0  0  0  0  0  0  0  0  0  0
   59.1800   34.6800   45.4570 C   0  0  0  0  0  0  0  0  0  0  0  0
   58.8950   33.8280   44.3870 C   0  0  0  0  0  0  0  0  0  0  0  0
   56.7760   30.4340   43.7100 S   0  0  0  0  0  0  0  0  0  0  0  0
   56.3880   29.8240   42.3920 O   0  0  0  0  0  0  0  0  0  0  0  0
   55.5130   30.7750   44.4540 O   0  0  0  0  0  0  0  0  0  0  0  0
   57.7350   29.2810   44.6350 C   0  0  0  0  0  0  0  0  0  0  0  0
   59.1310   29.3530   44.6380 C   0  0  0  0  0  0  0  0  0  0  0  0
   59.8820   28.4210   45.3570 C   0  0  0  0  0  0  0  0  0  0  0  0
   59.2430   27.3990   46.0840 C   0  0  0  0  0  0  0  0  0  0  0  0
   59.9640   26.4410   46.8140 O   0  0  0  0  0  0  0  0  0  0  0  0
   60.6890   26.7170   48.0080 C   0  0  0  0  0  0  0  0  0  0  0  0
   57.8410   27.3210   46.0830 C   0  0  0  0  0  0  0  0  0  0  0  0
   57.2290   26.2880   46.8090 O   0  0  0  0  0  0  0  0  0  0  0  0
   57.1110   24.9440   46.3540 C   0  0  0  0  0  0  0  0  0  0  0  0
   57.0920   28.2720   45.3600 C   0  0  0  0  0  0  0  0  0  0  0  0
   56.0899   32.4687   41.6832 H   0  0  0  0  0  0  0  0  0  0  0  0
   57.1930   33.2278   40.4858 H   0  0  0  0  0  0  0  0  0  0  0  0
   56.9558   31.4473   40.4858 H   0  0  0  0  0  0  0  0  0  0  0  0
   58.8396   31.3696   41.7515 H   0  0  0  0  0  0  0  0  0  0  0  0
   58.7518   33.1342   42.1252 H   0  0  0  0  0  0  0  0  0  0  0  0
   56.6924   31.7203   45.9449 H   0  0  0  0  0  0  0  0  0  0  0  0
   57.2096   33.2462   47.8513 H   0  0  0  0  0  0  0  0  0  0  0  0
   58.8019   35.1438   47.5412 H   0  0  0  0  0  0  0  0  0  0  0  0
   59.8814   35.5164   45.3208 H   0  0  0  0  0  0  0  0  0  0  0  0
   59.3727   33.9975   43.4107 H   0  0  0  0  0  0  0  0  0  0  0  0
   59.6399   30.1470   44.0717 H   0  0  0  0  0  0  0  0  0  0  0  0
   60.9801   28.4858   45.3553 H   0  0  0  0  0  0  0  0  0  0  0  0
   60.0629   26.4787   48.8805 H   0  0  0  0  0  0  0  0  0  0  0  0
   61.6016   26.1034   48.0330 H   0  0  0  0  0  0  0  0  0  0  0  0
   60.9625   27.7822   48.0330 H   0  0  0  0  0  0  0  0  0  0  0  0
   57.0516   24.2678   47.2195 H   0  0  0  0  0  0  0  0  0  0  0  0
   56.2004   24.8415   45.7455 H   0  0  0  0  0  0  0  0  0  0  0  0
   57.9898   24.6844   45.7455 H   0  0  0  0  0  0  0  0  0  0  0  0
   55.9932   28.2201   45.3661 H   0  0  0  0  0  0  0  0  0  0  0  0
  1  2  1  0
  2  3  1  0
  3  4  1  0
  4  5  2  0
  5  6  1  0
  6  7  2  0
  7  8  1  0
  8  9  2  0
  3 10  1  0
 10 11  2  0
 10 12  2  0
 10 13  1  0
 13 14  2  0
 14 15  1  0
 15 16  2  0
 16 17  1  0
 17 18  1  0
 16 19  1  0
 19 20  1  0
 20 21  1  0
 19 22  2  0
  9  4  1  0
 22 13  1  0
  1 23  1  0
  1 24  1  0
  1 25  1  0
  2 26  1  0
  2 27  1  0
  5 28  1  0
  6 29  1  0
  7 30  1  0
  8 31  1  0
  9 32  1  0
 14 33  1  0
 15 34  1  0
 18 35  1  0
 18 36  1  0
 18 37  1  0
 21 38  1  0
 21 39  1  0
 21 40  1  0
 22 41  1  0
M  END
>  <UniqueID>  (2) 
2

>  <SMILES>  (2) 
CCN(c1ccccc1)S(=O)(=O)c1ccc(OC)c(OC)c1

>  <Energy>  (2) 
41.06817547390745

>  <Genealogy>  (2) 
CCN(c1ccccc1)S(=O)(=O)c1ccc(OC)c(OC)c1 (3D coordinates assigned)
CCN(c1ccccc1)S(=O)(=O)c1ccc(OC)c(OC)c1 (optimized conformer: 41.06817547390745 kcal/mol)

>  <smiles>  (2) 
CCN(c1ccccc1)S(=O)(=O)c1ccc(OC)c(OC)c1

>  <score_type>  (2) 
oracle

>  <origin>  (2) 
adg

>  <m_score__min__energy>  (2) 
-7.3399999999999999

>  <m_primary>  (2) 
energy

$$$$
2:0
     RDKit          3D

 43 45  0  0  0  0  0  0  0  0999 V2000
   57.3590   32.0700   41.2810 C   0  0  0  0  0  0  0  0  0  0  0  0
   58.1990   32.6220   42.4280 C   0  0  0  0  0  0  0  0  0  0  0  0
   57.7580   32.0470   43.7120 N   0  0  0  0  0  0  0  0  0  0  0  0
   57.5800   32.9530   44.8290 C   0  0  0  0  0  0  0  0  0  0  0  0
   56.6480   32.7320   45.6520 O   0  0  0  0  0  0  0  0  0  0  0  0
   58.3910   34.2210   44.9630 C   0  0  0  0  0  0  0  0  0  0  0  0
   59.3530   34.1600   46.1240 C   0  0  0  0  0  0  0  0  0  0  0  0
   58.8950   34.3640   47.4340 C   0  0  0  0  0  0  0  0  0  0  0  0
   59.7780   34.2760   48.5140 C   0  0  0  0  0  0  0  0  0  0  0  0
   61.1300   33.9730   48.2980 C   0  0  0  0  0  0  0  0  0  0  0  0
   62.0230   33.8800   49.3770 C   0  0  0  0  0  0  0  0  0  0  0  0
   63.3680   33.5730   49.1490 C   0  0  0  0  0  0  0  0  0  0  0  0
   63.8290   33.3540   47.8480 C   0  0  0  0  0  0  0  0  0  0  0  0
   62.9490   33.4430   46.7650 C   0  0  0  0  0  0  0  0  0  0  0  0
   61.5970   33.7540   46.9800 C   0  0  0  0  0  0  0  0  0  0  0  0
   60.7040   33.8440   45.9010 C   0  0  0  0  0  0  0  0  0  0  0  0
   57.4250   30.6050   43.7690 C   0  0  1  0  0  0  0  0  0  0  0  0
   58.2140   29.8490   44.8270 C   0  0  0  0  0  0  0  0  0  0  0  0
   57.1860   28.9900   45.5550 C   0  0  0  0  0  0  0  0  0  0  0  0
   55.9080   29.0830   44.8440 N   0  0  0  0  0  0  0  0  0  0  0  0
   55.9550   30.3180   44.0670 C   0  0  0  0  0  0  0  0  0  0  0  0
   56.5052   31.5089   41.6887 H   0  0  0  0  0  0  0  0  0  0  0  0
   56.9897   32.9020   40.6635 H   0  0  0  0  0  0  0  0  0  0  0  0
   57.9762   31.4009   40.6635 H   0  0  0  0  0  0  0  0  0  0  0  0
   59.2553   32.3652   42.2598 H   0  0  0  0  0  0  0  0  0  0  0  0
   58.0766   33.7145   42.4659 H   0  0  0  0  0  0  0  0  0  0  0  0
   58.9630   34.3757   44.0363 H   0  0  0  0  0  0  0  0  0  0  0  0
   57.6931   35.0516   45.1449 H   0  0  0  0  0  0  0  0  0  0  0  0
   57.8344   34.5947   47.6125 H   0  0  0  0  0  0  0  0  0  0  0  0
   59.4110   34.4451   49.5371 H   0  0  0  0  0  0  0  0  0  0  0  0
   61.6643   34.0488   50.4031 H   0  0  0  0  0  0  0  0  0  0  0  0
   64.0657   33.5036   49.9966 H   0  0  0  0  0  0  0  0  0  0  0  0
   64.8878   33.1108   47.6754 H   0  0  0  0  0  0  0  0  0  0  0  0
   63.3167   33.2691   45.7430 H   0  0  0  0  0  0  0  0  0  0  0  0
   61.0631   33.6665   44.8765 H   0  0  0  0  0  0  0  0  0  0  0  0
   57.6852   30.2621   42.7567 H   0  0  0  0  0  0  0  0  0  0  0  0
   58.9817   29.2166   44.3571 H   0  0  0  0  0  0  0  0  0  0  0  0
   58.7398   30.5300   45.5123 H   0  0  0  0  0  0  0  0  0  0  0  0
   57.5243   27.9435   45.5730 H   0  0  0  0  0  0  0  0  0  0  0  0
   57.0662   29.3447   46.5893 H   0  0  0  0  0  0  0  0  0  0  0  0
   55.8590   28.2840   44.1690 H   0  0  0  0  0  0  0  0  0  0  0  0
   55.3967   30.1942   43.1274 H   0  0  0  0  0  0  0  0  0  0  0  0
   55.4989   31.1492   44.6248 H   0  0  0  0  0  0  0  0  0  0  0  0
  1  2  1  0
  2  3  1  0
  3  4  1  0
  4  5  2  0
  4  6  1  0
  6  7  1  0
  7  8  2  0
  8  9  1  0
  9 10  2  0
 10 11  1  0
 11 12  2  0
 12 13  1  0
 13 14  2  0
 14 15  1  0
 15 16  2  0
  3 17  1  0
 17 18  1  0
 18 19  1  0
 19 20  1  0
 20 21  1  0
 16  7  1  0
 21 17  1  0
 15 10  1  0
  1 22  1  0
  1 23  1  0
  1 24  1  0
  2 25  1  0
  2 26  1  0
  6 27  1  0
  6 28  1  0
  8 29  1  0
  9 30  1  0
 11 31  1  0
 12 32  1  0
 13 33  1  0
 14 34  1  0
 16 35  1  0
 17 36  1  6
 18 37  1  0
 18 38  1  0
 19 39  1  0
 19 40  1  0
 20 41  1  0
 21 42  1  0
 21 43  1  0
M  END
>  <UniqueID>  (3) 
3

>  <SMILES>  (3) 
CCN(C(=O)Cc1ccc2ccccc2c1)[C@H]1CCNC1

>  <Energy>  (3) 
49.26215157526542

>  <Genealogy>  (3) 
CCN(C(=O)Cc1ccc2ccccc2c1)[C@H]1CCNC1 (chirality)
CCN(C(=O)Cc1ccc2ccccc2c1)[C@H]1CCNC1 (3D coordinates assigned)
CCN(C(=O)Cc1ccc2ccccc2c1)[C@H]1CCNC1 (nonaromatic ring conformer: 49.26215157526542 kcal/mol)

>  <smiles>  (3) 
CCN(C(=O)Cc1ccc2ccccc2c1)C1CCNC1

>  <score_type>  (3) 
oracle

>  <origin>  (3) 
adg

>  <m_score__min__energy>  (3) 
-8.8699999999999992

>  <m_primary>  (3) 
energy

$$$$
3:0
     RDKit          3D

 40 43  0  0  1  0  0  0  0  0999 V2000
   54.7380   26.3320   45.6520 O   0  0  0  0  0  0  0  0  0  0  0  0
   56.0870   26.0990   45.9750 C   0  0  0  0  0  0  0  0  0  0  0  0
   56.5290   24.8330   46.2900 C   0  0  0  0  0  0  0  0  0  0  0  0
   57.8700   24.6510   46.6020 C   0  0  0  0  0  0  0  0  0  0  0  0
   58.7180   25.7260   46.5900 C   0  0  0  0  0  0  0  0  0  0  0  0
   58.2510   27.0000   46.2680 C   0  0  0  0  0  0  0  0  0  0  0  0
   59.2410   28.0560   46.2210 C   0  0  0  0  0  0  0  0  0  0  0  0
   59.4300   28.9830   47.1480 C   0  0  0  0  0  0  0  0  0  0  0  0
   59.9230   28.7330   48.4790 C   0  0  0  0  0  0  0  0  0  0  0  0
   60.0630   29.7780   49.3920 C   0  0  0  0  0  0  0  0  0  0  0  0
   60.6250   29.5910   50.6450 C   0  0  0  0  0  0  0  0  0  0  0  0
   61.0740   28.3740   51.0650 C   0  0  0  0  0  0  0  0  0  0  0  0
   60.9440   27.3170   50.1740 C   0  0  0  0  0  0  0  0  0  0  0  0
   60.3850   27.5080   48.9250 C   0  0  0  0  0  0  0  0  0  0  0  0
   59.1020   30.3610   46.6870 C   0  0  0  0  0  0  0  0  0  0  0  0
   57.9440   30.7710   46.1200 N   0  0  0  0  0  0  0  0  0  0  0  0
   58.0040   32.0490   45.7570 C   0  0  0  0  0  0  0  0  0  0  0  0
   57.0850   32.9040   45.1460 C   0  0  0  0  0  0  0  0  0  0  0  0
   57.4010   34.2170   44.8690 C   0  0  0  0  0  0  0  0  0  0  0  0
   58.6800   34.6540   45.2260 C   0  0  0  0  0  0  0  0  0  0  0  0
   59.5900   33.8000   45.8330 C   0  0  0  0  0  0  0  0  0  0  0  0
   59.2670   32.4910   46.1060 C   0  0  0  0  0  0  0  0  0  0  0  0
   59.8950   31.4380   46.6640 N   0  0  0  0  0  0  0  0  0  0  0  0
   56.9030   27.2090   45.9510 C   0  0  0  0  0  0  0  0  0  0  0  0
   54.0230   26.3250   46.3750 H   0  0  0  0  0  0  0  0  0  0  0  0
   55.8325   23.9816   46.2944 H   0  0  0  0  0  0  0  0  0  0  0  0
   58.2483   23.6501   46.8570 H   0  0  0  0  0  0  0  0  0  0  0  0
   59.7803   25.5830   46.8373 H   0  0  0  0  0  0  0  0  0  0  0  0
   59.8942   28.0914   45.3366 H   0  0  0  0  0  0  0  0  0  0  0  0
   59.7163   30.7827   49.1085 H   0  0  0  0  0  0  0  0  0  0  0  0
   60.7117   30.4528   51.3230 H   0  0  0  0  0  0  0  0  0  0  0  0
   61.5180   28.2361   52.0619 H   0  0  0  0  0  0  0  0  0  0  0  0
   61.2905   26.3147   50.4663 H   0  0  0  0  0  0  0  0  0  0  0  0
   60.3033   26.6422   48.2514 H   0  0  0  0  0  0  0  0  0  0  0  0
   56.0882   32.5222   44.8801 H   0  0  0  0  0  0  0  0  0  0  0  0
   56.6778   34.8918   44.3877 H   0  0  0  0  0  0  0  0  0  0  0  0
   58.9708   35.6950   45.0218 H   0  0  0  0  0  0  0  0  0  0  0  0
   60.5881   34.1768   46.1008 H   0  0  0  0  0  0  0  0  0  0  0  0
   60.9000   31.5380   46.9920 H   0  0  0  0  0  0  0  0  0  0  0  0
   56.5160   28.2067   45.6963 H   0  0  0  0  0  0  0  0  0  0  0  0
  1  2  1  0
  2  3  2  0
  3  4  1  0
  4  5  2  0
  5  6  1  0
  6  7  1  0
  7  8  2  0
  8  9  1  0
  9 10  2  0
 10 11  1  0
 11 12  2  0
 12 13  1  0
 13 14  2  0
  8 15  1  0
 15 16  2  0
 16 17  1  0
 17 18  2  0
 18 19  1  0
 19 20  2  0
 20 21  1  0
 21 22  2  0
 22 23  1  0
  6 24  2  0
 24  2  1  0
 14  9  1  0
 23 15  1  0
 22 17  1  0
  1 25  1  0
  3 26  1  0
  4 27  1  0
  5 28  1  0
  7 29  1  0
 10 30  1  0
 11 31  1  0
 12 32  1  0
 13 33  1  0
 14 34  1  0
 18 35  1  0
 19 36  1  0
 20 37  1  0
 21 38  1  0
 23 39  1  0
 24 40  1  0
M  END
>  <smiles>  (4) 
Oc1cccc(C=C(c2ccccc2)c2nc3ccccc3[nH]2)c1

>  <score_type>  (4) 
oracle

>  <origin>  (4) 
adg

>  <m_score__min__energy>  (4) 
-8.7899999999999991

>  <m_primary>  (4) 
energy

$$$$
4:0
     RDKit          3D

 47 51  0  0  0  0  0  0  0  0999 V2000
   56.3170   30.1020   42.6160 C   0  0  0  0  0  0  0  0  0  0  0  0
   57.0350   31.2330   42.2210 C   0  0  0  0  0  0  0  0  0  0  0  0
   57.7680   31.9630   43.1610 C   0  0  0  0  0  0  0  0  0  0  0  0
   57.7900   31.5650   44.5120 C   0  0  0  0  0  0  0  0  0  0  0  0
   58.5690   32.3390   45.5130 C   0  0  0  0  0  0  0  0  0  0  0  0
   58.1070   33.6090   45.9580 C   0  0  0  0  0  0  0  0  0  0  0  0
   58.8370   34.3500   46.9050 C   0  0  0  0  0  0  0  0  0  0  0  0
   60.0190   33.7950   47.3850 C   0  0  0  0  0  0  0  0  0  0  0  0
   60.8730   34.3060   48.2800 N   0  0  0  0  0  0  0  0  0  0  0  0
   61.8460   33.3620   48.3830 C   0  0  0  0  0  0  0  0  0  0  0  0
   63.0330   33.4720   49.2700 C   0  0  0  0  0  0  0  0  0  0  0  0
   62.9820   34.1890   50.4780 C   0  0  0  0  0  0  0  0  0  0  0  0
   64.1090   34.2810   51.3000 C   0  0  0  0  0  0  0  0  0  0  0  0
   65.3190   33.6610   50.9360 C   0  0  0  0  0  0  0  0  0  0  0  0
   66.4860   33.7580   51.7870 N   0  0  0  0  0  0  0  0  0  0  0  0
   66.6600   34.7750   52.8150 C   0  0  0  0  0  0  0  0  0  0  0  0
   67.9300   34.3960   53.5640 C   0  0  0  0  0  0  0  0  0  0  0  0
   68.6740   33.4270   52.6540 C   0  0  0  0  0  0  0  0  0  0  0  0
   67.6240   32.8530   51.7140 C   0  0  0  0  0  0  0  0  0  0  0  0
   65.3680   32.9470   49.7240 C   0  0  0  0  0  0  0  0  0  0  0  0
   64.2410   32.8550   48.9040 C   0  0  0  0  0  0  0  0  0  0  0  0
   61.6270   32.2810   47.5840 N   0  0  0  0  0  0  0  0  0  0  0  0
   60.4710   32.5830   46.9700 C   0  0  0  0  0  0  0  0  0  0  0  0
   59.7790   31.8190   46.0360 C   0  0  0  0  0  0  0  0  0  0  0  0
   57.0630   30.4250   44.8970 C   0  0  0  0  0  0  0  0  0  0  0  0
   56.3310   29.6990   43.9520 C   0  0  0  0  0  0  0  0  0  0  0  0
   55.7408   29.5292   41.8744 H   0  0  0  0  0  0  0  0  0  0  0  0
   57.0236   31.5500   41.1677 H   0  0  0  0  0  0  0  0  0  0  0  0
   58.3308   32.8533   42.8439 H   0  0  0  0  0  0  0  0  0  0  0  0
   57.1674   34.0164   45.5566 H   0  0  0  0  0  0  0  0  0  0  0  0
   58.4860   35.3326   47.2534 H   0  0  0  0  0  0  0  0  0  0  0  0
   60.7830   35.2190   48.7780 H   0  0  0  0  0  0  0  0  0  0  0  0
   62.0462   34.6825   50.7794 H   0  0  0  0  0  0  0  0  0  0  0  0
   64.0494   34.8448   52.2427 H   0  0  0  0  0  0  0  0  0  0  0  0
   66.7683   35.7688   52.3560 H   0  0  0  0  0  0  0  0  0  0  0  0
   65.7918   34.8218   53.4888 H   0  0  0  0  0  0  0  0  0  0  0  0
   68.5429   35.2891   53.7555 H   0  0  0  0  0  0  0  0  0  0  0  0
   67.7045   33.9427   54.5406 H   0  0  0  0  0  0  0  0  0  0  0  0
   69.4506   33.9570   52.0831 H   0  0  0  0  0  0  0  0  0  0  0  0
   69.1781   32.6366   53.2295 H   0  0  0  0  0  0  0  0  0  0  0  0
   68.0133   32.8098   50.6861 H   0  0  0  0  0  0  0  0  0  0  0  0
   67.3440   31.8281   51.9987 H   0  0  0  0  0  0  0  0  0  0  0  0
   66.3040   32.4561   49.4193 H   0  0  0  0  0  0  0  0  0  0  0  0
   64.3000   32.2928   47.9604 H   0  0  0  0  0  0  0  0  0  0  0  0
   60.1602   30.8391   45.7126 H   0  0  0  0  0  0  0  0  0  0  0  0
   57.0699   30.1019   45.9485 H   0  0  0  0  0  0  0  0  0  0  0  0
   55.7650   28.8083   44.2625 H   0  0  0  0  0  0  0  0  0  0  0  0
  1  2  2  0
  2  3  1  0
  3  4  2  0
  4  5  1  0
  5  6  2  0
  6  7  1  0
  7  8  2  0
  8  9  1  0
  9 10  1  0
 10 11  1  0
 11 12  2  0
 12 13  1  0
 13 14  2  0
 14 15  1  0
 15 16  1  0
 16 17  1  0
 17 18  1  0
 18 19  1  0
 14 20  1  0
 20 21  2  0
 10 22  2  0
 22 23  1  0
 23 24  2  0
  4 25  1  0
 25 26  2  0
 26  1  1  0
 24  5  1  0
 23  8  1  0
 21 11  1  0
 19 15  1  0
  1 27  1  0
  2 28  1  0
  3 29  1  0
  6 30  1  0
  7 31  1  0
  9 32  1  0
 12 33  1  0
 13 34  1  0
 16 35  1  0
 16 36  1  0
 17 37  1  0
 17 38  1  0
 18 39  1  0
 18 40  1  0
 19 41  1  0
 19 42  1  0
 20 43  1  0
 21 44  1  0
 24 45  1  0
 25 46  1  0
 26 47  1  0
M  END
>  <UniqueID>  (5) 
4

>  <SMILES>  (5) 
c1ccc(-c2ccc3[nH]c(-c4ccc(N5CCCC5)cc4)nc3c2)cc1

>  <Energy>  (5) 
97.0046971963435

>  <Genealogy>  (5) 
c1ccc(-c2ccc3[nH]c(-c4ccc(N5CCCC5)cc4)nc3c2)cc1 (3D coordinates assigned)
c1ccc(-c2ccc3[nH]c(-c4ccc(N5CCCC5)cc4)nc3c2)cc1 (nonaromatic ring conformer: 97.0046971963435 kcal/mol)

>  <smiles>  (5) 
c1ccc(-c2ccc3[nH]c(-c4ccc(N5CCCC5)cc4)nc3c2)cc1

>  <score_type>  (5) 
oracle

>  <origin>  (5) 
adg

>  <m_score__min__energy>  (5) 
-7.6299999999999999

>  <m_primary>  (5) 
energy

$$$$
5:0
     RDKit          3D

 24 25  0  0  0  0  0  0  0  0999 V2000
   57.4390   31.5720   42.7000 C   0  0  0  0  0  0  0  0  0  0  0  0
   57.0090   31.6150   44.1620 C   0  0  0  0  0  0  0  0  0  0  0  0
   56.2430   30.4580   44.5000 O   0  0  0  0  0  0  0  0  0  0  0  0
   56.7610   29.2300   44.9400 C   0  0  0  0  0  0  0  0  0  0  0  0
   58.1440   28.9840   45.0390 C   0  0  0  0  0  0  0  0  0  0  0  0
   58.5810   27.7340   45.4850 C   0  0  0  0  0  0  0  0  0  0  0  0
   59.9510   27.4500   45.6000 C   0  0  0  0  0  0  0  0  0  0  0  0
   60.3710   26.1950   46.0490 C   0  0  0  0  0  0  0  0  0  0  0  0
   59.4320   25.2170   46.3840 C   0  0  0  0  0  0  0  0  0  0  0  0
   58.0650   25.4880   46.2730 C   0  0  0  0  0  0  0  0  0  0  0  0
   57.6290   26.7490   45.8230 C   0  0  0  0  0  0  0  0  0  0  0  0
   56.2660   27.0680   45.6940 C   0  0  0  0  0  0  0  0  0  0  0  0
   55.3760   26.2220   45.9810 O   0  0  0  0  0  0  0  0  0  0  0  0
   55.8970   28.2720   45.2660 O   0  0  0  0  0  0  0  0  0  0  0  0
   58.5320   31.4627   42.6424 H   0  0  0  0  0  0  0  0  0  0  0  0
   56.9582   30.7175   42.2014 H   0  0  0  0  0  0  0  0  0  0  0  0
   57.1370   32.5048   42.2014 H   0  0  0  0  0  0  0  0  0  0  0  0
   57.9042   31.6538   44.8001 H   0  0  0  0  0  0  0  0  0  0  0  0
   56.3867   32.5082   44.3202 H   0  0  0  0  0  0  0  0  0  0  0  0
   58.8701   29.7649   44.7690 H   0  0  0  0  0  0  0  0  0  0  0  0
   60.6948   28.2163   45.3364 H   0  0  0  0  0  0  0  0  0  0  0  0
   61.4454   25.9766   46.1389 H   0  0  0  0  0  0  0  0  0  0  0  0
   59.7689   24.2308   46.7361 H   0  0  0  0  0  0  0  0  0  0  0  0
   57.3287   24.7148   46.5377 H   0  0  0  0  0  0  0  0  0  0  0  0
  1  2  1  0
  2  3  1  0
  3  4  1  0
  4  5  2  0
  5  6  1  0
  6  7  2  0
  7  8  1  0
  8  9  2  0
  9 10  1  0
 10 11  2  0
 11 12  1  0
 12 13  2  0
 12 14  1  0
 14  4  1  0
 11  6  1  0
  1 15  1  0
  1 16  1  0
  1 17  1  0
  2 18  1  0
  2 19  1  0
  5 20  1  0
  7 21  1  0
  8 22  1  0
  9 23  1  0
 10 24  1  0
M  END
>  <UniqueID>  (6) 
5

>  <SMILES>  (6) 
CCOc1cc2ccccc2c(=O)o1

>  <Energy>  (6) 
28.364173769354625

>  <Genealogy>  (6) 
CCOc1cc2ccccc2c(=O)o1 (3D coordinates assigned)
CCOc1cc2ccccc2c(=O)o1 (optimized conformer: 28.364173769354625 kcal/mol)

>  <smiles>  (6) 
CCOc1cc2ccccc2c(=O)o1

>  <score_type>  (6) 
oracle

>  <origin>  (6) 
adg

>  <m_score__min__energy>  (6) 
-5.6600000000000001

>  <m_primary>  (6) 
energy

$$$$
6:0
     RDKit          3D

 30 32  0  0  0  0  0  0  0  0999 V2000
   61.6450   32.2760   48.1140 C   0  0  0  0  0  0  0  0  0  0  0  0
   61.3980   33.0980   47.0820 C   0  0  0  0  0  0  0  0  0  0  0  0
   60.0310   33.1830   46.5190 C   0  0  0  0  0  0  0  0  0  0  0  0
   59.4520   34.4520   46.3500 C   0  0  0  0  0  0  0  0  0  0  0  0
   58.1780   34.5880   45.7980 C   0  0  0  0  0  0  0  0  0  0  0  0
   57.4580   33.4600   45.4060 C   0  0  0  0  0  0  0  0  0  0  0  0
   58.0030   32.1840   45.5760 C   0  0  0  0  0  0  0  0  0  0  0  0
   57.2830   31.0910   45.2050 N   0  0  0  0  0  0  0  0  0  0  0  0
   57.7600   29.8290   45.3670 C   0  0  0  0  0  0  0  0  0  0  0  0
   59.0170   29.6240   45.9340 C   0  0  0  0  0  0  0  0  0  0  0  0
   59.7840   30.7220   46.3260 C   0  0  0  0  0  0  0  0  0  0  0  0
   59.2950   32.0300   46.1410 C   0  0  0  0  0  0  0  0  0  0  0  0
   62.5220   33.8260   46.3840 C   0  0  0  0  0  0  0  0  0  0  0  0
   63.7660   33.9340   47.2730 C   0  0  0  0  0  0  0  0  0  0  0  0
   64.0830   32.6350   47.8790 N   0  0  0  0  0  0  0  0  0  0  0  0
   62.9990   32.2030   48.7720 C   0  0  0  0  0  0  0  0  0  0  0  0
   60.8340   31.6357   48.4912 H   0  0  0  0  0  0  0  0  0  0  0  0
   60.0099   35.3490   46.6566 H   0  0  0  0  0  0  0  0  0  0  0  0
   57.7397   35.5890   45.6715 H   0  0  0  0  0  0  0  0  0  0  0  0
   56.4583   33.5746   44.9617 H   0  0  0  0  0  0  0  0  0  0  0  0
   57.1534   28.9678   45.0503 H   0  0  0  0  0  0  0  0  0  0  0  0
   59.4020   28.6028   46.0716 H   0  0  0  0  0  0  0  0  0  0  0  0
   60.7733   30.5656   46.7808 H   0  0  0  0  0  0  0  0  0  0  0  0
   62.7857   33.2789   45.4668 H   0  0  0  0  0  0  0  0  0  0  0  0
   62.1780   34.8444   46.1505 H   0  0  0  0  0  0  0  0  0  0  0  0
   64.6188   34.2657   46.6625 H   0  0  0  0  0  0  0  0  0  0  0  0
   63.5665   34.6600   48.0750 H   0  0  0  0  0  0  0  0  0  0  0  0
   64.1980   31.9240   47.1180 H   0  0  0  0  0  0  0  0  0  0  0  0
   63.1870   31.1632   49.0776 H   0  0  0  0  0  0  0  0  0  0  0  0
   62.9874   32.8830   49.6366 H   0  0  0  0  0  0  0  0  0  0  0  0
  1  2  2  0
  2  3  1  0
  3  4  2  0
  4  5  1  0
  5  6  2  0
  6  7  1  0
  7  8  2  0
  8  9  1  0
  9 10  2  0
 10 11  1  0
 11 12  2  0
  2 13  1  0
 13 14  1  0
 14 15  1  0
 15 16  1  0
 16  1  1  0
 12  3  1  0
 12  7  1  0
  1 17  1  0
  4 18  1  0
  5 19  1  0
  6 20  1  0
  9 21  1  0
 10 22  1  0
 11 23  1  0
 13 24  1  0
 13 25  1  0
 14 26  1  0
 14 27  1  0
 15 28  1  0
 16 29  1  0
 16 30  1  0
M  END
>  <UniqueID>  (7) 
6

>  <SMILES>  (7) 
C1=C(c2cccc3ncccc23)CCNC1

>  <Energy>  (7) 
43.753474476596814

>  <Genealogy>  (7) 
C1=C(c2cccc3ncccc23)CCNC1 (3D coordinates assigned)
C1=C(c2cccc3ncccc23)CCNC1 (nonaromatic ring conformer: 43.753474476596814 kcal/mol)

>  <smiles>  (7) 
C1=C(c2cccc3ncccc23)CCNC1

>  <score_type>  (7) 
oracle

>  <origin>  (7) 
adg

>  <m_score__min__energy>  (7) 
-6.9800000000000004

>  <m_primary>  (7) 
energy

$$$$
7:0
     RDKit          3D

 28 30  0  0  1  0  0  0  0  0999 V2000
   61.1010   28.6050   45.0790 C   0  0  0  0  0  0  0  0  0  0  0  0
   59.7720   29.2270   45.0020 C   0  0  0  0  0  0  0  0  0  0  0  0
   59.4540   30.2770   45.8330 C   0  0  0  0  0  0  0  0  0  0  0  0
   58.1930   30.8150   45.7090 C   0  0  0  0  0  0  0  0  0  0  0  0
   57.7680   31.8010   46.4260 N   0  0  0  0  0  0  0  0  0  0  0  0
   58.4010   33.0670   46.3350 C   0  0  0  0  0  0  0  0  0  0  0  0
   58.5140   33.6700   45.0890 C   0  0  0  0  0  0  0  0  0  0  0  0
   59.1290   34.9140   44.9520 C   0  0  0  0  0  0  0  0  0  0  0  0
   59.6380   35.5650   46.0630 C   0  0  0  0  0  0  0  0  0  0  0  0
   59.5220   34.9570   47.3060 C   0  0  0  0  0  0  0  0  0  0  0  0
   58.9090   33.7150   47.4530 C   0  0  0  0  0  0  0  0  0  0  0  0
   57.3000   30.3260   44.8010 N   0  0  0  0  0  0  0  0  0  0  0  0
   56.0430   30.6730   44.4990 N   0  0  0  0  0  0  0  0  0  0  0  0
   55.5840   29.8830   43.5240 C   0  0  0  0  0  0  0  0  0  0  0  0
   56.5850   29.0310   43.2210 N   0  0  0  0  0  0  0  0  0  0  0  0
   57.6520   29.2970   44.0060 C   0  0  0  0  0  0  0  0  0  0  0  0
   58.8900   28.7400   44.1010 N   0  0  0  0  0  0  0  0  0  0  0  0
   61.3834   28.4728   46.1339 H   0  0  0  0  0  0  0  0  0  0  0  0
   61.0765   27.6248   44.5804 H   0  0  0  0  0  0  0  0  0  0  0  0
   61.8380   29.2517   44.5804 H   0  0  0  0  0  0  0  0  0  0  0  0
   60.1760   30.6692   46.5644 H   0  0  0  0  0  0  0  0  0  0  0  0
   58.1138   33.1605   44.2001 H   0  0  0  0  0  0  0  0  0  0  0  0
   59.2100   35.3794   43.9586 H   0  0  0  0  0  0  0  0  0  0  0  0
   60.1254   36.5460   45.9628 H   0  0  0  0  0  0  0  0  0  0  0  0
   59.9230   35.4674   48.1940 H   0  0  0  0  0  0  0  0  0  0  0  0
   58.8280   33.2511   48.4471 H   0  0  0  0  0  0  0  0  0  0  0  0
   54.5872   29.9201   43.0602 H   0  0  0  0  0  0  0  0  0  0  0  0
   59.1080   27.9470   43.4610 H   0  0  0  0  0  0  0  0  0  0  0  0
  1  2  1  0
  2  3  2  0
  3  4  1  0
  4  5  2  0
  5  6  1  0
  6  7  2  0
  7  8  1  0
  8  9  2  0
  9 10  1  0
 10 11  2  0
  4 12  1  0
 12 13  1  0
 13 14  2  0
 14 15  1  0
 15 16  2  0
 16 17  1  0
 17  2  1  0
 11  6  1  0
 16 12  1  0
  1 18  1  0
  1 19  1  0
  1 20  1  0
  3 21  1  0
  7 22  1  0
  8 23  1  0
  9 24  1  0
 10 25  1  0
 11 26  1  0
 14 27  1  0
 17 28  1  0
M  END
>  <smiles>  (8) 
Cc1cc(=Nc2ccccc2)n2ncnc2[nH]1

>  <score_type>  (8) 
oracle

>  <origin>  (8) 
adg

>  <m_score__min__energy>  (8) 
-6.3099999999999996

>  <m_primary>  (8) 
energy

$$$$
8:0
     RDKit          3D

 47 49  0  0  0  0  0  0  0  0999 V2000
   58.1320   32.3520   41.3650 C   0  0  0  0  0  0  0  0  0  0  0  0
   57.0400   31.4150   41.8980 C   0  0  0  0  0  0  0  0  0  0  0  0
   57.4050   30.7730   43.1880 N   0  0  2  0  0  0  0  0  0  0  0  0
   56.8700   29.3870   43.3340 C   0  0  0  0  0  0  0  0  0  0  0  0
   57.5940   28.5260   44.3540 C   0  0  0  0  0  0  0  0  0  0  0  0
   56.9000   28.0040   45.4610 C   0  0  0  0  0  0  0  0  0  0  0  0
   57.5640   27.2210   46.4090 C   0  0  0  0  0  0  0  0  0  0  0  0
   58.9310   26.9680   46.2760 C   0  0  0  0  0  0  0  0  0  0  0  0
   59.5750   26.2110   47.1990 F   0  0  0  0  0  0  0  0  0  0  0  0
   59.6390   27.5130   45.2020 C   0  0  0  0  0  0  0  0  0  0  0  0
   58.9780   28.2970   44.2520 C   0  0  0  0  0  0  0  0  0  0  0  0
   57.0220   31.6630   44.3180 C   0  0  0  0  0  0  0  0  0  0  0  0
   58.1860   32.0400   45.2130 C   0  0  0  0  0  0  0  0  0  0  0  0
   58.8550   31.0670   45.9770 C   0  0  0  0  0  0  0  0  0  0  0  0
   59.9460   31.4200   46.7770 C   0  0  0  0  0  0  0  0  0  0  0  0
   60.4060   32.7460   46.8110 C   0  0  0  0  0  0  0  0  0  0  0  0
   61.5670   33.1210   47.6550 C   0  0  0  0  0  0  0  0  0  0  0  0
   62.8660   32.7400   47.2730 C   0  0  0  0  0  0  0  0  0  0  0  0
   63.9670   33.0830   48.0640 C   0  0  0  0  0  0  0  0  0  0  0  0
   63.7840   33.8130   49.2400 C   0  0  0  0  0  0  0  0  0  0  0  0
   62.5000   34.2030   49.6270 C   0  0  0  0  0  0  0  0  0  0  0  0
   61.3930   33.8630   48.8420 C   0  0  0  0  0  0  0  0  0  0  0  0
   60.1620   34.2880   49.2230 F   0  0  0  0  0  0  0  0  0  0  0  0
   59.7690   33.7080   46.0090 C   0  0  0  0  0  0  0  0  0  0  0  0
   58.6790   33.3550   45.2110 C   0  0  0  0  0  0  0  0  0  0  0  0
   58.6663   32.8105   42.2102 H   0  0  0  0  0  0  0  0  0  0  0  0
   58.8411   31.7770   40.7514 H   0  0  0  0  0  0  0  0  0  0  0  0
   57.6714   33.1402   40.7514 H   0  0  0  0  0  0  0  0  0  0  0  0
   56.1188   31.9979   42.0448 H   0  0  0  0  0  0  0  0  0  0  0  0
   56.9045   30.6127   41.1577 H   0  0  0  0  0  0  0  0  0  0  0  0
   58.4480   30.6940   43.1900 H   0  0  0  0  0  0  0  0  0  0  0  0
   55.8143   29.4582   43.6348 H   0  0  0  0  0  0  0  0  0  0  0  0
   57.0132   28.8970   42.3596 H   0  0  0  0  0  0  0  0  0  0  0  0
   55.8269   28.2138   45.5811 H   0  0  0  0  0  0  0  0  0  0  0  0
   57.0089   26.8031   47.2617 H   0  0  0  0  0  0  0  0  0  0  0  0
   60.7183   27.3249   45.1038 H   0  0  0  0  0  0  0  0  0  0  0  0
   59.5444   28.7381   43.4185 H   0  0  0  0  0  0  0  0  0  0  0  0
   56.5889   32.5852   43.9033 H   0  0  0  0  0  0  0  0  0  0  0  0
   56.3040   31.1068   44.9386 H   0  0  0  0  0  0  0  0  0  0  0  0
   58.5174   30.0206   45.9449 H   0  0  0  0  0  0  0  0  0  0  0  0
   60.4479   30.6526   47.3846 H   0  0  0  0  0  0  0  0  0  0  0  0
   63.0169   32.1682   46.3455 H   0  0  0  0  0  0  0  0  0  0  0  0
   64.9787   32.7772   47.7592 H   0  0  0  0  0  0  0  0  0  0  0  0
   64.6510   34.0809   49.8617 H   0  0  0  0  0  0  0  0  0  0  0  0
   62.3585   34.7799   50.5528 H   0  0  0  0  0  0  0  0  0  0  0  0
   60.1316   34.7465   46.0099 H   0  0  0  0  0  0  0  0  0  0  0  0
   58.2016   34.1145   44.5744 H   0  0  0  0  0  0  0  0  0  0  0  0
  1  2  1  0
  2  3  1  0
  3  4  1  0
  4  5  1  0
  5  6  2  0
  6  7  1  0
  7  8  2  0
  8  9  1  0
  8 10  1  0
 10 11  2  0
  3 12  1  0
 12 13  1  0
 13 14  2  0
 14 15  1  0
 15 16  2  0
 16 17  1  0
 17 18  2  0
 18 19  1  0
 19 20  2  0
 20 21  1  0
 21 22  2  0
 22 23  1  0
 16 24  1  0
 24 25  2  0
 11  5  1  0
 25 13  1  0
 22 17  1  0
  1 26  1  0
  1 27  1  0
  1 28  1  0
  2 29  1  0
  2 30  1  0
  3 31  1  6
  4 32  1  0
  4 33  1  0
  6 34  1  0
  7 35  1  0
 10 36  1  0
 11 37  1  0
 12 38  1  0
 12 39  1  0
 14 40  1  0
 15 41  1  0
 18 42  1  0
 19 43  1  0
 20 44  1  0
 21 45  1  0
 24 46  1  0
 25 47  1  0
M  CHG  1   3   1
M  END
>  <UniqueID>  (9) 
7

>  <SMILES>  (9) 
CC[N@H+](Cc1ccc(F)cc1)Cc1ccc(-c2ccccc2F)cc1

>  <Energy>  (9) 
61.42919055046015

>  <Genealogy>  (9) 
CC[NH+](Cc1ccc(F)cc1)Cc1ccc(-c2ccccc2F)cc1 (protonated)
CC[N@H+](Cc1ccc(F)cc1)Cc1ccc(-c2ccccc2F)cc1 (chirality)
CC[N@H+](Cc1ccc(F)cc1)Cc1ccc(-c2ccccc2F)cc1 (3D coordinates assigned)
CC[N@H+](Cc1ccc(F)cc1)Cc1ccc(-c2ccccc2F)cc1 (optimized conformer: 61.42919055046015 kcal/mol)

>  <smiles>  (9) 
CCN(Cc1ccc(F)cc1)Cc1ccc(-c2ccccc2F)cc1

>  <score_type>  (9) 
oracle

>  <origin>  (9) 
adg

>  <m_score__min__energy>  (9) 
-6.0599999999999996

>  <m_primary>  (9) 
energy

$$$$
9:0
     RDKit          3D

 35 36  0  0  0  0  0  0  0  0999 V2000
   57.9810   26.0470   44.8380 C   0  0  0  0  0  0  0  0  0  0  0  0
   57.1160   26.4890   46.0200 C   0  0  1  0  0  0  0  0  0  0  0  0
   56.2530   27.5620   45.6330 O   0  0  0  0  0  0  0  0  0  0  0  0
   56.6640   28.8450   45.2350 C   0  0  0  0  0  0  0  0  0  0  0  0
   57.7280   29.4390   45.9250 C   0  0  0  0  0  0  0  0  0  0  0  0
   58.1810   30.7140   45.5730 C   0  0  0  0  0  0  0  0  0  0  0  0
   57.5750   31.4070   44.5210 C   0  0  0  0  0  0  0  0  0  0  0  0
   58.1450   33.0060   44.0790 Cl  0  0  0  0  0  0  0  0  0  0  0  0
   56.5150   30.8230   43.8220 C   0  0  0  0  0  0  0  0  0  0  0  0
   56.0600   29.5480   44.1730 C   0  0  0  0  0  0  0  0  0  0  0  0
   56.2790   25.3370   46.4880 C   0  0  0  0  0  0  0  0  0  0  0  0
   56.7340   24.5370   47.3510 O   0  0  0  0  0  0  0  0  0  0  0  0
   54.9490   25.1780   45.9840 N   0  0  0  0  0  0  0  0  0  0  0  0
   54.5820   24.1870   44.9780 C   0  0  0  0  0  0  0  0  0  0  0  0
   55.6290   23.1100   44.9000 C   0  0  0  0  0  0  0  0  0  0  0  0
   55.6920   22.1160   45.8860 C   0  0  0  0  0  0  0  0  0  0  0  0
   56.6560   21.1090   45.7880 C   0  0  0  0  0  0  0  0  0  0  0  0
   57.5250   21.0930   44.7420 N   0  0  0  0  0  0  0  0  0  0  0  0
   57.4810   22.0420   43.7690 C   0  0  0  0  0  0  0  0  0  0  0  0
   56.5330   23.0670   43.8280 C   0  0  0  0  0  0  0  0  0  0  0  0
   58.9018   25.5765   45.2132 H   0  0  0  0  0  0  0  0  0  0  0  0
   57.4229   25.3236   44.2255 H   0  0  0  0  0  0  0  0  0  0  0  0
   58.2402   26.9231   44.2255 H   0  0  0  0  0  0  0  0  0  0  0  0
   57.7772   26.8297   46.8304 H   0  0  0  0  0  0  0  0  0  0  0  0
   58.2117   28.8976   46.7514 H   0  0  0  0  0  0  0  0  0  0  0  0
   59.0152   31.1723   46.1245 H   0  0  0  0  0  0  0  0  0  0  0  0
   56.0375   31.3674   42.9939 H   0  0  0  0  0  0  0  0  0  0  0  0
   55.2271   29.0918   43.6179 H   0  0  0  0  0  0  0  0  0  0  0  0
   53.6163   23.7353   45.2489 H   0  0  0  0  0  0  0  0  0  0  0  0
   54.5048   24.6826   43.9990 H   0  0  0  0  0  0  0  0  0  0  0  0
   54.9878   22.1284   46.7309 H   0  0  0  0  0  0  0  0  0  0  0  0
   56.7121   20.3268   46.5594 H   0  0  0  0  0  0  0  0  0  0  0  0
   58.2390   20.3330   44.6830 H   0  0  0  0  0  0  0  0  0  0  0  0
   58.1942   22.0027   42.9325 H   0  0  0  0  0  0  0  0  0  0  0  0
   56.4959   23.8339   43.0403 H   0  0  0  0  0  0  0  0  0  0  0  0
  1  2  1  0
  2  3  1  0
  3  4  1  0
  4  5  2  0
  5  6  1  0
  6  7  2  0
  7  8  1  0
  7  9  1  0
  9 10  2  0
  2 11  1  0
 11 12  2  0
 11 13  1  0
 13 14  1  0
 14 15  1  0
 15 16  2  0
 16 17  1  0
 17 18  2  0
 18 19  1  0
 19 20  2  0
 10  4  1  0
 20 15  1  0
  1 21  1  0
  1 22  1  0
  1 23  1  0
  2 24  1  1
  5 25  1  0
  6 26  1  0
  9 27  1  0
 10 28  1  0
 14 29  1  0
 14 30  1  0
 16 31  1  0
 17 32  1  0
 18 33  1  0
 19 34  1  0
 20 35  1  0
M  CHG  2  13  -1  18   1
M  END
>  <UniqueID>  (10) 
8

>  <SMILES>  (10) 
C[C@@H](Oc1ccc(Cl)cc1)C(=O)[N-]Cc1cc[nH+]cc1

>  <Energy>  (10) 
30.50623887804186

>  <Genealogy>  (10) 
CC(Oc1ccc(Cl)cc1)C(=O)[N-]Cc1cc[nH+]cc1 (protonated)
C[C@@H](Oc1ccc(Cl)cc1)C(=O)[N-]Cc1cc[nH+]cc1 (chirality)
C[C@@H](Oc1ccc(Cl)cc1)C(=O)[N-]Cc1cc[nH+]cc1 (3D coordinates assigned)
C[C@@H](Oc1ccc(Cl)cc1)C(=O)[N-]Cc1cc[nH+]cc1 (optimized conformer: 30.50623887804186 kcal/mol)

>  <smiles>  (10) 
CC(Oc1ccc(Cl)cc1)C(=O)NCc1ccncc1

>  <score_type>  (10) 
oracle

>  <origin>  (10) 
adg

>  <m_score__min__energy>  (10) 
-8.0500000000000007

>  <m_primary>  (10) 
energy

$$$$
10:0
     RDKit          3D

 19 20  0  0  0  0  0  0  0  0999 V2000
   61.3920   33.8470   46.4970 C   0  0  0  0  0  0  0  0  0  0  0  0
   60.2340   34.1330   46.2910 C   0  0  0  0  0  0  0  0  0  0  0  0
   58.8190   34.4780   46.0650 C   0  0  0  0  0  0  0  0  0  0  0  0
   57.8940   32.9180   46.1330 S   0  0  0  0  0  0  0  0  0  0  0  0
   57.6880   32.3400   44.4550 C   0  0  0  0  0  0  0  0  0  0  0  0
   58.2960   33.0650   43.4850 N   0  0  0  0  0  0  0  0  0  0  0  0
   58.1860   32.6900   42.2080 C   0  0  0  0  0  0  0  0  0  0  0  0
   57.4790   31.5970   41.8600 N   0  0  0  0  0  0  0  0  0  0  0  0
   56.8600   30.8530   42.8100 C   0  0  0  0  0  0  0  0  0  0  0  0
   56.1010   29.7370   42.7870 N   0  0  0  0  0  0  0  0  0  0  0  0
   55.7440   29.4280   44.0600 C   0  0  0  0  0  0  0  0  0  0  0  0
   56.2780   30.3480   44.8880 N   0  0  0  0  0  0  0  0  0  0  0  0
   56.9550   31.2150   44.1360 C   0  0  0  0  0  0  0  0  0  0  0  0
   62.4443   33.5871   46.6842 H   0  0  0  0  0  0  0  0  0  0  0  0
   58.4651   35.1646   46.8481 H   0  0  0  0  0  0  0  0  0  0  0  0
   58.6811   34.9815   45.0968 H   0  0  0  0  0  0  0  0  0  0  0  0
   58.6815   33.2842   41.4261 H   0  0  0  0  0  0  0  0  0  0  0  0
   55.8510   29.2250   41.9140 H   0  0  0  0  0  0  0  0  0  0  0  0
   55.1240   28.5718   44.3642 H   0  0  0  0  0  0  0  0  0  0  0  0
  1  2  3  0
  2  3  1  0
  3  4  1  0
  4  5  1  0
  5  6  2  0
  6  7  1  0
  7  8  2  0
  8  9  1  0
  9 10  1  0
 10 11  1  0
 11 12  2  0
 12 13  1  0
 13  5  1  0
 13  9  2  0
  1 14  1  0
  3 15  1  0
  3 16  1  0
  7 17  1  0
 10 18  1  0
 11 19  1  0
M  END
>  <smiles>  (11) 
C#CCSc1ncnc2[nH]cnc12

>  <score_type>  (11) 
oracle

>  <origin>  (11) 
adg

>  <m_score__min__energy>  (11) 
-5.21

>  <m_primary>  (11) 
energy

$$$$
11:0
     RDKit          3D

 29 30  0  0  0  0  0  0  0  0999 V2000
   57.1197   29.8415   42.2924 H   0  0  0  0  0  0  0  0  0  0  0  0
   57.0170   29.3940   43.2920 C   0  0  0  0  0  0  0  0  0  0  0  0
   56.1140   30.0610   44.2470 C   0  0  0  0  0  0  0  0  0  0  0  0
   55.2780   29.3640   44.8830 O   0  0  0  0  0  0  0  0  0  0  0  0
   56.2610   31.4250   44.5290 O   0  0  0  0  0  0  0  0  0  0  0  0
   57.3950   32.0200   45.0990 C   0  0  0  0  0  0  0  0  0  0  0  0
   58.2960   31.3030   45.9090 C   0  0  0  0  0  0  0  0  0  0  0  0
   58.1293   30.2325   46.0996 H   0  0  0  0  0  0  0  0  0  0  0  0
   59.4020   31.9470   46.4720 C   0  0  0  0  0  0  0  0  0  0  0  0
   60.1073   31.3806   47.0979 H   0  0  0  0  0  0  0  0  0  0  0  0
   59.6130   33.3090   46.2410 C   0  0  0  0  0  0  0  0  0  0  0  0
   60.4873   33.8125   46.6794 H   0  0  0  0  0  0  0  0  0  0  0  0
   58.7130   34.0310   45.4530 C   0  0  0  0  0  0  0  0  0  0  0  0
   58.8749   35.1046   45.2765 H   0  0  0  0  0  0  0  0  0  0  0  0
   57.6070   33.3890   44.8890 C   0  0  0  0  0  0  0  0  0  0  0  0
   56.8973   33.9631   44.2753 H   0  0  0  0  0  0  0  0  0  0  0  0
   57.7230   28.2830   43.5490 C   0  0  0  0  0  0  0  0  0  0  0  0
   57.8150   27.5424   42.7409 H   0  0  0  0  0  0  0  0  0  0  0  0
   58.3870   27.9760   44.8330 C   0  0  0  0  0  0  0  0  0  0  0  0
   59.7340   28.3260   45.0140 C   0  0  0  0  0  0  0  0  0  0  0  0
   60.2892   28.8066   44.1950 H   0  0  0  0  0  0  0  0  0  0  0  0
   60.3740   28.0670   46.2300 C   0  0  0  0  0  0  0  0  0  0  0  0
   61.4346   28.3285   46.3595 H   0  0  0  0  0  0  0  0  0  0  0  0
   59.6670   27.4760   47.2810 C   0  0  0  0  0  0  0  0  0  0  0  0
   60.2910   27.2250   48.4590 F   0  0  0  0  0  0  0  0  0  0  0  0
   58.3180   27.1530   47.1210 C   0  0  0  0  0  0  0  0  0  0  0  0
   57.7612   26.6939   47.9512 H   0  0  0  0  0  0  0  0  0  0  0  0
   57.6740   27.4120   45.9080 C   0  0  0  0  0  0  0  0  0  0  0  0
   56.6062   27.1743   45.7928 H   0  0  0  0  0  0  0  0  0  0  0  0
  1  2  1  0
  2  3  1  0
  3  4  2  0
  3  5  1  0
  5  6  1  0
  6  7  2  0
  7  8  1  0
  7  9  1  0
  9 10  1  0
  9 11  2  0
 11 12  1  0
 11 13  1  0
 13 14  1  0
 13 15  2  0
 15 16  1  0
  2 17  2  0
 17 18  1  0
 17 19  1  0
 19 20  2  0
 20 21  1  0
 20 22  1  0
 22 23  1  0
 22 24  2  0
 24 25  1  0
 24 26  1  0
 26 27  1  0
 26 28  2  0
 28 29  1  0
 15  6  1  0
 28 19  1  0
M  END
>  <UniqueID>  (12) 
9

>  <SMILES>  (12) 
O=C(/C=C\c1ccc(F)cc1)Oc1ccccc1

>  <Energy>  (12) 
40.04523510976156

>  <Genealogy>  (12) 
O=C(/C=C\c1ccc(F)cc1)Oc1ccccc1 (cis-trans isomerization)
O=C(/C=C\c1ccc(F)cc1)Oc1ccccc1 (3D coordinates assigned)
O=C(/C=C\c1ccc(F)cc1)Oc1ccccc1 (optimized conformer: 40.04523510976156 kcal/mol)

>  <smiles>  (12) 
O=C(C=Cc1ccc(F)cc1)Oc1ccccc1

>  <score_type>  (12) 
oracle

>  <origin>  (12) 
adg

>  <m_score__min__energy>  (12) 
-6.6299999999999999

>  <m_primary>  (12) 
energy

$$$$
12:0
     RDKit          3D

 44 47  0  0  0  0  0  0  0  0999 V2000
   60.0040   34.2150   45.5660 C   0  0  0  0  0  0  0  0  0  0  0  0
   58.6260   34.2780   46.0900 N   0  0  0  0  0  0  0  0  0  0  0  0
   57.6520   33.6090   45.2150 C   0  0  0  0  0  0  0  0  0  0  0  0
   57.8690   32.0930   45.1200 C   0  0  0  0  0  0  0  0  0  0  0  0
   58.3350   31.4480   46.3670 N   0  0  0  0  0  0  0  0  0  0  0  0
   58.4950   29.9940   46.3900 C   0  0  0  0  0  0  0  0  0  0  0  0
   59.4530   29.3670   47.2490 C   0  0  0  0  0  0  0  0  0  0  0  0
   59.6120   27.9700   47.2750 C   0  0  0  0  0  0  0  0  0  0  0  0
   58.8100   27.2110   46.4360 C   0  0  0  0  0  0  0  0  0  0  0  0
   58.7980   25.8770   46.2990 N   0  0  0  0  0  0  0  0  0  0  0  0
   57.8390   25.6840   45.3530 C   0  0  0  0  0  0  0  0  0  0  0  0
   57.4560   24.3430   44.8570 C   0  0  0  0  0  0  0  0  0  0  0  0
   56.6580   24.2100   43.7060 C   0  0  0  0  0  0  0  0  0  0  0  0
   56.2970   22.9430   43.2380 C   0  0  0  0  0  0  0  0  0  0  0  0
   56.7280   21.7920   43.9110 C   0  0  0  0  0  0  0  0  0  0  0  0
   56.3590   20.4970   43.4300 N   0  0  0  0  0  0  0  0  0  0  0  0
   57.5240   21.9190   45.0560 C   0  0  0  0  0  0  0  0  0  0  0  0
   57.8860   23.1850   45.5260 C   0  0  0  0  0  0  0  0  0  0  0  0
   57.2630   26.8310   44.9030 N   0  0  0  0  0  0  0  0  0  0  0  0
   57.9000   27.7780   45.6080 C   0  0  0  0  0  0  0  0  0  0  0  0
   57.7090   29.1550   45.5470 C   0  0  0  0  0  0  0  0  0  0  0  0
   58.7950   32.2340   47.5330 C   0  0  0  0  0  0  0  0  0  0  0  0
   58.5090   33.7400   47.4530 C   0  0  0  0  0  0  0  0  0  0  0  0
   60.7143   34.1825   46.4053 H   0  0  0  0  0  0  0  0  0  0  0  0
   60.1215   33.3105   44.9510 H   0  0  0  0  0  0  0  0  0  0  0  0
   60.2035   35.1050   44.9510 H   0  0  0  0  0  0  0  0  0  0  0  0
   58.3610   35.2910   46.1320 H   0  0  0  0  0  0  0  0  0  0  0  0
   56.6421   33.7939   45.6098 H   0  0  0  0  0  0  0  0  0  0  0  0
   57.7815   34.0226   44.2040 H   0  0  0  0  0  0  0  0  0  0  0  0
   56.9140   31.6291   44.8324 H   0  0  0  0  0  0  0  0  0  0  0  0
   58.6685   31.9431   44.3795 H   0  0  0  0  0  0  0  0  0  0  0  0
   60.0787   29.9918   47.9033 H   0  0  0  0  0  0  0  0  0  0  0  0
   60.3487   27.4947   47.9393 H   0  0  0  0  0  0  0  0  0  0  0  0
   56.3160   25.1083   43.1711 H   0  0  0  0  0  0  0  0  0  0  0  0
   55.6720   22.8493   42.3377 H   0  0  0  0  0  0  0  0  0  0  0  0
   56.9230   19.6530   43.6780 H   0  0  0  0  0  0  0  0  0  0  0  0
   55.5170   20.3710   42.8250 H   0  0  0  0  0  0  0  0  0  0  0  0
   57.8659   21.0189   45.5879 H   0  0  0  0  0  0  0  0  0  0  0  0
   58.5120   23.2749   46.4260 H   0  0  0  0  0  0  0  0  0  0  0  0
   56.9657   29.5879   44.8614 H   0  0  0  0  0  0  0  0  0  0  0  0
   58.2952   31.8388   48.4297 H   0  0  0  0  0  0  0  0  0  0  0  0
   59.8897   32.1298   47.5618 H   0  0  0  0  0  0  0  0  0  0  0  0
   57.4861   33.9217   47.8144 H   0  0  0  0  0  0  0  0  0  0  0  0
   59.2615   34.2499   48.0724 H   0  0  0  0  0  0  0  0  0  0  0  0
  1  2  1  0
  2  3  1  0
  3  4  1  0
  4  5  1  0
  5  6  1  0
  6  7  2  0
  7  8  1  0
  8  9  2  0
  9 10  1  0
 10 11  1  0
 11 12  1  0
 12 13  2  0
 13 14  1  0
 14 15  2  0
 15 16  1  0
 15 17  1  0
 17 18  2  0
 11 19  2  0
 19 20  1  0
 20 21  2  0
  5 22  1  0
 22 23  1  0
 23  2  1  0
 21  6  1  0
 20  9  1  0
 18 12  1  0
  1 24  1  0
  1 25  1  0
  1 26  1  0
  2 27  1  0
  3 28  1  0
  3 29  1  0
  4 30  1  0
  4 31  1  0
  7 32  1  0
  8 33  1  0
 13 34  1  0
 14 35  1  0
 16 36  1  0
 16 37  1  0
 17 38  1  0
 18 39  1  0
 21 40  1  0
 22 41  1  0
 22 42  1  0
 23 43  1  0
 23 44  1  0
M  CHG  2   2   1  10  -1
M  END
>  <UniqueID>  (13) 
10

>  <SMILES>  (13) 
C[NH+]1CCN(c2ccc3[n-]c(-c4ccc(N)cc4)nc3c2)CC1

>  <Energy>  (13) 
92.15920778310263

>  <Genealogy>  (13) 
C[NH+]1CCN(c2ccc3[n-]c(-c4ccc(N)cc4)nc3c2)CC1 (protonated)
C[NH+]1CCN(c2ccc3[n-]c(-c4ccc(N)cc4)nc3c2)CC1 (3D coordinates assigned)
C[NH+]1CCN(c2ccc3[n-]c(-c4ccc(N)cc4)nc3c2)CC1 (nonaromatic ring conformer: 92.15920778310263 kcal/mol)

>  <smiles>  (13) 
CN1CCN(c2ccc3[nH]c(-c4ccc(N)cc4)nc3c2)CC1

>  <score_type>  (13) 
oracle

>  <origin>  (13) 
adg

>  <m_score__min__energy>  (13) 
-6.8600000000000003

>  <m_primary>  (13) 
energy

$$$$
13:0
     RDKit          3D

 52 55  0  0  1  0  0  0  0  0999 V2000
   62.5550   32.6840   48.0240 C   0  0  0  0  0  0  0  0  0  0  0  0
   62.0460   32.9860   49.3220 O   0  0  0  0  0  0  0  0  0  0  0  0
   60.8850   32.4050   49.8100 C   0  0  0  0  0  0  0  0  0  0  0  0
   60.9860   31.2420   50.5420 C   0  0  0  0  0  0  0  0  0  0  0  0
   59.8070   30.6660   51.0290 C   0  0  0  0  0  0  0  0  0  0  0  0
   58.5740   31.2400   50.7870 C   0  0  0  0  0  0  0  0  0  0  0  0
   57.4020   30.5650   51.3360 C   0  0  0  0  0  0  0  0  0  0  0  0
   57.5130   29.3440   51.6180 O   0  0  0  0  0  0  0  0  0  0  0  0
   56.1620   31.2120   51.5630 N   0  0  0  0  0  0  0  0  0  0  0  0
   55.0490   30.4990   52.1030 C   0  0  0  0  0  0  0  0  0  0  0  0
   53.8390   30.6520   51.4170 C   0  0  0  0  0  0  0  0  0  0  0  0
   52.7210   29.9990   51.8730 C   0  0  0  0  0  0  0  0  0  0  0  0
   52.8020   29.2100   52.9860 C   0  0  0  0  0  0  0  0  0  0  0  0
   53.9980   29.0530   53.6690 C   0  0  0  0  0  0  0  0  0  0  0  0
   55.1450   29.7050   53.2270 C   0  0  0  0  0  0  0  0  0  0  0  0
   58.4800   32.4050   50.0530 C   0  0  0  0  0  0  0  0  0  0  0  0
   59.6360   32.9840   49.5680 C   0  0  0  0  0  0  0  0  0  0  0  0
   59.6400   34.1830   48.8010 N   0  0  0  0  0  0  0  0  0  0  0  0
   59.3760   34.1530   47.5400 C   0  0  0  0  0  0  0  0  0  0  0  0
   58.8260   33.0240   46.9280 C   0  0  0  0  0  0  0  0  0  0  0  0
   58.5490   33.0130   45.5730 C   0  0  0  0  0  0  0  0  0  0  0  0
   57.9770   31.8390   44.9340 C   0  0  0  0  0  0  0  0  0  0  0  0
   57.8290   30.6290   45.5840 C   0  0  0  0  0  0  0  0  0  0  0  0
   57.2790   29.5120   44.9640 C   0  0  0  0  0  0  0  0  0  0  0  0
   56.8540   29.5680   43.6550 C   0  0  0  0  0  0  0  0  0  0  0  0
   56.9950   30.7670   42.9920 C   0  0  0  0  0  0  0  0  0  0  0  0
   57.5490   31.8880   43.6230 C   0  0  0  0  0  0  0  0  0  0  0  0
   58.8460   34.1510   44.9060 N   0  0  0  0  0  0  0  0  0  0  0  0
   59.3770   35.2270   45.5180 C   0  0  0  0  0  0  0  0  0  0  0  0
   59.6430   36.2940   44.8340 N   0  0  0  0  0  0  0  0  0  0  0  0
   59.6500   35.2570   46.8270 N   0  0  0  0  0  0  0  0  0  0  0  0
   63.4974   32.1249   48.1206 H   0  0  0  0  0  0  0  0  0  0  0  0
   61.8218   32.0747   47.4752 H   0  0  0  0  0  0  0  0  0  0  0  0
   62.7384   33.6195   47.4752 H   0  0  0  0  0  0  0  0  0  0  0  0
   61.9647   30.7797   50.7379 H   0  0  0  0  0  0  0  0  0  0  0  0
   59.8633   29.7376   51.6162 H   0  0  0  0  0  0  0  0  0  0  0  0
   56.0570   32.2220   51.3330 H   0  0  0  0  0  0  0  0  0  0  0  0
   53.7843   31.2888   50.5218 H   0  0  0  0  0  0  0  0  0  0  0  0
   51.7629   30.1104   51.3442 H   0  0  0  0  0  0  0  0  0  0  0  0
   51.9020   28.6902   53.3463 H   0  0  0  0  0  0  0  0  0  0  0  0
   54.0404   28.4119   54.5619 H   0  0  0  0  0  0  0  0  0  0  0  0
   56.1011   29.5906   53.7587 H   0  0  0  0  0  0  0  0  0  0  0  0
   57.5000   32.8649   49.8575 H   0  0  0  0  0  0  0  0  0  0  0  0
   58.6101   32.1308   47.5326 H   0  0  0  0  0  0  0  0  0  0  0  0
   58.1582   30.5459   46.6303 H   0  0  0  0  0  0  0  0  0  0  0  0
   57.1822   28.5716   45.5264 H   0  0  0  0  0  0  0  0  0  0  0  0
   56.4185   28.6886   43.1580 H   0  0  0  0  0  0  0  0  0  0  0  0
   56.6657   30.8458   41.9454 H   0  0  0  0  0  0  0  0  0  0  0  0
   57.6451   32.8286   43.0609 H   0  0  0  0  0  0  0  0  0  0  0  0
   58.6750   34.2360   43.8860 H   0  0  0  0  0  0  0  0  0  0  0  0
   60.1800   37.0960   45.2520 H   0  0  0  0  0  0  0  0  0  0  0  0
   60.0620   36.1000   47.2840 H   0  0  0  0  0  0  0  0  0  0  0  0
  1  2  1  0
  2  3  1  0
  3  4  2  0
  4  5  1  0
  5  6  2  0
  6  7  1  0
  7  8  2  0
  7  9  1  0
  9 10  1  0
 10 11  2  0
 11 12  1  0
 12 13  2  0
 13 14  1  0
 14 15  2  0
  6 16  1  0
 16 17  2  0
 17 18  1  0
 18 19  2  0
 19 20  1  0
 20 21  2  0
 21 22  1  0
 22 23  2  0
 23 24  1  0
 24 25  2  0
 25 26  1  0
 26 27  2  0
 21 28  1  0
 28 29  1  0
 29 30  2  3
 29 31  1  0
 17  3  1  0
 31 19  1  0
 15 10  1  0
 27 22  1  0
  1 32  1  0
  1 33  1  0
  1 34  1  0
  4 35  1  0
  5 36  1  0
  9 37  1  0
 11 38  1  0
 12 39  1  0
 13 40  1  0
 14 41  1  0
 15 42  1  0
 16 43  1  0
 20 44  1  0
 23 45  1  0
 24 46  1  0
 25 47  1  0
 26 48  1  0
 27 49  1  0
 28 50  1  0
 30 51  1  0
 31 52  1  0
M  END
>  <smiles>  (14) 
COc1ccc(C(=O)Nc2ccccc2)cc1N=c1cc(-c2ccccc2)[nH]c(=N)[nH]1

>  <score_type>  (14) 
oracle

>  <origin>  (14) 
adg

>  <m_score__min__energy>  (14) 
-8.5800000000000001

>  <m_primary>  (14) 
energy

$$$$
14:0
     RDKit          3D

 31 32  0  0  0  0  0  0  0  0999 V2000
   54.6330   24.5770   45.6410 C   0  0  0  0  0  0  0  0  0  0  0  0
   55.2950   25.6740   46.2610 O   0  0  0  0  0  0  0  0  0  0  0  0
   56.6660   25.9540   46.1380 C   0  0  0  0  0  0  0  0  0  0  0  0
   57.6480   25.0140   46.5130 C   0  0  0  0  0  0  0  0  0  0  0  0
   59.0040   25.3200   46.3870 C   0  0  0  0  0  0  0  0  0  0  0  0
   59.3980   26.5580   45.8830 C   0  0  0  0  0  0  0  0  0  0  0  0
   58.4380   27.4970   45.5050 C   0  0  0  0  0  0  0  0  0  0  0  0
   57.0650   27.2110   45.6330 C   0  0  0  0  0  0  0  0  0  0  0  0
   56.0630   28.1740   45.2470 N   0  0  0  0  0  0  0  0  0  0  0  0
   56.3410   29.4390   44.0920 S   0  0  0  0  0  0  0  0  0  0  0  0
   57.0390   28.8630   42.8910 O   0  0  0  0  0  0  0  0  0  0  0  0
   55.0220   30.0160   43.6600 O   0  0  0  0  0  0  0  0  0  0  0  0
   57.3050   30.7200   44.8200 C   0  0  0  0  0  0  0  0  0  0  0  0
   58.0010   30.4970   46.0170 C   0  0  0  0  0  0  0  0  0  0  0  0
   58.7540   31.5250   46.5930 C   0  0  0  0  0  0  0  0  0  0  0  0
   58.8170   32.7780   45.9770 C   0  0  0  0  0  0  0  0  0  0  0  0
   59.5460   33.7730   46.5360 F   0  0  0  0  0  0  0  0  0  0  0  0
   58.1280   33.0040   44.7810 C   0  0  0  0  0  0  0  0  0  0  0  0
   57.3750   31.9770   44.2020 C   0  0  0  0  0  0  0  0  0  0  0  0
   54.2291   23.9076   46.4148 H   0  0  0  0  0  0  0  0  0  0  0  0
   53.8102   24.9518   45.0145 H   0  0  0  0  0  0  0  0  0  0  0  0
   55.3481   24.0237   45.0145 H   0  0  0  0  0  0  0  0  0  0  0  0
   57.3434   24.0333   46.9073 H   0  0  0  0  0  0  0  0  0  0  0  0
   59.7632   24.5824   46.6862 H   0  0  0  0  0  0  0  0  0  0  0  0
   60.4675   26.7952   45.7831 H   0  0  0  0  0  0  0  0  0  0  0  0
   58.7565   28.4701   45.1031 H   0  0  0  0  0  0  0  0  0  0  0  0
   55.1450   28.1930   45.7440 H   0  0  0  0  0  0  0  0  0  0  0  0
   57.9545   29.5116   46.5037 H   0  0  0  0  0  0  0  0  0  0  0  0
   59.2977   31.3472   47.5326 H   0  0  0  0  0  0  0  0  0  0  0  0
   58.1782   33.9898   44.2954 H   0  0  0  0  0  0  0  0  0  0  0  0
   56.8365   32.1558   43.2597 H   0  0  0  0  0  0  0  0  0  0  0  0
  1  2  1  0
  2  3  1  0
  3  4  2  0
  4  5  1  0
  5  6  2  0
  6  7  1  0
  7  8  2  0
  8  9  1  0
  9 10  1  0
 10 11  2  0
 10 12  2  0
 10 13  1  0
 13 14  2  0
 14 15  1  0
 15 16  2  0
 16 17  1  0
 16 18  1  0
 18 19  2  0
  8  3  1  0
 19 13  1  0
  1 20  1  0
  1 21  1  0
  1 22  1  0
  4 23  1  0
  5 24  1  0
  6 25  1  0
  7 26  1  0
  9 27  1  0
 14 28  1  0
 15 29  1  0
 18 30  1  0
 19 31  1  0
M  END
>  <UniqueID>  (15) 
11

>  <SMILES>  (15) 
COc1ccccc1NS(=O)(=O)c1ccc(F)cc1

>  <Energy>  (15) 
34.48510706742585

>  <Genealogy>  (15) 
COc1ccccc1NS(=O)(=O)c1ccc(F)cc1 (3D coordinates assigned)
COc1ccccc1NS(=O)(=O)c1ccc(F)cc1 (optimized conformer: 34.48510706742585 kcal/mol)

>  <smiles>  (15) 
COc1ccccc1NS(=O)(=O)c1ccc(F)cc1

>  <score_type>  (15) 
oracle

>  <origin>  (15) 
adg

>  <m_score__min__energy>  (15) 
-7.1200000000000001

>  <m_primary>  (15) 
energy

$$$$
15:0
     RDKit          3D

 42 43  0  0  0  0  0  0  0  0999 V2000
   60.3070   32.3020   50.0040 C   0  0  0  0  0  0  0  0  0  0  0  0
   60.3520   31.2480   48.9370 C   0  0  0  0  0  0  0  0  0  0  0  0
   61.0680   31.4730   47.7530 C   0  0  0  0  0  0  0  0  0  0  0  0
   61.1440   30.4760   46.7750 C   0  0  0  0  0  0  0  0  0  0  0  0
   60.5250   29.2320   46.9800 C   0  0  0  0  0  0  0  0  0  0  0  0
   60.6100   28.1570   45.9270 C   0  0  0  0  0  0  0  0  0  0  0  0
   59.9360   28.5340   44.5870 C   0  0  0  0  0  0  0  0  0  0  0  0
   58.3830   28.7520   44.5840 C   0  0  1  0  0  0  0  0  0  0  0  0
   57.8010   28.2030   43.3380 N   0  0  0  0  0  0  0  0  0  0  0  0
   57.7220   28.0320   45.8060 C   0  0  0  0  0  0  0  0  0  0  0  0
   56.2520   27.7780   45.6210 C   0  0  0  0  0  0  0  0  0  0  0  0
   55.5340   28.6200   45.0200 O   0  0  0  0  0  0  0  0  0  0  0  0
   55.6750   26.6190   46.1260 O   0  0  0  0  0  0  0  0  0  0  0  0
   58.1490   30.2800   44.6910 C   0  0  0  0  0  0  0  0  0  0  0  0
   58.0100   31.0500   43.5130 C   0  0  0  0  0  0  0  0  0  0  0  0
   57.7780   32.4260   43.5740 C   0  0  0  0  0  0  0  0  0  0  0  0
   57.6620   33.0630   44.8090 C   0  0  0  0  0  0  0  0  0  0  0  0
   57.7710   32.3220   45.9850 C   0  0  0  0  0  0  0  0  0  0  0  0
   58.0040   30.9450   45.9320 C   0  0  0  0  0  0  0  0  0  0  0  0
   59.8060   29.0110   48.1670 C   0  0  0  0  0  0  0  0  0  0  0  0
   59.7310   30.0070   49.1430 C   0  0  0  0  0  0  0  0  0  0  0  0
   60.3275   31.8227   50.9939 H   0  0  0  0  0  0  0  0  0  0  0  0
   61.1776   32.9663   49.9002 H   0  0  0  0  0  0  0  0  0  0  0  0
   59.3829   32.8897   49.9002 H   0  0  0  0  0  0  0  0  0  0  0  0
   61.5720   32.4375   47.5925 H   0  0  0  0  0  0  0  0  0  0  0  0
   61.6915   30.6672   45.8403 H   0  0  0  0  0  0  0  0  0  0  0  0
   61.6720   27.9464   45.7327 H   0  0  0  0  0  0  0  0  0  0  0  0
   60.0697   27.2832   46.3201 H   0  0  0  0  0  0  0  0  0  0  0  0
   60.3990   29.4691   44.2389 H   0  0  0  0  0  0  0  0  0  0  0  0
   60.0932   27.6569   43.9421 H   0  0  0  0  0  0  0  0  0  0  0  0
   56.8270   27.8610   43.4990 H   0  0  0  0  0  0  0  0  0  0  0  0
   58.3710   27.4000   42.9830 H   0  0  0  0  0  0  0  0  0  0  0  0
   57.7420   28.9370   42.5960 H   0  0  0  0  0  0  0  0  0  0  0  0
   58.2270   27.0666   45.9577 H   0  0  0  0  0  0  0  0  0  0  0  0
   57.8314   28.6974   46.6751 H   0  0  0  0  0  0  0  0  0  0  0  0
   58.0858   30.5572   42.5325 H   0  0  0  0  0  0  0  0  0  0  0  0
   57.6866   33.0086   42.6455 H   0  0  0  0  0  0  0  0  0  0  0  0
   57.4849   34.1477   44.8553 H   0  0  0  0  0  0  0  0  0  0  0  0
   57.6731   32.8235   46.9591 H   0  0  0  0  0  0  0  0  0  0  0  0
   58.0757   30.3704   46.8672 H   0  0  0  0  0  0  0  0  0  0  0  0
   59.2994   28.0480   48.3283 H   0  0  0  0  0  0  0  0  0  0  0  0
   59.1825   29.8176   50.0775 H   0  0  0  0  0  0  0  0  0  0  0  0
  1  2  1  0
  2  3  2  0
  3  4  1  0
  4  5  2  0
  5  6  1  0
  6  7  1  0
  8  7  1  6
  8  9  1  0
  8 10  1  0
 10 11  1  0
 11 12  2  0
 11 13  1  0
  8 14  1  0
 14 15  2  0
 15 16  1  0
 16 17  2  0
 17 18  1  0
 18 19  2  0
  5 20  1  0
 20 21  2  0
 21  2  1  0
 19 14  1  0
  1 22  1  0
  1 23  1  0
  1 24  1  0
  3 25  1  0
  4 26  1  0
  6 27  1  0
  6 28  1  0
  7 29  1  0
  7 30  1  0
  9 31  1  0
  9 32  1  0
  9 33  1  0
 10 34  1  0
 10 35  1  0
 15 36  1  0
 16 37  1  0
 17 38  1  0
 18 39  1  0
 19 40  1  0
 20 41  1  0
 21 42  1  0
M  CHG  2   9   1  13  -1
M  END
>  <UniqueID>  (16) 
12

>  <SMILES>  (16) 
Cc1ccc(CC[C@@]([NH3+])(CC(=O)[O-])c2ccccc2)cc1

>  <Energy>  (16) 
47.826510995042014

>  <Genealogy>  (16) 
Cc1ccc(CCC([NH3+])(CC(=O)[O-])c2ccccc2)cc1 (protonated)
Cc1ccc(CC[C@@]([NH3+])(CC(=O)[O-])c2ccccc2)cc1 (chirality)
Cc1ccc(CC[C@@]([NH3+])(CC(=O)[O-])c2ccccc2)cc1 (3D coordinates assigned)
Cc1ccc(CC[C@@]([NH3+])(CC(=O)[O-])c2ccccc2)cc1 (optimized conformer: 47.826510995042014 kcal/mol)

>  <smiles>  (16) 
Cc1ccc(CCC(N)(CC(=O)O)c2ccccc2)cc1

>  <score_type>  (16) 
oracle

>  <origin>  (16) 
adg

>  <m_score__min__energy>  (16) 
-8.2200000000000006

>  <m_primary>  (16) 
energy

$$$$
16:0
     RDKit          3D

 28 29  0  0  0  0  0  0  0  0999 V2000
   58.2120   33.9500   44.6810 C   0  0  0  0  0  0  0  0  0  0  0  0
   58.0230   32.4810   44.8810 C   0  0  0  0  0  0  0  0  0  0  0  0
   59.1130   31.6740   45.2790 C   0  0  0  0  0  0  0  0  0  0  0  0
   58.9100   30.2980   45.4530 C   0  0  0  0  0  0  0  0  0  0  0  0
   59.8570   29.5470   45.8080 O   0  0  0  0  0  0  0  0  0  0  0  0
   57.6630   29.8070   45.2280 N   0  0  0  0  0  0  0  0  0  0  0  0
   57.1180   28.5770   45.2870 C   0  0  0  0  0  0  0  0  0  0  0  0
   57.8460   27.3070   45.6260 C   0  0  0  0  0  0  0  0  0  0  0  0
   56.9920   26.1320   45.3520 N   0  0  0  0  0  0  0  0  0  0  0  0
   55.9450   25.9940   46.3800 C   0  0  0  0  0  0  0  0  0  0  0  0
   57.8140   24.9110   45.3200 C   0  0  0  0  0  0  0  0  0  0  0  0
   55.8110   28.6360   44.9440 N   0  0  0  0  0  0  0  0  0  0  0  0
   55.5000   29.8960   44.6660 N   0  0  0  0  0  0  0  0  0  0  0  0
   56.6420   30.5860   44.8470 C   0  0  0  0  0  0  0  0  0  0  0  0
   56.7940   31.9200   44.6670 N   0  0  0  0  0  0  0  0  0  0  0  0
   58.2761   34.4480   45.6597 H   0  0  0  0  0  0  0  0  0  0  0  0
   59.1403   34.1270   44.1181 H   0  0  0  0  0  0  0  0  0  0  0  0
   57.3587   34.3562   44.1181 H   0  0  0  0  0  0  0  0  0  0  0  0
   60.1046   32.1186   45.4495 H   0  0  0  0  0  0  0  0  0  0  0  0
   58.7599   27.2401   45.0175 H   0  0  0  0  0  0  0  0  0  0  0  0
   58.1027   27.3187   46.6956 H   0  0  0  0  0  0  0  0  0  0  0  0
   56.4017   26.0542   47.3789 H   0  0  0  0  0  0  0  0  0  0  0  0
   55.2086   26.8028   46.2642 H   0  0  0  0  0  0  0  0  0  0  0  0
   55.4433   25.0220   46.2642 H   0  0  0  0  0  0  0  0  0  0  0  0
   58.0313   24.5882   46.3489 H   0  0  0  0  0  0  0  0  0  0  0  0
   57.2674   24.1147   44.7936 H   0  0  0  0  0  0  0  0  0  0  0  0
   58.7575   25.1178   44.7936 H   0  0  0  0  0  0  0  0  0  0  0  0
   55.1430   27.8360   44.8900 H   0  0  0  0  0  0  0  0  0  0  0  0
  1  2  1  0
  2  3  2  0
  3  4  1  0
  4  5  2  0
  4  6  1  0
  6  7  1  0
  7  8  1  0
  8  9  1  0
  9 10  1  0
  9 11  1  0
  7 12  2  0
 12 13  1  0
 13 14  2  0
 14 15  1  0
 15  2  1  0
 14  6  1  0
  1 16  1  0
  1 17  1  0
  1 18  1  0
  3 19  1  0
  8 20  1  0
  8 21  1  0
 10 22  1  0
 10 23  1  0
 10 24  1  0
 11 25  1  0
 11 26  1  0
 11 27  1  0
 12 28  1  0
M  CHG  2  12   1  15  -1
M  END
>  <UniqueID>  (17) 
13

>  <SMILES>  (17) 
Cc1cc(=O)n2c(CN(C)C)[nH+]nc2[n-]1

>  <Energy>  (17) 
69.80643699202682

>  <Genealogy>  (17) 
Cc1cc(=O)n2c(CN(C)C)[nH+]nc2[n-]1 (protonated)
Cc1cc(=O)n2c(CN(C)C)[nH+]nc2[n-]1 (3D coordinates assigned)
Cc1cc(=O)n2c(CN(C)C)[nH+]nc2[n-]1 (optimized conformer: 69.80643699202682 kcal/mol)

>  <smiles>  (17) 
Cc1cc(=O)n2c(CN(C)C)nnc2[nH]1

>  <score_type>  (17) 
oracle

>  <origin>  (17) 
adg

>  <m_score__min__energy>  (17) 
-6.0700000000000003

>  <m_primary>  (17) 
energy

$$$$
17:0
     RDKit          3D

 34 35  0  0  0  0  0  0  0  0999 V2000
   59.0880   28.3860   44.2500 C   0  0  0  0  0  0  0  0  0  0  0  0
   57.6470   28.2680   44.4990 N   0  0  0  0  0  0  0  0  0  0  0  0
   57.3860   28.0240   45.9220 C   0  0  0  0  0  0  0  0  0  0  0  0
   56.8080   29.7000   43.9410 S   0  0  0  0  0  0  0  0  0  0  0  0
   56.2390   29.4100   42.5810 O   0  0  0  0  0  0  0  0  0  0  0  0
   55.6680   30.0190   44.8680 O   0  0  0  0  0  0  0  0  0  0  0  0
   57.8700   31.1390   43.7920 C   0  0  0  0  0  0  0  0  0  0  0  0
   57.6690   32.1010   44.9300 C   0  0  0  0  0  0  0  0  0  0  0  0
   56.4920   32.4250   45.2460 O   0  0  0  0  0  0  0  0  0  0  0  0
   58.8040   32.6720   45.6960 C   0  0  0  0  0  0  0  0  0  0  0  0
   58.9580   34.0650   45.8540 C   0  0  0  0  0  0  0  0  0  0  0  0
   60.0420   34.5830   46.5700 C   0  0  0  0  0  0  0  0  0  0  0  0
   60.9780   33.7190   47.1390 C   0  0  0  0  0  0  0  0  0  0  0  0
   60.8120   32.3330   47.0270 C   0  0  0  0  0  0  0  0  0  0  0  0
   59.7370   31.8100   46.3020 C   0  0  0  0  0  0  0  0  0  0  0  0
   61.7360   31.4850   47.6470 O   0  0  0  0  0  0  0  0  0  0  0  0
   62.6690   31.9860   48.6060 C   0  0  0  0  0  0  0  0  0  0  0  0
   63.1830   33.3670   48.1780 C   0  0  0  0  0  0  0  0  0  0  0  0
   62.0870   34.2170   47.8300 O   0  0  0  0  0  0  0  0  0  0  0  0
   59.6236   28.4299   45.2098 H   0  0  0  0  0  0  0  0  0  0  0  0
   59.4337   27.5132   43.6767 H   0  0  0  0  0  0  0  0  0  0  0  0
   59.2871   29.3035   43.6767 H   0  0  0  0  0  0  0  0  0  0  0  0
   58.0556   28.6499   46.5302 H   0  0  0  0  0  0  0  0  0  0  0  0
   56.3400   28.2756   46.1514 H   0  0  0  0  0  0  0  0  0  0  0  0
   57.5667   26.9635   46.1514 H   0  0  0  0  0  0  0  0  0  0  0  0
   58.9191   30.8083   43.7863 H   0  0  0  0  0  0  0  0  0  0  0  0
   57.6141   31.6577   42.8563 H   0  0  0  0  0  0  0  0  0  0  0  0
   58.2198   34.7494   45.4106 H   0  0  0  0  0  0  0  0  0  0  0  0
   60.1565   35.6710   46.6844 H   0  0  0  0  0  0  0  0  0  0  0  0
   59.6200   30.7206   46.2049 H   0  0  0  0  0  0  0  0  0  0  0  0
   62.1735   32.0705   49.5845 H   0  0  0  0  0  0  0  0  0  0  0  0
   63.5202   31.2925   48.6732 H   0  0  0  0  0  0  0  0  0  0  0  0
   63.7437   33.8194   49.0092 H   0  0  0  0  0  0  0  0  0  0  0  0
   63.8380   33.2500   47.3021 H   0  0  0  0  0  0  0  0  0  0  0  0
  1  2  1  0
  2  3  1  0
  2  4  1  0
  4  5  2  0
  4  6  2  0
  4  7  1  0
  7  8  1  0
  8  9  2  0
  8 10  1  0
 10 11  2  0
 11 12  1  0
 12 13  2  0
 13 14  1  0
 14 15  2  0
 14 16  1  0
 16 17  1  0
 17 18  1  0
 18 19  1  0
 15 10  1  0
 19 13  1  0
  1 20  1  0
  1 21  1  0
  1 22  1  0
  3 23  1  0
  3 24  1  0
  3 25  1  0
  7 26  1  0
  7 27  1  0
 11 28  1  0
 12 29  1  0
 15 30  1  0
 17 31  1  0
 17 32  1  0
 18 33  1  0
 18 34  1  0
M  END
>  <UniqueID>  (18) 
14

>  <SMILES>  (18) 
CN(C)S(=O)(=O)CC(=O)c1ccc2c(c1)OCCO2

>  <Energy>  (18) 
31.044663478903953

>  <Genealogy>  (18) 
CN(C)S(=O)(=O)CC(=O)c1ccc2c(c1)OCCO2 (3D coordinates assigned)
CN(C)S(=O)(=O)CC(=O)c1ccc2c(c1)OCCO2 (nonaromatic ring conformer: 31.044663478903953 kcal/mol)

>  <smiles>  (18) 
CN(C)S(=O)(=O)CC(=O)c1ccc2c(c1)OCCO2

>  <score_type>  (18) 
oracle

>  <origin>  (18) 
adg

>  <m_score__min__energy>  (18) 
-6.75

>  <m_primary>  (18) 
energy

$$$$
18:0
     RDKit          3D

 23 25  0  0  0  0  0  0  0  0999 V2000
   59.2560   34.8590   46.0380 C   0  0  0  0  0  0  0  0  0  0  0  0
   58.7180   34.4850   44.8750 C   0  0  0  0  0  0  0  0  0  0  0  0
   58.3330   33.0840   44.6290 C   0  0  0  0  0  0  0  0  0  0  0  0
   57.7680   32.7150   43.3990 C   0  0  0  0  0  0  0  0  0  0  0  0
   57.4020   31.3880   43.1620 C   0  0  0  0  0  0  0  0  0  0  0  0
   57.5950   30.4160   44.1460 C   0  0  0  0  0  0  0  0  0  0  0  0
   58.1570   30.7670   45.3820 C   0  0  0  0  0  0  0  0  0  0  0  0
   58.3550   29.7990   46.3780 C   0  0  0  0  0  0  0  0  0  0  0  0
   58.9160   30.1590   47.6040 C   0  0  0  0  0  0  0  0  0  0  0  0
   59.2850   31.4830   47.8500 C   0  0  0  0  0  0  0  0  0  0  0  0
   59.0970   32.4690   46.8690 C   0  0  0  0  0  0  0  0  0  0  0  0
   58.5300   32.1110   45.6280 C   0  0  0  0  0  0  0  0  0  0  0  0
   59.5090   33.8940   47.1690 C   0  0  0  0  0  0  0  0  0  0  0  0
   59.5263   35.9161   46.1774 H   0  0  0  0  0  0  0  0  0  0  0  0
   58.5593   35.2356   44.0867 H   0  0  0  0  0  0  0  0  0  0  0  0
   57.6126   33.4739   42.6180 H   0  0  0  0  0  0  0  0  0  0  0  0
   56.9593   31.1070   42.1950 H   0  0  0  0  0  0  0  0  0  0  0  0
   57.3056   29.3728   43.9512 H   0  0  0  0  0  0  0  0  0  0  0  0
   58.0673   28.7537   46.1921 H   0  0  0  0  0  0  0  0  0  0  0  0
   59.0684   29.3954   48.3810 H   0  0  0  0  0  0  0  0  0  0  0  0
   59.7264   31.7554   48.8200 H   0  0  0  0  0  0  0  0  0  0  0  0
   58.9463   34.2383   48.0493 H   0  0  0  0  0  0  0  0  0  0  0  0
   60.5959   33.8811   47.3380 H   0  0  0  0  0  0  0  0  0  0  0  0
  1  2  2  0
  2  3  1  0
  3  4  1  0
  4  5  2  0
  5  6  1  0
  6  7  2  0
  7  8  1  0
  8  9  2  0
  9 10  1  0
 10 11  2  0
 11 12  1  0
 11 13  1  0
 13  1  1  0
 12  3  2  0
 12  7  1  0
  1 14  1  0
  2 15  1  0
  4 16  1  0
  5 17  1  0
  6 18  1  0
  8 19  1  0
  9 20  1  0
 10 21  1  0
 13 22  1  0
 13 23  1  0
M  END
>  <UniqueID>  (19) 
15

>  <SMILES>  (19) 
C1=Cc2cccc3cccc(c23)C1

>  <Energy>  (19) 
30.810309821566413

>  <Genealogy>  (19) 
C1=Cc2cccc3cccc(c23)C1 (3D coordinates assigned)
C1=Cc2cccc3cccc(c23)C1 (nonaromatic ring conformer: 30.810309821566413 kcal/mol)

>  <smiles>  (19) 
C1=Cc2cccc3cccc(c23)C1

>  <score_type>  (19) 
oracle

>  <origin>  (19) 
adg

>  <m_score__min__energy>  (19) 
-5.79

>  <m_primary>  (19) 
energy

$$$$
19:0
     RDKit          3D

 50 53  0  0  0  0  0  0  0  0999 V2000
   57.1680   21.3250   43.0870 C   0  0  0  0  0  0  0  0  0  0  0  0
   55.8940   21.8900   43.3740 O   0  0  0  0  0  0  0  0  0  0  0  0
   55.7210   22.9540   44.2630 C   0  0  0  0  0  0  0  0  0  0  0  0
   56.6800   23.9660   44.3200 C   0  0  0  0  0  0  0  0  0  0  0  0
   56.4940   25.0290   45.2180 C   0  0  0  0  0  0  0  0  0  0  0  0
   57.4510   26.1040   45.3210 N   0  0  0  0  0  0  0  0  0  0  0  0
   57.7760   26.8840   44.1010 C   0  0  0  0  0  0  0  0  0  0  0  0
   58.2000   28.3360   44.4170 C   0  0  0  0  0  0  0  0  0  0  0  0
   59.2230   28.3110   45.5490 C   0  0  1  0  0  0  0  0  0  0  0  0
   59.7670   29.6370   46.0580 C   0  0  0  0  0  0  0  0  0  0  0  0
   60.0860   29.3620   47.4600 N   0  0  0  0  0  0  0  0  0  0  0  0
   61.0490   30.1250   48.2090 C   0  0  0  0  0  0  0  0  0  0  0  0
   61.4200   29.7160   49.3420 O   0  0  0  0  0  0  0  0  0  0  0  0
   61.6120   31.3860   47.6850 C   0  0  0  0  0  0  0  0  0  0  0  0
   62.9990   31.5720   47.5940 C   0  0  0  0  0  0  0  0  0  0  0  0
   63.5050   32.7430   47.1210 N   0  0  0  0  0  0  0  0  0  0  0  0
   62.6950   33.7670   46.7390 C   0  0  0  0  0  0  0  0  0  0  0  0
   61.3040   33.6460   46.8480 C   0  0  0  0  0  0  0  0  0  0  0  0
   60.4040   34.7590   46.4010 C   0  0  0  0  0  0  0  0  0  0  0  0
   60.7660   32.4410   47.3180 C   0  0  0  0  0  0  0  0  0  0  0  0
   59.5480   28.0720   47.8940 C   0  0  0  0  0  0  0  0  0  0  0  0
   58.5860   27.7000   46.7790 C   0  0  2  0  0  0  0  0  0  0  0  0
   58.3040   26.2240   46.5240 C   0  0  0  0  0  0  0  0  0  0  0  0
   55.3770   25.0450   45.9970 N   0  0  0  0  0  0  0  0  0  0  0  0
   54.4520   24.0530   45.9290 C   0  0  0  0  0  0  0  0  0  0  0  0
   54.6260   23.0180   45.0690 N   0  0  0  0  0  0  0  0  0  0  0  0
   57.6875   21.0946   44.0288 H   0  0  0  0  0  0  0  0  0  0  0  0
   57.0366   20.4008   42.5052 H   0  0  0  0  0  0  0  0  0  0  0  0
   57.7648   22.0428   42.5052 H   0  0  0  0  0  0  0  0  0  0  0  0
   57.5678   23.9314   43.6715 H   0  0  0  0  0  0  0  0  0  0  0  0
   58.6009   26.3836   43.5727 H   0  0  0  0  0  0  0  0  0  0  0  0
   56.8665   26.9302   43.4840 H   0  0  0  0  0  0  0  0  0  0  0  0
   58.6483   28.7937   43.5229 H   0  0  0  0  0  0  0  0  0  0  0  0
   57.3218   28.9260   44.7181 H   0  0  0  0  0  0  0  0  0  0  0  0
   60.0565   27.7603   45.0885 H   0  0  0  0  0  0  0  0  0  0  0  0
   60.6683   29.9318   45.5006 H   0  0  0  0  0  0  0  0  0  0  0  0
   59.0549   30.4665   45.9361 H   0  0  0  0  0  0  0  0  0  0  0  0
   63.6809   30.7674   47.9065 H   0  0  0  0  0  0  0  0  0  0  0  0
   64.5410   32.8580   47.0510 H   0  0  0  0  0  0  0  0  0  0  0  0
   63.1345   34.6942   46.3427 H   0  0  0  0  0  0  0  0  0  0  0  0
   59.9895   35.2715   47.2816 H   0  0  0  0  0  0  0  0  0  0  0  0
   60.9795   35.4757   45.7967 H   0  0  0  0  0  0  0  0  0  0  0  0
   59.5827   34.3462   45.7967 H   0  0  0  0  0  0  0  0  0  0  0  0
   59.6754   32.3226   47.3993 H   0  0  0  0  0  0  0  0  0  0  0  0
   60.3484   27.3236   47.9896 H   0  0  0  0  0  0  0  0  0  0  0  0
   59.0648   28.1179   48.8811 H   0  0  0  0  0  0  0  0  0  0  0  0
   57.5882   28.0673   47.0610 H   0  0  0  0  0  0  0  0  0  0  0  0
   59.2513   25.6892   46.3607 H   0  0  0  0  0  0  0  0  0  0  0  0
   57.7905   25.7855   47.3923 H   0  0  0  0  0  0  0  0  0  0  0  0
   53.5603   24.0886   46.5721 H   0  0  0  0  0  0  0  0  0  0  0  0
  1  2  1  0
  2  3  1  0
  3  4  2  0
  4  5  1  0
  5  6  1  0
  6  7  1  0
  7  8  1  0
  8  9  1  0
  9 10  1  0
 10 11  1  0
 11 12  1  0
 12 13  2  0
 12 14  1  0
 14 15  2  0
 15 16  1  0
 16 17  2  0
 17 18  1  0
 18 19  1  0
 18 20  2  0
 11 21  1  0
 21 22  1  0
 22 23  1  0
  5 24  2  0
 24 25  1  0
 25 26  2  0
 26  3  1  0
 23  6  1  0
 22  9  1  0
 20 14  1  0
  1 27  1  0
  1 28  1  0
  1 29  1  0
  4 30  1  0
  7 31  1  0
  7 32  1  0
  8 33  1  0
  8 34  1  0
  9 35  1  6
 10 36  1  0
 10 37  1  0
 15 38  1  0
 16 39  1  0
 17 40  1  0
 19 41  1  0
 19 42  1  0
 19 43  1  0
 20 44  1  0
 21 45  1  0
 21 46  1  0
 22 47  1  1
 23 48  1  0
 23 49  1  0
 25 50  1  0
M  CHG  1  16   1
M  END
>  <UniqueID>  (20) 
16

>  <SMILES>  (20) 
COc1cc(N2CC[C@H]3CN(C(=O)c4c[nH+]cc(C)c4)C[C@@H]3C2)ncn1

>  <Energy>  (20) 
65.6707334997018

>  <Genealogy>  (20) 
COc1cc(N2CCC3CN(C(=O)c4c[nH+]cc(C)c4)CC3C2)ncn1 (protonated)
COc1cc(N2CC[C@H]3CN(C(=O)c4c[nH+]cc(C)c4)C[C@@H]3C2)ncn1 (chirality)
COc1cc(N2CC[C@H]3CN(C(=O)c4c[nH+]cc(C)c4)C[C@@H]3C2)ncn1 (3D coordinates assigned)
COc1cc(N2CC[C@H]3CN(C(=O)c4c[nH+]cc(C)c4)C[C@@H]3C2)ncn1 (nonaromatic ring conformer: 65.6707334997018 kcal/mol)

>  <smiles>  (20) 
COc1cc(N2CCC3CN(C(=O)c4cncc(C)c4)CC3C2)ncn1

>  <score_type>  (20) 
oracle

>  <origin>  (20) 
adg

>  <m_score__min__energy>  (20) 
-7.1500000000000004

>  <m_primary>  (20) 
energy

$$$$
20:0
     RDKit          3D

 49 52  0  0  0  0  0  0  0  0999 V2000
   58.8870   29.1090   48.1300 C   0  0  0  0  0  0  0  0  0  0  0  0
   59.4090   30.5240   47.9060 C   0  0  0  0  0  0  0  0  0  0  0  0
   58.3750   31.3690   47.4030 O   0  0  0  0  0  0  0  0  0  0  0  0
   58.5640   32.5210   46.6190 C   0  0  0  0  0  0  0  0  0  0  0  0
   59.6090   33.4370   46.8580 C   0  0  0  0  0  0  0  0  0  0  0  0
   59.7530   34.5680   46.0510 C   0  0  0  0  0  0  0  0  0  0  0  0
   58.8630   34.8000   45.0010 C   0  0  0  0  0  0  0  0  0  0  0  0
   57.8310   33.8940   44.7490 C   0  0  0  0  0  0  0  0  0  0  0  0
   57.6840   32.7540   45.5470 C   0  0  0  0  0  0  0  0  0  0  0  0
   56.6490   31.8170   45.2480 N   0  0  0  0  0  0  0  0  0  0  0  0
   56.8570   30.6400   43.9970 S   0  0  0  0  0  0  0  0  0  0  0  0
   57.6920   31.2190   42.8890 O   0  0  0  0  0  0  0  0  0  0  0  0
   55.5100   30.2720   43.4400 O   0  0  0  0  0  0  0  0  0  0  0  0
   57.6410   29.2060   44.6550 C   0  0  0  0  0  0  0  0  0  0  0  0
   59.0250   29.0290   44.5210 C   0  0  0  0  0  0  0  0  0  0  0  0
   59.6290   27.8530   44.9680 C   0  0  0  0  0  0  0  0  0  0  0  0
   58.8550   26.8350   45.5370 C   0  0  0  0  0  0  0  0  0  0  0  0
   59.4460   25.6810   45.9370 N   0  0  0  0  0  0  0  0  0  0  0  0
   58.7360   24.6600   46.4800 C   0  0  0  0  0  0  0  0  0  0  0  0
   57.3460   24.7700   46.6560 C   0  0  0  0  0  0  0  0  0  0  0  0
   56.6000   23.6360   47.2520 C   0  0  0  0  0  0  0  0  0  0  0  0
   57.2370   22.6750   47.7630 O   0  0  0  0  0  0  0  0  0  0  0  0
   55.1650   23.6310   47.2830 N   0  0  0  0  0  0  0  0  0  0  0  0
   54.4180   22.4640   47.7380 C   0  0  0  0  0  0  0  0  0  0  0  0
   53.0910   22.2680   47.0260 C   0  0  0  0  0  0  0  0  0  0  0  0
   54.2810   21.3880   46.6740 C   0  0  0  0  0  0  0  0  0  0  0  0
   56.7020   25.9500   46.2290 C   0  0  0  0  0  0  0  0  0  0  0  0
   55.4460   26.0550   46.3150 O   0  0  0  0  0  0  0  0  0  0  0  0
   57.4590   27.0020   45.6770 C   0  0  0  0  0  0  0  0  0  0  0  0
   56.8620   28.1990   45.2410 C   0  0  0  0  0  0  0  0  0  0  0  0
   58.8142   28.9117   49.2097 H   0  0  0  0  0  0  0  0  0  0  0  0
   57.8925   29.0081   47.6709 H   0  0  0  0  0  0  0  0  0  0  0  0
   59.5777   28.3864   47.6709 H   0  0  0  0  0  0  0  0  0  0  0  0
   59.7743   30.9296   48.8610 H   0  0  0  0  0  0  0  0  0  0  0  0
   60.2255   30.4875   47.1698 H   0  0  0  0  0  0  0  0  0  0  0  0
   60.3140   33.2601   47.6837 H   0  0  0  0  0  0  0  0  0  0  0  0
   60.5706   35.2783   46.2436 H   0  0  0  0  0  0  0  0  0  0  0  0
   58.9746   35.6959   44.3726 H   0  0  0  0  0  0  0  0  0  0  0  0
   57.1311   34.0770   43.9203 H   0  0  0  0  0  0  0  0  0  0  0  0
   59.6370   29.8195   44.0621 H   0  0  0  0  0  0  0  0  0  0  0  0
   60.7174   27.7256   44.8728 H   0  0  0  0  0  0  0  0  0  0  0  0
   59.2529   23.7382   46.7851 H   0  0  0  0  0  0  0  0  0  0  0  0
   54.6430   24.5190   47.1080 H   0  0  0  0  0  0  0  0  0  0  0  0
   54.7388   22.4903   48.7898 H   0  0  0  0  0  0  0  0  0  0  0  0
   52.2335   21.8426   47.5680 H   0  0  0  0  0  0  0  0  0  0  0  0
   52.4093   22.9183   46.4581 H   0  0  0  0  0  0  0  0  0  0  0  0
   54.2843   20.3263   46.9616 H   0  0  0  0  0  0  0  0  0  0  0  0
   54.8167   21.1381   45.7464 H   0  0  0  0  0  0  0  0  0  0  0  0
   55.7784   28.3453   45.3606 H   0  0  0  0  0  0  0  0  0  0  0  0
  1  2  1  0
  2  3  1  0
  3  4  1  0
  4  5  2  0
  5  6  1  0
  6  7  2  0
  7  8  1  0
  8  9  2  0
  9 10  1  0
 10 11  1  0
 11 12  2  0
 11 13  2  0
 11 14  1  0
 14 15  2  0
 15 16  1  0
 16 17  2  0
 17 18  1  0
 18 19  1  0
 19 20  2  0
 20 21  1  0
 21 22  2  0
 21 23  1  0
 23 24  1  0
 24 25  1  0
 25 26  1  0
 20 27  1  0
 27 28  2  0
 27 29  1  0
 29 30  2  0
  9  4  1  0
 30 14  1  0
 29 17  1  0
 26 24  1  0
  1 31  1  0
  1 32  1  0
  1 33  1  0
  2 34  1  0
  2 35  1  0
  5 36  1  0
  6 37  1  0
  7 38  1  0
  8 39  1  0
 15 40  1  0
 16 41  1  0
 19 42  1  0
 23 43  1  0
 24 44  1  0
 25 45  1  0
 25 46  1  0
 26 47  1  0
 26 48  1  0
 30 49  1  0
M  CHG  2  10  -1  18  -1
M  END
>  <UniqueID>  (21) 
17

>  <SMILES>  (21) 
CCOc1ccccc1[N-]S(=O)(=O)c1ccc2[n-]cc(C(=O)NC3CC3)c(=O)c2c1

>  <Energy>  (21) 
329.20151427900294

>  <Genealogy>  (21) 
CCOc1ccccc1[N-]S(=O)(=O)c1ccc2[n-]cc(C(=O)NC3CC3)c(=O)c2c1 (protonated)
CCOc1ccccc1[N-]S(=O)(=O)c1ccc2[n-]cc(C(=O)NC3CC3)c(=O)c2c1 (3D coordinates assigned)
CCOc1ccccc1[N-]S(=O)(=O)c1ccc2[n-]cc(C(=O)NC3CC3)c(=O)c2c1 (nonaromatic ring conformer: 329.20151427900294 kcal/mol)

>  <smiles>  (21) 
CCOc1ccccc1NS(=O)(=O)c1ccc2[nH]cc(C(=O)NC3CC3)c(=O)c2c1

>  <score_type>  (21) 
oracle

>  <origin>  (21) 
adg

>  <m_score__min__energy>  (21) 
-11.720000000000001

>  <m_primary>  (21) 
energy

$$$$
21:0
     RDKit          3D

 36 38  0  0  1  0  0  0  0  0999 V2000
   60.8160   26.2710   46.4240 C   0  0  0  0  0  0  0  0  0  0  0  0
   59.4040   26.3930   46.5060 O   0  0  0  0  0  0  0  0  0  0  0  0
   58.8020   27.5530   46.0440 C   0  0  0  0  0  0  0  0  0  0  0  0
   58.2040   27.4960   44.8090 C   0  0  0  0  0  0  0  0  0  0  0  0
   57.6090   28.6500   44.3550 C   0  0  0  0  0  0  0  0  0  0  0  0
   57.0250   28.5990   43.1490 N   0  0  0  0  0  0  0  0  0  0  0  0
   56.4390   29.7070   42.6840 C   0  0  0  0  0  0  0  0  0  0  0  0
   56.4350   30.8290   43.3970 N   0  0  0  0  0  0  0  0  0  0  0  0
   57.0220   30.8910   44.6160 C   0  0  0  0  0  0  0  0  0  0  0  0
   56.9800   31.9650   45.2180 N   0  0  0  0  0  0  0  0  0  0  0  0
   57.9100   32.9000   45.4910 C   0  0  0  0  0  0  0  0  0  0  0  0
   58.2770   33.8640   44.5210 C   0  0  0  0  0  0  0  0  0  0  0  0
   59.1430   34.8800   44.8740 C   0  0  0  0  0  0  0  0  0  0  0  0
   59.6570   34.9660   46.1630 C   0  0  0  0  0  0  0  0  0  0  0  0
   59.3080   34.0350   47.1140 C   0  0  0  0  0  0  0  0  0  0  0  0
   60.0000   34.1260   48.9050 Br  0  0  0  0  0  0  0  0  0  0  0  0
   58.4460   33.0090   46.7970 C   0  0  0  0  0  0  0  0  0  0  0  0
   57.6360   29.7940   45.1440 C   0  0  0  0  0  0  0  0  0  0  0  0
   58.2410   29.8060   46.3670 C   0  0  0  0  0  0  0  0  0  0  0  0
   58.8570   28.6400   46.8550 C   0  0  0  0  0  0  0  0  0  0  0  0
   59.4840   28.5920   48.0830 O   0  0  0  0  0  0  0  0  0  0  0  0
   59.8220   29.6960   48.8590 C   0  0  0  0  0  0  0  0  0  0  0  0
   61.2404   26.2343   47.4382 H   0  0  0  0  0  0  0  0  0  0  0  0
   61.0735   25.3473   45.8851 H   0  0  0  0  0  0  0  0  0  0  0  0
   61.2282   27.1369   45.8851 H   0  0  0  0  0  0  0  0  0  0  0  0
   58.2010   26.5722   44.2118 H   0  0  0  0  0  0  0  0  0  0  0  0
   57.0080   27.7350   42.5600 H   0  0  0  0  0  0  0  0  0  0  0  0
   55.9532   29.6900   41.6972 H   0  0  0  0  0  0  0  0  0  0  0  0
   57.8769   33.8042   43.4981 H   0  0  0  0  0  0  0  0  0  0  0  0
   59.4303   35.6322   44.1246 H   0  0  0  0  0  0  0  0  0  0  0  0
   60.3463   35.7826   46.4238 H   0  0  0  0  0  0  0  0  0  0  0  0
   58.1720   32.2691   47.5635 H   0  0  0  0  0  0  0  0  0  0  0  0
   58.2468   30.7260   46.9700 H   0  0  0  0  0  0  0  0  0  0  0  0
   59.7417   29.4338   49.9243 H   0  0  0  0  0  0  0  0  0  0  0  0
   60.8546   30.0006   48.6332 H   0  0  0  0  0  0  0  0  0  0  0  0
   59.1370   30.5265   48.6332 H   0  0  0  0  0  0  0  0  0  0  0  0
  1  2  1  0
  2  3  1  0
  3  4  2  0
  4  5  1  0
  5  6  1  0
  6  7  1  0
  7  8  2  0
  8  9  1  0
  9 10  2  0
 10 11  1  0
 11 12  2  0
 12 13  1  0
 13 14  2  0
 14 15  1  0
 15 16  1  0
 15 17  2  0
  9 18  1  0
 18 19  1  0
 19 20  2  0
 20 21  1  0
 21 22  1  0
 20  3  1  0
 18  5  2  0
 17 11  1  0
  1 23  1  0
  1 24  1  0
  1 25  1  0
  4 26  1  0
  6 27  1  0
  7 28  1  0
 12 29  1  0
 13 30  1  0
 14 31  1  0
 17 32  1  0
 19 33  1  0
 22 34  1  0
 22 35  1  0
 22 36  1  0
M  END
>  <smiles>  (22) 
COc1cc2[nH]cnc(=Nc3cccc(Br)c3)c2cc1OC

>  <score_type>  (22) 
oracle

>  <origin>  (22) 
adg

>  <m_score__min__energy>  (22) 
-7.4299999999999997

>  <m_primary>  (22) 
energy

$$$$
22:0
     RDKit          3D

 30 33  0  0  0  0  0  0  0  0999 V2000
   56.2220   30.0720   42.8030 C   0  0  0  0  0  0  0  0  0  0  0  0
   57.0170   31.1360   42.3780 C   0  0  0  0  0  0  0  0  0  0  0  0
   57.7980   31.8350   43.3020 C   0  0  0  0  0  0  0  0  0  0  0  0
   57.7730   31.4570   44.6560 C   0  0  0  0  0  0  0  0  0  0  0  0
   58.5780   32.1610   45.6820 C   0  0  0  0  0  0  0  0  0  0  0  0
   58.1160   33.2350   46.4420 C   0  0  0  0  0  0  0  0  0  0  0  0
   59.1720   33.5760   47.2550 C   0  0  0  0  0  0  0  0  0  0  0  0
   59.2890   34.5710   48.2190 C   0  0  0  0  0  0  0  0  0  0  0  0
   60.4730   34.6870   48.8880 N   0  0  0  0  0  0  0  0  0  0  0  0
   61.5340   33.8580   48.6380 C   0  0  0  0  0  0  0  0  0  0  0  0
   62.7290   34.0150   49.3500 C   0  0  0  0  0  0  0  0  0  0  0  0
   63.8130   33.1690   49.0960 C   0  0  0  0  0  0  0  0  0  0  0  0
   63.7120   32.1620   48.1310 C   0  0  0  0  0  0  0  0  0  0  0  0
   62.5260   31.9910   47.4090 C   0  0  0  0  0  0  0  0  0  0  0  0
   61.4310   32.8340   47.6560 C   0  0  0  0  0  0  0  0  0  0  0  0
   60.2090   32.7280   46.9760 C   0  0  0  0  0  0  0  0  0  0  0  0
   59.8590   31.8540   46.0130 N   0  0  0  0  0  0  0  0  0  0  0  0
   56.9850   30.4110   45.0380 N   0  0  0  0  0  0  0  0  0  0  0  0
   56.2190   29.7190   44.1530 C   0  0  0  0  0  0  0  0  0  0  0  0
   55.6040   29.5170   42.0818 H   0  0  0  0  0  0  0  0  0  0  0  0
   57.0292   31.4246   41.3166 H   0  0  0  0  0  0  0  0  0  0  0  0
   58.4276   32.6747   42.9726 H   0  0  0  0  0  0  0  0  0  0  0  0
   57.1232   33.7069   46.4005 H   0  0  0  0  0  0  0  0  0  0  0  0
   58.4492   35.2472   48.4369 H   0  0  0  0  0  0  0  0  0  0  0  0
   62.8154   34.8051   50.1105 H   0  0  0  0  0  0  0  0  0  0  0  0
   64.7499   33.2963   49.6581 H   0  0  0  0  0  0  0  0  0  0  0  0
   64.5697   31.5007   47.9386 H   0  0  0  0  0  0  0  0  0  0  0  0
   62.4517   31.1983   46.6500 H   0  0  0  0  0  0  0  0  0  0  0  0
   60.4560   31.1010   45.6100 H   0  0  0  0  0  0  0  0  0  0  0  0
   55.5971   28.8811   44.5012 H   0  0  0  0  0  0  0  0  0  0  0  0
  1  2  2  0
  2  3  1  0
  3  4  2  0
  4  5  1  0
  5  6  2  0
  6  7  1  0
  7  8  2  0
  8  9  1  0
  9 10  2  0
 10 11  1  0
 11 12  2  0
 12 13  1  0
 13 14  2  0
 14 15  1  0
 15 16  2  0
 16 17  1  0
  4 18  1  0
 18 19  2  0
 19  1  1  0
 17  5  1  0
 16  7  1  0
 15 10  1  0
  1 20  1  0
  2 21  1  0
  3 22  1  0
  6 23  1  0
  8 24  1  0
 11 25  1  0
 12 26  1  0
 13 27  1  0
 14 28  1  0
 17 29  1  0
 19 30  1  0
M  END
>  <UniqueID>  (23) 
18

>  <SMILES>  (23) 
c1ccc(-c2cc3cnc4ccccc4c3[nH]2)nc1

>  <Energy>  (23) 
73.86310477547389

>  <Genealogy>  (23) 
c1ccc(-c2cc3cnc4ccccc4c3[nH]2)nc1 (3D coordinates assigned)
c1ccc(-c2cc3cnc4ccccc4c3[nH]2)nc1 (optimized conformer: 73.86310477547389 kcal/mol)

>  <smiles>  (23) 
c1ccc(-c2cc3cnc4ccccc4c3[nH]2)nc1

>  <score_type>  (23) 
oracle

>  <origin>  (23) 
adg

>  <m_score__min__energy>  (23) 
-7.3700000000000001

>  <m_primary>  (23) 
energy

$$$$
23:0
     RDKit          3D

 38 40  0  0  0  0  0  0  0  0999 V2000
   57.3600   20.7120   42.6210 C   0  0  0  0  0  0  0  0  0  0  0  0
   57.0130   21.8930   43.4770 C   0  0  0  0  0  0  0  0  0  0  0  0
   56.0820   22.8420   43.0280 C   0  0  0  0  0  0  0  0  0  0  0  0
   55.7860   23.9630   43.8090 C   0  0  0  0  0  0  0  0  0  0  0  0
   56.4230   24.1510   45.0430 C   0  0  0  0  0  0  0  0  0  0  0  0
   56.0700   25.5780   46.0090 S   0  0  0  0  0  0  0  0  0  0  0  0
   54.6220   25.9540   45.8640 O   0  0  0  0  0  0  0  0  0  0  0  0
   56.3400   25.2930   47.4610 O   0  0  0  0  0  0  0  0  0  0  0  0
   57.0670   26.8870   45.4750 N   0  0  0  0  0  0  0  0  0  0  0  0
   57.9220   26.8600   44.4370 C   0  0  0  0  0  0  0  0  0  0  0  0
   58.5090   28.1000   44.2900 C   0  0  0  0  0  0  0  0  0  0  0  0
   57.9760   28.9100   45.2830 C   0  0  0  0  0  0  0  0  0  0  0  0
   58.3060   30.3340   45.5040 C   0  0  0  0  0  0  0  0  0  0  0  0
   59.5180   30.7290   46.0920 C   0  0  0  0  0  0  0  0  0  0  0  0
   59.7820   32.0870   46.2800 C   0  0  0  0  0  0  0  0  0  0  0  0
   58.8360   33.0510   45.9020 C   0  0  0  0  0  0  0  0  0  0  0  0
   59.1310   34.5210   46.0530 C   0  0  0  0  0  0  0  0  0  0  0  0
   58.5110   34.9940   47.1940 F   0  0  0  0  0  0  0  0  0  0  0  0
   60.4950   34.7370   46.1560 F   0  0  0  0  0  0  0  0  0  0  0  0
   58.6620   35.2280   44.9580 F   0  0  0  0  0  0  0  0  0  0  0  0
   57.6480   32.6150   45.2940 C   0  0  0  0  0  0  0  0  0  0  0  0
   57.4140   31.2880   45.1190 N   0  0  0  0  0  0  0  0  0  0  0  0
   57.0830   28.1250   45.9970 C   0  0  0  0  0  0  0  0  0  0  0  0
   57.3740   23.2190   45.4800 C   0  0  0  0  0  0  0  0  0  0  0  0
   57.6700   22.0970   44.7000 C   0  0  0  0  0  0  0  0  0  0  0  0
   57.6118   19.8551   43.2631 H   0  0  0  0  0  0  0  0  0  0  0  0
   56.4997   20.4540   41.9859 H   0  0  0  0  0  0  0  0  0  0  0  0
   58.2231   20.9604   41.9859 H   0  0  0  0  0  0  0  0  0  0  0  0
   55.5831   22.7033   42.0575 H   0  0  0  0  0  0  0  0  0  0  0  0
   55.0507   24.6999   43.4538 H   0  0  0  0  0  0  0  0  0  0  0  0
   58.1225   25.9839   43.8027 H   0  0  0  0  0  0  0  0  0  0  0  0
   59.2535   28.3898   43.5339 H   0  0  0  0  0  0  0  0  0  0  0  0
   60.2548   29.9736   46.4026 H   0  0  0  0  0  0  0  0  0  0  0  0
   60.7365   32.4024   46.7267 H   0  0  0  0  0  0  0  0  0  0  0  0
   56.9031   33.3512   44.9577 H   0  0  0  0  0  0  0  0  0  0  0  0
   56.4828   28.4625   46.8549 H   0  0  0  0  0  0  0  0  0  0  0  0
   57.8893   23.3707   46.4399 H   0  0  0  0  0  0  0  0  0  0  0  0
   58.4207   21.3715   45.0464 H   0  0  0  0  0  0  0  0  0  0  0  0
  1  2  1  0
  2  3  2  0
  3  4  1  0
  4  5  2  0
  5  6  1  0
  6  7  2  0
  6  8  2  0
  6  9  1  0
  9 10  1  0
 10 11  2  0
 11 12  1  0
 12 13  1  0
 13 14  2  0
 14 15  1  0
 15 16  2  0
 16 17  1  0
 17 18  1  0
 17 19  1  0
 17 20  1  0
 16 21  1  0
 21 22  2  0
 12 23  2  0
  5 24  1  0
 24 25  2  0
 25  2  1  0
 23  9  1  0
 22 13  1  0
  1 26  1  0
  1 27  1  0
  1 28  1  0
  3 29  1  0
  4 30  1  0
 10 31  1  0
 11 32  1  0
 14 33  1  0
 15 34  1  0
 21 35  1  0
 23 36  1  0
 24 37  1  0
 25 38  1  0
M  END
>  <UniqueID>  (24) 
19

>  <SMILES>  (24) 
Cc1ccc(S(=O)(=O)n2ccc(-c3ccc(C(F)(F)F)cn3)c2)cc1

>  <Energy>  (24) 
69.33889749058713

>  <Genealogy>  (24) 
Cc1ccc(S(=O)(=O)n2ccc(-c3ccc(C(F)(F)F)cn3)c2)cc1 (3D coordinates assigned)
Cc1ccc(S(=O)(=O)n2ccc(-c3ccc(C(F)(F)F)cn3)c2)cc1 (optimized conformer: 69.33889749058713 kcal/mol)

>  <smiles>  (24) 
Cc1ccc(S(=O)(=O)n2ccc(-c3ccc(C(F)(F)F)cn3)c2)cc1

>  <score_type>  (24) 
oracle

>  <origin>  (24) 
adg

>  <m_score__min__energy>  (24) 
-7.6799999999999997

>  <m_primary>  (24) 
energy

$$$$
24:0
     RDKit          3D

 57 62  0  0  0  0  0  0  0  0999 V2000
   60.4781   36.3347   46.4225 H   0  0  0  0  0  0  0  0  0  0  0  0
   59.9710   35.3800   46.2190 C   0  0  0  0  0  0  0  0  0  0  0  0
   58.9410   35.3370   45.3170 N   0  0  0  0  0  0  0  0  0  0  0  0
   58.2700   34.1820   45.0310 C   0  0  0  0  0  0  0  0  0  0  0  0
   57.4478   34.1746   44.3002 H   0  0  0  0  0  0  0  0  0  0  0  0
   58.6530   33.0100   45.6890 C   0  0  0  0  0  0  0  0  0  0  0  0
   59.6980   33.0430   46.5890 C   0  0  0  0  0  0  0  0  0  0  0  0
   60.3850   34.2160   46.8860 C   0  0  0  0  0  0  0  0  0  0  0  0
   61.2135   34.2307   47.6094 H   0  0  0  0  0  0  0  0  0  0  0  0
   59.8700   31.7520   47.0160 C   0  0  0  0  0  0  0  0  0  0  0  0
   60.7650   31.1570   47.8930 C   0  0  0  0  0  0  0  0  0  0  0  0
   61.5261   31.7516   48.4195 H   0  0  0  0  0  0  0  0  0  0  0  0
   60.6690   29.8100   48.0800 N   0  0  0  0  0  0  0  0  0  0  0  0
   59.7320   29.0550   47.4140 C   0  0  0  0  0  0  0  0  0  0  0  0
   59.6230   27.7770   47.6270 N   0  0  0  0  0  0  0  0  0  0  0  0
   58.8700   26.8410   46.8400 C   0  0  0  0  0  0  0  0  0  0  0  0
   58.4260   25.6600   47.4390 C   0  0  0  0  0  0  0  0  0  0  0  0
   58.6811   25.4419   48.4865 H   0  0  0  0  0  0  0  0  0  0  0  0
   57.6580   24.7590   46.7030 C   0  0  0  0  0  0  0  0  0  0  0  0
   57.3319   23.8138   47.1616 H   0  0  0  0  0  0  0  0  0  0  0  0
   57.3000   25.0540   45.3800 C   0  0  0  0  0  0  0  0  0  0  0  0
   56.4970   24.1360   44.6110 N   0  0  0  0  0  0  0  0  0  0  0  0
   56.7010   24.0090   43.1630 C   0  0  0  0  0  0  0  0  0  0  0  0
   56.2444   24.8725   42.6572 H   0  0  0  0  0  0  0  0  0  0  0  0
   57.7816   23.9746   42.9604 H   0  0  0  0  0  0  0  0  0  0  0  0
   56.0590   22.7180   42.6340 C   0  0  0  0  0  0  0  0  0  0  0  0
   54.9815   22.8832   42.4867 H   0  0  0  0  0  0  0  0  0  0  0  0
   56.5345   22.4486   41.6793 H   0  0  0  0  0  0  0  0  0  0  0  0
   56.2540   21.6190   43.5900 N   0  0  0  0  0  0  0  0  0  0  0  0
   57.2810   21.5200   43.7780 H   0  0  0  0  0  0  0  0  0  0  0  0
   55.5540   21.8540   44.8680 C   0  0  0  0  0  0  0  0  0  0  0  0
   54.5413   21.4314   44.7918 H   0  0  0  0  0  0  0  0  0  0  0  0
   56.1525   21.3720   45.6551 H   0  0  0  0  0  0  0  0  0  0  0  0
   55.4320   23.3460   45.2450 C   0  0  0  0  0  0  0  0  0  0  0  0
   54.4550   23.7236   44.9091 H   0  0  0  0  0  0  0  0  0  0  0  0
   55.5262   23.4414   46.3368 H   0  0  0  0  0  0  0  0  0  0  0  0
   57.7570   26.2580   44.8190 C   0  0  0  0  0  0  0  0  0  0  0  0
   57.5004   26.5058   43.7784 H   0  0  0  0  0  0  0  0  0  0  0  0
   58.5140   27.1210   45.5500 N   0  0  0  0  0  0  0  0  0  0  0  0
   58.7890   28.0290   45.1120 H   0  0  0  0  0  0  0  0  0  0  0  0
   58.8600   29.6570   46.5520 N   0  0  0  0  0  0  0  0  0  0  0  0
   58.9310   30.9970   46.3610 C   0  0  0  0  0  0  0  0  0  0  0  0
   58.1460   31.7540   45.5440 N   0  0  0  0  0  0  0  0  0  0  0  0
   57.0920   31.3670   44.5830 C   0  0  0  0  0  0  0  0  0  0  0  0
   56.2688   32.0327   44.8817 H   0  0  0  0  0  0  0  0  0  0  0  0
   56.6160   29.9160   44.6510 C   0  0  0  0  0  0  0  0  0  0  0  0
   57.4659   29.2297   44.7804 H   0  0  0  0  0  0  0  0  0  0  0  0
   55.9448   29.7263   45.5016 H   0  0  0  0  0  0  0  0  0  0  0  0
   55.9400   29.6960   43.3040 C   0  0  0  0  0  0  0  0  0  0  0  0
   56.0504   28.6481   42.9881 H   0  0  0  0  0  0  0  0  0  0  0  0
   54.8624   29.9106   43.3555 H   0  0  0  0  0  0  0  0  0  0  0  0
   56.6510   30.6290   42.3130 C   0  0  0  0  0  0  0  0  0  0  0  0
   57.2632   30.0418   41.6126 H   0  0  0  0  0  0  0  0  0  0  0  0
   55.9237   31.2044   41.7214 H   0  0  0  0  0  0  0  0  0  0  0  0
   57.5410   31.5560   43.1400 C   0  0  0  0  0  0  0  0  0  0  0  0
   58.5987   31.2762   43.0263 H   0  0  0  0  0  0  0  0  0  0  0  0
   57.4512   32.6039   42.8177 H   0  0  0  0  0  0  0  0  0  0  0  0
  1  2  1  0
  2  3  2  0
  3  4  1  0
  4  5  1  0
  4  6  2  0
  6  7  1  0
  7  8  2  0
  8  9  1  0
  7 10  1  0
 10 11  2  0
 11 12  1  0
 11 13  1  0
 13 14  1  0
 14 15  2  0
 15 16  1  0
 16 17  2  0
 17 18  1  0
 17 19  1  0
 19 20  1  0
 19 21  2  0
 21 22  1  0
 22 23  1  0
 23 24  1  0
 23 25  1  0
 23 26  1  0
 26 27  1  0
 26 28  1  0
 26 29  1  0
 29 30  1  0
 29 31  1  0
 31 32  1  0
 31 33  1  0
 31 34  1  0
 34 35  1  0
 34 36  1  0
 21 37  1  0
 37 38  1  0
 37 39  2  0
 39 40  1  0
 14 41  1  0
 41 42  2  0
 42 43  1  0
 43 44  1  0
 44 45  1  0
 44 46  1  0
 46 47  1  0
 46 48  1  0
 46 49  1  0
 49 50  1  0
 49 51  1  0
 49 52  1  0
 52 53  1  0
 52 54  1  0
 52 55  1  0
 55 56  1  0
 55 57  1  0
  8  2  1  0
 42 10  1  0
 55 44  1  0
 43  6  1  0
 39 16  1  0
 34 22  1  0
M  CHG  2  13  -1  39   1
M  END
>  <UniqueID>  (25) 
20

>  <SMILES>  (25) 
c1cc2c3c[n-]/c(=N\c4ccc(N5CCNCC5)c[nH+]4)nc3n(C3CCCC3)c2cn1

>  <Energy>  (25) 
129.06252316131264

>  <Genealogy>  (25) 
c1cc2c3c[n-]c(=Nc4ccc(N5CCNCC5)c[nH+]4)nc3n(C3CCCC3)c2cn1 (protonated)
c1cc2c3c[n-]/c(=N\c4ccc(N5CCNCC5)c[nH+]4)nc3n(C3CCCC3)c2cn1 (cis-trans isomerization)
c1cc2c3c[n-]/c(=N\c4ccc(N5CCNCC5)c[nH+]4)nc3n(C3CCCC3)c2cn1 (3D coordinates assigned)
c1cc2c3c[n-]/c(=N\c4ccc(N5CCNCC5)c[nH+]4)nc3n(C3CCCC3)c2cn1 (nonaromatic ring conformer: 129.06252316131264 kcal/mol)

>  <smiles>  (25) 
c1cc2c3c[nH]c(=Nc4ccc(N5CCNCC5)cn4)nc3n(C3CCCC3)c2cn1

>  <score_type>  (25) 
oracle

>  <origin>  (25) 
adg

>  <m_score__min__energy>  (25) 
-8.3800000000000008

>  <m_primary>  (25) 
energy

$$$$
25:0
     RDKit          3D

 36 38  0  0  0  0  0  0  0  0999 V2000
   56.4570   29.6810   42.6950 C   0  0  0  0  0  0  0  0  0  0  0  0
   56.9860   30.3980   43.8530 N   0  0  0  0  0  0  0  0  0  0  0  0
   57.2240   31.7000   43.8610 N   0  0  0  0  0  0  0  0  0  0  0  0
   57.7060   32.0520   45.0720 C   0  0  0  0  0  0  0  0  0  0  0  0
   58.0940   33.4750   45.4500 C   0  0  0  0  0  0  0  0  0  0  0  0
   59.4800   33.8550   44.8840 C   0  0  0  0  0  0  0  0  0  0  0  0
   58.1370   33.5940   46.9850 C   0  0  0  0  0  0  0  0  0  0  0  0
   57.0440   34.4510   44.8870 C   0  0  0  0  0  0  0  0  0  0  0  0
   57.7760   30.9140   45.8660 C   0  0  0  0  0  0  0  0  0  0  0  0
   57.3130   29.8880   45.0620 C   0  0  0  0  0  0  0  0  0  0  0  0
   57.2010   28.4750   45.4770 C   0  0  0  0  0  0  0  0  0  0  0  0
   58.2780   27.6870   45.7520 N   0  0  0  0  0  0  0  0  0  0  0  0
   57.7080   26.5190   46.0780 C   0  0  0  0  0  0  0  0  0  0  0  0
   58.3220   25.3310   46.4560 C   0  0  0  0  0  0  0  0  0  0  0  0
   57.4840   24.2400   46.7490 C   0  0  0  0  0  0  0  0  0  0  0  0
   56.0790   24.3880   46.6520 C   0  0  0  0  0  0  0  0  0  0  0  0
   55.5320   25.5840   46.2750 N   0  0  0  0  0  0  0  0  0  0  0  0
   56.3600   26.6220   45.9980 C   0  0  0  0  0  0  0  0  0  0  0  0
   55.9980   27.8530   45.6180 N   0  0  0  0  0  0  0  0  0  0  0  0
   55.8363   28.8397   43.0368 H   0  0  0  0  0  0  0  0  0  0  0  0
   55.8455   30.3650   42.0882 H   0  0  0  0  0  0  0  0  0  0  0  0
   57.2910   29.2985   42.0882 H   0  0  0  0  0  0  0  0  0  0  0  0
   57.0590   32.3390   43.0500 H   0  0  0  0  0  0  0  0  0  0  0  0
   60.1755   34.0457   45.7146 H   0  0  0  0  0  0  0  0  0  0  0  0
   59.8632   33.0288   44.2672 H   0  0  0  0  0  0  0  0  0  0  0  0
   59.3883   34.7611   44.2672 H   0  0  0  0  0  0  0  0  0  0  0  0
   57.7960   32.6503   47.4356 H   0  0  0  0  0  0  0  0  0  0  0  0
   59.1676   33.8032   47.3078 H   0  0  0  0  0  0  0  0  0  0  0  0
   57.4782   34.4136   47.3078 H   0  0  0  0  0  0  0  0  0  0  0  0
   56.5163   34.9415   45.7183 H   0  0  0  0  0  0  0  0  0  0  0  0
   57.5443   35.2122   44.2703 H   0  0  0  0  0  0  0  0  0  0  0  0
   56.3214   33.8965   44.2703 H   0  0  0  0  0  0  0  0  0  0  0  0
   58.1238   30.8441   46.9072 H   0  0  0  0  0  0  0  0  0  0  0  0
   59.4168   25.2474   46.5232 H   0  0  0  0  0  0  0  0  0  0  0  0
   57.9182   23.2759   47.0522 H   0  0  0  0  0  0  0  0  0  0  0  0
   55.4229   23.5354   46.8814 H   0  0  0  0  0  0  0  0  0  0  0  0
  1  2  1  0
  2  3  1  0
  3  4  2  0
  4  5  1  0
  5  6  1  0
  5  7  1  0
  5  8  1  0
  4  9  1  0
  9 10  2  0
 10 11  1  0
 11 12  2  0
 12 13  1  0
 13 14  2  0
 14 15  1  0
 15 16  2  0
 16 17  1  0
 17 18  2  0
 18 19  1  0
 10  2  1  0
 19 11  1  0
 18 13  1  0
  1 20  1  0
  1 21  1  0
  1 22  1  0
  3 23  1  0
  6 24  1  0
  6 25  1  0
  6 26  1  0
  7 27  1  0
  7 28  1  0
  7 29  1  0
  8 30  1  0
  8 31  1  0
  8 32  1  0
  9 33  1  0
 14 34  1  0
 15 35  1  0
 16 36  1  0
M  CHG  2   3   1  19  -1
M  END
>  <UniqueID>  (26) 
21

>  <SMILES>  (26) 
Cn1[nH+]c(C(C)(C)C)cc1-c1nc2cccnc2[n-]1

>  <Energy>  (26) 
101.59314935223854

>  <Genealogy>  (26) 
Cn1[nH+]c(C(C)(C)C)cc1-c1nc2cccnc2[n-]1 (protonated)
Cn1[nH+]c(C(C)(C)C)cc1-c1nc2cccnc2[n-]1 (3D coordinates assigned)
Cn1[nH+]c(C(C)(C)C)cc1-c1nc2cccnc2[n-]1 (optimized conformer: 101.59314935223854 kcal/mol)

>  <smiles>  (26) 
Cn1nc(C(C)(C)C)cc1-c1nc2cccnc2[nH]1

>  <score_type>  (26) 
oracle

>  <origin>  (26) 
adg

>  <m_score__min__energy>  (26) 
-7.3600000000000003

>  <m_primary>  (26) 
energy

$$$$
26:0
     RDKit          3D

 44 46  0  0  0  0  0  0  0  0999 V2000
   56.2543   31.2609   43.7472 H   0  0  0  0  0  0  0  0  0  0  0  0
   57.0790   31.0910   44.4550 C   0  0  0  0  0  0  0  0  0  0  0  0
   57.7230   32.1680   44.9320 C   0  0  0  0  0  0  0  0  0  0  0  0
   58.3610   32.3180   46.2310 C   0  0  0  0  0  0  0  0  0  0  0  0
   58.5800   31.3830   47.0460 O   0  0  0  0  0  0  0  0  0  0  0  0
   58.8800   33.6730   46.3470 C   0  0  0  0  0  0  0  0  0  0  0  0
   59.4920   34.2280   47.4050 C   0  0  0  0  0  0  0  0  0  0  0  0
   58.9083   34.9246   48.0247 H   0  0  0  0  0  0  0  0  0  0  0  0
   60.8920   33.9710   47.7970 C   0  0  0  0  0  0  0  0  0  0  0  0
   61.8210   33.4520   46.8790 C   0  0  0  0  0  0  0  0  0  0  0  0
   61.5161   33.2637   45.8390 H   0  0  0  0  0  0  0  0  0  0  0  0
   63.1300   33.1740   47.2810 C   0  0  0  0  0  0  0  0  0  0  0  0
   63.8543   32.7848   46.5503 H   0  0  0  0  0  0  0  0  0  0  0  0
   63.5270   33.3870   48.6070 C   0  0  0  0  0  0  0  0  0  0  0  0
   64.8530   33.0940   48.9600 O   0  0  0  0  0  0  0  0  0  0  0  0
   65.2340   32.4020   50.1450 C   0  0  0  0  0  0  0  0  0  0  0  0
   64.9159   32.9798   51.0253 H   0  0  0  0  0  0  0  0  0  0  0  0
   64.7534   31.4127   50.1625 H   0  0  0  0  0  0  0  0  0  0  0  0
   66.3270   32.2791   50.1625 H   0  0  0  0  0  0  0  0  0  0  0  0
   62.5870   33.8760   49.5340 C   0  0  0  0  0  0  0  0  0  0  0  0
   62.8845   34.0393   50.5803 H   0  0  0  0  0  0  0  0  0  0  0  0
   61.2780   34.1550   49.1320 C   0  0  0  0  0  0  0  0  0  0  0  0
   60.5464   34.5211   49.8673 H   0  0  0  0  0  0  0  0  0  0  0  0
   58.6920   34.3910   45.0460 C   0  0  0  0  0  0  0  0  0  0  0  0
   58.1008   35.3063   45.1967 H   0  0  0  0  0  0  0  0  0  0  0  0
   59.6556   34.6930   44.6098 H   0  0  0  0  0  0  0  0  0  0  0  0
   57.9370   33.4110   44.1240 C   0  0  0  0  0  0  0  0  0  0  0  0
   56.9711   33.8399   43.8190 H   0  0  0  0  0  0  0  0  0  0  0  0
   58.5050   33.2023   43.2054 H   0  0  0  0  0  0  0  0  0  0  0  0
   57.3990   29.6940   44.8130 C   0  0  0  0  0  0  0  0  0  0  0  0
   58.7260   29.2370   44.8430 C   0  0  0  0  0  0  0  0  0  0  0  0
   59.5458   29.9156   44.5646 H   0  0  0  0  0  0  0  0  0  0  0  0
   59.0090   27.9240   45.2250 C   0  0  0  0  0  0  0  0  0  0  0  0
   60.0490   27.5657   45.2276 H   0  0  0  0  0  0  0  0  0  0  0  0
   57.9750   27.0640   45.6040 C   0  0  0  0  0  0  0  0  0  0  0  0
   58.2026   26.0289   45.8985 H   0  0  0  0  0  0  0  0  0  0  0  0
   56.6420   27.5190   45.6100 C   0  0  0  0  0  0  0  0  0  0  0  0
   55.5700   26.7000   45.9940 O   0  0  0  0  0  0  0  0  0  0  0  0
   55.5990   25.2760   45.9720 C   0  0  0  0  0  0  0  0  0  0  0  0
   55.6068   24.8934   47.0033 H   0  0  0  0  0  0  0  0  0  0  0  0
   54.7083   24.8992   45.4479 H   0  0  0  0  0  0  0  0  0  0  0  0
   56.5043   24.9357   45.4479 H   0  0  0  0  0  0  0  0  0  0  0  0
   56.3670   28.8370   45.2240 C   0  0  0  0  0  0  0  0  0  0  0  0
   55.3303   29.2043   45.2433 H   0  0  0  0  0  0  0  0  0  0  0  0
  1  2  1  0
  2  3  2  3
  3  4  1  0
  4  5  2  0
  4  6  1  0
  6  7  2  0
  7  8  1  0
  7  9  1  0
  9 10  2  0
 10 11  1  0
 10 12  1  0
 12 13  1  0
 12 14  2  0
 14 15  1  0
 15 16  1  0
 16 17  1  0
 16 18  1  0
 16 19  1  0
 14 20  1  0
 20 21  1  0
 20 22  2  0
 22 23  1  0
  6 24  1  0
 24 25  1  0
 24 26  1  0
 24 27  1  0
 27 28  1  0
 27 29  1  0
  2 30  1  0
 30 31  2  0
 31 32  1  0
 31 33  1  0
 33 34  1  0
 33 35  2  0
 35 36  1  0
 35 37  1  0
 37 38  1  0
 38 39  1  0
 39 40  1  0
 39 41  1  0
 39 42  1  0
 37 43  2  0
 43 44  1  0
 27  3  1  0
 43 30  1  0
 22  9  1  0
M  END
>  <UniqueID>  (27) 
22

>  <SMILES>  (27) 
COc1ccc(/C=C2/CCC(=Cc3cccc(OC)c3)C2=O)cc1

>  <Energy>  (27) 
68.35308300621074

>  <Genealogy>  (27) 
COc1ccc(/C=C2/CCC(=Cc3cccc(OC)c3)C2=O)cc1 (cis-trans isomerization)
COc1ccc(/C=C2/CCC(=Cc3cccc(OC)c3)C2=O)cc1 (3D coordinates assigned)
COc1ccc(/C=C2/CCC(=Cc3cccc(OC)c3)C2=O)cc1 (nonaromatic ring conformer: 68.35308300621074 kcal/mol)

>  <smiles>  (27) 
COc1ccc(C=C2CCC(=Cc3cccc(OC)c3)C2=O)cc1

>  <score_type>  (27) 
oracle

>  <origin>  (27) 
adg

>  <m_score__min__energy>  (27) 
-9.0299999999999994

>  <m_primary>  (27) 
energy

$$$$
27:0
     RDKit          3D

 53 56  0  0  0  0  0  0  0  0999 V2000
   59.0890   33.2510   53.2960 C   0  0  0  0  0  0  0  0  0  0  0  0
   57.9270   33.5390   52.3750 C   0  0  0  0  0  0  0  0  0  0  0  0
   57.0530   32.3060   52.3320 C   0  0  0  0  0  0  0  0  0  0  0  0
   57.6490   31.3310   51.3990 C   0  0  0  0  0  0  0  0  0  0  0  0
   57.3890   30.1060   51.3820 O   0  0  0  0  0  0  0  0  0  0  0  0
   58.5990   31.8260   50.4360 N   0  0  0  0  0  0  0  0  0  0  0  0
   59.1490   30.8430   49.5530 C   0  0  0  0  0  0  0  0  0  0  0  0
   60.2370   30.0660   49.8920 C   0  0  0  0  0  0  0  0  0  0  0  0
   60.7060   29.1300   48.9670 C   0  0  0  0  0  0  0  0  0  0  0  0
   60.1010   28.9760   47.7360 C   0  0  0  0  0  0  0  0  0  0  0  0
   59.0140   29.7480   47.3890 C   0  0  0  0  0  0  0  0  0  0  0  0
   58.3080   29.6810   46.1330 C   0  0  0  0  0  0  0  0  0  0  0  0
   57.6760   28.5440   45.7170 N   0  0  0  0  0  0  0  0  0  0  0  0
   57.1190   28.7380   44.5320 N   0  0  0  0  0  0  0  0  0  0  0  0
   57.3570   29.9980   44.1220 C   0  0  0  0  0  0  0  0  0  0  0  0
   57.0180   30.6760   43.0040 N   0  0  0  0  0  0  0  0  0  0  0  0
   57.3950   31.9590   42.8360 C   0  0  0  0  0  0  0  0  0  0  0  0
   58.1330   32.5610   43.8300 C   0  0  0  0  0  0  0  0  0  0  0  0
   58.4940   31.8850   44.9870 C   0  0  0  0  0  0  0  0  0  0  0  0
   59.1930   32.6590   45.9990 C   0  0  0  0  0  0  0  0  0  0  0  0
   58.4540   33.7080   46.5720 C   0  0  0  0  0  0  0  0  0  0  0  0
   59.0420   34.5050   47.5530 C   0  0  0  0  0  0  0  0  0  0  0  0
   60.3390   34.2530   47.9470 C   0  0  0  0  0  0  0  0  0  0  0  0
   61.0600   33.2150   47.3740 C   0  0  0  0  0  0  0  0  0  0  0  0
   62.4550   32.9520   47.8040 C   0  0  0  0  0  0  0  0  0  0  0  0
   63.3800   33.5160   46.7420 C   0  0  0  0  0  0  0  0  0  0  0  0
   60.4930   32.4030   46.3900 C   0  0  0  0  0  0  0  0  0  0  0  0
   58.1000   30.5830   45.1290 C   0  0  0  0  0  0  0  0  0  0  0  0
   58.5500   30.6830   48.3220 C   0  0  0  0  0  0  0  0  0  0  0  0
   58.7573   33.3332   54.3416 H   0  0  0  0  0  0  0  0  0  0  0  0
   59.4619   32.2333   53.1086 H   0  0  0  0  0  0  0  0  0  0  0  0
   59.8941   33.9768   53.1086 H   0  0  0  0  0  0  0  0  0  0  0  0
   57.3495   34.3935   52.7575 H   0  0  0  0  0  0  0  0  0  0  0  0
   58.2892   33.7879   51.3666 H   0  0  0  0  0  0  0  0  0  0  0  0
   56.9885   31.8637   53.3371 H   0  0  0  0  0  0  0  0  0  0  0  0
   56.0422   32.5769   51.9930 H   0  0  0  0  0  0  0  0  0  0  0  0
   58.8610   32.8360   50.3940 H   0  0  0  0  0  0  0  0  0  0  0  0
   60.7255   30.1810   50.8708 H   0  0  0  0  0  0  0  0  0  0  0  0
   61.5733   28.5043   49.2244 H   0  0  0  0  0  0  0  0  0  0  0  0
   60.4899   28.2309   47.0263 H   0  0  0  0  0  0  0  0  0  0  0  0
   56.5740   27.9930   44.0110 H   0  0  0  0  0  0  0  0  0  0  0  0
   57.1195   32.5121   41.9260 H   0  0  0  0  0  0  0  0  0  0  0  0
   58.4456   33.6080   43.7035 H   0  0  0  0  0  0  0  0  0  0  0  0
   57.4199   33.8987   46.2490 H   0  0  0  0  0  0  0  0  0  0  0  0
   58.4749   35.3295   48.0097 H   0  0  0  0  0  0  0  0  0  0  0  0
   60.8058   34.8795   48.7214 H   0  0  0  0  0  0  0  0  0  0  0  0
   62.6485   33.4438   48.7687 H   0  0  0  0  0  0  0  0  0  0  0  0
   62.6229   31.8718   47.9264 H   0  0  0  0  0  0  0  0  0  0  0  0
   64.2234   34.0303   47.2259 H   0  0  0  0  0  0  0  0  0  0  0  0
   63.7612   32.6965   46.1150 H   0  0  0  0  0  0  0  0  0  0  0  0
   62.8261   34.2302   46.1150 H   0  0  0  0  0  0  0  0  0  0  0  0
   61.0666   31.5806   45.9377 H   0  0  0  0  0  0  0  0  0  0  0  0
   57.6821   31.3082   48.0652 H   0  0  0  0  0  0  0  0  0  0  0  0
  1  2  1  0
  2  3  1  0
  3  4  1  0
  4  5  2  0
  4  6  1  0
  6  7  1  0
  7  8  2  0
  8  9  1  0
  9 10  2  0
 10 11  1  0
 11 12  1  0
 12 13  2  0
 13 14  1  0
 14 15  1  0
 15 16  2  0
 16 17  1  0
 17 18  2  0
 18 19  1  0
 19 20  1  0
 20 21  2  0
 21 22  1  0
 22 23  2  0
 23 24  1  0
 24 25  1  0
 25 26  1  0
 24 27  2  0
 19 28  2  0
 11 29  2  0
 29  7  1  0
 28 12  1  0
 28 15  1  0
 27 20  1  0
  1 30  1  0
  1 31  1  0
  1 32  1  0
  2 33  1  0
  2 34  1  0
  3 35  1  0
  3 36  1  0
  6 37  1  0
  8 38  1  0
  9 39  1  0
 10 40  1  0
 14 41  1  0
 17 42  1  0
 18 43  1  0
 21 44  1  0
 22 45  1  0
 23 46  1  0
 25 47  1  0
 25 48  1  0
 26 49  1  0
 26 50  1  0
 26 51  1  0
 27 52  1  0
 29 53  1  0
M  END
>  <smiles>  (28) 
CCCC(=O)Nc1cccc(-c2n[nH]c3nccc(-c4cccc(CC)c4)c23)c1

>  <score_type>  (28) 
oracle

>  <origin>  (28) 
adg

>  <m_score__min__energy>  (28) 
-8.9499999999999993

>  <m_primary>  (28) 
energy

$$$$
28:0
     RDKit          3D

 41 42  0  0  0  0  0  0  0  0999 V2000
   57.4700   31.5970   42.5010 C   0  0  0  0  0  0  0  0  0  0  0  0
   57.7730   32.6440   43.5680 C   0  0  0  0  0  0  0  0  0  0  0  0
   58.1840   31.9910   44.8210 N   0  0  0  0  0  0  0  0  0  0  0  0
   58.8810   32.7580   45.8230 C   0  0  0  0  0  0  0  0  0  0  0  0
   58.9960   32.2650   47.1360 C   0  0  0  0  0  0  0  0  0  0  0  0
   59.7020   32.9990   48.0940 C   0  0  0  0  0  0  0  0  0  0  0  0
   60.2940   34.2180   47.7340 C   0  0  0  0  0  0  0  0  0  0  0  0
   61.0250   34.9330   48.6890 O   0  0  0  0  0  0  0  0  0  0  0  0
   62.0940   34.3510   49.4360 C   0  0  0  0  0  0  0  0  0  0  0  0
   60.1520   34.6880   46.4620 N   0  0  0  0  0  0  0  0  0  0  0  0
   59.4610   34.0030   45.5120 C   0  0  0  0  0  0  0  0  0  0  0  0
   57.8880   30.5950   45.0500 C   0  0  0  0  0  0  0  0  0  0  0  0
   58.8880   29.7160   45.3330 N   0  0  0  0  0  0  0  0  0  0  0  0
   58.6320   28.3980   45.5210 C   0  0  0  0  0  0  0  0  0  0  0  0
   57.3140   27.9020   45.4530 C   0  0  0  0  0  0  0  0  0  0  0  0
   57.0120   26.4030   45.6380 C   0  0  0  0  0  0  0  0  0  0  0  0
   55.6300   26.2140   45.8630 O   0  0  0  0  0  0  0  0  0  0  0  0
   57.7470   25.8880   46.9010 C   0  0  0  0  0  0  0  0  0  0  0  0
   57.1280   24.7630   47.4310 F   0  0  0  0  0  0  0  0  0  0  0  0
   59.0540   25.5560   46.5860 F   0  0  0  0  0  0  0  0  0  0  0  0
   57.7740   26.8750   47.8690 F   0  0  0  0  0  0  0  0  0  0  0  0
   57.4140   25.5730   44.3750 C   0  0  0  0  0  0  0  0  0  0  0  0
   56.3250   24.8420   43.9290 F   0  0  0  0  0  0  0  0  0  0  0  0
   58.4490   24.6850   44.6320 F   0  0  0  0  0  0  0  0  0  0  0  0
   57.8090   26.4240   43.3520 F   0  0  0  0  0  0  0  0  0  0  0  0
   56.3070   28.8290   45.1270 C   0  0  0  0  0  0  0  0  0  0  0  0
   56.6110   30.1380   44.9340 N   0  0  0  0  0  0  0  0  0  0  0  0
   57.1955   30.6484   42.9856 H   0  0  0  0  0  0  0  0  0  0  0  0
   56.6353   31.9434   41.8740 H   0  0  0  0  0  0  0  0  0  0  0  0
   58.3607   31.4441   41.8740 H   0  0  0  0  0  0  0  0  0  0  0  0
   58.5851   33.2970   43.2156 H   0  0  0  0  0  0  0  0  0  0  0  0
   56.8662   33.2382   43.7545 H   0  0  0  0  0  0  0  0  0  0  0  0
   58.5320   31.3054   47.4078 H   0  0  0  0  0  0  0  0  0  0  0  0
   59.7924   32.6225   49.1236 H   0  0  0  0  0  0  0  0  0  0  0  0
   61.8920   34.4610   50.5117 H   0  0  0  0  0  0  0  0  0  0  0  0
   62.1772   33.2831   49.1858 H   0  0  0  0  0  0  0  0  0  0  0  0
   63.0361   34.8607   49.1858 H   0  0  0  0  0  0  0  0  0  0  0  0
   59.3551   34.4215   44.5003 H   0  0  0  0  0  0  0  0  0  0  0  0
   59.4625   27.7074   45.7291 H   0  0  0  0  0  0  0  0  0  0  0  0
   55.2030   25.9610   44.9950 H   0  0  0  0  0  0  0  0  0  0  0  0
   55.2651   28.4904   45.0277 H   0  0  0  0  0  0  0  0  0  0  0  0
  1  2  1  0
  2  3  1  0
  3  4  1  0
  4  5  2  0
  5  6  1  0
  6  7  2  0
  7  8  1  0
  8  9  1  0
  7 10  1  0
 10 11  2  0
  3 12  1  0
 12 13  2  0
 13 14  1  0
 14 15  2  0
 15 16  1  0
 16 17  1  0
 16 18  1  0
 18 19  1  0
 18 20  1  0
 18 21  1  0
 16 22  1  0
 22 23  1  0
 22 24  1  0
 22 25  1  0
 15 26  1  0
 26 27  2  0
 11  4  1  0
 27 12  1  0
  1 28  1  0
  1 29  1  0
  1 30  1  0
  2 31  1  0
  2 32  1  0
  5 33  1  0
  6 34  1  0
  9 35  1  0
  9 36  1  0
  9 37  1  0
 11 38  1  0
 14 39  1  0
 17 40  1  0
 26 41  1  0
M  END
>  <UniqueID>  (29) 
23

>  <SMILES>  (29) 
CCN(c1ccc(OC)nc1)c1ncc(C(O)(C(F)(F)F)C(F)(F)F)cn1

>  <Energy>  (29) 
50.775760887896766

>  <Genealogy>  (29) 
CCN(c1ccc(OC)nc1)c1ncc(C(O)(C(F)(F)F)C(F)(F)F)cn1 (3D coordinates assigned)
CCN(c1ccc(OC)nc1)c1ncc(C(O)(C(F)(F)F)C(F)(F)F)cn1 (optimized conformer: 50.775760887896766 kcal/mol)

>  <smiles>  (29) 
CCN(c1ccc(OC)nc1)c1ncc(C(O)(C(F)(F)F)C(F)(F)F)cn1

>  <score_type>  (29) 
oracle

>  <origin>  (29) 
adg

>  <m_score__min__energy>  (29) 
-5.5099999999999998

>  <m_primary>  (29) 
energy

$$$$
29:0
     RDKit          3D

 28 31  0  0  0  0  0  0  0  0999 V2000
   64.1650   33.4330   49.1740 C   0  0  0  0  0  0  0  0  0  0  0  0
   64.1220   33.1130   47.8160 C   0  0  0  0  0  0  0  0  0  0  0  0
   62.9140   33.1860   47.1150 C   0  0  0  0  0  0  0  0  0  0  0  0
   61.7300   33.5800   47.7680 C   0  0  0  0  0  0  0  0  0  0  0  0
   60.4400   33.6620   47.0380 C   0  0  0  0  0  0  0  0  0  0  0  0
   59.7720   32.5840   46.5250 N   0  0  0  0  0  0  0  0  0  0  0  0
   58.6530   32.9720   45.9290 N   0  0  0  0  0  0  0  0  0  0  0  0
   57.7940   32.4360   45.0520 C   0  0  0  0  0  0  0  0  0  0  0  0
   57.6840   31.0120   44.6870 C   0  0  0  0  0  0  0  0  0  0  0  0
   57.0180   30.5780   43.5290 C   0  0  0  0  0  0  0  0  0  0  0  0
   56.9990   29.1980   43.3830 C   0  0  0  0  0  0  0  0  0  0  0  0
   57.7880   28.5230   44.7020 S   0  0  0  0  0  0  0  0  0  0  0  0
   58.1710   29.9680   45.4680 C   0  0  0  0  0  0  0  0  0  0  0  0
   57.0560   33.4320   44.4920 N   0  0  0  0  0  0  0  0  0  0  0  0
   57.4710   34.5950   45.0050 N   0  0  0  0  0  0  0  0  0  0  0  0
   58.4320   34.2610   45.8820 C   0  0  0  0  0  0  0  0  0  0  0  0
   59.6290   35.1400   46.6540 S   0  0  0  0  0  0  0  0  0  0  0  0
   61.7900   33.9050   49.1360 C   0  0  0  0  0  0  0  0  0  0  0  0
   63.0000   33.8300   49.8330 C   0  0  0  0  0  0  0  0  0  0  0  0
   65.1156   33.3725   49.7242 H   0  0  0  0  0  0  0  0  0  0  0  0
   65.0403   32.8027   47.2960 H   0  0  0  0  0  0  0  0  0  0  0  0
   62.8884   32.9336   46.0447 H   0  0  0  0  0  0  0  0  0  0  0  0
   60.1040   31.5970   46.5430 H   0  0  0  0  0  0  0  0  0  0  0  0
   56.5554   31.2665   42.8065 H   0  0  0  0  0  0  0  0  0  0  0  0
   56.5458   28.6431   42.5483 H   0  0  0  0  0  0  0  0  0  0  0  0
   58.7120   30.0711   46.4202 H   0  0  0  0  0  0  0  0  0  0  0  0
   60.8768   34.2209   49.6617 H   0  0  0  0  0  0  0  0  0  0  0  0
   63.0340   34.0843   50.9027 H   0  0  0  0  0  0  0  0  0  0  0  0
  1  2  2  0
  2  3  1  0
  3  4  2  0
  4  5  1  0
  5  6  2  0
  6  7  1  0
  7  8  1  0
  8  9  1  0
  9 10  1  0
 10 11  2  0
 11 12  1  0
 12 13  1  0
  8 14  2  0
 14 15  1  0
 15 16  2  0
 16 17  1  0
  4 18  1  0
 18 19  2  0
 19  1  1  0
 17  5  1  0
 16  7  1  0
 13  9  2  0
  1 20  1  0
  2 21  1  0
  3 22  1  0
  6 23  1  0
 10 24  1  0
 11 25  1  0
 13 26  1  0
 18 27  1  0
 19 28  1  0
M  CHG  1   6   1
M  END
>  <UniqueID>  (30) 
24

>  <SMILES>  (30) 
c1ccc(-c2[nH+]n3c(-c4ccsc4)nnc3s2)cc1

>  <Energy>  (30) 
155.83585556733803

>  <Genealogy>  (30) 
c1ccc(-c2[nH+]n3c(-c4ccsc4)nnc3s2)cc1 (protonated)
c1ccc(-c2[nH+]n3c(-c4ccsc4)nnc3s2)cc1 (3D coordinates assigned)
c1ccc(-c2[nH+]n3c(-c4ccsc4)nnc3s2)cc1 (optimized conformer: 155.83585556733803 kcal/mol)

>  <smiles>  (30) 
c1ccc(-c2nn3c(-c4ccsc4)nnc3s2)cc1

>  <score_type>  (30) 
oracle

>  <origin>  (30) 
adg

>  <m_score__min__energy>  (30) 
-6.2999999999999998

>  <m_primary>  (30) 
energy

$$$$
30:0
     RDKit          3D

 45 48  0  0  0  0  0  0  0  0999 V2000
   57.3730   28.8090   44.3710 C   0  0  0  0  0  0  0  0  0  0  0  0
   57.5620   30.2220   44.8270 C   0  0  0  0  0  0  0  0  0  0  0  0
   58.6440   30.5670   45.6490 C   0  0  0  0  0  0  0  0  0  0  0  0
   58.7950   31.8950   46.0920 C   0  0  0  0  0  0  0  0  0  0  0  0
   59.9220   32.2800   46.9170 N   0  0  0  0  0  0  0  0  0  0  0  0
   60.3820   31.5120   48.0650 C   0  0  0  0  0  0  0  0  0  0  0  0
   61.5610   32.2850   48.6580 C   0  0  1  0  0  0  0  0  0  0  0  0
   62.9210   31.6030   48.4930 C   0  0  0  0  0  0  0  0  0  0  0  0
   63.8990   32.6670   48.2320 N   0  0  2  0  0  0  0  0  0  0  0  0
   64.4280   33.1890   49.4820 C   0  0  0  0  0  0  0  0  0  0  0  0
   63.9030   34.2110   50.0110 O   0  0  0  0  0  0  0  0  0  0  0  0
   65.5290   32.4960   50.2120 C   0  0  0  0  0  0  0  0  0  0  0  0
   66.8040   33.0940   50.2900 C   0  0  0  0  0  0  0  0  0  0  0  0
   67.8390   32.4740   50.9980 C   0  0  0  0  0  0  0  0  0  0  0  0
   67.6150   31.2540   51.6390 C   0  0  0  0  0  0  0  0  0  0  0  0
   66.3590   30.6490   51.5700 C   0  0  0  0  0  0  0  0  0  0  0  0
   65.3190   31.2640   50.8640 C   0  0  0  0  0  0  0  0  0  0  0  0
   63.1590   33.6870   47.4660 C   0  0  0  0  0  0  0  0  0  0  0  0
   61.6810   33.5890   47.8850 C   0  0  1  0  0  0  0  0  0  0  0  0
   60.6830   33.5060   46.7220 C   0  0  0  0  0  0  0  0  0  0  0  0
   57.8240   32.8410   45.7100 C   0  0  0  0  0  0  0  0  0  0  0  0
   56.7510   32.4510   44.9050 C   0  0  0  0  0  0  0  0  0  0  0  0
   56.6410   31.1640   44.4890 N   0  0  0  0  0  0  0  0  0  0  0  0
   57.2848   28.1497   45.2471 H   0  0  0  0  0  0  0  0  0  0  0  0
   56.4574   28.7385   43.7654 H   0  0  0  0  0  0  0  0  0  0  0  0
   58.2379   28.5004   43.7654 H   0  0  0  0  0  0  0  0  0  0  0  0
   59.3745   29.8008   45.9477 H   0  0  0  0  0  0  0  0  0  0  0  0
   60.7055   30.5098   47.7472 H   0  0  0  0  0  0  0  0  0  0  0  0
   59.5786   31.3813   48.8049 H   0  0  0  0  0  0  0  0  0  0  0  0
   61.3503   32.3852   49.7330 H   0  0  0  0  0  0  0  0  0  0  0  0
   62.8920   30.8994   47.6480 H   0  0  0  0  0  0  0  0  0  0  0  0
   63.1889   31.0324   49.3945 H   0  0  0  0  0  0  0  0  0  0  0  0
   64.6820   32.3070   47.6400 H   0  0  0  0  0  0  0  0  0  0  0  0
   66.9861   34.0565   49.7896 H   0  0  0  0  0  0  0  0  0  0  0  0
   68.8302   32.9481   51.0498 H   0  0  0  0  0  0  0  0  0  0  0  0
   68.4287   30.7694   52.1986 H   0  0  0  0  0  0  0  0  0  0  0  0
   66.1861   29.6857   52.0722 H   0  0  0  0  0  0  0  0  0  0  0  0
   64.3309   30.7828   50.8175 H   0  0  0  0  0  0  0  0  0  0  0  0
   63.2584   33.4939   46.3876 H   0  0  0  0  0  0  0  0  0  0  0  0
   63.5564   34.6923   47.6698 H   0  0  0  0  0  0  0  0  0  0  0  0
   61.4324   34.5017   48.4464 H   0  0  0  0  0  0  0  0  0  0  0  0
   61.2197   33.4716   45.7624 H   0  0  0  0  0  0  0  0  0  0  0  0
   60.0223   34.3853   46.7012 H   0  0  0  0  0  0  0  0  0  0  0  0
   57.9104   33.8852   46.0450 H   0  0  0  0  0  0  0  0  0  0  0  0
   55.9924   33.1899   44.6072 H   0  0  0  0  0  0  0  0  0  0  0  0
  1  2  1  0
  2  3  2  0
  3  4  1  0
  4  5  1  0
  5  6  1  0
  6  7  1  0
  7  8  1  0
  8  9  1  0
  9 10  1  0
 10 11  2  0
 10 12  1  0
 12 13  2  0
 13 14  1  0
 14 15  2  0
 15 16  1  0
 16 17  2  0
  9 18  1  0
 18 19  1  0
 19 20  1  0
  4 21  2  0
 21 22  1  0
 22 23  2  0
 23  2  1  0
 20  5  1  0
 19  7  1  0
 17 12  1  0
  1 24  1  0
  1 25  1  0
  1 26  1  0
  3 27  1  0
  6 28  1  0
  6 29  1  0
  7 30  1  1
  8 31  1  0
  8 32  1  0
  9 33  1  6
 13 34  1  0
 14 35  1  0
 15 36  1  0
 16 37  1  0
 17 38  1  0
 18 39  1  0
 18 40  1  0
 19 41  1  1
 20 42  1  0
 20 43  1  0
 21 44  1  0
 22 45  1  0
M  CHG  1   9   1
M  END
>  <UniqueID>  (31) 
25

>  <SMILES>  (31) 
Cc1cc(N2C[C@@H]3C[NH+](C(=O)c4ccccc4)C[C@@H]3C2)ccn1

>  <Energy>  (31) 
61.155118780402255

>  <Genealogy>  (31) 
Cc1cc(N2CC3C[NH+](C(=O)c4ccccc4)CC3C2)ccn1 (protonated)
Cc1cc(N2C[C@@H]3C[NH+](C(=O)c4ccccc4)C[C@@H]3C2)ccn1 (chirality)
Cc1cc(N2C[C@@H]3C[NH+](C(=O)c4ccccc4)C[C@@H]3C2)ccn1 (3D coordinates assigned)
Cc1cc(N2C[C@@H]3C[NH+](C(=O)c4ccccc4)C[C@@H]3C2)ccn1 (nonaromatic ring conformer: 61.155118780402255 kcal/mol)

>  <smiles>  (31) 
Cc1cc(N2CC3CN(C(=O)c4ccccc4)CC3C2)ccn1

>  <score_type>  (31) 
oracle

>  <origin>  (31) 
adg

>  <m_score__min__energy>  (31) 
-6.4000000000000004

>  <m_primary>  (31) 
energy

$$$$
31:0
     RDKit          3D

 20 21  0  0  0  0  0  0  0  0999 V2000
   57.7840   32.1180   42.6130 C   0  0  0  0  0  0  0  0  0  0  0  0
   58.0870   32.5960   44.0100 C   0  0  0  0  0  0  0  0  0  0  0  0
   58.7180   33.8440   44.1650 C   0  0  0  0  0  0  0  0  0  0  0  0
   59.0500   34.3230   45.4330 C   0  0  0  0  0  0  0  0  0  0  0  0
   58.7570   33.5650   46.5630 C   0  0  0  0  0  0  0  0  0  0  0  0
   58.1230   32.3300   46.4330 C   0  0  0  0  0  0  0  0  0  0  0  0
   57.7660   31.8270   45.1660 C   0  0  0  0  0  0  0  0  0  0  0  0
   57.0710   30.5140   45.1030 C   0  0  0  0  0  0  0  0  0  0  0  0
   57.6670   29.3420   45.4120 N   0  0  0  0  0  0  0  0  0  0  0  0
   56.6670   28.4570   45.2450 C   0  0  0  0  0  0  0  0  0  0  0  0
   55.5230   29.0500   44.8650 N   0  0  0  0  0  0  0  0  0  0  0  0
   55.7750   30.3440   44.7800 N   0  0  0  0  0  0  0  0  0  0  0  0
   57.1957   31.1899   42.6626 H   0  0  0  0  0  0  0  0  0  0  0  0
   57.2090   32.8885   42.0785 H   0  0  0  0  0  0  0  0  0  0  0  0
   58.7262   31.9268   42.0785 H   0  0  0  0  0  0  0  0  0  0  0  0
   58.9523   34.4490   43.2767 H   0  0  0  0  0  0  0  0  0  0  0  0
   59.5436   35.3003   45.5395 H   0  0  0  0  0  0  0  0  0  0  0  0
   59.0263   33.9412   47.5610 H   0  0  0  0  0  0  0  0  0  0  0  0
   57.8981   31.7393   47.3332 H   0  0  0  0  0  0  0  0  0  0  0  0
   56.7740   27.3735   45.4015 H   0  0  0  0  0  0  0  0  0  0  0  0
  1  2  1  0
  2  3  2  0
  3  4  1  0
  4  5  2  0
  5  6  1  0
  6  7  2  0
  7  8  1  0
  8  9  1  0
  9 10  2  0
 10 11  1  0
 11 12  1  0
  7  2  1  0
 12  8  2  0
  1 13  1  0
  1 14  1  0
  1 15  1  0
  3 16  1  0
  4 17  1  0
  5 18  1  0
  6 19  1  0
 10 20  1  0
M  CHG  1  11  -1
M  END
>  <UniqueID>  (32) 
26

>  <SMILES>  (32) 
Cc1ccccc1-c1nc[n-]n1

>  <Energy>  (32) 
56.32750115844083

>  <Genealogy>  (32) 
Cc1ccccc1-c1nc[n-]n1 (protonated)
Cc1ccccc1-c1nc[n-]n1 (3D coordinates assigned)
Cc1ccccc1-c1nc[n-]n1 (optimized conformer: 56.32750115844083 kcal/mol)

>  <smiles>  (32) 
Cc1ccccc1-c1nc[nH]n1

>  <score_type>  (32) 
oracle

>  <origin>  (32) 
adg

>  <m_score__min__energy>  (32) 
-7.7400000000000002

>  <m_primary>  (32) 
energy

$$$$
32:0
     RDKit          3D

 29 30  0  0  0  0  0  0  0  0999 V2000
   59.9567   29.8794   44.3248 H   0  0  0  0  0  0  0  0  0  0  0  0
   59.3340   29.9330   45.2300 C   0  0  0  0  0  0  0  0  0  0  0  0
   59.7750   30.6950   46.2430 C   0  0  0  0  0  0  0  0  0  0  0  0
   60.2974   30.1876   47.0674 H   0  0  0  0  0  0  0  0  0  0  0  0
   59.6150   32.1630   46.3400 C   0  0  0  0  0  0  0  0  0  0  0  0
   60.4890   32.9540   47.1090 C   0  0  0  0  0  0  0  0  0  0  0  0
   61.3241   32.4823   47.6477 H   0  0  0  0  0  0  0  0  0  0  0  0
   60.3000   34.3370   47.1910 C   0  0  0  0  0  0  0  0  0  0  0  0
   60.9953   34.9521   47.7811 H   0  0  0  0  0  0  0  0  0  0  0  0
   59.2300   34.9390   46.5250 C   0  0  0  0  0  0  0  0  0  0  0  0
   59.0883   36.0283   46.5832 H   0  0  0  0  0  0  0  0  0  0  0  0
   58.3400   34.1570   45.7850 C   0  0  0  0  0  0  0  0  0  0  0  0
   57.4918   34.6304   45.2688 H   0  0  0  0  0  0  0  0  0  0  0  0
   58.5250   32.7740   45.6990 C   0  0  0  0  0  0  0  0  0  0  0  0
   57.8132   32.1613   45.1264 H   0  0  0  0  0  0  0  0  0  0  0  0
   58.0780   29.1630   45.2400 C   0  0  0  0  0  0  0  0  0  0  0  0
   57.8950   27.6970   46.0460 S   0  0  0  0  0  0  0  0  0  0  0  0
   56.2680   27.5600   45.6230 C   0  0  0  0  0  0  0  0  0  0  0  0
   55.4830   26.5760   45.9420 N   0  0  0  0  0  0  0  0  0  0  0  0
   55.8710   25.1720   45.8930 C   0  0  0  0  0  0  0  0  0  0  0  0
   55.9779   24.7852   46.9172 H   0  0  0  0  0  0  0  0  0  0  0  0
   55.0983   24.5963   45.3624 H   0  0  0  0  0  0  0  0  0  0  0  0
   56.8297   25.0748   45.3624 H   0  0  0  0  0  0  0  0  0  0  0  0
   55.8430   28.6160   44.8990 N   0  0  0  0  0  0  0  0  0  0  0  0
   56.8370   29.5230   44.6940 C   0  0  0  0  0  0  0  0  0  0  0  0
   56.5670   30.7970   43.9540 C   0  0  0  0  0  0  0  0  0  0  0  0
   56.3947   31.6101   44.6745 H   0  0  0  0  0  0  0  0  0  0  0  0
   57.4326   31.0445   43.3220 H   0  0  0  0  0  0  0  0  0  0  0  0
   55.6754   30.6720   43.3220 H   0  0  0  0  0  0  0  0  0  0  0  0
  1  2  1  0
  2  3  2  0
  3  4  1  0
  3  5  1  0
  5  6  2  0
  6  7  1  0
  6  8  1  0
  8  9  1  0
  8 10  2  0
 10 11  1  0
 10 12  1  0
 12 13  1  0
 12 14  2  0
 14 15  1  0
  2 16  1  0
 16 17  1  0
 17 18  1  0
 18 19  2  0
 19 20  1  0
 20 21  1  0
 20 22  1  0
 20 23  1  0
 18 24  1  0
 24 25  1  0
 25 26  1  0
 26 27  1  0
 26 28  1  0
 26 29  1  0
 14  5  1  0
 25 16  2  0
M  CHG  1  24  -1
M  END
>  <UniqueID>  (33) 
27

>  <SMILES>  (33) 
C/N=c1/[n-]c(C)c(/C=C\c2ccccc2)s1

>  <Energy>  (33) 
66.95708190297039

>  <Genealogy>  (33) 
CN=c1[n-]c(C)c(C=Cc2ccccc2)s1 (protonated)
C/N=c1/[n-]c(C)c(/C=C\c2ccccc2)s1 (cis-trans isomerization)
C/N=c1/[n-]c(C)c(/C=C\c2ccccc2)s1 (3D coordinates assigned)
C/N=c1/[n-]c(C)c(/C=C\c2ccccc2)s1 (optimized conformer: 66.95708190297039 kcal/mol)

>  <smiles>  (33) 
CN=c1[nH]c(C)c(C=Cc2ccccc2)s1

>  <score_type>  (33) 
oracle

>  <origin>  (33) 
adg

>  <m_score__min__energy>  (33) 
-8.3900000000000006

>  <m_primary>  (33) 
energy

$$$$
33:0
     RDKit          3D

 39 40  0  0  0  0  0  0  0  0999 V2000
   59.6410   35.1030   46.0170 C   0  0  0  0  0  0  0  0  0  0  0  0
   58.7230   34.0110   46.5550 C   0  0  0  0  0  0  0  0  0  0  0  0
   58.3770   33.0230   45.4720 C   0  0  0  0  0  0  0  0  0  0  0  0
   58.2980   33.4370   44.1350 C   0  0  0  0  0  0  0  0  0  0  0  0
   57.9340   32.5290   43.1380 C   0  0  0  0  0  0  0  0  0  0  0  0
   57.6470   31.2020   43.4660 C   0  0  0  0  0  0  0  0  0  0  0  0
   57.7320   30.7700   44.8010 C   0  0  0  0  0  0  0  0  0  0  0  0
   57.4170   29.4250   45.1890 N   0  0  0  0  0  0  0  0  0  0  0  0
   56.1310   28.7920   45.1350 C   0  0  0  0  0  0  0  0  0  0  0  0
   55.1370   29.4010   44.6580 O   0  0  0  0  0  0  0  0  0  0  0  0
   55.9550   27.4600   45.6270 N   0  0  0  0  0  0  0  0  0  0  0  0
   56.9420   26.4160   45.6200 C   0  0  0  0  0  0  0  0  0  0  0  0
   56.7830   25.2720   44.8190 C   0  0  0  0  0  0  0  0  0  0  0  0
   57.7410   24.2560   44.8370 C   0  0  0  0  0  0  0  0  0  0  0  0
   58.8640   24.3520   45.6640 C   0  0  0  0  0  0  0  0  0  0  0  0
   59.7980   23.3050   45.6400 O   0  0  0  0  0  0  0  0  0  0  0  0
   59.7330   22.1880   44.7600 C   0  0  0  0  0  0  0  0  0  0  0  0
   59.0160   25.4820   46.4890 C   0  0  0  0  0  0  0  0  0  0  0  0
   58.0550   26.5080   46.4810 C   0  0  0  0  0  0  0  0  0  0  0  0
   58.2340   27.7110   47.3670 C   0  0  0  0  0  0  0  0  0  0  0  0
   58.0740   31.6910   45.8000 C   0  0  0  0  0  0  0  0  0  0  0  0
   60.0973   35.6457   46.8580 H   0  0  0  0  0  0  0  0  0  0  0  0
   60.4315   34.6476   45.4024 H   0  0  0  0  0  0  0  0  0  0  0  0
   59.0565   35.8035   45.4024 H   0  0  0  0  0  0  0  0  0  0  0  0
   59.2318   33.4837   47.3754 H   0  0  0  0  0  0  0  0  0  0  0  0
   57.7948   34.4769   46.9175 H   0  0  0  0  0  0  0  0  0  0  0  0
   58.5235   34.4806   43.8701 H   0  0  0  0  0  0  0  0  0  0  0  0
   57.8731   32.8602   42.0908 H   0  0  0  0  0  0  0  0  0  0  0  0
   57.3537   30.4931   42.6776 H   0  0  0  0  0  0  0  0  0  0  0  0
   55.8976   25.1763   44.1733 H   0  0  0  0  0  0  0  0  0  0  0  0
   57.6108   23.3725   44.1948 H   0  0  0  0  0  0  0  0  0  0  0  0
   59.6790   21.2602   45.3485 H   0  0  0  0  0  0  0  0  0  0  0  0
   58.8383   22.2725   44.1257 H   0  0  0  0  0  0  0  0  0  0  0  0
   60.6315   22.1681   44.1257 H   0  0  0  0  0  0  0  0  0  0  0  0
   59.8946   25.5631   47.1459 H   0  0  0  0  0  0  0  0  0  0  0  0
   58.1877   27.4001   48.4211 H   0  0  0  0  0  0  0  0  0  0  0  0
   59.2109   28.1740   47.1638 H   0  0  0  0  0  0  0  0  0  0  0  0
   57.4342   28.4383   47.1638 H   0  0  0  0  0  0  0  0  0  0  0  0
   58.1055   31.3680   46.8510 H   0  0  0  0  0  0  0  0  0  0  0  0
  1  2  1  0
  2  3  1  0
  3  4  2  0
  4  5  1  0
  5  6  2  0
  6  7  1  0
  7  8  1  0
  8  9  1  0
  9 10  2  0
  9 11  1  0
 11 12  1  0
 12 13  2  0
 13 14  1  0
 14 15  2  0
 15 16  1  0
 16 17  1  0
 15 18  1  0
 18 19  2  0
 19 20  1  0
  7 21  2  0
 21  3  1  0
 19 12  1  0
  1 22  1  0
  1 23  1  0
  1 24  1  0
  2 25  1  0
  2 26  1  0
  4 27  1  0
  5 28  1  0
  6 29  1  0
 13 30  1  0
 14 31  1  0
 17 32  1  0
 17 33  1  0
 17 34  1  0
 18 35  1  0
 20 36  1  0
 20 37  1  0
 20 38  1  0
 21 39  1  0
M  CHG  2   8  -1  11  -1
M  END
>  <UniqueID>  (34) 
28

>  <SMILES>  (34) 
CCc1cccc([N-]C(=O)[N-]c2ccc(OC)cc2C)c1

>  <Energy>  (34) 
42.08316035429014

>  <Genealogy>  (34) 
CCc1cccc([N-]C(=O)[N-]c2ccc(OC)cc2C)c1 (protonated)
CCc1cccc([N-]C(=O)[N-]c2ccc(OC)cc2C)c1 (3D coordinates assigned)
CCc1cccc([N-]C(=O)[N-]c2ccc(OC)cc2C)c1 (optimized conformer: 42.08316035429014 kcal/mol)

>  <smiles>  (34) 
CCc1cccc(NC(=O)Nc2ccc(OC)cc2C)c1

>  <score_type>  (34) 
oracle

>  <origin>  (34) 
adg

>  <m_score__min__energy>  (34) 
-10.640000000000001

>  <m_primary>  (34) 
energy

$$$$
34:0
     RDKit          3D

 40 43  0  0  0  0  0  0  0  0999 V2000
   56.6960   29.8930   52.7520 C   0  0  0  0  0  0  0  0  0  0  0  0
   57.5710   29.6330   51.6600 O   0  0  0  0  0  0  0  0  0  0  0  0
   58.1450   30.6240   50.8490 C   0  0  0  0  0  0  0  0  0  0  0  0
   58.3270   31.9490   51.2920 C   0  0  0  0  0  0  0  0  0  0  0  0
   58.8930   32.9050   50.4430 C   0  0  0  0  0  0  0  0  0  0  0  0
   59.3000   32.5500   49.1490 C   0  0  0  0  0  0  0  0  0  0  0  0
   59.1370   31.2220   48.7160 C   0  0  0  0  0  0  0  0  0  0  0  0
   58.5500   30.2720   49.5560 C   0  0  0  0  0  0  0  0  0  0  0  0
   59.7760   30.7360   47.1080 S   0  0  0  0  0  0  0  0  0  0  0  0
   59.0990   32.1750   46.2740 C   0  0  0  0  0  0  0  0  0  0  0  0
   58.4800   32.0420   45.0270 C   0  0  0  0  0  0  0  0  0  0  0  0
   58.0500   33.1780   44.3360 C   0  0  0  0  0  0  0  0  0  0  0  0
   58.2320   34.4470   44.8940 C   0  0  0  0  0  0  0  0  0  0  0  0
   58.8290   34.5840   46.1520 C   0  0  0  0  0  0  0  0  0  0  0  0
   59.2650   33.4490   46.8510 C   0  0  0  0  0  0  0  0  0  0  0  0
   59.7350   33.5540   48.2100 N   0  0  0  0  0  0  0  0  0  0  0  0
   60.8630   34.4330   48.5370 C   0  0  0  0  0  0  0  0  0  0  0  0
   62.1180   33.6230   48.6160 C   0  0  0  0  0  0  0  0  0  0  0  0
   63.1280   33.7780   49.5450 C   0  0  0  0  0  0  0  0  0  0  0  0
   64.1070   32.9060   49.1060 C   0  0  0  0  0  0  0  0  0  0  0  0
   65.4350   32.6810   49.7460 C   0  0  0  0  0  0  0  0  0  0  0  0
   63.6960   32.3130   48.0080 O   0  0  0  0  0  0  0  0  0  0  0  0
   62.5070   32.7290   47.6890 N   0  0  0  0  0  0  0  0  0  0  0  0
   57.2333   29.7333   53.6985 H   0  0  0  0  0  0  0  0  0  0  0  0
   56.3450   30.9342   52.7008 H   0  0  0  0  0  0  0  0  0  0  0  0
   55.8334   29.2124   52.7008 H   0  0  0  0  0  0  0  0  0  0  0  0
   58.0225   32.2327   52.3102 H   0  0  0  0  0  0  0  0  0  0  0  0
   59.0196   33.9405   50.7919 H   0  0  0  0  0  0  0  0  0  0  0  0
   58.4053   29.2416   49.1992 H   0  0  0  0  0  0  0  0  0  0  0  0
   58.3316   31.0434   44.5902 H   0  0  0  0  0  0  0  0  0  0  0  0
   57.5681   33.0738   43.3527 H   0  0  0  0  0  0  0  0  0  0  0  0
   57.9048   35.3406   44.3422 H   0  0  0  0  0  0  0  0  0  0  0  0
   58.9566   35.5834   46.5934 H   0  0  0  0  0  0  0  0  0  0  0  0
   60.9696   35.1994   47.7552 H   0  0  0  0  0  0  0  0  0  0  0  0
   60.6794   34.9212   49.5055 H   0  0  0  0  0  0  0  0  0  0  0  0
   63.1487   34.4380   50.4247 H   0  0  0  0  0  0  0  0  0  0  0  0
   65.3227   32.7000   50.8401 H   0  0  0  0  0  0  0  0  0  0  0  0
   65.8309   31.7030   49.4350 H   0  0  0  0  0  0  0  0  0  0  0  0
   66.1310   33.4740   49.4350 H   0  0  0  0  0  0  0  0  0  0  0  0
   61.9750   32.4310   46.8420 H   0  0  0  0  0  0  0  0  0  0  0  0
  1  2  1  0
  2  3  1  0
  3  4  2  0
  4  5  1  0
  5  6  2  0
  6  7  1  0
  7  8  2  0
  7  9  1  0
  9 10  1  0
 10 11  2  0
 11 12  1  0
 12 13  2  0
 13 14  1  0
 14 15  2  0
 15 16  1  0
 16 17  1  0
 17 18  1  0
 18 19  1  0
 19 20  2  0
 20 21  1  0
 20 22  1  0
 22 23  1  0
  8  3  1  0
 15 10  1  0
 23 18  2  0
 16  6  1  0
  1 24  1  0
  1 25  1  0
  1 26  1  0
  4 27  1  0
  5 28  1  0
  8 29  1  0
 11 30  1  0
 12 31  1  0
 13 32  1  0
 14 33  1  0
 17 34  1  0
 17 35  1  0
 19 36  1  0
 21 37  1  0
 21 38  1  0
 21 39  1  0
 23 40  1  0
M  CHG  1  23   1
M  END
>  <UniqueID>  (35) 
29

>  <SMILES>  (35) 
COc1ccc2c(c1)Sc1ccccc1N2Cc1cc(C)o[nH+]1

>  <Energy>  (35) 
88.98588861538846

>  <Genealogy>  (35) 
COc1ccc2c(c1)Sc1ccccc1N2Cc1cc(C)o[nH+]1 (protonated)
COc1ccc2c(c1)Sc1ccccc1N2Cc1cc(C)o[nH+]1 (3D coordinates assigned)
COc1ccc2c(c1)Sc1ccccc1N2Cc1cc(C)o[nH+]1 (nonaromatic ring conformer: 88.98588861538846 kcal/mol)

>  <smiles>  (35) 
COc1ccc2c(c1)Sc1ccccc1N2Cc1cc(C)on1

>  <score_type>  (35) 
oracle

>  <origin>  (35) 
adg

>  <m_score__min__energy>  (35) 
-6.3799999999999999

>  <m_primary>  (35) 
energy

$$$$
35:0
     RDKit          3D

 29 30  0  0  0  0  0  0  0  0999 V2000
   63.3140   33.5670   47.8480 C   0  0  0  0  0  0  0  0  0  0  0  0
   62.0440   34.1480   49.0140 S   0  0  0  0  0  0  0  0  0  0  0  0
   60.6850   33.7840   47.9000 C   0  0  0  0  0  0  0  0  0  0  0  0
   60.7290   34.2220   46.5720 C   0  0  0  0  0  0  0  0  0  0  0  0
   59.6700   33.9410   45.7050 C   0  0  0  0  0  0  0  0  0  0  0  0
   58.5480   33.2210   46.1560 C   0  0  0  0  0  0  0  0  0  0  0  0
   57.4240   32.9250   45.2370 C   0  0  0  0  0  0  0  0  0  0  0  0
   57.0200   33.8090   44.4340 O   0  0  0  0  0  0  0  0  0  0  0  0
   56.8330   31.6180   45.2240 N   0  0  0  0  0  0  0  0  0  0  0  0
   57.4840   30.3860   44.8820 C   0  0  0  0  0  0  0  0  0  0  0  0
   58.8100   30.1080   45.2540 C   0  0  0  0  0  0  0  0  0  0  0  0
   59.4020   28.9030   44.8710 C   0  0  0  0  0  0  0  0  0  0  0  0
   58.6700   27.9910   44.1100 C   0  0  0  0  0  0  0  0  0  0  0  0
   57.3930   28.2820   43.7370 N   0  0  0  0  0  0  0  0  0  0  0  0
   56.7970   29.4520   44.0980 C   0  0  0  0  0  0  0  0  0  0  0  0
   58.5110   32.7910   47.4960 C   0  0  0  0  0  0  0  0  0  0  0  0
   59.5730   33.0730   48.3610 C   0  0  0  0  0  0  0  0  0  0  0  0
   64.1744   33.1734   48.4091 H   0  0  0  0  0  0  0  0  0  0  0  0
   62.8941   32.7714   47.2150 H   0  0  0  0  0  0  0  0  0  0  0  0
   63.6414   34.4049   47.2150 H   0  0  0  0  0  0  0  0  0  0  0  0
   61.5993   34.7889   46.2096 H   0  0  0  0  0  0  0  0  0  0  0  0
   59.7136   34.2854   44.6612 H   0  0  0  0  0  0  0  0  0  0  0  0
   59.3808   30.8385   45.8460 H   0  0  0  0  0  0  0  0  0  0  0  0
   60.4366   28.6746   45.1666 H   0  0  0  0  0  0  0  0  0  0  0  0
   59.1251   27.0353   43.8108 H   0  0  0  0  0  0  0  0  0  0  0  0
   56.8600   27.5930   43.1590 H   0  0  0  0  0  0  0  0  0  0  0  0
   55.7684   29.6645   43.7711 H   0  0  0  0  0  0  0  0  0  0  0  0
   57.6404   32.2291   47.8653 H   0  0  0  0  0  0  0  0  0  0  0  0
   59.5333   32.7345   49.4069 H   0  0  0  0  0  0  0  0  0  0  0  0
  1  2  1  0
  2  3  1  0
  3  4  2  0
  4  5  1  0
  5  6  2  0
  6  7  1  0
  7  8  2  0
  7  9  1  0
  9 10  1  0
 10 11  2  0
 11 12  1  0
 12 13  2  0
 13 14  1  0
 14 15  2  0
  6 16  1  0
 16 17  2  0
 17  3  1  0
 15 10  1  0
  1 18  1  0
  1 19  1  0
  1 20  1  0
  4 21  1  0
  5 22  1  0
 11 23  1  0
 12 24  1  0
 13 25  1  0
 14 26  1  0
 15 27  1  0
 16 28  1  0
 17 29  1  0
M  CHG  2   9  -1  14   1
M  END
>  <UniqueID>  (36) 
30

>  <SMILES>  (36) 
CSc1ccc(C(=O)[N-]c2ccc[nH+]c2)cc1

>  <Energy>  (36) 
29.63112647717439

>  <Genealogy>  (36) 
CSc1ccc(C(=O)[N-]c2ccc[nH+]c2)cc1 (protonated)
CSc1ccc(C(=O)[N-]c2ccc[nH+]c2)cc1 (3D coordinates assigned)
CSc1ccc(C(=O)[N-]c2ccc[nH+]c2)cc1 (optimized conformer: 29.63112647717439 kcal/mol)

>  <smiles>  (36) 
CSc1ccc(C(=O)Nc2cccnc2)cc1

>  <score_type>  (36) 
oracle

>  <origin>  (36) 
adg

>  <m_score__min__energy>  (36) 
-6.5999999999999996

>  <m_primary>  (36) 
energy

$$$$
36:0
     RDKit          3D

 43 45  0  0  0  0  0  0  0  0999 V2000
   56.6130   27.3980   45.4660 F   0  0  0  0  0  0  0  0  0  0  0  0
   57.0220   28.6180   45.0350 C   0  0  0  0  0  0  0  0  0  0  0  0
   58.3700   28.9750   45.1320 C   0  0  0  0  0  0  0  0  0  0  0  0
   58.7970   30.2320   44.6900 C   0  0  0  0  0  0  0  0  0  0  0  0
   57.8740   31.1410   44.1450 C   0  0  0  0  0  0  0  0  0  0  0  0
   58.3290   32.4950   43.6560 C   0  0  0  0  0  0  0  0  0  0  0  0
   57.9630   33.6290   44.6410 C   0  0  0  0  0  0  0  0  0  0  0  0
   57.7740   33.0480   46.0650 C   0  0  0  0  0  0  0  0  0  0  0  0
   57.9830   34.1240   47.1370 C   0  0  0  0  0  0  0  0  0  0  0  0
   59.3450   34.7120   47.0850 N   0  0  0  0  0  0  0  0  0  0  0  0
   60.2220   34.3350   48.2160 C   0  0  0  0  0  0  0  0  0  0  0  0
   61.3400   33.3840   47.8350 C   0  0  0  0  0  0  0  0  0  0  0  0
   61.0550   32.0450   47.5160 C   0  0  0  0  0  0  0  0  0  0  0  0
   62.0840   31.1650   47.1710 C   0  0  0  0  0  0  0  0  0  0  0  0
   63.4050   31.6170   47.1230 C   0  0  0  0  0  0  0  0  0  0  0  0
   63.6960   32.9520   47.4130 C   0  0  0  0  0  0  0  0  0  0  0  0
   62.6700   33.8350   47.7590 C   0  0  0  0  0  0  0  0  0  0  0  0
   60.0150   34.6400   45.7650 C   0  0  0  0  0  0  0  0  0  0  0  0
   59.0040   34.7830   44.6230 C   0  0  0  0  0  0  0  0  0  0  0  0
   56.5210   30.7750   44.0530 C   0  0  0  0  0  0  0  0  0  0  0  0
   56.0980   29.5180   44.4960 C   0  0  0  0  0  0  0  0  0  0  0  0
   54.7890   29.1740   44.4020 F   0  0  0  0  0  0  0  0  0  0  0  0
   59.0964   28.2664   45.5566 H   0  0  0  0  0  0  0  0  0  0  0  0
   59.8584   30.5096   44.7693 H   0  0  0  0  0  0  0  0  0  0  0  0
   59.4214   32.4762   43.5287 H   0  0  0  0  0  0  0  0  0  0  0  0
   57.8166   32.6982   42.7041 H   0  0  0  0  0  0  0  0  0  0  0  0
   57.0114   34.0729   44.3132 H   0  0  0  0  0  0  0  0  0  0  0  0
   56.7544   32.6452   46.1554 H   0  0  0  0  0  0  0  0  0  0  0  0
   58.5204   32.2547   46.2186 H   0  0  0  0  0  0  0  0  0  0  0  0
   57.2454   34.9253   46.9828 H   0  0  0  0  0  0  0  0  0  0  0  0
   57.8585   33.6483   48.1210 H   0  0  0  0  0  0  0  0  0  0  0  0
   60.6713   35.2513   48.6265 H   0  0  0  0  0  0  0  0  0  0  0  0
   59.5913   33.8098   48.9484 H   0  0  0  0  0  0  0  0  0  0  0  0
   60.0149   31.6876   47.5381 H   0  0  0  0  0  0  0  0  0  0  0  0
   61.8537   30.1152   46.9369 H   0  0  0  0  0  0  0  0  0  0  0  0
   64.2152   30.9222   46.8571 H   0  0  0  0  0  0  0  0  0  0  0  0
   64.7355   33.3090   47.3689 H   0  0  0  0  0  0  0  0  0  0  0  0
   62.9036   34.8884   47.9731 H   0  0  0  0  0  0  0  0  0  0  0  0
   60.7547   35.4510   45.6932 H   0  0  0  0  0  0  0  0  0  0  0  0
   60.5053   33.6594   45.6759 H   0  0  0  0  0  0  0  0  0  0  0  0
   58.4768   35.7425   44.7295 H   0  0  0  0  0  0  0  0  0  0  0  0
   59.5503   34.7422   43.6691 H   0  0  0  0  0  0  0  0  0  0  0  0
   55.7906   31.4807   43.6304 H   0  0  0  0  0  0  0  0  0  0  0  0
  1  2  1  0
  2  3  2  0
  3  4  1  0
  4  5  2  0
  5  6  1  0
  6  7  1  0
  7  8  1  0
  8  9  1  0
  9 10  1  0
 10 11  1  0
 11 12  1  0
 12 13  2  0
 13 14  1  0
 14 15  2  0
 15 16  1  0
 16 17  2  0
 10 18  1  0
 18 19  1  0
  5 20  1  0
 20 21  2  0
 21 22  1  0
 21  2  1  0
 19  7  1  0
 17 12  1  0
  3 23  1  0
  4 24  1  0
  6 25  1  0
  6 26  1  0
  7 27  1  0
  8 28  1  0
  8 29  1  0
  9 30  1  0
  9 31  1  0
 11 32  1  0
 11 33  1  0
 13 34  1  0
 14 35  1  0
 15 36  1  0
 16 37  1  0
 17 38  1  0
 18 39  1  0
 18 40  1  0
 19 41  1  0
 19 42  1  0
 20 43  1  0
M  END
>  <UniqueID>  (37) 
31

>  <SMILES>  (37) 
Fc1ccc(CC2CCN(Cc3ccccc3)CC2)cc1F

>  <Energy>  (37) 
53.54287196654708

>  <Genealogy>  (37) 
Fc1ccc(CC2CCN(Cc3ccccc3)CC2)cc1F (3D coordinates assigned)
Fc1ccc(CC2CCN(Cc3ccccc3)CC2)cc1F (nonaromatic ring conformer: 53.54287196654708 kcal/mol)

>  <smiles>  (37) 
Fc1ccc(CC2CCN(Cc3ccccc3)CC2)cc1F

>  <score_type>  (37) 
oracle

>  <origin>  (37) 
adg

>  <m_score__min__energy>  (37) 
-8.0500000000000007

>  <m_primary>  (37) 
energy

$$$$
37:0
     RDKit          3D

 39 40  0  0  0  0  0  0  0  0999 V2000
   58.0970   32.8530   43.6900 C   0  0  0  0  0  0  0  0  0  0  0  0
   57.5330   31.4560   43.4550 C   0  0  0  0  0  0  0  0  0  0  0  0
   56.6520   31.0690   44.5510 N   0  0  0  0  0  0  0  0  0  0  0  0
   56.3480   29.7100   44.8890 C   0  0  0  0  0  0  0  0  0  0  0  0
   55.1520   29.3110   44.8370 O   0  0  0  0  0  0  0  0  0  0  0  0
   57.4260   28.7630   45.2790 C   0  0  0  0  0  0  0  0  0  0  0  0
   57.4200   27.4570   44.7610 C   0  0  0  0  0  0  0  0  0  0  0  0
   58.4250   26.5560   45.0990 C   0  0  0  0  0  0  0  0  0  0  0  0
   59.4490   26.9580   45.9620 C   0  0  0  0  0  0  0  0  0  0  0  0
   60.5080   25.9800   46.3760 C   0  0  0  0  0  0  0  0  0  0  0  0
   59.4370   28.2170   46.4830 N   0  0  0  0  0  0  0  0  0  0  0  0
   58.4750   29.1300   46.1530 C   0  0  0  0  0  0  0  0  0  0  0  0
   58.4940   30.4100   46.7270 O   0  0  0  0  0  0  0  0  0  0  0  0
   59.6360   31.2080   46.8850 C   0  0  0  0  0  0  0  0  0  0  0  0
   60.8760   30.6670   47.2680 C   0  0  0  0  0  0  0  0  0  0  0  0
   61.9960   31.4940   47.3980 C   0  0  0  0  0  0  0  0  0  0  0  0
   61.8910   32.8640   47.1310 C   0  0  0  0  0  0  0  0  0  0  0  0
   63.3260   33.9260   47.2990 S   0  0  0  0  0  0  0  0  0  0  0  0
   64.1000   32.8830   48.5740 C   0  0  0  0  0  0  0  0  0  0  0  0
   60.6610   33.4040   46.7350 C   0  0  0  0  0  0  0  0  0  0  0  0
   59.5410   32.5770   46.6050 C   0  0  0  0  0  0  0  0  0  0  0  0
   58.1728   33.0407   44.7712 H   0  0  0  0  0  0  0  0  0  0  0  0
   59.0954   32.9268   43.2342 H   0  0  0  0  0  0  0  0  0  0  0  0
   57.4297   33.5993   43.2342 H   0  0  0  0  0  0  0  0  0  0  0  0
   56.9640   31.4491   42.5136 H   0  0  0  0  0  0  0  0  0  0  0  0
   58.3669   30.7407   43.3997 H   0  0  0  0  0  0  0  0  0  0  0  0
   56.6133   27.1439   44.0819 H   0  0  0  0  0  0  0  0  0  0  0  0
   58.4140   25.5348   44.6902 H   0  0  0  0  0  0  0  0  0  0  0  0
   60.5566   25.9351   47.4740 H   0  0  0  0  0  0  0  0  0  0  0  0
   60.2627   24.9840   45.9788 H   0  0  0  0  0  0  0  0  0  0  0  0
   61.4814   26.3036   45.9788 H   0  0  0  0  0  0  0  0  0  0  0  0
   60.1720   28.4780   47.1780 H   0  0  0  0  0  0  0  0  0  0  0  0
   60.9654   29.5887   47.4662 H   0  0  0  0  0  0  0  0  0  0  0  0
   62.9606   31.0675   47.7104 H   0  0  0  0  0  0  0  0  0  0  0  0
   63.8230   33.2563   49.5709 H   0  0  0  0  0  0  0  0  0  0  0  0
   63.7512   31.8459   48.4608 H   0  0  0  0  0  0  0  0  0  0  0  0
   65.1937   32.9164   48.4608 H   0  0  0  0  0  0  0  0  0  0  0  0
   60.5758   34.4806   46.5259 H   0  0  0  0  0  0  0  0  0  0  0  0
   58.5803   33.0038   46.2811 H   0  0  0  0  0  0  0  0  0  0  0  0
  1  2  1  0
  2  3  1  0
  3  4  1  0
  4  5  2  0
  4  6  1  0
  6  7  2  0
  7  8  1  0
  8  9  2  0
  9 10  1  0
  9 11  1  0
 11 12  2  0
 12 13  1  0
 13 14  1  0
 14 15  2  0
 15 16  1  0
 16 17  2  0
 17 18  1  0
 18 19  1  0
 17 20  1  0
 20 21  2  0
 12  6  1  0
 21 14  1  0
  1 22  1  0
  1 23  1  0
  1 24  1  0
  2 25  1  0
  2 26  1  0
  7 27  1  0
  8 28  1  0
 10 29  1  0
 10 30  1  0
 10 31  1  0
 11 32  1  0
 15 33  1  0
 16 34  1  0
 19 35  1  0
 19 36  1  0
 19 37  1  0
 20 38  1  0
 21 39  1  0
M  CHG  2   3  -1  11   1
M  END
>  <UniqueID>  (38) 
32

>  <SMILES>  (38) 
CC[N-]C(=O)c1ccc(C)[nH+]c1Oc1ccc(SC)cc1

>  <Energy>  (38) 
37.532630818496905

>  <Genealogy>  (38) 
CC[N-]C(=O)c1ccc(C)[nH+]c1Oc1ccc(SC)cc1 (protonated)
CC[N-]C(=O)c1ccc(C)[nH+]c1Oc1ccc(SC)cc1 (3D coordinates assigned)
CC[N-]C(=O)c1ccc(C)[nH+]c1Oc1ccc(SC)cc1 (optimized conformer: 37.532630818496905 kcal/mol)

>  <smiles>  (38) 
CCNC(=O)c1ccc(C)nc1Oc1ccc(SC)cc1

>  <score_type>  (38) 
oracle

>  <origin>  (38) 
adg

>  <m_score__min__energy>  (38) 
-6.6900000000000004

>  <m_primary>  (38) 
energy

$$$$
38:0
     RDKit          3D

 25 25  0  0  0  0  0  0  0  0999 V2000
   54.4590   27.0900   46.7390 H   0  0  0  0  0  0  0  0  0  0  0  0
   55.1700   26.7000   46.0820 N   0  0  0  0  0  0  0  0  0  0  0  0
   56.2630   27.4960   45.6290 C   0  0  0  0  0  0  0  0  0  0  0  0
   57.4430   27.1210   45.8570 O   0  0  0  0  0  0  0  0  0  0  0  0
   56.0410   28.6860   44.8650 N   0  0  0  0  0  0  0  0  0  0  0  0
   56.8220   29.8890   44.9180 C   0  0  0  0  0  0  0  0  0  0  0  0
   57.8400   30.0730   45.8680 C   0  0  0  0  0  0  0  0  0  0  0  0
   58.0428   29.2876   46.6110 H   0  0  0  0  0  0  0  0  0  0  0  0
   58.5970   31.2480   45.8750 C   0  0  0  0  0  0  0  0  0  0  0  0
   59.3879   31.3837   46.6273 H   0  0  0  0  0  0  0  0  0  0  0  0
   58.3540   32.2600   44.9250 C   0  0  0  0  0  0  0  0  0  0  0  0
   59.1370   33.5200   44.8820 C   0  0  0  0  0  0  0  0  0  0  0  0
   58.9775   34.2034   44.0350 H   0  0  0  0  0  0  0  0  0  0  0  0
   60.0290   33.8700   45.8210 C   0  0  0  0  0  0  0  0  0  0  0  0
   61.0036   33.3601   45.8333 H   0  0  0  0  0  0  0  0  0  0  0  0
   59.7650   34.9080   46.8400 C   0  0  0  0  0  0  0  0  0  0  0  0
   59.6380   36.1040   46.4620 O   0  0  0  0  0  0  0  0  0  0  0  0
   59.6420   34.5930   48.3000 C   0  0  0  0  0  0  0  0  0  0  0  0
   59.9794   35.4571   48.8912 H   0  0  0  0  0  0  0  0  0  0  0  0
   58.5915   34.3720   48.5402 H   0  0  0  0  0  0  0  0  0  0  0  0
   60.2648   33.7187   48.5402 H   0  0  0  0  0  0  0  0  0  0  0  0
   57.3630   32.0490   43.9510 C   0  0  0  0  0  0  0  0  0  0  0  0
   57.1799   32.8166   43.1847 H   0  0  0  0  0  0  0  0  0  0  0  0
   56.6080   30.8730   43.9470 C   0  0  0  0  0  0  0  0  0  0  0  0
   55.8398   30.7200   43.1747 H   0  0  0  0  0  0  0  0  0  0  0  0
  1  2  1  0
  2  3  1  0
  3  4  2  0
  3  5  1  0
  5  6  1  0
  6  7  2  0
  7  8  1  0
  7  9  1  0
  9 10  1  0
  9 11  2  0
 11 12  1  0
 12 13  1  0
 12 14  2  0
 14 15  1  0
 14 16  1  0
 16 17  2  0
 16 18  1  0
 18 19  1  0
 18 20  1  0
 18 21  1  0
 11 22  1  0
 22 23  1  0
 22 24  2  0
 24 25  1  0
 24  6  1  0
M  CHG  2   2  -1   5  -1
M  END
>  <UniqueID>  (39) 
33

>  <SMILES>  (39) 
CC(=O)/C=C/c1ccc([N-]C([NH-])=O)cc1

>  <Energy>  (39) 
26.84751960861458

>  <Genealogy>  (39) 
CC(=O)C=Cc1ccc([N-]C([NH-])=O)cc1 (protonated)
CC(=O)/C=C/c1ccc([N-]C([NH-])=O)cc1 (cis-trans isomerization)
CC(=O)/C=C/c1ccc([N-]C([NH-])=O)cc1 (3D coordinates assigned)
CC(=O)/C=C/c1ccc([N-]C([NH-])=O)cc1 (optimized conformer: 26.84751960861458 kcal/mol)

>  <smiles>  (39) 
CC(=O)C=Cc1ccc(NC(N)=O)cc1

>  <score_type>  (39) 
oracle

>  <origin>  (39) 
adg

>  <m_score__min__energy>  (39) 
-10.76

>  <m_primary>  (39) 
energy

$$$$
39:0
     RDKit          3D

 37 39  0  0  0  0  0  0  0  0999 V2000
   58.5233   34.5849   46.9347 H   0  0  0  0  0  0  0  0  0  0  0  0
   59.2550   33.7690   46.8400 C   0  0  0  0  0  0  0  0  0  0  0  0
   58.8800   32.6840   46.1490 C   0  0  0  0  0  0  0  0  0  0  0  0
   59.5060   31.0550   46.5790 S   0  0  0  0  0  0  0  0  0  0  0  0
   58.6840   30.4050   45.1060 C   0  0  0  0  0  0  0  0  0  0  0  0
   58.8970   29.2140   44.6260 N   0  0  0  0  0  0  0  0  0  0  0  0
   58.6970   27.9720   45.3170 C   0  0  0  0  0  0  0  0  0  0  0  0
   59.8160   27.2400   45.7280 C   0  0  0  0  0  0  0  0  0  0  0  0
   60.8260   27.6363   45.5468 H   0  0  0  0  0  0  0  0  0  0  0  0
   59.6570   26.0090   46.3670 C   0  0  0  0  0  0  0  0  0  0  0  0
   60.5409   25.4475   46.7038 H   0  0  0  0  0  0  0  0  0  0  0  0
   58.3770   25.4880   46.5800 C   0  0  0  0  0  0  0  0  0  0  0  0
   58.2577   24.5223   47.0930 H   0  0  0  0  0  0  0  0  0  0  0  0
   57.2420   26.1920   46.1420 C   0  0  0  0  0  0  0  0  0  0  0  0
   55.8890   25.6280   46.3480 C   0  0  0  0  0  0  0  0  0  0  0  0
   55.7410   24.4950   46.8780 O   0  0  0  0  0  0  0  0  0  0  0  0
   54.7620   26.3420   45.9570 O   0  0  0  0  0  0  0  0  0  0  0  0
   57.4120   27.4310   45.4980 C   0  0  0  0  0  0  0  0  0  0  0  0
   56.5322   27.9812   45.1330 H   0  0  0  0  0  0  0  0  0  0  0  0
   57.8800   31.3510   44.4000 N   0  0  0  0  0  0  0  0  0  0  0  0
   56.9620   31.0090   43.3120 C   0  0  0  0  0  0  0  0  0  0  0  0
   57.5303   30.5536   42.4876 H   0  0  0  0  0  0  0  0  0  0  0  0
   56.4622   31.9253   42.9648 H   0  0  0  0  0  0  0  0  0  0  0  0
   55.9070   30.0240   43.7990 C   0  0  0  0  0  0  0  0  0  0  0  0
   55.8954   30.0132   44.8989 H   0  0  0  0  0  0  0  0  0  0  0  0
   54.9189   30.3303   43.4249 H   0  0  0  0  0  0  0  0  0  0  0  0
   56.1448   29.0173   43.4249 H   0  0  0  0  0  0  0  0  0  0  0  0
   57.9400   32.6250   45.0250 C   0  0  0  0  0  0  0  0  0  0  0  0
   57.1780   33.5720   44.6890 O   0  0  0  0  0  0  0  0  0  0  0  0
   60.5660   33.9590   47.4830 C   0  0  0  0  0  0  0  0  0  0  0  0
   62.0730   33.6590   46.7900 S   0  0  0  0  0  0  0  0  0  0  0  0
   62.9740   33.8920   48.1890 C   0  0  0  0  0  0  0  0  0  0  0  0
   64.0696   33.8330   48.2682 H   0  0  0  0  0  0  0  0  0  0  0  0
   62.0960   34.1720   49.2280 C   0  0  0  0  0  0  0  0  0  0  0  0
   62.4266   34.3620   50.2598 H   0  0  0  0  0  0  0  0  0  0  0  0
   60.7510   34.1900   48.8400 C   0  0  0  0  0  0  0  0  0  0  0  0
   59.9223   34.3694   49.5408 H   0  0  0  0  0  0  0  0  0  0  0  0
  1  2  1  0
  2  3  2  0
  3  4  1  0
  4  5  1  0
  5  6  2  3
  6  7  1  0
  7  8  2  0
  8  9  1  0
  8 10  1  0
 10 11  1  0
 10 12  2  0
 12 13  1  0
 12 14  1  0
 14 15  1  0
 15 16  2  0
 15 17  1  0
 14 18  2  0
 18 19  1  0
  5 20  1  0
 20 21  1  0
 21 22  1  0
 21 23  1  0
 21 24  1  0
 24 25  1  0
 24 26  1  0
 24 27  1  0
 20 28  1  0
 28 29  2  0
  2 30  1  0
 30 31  1  0
 31 32  1  0
 32 33  1  0
 32 34  2  0
 34 35  1  0
 34 36  1  0
 36 37  1  0
 28  3  1  0
 36 30  2  0
 18  7  1  0
M  CHG  1  17  -1
M  END
>  <UniqueID>  (40) 
34

>  <SMILES>  (40) 
CCN1C(=O)/C(=C\c2cccs2)SC1=Nc1cccc(C(=O)[O-])c1

>  <Energy>  (40) 
94.9467850454603

>  <Genealogy>  (40) 
CCN1C(=O)C(=Cc2cccs2)SC1=Nc1cccc(C(=O)[O-])c1 (protonated)
CCN1C(=O)/C(=C\c2cccs2)SC1=Nc1cccc(C(=O)[O-])c1 (cis-trans isomerization)
CCN1C(=O)/C(=C\c2cccs2)SC1=Nc1cccc(C(=O)[O-])c1 (3D coordinates assigned)
CCN1C(=O)/C(=C\c2cccs2)SC1=Nc1cccc(C(=O)[O-])c1 (nonaromatic ring conformer: 94.9467850454603 kcal/mol)

>  <smiles>  (40) 
CCN1C(=O)C(=Cc2cccs2)SC1=Nc1cccc(C(=O)O)c1

>  <score_type>  (40) 
oracle

>  <origin>  (40) 
adg

>  <m_score__min__energy>  (40) 
-11.289999999999999

>  <m_primary>  (40) 
energy

$$$$
40:0
     RDKit          3D

 32 33  0  0  0  0  0  0  0  0999 V2000
   58.7889   26.4174   46.0249 H   0  0  0  0  0  0  0  0  0  0  0  0
   58.1470   27.2680   45.7520 C   0  0  0  0  0  0  0  0  0  0  0  0
   58.6710   28.8230   45.3730 S   0  0  0  0  0  0  0  0  0  0  0  0
   57.1140   29.4110   45.1540 C   0  0  0  0  0  0  0  0  0  0  0  0
   56.8560   30.6320   44.7890 N   0  0  0  0  0  0  0  0  0  0  0  0
   57.6390   31.7930   45.1010 C   0  0  0  0  0  0  0  0  0  0  0  0
   57.9190   32.7690   44.1290 C   0  0  0  0  0  0  0  0  0  0  0  0
   57.5648   32.6320   43.0966 H   0  0  0  0  0  0  0  0  0  0  0  0
   58.6460   33.9130   44.4700 C   0  0  0  0  0  0  0  0  0  0  0  0
   58.8778   34.6657   43.7020 H   0  0  0  0  0  0  0  0  0  0  0  0
   59.0790   34.1020   45.7860 C   0  0  0  0  0  0  0  0  0  0  0  0
   59.6587   34.9985   46.0508 H   0  0  0  0  0  0  0  0  0  0  0  0
   58.7750   33.1510   46.7660 C   0  0  0  0  0  0  0  0  0  0  0  0
   59.3000   33.3970   48.4210 Cl  0  0  0  0  0  0  0  0  0  0  0  0
   58.0460   32.0050   46.4250 C   0  0  0  0  0  0  0  0  0  0  0  0
   57.7916   31.2675   47.2004 H   0  0  0  0  0  0  0  0  0  0  0  0
   56.1870   28.4430   45.3450 N   0  0  0  0  0  0  0  0  0  0  0  0
   55.1560   28.5700   45.2430 H   0  0  0  0  0  0  0  0  0  0  0  0
   56.7580   27.2490   45.6590 C   0  0  0  0  0  0  0  0  0  0  0  0
   55.9590   26.0520   45.9540 C   0  0  0  0  0  0  0  0  0  0  0  0
   54.7050   26.1410   45.9220 O   0  0  0  0  0  0  0  0  0  0  0  0
   56.5540   24.7830   46.2650 N   0  0  0  0  0  0  0  0  0  0  0  0
   57.1540   23.8130   45.3430 C   0  0  0  0  0  0  0  0  0  0  0  0
   56.7049   22.8344   45.5682 H   0  0  0  0  0  0  0  0  0  0  0  0
   56.8190   24.1140   43.8810 C   0  0  0  0  0  0  0  0  0  0  0  0
   56.0015   24.8486   43.8359 H   0  0  0  0  0  0  0  0  0  0  0  0
   57.7076   24.5230   43.3779 H   0  0  0  0  0  0  0  0  0  0  0  0
   56.5071   23.1869   43.3779 H   0  0  0  0  0  0  0  0  0  0  0  0
   58.6640   23.6930   45.5690 C   0  0  0  0  0  0  0  0  0  0  0  0
   58.8730   23.6764   46.6488 H   0  0  0  0  0  0  0  0  0  0  0  0
   59.0306   22.7629   45.1102 H   0  0  0  0  0  0  0  0  0  0  0  0
   59.1729   24.5535   45.1102 H   0  0  0  0  0  0  0  0  0  0  0  0
  1  2  1  0
  2  3  1  0
  3  4  1  0
  4  5  2  0
  5  6  1  0
  6  7  2  0
  7  8  1  0
  7  9  1  0
  9 10  1  0
  9 11  2  0
 11 12  1  0
 11 13  1  0
 13 14  1  0
 13 15  2  0
 15 16  1  0
  4 17  1  0
 17 18  1  0
 17 19  1  0
 19 20  1  0
 20 21  2  0
 20 22  1  0
 22 23  1  0
 23 24  1  0
 23 25  1  0
 25 26  1  0
 25 27  1  0
 25 28  1  0
 23 29  1  0
 29 30  1  0
 29 31  1  0
 29 32  1  0
 19  2  2  0
 15  6  1  0
M  CHG  1  22  -1
M  END
>  <UniqueID>  (41) 
35

>  <SMILES>  (41) 
CC(C)[N-]C(=O)c1cs/c(=N/c2cccc(Cl)c2)[nH]1

>  <Energy>  (41) 
72.44601788708582

>  <Genealogy>  (41) 
CC(C)[N-]C(=O)c1csc(=Nc2cccc(Cl)c2)[nH]1 (protonated)
CC(C)[N-]C(=O)c1cs/c(=N/c2cccc(Cl)c2)[nH]1 (cis-trans isomerization)
CC(C)[N-]C(=O)c1cs/c(=N/c2cccc(Cl)c2)[nH]1 (3D coordinates assigned)
CC(C)[N-]C(=O)c1cs/c(=N/c2cccc(Cl)c2)[nH]1 (optimized conformer: 72.44601788708582 kcal/mol)

>  <smiles>  (41) 
CC(C)NC(=O)c1csc(=Nc2cccc(Cl)c2)[nH]1

>  <score_type>  (41) 
oracle

>  <origin>  (41) 
adg

>  <m_score__min__energy>  (41) 
-10.06

>  <m_primary>  (41) 
energy

$$$$
41:0
     RDKit          3D

 44 46  0  0  0  0  0  0  0  0999 V2000
   57.0430   20.7970   42.9800 C   0  0  0  0  0  0  0  0  0  0  0  0
   56.1620   21.8980   43.3500 N   0  0  0  0  0  0  0  0  0  0  0  0
   56.5780   23.0440   43.8040 C   0  0  0  0  0  0  0  0  0  0  0  0
   56.6410   23.2770   45.1430 N   0  0  0  0  0  0  0  0  0  0  0  0
   57.0780   24.4640   45.6310 C   0  0  0  0  0  0  0  0  0  0  0  0
   57.4790   25.4800   44.7570 C   0  0  0  0  0  0  0  0  0  0  0  0
   57.9800   26.7570   45.3100 C   0  0  0  0  0  0  0  0  0  0  0  0
   59.3610   26.9700   45.4490 C   0  0  0  0  0  0  0  0  0  0  0  0
   59.8400   28.1760   45.9710 C   0  0  0  0  0  0  0  0  0  0  0  0
   58.9460   29.1840   46.3550 C   0  0  0  0  0  0  0  0  0  0  0  0
   59.4550   30.4570   46.9030 C   0  0  0  0  0  0  0  0  0  0  0  0
   60.2930   30.4080   48.0280 C   0  0  0  0  0  0  0  0  0  0  0  0
   60.7740   31.5840   48.6070 C   0  0  0  0  0  0  0  0  0  0  0  0
   60.4210   32.8200   48.0680 C   0  0  0  0  0  0  0  0  0  0  0  0
   59.6000   32.8860   46.9410 C   0  0  0  0  0  0  0  0  0  0  0  0
   59.1190   31.7130   46.3350 C   0  0  0  0  0  0  0  0  0  0  0  0
   58.1280   31.8420   44.8680 S   0  0  0  0  0  0  0  0  0  0  0  0
   58.2500   33.4600   44.1280 C   0  0  0  0  0  0  0  0  0  0  0  0
   56.6900   31.5720   45.2080 O   0  0  0  0  0  0  0  0  0  0  0  0
   58.5960   30.8450   43.8440 O   0  0  0  0  0  0  0  0  0  0  0  0
   57.5650   28.9630   46.2410 C   0  0  0  0  0  0  0  0  0  0  0  0
   57.0840   27.7580   45.7200 C   0  0  0  0  0  0  0  0  0  0  0  0
   55.7430   27.5760   45.6010 F   0  0  0  0  0  0  0  0  0  0  0  0
   57.3870   25.2370   43.3690 C   0  0  0  0  0  0  0  0  0  0  0  0
   57.7710   26.2850   42.3600 C   0  0  0  0  0  0  0  0  0  0  0  0
   56.9540   24.0180   42.9310 N   0  0  0  0  0  0  0  0  0  0  0  0
   57.4290   20.3146   43.8901 H   0  0  0  0  0  0  0  0  0  0  0  0
   56.4811   20.0617   42.3854 H   0  0  0  0  0  0  0  0  0  0  0  0
   57.8836   21.1840   42.3854 H   0  0  0  0  0  0  0  0  0  0  0  0
   57.1174   24.6287   46.7179 H   0  0  0  0  0  0  0  0  0  0  0  0
   60.0693   26.1848   45.1460 H   0  0  0  0  0  0  0  0  0  0  0  0
   60.9231   28.3337   46.0805 H   0  0  0  0  0  0  0  0  0  0  0  0
   60.5732   29.4347   48.4572 H   0  0  0  0  0  0  0  0  0  0  0  0
   61.4310   31.5351   49.4879 H   0  0  0  0  0  0  0  0  0  0  0  0
   60.7905   33.7463   48.5322 H   0  0  0  0  0  0  0  0  0  0  0  0
   59.3268   33.8662   46.5231 H   0  0  0  0  0  0  0  0  0  0  0  0
   58.3074   34.2218   44.9194 H   0  0  0  0  0  0  0  0  0  0  0  0
   59.1545   33.5106   43.5041 H   0  0  0  0  0  0  0  0  0  0  0  0
   57.3633   33.6456   43.5041 H   0  0  0  0  0  0  0  0  0  0  0  0
   56.8576   29.7414   46.5630 H   0  0  0  0  0  0  0  0  0  0  0  0
   58.1039   27.1934   42.8834 H   0  0  0  0  0  0  0  0  0  0  0  0
   58.5883   25.9049   41.7294 H   0  0  0  0  0  0  0  0  0  0  0  0
   56.9016   26.5229   41.7294 H   0  0  0  0  0  0  0  0  0  0  0  0
   56.9000   23.8270   41.9040 H   0  0  0  0  0  0  0  0  0  0  0  0
  1  2  1  0
  2  3  2  3
  3  4  1  0
  4  5  2  0
  5  6  1  0
  6  7  1  0
  7  8  2  0
  8  9  1  0
  9 10  2  0
 10 11  1  0
 11 12  2  0
 12 13  1  0
 13 14  2  0
 14 15  1  0
 15 16  2  0
 16 17  1  0
 17 18  1  0
 17 19  2  0
 17 20  2  0
 10 21  1  0
 21 22  2  0
 22 23  1  0
  6 24  2  0
 24 25  1  0
 24 26  1  0
 26  3  1  0
 22  7  1  0
 16 11  1  0
  1 27  1  0
  1 28  1  0
  1 29  1  0
  5 30  1  0
  8 31  1  0
  9 32  1  0
 12 33  1  0
 13 34  1  0
 14 35  1  0
 15 36  1  0
 18 37  1  0
 18 38  1  0
 18 39  1  0
 21 40  1  0
 25 41  1  0
 25 42  1  0
 25 43  1  0
 26 44  1  0
M  END
>  <UniqueID>  (42) 
36

>  <SMILES>  (42) 
CN=c1ncc(-c2ccc(-c3ccccc3S(C)(=O)=O)cc2F)c(C)[nH]1

>  <Energy>  (42) 
59.64521299689196

>  <Genealogy>  (42) 
CN=c1ncc(-c2ccc(-c3ccccc3S(C)(=O)=O)cc2F)c(C)[nH]1 (3D coordinates assigned)
CN=c1ncc(-c2ccc(-c3ccccc3S(C)(=O)=O)cc2F)c(C)[nH]1 (optimized conformer: 59.64521299689196 kcal/mol)

>  <smiles>  (42) 
CN=c1ncc(-c2ccc(-c3ccccc3S(C)(=O)=O)cc2F)c(C)[nH]1

>  <score_type>  (42) 
oracle

>  <origin>  (42) 
adg

>  <m_score__min__energy>  (42) 
-9.0700000000000003

>  <m_primary>  (42) 
energy

$$$$
42:0
     RDKit          3D

 37 39  0  0  0  0  0  0  0  0999 V2000
   55.1450   26.7090   45.9890 O   0  0  0  0  0  0  0  0  0  0  0  0
   56.0210   25.8670   46.3180 C   0  0  0  0  0  0  0  0  0  0  0  0
   55.6600   24.7950   47.1260 O   0  0  0  0  0  0  0  0  0  0  0  0
   57.4410   25.9750   45.8200 C   0  0  1  0  0  0  0  0  0  0  0  0
   57.6160   25.6880   44.3070 C   0  0  0  0  0  0  0  0  0  0  0  0
   57.4490   24.2240   43.9760 C   0  0  0  0  0  0  0  0  0  0  0  0
   58.2560   23.2620   44.6060 C   0  0  0  0  0  0  0  0  0  0  0  0
   58.1010   21.9050   44.3060 C   0  0  0  0  0  0  0  0  0  0  0  0
   57.1410   21.4980   43.3740 C   0  0  0  0  0  0  0  0  0  0  0  0
   56.3370   22.4500   42.7390 C   0  0  0  0  0  0  0  0  0  0  0  0
   56.4900   23.8080   43.0360 C   0  0  0  0  0  0  0  0  0  0  0  0
   58.0180   27.2900   46.1790 N   0  0  0  0  0  0  0  0  0  0  0  0
   58.9070   27.3200   47.3620 C   0  0  0  0  0  0  0  0  0  0  0  0
   59.5730   28.6780   47.6010 C   0  0  0  0  0  0  0  0  0  0  0  0
   60.3770   29.2150   46.0670 S   0  0  0  0  0  0  0  0  0  0  0  0
   58.7900   29.4690   45.2800 C   0  0  0  0  0  0  0  0  0  0  0  0
   58.5480   30.6720   44.6060 C   0  0  0  0  0  0  0  0  0  0  0  0
   57.3160   30.8920   43.9890 C   0  0  0  0  0  0  0  0  0  0  0  0
   56.3180   29.9200   44.0590 C   0  0  0  0  0  0  0  0  0  0  0  0
   56.5440   28.7300   44.7550 C   0  0  0  0  0  0  0  0  0  0  0  0
   57.7860   28.4850   45.3790 C   0  0  0  0  0  0  0  0  0  0  0  0
   57.9965   25.1749   46.3312 H   0  0  0  0  0  0  0  0  0  0  0  0
   56.8637   26.2645   43.7487 H   0  0  0  0  0  0  0  0  0  0  0  0
   58.6383   25.9811   44.0259 H   0  0  0  0  0  0  0  0  0  0  0  0
   59.0133   23.5777   45.3387 H   0  0  0  0  0  0  0  0  0  0  0  0
   58.7351   21.1566   44.8038 H   0  0  0  0  0  0  0  0  0  0  0  0
   57.0184   20.4301   43.1406 H   0  0  0  0  0  0  0  0  0  0  0  0
   55.5830   22.1301   42.0047 H   0  0  0  0  0  0  0  0  0  0  0  0
   55.8574   24.5536   42.5321 H   0  0  0  0  0  0  0  0  0  0  0  0
   58.3106   27.0652   48.2504 H   0  0  0  0  0  0  0  0  0  0  0  0
   59.7139   26.5963   47.1745 H   0  0  0  0  0  0  0  0  0  0  0  0
   58.8124   29.4154   47.8971 H   0  0  0  0  0  0  0  0  0  0  0  0
   60.3206   28.5908   48.4032 H   0  0  0  0  0  0  0  0  0  0  0  0
   59.3299   31.4445   44.5628 H   0  0  0  0  0  0  0  0  0  0  0  0
   57.1318   31.8316   43.4476 H   0  0  0  0  0  0  0  0  0  0  0  0
   55.3503   30.0910   43.5648 H   0  0  0  0  0  0  0  0  0  0  0  0
   55.7455   27.9760   44.8174 H   0  0  0  0  0  0  0  0  0  0  0  0
  1  2  2  0
  2  3  1  0
  2  4  1  0
  4  5  1  0
  5  6  1  0
  6  7  2  0
  7  8  1  0
  8  9  2  0
  9 10  1  0
 10 11  2  0
  4 12  1  0
 12 13  1  0
 13 14  1  0
 14 15  1  0
 15 16  1  0
 16 17  2  0
 17 18  1  0
 18 19  2  0
 19 20  1  0
 20 21  2  0
 11  6  1  0
 21 12  1  0
 21 16  1  0
  4 22  1  1
  5 23  1  0
  5 24  1  0
  7 25  1  0
  8 26  1  0
  9 27  1  0
 10 28  1  0
 11 29  1  0
 13 30  1  0
 13 31  1  0
 14 32  1  0
 14 33  1  0
 17 34  1  0
 18 35  1  0
 19 36  1  0
 20 37  1  0
M  CHG  1   3  -1
M  END
>  <UniqueID>  (43) 
37

>  <SMILES>  (43) 
O=C([O-])[C@@H](Cc1ccccc1)N1CCSc2ccccc21

>  <Energy>  (43) 
47.40581923725392

>  <Genealogy>  (43) 
O=C([O-])C(Cc1ccccc1)N1CCSc2ccccc21 (protonated)
O=C([O-])[C@@H](Cc1ccccc1)N1CCSc2ccccc21 (chirality)
O=C([O-])[C@@H](Cc1ccccc1)N1CCSc2ccccc21 (3D coordinates assigned)
O=C([O-])[C@@H](Cc1ccccc1)N1CCSc2ccccc21 (nonaromatic ring conformer: 47.40581923725392 kcal/mol)

>  <smiles>  (43) 
O=C(O)C(Cc1ccccc1)N1CCSc2ccccc21

>  <score_type>  (43) 
oracle

>  <origin>  (43) 
adg

>  <m_score__min__energy>  (43) 
-10.33

>  <m_primary>  (43) 
energy

$$$$
43:0
     RDKit          3D

 51 53  0  0  0  0  0  0  0  0999 V2000
   61.1690   30.7450   49.3460 C   0  0  0  0  0  0  0  0  0  0  0  0
   60.3730   29.9640   48.3430 C   0  0  0  0  0  0  0  0  0  0  0  0
   60.7570   29.9500   46.9940 C   0  0  0  0  0  0  0  0  0  0  0  0
   60.0370   29.1960   46.0620 C   0  0  0  0  0  0  0  0  0  0  0  0
   58.9360   28.4270   46.4730 C   0  0  0  0  0  0  0  0  0  0  0  0
   58.1440   27.6430   45.4630 C   0  0  0  0  0  0  0  0  0  0  0  0
   57.6790   28.5210   44.3960 N   0  0  0  0  0  0  0  0  0  0  0  0
   56.4000   29.1650   44.4030 C   0  0  0  0  0  0  0  0  0  0  0  0
   55.5190   28.8220   45.2360 O   0  0  0  0  0  0  0  0  0  0  0  0
   56.0860   30.2350   43.4030 C   0  0  0  0  0  0  0  0  0  0  0  0
   57.2270   31.0520   43.1320 O   0  0  0  0  0  0  0  0  0  0  0  0
   57.8370   31.9260   44.0470 C   0  0  0  0  0  0  0  0  0  0  0  0
   57.8240   31.5760   45.4020 C   0  0  0  0  0  0  0  0  0  0  0  0
   58.4160   32.4070   46.3570 C   0  0  0  0  0  0  0  0  0  0  0  0
   59.0220   33.6080   45.9680 C   0  0  0  0  0  0  0  0  0  0  0  0
   59.7590   34.6640   47.1750 S   0  0  0  0  0  0  0  0  0  0  0  0
   59.6470   36.0920   46.7170 O   0  0  0  0  0  0  0  0  0  0  0  0
   59.0050   34.5330   48.4700 O   0  0  0  0  0  0  0  0  0  0  0  0
   61.4380   34.2690   47.4480 N   0  0  0  0  0  0  0  0  0  0  0  0
   61.7930   33.0170   46.7590 C   0  0  0  0  0  0  0  0  0  0  0  0
   63.1990   32.5430   47.1810 C   0  0  0  0  0  0  0  0  0  0  0  0
   63.8790   33.5440   47.9120 O   0  0  0  0  0  0  0  0  0  0  0  0
   63.1910   33.8060   49.1230 C   0  0  0  0  0  0  0  0  0  0  0  0
   61.7040   34.1450   48.8870 C   0  0  0  0  0  0  0  0  0  0  0  0
   59.0350   33.9670   44.6120 C   0  0  0  0  0  0  0  0  0  0  0  0
   58.4510   33.1310   43.6560 C   0  0  0  0  0  0  0  0  0  0  0  0
   58.5620   28.4290   47.8270 C   0  0  0  0  0  0  0  0  0  0  0  0
   59.2810   29.1860   48.7550 C   0  0  0  0  0  0  0  0  0  0  0  0
   60.8685   30.4502   50.3623 H   0  0  0  0  0  0  0  0  0  0  0  0
   62.2401   30.5377   49.2057 H   0  0  0  0  0  0  0  0  0  0  0  0
   60.9821   31.8199   49.2057 H   0  0  0  0  0  0  0  0  0  0  0  0
   61.6292   30.5353   46.6674 H   0  0  0  0  0  0  0  0  0  0  0  0
   60.3341   29.2052   45.0029 H   0  0  0  0  0  0  0  0  0  0  0  0
   58.7809   26.8555   45.0338 H   0  0  0  0  0  0  0  0  0  0  0  0
   57.2734   27.1919   45.9615 H   0  0  0  0  0  0  0  0  0  0  0  0
   55.7546   29.7625   42.4666 H   0  0  0  0  0  0  0  0  0  0  0  0
   55.2952   30.8754   43.8207 H   0  0  0  0  0  0  0  0  0  0  0  0
   57.3435   30.6384   45.7182 H   0  0  0  0  0  0  0  0  0  0  0  0
   58.4059   32.1167   47.4179 H   0  0  0  0  0  0  0  0  0  0  0  0
   61.0574   32.2411   47.0178 H   0  0  0  0  0  0  0  0  0  0  0  0
   61.7911   33.1973   45.6739 H   0  0  0  0  0  0  0  0  0  0  0  0
   63.1013   31.6447   47.8083 H   0  0  0  0  0  0  0  0  0  0  0  0
   63.7785   32.3212   46.2727 H   0  0  0  0  0  0  0  0  0  0  0  0
   63.2537   32.9156   49.7658 H   0  0  0  0  0  0  0  0  0  0  0  0
   63.6646   34.6774   49.5988 H   0  0  0  0  0  0  0  0  0  0  0  0
   61.0771   33.3437   49.3054 H   0  0  0  0  0  0  0  0  0  0  0  0
   61.4691   35.0996   49.3806 H   0  0  0  0  0  0  0  0  0  0  0  0
   59.5067   34.9104   44.2997 H   0  0  0  0  0  0  0  0  0  0  0  0
   58.4713   33.4159   42.5937 H   0  0  0  0  0  0  0  0  0  0  0  0
   57.6994   27.8320   48.1579 H   0  0  0  0  0  0  0  0  0  0  0  0
   58.9890   29.1719   49.8155 H   0  0  0  0  0  0  0  0  0  0  0  0
  1  2  1  0
  2  3  2  0
  3  4  1  0
  4  5  2  0
  5  6  1  0
  6  7  1  0
  7  8  1  0
  8  9  2  0
  8 10  1  0
 10 11  1  0
 11 12  1  0
 12 13  2  0
 13 14  1  0
 14 15  2  0
 15 16  1  0
 16 17  2  0
 16 18  2  0
 16 19  1  0
 19 20  1  0
 20 21  1  0
 21 22  1  0
 22 23  1  0
 23 24  1  0
 15 25  1  0
 25 26  2  0
  5 27  1  0
 27 28  2  0
 28  2  1  0
 26 12  1  0
 24 19  1  0
  1 29  1  0
  1 30  1  0
  1 31  1  0
  3 32  1  0
  4 33  1  0
  6 34  1  0
  6 35  1  0
 10 36  1  0
 10 37  1  0
 13 38  1  0
 14 39  1  0
 20 40  1  0
 20 41  1  0
 21 42  1  0
 21 43  1  0
 23 44  1  0
 23 45  1  0
 24 46  1  0
 24 47  1  0
 25 48  1  0
 26 49  1  0
 27 50  1  0
 28 51  1  0
M  CHG  1   7  -1
M  END
>  <UniqueID>  (44) 
38

>  <SMILES>  (44) 
Cc1ccc(C[N-]C(=O)COc2ccc(S(=O)(=O)N3CCOCC3)cc2)cc1

>  <Energy>  (44) 
51.53631494817305

>  <Genealogy>  (44) 
Cc1ccc(C[N-]C(=O)COc2ccc(S(=O)(=O)N3CCOCC3)cc2)cc1 (protonated)
Cc1ccc(C[N-]C(=O)COc2ccc(S(=O)(=O)N3CCOCC3)cc2)cc1 (3D coordinates assigned)
Cc1ccc(C[N-]C(=O)COc2ccc(S(=O)(=O)N3CCOCC3)cc2)cc1 (nonaromatic ring conformer: 51.53631494817305 kcal/mol)

>  <smiles>  (44) 
Cc1ccc(CNC(=O)COc2ccc(S(=O)(=O)N3CCOCC3)cc2)cc1

>  <score_type>  (44) 
oracle

>  <origin>  (44) 
adg

>  <m_score__min__energy>  (44) 
-10.56

>  <m_primary>  (44) 
energy

$$$$
44:0
     RDKit          3D

 46 48  0  0  0  0  0  0  0  0999 V2000
   63.7620   33.4740   46.8010 C   0  0  0  0  0  0  0  0  0  0  0  0
   62.6690   32.9860   47.6610 N   0  0  0  0  0  0  0  0  0  0  0  0
   62.6490   31.5140   47.6360 C   0  0  0  0  0  0  0  0  0  0  0  0
   62.8310   33.4740   49.0480 C   0  0  0  0  0  0  0  0  0  0  0  0
   61.8260   34.5940   49.3450 C   0  0  0  0  0  0  0  0  0  0  0  0
   60.4520   34.1010   49.1830 N   0  0  0  0  0  0  0  0  0  0  0  0
   59.6600   33.7560   50.3740 C   0  0  0  0  0  0  0  0  0  0  0  0
   58.9250   32.4360   50.1370 C   0  0  0  0  0  0  0  0  0  0  0  0
   58.1780   32.5010   48.9220 O   0  0  0  0  0  0  0  0  0  0  0  0
   58.6740   33.1500   47.7860 C   0  0  0  0  0  0  0  0  0  0  0  0
   58.0160   33.0070   46.5610 C   0  0  0  0  0  0  0  0  0  0  0  0
   58.4990   33.6610   45.4160 C   0  0  0  0  0  0  0  0  0  0  0  0
   57.8540   33.5250   44.1410 N   0  0  0  0  0  0  0  0  0  0  0  0
   57.7580   32.3220   43.3670 C   0  0  0  0  0  0  0  0  0  0  0  0
   57.7840   32.4100   42.1110 O   0  0  0  0  0  0  0  0  0  0  0  0
   57.5760   30.9920   43.9980 C   0  0  0  0  0  0  0  0  0  0  0  0
   56.2870   30.4520   44.1430 C   0  0  0  0  0  0  0  0  0  0  0  0
   56.1070   29.1990   44.7370 C   0  0  0  0  0  0  0  0  0  0  0  0
   57.2110   28.4780   45.2010 C   0  0  0  0  0  0  0  0  0  0  0  0
   56.9850   26.9050   45.9440 Cl  0  0  0  0  0  0  0  0  0  0  0  0
   58.4960   29.0140   45.0760 C   0  0  0  0  0  0  0  0  0  0  0  0
   58.6800   30.2660   44.4830 C   0  0  0  0  0  0  0  0  0  0  0  0
   59.6680   34.4260   45.5050 C   0  0  0  0  0  0  0  0  0  0  0  0
   60.3250   34.5800   46.7290 C   0  0  0  0  0  0  0  0  0  0  0  0
   59.8280   33.9490   47.8860 C   0  0  0  0  0  0  0  0  0  0  0  0
   64.5865   33.8421   47.4293 H   0  0  0  0  0  0  0  0  0  0  0  0
   64.1238   32.6519   46.1659 H   0  0  0  0  0  0  0  0  0  0  0  0
   63.3915   34.2922   46.1659 H   0  0  0  0  0  0  0  0  0  0  0  0
   62.6438   31.1298   48.6667 H   0  0  0  0  0  0  0  0  0  0  0  0
   61.7461   31.1684   47.1113 H   0  0  0  0  0  0  0  0  0  0  0  0
   63.5422   31.1440   47.1113 H   0  0  0  0  0  0  0  0  0  0  0  0
   62.6618   32.6414   49.7466 H   0  0  0  0  0  0  0  0  0  0  0  0
   63.8502   33.8697   49.1688 H   0  0  0  0  0  0  0  0  0  0  0  0
   61.9668   34.9435   50.3785 H   0  0  0  0  0  0  0  0  0  0  0  0
   61.9946   35.4224   48.6412 H   0  0  0  0  0  0  0  0  0  0  0  0
   60.3290   33.6519   51.2409 H   0  0  0  0  0  0  0  0  0  0  0  0
   58.9267   34.5526   50.5682 H   0  0  0  0  0  0  0  0  0  0  0  0
   59.6580   31.6185   50.0700 H   0  0  0  0  0  0  0  0  0  0  0  0
   58.2352   32.2530   50.9741 H   0  0  0  0  0  0  0  0  0  0  0  0
   57.1154   32.3790   46.4936 H   0  0  0  0  0  0  0  0  0  0  0  0
   55.4139   31.0185   43.7870 H   0  0  0  0  0  0  0  0  0  0  0  0
   55.0951   28.7800   44.8393 H   0  0  0  0  0  0  0  0  0  0  0  0
   59.3645   28.4489   45.4453 H   0  0  0  0  0  0  0  0  0  0  0  0
   59.6927   30.6862   44.3948 H   0  0  0  0  0  0  0  0  0  0  0  0
   60.0729   34.9100   44.6040 H   0  0  0  0  0  0  0  0  0  0  0  0
   61.2340   35.1966   46.7890 H   0  0  0  0  0  0  0  0  0  0  0  0
  1  2  1  0
  2  3  1  0
  2  4  1  0
  4  5  1  0
  5  6  1  0
  6  7  1  0
  7  8  1  0
  8  9  1  0
  9 10  1  0
 10 11  2  0
 11 12  1  0
 12 13  1  0
 13 14  1  0
 14 15  2  0
 14 16  1  0
 16 17  2  0
 17 18  1  0
 18 19  2  0
 19 20  1  0
 19 21  1  0
 21 22  2  0
 12 23  2  0
 23 24  1  0
 24 25  2  0
 25  6  1  0
 25 10  1  0
 22 16  1  0
  1 26  1  0
  1 27  1  0
  1 28  1  0
  3 29  1  0
  3 30  1  0
  3 31  1  0
  4 32  1  0
  4 33  1  0
  5 34  1  0
  5 35  1  0
  7 36  1  0
  7 37  1  0
  8 38  1  0
  8 39  1  0
 11 40  1  0
 17 41  1  0
 18 42  1  0
 21 43  1  0
 22 44  1  0
 23 45  1  0
 24 46  1  0
M  CHG  1  13  -1
M  END
>  <UniqueID>  (45) 
39

>  <SMILES>  (45) 
CN(C)CCN1CCOc2cc([N-]C(=O)c3ccc(Cl)cc3)ccc21

>  <Energy>  (45) 
54.209509268625524

>  <Genealogy>  (45) 
CN(C)CCN1CCOc2cc([N-]C(=O)c3ccc(Cl)cc3)ccc21 (protonated)
CN(C)CCN1CCOc2cc([N-]C(=O)c3ccc(Cl)cc3)ccc21 (3D coordinates assigned)
CN(C)CCN1CCOc2cc([N-]C(=O)c3ccc(Cl)cc3)ccc21 (nonaromatic ring conformer: 54.209509268625524 kcal/mol)

>  <smiles>  (45) 
CN(C)CCN1CCOc2cc(NC(=O)c3ccc(Cl)cc3)ccc21

>  <score_type>  (45) 
oracle

>  <origin>  (45) 
adg

>  <m_score__min__energy>  (45) 
-9.3800000000000008

>  <m_primary>  (45) 
energy

$$$$
45:0
     RDKit          3D

 51 53  0  0  0  0  0  0  0  0999 V2000
   61.1050   28.6130   49.8630 O   0  0  0  0  0  0  0  0  0  0  0  0
   60.2650   29.5430   49.9400 C   0  0  0  0  0  0  0  0  0  0  0  0
   59.4150   29.8600   48.7410 C   0  0  0  0  0  0  0  0  0  0  0  0
   59.7040   31.2680   48.1960 C   0  0  0  0  0  0  0  0  0  0  0  0
   59.8180   32.3220   49.2440 N   0  0  2  0  0  0  0  0  0  0  0  0
   59.5960   33.6370   48.6600 C   0  0  0  0  0  0  0  0  0  0  0  0
   60.0170   34.6660   49.2600 O   0  0  0  0  0  0  0  0  0  0  0  0
   58.9440   33.8070   47.3330 C   0  0  0  0  0  0  0  0  0  0  0  0
   59.6620   34.4010   46.2750 C   0  0  0  0  0  0  0  0  0  0  0  0
   59.0710   34.5590   45.0160 C   0  0  0  0  0  0  0  0  0  0  0  0
   57.7610   34.1250   44.7940 C   0  0  0  0  0  0  0  0  0  0  0  0
   57.0380   33.5240   45.8300 C   0  0  0  0  0  0  0  0  0  0  0  0
   57.6240   33.3610   47.0900 C   0  0  0  0  0  0  0  0  0  0  0  0
   61.0770   32.3060   50.0330 C   0  0  0  0  0  0  0  0  0  0  0  0
   60.9540   31.5200   51.3470 C   0  0  0  0  0  0  0  0  0  0  0  0
   60.1540   30.3090   51.1540 N   0  0  0  0  0  0  0  0  0  0  0  0
   59.2510   29.8630   52.2240 C   0  0  0  0  0  0  0  0  0  0  0  0
   57.7850   29.9540   51.7800 C   0  0  0  0  0  0  0  0  0  0  0  0
   57.2870   31.4120   51.6790 C   0  0  2  0  0  0  0  0  0  0  0  0
   57.4790   31.9350   50.3880 O   0  0  0  0  0  0  0  0  0  0  0  0
   57.9430   32.2970   52.7210 C   0  0  0  0  0  0  0  0  0  0  0  0
   57.9830   31.8900   54.0710 C   0  0  0  0  0  0  0  0  0  0  0  0
   58.5900   32.7000   55.0390 C   0  0  0  0  0  0  0  0  0  0  0  0
   59.1720   33.9170   54.6690 C   0  0  0  0  0  0  0  0  0  0  0  0
   59.1460   34.3280   53.3300 C   0  0  0  0  0  0  0  0  0  0  0  0
   58.5320   33.5250   52.3590 C   0  0  0  0  0  0  0  0  0  0  0  0
   59.6227   29.1226   47.9517 H   0  0  0  0  0  0  0  0  0  0  0  0
   58.3596   29.8211   49.0487 H   0  0  0  0  0  0  0  0  0  0  0  0
   60.6515   31.2334   47.6383 H   0  0  0  0  0  0  0  0  0  0  0  0
   58.8455   31.5432   47.5657 H   0  0  0  0  0  0  0  0  0  0  0  0
   59.0590   32.1450   49.9430 H   0  0  0  0  0  0  0  0  0  0  0  0
   60.6944   34.7429   46.4402 H   0  0  0  0  0  0  0  0  0  0  0  0
   59.6395   35.0263   44.1984 H   0  0  0  0  0  0  0  0  0  0  0  0
   57.2985   34.2560   43.8046 H   0  0  0  0  0  0  0  0  0  0  0  0
   56.0083   33.1794   45.6539 H   0  0  0  0  0  0  0  0  0  0  0  0
   57.0530   32.8817   47.8988 H   0  0  0  0  0  0  0  0  0  0  0  0
   61.8673   31.8454   49.4221 H   0  0  0  0  0  0  0  0  0  0  0  0
   61.3137   33.3479   50.2947 H   0  0  0  0  0  0  0  0  0  0  0  0
   61.9589   31.2372   51.6938 H   0  0  0  0  0  0  0  0  0  0  0  0
   60.4569   32.1563   52.0940 H   0  0  0  0  0  0  0  0  0  0  0  0
   59.4850   28.8192   52.4804 H   0  0  0  0  0  0  0  0  0  0  0  0
   59.3937   30.5158   53.0978 H   0  0  0  0  0  0  0  0  0  0  0  0
   57.6851   29.4780   50.7934 H   0  0  0  0  0  0  0  0  0  0  0  0
   57.1737   29.4439   52.5390 H   0  0  0  0  0  0  0  0  0  0  0  0
   56.2056   31.3983   51.8798 H   0  0  0  0  0  0  0  0  0  0  0  0
   56.6150   32.3170   50.0780 H   0  0  0  0  0  0  0  0  0  0  0  0
   57.5344   30.9298   54.3655 H   0  0  0  0  0  0  0  0  0  0  0  0
   58.6091   32.3789   56.0909 H   0  0  0  0  0  0  0  0  0  0  0  0
   59.6503   34.5515   55.4297 H   0  0  0  0  0  0  0  0  0  0  0  0
   59.6085   35.2830   53.0400 H   0  0  0  0  0  0  0  0  0  0  0  0
   58.5098   33.8548   51.3098 H   0  0  0  0  0  0  0  0  0  0  0  0
  1  2  2  0
  2  3  1  0
  3  4  1  0
  4  5  1  0
  5  6  1  0
  6  7  2  0
  6  8  1  0
  8  9  2  0
  9 10  1  0
 10 11  2  0
 11 12  1  0
 12 13  2  0
  5 14  1  0
 14 15  1  0
 15 16  1  0
 16 17  1  0
 17 18  1  0
 18 19  1  0
 19 20  1  0
 19 21  1  0
 21 22  2  0
 22 23  1  0
 23 24  2  0
 24 25  1  0
 25 26  2  0
 16  2  1  0
 26 21  1  0
 13  8  1  0
  3 27  1  0
  3 28  1  0
  4 29  1  0
  4 30  1  0
  5 31  1  1
  9 32  1  0
 10 33  1  0
 11 34  1  0
 12 35  1  0
 13 36  1  0
 14 37  1  0
 14 38  1  0
 15 39  1  0
 15 40  1  0
 17 41  1  0
 17 42  1  0
 18 43  1  0
 18 44  1  0
 19 45  1  1
 20 46  1  0
 22 47  1  0
 23 48  1  0
 24 49  1  0
 25 50  1  0
 26 51  1  0
M  CHG  1   5   1
M  END
>  <UniqueID>  (46) 
40

>  <SMILES>  (46) 
O=C1CC[N@H+](C(=O)c2ccccc2)CCN1CC[C@H](O)c1ccccc1

>  <Energy>  (46) 
65.10413077052986

>  <Genealogy>  (46) 
O=C1CC[NH+](C(=O)c2ccccc2)CCN1CCC(O)c1ccccc1 (protonated)
O=C1CC[N@H+](C(=O)c2ccccc2)CCN1CC[C@H](O)c1ccccc1 (chirality)
O=C1CC[N@H+](C(=O)c2ccccc2)CCN1CC[C@H](O)c1ccccc1 (3D coordinates assigned)
O=C1CC[N@H+](C(=O)c2ccccc2)CCN1CC[C@H](O)c1ccccc1 (nonaromatic ring conformer: 65.10413077052986 kcal/mol)

>  <smiles>  (46) 
O=C1CCN(C(=O)c2ccccc2)CCN1CCC(O)c1ccccc1

>  <score_type>  (46) 
oracle

>  <origin>  (46) 
adg

>  <m_score__min__energy>  (46) 
-5.4500000000000002

>  <m_primary>  (46) 
energy

$$$$
46:0
     RDKit          3D

 25 26  0  0  0  0  0  0  0  0999 V2000
   59.0170   34.6060   45.4290 C   0  0  0  0  0  0  0  0  0  0  0  0
   57.7520   33.9780   44.8580 C   0  0  0  0  0  0  0  0  0  0  0  0
   57.9060   32.4920   44.7300 C   0  0  0  0  0  0  0  0  0  0  0  0
   58.1660   31.4430   46.0200 S   0  0  0  0  0  0  0  0  0  0  0  0
   58.2980   30.0810   45.0390 C   0  0  0  0  0  0  0  0  0  0  0  0
   58.5390   28.7140   45.5310 C   0  0  0  0  0  0  0  0  0  0  0  0
   59.7770   28.1270   45.7740 C   0  0  0  0  0  0  0  0  0  0  0  0
   59.6840   26.8090   46.2390 C   0  0  0  0  0  0  0  0  0  0  0  0
   58.3780   26.3510   46.3650 C   0  0  0  0  0  0  0  0  0  0  0  0
   57.3420   27.5880   45.8970 S   0  0  0  0  0  0  0  0  0  0  0  0
   58.1580   30.4130   43.7330 N   0  0  0  0  0  0  0  0  0  0  0  0
   57.9520   31.7470   43.5470 C   0  0  0  0  0  0  0  0  0  0  0  0
   57.7670   32.3380   42.1840 C   0  0  0  0  0  0  0  0  0  0  0  0
   58.9733   34.5843   46.5279 H   0  0  0  0  0  0  0  0  0  0  0  0
   59.8949   34.0391   45.0857 H   0  0  0  0  0  0  0  0  0  0  0  0
   59.0962   35.6480   45.0857 H   0  0  0  0  0  0  0  0  0  0  0  0
   56.9070   34.1966   45.5275 H   0  0  0  0  0  0  0  0  0  0  0  0
   57.5685   34.4007   43.8592 H   0  0  0  0  0  0  0  0  0  0  0  0
   60.7337   28.6465   45.6165 H   0  0  0  0  0  0  0  0  0  0  0  0
   60.5629   26.1937   46.4818 H   0  0  0  0  0  0  0  0  0  0  0  0
   58.0751   25.3518   46.7112 H   0  0  0  0  0  0  0  0  0  0  0  0
   58.2070   29.7270   42.9490 H   0  0  0  0  0  0  0  0  0  0  0  0
   57.4396   33.3838   42.2792 H   0  0  0  0  0  0  0  0  0  0  0  0
   58.7199   32.3005   41.6357 H   0  0  0  0  0  0  0  0  0  0  0  0
   57.0056   31.7639   41.6357 H   0  0  0  0  0  0  0  0  0  0  0  0
  1  2  1  0
  2  3  1  0
  3  4  1  0
  4  5  1  0
  5  6  1  0
  6  7  2  0
  7  8  1  0
  8  9  2  0
  9 10  1  0
  5 11  2  0
 11 12  1  0
 12 13  1  0
 12  3  2  0
 10  6  1  0
  1 14  1  0
  1 15  1  0
  1 16  1  0
  2 17  1  0
  2 18  1  0
  7 19  1  0
  8 20  1  0
  9 21  1  0
 11 22  1  0
 13 23  1  0
 13 24  1  0
 13 25  1  0
M  CHG  1  11   1
M  END
>  <UniqueID>  (47) 
41

>  <SMILES>  (47) 
CCc1sc(-c2cccs2)[nH+]c1C

>  <Energy>  (47) 
75.02861138123184

>  <Genealogy>  (47) 
CCc1sc(-c2cccs2)[nH+]c1C (protonated)
CCc1sc(-c2cccs2)[nH+]c1C (3D coordinates assigned)
CCc1sc(-c2cccs2)[nH+]c1C (optimized conformer: 75.02861138123184 kcal/mol)

>  <smiles>  (47) 
CCc1sc(-c2cccs2)nc1C

>  <score_type>  (47) 
oracle

>  <origin>  (47) 
adg

>  <m_score__min__energy>  (47) 
-4.2999999999999998

>  <m_primary>  (47) 
energy

$$$$
47:0
     RDKit          3D

 46 48  0  0  0  0  0  0  0  0999 V2000
   58.0280   25.3350   47.1130 C   0  0  0  0  0  0  0  0  0  0  0  0
   58.1010   26.5610   46.2520 C   0  0  0  0  0  0  0  0  0  0  0  0
   56.9270   27.1960   45.8330 C   0  0  0  0  0  0  0  0  0  0  0  0
   56.9890   28.3760   45.0930 C   0  0  0  0  0  0  0  0  0  0  0  0
   58.2290   28.9520   44.7540 C   0  0  0  0  0  0  0  0  0  0  0  0
   58.2870   30.2280   44.0800 N   0  0  0  0  0  0  0  0  0  0  0  0
   57.4090   31.3320   44.3460 C   0  0  0  0  0  0  0  0  0  0  0  0
   56.2750   31.1380   44.8600 O   0  0  0  0  0  0  0  0  0  0  0  0
   57.8090   32.7290   43.9630 C   0  0  0  0  0  0  0  0  0  0  0  0
   57.1520   33.7890   44.8670 C   0  0  0  0  0  0  0  0  0  0  0  0
   57.2740   33.4780   46.3690 C   0  0  0  0  0  0  0  0  0  0  0  0
   58.5990   32.9430   46.7100 N   0  0  0  0  0  0  0  0  0  0  0  0
   58.6620   31.6880   47.1670 N   0  0  0  0  0  0  0  0  0  0  0  0
   59.8330   31.0980   47.5130 C   0  0  0  0  0  0  0  0  0  0  0  0
   61.0280   31.8030   47.3790 C   0  0  0  0  0  0  0  0  0  0  0  0
   62.2600   31.2030   47.6820 C   0  0  0  0  0  0  0  0  0  0  0  0
   63.4480   31.9170   47.5080 C   0  0  0  0  0  0  0  0  0  0  0  0
   63.4140   33.2320   47.0400 C   0  0  0  0  0  0  0  0  0  0  0  0
   62.1910   33.8420   46.7430 C   0  0  0  0  0  0  0  0  0  0  0  0
   60.9860   33.1310   46.9050 C   0  0  0  0  0  0  0  0  0  0  0  0
   59.7390   33.6960   46.5820 C   0  0  0  0  0  0  0  0  0  0  0  0
   59.6750   34.8880   46.1650 O   0  0  0  0  0  0  0  0  0  0  0  0
   59.4180   28.3110   45.1790 C   0  0  0  0  0  0  0  0  0  0  0  0
   60.7720   28.8920   44.8710 C   0  0  0  0  0  0  0  0  0  0  0  0
   59.3400   27.1300   45.9380 C   0  0  0  0  0  0  0  0  0  0  0  0
   58.0455   25.6296   48.1727 H   0  0  0  0  0  0  0  0  0  0  0  0
   57.0959   24.7915   46.8989 H   0  0  0  0  0  0  0  0  0  0  0  0
   58.8890   24.6848   46.8989 H   0  0  0  0  0  0  0  0  0  0  0  0
   55.9493   26.7618   46.0889 H   0  0  0  0  0  0  0  0  0  0  0  0
   56.0575   28.8636   44.7697 H   0  0  0  0  0  0  0  0  0  0  0  0
   59.0400   30.3840   43.3740 H   0  0  0  0  0  0  0  0  0  0  0  0
   58.9020   32.8203   44.0463 H   0  0  0  0  0  0  0  0  0  0  0  0
   57.4707   32.9071   42.9316 H   0  0  0  0  0  0  0  0  0  0  0  0
   57.6333   34.7588   44.6724 H   0  0  0  0  0  0  0  0  0  0  0  0
   56.0789   33.7989   44.6255 H   0  0  0  0  0  0  0  0  0  0  0  0
   57.1065   34.4038   46.9390 H   0  0  0  0  0  0  0  0  0  0  0  0
   56.5223   32.7159   46.6223 H   0  0  0  0  0  0  0  0  0  0  0  0
   59.8398   30.0675   47.8977 H   0  0  0  0  0  0  0  0  0  0  0  0
   62.2902   30.1693   48.0569 H   0  0  0  0  0  0  0  0  0  0  0  0
   64.4126   31.4421   47.7403 H   0  0  0  0  0  0  0  0  0  0  0  0
   64.3522   33.7901   46.9044 H   0  0  0  0  0  0  0  0  0  0  0  0
   62.1701   34.8807   46.3816 H   0  0  0  0  0  0  0  0  0  0  0  0
   61.2968   29.1172   45.8111 H   0  0  0  0  0  0  0  0  0  0  0  0
   61.3585   28.1663   44.2884 H   0  0  0  0  0  0  0  0  0  0  0  0
   60.6502   29.8171   44.2884 H   0  0  0  0  0  0  0  0  0  0  0  0
   60.2641   26.6476   46.2891 H   0  0  0  0  0  0  0  0  0  0  0  0
  1  2  1  0
  2  3  2  0
  3  4  1  0
  4  5  2  0
  5  6  1  0
  6  7  1  0
  7  8  2  0
  7  9  1  0
  9 10  1  0
 10 11  1  0
 11 12  1  0
 12 13  1  0
 13 14  2  0
 14 15  1  0
 15 16  2  0
 16 17  1  0
 17 18  2  0
 18 19  1  0
 19 20  2  0
 20 21  1  0
 21 22  2  0
  5 23  1  0
 23 24  1  0
 23 25  2  0
 25  2  1  0
 21 12  1  0
 20 15  1  0
  1 26  1  0
  1 27  1  0
  1 28  1  0
  3 29  1  0
  4 30  1  0
  6 31  1  0
  9 32  1  0
  9 33  1  0
 10 34  1  0
 10 35  1  0
 11 36  1  0
 11 37  1  0
 14 38  1  0
 16 39  1  0
 17 40  1  0
 18 41  1  0
 19 42  1  0
 24 43  1  0
 24 44  1  0
 24 45  1  0
 25 46  1  0
M  END
>  <UniqueID>  (48) 
42

>  <SMILES>  (48) 
Cc1ccc(NC(=O)CCCn2ncc3ccccc3c2=O)c(C)c1

>  <Energy>  (48) 
47.47435381349282

>  <Genealogy>  (48) 
Cc1ccc(NC(=O)CCCn2ncc3ccccc3c2=O)c(C)c1 (3D coordinates assigned)
Cc1ccc(NC(=O)CCCn2ncc3ccccc3c2=O)c(C)c1 (optimized conformer: 47.47435381349282 kcal/mol)

>  <smiles>  (48) 
Cc1ccc(NC(=O)CCCn2ncc3ccccc3c2=O)c(C)c1

>  <score_type>  (48) 
oracle

>  <origin>  (48) 
adg

>  <m_score__min__energy>  (48) 
-8.8499999999999996

>  <m_primary>  (48) 
energy

$$$$
48:0
     RDKit          3D

 42 44  0  0  0  0  0  0  0  0999 V2000
   58.1320   32.0630   42.5510 C   0  0  0  0  0  0  0  0  0  0  0  0
   58.0670   32.7580   43.8820 C   0  0  0  0  0  0  0  0  0  0  0  0
   58.8960   33.8620   44.1400 C   0  0  0  0  0  0  0  0  0  0  0  0
   58.8280   34.5250   45.3670 C   0  0  0  0  0  0  0  0  0  0  0  0
   57.9330   34.0910   46.3460 C   0  0  0  0  0  0  0  0  0  0  0  0
   57.1000   32.9990   46.0990 C   0  0  0  0  0  0  0  0  0  0  0  0
   57.1490   32.3280   44.8610 C   0  0  0  0  0  0  0  0  0  0  0  0
   56.3110   31.2360   44.5680 O   0  0  0  0  0  0  0  0  0  0  0  0
   56.7500   29.9520   44.1230 C   0  0  0  0  0  0  0  0  0  0  0  0
   57.6490   29.3190   45.1560 C   0  0  0  0  0  0  0  0  0  0  0  0
   58.8910   29.8840   45.4630 C   0  0  0  0  0  0  0  0  0  0  0  0
   59.6740   29.3600   46.4500 N   0  0  0  0  0  0  0  0  0  0  0  0
   60.9220   30.0520   46.8100 C   0  0  0  0  0  0  0  0  0  0  0  0
   60.6070   31.3750   47.4560 C   0  0  0  0  0  0  0  0  0  0  0  0
   61.3820   32.5110   47.1660 C   0  0  0  0  0  0  0  0  0  0  0  0
   61.1180   33.7260   47.8060 C   0  0  0  0  0  0  0  0  0  0  0  0
   60.0850   33.8140   48.7440 C   0  0  0  0  0  0  0  0  0  0  0  0
   59.3150   32.6870   49.0440 C   0  0  0  0  0  0  0  0  0  0  0  0
   59.5760   31.4700   48.4070 C   0  0  0  0  0  0  0  0  0  0  0  0
   59.2500   28.2520   47.1380 C   0  0  0  0  0  0  0  0  0  0  0  0
   59.9570   27.7590   48.0610 O   0  0  0  0  0  0  0  0  0  0  0  0
   58.0580   27.6710   46.8360 N   0  0  0  0  0  0  0  0  0  0  0  0
   57.2500   28.1820   45.8700 C   0  0  0  0  0  0  0  0  0  0  0  0
   56.1410   27.6320   45.6280 O   0  0  0  0  0  0  0  0  0  0  0  0
   58.2334   30.9790   42.7080 H   0  0  0  0  0  0  0  0  0  0  0  0
   57.2109   32.2670   41.9854 H   0  0  0  0  0  0  0  0  0  0  0  0
   58.9993   32.4343   41.9854 H   0  0  0  0  0  0  0  0  0  0  0  0
   59.6030   34.2064   43.3709 H   0  0  0  0  0  0  0  0  0  0  0  0
   59.4798   35.3894   45.5620 H   0  0  0  0  0  0  0  0  0  0  0  0
   57.8841   34.6107   47.3142 H   0  0  0  0  0  0  0  0  0  0  0  0
   56.3999   32.6595   46.8766 H   0  0  0  0  0  0  0  0  0  0  0  0
   55.8749   29.3061   43.9589 H   0  0  0  0  0  0  0  0  0  0  0  0
   57.3116   30.0712   43.1847 H   0  0  0  0  0  0  0  0  0  0  0  0
   59.2413   30.7625   44.9013 H   0  0  0  0  0  0  0  0  0  0  0  0
   61.4941   29.4296   47.5138 H   0  0  0  0  0  0  0  0  0  0  0  0
   61.5150   30.2257   45.9000 H   0  0  0  0  0  0  0  0  0  0  0  0
   62.1993   32.4441   46.4328 H   0  0  0  0  0  0  0  0  0  0  0  0
   61.7238   34.6136   47.5711 H   0  0  0  0  0  0  0  0  0  0  0  0
   59.8783   34.7707   49.2461 H   0  0  0  0  0  0  0  0  0  0  0  0
   58.5025   32.7575   49.7822 H   0  0  0  0  0  0  0  0  0  0  0  0
   58.9723   30.5834   48.6509 H   0  0  0  0  0  0  0  0  0  0  0  0
   57.7490   26.8240   47.3660 H   0  0  0  0  0  0  0  0  0  0  0  0
  1  2  1  0
  2  3  2  0
  3  4  1  0
  4  5  2  0
  5  6  1  0
  6  7  2  0
  7  8  1  0
  8  9  1  0
  9 10  1  0
 10 11  2  0
 11 12  1  0
 12 13  1  0
 13 14  1  0
 14 15  2  0
 15 16  1  0
 16 17  2  0
 17 18  1  0
 18 19  2  0
 12 20  1  0
 20 21  2  0
 20 22  1  0
 22 23  1  0
 23 24  2  0
  7  2  1  0
 23 10  1  0
 19 14  1  0
  1 25  1  0
  1 26  1  0
  1 27  1  0
  3 28  1  0
  4 29  1  0
  5 30  1  0
  6 31  1  0
  9 32  1  0
  9 33  1  0
 11 34  1  0
 13 35  1  0
 13 36  1  0
 15 37  1  0
 16 38  1  0
 17 39  1  0
 18 40  1  0
 19 41  1  0
 22 42  1  0
M  END
>  <UniqueID>  (49) 
43

>  <SMILES>  (49) 
Cc1ccccc1OCc1cn(Cc2ccccc2)c(=O)[nH]c1=O

>  <Energy>  (49) 
44.84006778371084

>  <Genealogy>  (49) 
Cc1ccccc1OCc1cn(Cc2ccccc2)c(=O)[nH]c1=O (3D coordinates assigned)
Cc1ccccc1OCc1cn(Cc2ccccc2)c(=O)[nH]c1=O (optimized conformer: 44.84006778371084 kcal/mol)

>  <smiles>  (49) 
Cc1ccccc1OCc1cn(Cc2ccccc2)c(=O)[nH]c1=O

>  <score_type>  (49) 
oracle

>  <origin>  (49) 
adg

>  <m_score__min__energy>  (49) 
-7.6699999999999999

>  <m_primary>  (49) 
energy

$$$$
49:0
     RDKit          3D

 37 40  0  0  1  0  0  0  0  0999 V2000
   59.0800   31.1500   46.2940 C   0  0  0  0  0  0  0  0  0  0  0  0
   58.3030   30.7880   45.0980 C   0  0  0  0  0  0  0  0  0  0  0  0
   58.0900   31.7720   44.1720 N   0  0  0  0  0  0  0  0  0  0  0  0
   57.3690   31.6030   43.0560 C   0  0  0  0  0  0  0  0  0  0  0  0
   56.8190   30.3590   42.8470 C   0  0  0  0  0  0  0  0  0  0  0  0
   57.0180   29.3640   43.7560 C   0  0  0  0  0  0  0  0  0  0  0  0
   57.7760   29.5380   44.9260 C   0  0  0  0  0  0  0  0  0  0  0  0
   57.8810   28.4130   45.8030 C   0  0  0  0  0  0  0  0  0  0  0  0
   58.8880   28.0970   46.6700 C   0  0  0  0  0  0  0  0  0  0  0  0
   58.8770   26.9280   47.4470 C   0  0  0  0  0  0  0  0  0  0  0  0
   57.8440   26.0550   47.3600 N   0  0  0  0  0  0  0  0  0  0  0  0
   56.8660   26.3760   46.5070 C   0  0  0  0  0  0  0  0  0  0  0  0
   55.8540   25.5880   46.3760 N   0  0  0  0  0  0  0  0  0  0  0  0
   56.1300   24.2580   45.8920 C   0  0  0  0  0  0  0  0  0  0  0  0
   56.4550   23.2260   46.7320 C   0  0  0  0  0  0  0  0  0  0  0  0
   56.7000   21.9880   46.1400 C   0  0  0  0  0  0  0  0  0  0  0  0
   56.6110   21.8240   44.7620 C   0  0  0  0  0  0  0  0  0  0  0  0
   56.7820   20.7920   43.9200 N   0  0  0  0  0  0  0  0  0  0  0  0
   56.5790   21.1580   42.6680 N   0  0  0  0  0  0  0  0  0  0  0  0
   56.2600   22.4650   42.6270 C   0  0  0  0  0  0  0  0  0  0  0  0
   56.2770   22.8970   43.9370 C   0  0  0  0  0  0  0  0  0  0  0  0
   56.0370   24.1100   44.5090 C   0  0  0  0  0  0  0  0  0  0  0  0
   56.8620   27.4920   45.7570 N   0  0  0  0  0  0  0  0  0  0  0  0
   58.5095   30.8842   47.1962 H   0  0  0  0  0  0  0  0  0  0  0  0
   60.0350   30.6041   46.2900 H   0  0  0  0  0  0  0  0  0  0  0  0
   59.2764   32.2323   46.2900 H   0  0  0  0  0  0  0  0  0  0  0  0
   57.2228   32.4231   42.3376 H   0  0  0  0  0  0  0  0  0  0  0  0
   56.2184   30.1679   41.9455 H   0  0  0  0  0  0  0  0  0  0  0  0
   56.5648   28.3800   43.5653 H   0  0  0  0  0  0  0  0  0  0  0  0
   59.7409   28.7854   46.7630 H   0  0  0  0  0  0  0  0  0  0  0  0
   59.7126   26.7190   48.1312 H   0  0  0  0  0  0  0  0  0  0  0  0
   57.8580   25.2080   47.9370 H   0  0  0  0  0  0  0  0  0  0  0  0
   56.5195   23.3673   47.8210 H   0  0  0  0  0  0  0  0  0  0  0  0
   56.9676   21.1284   46.7720 H   0  0  0  0  0  0  0  0  0  0  0  0
   57.0420   19.8210   44.1910 H   0  0  0  0  0  0  0  0  0  0  0  0
   56.0327   23.0648   41.7334 H   0  0  0  0  0  0  0  0  0  0  0  0
   55.7700   24.9720   43.8799 H   0  0  0  0  0  0  0  0  0  0  0  0
  1  2  1  0
  2  3  2  0
  3  4  1  0
  4  5  2  0
  5  6  1  0
  6  7  2  0
  7  8  1  0
  8  9  1  0
  9 10  2  0
 10 11  1  0
 11 12  1  0
 12 13  2  0
 13 14  1  0
 14 15  2  0
 15 16  1  0
 16 17  2  0
 17 18  1  0
 18 19  1  0
 19 20  2  0
 20 21  1  0
 21 22  2  0
 12 23  1  0
  7  2  1  0
 23  8  2  0
 22 14  1  0
 21 17  1  0
  1 24  1  0
  1 25  1  0
  1 26  1  0
  4 27  1  0
  5 28  1  0
  6 29  1  0
  9 30  1  0
 10 31  1  0
 11 32  1  0
 15 33  1  0
 16 34  1  0
 18 35  1  0
 20 36  1  0
 22 37  1  0
M  END
>  <smiles>  (50) 
Cc1ncccc1-c1cc[nH]c(=Nc2ccc3[nH]ncc3c2)n1

>  <score_type>  (50) 
oracle

>  <origin>  (50) 
adg

>  <m_score__min__energy>  (50) 
-8.1199999999999992

>  <m_primary>  (50) 
energy

$$$$
