0:0
     RDKit          3D

 50 52  0  0  0  0  0  0  0  0999 V2000
   62.7030   33.8480   46.3650 C   0  0  0  0  0  0  0  0  0  0  0  0
   63.7620   33.0660   47.1410 C   0  0  0  0  0  0  0  0  0  0  0  0
   63.1400   32.3150   48.2530 N   0  0  0  0  0  0  0  0  0  0  0  0
   64.1290   32.0860   49.3220 C   0  0  0  0  0  0  0  0  0  0  0  0
   61.9530   33.0220   48.7870 C   0  0  0  0  0  0  0  0  0  0  0  0
   61.1470   32.0930   49.6970 C   0  0  0  0  0  0  0  0  0  0  0  0
   59.7330   32.1060   49.3200 N   0  0  0  0  0  0  0  0  0  0  0  0
   59.3220   31.8010   47.9770 C   0  0  0  0  0  0  0  0  0  0  0  0
   58.9890   32.8370   47.0880 C   0  0  0  0  0  0  0  0  0  0  0  0
   58.6450   32.5300   45.7580 C   0  0  0  0  0  0  0  0  0  0  0  0
   58.4890   31.2190   45.3580 N   0  0  0  0  0  0  0  0  0  0  0  0
   57.8520   30.9200   44.0590 C   0  0  0  0  0  0  0  0  0  0  0  0
   58.9060   30.1930   46.1840 C   0  0  0  0  0  0  0  0  0  0  0  0
   58.9690   28.8500   45.7310 C   0  0  0  0  0  0  0  0  0  0  0  0
   59.3270   27.8140   46.5950 C   0  0  0  0  0  0  0  0  0  0  0  0
   59.3870   26.1620   46.0090 Cl  0  0  0  0  0  0  0  0  0  0  0  0
   59.6330   28.0880   47.9240 C   0  0  0  0  0  0  0  0  0  0  0  0
   59.6180   29.4010   48.3880 C   0  0  0  0  0  0  0  0  0  0  0  0
   59.2950   30.4680   47.5240 C   0  0  0  0  0  0  0  0  0  0  0  0
   58.4530   33.7020   44.8080 C   0  0  0  0  0  0  0  0  0  0  0  0
   59.5220   34.7730   45.0600 C   0  0  0  0  0  0  0  0  0  0  0  0
   59.5870   35.2390   46.5280 C   0  0  0  0  0  0  0  0  0  0  0  0
   58.9080   34.2860   47.5270 C   0  0  0  0  0  0  0  0  0  0  0  0
   62.0252   34.3485   47.0722 H   0  0  0  0  0  0  0  0  0  0  0  0
   63.1942   34.6017   45.7321 H   0  0  0  0  0  0  0  0  0  0  0  0
   62.1272   33.1567   45.7321 H   0  0  0  0  0  0  0  0  0  0  0  0
   64.2607   32.3594   46.4613 H   0  0  0  0  0  0  0  0  0  0  0  0
   64.4944   33.7742   47.5558 H   0  0  0  0  0  0  0  0  0  0  0  0
   63.6423   32.1987   50.3020 H   0  0  0  0  0  0  0  0  0  0  0  0
   64.5387   31.0692   49.2308 H   0  0  0  0  0  0  0  0  0  0  0  0
   64.9439   32.8192   49.2308 H   0  0  0  0  0  0  0  0  0  0  0  0
   62.2819   33.8991   49.3636 H   0  0  0  0  0  0  0  0  0  0  0  0
   61.3178   33.3400   47.9471 H   0  0  0  0  0  0  0  0  0  0  0  0
   61.5368   31.0685   49.6048 H   0  0  0  0  0  0  0  0  0  0  0  0
   61.2414   32.4428   50.7356 H   0  0  0  0  0  0  0  0  0  0  0  0
   59.0650   32.6090   49.9460 H   0  0  0  0  0  0  0  0  0  0  0  0
   56.8684   30.4583   44.2306 H   0  0  0  0  0  0  0  0  0  0  0  0
   57.7250   31.8526   43.4896 H   0  0  0  0  0  0  0  0  0  0  0  0
   58.4883   30.2265   43.4896 H   0  0  0  0  0  0  0  0  0  0  0  0
   58.7318   28.6215   44.6815 H   0  0  0  0  0  0  0  0  0  0  0  0
   59.8872   27.2662   48.6096 H   0  0  0  0  0  0  0  0  0  0  0  0
   59.8609   29.6083   49.4406 H   0  0  0  0  0  0  0  0  0  0  0  0
   58.5344   33.3452   43.7707 H   0  0  0  0  0  0  0  0  0  0  0  0
   57.4592   34.1416   44.9787 H   0  0  0  0  0  0  0  0  0  0  0  0
   60.5025   34.3593   44.7817 H   0  0  0  0  0  0  0  0  0  0  0  0
   59.2532   35.6497   44.4524 H   0  0  0  0  0  0  0  0  0  0  0  0
   60.6453   35.3377   46.8113 H   0  0  0  0  0  0  0  0  0  0  0  0
   59.0391   36.1914   46.5800 H   0  0  0  0  0  0  0  0  0  0  0  0
   59.4025   34.3874   48.5043 H   0  0  0  0  0  0  0  0  0  0  0  0
   57.8444   34.5609   47.5837 H   0  0  0  0  0  0  0  0  0  0  0  0
  1  2  1  0
  2  3  1  0
  3  4  1  0
  3  5  1  0
  5  6  1  0
  6  7  1  0
  7  8  1  0
  8  9  2  0
  9 10  1  0
 10 11  2  0
 11 12  1  0
 11 13  1  0
 13 14  2  0
 14 15  1  0
 15 16  1  0
 15 17  2  0
 17 18  1  0
 18 19  2  0
 10 20  1  0
 20 21  1  0
 21 22  1  0
 22 23  1  0
 19  8  1  0
 23  9  1  0
 19 13  1  0
  1 24  1  0
  1 25  1  0
  1 26  1  0
  2 27  1  0
  2 28  1  0
  4 29  1  0
  4 30  1  0
  4 31  1  0
  5 32  1  0
  5 33  1  0
  6 34  1  0
  6 35  1  0
  7 36  1  0
 12 37  1  0
 12 38  1  0
 12 39  1  0
 14 40  1  0
 17 41  1  0
 18 42  1  0
 20 43  1  0
 20 44  1  0
 21 45  1  0
 21 46  1  0
 22 47  1  0
 22 48  1  0
 23 49  1  0
 23 50  1  0
M  CHG  1  11   1
M  END
>  <UniqueID>  (1) 
1

>  <SMILES>  (1) 
CCN(C)CCNc1c2c([n+](C)c3cc(Cl)ccc13)CCCC2

>  <Energy>  (1) 
73.01850437629838

>  <Genealogy>  (1) 
CCN(C)CCNc1c2c([n+](C)c3cc(Cl)ccc13)CCCC2 (3D coordinates assigned)
CCN(C)CCNc1c2c([n+](C)c3cc(Cl)ccc13)CCCC2 (nonaromatic ring conformer: 73.01850437629838 kcal/mol)

>  <smiles>  (1) 
CCN(C)CCNc1c2c([n+](C)c3cc(Cl)ccc13)CCCC2

>  <score_type>  (1) 
oracle

>  <origin>  (1) 
adg

>  <m_score__min__energy>  (1) 
-5.96

>  <m_primary>  (1) 
energy

$$$$
1:0
     RDKit          3D

 49 50  0  0  0  0  0  0  0  0999 V2000
   63.7110   32.5340   47.3390 C   0  0  0  0  0  0  0  0  0  0  0  0
   63.4520   33.8330   48.0990 C   0  0  0  0  0  0  0  0  0  0  0  0
   62.0810   33.8630   48.6370 N   0  0  0  0  0  0  0  0  0  0  0  0
   61.8880   33.7950   50.0960 C   0  0  0  0  0  0  0  0  0  0  0  0
   62.3770   32.4590   50.6690 C   0  0  0  0  0  0  0  0  0  0  0  0
   61.3850   31.0930   50.0930 Cl  0  0  0  0  0  0  0  0  0  0  0  0
   60.9330   33.9380   47.7510 C   0  0  0  0  0  0  0  0  0  0  0  0
   59.6250   33.7540   48.2440 C   0  0  0  0  0  0  0  0  0  0  0  0
   58.5240   33.8200   47.3850 C   0  0  0  0  0  0  0  0  0  0  0  0
   58.7020   34.0820   46.0200 C   0  0  0  0  0  0  0  0  0  0  0  0
   57.5190   34.1130   45.0910 C   0  0  0  0  0  0  0  0  0  0  0  0
   57.0420   32.6900   44.7790 C   0  0  0  0  0  0  0  0  0  0  0  0
   57.9760   32.0030   43.7630 C   0  0  0  0  0  0  0  0  0  0  0  0
   57.8010   30.5290   43.7420 N   0  0  0  0  0  0  0  0  0  0  0  0
   56.5640   30.1550   43.0030 C   0  0  0  0  0  0  0  0  0  0  0  0
   55.3910   29.8730   43.9590 C   0  0  0  0  0  0  0  0  0  0  0  0
   55.6420   28.8110   44.8690 O   0  0  0  0  0  0  0  0  0  0  0  0
   57.0160   28.6500   45.1920 C   0  0  0  0  0  0  0  0  0  0  0  0
   57.8230   29.9580   45.1150 C   0  0  0  0  0  0  0  0  0  0  0  0
   59.9990   34.2580   45.5200 C   0  0  0  0  0  0  0  0  0  0  0  0
   61.1020   34.1930   46.3760 C   0  0  0  0  0  0  0  0  0  0  0  0
   63.8741   31.7159   48.0561 H   0  0  0  0  0  0  0  0  0  0  0  0
   62.8419   32.2996   46.7068 H   0  0  0  0  0  0  0  0  0  0  0  0
   64.6035   32.6508   46.7068 H   0  0  0  0  0  0  0  0  0  0  0  0
   64.1672   33.9122   48.9310 H   0  0  0  0  0  0  0  0  0  0  0  0
   63.5755   34.6770   47.4045 H   0  0  0  0  0  0  0  0  0  0  0  0
   62.4505   34.6135   50.5689 H   0  0  0  0  0  0  0  0  0  0  0  0
   60.8119   33.8855   50.3051 H   0  0  0  0  0  0  0  0  0  0  0  0
   63.4200   32.2982   50.3587 H   0  0  0  0  0  0  0  0  0  0  0  0
   62.2950   32.5048   51.7650 H   0  0  0  0  0  0  0  0  0  0  0  0
   59.4693   33.5566   49.3149 H   0  0  0  0  0  0  0  0  0  0  0  0
   57.5105   33.6651   47.7836 H   0  0  0  0  0  0  0  0  0  0  0  0
   56.7002   34.6728   45.5666 H   0  0  0  0  0  0  0  0  0  0  0  0
   57.8178   34.6013   44.1517 H   0  0  0  0  0  0  0  0  0  0  0  0
   57.0290   32.1032   45.7093 H   0  0  0  0  0  0  0  0  0  0  0  0
   56.0332   32.7466   44.3441 H   0  0  0  0  0  0  0  0  0  0  0  0
   57.7595   32.3990   42.7598 H   0  0  0  0  0  0  0  0  0  0  0  0
   59.0128   32.2139   44.0638 H   0  0  0  0  0  0  0  0  0  0  0  0
   58.6090   30.1220   43.2110 H   0  0  0  0  0  0  0  0  0  0  0  0
   56.2861   30.9815   42.3324 H   0  0  0  0  0  0  0  0  0  0  0  0
   56.7699   29.2365   42.4338 H   0  0  0  0  0  0  0  0  0  0  0  0
   55.1867   30.7859   44.5376 H   0  0  0  0  0  0  0  0  0  0  0  0
   54.5345   29.5707   43.3385 H   0  0  0  0  0  0  0  0  0  0  0  0
   57.0888   28.2560   46.2164 H   0  0  0  0  0  0  0  0  0  0  0  0
   57.4443   27.9618   44.4484 H   0  0  0  0  0  0  0  0  0  0  0  0
   57.3884   30.6883   45.8134 H   0  0  0  0  0  0  0  0  0  0  0  0
   58.8671   29.7368   45.3813 H   0  0  0  0  0  0  0  0  0  0  0  0
   60.1501   34.4485   44.4472 H   0  0  0  0  0  0  0  0  0  0  0  0
   62.1138   34.3427   45.9712 H   0  0  0  0  0  0  0  0  0  0  0  0
  1  2  1  0
  2  3  1  0
  3  4  1  0
  4  5  1  0
  5  6  1  0
  3  7  1  0
  7  8  2  0
  8  9  1  0
  9 10  2  0
 10 11  1  0
 11 12  1  0
 12 13  1  0
 13 14  1  0
 14 15  1  0
 15 16  1  0
 16 17  1  0
 17 18  1  0
 18 19  1  0
 10 20  1  0
 20 21  2  0
 21  7  1  0
 19 14  1  0
  1 22  1  0
  1 23  1  0
  1 24  1  0
  2 25  1  0
  2 26  1  0
  4 27  1  0
  4 28  1  0
  5 29  1  0
  5 30  1  0
  8 31  1  0
  9 32  1  0
 11 33  1  0
 11 34  1  0
 12 35  1  0
 12 36  1  0
 13 37  1  0
 13 38  1  0
 14 39  1  0
 15 40  1  0
 15 41  1  0
 16 42  1  0
 16 43  1  0
 18 44  1  0
 18 45  1  0
 19 46  1  0
 19 47  1  0
 20 48  1  0
 21 49  1  0
M  CHG  1  14   1
M  END
>  <UniqueID>  (2) 
2

>  <SMILES>  (2) 
CCN(CCCl)c1ccc(CCC[NH+]2CCOCC2)cc1

>  <Energy>  (2) 
57.348967905057705

>  <Genealogy>  (2) 
CCN(CCCl)c1ccc(CCC[NH+]2CCOCC2)cc1 (protonated)
CCN(CCCl)c1ccc(CCC[NH+]2CCOCC2)cc1 (3D coordinates assigned)
CCN(CCCl)c1ccc(CCC[NH+]2CCOCC2)cc1 (nonaromatic ring conformer: 57.348967905057705 kcal/mol)

>  <smiles>  (2) 
CCN(CCCl)c1ccc(CCCN2CCOCC2)cc1

>  <score_type>  (2) 
oracle

>  <origin>  (2) 
adg

>  <m_score__min__energy>  (2) 
-6.04

>  <m_primary>  (2) 
energy

$$$$
2:0
     RDKit          3D

 74 76  0  0  0  0  0  0  0  0999 V2000
   56.9066   28.0298   44.7578 H   0  0  0  0  0  0  0  0  0  0  0  0
   57.6130   28.8490   44.5580 C   0  0  0  0  0  0  0  0  0  0  0  0
   58.5140   29.2680   45.5900 N   0  0  0  0  0  0  0  0  0  0  0  0
   58.5050   28.7580   46.5040 H   0  0  0  0  0  0  0  0  0  0  0  0
   59.4890   30.1890   45.3520 O   0  0  0  0  0  0  0  0  0  0  0  0
   60.6940   29.6790   45.8800 C   0  0  0  0  0  0  0  0  0  0  0  0
   61.5436   30.1474   45.3616 H   0  0  0  0  0  0  0  0  0  0  0  0
   60.7148   28.5891   45.7324 H   0  0  0  0  0  0  0  0  0  0  0  0
   60.7900   29.9780   47.3750 C   0  0  0  0  0  0  0  0  0  0  0  0
   61.1642   31.0018   47.5225 H   0  0  0  0  0  0  0  0  0  0  0  0
   61.4814   29.2673   47.8512 H   0  0  0  0  0  0  0  0  0  0  0  0
   59.5070   29.8550   47.9550 O   0  0  0  0  0  0  0  0  0  0  0  0
   59.5270   28.9310   49.0250 C   0  0  0  0  0  0  0  0  0  0  0  0
   58.5031   28.7883   49.4008 H   0  0  0  0  0  0  0  0  0  0  0  0
   60.1702   29.3240   49.8261 H   0  0  0  0  0  0  0  0  0  0  0  0
   60.0860   27.5810   48.5510 C   0  0  0  0  0  0  0  0  0  0  0  0
   59.8732   26.8154   49.3117 H   0  0  0  0  0  0  0  0  0  0  0  0
   61.1712   27.6814   48.4021 H   0  0  0  0  0  0  0  0  0  0  0  0
   59.4670   27.1770   47.2700 N   0  0  0  0  0  0  0  0  0  0  0  0
   60.3910   26.3970   46.4280 C   0  0  0  0  0  0  0  0  0  0  0  0
   61.0738   25.8206   47.0696 H   0  0  0  0  0  0  0  0  0  0  0  0
   59.8152   25.7077   45.7929 H   0  0  0  0  0  0  0  0  0  0  0  0
   60.9739   27.0803   45.7929 H   0  0  0  0  0  0  0  0  0  0  0  0
   58.1710   26.4840   47.4590 C   0  0  0  0  0  0  0  0  0  0  0  0
   57.4492   27.2066   47.8674 H   0  0  0  0  0  0  0  0  0  0  0  0
   58.3586   25.6403   48.1394 H   0  0  0  0  0  0  0  0  0  0  0  0
   57.5830   25.8910   46.1690 C   0  0  0  0  0  0  0  0  0  0  0  0
   56.8297   25.1313   46.4248 H   0  0  0  0  0  0  0  0  0  0  0  0
   57.1114   26.6910   45.5794 H   0  0  0  0  0  0  0  0  0  0  0  0
   58.3870   25.4262   45.5794 H   0  0  0  0  0  0  0  0  0  0  0  0
   57.6150   29.4200   43.3880 N   0  0  0  0  0  0  0  0  0  0  0  0
   58.1030   28.9560   42.5880 H   0  0  0  0  0  0  0  0  0  0  0  0
   56.9770   30.7180   43.1520 C   0  0  0  0  0  0  0  0  0  0  0  0
   57.7422   31.4491   42.8522 H   0  0  0  0  0  0  0  0  0  0  0  0
   56.2273   30.6081   42.3546 H   0  0  0  0  0  0  0  0  0  0  0  0
   56.2790   31.2100   44.4290 C   0  0  0  0  0  0  0  0  0  0  0  0
   55.5926   32.0297   44.1704 H   0  0  0  0  0  0  0  0  0  0  0  0
   55.7261   30.3684   44.8717 H   0  0  0  0  0  0  0  0  0  0  0  0
   57.2590   31.6960   45.4140 N   0  0  0  0  0  0  0  0  0  0  0  0
   58.2160   31.3960   45.1110 H   0  0  0  0  0  0  0  0  0  0  0  0
   57.2840   33.1660   45.4880 C   0  0  0  0  0  0  0  0  0  0  0  0
   57.7254   33.5591   44.5603 H   0  0  0  0  0  0  0  0  0  0  0  0
   56.2486   33.5133   45.6198 H   0  0  0  0  0  0  0  0  0  0  0  0
   58.1050   33.6770   46.6800 C   0  0  0  0  0  0  0  0  0  0  0  0
   58.8118   34.4415   46.3249 H   0  0  0  0  0  0  0  0  0  0  0  0
   57.4095   34.0981   47.4210 H   0  0  0  0  0  0  0  0  0  0  0  0
   58.8570   32.5960   47.3210 N   0  0  0  0  0  0  0  0  0  0  0  0
   58.8980   31.6500   46.8800 H   0  0  0  0  0  0  0  0  0  0  0  0
   59.7870   32.8950   48.3740 C   0  0  0  0  0  0  0  0  0  0  0  0
   61.1050   33.2760   48.0690 C   0  0  0  0  0  0  0  0  0  0  0  0
   61.5130   33.4550   46.7300 C   0  0  0  0  0  0  0  0  0  0  0  0
   60.7745   33.3669   45.9196 H   0  0  0  0  0  0  0  0  0  0  0  0
   62.8410   33.7420   46.4240 C   0  0  0  0  0  0  0  0  0  0  0  0
   63.1458   33.8818   45.3764 H   0  0  0  0  0  0  0  0  0  0  0  0
   63.7820   33.8520   47.4420 C   0  0  0  0  0  0  0  0  0  0  0  0
   64.8374   34.0398   47.1952 H   0  0  0  0  0  0  0  0  0  0  0  0
   63.3920   33.7250   48.7740 C   0  0  0  0  0  0  0  0  0  0  0  0
   64.1469   33.8138   49.5692 H   0  0  0  0  0  0  0  0  0  0  0  0
   62.0370   33.4830   49.1220 C   0  0  0  0  0  0  0  0  0  0  0  0
   61.6190   33.4330   50.4390 N   0  0  0  0  0  0  0  0  0  0  0  0
   62.5090   33.9240   51.5180 C   0  0  0  0  0  0  0  0  0  0  0  0
   62.0682   33.6808   52.4960 H   0  0  0  0  0  0  0  0  0  0  0  0
   63.4935   33.4414   51.4293 H   0  0  0  0  0  0  0  0  0  0  0  0
   62.6258   35.0142   51.4293 H   0  0  0  0  0  0  0  0  0  0  0  0
   60.3580   32.9540   50.7490 C   0  0  0  0  0  0  0  0  0  0  0  0
   59.9740   32.6660   52.0840 C   0  0  0  0  0  0  0  0  0  0  0  0
   60.7042   32.7942   52.8966 H   0  0  0  0  0  0  0  0  0  0  0  0
   58.6860   32.2230   52.3830 C   0  0  0  0  0  0  0  0  0  0  0  0
   58.4050   32.0215   53.4272 H   0  0  0  0  0  0  0  0  0  0  0  0
   57.7560   32.0350   51.3680 C   0  0  0  0  0  0  0  0  0  0  0  0
   56.7363   31.7024   51.6120 H   0  0  0  0  0  0  0  0  0  0  0  0
   58.1130   32.2670   50.0430 C   0  0  0  0  0  0  0  0  0  0  0  0
   57.3755   32.1030   49.2435 H   0  0  0  0  0  0  0  0  0  0  0  0
   59.4130   32.7110   49.7150 C   0  0  0  0  0  0  0  0  0  0  0  0
  1  2  1  0
  2  3  1  0
  3  4  1  0
  3  5  1  0
  5  6  1  0
  6  7  1  0
  6  8  1  0
  6  9  1  0
  9 10  1  0
  9 11  1  0
  9 12  1  0
 12 13  1  0
 13 14  1  0
 13 15  1  0
 13 16  1  0
 16 17  1  0
 16 18  1  0
 16 19  1  0
 19 20  1  0
 20 21  1  0
 20 22  1  0
 20 23  1  0
 19 24  1  0
 24 25  1  0
 24 26  1  0
 24 27  1  0
 27 28  1  0
 27 29  1  0
 27 30  1  0
  2 31  2  0
 31 32  1  0
 31 33  1  0
 33 34  1  0
 33 35  1  0
 33 36  1  0
 36 37  1  0
 36 38  1  0
 36 39  1  0
 39 40  1  0
 39 41  1  0
 41 42  1  0
 41 43  1  0
 41 44  1  0
 44 45  1  0
 44 46  1  0
 44 47  1  0
 47 48  1  0
 47 49  1  0
 49 50  2  0
 50 51  1  0
 51 52  1  0
 51 53  2  0
 53 54  1  0
 53 55  1  0
 55 56  1  0
 55 57  2  0
 57 58  1  0
 57 59  1  0
 59 60  2  0
 60 61  1  0
 61 62  1  0
 61 63  1  0
 61 64  1  0
 60 65  1  0
 65 66  2  0
 66 67  1  0
 66 68  1  0
 68 69  1  0
 68 70  2  0
 70 71  1  0
 70 72  1  0
 72 73  1  0
 72 74  2  0
 74 49  1  0
 59 50  1  0
 74 65  1  0
M  CHG  2  31   1  60   1
M  END
>  <UniqueID>  (3) 
3

>  <SMILES>  (3) 
CCN(C)CCOCCON/C=[NH+]/CCNCCNc1c2ccccc2[n+](C)c2ccccc12

>  <Energy>  (3) 
96.92737856074439

>  <Genealogy>  (3) 
CCN(C)CCOCCONC=[NH+]CCNCCNc1c2ccccc2[n+](C)c2ccccc12 (protonated)
CCN(C)CCOCCON/C=[NH+]/CCNCCNc1c2ccccc2[n+](C)c2ccccc12 (cis-trans isomerization)
CCN(C)CCOCCON/C=[NH+]/CCNCCNc1c2ccccc2[n+](C)c2ccccc12 (3D coordinates assigned)
CCN(C)CCOCCON/C=[NH+]/CCNCCNc1c2ccccc2[n+](C)c2ccccc12 (optimized conformer: 96.92737856074439 kcal/mol)

>  <smiles>  (3) 
CCN(C)CCOCCONC=NCCNCCNc1c2ccccc2[n+](C)c2ccccc12

>  <score_type>  (3) 
oracle

>  <origin>  (3) 
adg

>  <m_score__min__energy>  (3) 
-4

>  <m_primary>  (3) 
energy

$$$$
3:0
     RDKit          3D

 49 50  0  0  0  0  0  0  0  0999 V2000
   63.3160   33.8030   46.3450 C   0  0  0  0  0  0  0  0  0  0  0  0
   63.6750   33.0990   47.6500 C   0  0  0  0  0  0  0  0  0  0  0  0
   63.0010   33.7790   48.8470 C   0  0  0  0  0  0  0  0  0  0  0  0
   61.9070   32.9100   49.4890 C   0  0  0  0  0  0  0  0  0  0  0  0
   60.6790   32.8760   48.6590 N   0  0  0  0  0  0  0  0  0  0  0  0
   60.0580   34.0750   48.4590 C   0  0  0  0  0  0  0  0  0  0  0  0
   58.8980   34.1800   47.7040 C   0  0  0  0  0  0  0  0  0  0  0  0
   58.3060   33.0390   47.1350 C   0  0  0  0  0  0  0  0  0  0  0  0
   57.0790   33.1130   46.3490 N   0  0  0  0  0  0  0  0  0  0  0  0
   57.2100   33.7260   45.0130 C   0  0  0  0  0  0  0  0  0  0  0  0
   58.0970   32.8890   44.0700 C   0  0  0  0  0  0  0  0  0  0  0  0
   57.4370   31.5860   43.6040 C   0  0  0  0  0  0  0  0  0  0  0  0
   56.4540   31.1870   44.5370 O   0  0  0  0  0  0  0  0  0  0  0  0
   55.8840   29.9470   44.1630 C   0  0  0  0  0  0  0  0  0  0  0  0
   56.6510   29.3500   42.9880 C   0  0  0  0  0  0  0  0  0  0  0  0
   58.9710   31.7940   47.3030 C   0  0  0  0  0  0  0  0  0  0  0  0
   58.4840   30.6200   46.6850 C   0  0  0  0  0  0  0  0  0  0  0  0
   59.1150   29.3950   46.8790 C   0  0  0  0  0  0  0  0  0  0  0  0
   60.2400   29.3100   47.6870 C   0  0  0  0  0  0  0  0  0  0  0  0
   60.7590   30.4530   48.2900 C   0  0  0  0  0  0  0  0  0  0  0  0
   60.1560   31.7230   48.1010 C   0  0  0  0  0  0  0  0  0  0  0  0
   62.8267   34.7625   46.5686 H   0  0  0  0  0  0  0  0  0  0  0  0
   64.2313   33.9851   45.7628 H   0  0  0  0  0  0  0  0  0  0  0  0
   62.6311   33.1690   45.7628 H   0  0  0  0  0  0  0  0  0  0  0  0
   63.3417   32.0521   47.5970 H   0  0  0  0  0  0  0  0  0  0  0  0
   64.7652   33.1510   47.7868 H   0  0  0  0  0  0  0  0  0  0  0  0
   63.7677   33.9956   49.6055 H   0  0  0  0  0  0  0  0  0  0  0  0
   62.5202   34.6971   48.4782 H   0  0  0  0  0  0  0  0  0  0  0  0
   62.2879   31.8846   49.6048 H   0  0  0  0  0  0  0  0  0  0  0  0
   61.6500   33.3466   50.4654 H   0  0  0  0  0  0  0  0  0  0  0  0
   60.4883   34.9822   48.9081 H   0  0  0  0  0  0  0  0  0  0  0  0
   58.4370   35.1667   47.5493 H   0  0  0  0  0  0  0  0  0  0  0  0
   56.3860   33.6880   46.8820 H   0  0  0  0  0  0  0  0  0  0  0  0
   56.7200   32.1370   46.2380 H   0  0  0  0  0  0  0  0  0  0  0  0
   56.2089   33.8193   44.5669 H   0  0  0  0  0  0  0  0  0  0  0  0
   57.6868   34.7093   45.1390 H   0  0  0  0  0  0  0  0  0  0  0  0
   58.3323   33.4963   43.1835 H   0  0  0  0  0  0  0  0  0  0  0  0
   58.9977   32.6102   44.6366 H   0  0  0  0  0  0  0  0  0  0  0  0
   56.9658   31.7459   42.6230 H   0  0  0  0  0  0  0  0  0  0  0  0
   58.2021   30.7998   43.5240 H   0  0  0  0  0  0  0  0  0  0  0  0
   55.9286   29.2541   45.0162 H   0  0  0  0  0  0  0  0  0  0  0  0
   54.8373   30.1075   43.8651 H   0  0  0  0  0  0  0  0  0  0  0  0
   57.4660   28.7156   43.3665 H   0  0  0  0  0  0  0  0  0  0  0  0
   55.9685   28.7431   42.3749 H   0  0  0  0  0  0  0  0  0  0  0  0
   57.0718   30.1606   42.3749 H   0  0  0  0  0  0  0  0  0  0  0  0
   57.5936   30.6754   46.0415 H   0  0  0  0  0  0  0  0  0  0  0  0
   58.7210   28.4916   46.3905 H   0  0  0  0  0  0  0  0  0  0  0  0
   60.7237   28.3359   47.8518 H   0  0  0  0  0  0  0  0  0  0  0  0
   61.6534   30.3694   48.9248 H   0  0  0  0  0  0  0  0  0  0  0  0
  1  2  1  0
  2  3  1  0
  3  4  1  0
  4  5  1  0
  5  6  2  0
  6  7  1  0
  7  8  2  0
  8  9  1  0
  9 10  1  0
 10 11  1  0
 11 12  1  0
 12 13  1  0
 13 14  1  0
 14 15  1  0
  8 16  1  0
 16 17  2  0
 17 18  1  0
 18 19  2  0
 19 20  1  0
 20 21  2  0
 21  5  1  0
 21 16  1  0
  1 22  1  0
  1 23  1  0
  1 24  1  0
  2 25  1  0
  2 26  1  0
  3 27  1  0
  3 28  1  0
  4 29  1  0
  4 30  1  0
  6 31  1  0
  7 32  1  0
  9 33  1  0
  9 34  1  0
 10 35  1  0
 10 36  1  0
 11 37  1  0
 11 38  1  0
 12 39  1  0
 12 40  1  0
 14 41  1  0
 14 42  1  0
 15 43  1  0
 15 44  1  0
 15 45  1  0
 17 46  1  0
 18 47  1  0
 19 48  1  0
 20 49  1  0
M  CHG  2   5   1   9   1
M  END
>  <UniqueID>  (4) 
4

>  <SMILES>  (4) 
CCCC[n+]1ccc([NH2+]CCCOCC)c2ccccc21

>  <Energy>  (4) 
57.135757180567374

>  <Genealogy>  (4) 
CCCC[n+]1ccc([NH2+]CCCOCC)c2ccccc21 (protonated)
CCCC[n+]1ccc([NH2+]CCCOCC)c2ccccc21 (3D coordinates assigned)
CCCC[n+]1ccc([NH2+]CCCOCC)c2ccccc21 (optimized conformer: 57.135757180567374 kcal/mol)

>  <smiles>  (4) 
CCCC[n+]1ccc(NCCCOCC)c2ccccc21

>  <score_type>  (4) 
oracle

>  <origin>  (4) 
adg

>  <m_score__min__energy>  (4) 
-3.5499999999999998

>  <m_primary>  (4) 
energy

$$$$
4:0
     RDKit          3D

 60 63  0  0  0  0  0  0  0  0999 V2000
   56.6150   30.2390   42.8970 C   0  0  0  0  0  0  0  0  0  0  0  0
   55.4090   29.8510   43.7430 C   0  0  0  0  0  0  0  0  0  0  0  0
   55.8330   28.9710   44.8400 N   0  0  0  0  0  0  0  0  0  0  0  0
   57.1680   28.4010   44.6060 C   0  0  0  0  0  0  0  0  0  0  0  0
   58.2090   28.9500   45.5910 C   0  0  0  0  0  0  0  0  0  0  0  0
   57.6670   30.0470   46.3960 N   0  0  0  0  0  0  0  0  0  0  0  0
   58.4980   31.0980   46.9200 C   0  0  0  0  0  0  0  0  0  0  0  0
   58.5860   32.3370   46.2630 C   0  0  0  0  0  0  0  0  0  0  0  0
   58.0060   32.5250   44.9910 C   0  0  0  0  0  0  0  0  0  0  0  0
   58.1140   33.7470   44.3320 C   0  0  0  0  0  0  0  0  0  0  0  0
   58.8240   34.7910   44.9140 C   0  0  0  0  0  0  0  0  0  0  0  0
   59.4220   34.6240   46.1620 C   0  0  0  0  0  0  0  0  0  0  0  0
   59.3020   33.4020   46.8740 C   0  0  0  0  0  0  0  0  0  0  0  0
   59.8800   33.2250   48.1180 N   0  0  0  0  0  0  0  0  0  0  0  0
   60.3650   34.3940   48.8830 C   0  0  0  0  0  0  0  0  0  0  0  0
   59.9850   31.9550   48.6530 C   0  0  0  0  0  0  0  0  0  0  0  0
   60.8160   31.6830   49.7710 C   0  0  0  0  0  0  0  0  0  0  0  0
   60.8760   30.4120   50.3490 C   0  0  0  0  0  0  0  0  0  0  0  0
   61.7290   30.2350   51.4530 O   0  0  0  0  0  0  0  0  0  0  0  0
   62.8900   29.4030   51.5050 C   0  0  0  0  0  0  0  0  0  0  0  0
   64.1730   30.2370   51.4340 C   0  0  0  0  0  0  0  0  0  0  0  0
   63.9160   31.5840   50.9080 N   0  0  0  0  0  0  0  0  0  0  0  0
   64.1050   31.8460   49.5790 C   0  0  0  0  0  0  0  0  0  0  0  0
   63.8500   33.1190   49.0640 C   0  0  0  0  0  0  0  0  0  0  0  0
   63.3940   34.1240   49.9160 C   0  0  0  0  0  0  0  0  0  0  0  0
   63.2040   33.8490   51.2690 C   0  0  0  0  0  0  0  0  0  0  0  0
   63.4750   32.5660   51.7530 C   0  0  0  0  0  0  0  0  0  0  0  0
   60.1030   29.3770   49.8050 C   0  0  0  0  0  0  0  0  0  0  0  0
   59.3060   29.6080   48.6880 C   0  0  0  0  0  0  0  0  0  0  0  0
   59.2610   30.8790   48.0810 C   0  0  0  0  0  0  0  0  0  0  0  0
   57.4535   30.5088   43.5558 H   0  0  0  0  0  0  0  0  0  0  0  0
   56.9062   29.3892   42.2621 H   0  0  0  0  0  0  0  0  0  0  0  0
   56.3561   31.0992   42.2621 H   0  0  0  0  0  0  0  0  0  0  0  0
   54.9484   30.7586   44.1602 H   0  0  0  0  0  0  0  0  0  0  0  0
   54.6793   29.3208   43.1135 H   0  0  0  0  0  0  0  0  0  0  0  0
   55.1580   28.1730   44.8800 H   0  0  0  0  0  0  0  0  0  0  0  0
   57.1125   27.3084   44.7205 H   0  0  0  0  0  0  0  0  0  0  0  0
   57.4826   28.6795   43.5894 H   0  0  0  0  0  0  0  0  0  0  0  0
   58.5274   28.1387   46.2622 H   0  0  0  0  0  0  0  0  0  0  0  0
   59.0592   29.3379   45.0107 H   0  0  0  0  0  0  0  0  0  0  0  0
   56.6360   30.0870   46.5670 H   0  0  0  0  0  0  0  0  0  0  0  0
   57.4619   31.6965   44.5140 H   0  0  0  0  0  0  0  0  0  0  0  0
   57.6373   33.8863   43.3505 H   0  0  0  0  0  0  0  0  0  0  0  0
   58.9142   35.7526   44.3876 H   0  0  0  0  0  0  0  0  0  0  0  0
   59.9962   35.4526   46.6022 H   0  0  0  0  0  0  0  0  0  0  0  0
   60.2797   34.1883   49.9602 H   0  0  0  0  0  0  0  0  0  0  0  0
   61.4176   34.5874   48.6289 H   0  0  0  0  0  0  0  0  0  0  0  0
   59.7585   35.2758   48.6289 H   0  0  0  0  0  0  0  0  0  0  0  0
   61.4285   32.4933   50.1933 H   0  0  0  0  0  0  0  0  0  0  0  0
   62.8827   28.8354   52.4472 H   0  0  0  0  0  0  0  0  0  0  0  0
   62.8692   28.7218   50.6416 H   0  0  0  0  0  0  0  0  0  0  0  0
   64.5982   30.3240   52.4448 H   0  0  0  0  0  0  0  0  0  0  0  0
   64.8741   29.7310   50.7540 H   0  0  0  0  0  0  0  0  0  0  0  0
   64.4606   31.0480   48.9106 H   0  0  0  0  0  0  0  0  0  0  0  0
   64.0076   33.3269   47.9954 H   0  0  0  0  0  0  0  0  0  0  0  0
   63.1851   35.1296   49.5220 H   0  0  0  0  0  0  0  0  0  0  0  0
   62.8440   34.6345   51.9498 H   0  0  0  0  0  0  0  0  0  0  0  0
   63.3327   32.3440   52.8209 H   0  0  0  0  0  0  0  0  0  0  0  0
   60.1265   28.3773   50.2633 H   0  0  0  0  0  0  0  0  0  0  0  0
   58.7027   28.7871   48.2730 H   0  0  0  0  0  0  0  0  0  0  0  0
  1  2  1  0
  2  3  1  0
  3  4  1  0
  4  5  1  0
  5  6  1  0
  6  7  1  0
  7  8  2  0
  8  9  1  0
  9 10  2  0
 10 11  1  0
 11 12  2  0
 12 13  1  0
 13 14  2  0
 14 15  1  0
 14 16  1  0
 16 17  2  0
 17 18  1  0
 18 19  1  0
 19 20  1  0
 20 21  1  0
 21 22  1  0
 22 23  2  0
 23 24  1  0
 24 25  2  0
 25 26  1  0
 26 27  2  0
 18 28  2  0
 28 29  1  0
 29 30  2  0
 30  7  1  0
 13  8  1  0
 30 16  1  0
 27 22  1  0
  1 31  1  0
  1 32  1  0
  1 33  1  0
  2 34  1  0
  2 35  1  0
  3 36  1  0
  4 37  1  0
  4 38  1  0
  5 39  1  0
  5 40  1  0
  6 41  1  0
  9 42  1  0
 10 43  1  0
 11 44  1  0
 12 45  1  0
 15 46  1  0
 15 47  1  0
 15 48  1  0
 17 49  1  0
 20 50  1  0
 20 51  1  0
 21 52  1  0
 21 53  1  0
 23 54  1  0
 24 55  1  0
 25 56  1  0
 26 57  1  0
 27 58  1  0
 28 59  1  0
 29 60  1  0
M  CHG  2  14   1  22   1
M  END
>  <UniqueID>  (5) 
5

>  <SMILES>  (5) 
CCNCCNc1c2ccccc2[n+](C)c2cc(OCC[n+]3ccccc3)ccc12

>  <Energy>  (5) 
78.9960959774781

>  <Genealogy>  (5) 
CCNCCNc1c2ccccc2[n+](C)c2cc(OCC[n+]3ccccc3)ccc12 (3D coordinates assigned)
CCNCCNc1c2ccccc2[n+](C)c2cc(OCC[n+]3ccccc3)ccc12 (optimized conformer: 78.9960959774781 kcal/mol)

>  <smiles>  (5) 
CCNCCNc1c2ccccc2[n+](C)c2cc(OCC[n+]3ccccc3)ccc12

>  <score_type>  (5) 
oracle

>  <origin>  (5) 
adg

>  <m_score__min__energy>  (5) 
-5.3600000000000003

>  <m_primary>  (5) 
energy

$$$$
5:0
     RDKit          3D

 61 64  0  0  0  0  0  0  0  0999 V2000
   63.3180   33.5790   47.0080 C   0  0  0  0  0  0  0  0  0  0  0  0
   63.3690   32.0580   47.1650 C   0  0  0  0  0  0  0  0  0  0  0  0
   63.2490   31.6370   48.5730 N   0  0  0  0  0  0  0  0  0  0  0  0
   64.1330   32.4000   49.4870 C   0  0  0  0  0  0  0  0  0  0  0  0
   63.8710   32.0760   50.9710 C   0  0  0  0  0  0  0  0  0  0  0  0
   63.4620   30.6130   51.2030 C   0  0  0  0  0  0  0  0  0  0  0  0
   62.2860   30.2980   50.4810 O   0  0  0  0  0  0  0  0  0  0  0  0
   61.7740   29.0420   50.8830 C   0  0  0  0  0  0  0  0  0  0  0  0
   60.2460   29.0870   50.8810 C   0  0  0  0  0  0  0  0  0  0  0  0
   59.6640   28.6910   49.5190 C   0  0  0  0  0  0  0  0  0  0  0  0
   60.4080   29.3270   48.4330 N   0  0  0  0  0  0  0  0  0  0  0  0
   59.7340   29.7260   47.2350 C   0  0  0  0  0  0  0  0  0  0  0  0
   59.6160   31.0720   46.9200 C   0  0  0  0  0  0  0  0  0  0  0  0
   58.9540   31.4920   45.7790 C   0  0  0  0  0  0  0  0  0  0  0  0
   58.2990   30.6040   44.9620 N   0  0  0  0  0  0  0  0  0  0  0  0
   57.3500   31.0970   43.9510 C   0  0  0  0  0  0  0  0  0  0  0  0
   58.5080   29.2460   45.1580 C   0  0  0  0  0  0  0  0  0  0  0  0
   58.0610   28.2810   44.2250 C   0  0  0  0  0  0  0  0  0  0  0  0
   58.2650   26.9180   44.4460 C   0  0  0  0  0  0  0  0  0  0  0  0
   58.9340   26.4830   45.5870 C   0  0  0  0  0  0  0  0  0  0  0  0
   59.4170   27.4050   46.5110 C   0  0  0  0  0  0  0  0  0  0  0  0
   59.2190   28.7860   46.3170 C   0  0  0  0  0  0  0  0  0  0  0  0
   59.0510   32.9710   45.7140 C   0  0  0  0  0  0  0  0  0  0  0  0
   58.7430   33.8830   44.6930 C   0  0  0  0  0  0  0  0  0  0  0  0
   59.0280   35.2430   44.8960 C   0  0  0  0  0  0  0  0  0  0  0  0
   59.6520   35.6760   46.0820 C   0  0  0  0  0  0  0  0  0  0  0  0
   60.0170   34.7490   47.0680 C   0  0  0  0  0  0  0  0  0  0  0  0
   59.7130   33.4050   46.8540 C   0  0  0  0  0  0  0  0  0  0  0  0
   60.0860   32.2450   47.6490 C   0  0  0  0  0  0  0  0  0  0  0  0
   60.7080   32.2560   48.7440 O   0  0  0  0  0  0  0  0  0  0  0  0
   63.3022   34.0499   48.0020 H   0  0  0  0  0  0  0  0  0  0  0  0
   64.2052   33.9204   46.4546 H   0  0  0  0  0  0  0  0  0  0  0  0
   62.4099   33.8602   46.4546 H   0  0  0  0  0  0  0  0  0  0  0  0
   62.5414   31.6151   46.5915 H   0  0  0  0  0  0  0  0  0  0  0  0
   64.3450   31.7135   46.7925 H   0  0  0  0  0  0  0  0  0  0  0  0
   62.2570   31.8010   48.8650 H   0  0  0  0  0  0  0  0  0  0  0  0
   63.4120   30.6050   48.6360 H   0  0  0  0  0  0  0  0  0  0  0  0
   65.1792   32.1545   49.2520 H   0  0  0  0  0  0  0  0  0  0  0  0
   63.9243   33.4696   49.3372 H   0  0  0  0  0  0  0  0  0  0  0  0
   64.7897   32.2778   51.5413 H   0  0  0  0  0  0  0  0  0  0  0  0
   63.0343   32.7082   51.3031 H   0  0  0  0  0  0  0  0  0  0  0  0
   64.2770   29.9537   50.8696 H   0  0  0  0  0  0  0  0  0  0  0  0
   63.2659   30.4682   52.2756 H   0  0  0  0  0  0  0  0  0  0  0  0
   62.1183   28.2655   50.1841 H   0  0  0  0  0  0  0  0  0  0  0  0
   62.1314   28.8092   51.8969 H   0  0  0  0  0  0  0  0  0  0  0  0
   59.8688   28.3911   51.6448 H   0  0  0  0  0  0  0  0  0  0  0  0
   59.9352   30.1198   51.0972 H   0  0  0  0  0  0  0  0  0  0  0  0
   59.7229   27.5985   49.4053 H   0  0  0  0  0  0  0  0  0  0  0  0
   58.6168   29.0244   49.4721 H   0  0  0  0  0  0  0  0  0  0  0  0
   61.3760   29.6860   48.5980 H   0  0  0  0  0  0  0  0  0  0  0  0
   56.4813   31.5483   44.4527 H   0  0  0  0  0  0  0  0  0  0  0  0
   57.8437   31.8526   43.3223 H   0  0  0  0  0  0  0  0  0  0  0  0
   57.0156   30.2586   43.3223 H   0  0  0  0  0  0  0  0  0  0  0  0
   57.5446   28.6100   43.3111 H   0  0  0  0  0  0  0  0  0  0  0  0
   57.8954   26.1838   43.7150 H   0  0  0  0  0  0  0  0  0  0  0  0
   59.0814   25.4065   45.7588 H   0  0  0  0  0  0  0  0  0  0  0  0
   59.9584   27.0519   47.4011 H   0  0  0  0  0  0  0  0  0  0  0  0
   58.2875   33.5395   43.7525 H   0  0  0  0  0  0  0  0  0  0  0  0
   58.7613   35.9770   44.1214 H   0  0  0  0  0  0  0  0  0  0  0  0
   59.8538   36.7464   46.2352 H   0  0  0  0  0  0  0  0  0  0  0  0
   60.5294   35.0730   47.9859 H   0  0  0  0  0  0  0  0  0  0  0  0
  1  2  1  0
  2  3  1  0
  3  4  1  0
  4  5  1  0
  5  6  1  0
  6  7  1  0
  7  8  1  0
  8  9  1  0
  9 10  1  0
 10 11  1  0
 11 12  1  0
 12 13  2  0
 13 14  1  0
 14 15  2  0
 15 16  1  0
 15 17  1  0
 17 18  2  0
 18 19  1  0
 19 20  2  0
 20 21  1  0
 21 22  2  0
 14 23  1  0
 23 24  2  0
 24 25  1  0
 25 26  2  0
 26 27  1  0
 27 28  2  0
 28 29  1  0
 29 30  2  0
 22 12  1  0
 28 23  1  0
 29 13  1  0
 22 17  1  0
  1 31  1  0
  1 32  1  0
  1 33  1  0
  2 34  1  0
  2 35  1  0
  3 36  1  0
  3 37  1  0
  4 38  1  0
  4 39  1  0
  5 40  1  0
  5 41  1  0
  6 42  1  0
  6 43  1  0
  8 44  1  0
  8 45  1  0
  9 46  1  0
  9 47  1  0
 10 48  1  0
 10 49  1  0
 11 50  1  0
 16 51  1  0
 16 52  1  0
 16 53  1  0
 18 54  1  0
 19 55  1  0
 20 56  1  0
 21 57  1  0
 24 58  1  0
 25 59  1  0
 26 60  1  0
 27 61  1  0
M  CHG  2   3   1  15   1
M  END
>  <UniqueID>  (6) 
6

>  <SMILES>  (6) 
CC[NH2+]CCCOCCCNc1c2c([n+](C)c3ccccc13)-c1ccccc1C2=O

>  <Energy>  (6) 
114.73835049946646

>  <Genealogy>  (6) 
CC[NH2+]CCCOCCCNc1c2c([n+](C)c3ccccc13)-c1ccccc1C2=O (protonated)
CC[NH2+]CCCOCCCNc1c2c([n+](C)c3ccccc13)-c1ccccc1C2=O (3D coordinates assigned)
CC[NH2+]CCCOCCCNc1c2c([n+](C)c3ccccc13)-c1ccccc1C2=O (nonaromatic ring conformer: 114.73835049946646 kcal/mol)

>  <smiles>  (6) 
CCNCCCOCCCNc1c2c([n+](C)c3ccccc13)-c1ccccc1C2=O

>  <score_type>  (6) 
oracle

>  <origin>  (6) 
adg

>  <m_score__min__energy>  (6) 
-5.5999999999999996

>  <m_primary>  (6) 
energy

$$$$
6:0
     RDKit          3D

 40 40  0  0  0  0  0  0  0  0999 V2000
   57.4200   31.5740   44.0480 C   0  0  0  0  0  0  0  0  0  0  0  0
   56.2760   30.5560   44.0750 C   0  0  0  0  0  0  0  0  0  0  0  0
   56.2500   29.7510   42.7720 C   0  0  0  0  0  0  0  0  0  0  0  0
   56.4310   29.6550   45.2250 N   0  0  0  0  0  0  0  0  0  0  0  0
   57.4730   28.6680   45.3480 C   0  0  0  0  0  0  0  0  0  0  0  0
   58.6890   28.5900   44.2370 S   0  0  0  0  0  0  0  0  0  0  0  0
   57.4500   27.7800   46.4810 N   0  0  0  0  0  0  0  0  0  0  0  0
   58.4800   26.7860   46.7960 C   0  0  0  0  0  0  0  0  0  0  0  0
   59.8610   27.4420   46.9030 C   0  0  0  0  0  0  0  0  0  0  0  0
   59.8060   28.7860   47.6460 C   0  0  0  0  0  0  0  0  0  0  0  0
   60.4170   29.9410   46.8340 C   0  0  0  0  0  0  0  0  0  0  0  0
   60.4010   31.2970   47.5590 C   0  0  0  0  0  0  0  0  0  0  0  0
   61.6310   32.0460   47.3140 N   0  0  0  0  0  0  0  0  0  0  0  0
   61.7330   33.3380   46.9450 C   0  0  0  0  0  0  0  0  0  0  0  0
   63.0730   33.6560   46.8660 C   0  0  0  0  0  0  0  0  0  0  0  0
   63.7930   32.5650   47.1890 N   0  0  0  0  0  0  0  0  0  0  0  0
   62.8940   31.6000   47.4600 C   0  0  0  0  0  0  0  0  0  0  0  0
   57.7075   31.8299   45.0785 H   0  0  0  0  0  0  0  0  0  0  0  0
   58.2841   31.1407   43.5231 H   0  0  0  0  0  0  0  0  0  0  0  0
   57.0900   32.4826   43.5231 H   0  0  0  0  0  0  0  0  0  0  0  0
   55.3231   31.0968   44.1725 H   0  0  0  0  0  0  0  0  0  0  0  0
   56.2153   28.6766   43.0054 H   0  0  0  0  0  0  0  0  0  0  0  0
   55.3603   30.0282   42.1875 H   0  0  0  0  0  0  0  0  0  0  0  0
   57.1557   29.9702   42.1875 H   0  0  0  0  0  0  0  0  0  0  0  0
   55.7330   29.7160   46.0000 H   0  0  0  0  0  0  0  0  0  0  0  0
   56.6830   27.8990   47.1800 H   0  0  0  0  0  0  0  0  0  0  0  0
   58.2348   26.3051   47.7545 H   0  0  0  0  0  0  0  0  0  0  0  0
   58.5074   26.0409   45.9872 H   0  0  0  0  0  0  0  0  0  0  0  0
   60.5349   26.7635   47.4465 H   0  0  0  0  0  0  0  0  0  0  0  0
   60.2253   27.6333   45.8829 H   0  0  0  0  0  0  0  0  0  0  0  0
   58.7543   29.0257   47.8616 H   0  0  0  0  0  0  0  0  0  0  0  0
   60.3972   28.6797   48.5675 H   0  0  0  0  0  0  0  0  0  0  0  0
   61.4616   29.6855   46.6026 H   0  0  0  0  0  0  0  0  0  0  0  0
   59.7975   30.0566   45.9324 H   0  0  0  0  0  0  0  0  0  0  0  0
   59.5451   31.8861   47.1978 H   0  0  0  0  0  0  0  0  0  0  0  0
   60.3180   31.1111   48.6400 H   0  0  0  0  0  0  0  0  0  0  0  0
   60.8942   34.0201   46.7422 H   0  0  0  0  0  0  0  0  0  0  0  0
   63.4845   34.6369   46.5859 H   0  0  0  0  0  0  0  0  0  0  0  0
   64.8340   32.4850   47.2280 H   0  0  0  0  0  0  0  0  0  0  0  0
   63.1576   30.5758   47.7627 H   0  0  0  0  0  0  0  0  0  0  0  0
  1  2  1  0
  2  3  1  0
  2  4  1  0
  4  5  1  0
  5  6  2  0
  5  7  1  0
  7  8  1  0
  8  9  1  0
  9 10  1  0
 10 11  1  0
 11 12  1  0
 12 13  1  0
 13 14  1  0
 14 15  2  0
 15 16  1  0
 16 17  2  0
 17 13  1  0
  1 18  1  0
  1 19  1  0
  1 20  1  0
  2 21  1  0
  3 22  1  0
  3 23  1  0
  3 24  1  0
  4 25  1  0
  7 26  1  0
  8 27  1  0
  8 28  1  0
  9 29  1  0
  9 30  1  0
 10 31  1  0
 10 32  1  0
 11 33  1  0
 11 34  1  0
 12 35  1  0
 12 36  1  0
 14 37  1  0
 15 38  1  0
 16 39  1  0
 17 40  1  0
M  CHG  1  16   1
M  END
>  <UniqueID>  (7) 
7

>  <SMILES>  (7) 
CC(C)NC(=S)NCCCCCn1cc[nH+]c1

>  <Energy>  (7) 
54.18263912343542

>  <Genealogy>  (7) 
CC(C)NC(=S)NCCCCCn1cc[nH+]c1 (protonated)
CC(C)NC(=S)NCCCCCn1cc[nH+]c1 (3D coordinates assigned)
CC(C)NC(=S)NCCCCCn1cc[nH+]c1 (optimized conformer: 54.18263912343542 kcal/mol)

>  <smiles>  (7) 
CC(C)NC(=S)NCCCCCn1ccnc1

>  <score_type>  (7) 
oracle

>  <origin>  (7) 
adg

>  <m_score__min__energy>  (7) 
-4.6600000000000001

>  <m_primary>  (7) 
energy

$$$$
7:0
     RDKit          3D

 34 35  0  0  0  0  0  0  0  0999 V2000
   60.4490   34.2160   49.2170 C   0  0  0  0  0  0  0  0  0  0  0  0
   59.6480   34.0750   47.9580 C   0  0  0  0  0  0  0  0  0  0  0  0
   58.6070   33.1380   47.8820 C   0  0  0  0  0  0  0  0  0  0  0  0
   57.8950   32.9700   46.6910 C   0  0  0  0  0  0  0  0  0  0  0  0
   58.2220   33.7200   45.5520 C   0  0  0  0  0  0  0  0  0  0  0  0
   57.4850   33.5050   44.3320 N   0  0  0  0  0  0  0  0  0  0  0  0
   57.7310   32.3950   43.4090 C   0  0  0  0  0  0  0  0  0  0  0  0
   57.2880   31.1020   44.0250 C   0  0  0  0  0  0  0  0  0  0  0  0
   56.2670   31.0810   44.7640 O   0  0  0  0  0  0  0  0  0  0  0  0
   58.0130   29.8950   43.7570 N   0  0  0  0  0  0  0  0  0  0  0  0
   57.4030   28.5780   43.9080 C   0  0  0  0  0  0  0  0  0  0  0  0
   58.0560   27.8460   45.0370 C   0  0  0  0  0  0  0  0  0  0  0  0
   59.4100   27.8610   45.3460 C   0  0  0  0  0  0  0  0  0  0  0  0
   59.7140   27.1610   46.5200 C   0  0  0  0  0  0  0  0  0  0  0  0
   58.6020   26.6120   47.1460 C   0  0  0  0  0  0  0  0  0  0  0  0
   57.2400   27.0010   46.2400 S   0  0  0  0  0  0  0  0  0  0  0  0
   59.2730   34.6540   45.6290 C   0  0  0  0  0  0  0  0  0  0  0  0
   59.9830   34.8230   46.8210 C   0  0  0  0  0  0  0  0  0  0  0  0
   59.7870   34.0995   50.0877 H   0  0  0  0  0  0  0  0  0  0  0  0
   61.2296   33.4415   49.2436 H   0  0  0  0  0  0  0  0  0  0  0  0
   60.9182   35.2105   49.2436 H   0  0  0  0  0  0  0  0  0  0  0  0
   58.3498   32.5326   48.7637 H   0  0  0  0  0  0  0  0  0  0  0  0
   57.0707   32.2429   46.6467 H   0  0  0  0  0  0  0  0  0  0  0  0
   56.6660   34.1220   44.1290 H   0  0  0  0  0  0  0  0  0  0  0  0
   57.1700   32.5652   42.4783 H   0  0  0  0  0  0  0  0  0  0  0  0
   58.8082   32.3395   43.1932 H   0  0  0  0  0  0  0  0  0  0  0  0
   58.9450   29.9580   43.2880 H   0  0  0  0  0  0  0  0  0  0  0  0
   56.3299   28.6943   44.1198 H   0  0  0  0  0  0  0  0  0  0  0  0
   57.5363   28.0062   42.9778 H   0  0  0  0  0  0  0  0  0  0  0  0
   60.1664   28.3708   44.7312 H   0  0  0  0  0  0  0  0  0  0  0  0
   60.7372   27.0557   46.9099 H   0  0  0  0  0  0  0  0  0  0  0  0
   58.6110   26.0235   48.0753 H   0  0  0  0  0  0  0  0  0  0  0  0
   59.5368   35.2542   44.7457 H   0  0  0  0  0  0  0  0  0  0  0  0
   60.8096   35.5473   46.8671 H   0  0  0  0  0  0  0  0  0  0  0  0
  1  2  1  0
  2  3  2  0
  3  4  1  0
  4  5  2  0
  5  6  1  0
  6  7  1  0
  7  8  1  0
  8  9  2  0
  8 10  1  0
 10 11  1  0
 11 12  1  0
 12 13  2  0
 13 14  1  0
 14 15  2  0
 15 16  1  0
  5 17  1  0
 17 18  2  0
 18  2  1  0
 16 12  1  0
  1 19  1  0
  1 20  1  0
  1 21  1  0
  3 22  1  0
  4 23  1  0
  6 24  1  0
  7 25  1  0
  7 26  1  0
 10 27  1  0
 11 28  1  0
 11 29  1  0
 13 30  1  0
 14 31  1  0
 15 32  1  0
 17 33  1  0
 18 34  1  0
M  END
>  <UniqueID>  (8) 
8

>  <SMILES>  (8) 
Cc1ccc(NCC(=O)NCc2cccs2)cc1

>  <Energy>  (8) 
50.186306899749155

>  <Genealogy>  (8) 
Cc1ccc(NCC(=O)NCc2cccs2)cc1 (3D coordinates assigned)
Cc1ccc(NCC(=O)NCc2cccs2)cc1 (optimized conformer: 50.186306899749155 kcal/mol)

>  <smiles>  (8) 
Cc1ccc(NCC(=O)NCc2cccs2)cc1

>  <score_type>  (8) 
oracle

>  <origin>  (8) 
adg

>  <m_score__min__energy>  (8) 
-6.7300000000000004

>  <m_primary>  (8) 
energy

$$$$
8:0
     RDKit          3D

 50 52  0  0  0  0  0  0  0  0999 V2000
   57.4500   26.0230   45.8800 C   0  0  0  0  0  0  0  0  0  0  0  0
   56.5840   27.1500   45.7820 O   0  0  0  0  0  0  0  0  0  0  0  0
   56.9840   28.4280   45.3640 C   0  0  0  0  0  0  0  0  0  0  0  0
   56.6350   28.9470   44.1130 C   0  0  0  0  0  0  0  0  0  0  0  0
   57.0370   30.2250   43.7420 C   0  0  0  0  0  0  0  0  0  0  0  0
   57.8370   31.0220   44.5950 C   0  0  0  0  0  0  0  0  0  0  0  0
   58.1880   30.5020   45.8720 C   0  0  0  0  0  0  0  0  0  0  0  0
   57.7440   29.2070   46.2420 C   0  0  0  0  0  0  0  0  0  0  0  0
   57.9840   28.6970   47.4770 F   0  0  0  0  0  0  0  0  0  0  0  0
   58.9500   31.3020   46.7500 C   0  0  0  0  0  0  0  0  0  0  0  0
   59.4730   30.7580   47.9730 N   0  0  0  0  0  0  0  0  0  0  0  0
   60.7140   29.9850   47.9960 C   0  0  0  0  0  0  0  0  0  0  0  0
   61.8970   30.8520   48.4390 C   0  0  0  0  0  0  0  0  0  0  0  0
   62.4540   31.6620   47.3360 N   0  0  0  0  0  0  0  0  0  0  0  0
   62.9980   33.0080   47.6570 C   0  0  0  0  0  0  0  0  0  0  0  0
   64.1660   33.0310   48.6590 C   0  0  0  0  0  0  0  0  0  0  0  0
   63.3480   33.7710   46.3780 C   0  0  0  0  0  0  0  0  0  0  0  0
   59.1790   32.6540   46.4300 C   0  0  0  0  0  0  0  0  0  0  0  0
   59.8130   33.5230   47.3460 C   0  0  0  0  0  0  0  0  0  0  0  0
   60.0070   34.8660   47.0370 C   0  0  0  0  0  0  0  0  0  0  0  0
   59.5660   35.3710   45.8200 C   0  0  0  0  0  0  0  0  0  0  0  0
   58.9580   34.5280   44.8910 C   0  0  0  0  0  0  0  0  0  0  0  0
   58.7860   33.1460   45.1590 C   0  0  0  0  0  0  0  0  0  0  0  0
   58.2560   32.2840   44.2190 N   0  0  0  0  0  0  0  0  0  0  0  0
   58.1610   32.7050   42.8020 C   0  0  0  0  0  0  0  0  0  0  0  0
   57.6294   25.7895   46.9399 H   0  0  0  0  0  0  0  0  0  0  0  0
   56.9824   25.1574   45.3879 H   0  0  0  0  0  0  0  0  0  0  0  0
   58.4068   26.2519   45.3879 H   0  0  0  0  0  0  0  0  0  0  0  0
   56.0378   28.3392   43.4173 H   0  0  0  0  0  0  0  0  0  0  0  0
   56.7269   30.6250   42.7654 H   0  0  0  0  0  0  0  0  0  0  0  0
   59.0920   31.1030   48.8820 H   0  0  0  0  0  0  0  0  0  0  0  0
   60.6012   29.1456   48.6980 H   0  0  0  0  0  0  0  0  0  0  0  0
   60.9137   29.6153   46.9794 H   0  0  0  0  0  0  0  0  0  0  0  0
   61.5579   31.5293   49.2367 H   0  0  0  0  0  0  0  0  0  0  0  0
   62.6913   30.1767   48.7896 H   0  0  0  0  0  0  0  0  0  0  0  0
   61.6900   31.7840   46.6310 H   0  0  0  0  0  0  0  0  0  0  0  0
   62.1809   33.5226   48.1838 H   0  0  0  0  0  0  0  0  0  0  0  0
   63.7692   33.0232   49.6849 H   0  0  0  0  0  0  0  0  0  0  0  0
   64.7995   32.1452   48.5041 H   0  0  0  0  0  0  0  0  0  0  0  0
   64.7641   33.9411   48.5041 H   0  0  0  0  0  0  0  0  0  0  0  0
   63.7934   34.7419   46.6405 H   0  0  0  0  0  0  0  0  0  0  0  0
   64.0675   33.1854   45.7869 H   0  0  0  0  0  0  0  0  0  0  0  0
   62.4348   33.9343   45.7869 H   0  0  0  0  0  0  0  0  0  0  0  0
   60.1575   33.1333   48.3153 H   0  0  0  0  0  0  0  0  0  0  0  0
   60.5100   35.5284   47.7569 H   0  0  0  0  0  0  0  0  0  0  0  0
   59.6969   36.4385   45.5890 H   0  0  0  0  0  0  0  0  0  0  0  0
   58.6059   34.9415   43.9344 H   0  0  0  0  0  0  0  0  0  0  0  0
   57.9191   33.7770   42.7534 H   0  0  0  0  0  0  0  0  0  0  0  0
   59.1228   32.5230   42.3002 H   0  0  0  0  0  0  0  0  0  0  0  0
   57.3706   32.1276   42.3002 H   0  0  0  0  0  0  0  0  0  0  0  0
  1  2  1  0
  2  3  1  0
  3  4  2  0
  4  5  1  0
  5  6  2  0
  6  7  1  0
  7  8  2  0
  8  9  1  0
  7 10  1  0
 10 11  1  0
 11 12  1  0
 12 13  1  0
 13 14  1  0
 14 15  1  0
 15 16  1  0
 15 17  1  0
 10 18  2  0
 18 19  1  0
 19 20  2  0
 20 21  1  0
 21 22  2  0
 22 23  1  0
 23 24  2  0
 24 25  1  0
  8  3  1  0
 23 18  1  0
 24  6  1  0
  1 26  1  0
  1 27  1  0
  1 28  1  0
  4 29  1  0
  5 30  1  0
 11 31  1  0
 12 32  1  0
 12 33  1  0
 13 34  1  0
 13 35  1  0
 14 36  1  0
 15 37  1  0
 16 38  1  0
 16 39  1  0
 16 40  1  0
 17 41  1  0
 17 42  1  0
 17 43  1  0
 19 44  1  0
 20 45  1  0
 21 46  1  0
 22 47  1  0
 25 48  1  0
 25 49  1  0
 25 50  1  0
M  CHG  1  24   1
M  END
>  <UniqueID>  (9) 
9

>  <SMILES>  (9) 
COc1ccc2c(c1F)c(NCCNC(C)C)c1ccccc1[n+]2C

>  <Energy>  (9) 
79.29251619475379

>  <Genealogy>  (9) 
COc1ccc2c(c1F)c(NCCNC(C)C)c1ccccc1[n+]2C (3D coordinates assigned)
COc1ccc2c(c1F)c(NCCNC(C)C)c1ccccc1[n+]2C (optimized conformer: 79.29251619475379 kcal/mol)

>  <smiles>  (9) 
COc1ccc2c(c1F)c(NCCNC(C)C)c1ccccc1[n+]2C

>  <score_type>  (9) 
oracle

>  <origin>  (9) 
adg

>  <m_score__min__energy>  (9) 
-5.6799999999999997

>  <m_primary>  (9) 
energy

$$$$
9:0
     RDKit          3D

 47 47  0  0  0  0  0  0  0  0999 V2000
   59.5870   28.4170   44.6720 C   0  0  0  0  0  0  0  0  0  0  0  0
   58.5690   27.5370   43.9400 C   0  0  0  0  0  0  0  0  0  0  0  0
   57.4280   28.3020   43.4020 N   0  0  0  0  0  0  0  0  0  0  0  0
   56.7320   29.1620   44.3820 C   0  0  0  0  0  0  0  0  0  0  0  0
   56.2490   30.4930   43.7860 C   0  0  0  0  0  0  0  0  0  0  0  0
   56.7780   30.6490   42.4860 O   0  0  0  0  0  0  0  0  0  0  0  0
   57.4020   31.9090   42.3670 C   0  0  0  0  0  0  0  0  0  0  0  0
   58.2230   32.1750   43.6340 C   0  0  0  0  0  0  0  0  0  0  0  0
   57.6740   33.3630   44.4500 C   0  0  0  0  0  0  0  0  0  0  0  0
   56.9900   32.9200   45.6100 O   0  0  0  0  0  0  0  0  0  0  0  0
   57.8220   33.0290   46.7450 C   0  0  0  0  0  0  0  0  0  0  0  0
   58.8350   34.1560   46.5260 C   0  0  0  0  0  0  0  0  0  0  0  0
   59.5160   34.5890   47.8330 C   0  0  0  0  0  0  0  0  0  0  0  0
   60.9760   34.2080   47.8660 C   0  0  0  0  0  0  0  0  0  0  0  0
   61.6720   34.1720   49.0860 C   0  0  0  0  0  0  0  0  0  0  0  0
   63.0130   33.7770   49.1210 C   0  0  0  0  0  0  0  0  0  0  0  0
   63.6670   33.4110   47.9400 C   0  0  0  0  0  0  0  0  0  0  0  0
   62.9790   33.4340   46.7240 C   0  0  0  0  0  0  0  0  0  0  0  0
   61.6390   33.8300   46.6840 C   0  0  0  0  0  0  0  0  0  0  0  0
   59.4558   28.3035   45.7582 H   0  0  0  0  0  0  0  0  0  0  0  0
   60.6055   28.1102   44.3917 H   0  0  0  0  0  0  0  0  0  0  0  0
   59.4308   29.4692   44.3917 H   0  0  0  0  0  0  0  0  0  0  0  0
   59.0777   27.0325   43.1053 H   0  0  0  0  0  0  0  0  0  0  0  0
   58.1687   26.8189   44.6708 H   0  0  0  0  0  0  0  0  0  0  0  0
   56.7310   27.6310   43.0000 H   0  0  0  0  0  0  0  0  0  0  0  0
   57.7720   28.8970   42.6120 H   0  0  0  0  0  0  0  0  0  0  0  0
   55.8593   28.6153   44.7688 H   0  0  0  0  0  0  0  0  0  0  0  0
   57.4546   29.4031   45.1756 H   0  0  0  0  0  0  0  0  0  0  0  0
   55.1501   30.4949   43.7368 H   0  0  0  0  0  0  0  0  0  0  0  0
   56.5903   31.3234   44.4216 H   0  0  0  0  0  0  0  0  0  0  0  0
   58.0651   31.9118   41.4893 H   0  0  0  0  0  0  0  0  0  0  0  0
   56.6405   32.6931   42.2435 H   0  0  0  0  0  0  0  0  0  0  0  0
   58.2025   31.2737   44.2642 H   0  0  0  0  0  0  0  0  0  0  0  0
   59.2481   32.4257   43.3236 H   0  0  0  0  0  0  0  0  0  0  0  0
   58.5125   34.0074   44.7528 H   0  0  0  0  0  0  0  0  0  0  0  0
   56.9639   33.9181   43.8195 H   0  0  0  0  0  0  0  0  0  0  0  0
   57.2083   33.2538   47.6298 H   0  0  0  0  0  0  0  0  0  0  0  0
   58.3559   32.0801   46.9020 H   0  0  0  0  0  0  0  0  0  0  0  0
   59.6064   33.8069   45.8238 H   0  0  0  0  0  0  0  0  0  0  0  0
   58.2913   35.0245   46.1258 H   0  0  0  0  0  0  0  0  0  0  0  0
   59.4322   35.6814   47.9316 H   0  0  0  0  0  0  0  0  0  0  0  0
   59.0126   34.0734   48.6641 H   0  0  0  0  0  0  0  0  0  0  0  0
   61.1600   34.4557   50.0173 H   0  0  0  0  0  0  0  0  0  0  0  0
   63.5541   33.7541   50.0784 H   0  0  0  0  0  0  0  0  0  0  0  0
   64.7232   33.1050   47.9685 H   0  0  0  0  0  0  0  0  0  0  0  0
   63.4927   33.1400   45.7968 H   0  0  0  0  0  0  0  0  0  0  0  0
   61.1008   33.8462   45.7248 H   0  0  0  0  0  0  0  0  0  0  0  0
  1  2  1  0
  2  3  1  0
  3  4  1  0
  4  5  1  0
  5  6  1  0
  6  7  1  0
  7  8  1  0
  8  9  1  0
  9 10  1  0
 10 11  1  0
 11 12  1  0
 12 13  1  0
 13 14  1  0
 14 15  2  0
 15 16  1  0
 16 17  2  0
 17 18  1  0
 18 19  2  0
 19 14  1  0
  1 20  1  0
  1 21  1  0
  1 22  1  0
  2 23  1  0
  2 24  1  0
  3 25  1  0
  3 26  1  0
  4 27  1  0
  4 28  1  0
  5 29  1  0
  5 30  1  0
  7 31  1  0
  7 32  1  0
  8 33  1  0
  8 34  1  0
  9 35  1  0
  9 36  1  0
 11 37  1  0
 11 38  1  0
 12 39  1  0
 12 40  1  0
 13 41  1  0
 13 42  1  0
 15 43  1  0
 16 44  1  0
 17 45  1  0
 18 46  1  0
 19 47  1  0
M  CHG  1   3   1
M  END
>  <UniqueID>  (10) 
10

>  <SMILES>  (10) 
CC[NH2+]CCOCCCOCCCc1ccccc1

>  <Energy>  (10) 
37.77511381192558

>  <Genealogy>  (10) 
CC[NH2+]CCOCCCOCCCc1ccccc1 (protonated)
CC[NH2+]CCOCCCOCCCc1ccccc1 (3D coordinates assigned)
CC[NH2+]CCOCCCOCCCc1ccccc1 (optimized conformer: 37.77511381192558 kcal/mol)

>  <smiles>  (10) 
CCNCCOCCCOCCCc1ccccc1

>  <score_type>  (10) 
oracle

>  <origin>  (10) 
adg

>  <m_score__min__energy>  (10) 
-4.4100000000000001

>  <m_primary>  (10) 
energy

$$$$
10:0
     RDKit          3D

 35 36  0  0  0  0  0  0  0  0999 V2000
   56.6030   29.9050   42.7480 C   0  0  0  0  0  0  0  0  0  0  0  0
   56.4520   30.2650   44.1930 C   0  0  0  0  0  0  0  0  0  0  0  0
   55.5410   29.7150   44.8680 O   0  0  0  0  0  0  0  0  0  0  0  0
   57.3940   31.1780   44.8690 C   0  0  0  0  0  0  0  0  0  0  0  0
   57.5610   32.5020   44.4980 C   0  0  0  0  0  0  0  0  0  0  0  0
   58.4510   33.0290   45.4050 C   0  0  0  0  0  0  0  0  0  0  0  0
   58.8370   32.0210   46.2550 C   0  0  0  0  0  0  0  0  0  0  0  0
   58.1640   30.8840   45.9510 N   0  0  0  0  0  0  0  0  0  0  0  0
   58.3210   29.5870   46.6150 C   0  0  0  0  0  0  0  0  0  0  0  0
   59.7390   32.2730   47.4520 C   0  0  1  0  0  0  0  0  0  0  0  0
   60.6050   31.0980   47.7310 N   0  0  0  0  0  0  0  0  0  0  0  0
   60.4340   30.5890   49.1010 C   0  0  0  0  0  0  0  0  0  0  0  0
   62.0320   31.3030   47.4240 C   0  0  0  0  0  0  0  0  0  0  0  0
   60.5430   33.6000   47.2620 C   0  0  0  0  0  0  0  0  0  0  0  0
   59.6490   34.7750   46.8190 C   0  0  0  0  0  0  0  0  0  0  0  0
   58.8700   34.4200   45.5820 C   0  0  0  0  0  0  0  0  0  0  0  0
   58.5230   35.3110   44.7600 O   0  0  0  0  0  0  0  0  0  0  0  0
   57.0273   28.8935   42.6645 H   0  0  0  0  0  0  0  0  0  0  0  0
   55.6181   29.9310   42.2588 H   0  0  0  0  0  0  0  0  0  0  0  0
   57.2746   30.6258   42.2588 H   0  0  0  0  0  0  0  0  0  0  0  0
   57.0826   33.0226   43.6553 H   0  0  0  0  0  0  0  0  0  0  0  0
   58.3038   29.7290   47.7057 H   0  0  0  0  0  0  0  0  0  0  0  0
   57.4969   28.9213   46.3189 H   0  0  0  0  0  0  0  0  0  0  0  0
   59.2801   29.1372   46.3189 H   0  0  0  0  0  0  0  0  0  0  0  0
   59.1140   32.4065   48.3473 H   0  0  0  0  0  0  0  0  0  0  0  0
   60.6989   31.3775   49.8208 H   0  0  0  0  0  0  0  0  0  0  0  0
   59.3863   30.2905   49.2532 H   0  0  0  0  0  0  0  0  0  0  0  0
   61.0890   29.7185   49.2532 H   0  0  0  0  0  0  0  0  0  0  0  0
   62.6008   31.3847   48.3620 H   0  0  0  0  0  0  0  0  0  0  0  0
   62.4078   30.4496   46.8405 H   0  0  0  0  0  0  0  0  0  0  0  0
   62.1524   32.2277   46.8405 H   0  0  0  0  0  0  0  0  0  0  0  0
   61.0218   33.8619   48.2171 H   0  0  0  0  0  0  0  0  0  0  0  0
   61.2865   33.4291   46.4695 H   0  0  0  0  0  0  0  0  0  0  0  0
   58.9464   35.0185   47.6296 H   0  0  0  0  0  0  0  0  0  0  0  0
   60.2908   35.6396   46.5942 H   0  0  0  0  0  0  0  0  0  0  0  0
  1  2  1  0
  2  3  2  0
  2  4  1  0
  4  5  2  0
  5  6  1  0
  6  7  2  0
  7  8  1  0
  8  9  1  0
  7 10  1  0
 10 11  1  0
 11 12  1  0
 11 13  1  0
 10 14  1  0
 14 15  1  0
 15 16  1  0
 16 17  2  0
  8  4  1  0
 16  6  1  0
  1 18  1  0
  1 19  1  0
  1 20  1  0
  5 21  1  0
  9 22  1  0
  9 23  1  0
  9 24  1  0
 10 25  1  1
 12 26  1  0
 12 27  1  0
 12 28  1  0
 13 29  1  0
 13 30  1  0
 13 31  1  0
 14 32  1  0
 14 33  1  0
 15 34  1  0
 15 35  1  0
M  END
>  <UniqueID>  (11) 
11

>  <SMILES>  (11) 
CC(=O)c1cc2c(n1C)[C@@H](N(C)C)CCC2=O

>  <Energy>  (11) 
71.92877464979985

>  <Genealogy>  (11) 
CC(=O)c1cc2c(n1C)[C@@H](N(C)C)CCC2=O (chirality)
CC(=O)c1cc2c(n1C)[C@@H](N(C)C)CCC2=O (3D coordinates assigned)
CC(=O)c1cc2c(n1C)[C@@H](N(C)C)CCC2=O (nonaromatic ring conformer: 71.92877464979985 kcal/mol)

>  <smiles>  (11) 
CC(=O)c1cc2c(n1C)C(N(C)C)CCC2=O

>  <score_type>  (11) 
oracle

>  <origin>  (11) 
adg

>  <m_score__min__energy>  (11) 
-6.6600000000000001

>  <m_primary>  (11) 
energy

$$$$
11:0
     RDKit          3D

 38 39  0  0  0  0  0  0  0  0999 V2000
   56.6290   30.1230   42.8470 C   0  0  0  0  0  0  0  0  0  0  0  0
   55.4670   29.9230   43.8110 C   0  0  0  0  0  0  0  0  0  0  0  0
   55.8510   28.9790   44.8690 N   0  0  0  0  0  0  0  0  0  0  0  0
   57.1620   28.3700   44.5970 C   0  0  0  0  0  0  0  0  0  0  0  0
   58.2640   29.0480   45.4160 C   0  0  0  0  0  0  0  0  0  0  0  0
   57.7070   30.1260   46.2340 N   0  0  0  0  0  0  0  0  0  0  0  0
   58.5370   31.0560   46.9530 C   0  0  0  0  0  0  0  0  0  0  0  0
   59.1740   30.6410   48.1340 C   0  0  0  0  0  0  0  0  0  0  0  0
   60.0230   31.5090   48.8410 C   0  0  0  0  0  0  0  0  0  0  0  0
   60.6660   31.1290   50.0290 O   0  0  0  0  0  0  0  0  0  0  0  0
   61.2190   29.8390   50.2710 C   0  0  0  0  0  0  0  0  0  0  0  0
   60.2450   32.7980   48.3540 C   0  0  0  0  0  0  0  0  0  0  0  0
   59.6270   33.2370   47.1760 C   0  0  0  0  0  0  0  0  0  0  0  0
   59.8500   34.5040   46.7180 N   0  0  0  0  0  0  0  0  0  0  0  0
   59.2520   34.9690   45.5890 C   0  0  0  0  0  0  0  0  0  0  0  0
   58.3790   34.1550   44.8690 C   0  0  0  0  0  0  0  0  0  0  0  0
   58.1290   32.8560   45.3080 C   0  0  0  0  0  0  0  0  0  0  0  0
   58.7610   32.3660   46.4670 C   0  0  0  0  0  0  0  0  0  0  0  0
   57.5557   30.2825   43.4178 H   0  0  0  0  0  0  0  0  0  0  0  0
   56.7376   29.2303   42.2135 H   0  0  0  0  0  0  0  0  0  0  0  0
   56.4330   31.0006   42.2135 H   0  0  0  0  0  0  0  0  0  0  0  0
   55.1986   30.8888   44.2639 H   0  0  0  0  0  0  0  0  0  0  0  0
   54.6053   29.5181   43.2600 H   0  0  0  0  0  0  0  0  0  0  0  0
   55.1400   28.2100   44.8790 H   0  0  0  0  0  0  0  0  0  0  0  0
   57.1240   27.3025   44.8597 H   0  0  0  0  0  0  0  0  0  0  0  0
   57.3918   28.4966   43.5287 H   0  0  0  0  0  0  0  0  0  0  0  0
   58.7369   28.3030   46.0727 H   0  0  0  0  0  0  0  0  0  0  0  0
   59.0080   29.4735   44.7266 H   0  0  0  0  0  0  0  0  0  0  0  0
   56.6770   30.1200   46.4060 H   0  0  0  0  0  0  0  0  0  0  0  0
   59.0057   29.6214   48.5110 H   0  0  0  0  0  0  0  0  0  0  0  0
   61.2919   29.6689   51.3553 H   0  0  0  0  0  0  0  0  0  0  0  0
   60.5706   29.0720   49.8223 H   0  0  0  0  0  0  0  0  0  0  0  0
   62.2216   29.7798   49.8223 H   0  0  0  0  0  0  0  0  0  0  0  0
   60.9138   33.4779   48.9022 H   0  0  0  0  0  0  0  0  0  0  0  0
   60.4920   35.1450   47.2370 H   0  0  0  0  0  0  0  0  0  0  0  0
   59.4580   35.9923   45.2421 H   0  0  0  0  0  0  0  0  0  0  0  0
   57.8904   34.5355   43.9599 H   0  0  0  0  0  0  0  0  0  0  0  0
   57.4359   32.2116   44.7474 H   0  0  0  0  0  0  0  0  0  0  0  0
  1  2  1  0
  2  3  1  0
  3  4  1  0
  4  5  1  0
  5  6  1  0
  6  7  1  0
  7  8  2  0
  8  9  1  0
  9 10  1  0
 10 11  1  0
  9 12  2  0
 12 13  1  0
 13 14  2  0
 14 15  1  0
 15 16  2  0
 16 17  1  0
 17 18  2  0
 18  7  1  0
 18 13  1  0
  1 19  1  0
  1 20  1  0
  1 21  1  0
  2 22  1  0
  2 23  1  0
  3 24  1  0
  4 25  1  0
  4 26  1  0
  5 27  1  0
  5 28  1  0
  6 29  1  0
  8 30  1  0
 11 31  1  0
 11 32  1  0
 11 33  1  0
 12 34  1  0
 14 35  1  0
 15 36  1  0
 16 37  1  0
 17 38  1  0
M  CHG  1  14   1
M  END
>  <UniqueID>  (12) 
12

>  <SMILES>  (12) 
CCNCCNc1cc(OC)cc2[nH+]cccc12

>  <Energy>  (12) 
38.414010664947135

>  <Genealogy>  (12) 
CCNCCNc1cc(OC)cc2[nH+]cccc12 (protonated)
CCNCCNc1cc(OC)cc2[nH+]cccc12 (3D coordinates assigned)
CCNCCNc1cc(OC)cc2[nH+]cccc12 (optimized conformer: 38.414010664947135 kcal/mol)

>  <smiles>  (12) 
CCNCCNc1cc(OC)cc2ncccc12

>  <score_type>  (12) 
oracle

>  <origin>  (12) 
adg

>  <m_score__min__energy>  (12) 
-3.9100000000000001

>  <m_primary>  (12) 
energy

$$$$
12:0
     RDKit          3D

 42 43  0  0  0  0  0  0  0  0999 V2000
   62.0280   33.5100   46.9680 C   0  0  0  0  0  0  0  0  0  0  0  0
   60.8680   34.1100   47.7520 C   0  0  0  0  0  0  0  0  0  0  0  0
   59.9590   35.3350   46.7470 S   0  0  0  0  0  0  0  0  0  0  0  0
   59.1550   34.1140   45.7130 C   0  0  0  0  0  0  0  0  0  0  0  0
   59.1780   34.1660   44.3520 N   0  0  0  0  0  0  0  0  0  0  0  0
   58.4640   33.0750   44.0280 C   0  0  0  0  0  0  0  0  0  0  0  0
   58.1400   32.5920   42.7670 C   0  0  0  0  0  0  0  0  0  0  0  0
   57.3690   31.4160   42.7070 C   0  0  0  0  0  0  0  0  0  0  0  0
   56.9590   30.7750   43.9060 C   0  0  0  0  0  0  0  0  0  0  0  0
   56.1130   29.5320   43.8380 C   0  0  0  0  0  0  0  0  0  0  0  0
   56.0590   28.8960   45.1010 O   0  0  0  0  0  0  0  0  0  0  0  0
   57.0400   27.8810   45.2050 C   0  0  0  0  0  0  0  0  0  0  0  0
   57.8410   28.0430   46.5020 C   0  0  0  0  0  0  0  0  0  0  0  0
   58.5030   29.3650   46.5330 N   0  0  0  0  0  0  0  0  0  0  0  0
   58.8620   29.7190   47.9180 C   0  0  0  0  0  0  0  0  0  0  0  0
   59.7010   29.3930   45.6620 C   0  0  0  0  0  0  0  0  0  0  0  0
   60.8530   30.0970   46.3740 C   0  0  0  0  0  0  0  0  0  0  0  0
   57.3100   31.3050   45.1230 N   0  0  0  0  0  0  0  0  0  0  0  0
   58.0530   32.4380   45.1510 C   0  0  0  0  0  0  0  0  0  0  0  0
   58.4810   33.0840   46.1990 O   0  0  0  0  0  0  0  0  0  0  0  0
   62.7813   33.1203   47.6685 H   0  0  0  0  0  0  0  0  0  0  0  0
   61.6575   32.6904   46.3347 H   0  0  0  0  0  0  0  0  0  0  0  0
   62.4828   34.2859   46.3347 H   0  0  0  0  0  0  0  0  0  0  0  0
   60.1790   33.3048   48.0468 H   0  0  0  0  0  0  0  0  0  0  0  0
   61.2721   34.6176   48.6403 H   0  0  0  0  0  0  0  0  0  0  0  0
   58.4720   33.1069   41.8534 H   0  0  0  0  0  0  0  0  0  0  0  0
   57.0842   30.9937   41.7320 H   0  0  0  0  0  0  0  0  0  0  0  0
   55.0938   29.8050   43.5270 H   0  0  0  0  0  0  0  0  0  0  0  0
   56.5601   28.8383   43.1107 H   0  0  0  0  0  0  0  0  0  0  0  0
   56.5461   26.8981   45.2044 H   0  0  0  0  0  0  0  0  0  0  0  0
   57.7267   27.9594   44.3493 H   0  0  0  0  0  0  0  0  0  0  0  0
   57.1606   27.9573   47.3621 H   0  0  0  0  0  0  0  0  0  0  0  0
   58.6086   27.2566   46.5498 H   0  0  0  0  0  0  0  0  0  0  0  0
   58.2574   29.1228   48.6173 H   0  0  0  0  0  0  0  0  0  0  0  0
   59.9289   29.5097   48.0852 H   0  0  0  0  0  0  0  0  0  0  0  0
   58.6677   30.7887   48.0852 H   0  0  0  0  0  0  0  0  0  0  0  0
   59.9988   28.3621   45.4202 H   0  0  0  0  0  0  0  0  0  0  0  0
   59.4611   29.9405   44.7386 H   0  0  0  0  0  0  0  0  0  0  0  0
   60.7169   30.0139   47.4624 H   0  0  0  0  0  0  0  0  0  0  0  0
   61.8045   29.6259   46.0864 H   0  0  0  0  0  0  0  0  0  0  0  0
   60.8678   31.1586   46.0864 H   0  0  0  0  0  0  0  0  0  0  0  0
   57.0120   30.8550   46.0180 H   0  0  0  0  0  0  0  0  0  0  0  0
  1  2  1  0
  2  3  1  0
  3  4  1  0
  4  5  2  0
  5  6  1  0
  6  7  2  0
  7  8  1  0
  8  9  2  0
  9 10  1  0
 10 11  1  0
 11 12  1  0
 12 13  1  0
 13 14  1  0
 14 15  1  0
 14 16  1  0
 16 17  1  0
  9 18  1  0
 18 19  2  0
 19 20  1  0
 20  4  1  0
 19  6  1  0
  1 21  1  0
  1 22  1  0
  1 23  1  0
  2 24  1  0
  2 25  1  0
  7 26  1  0
  8 27  1  0
 10 28  1  0
 10 29  1  0
 12 30  1  0
 12 31  1  0
 13 32  1  0
 13 33  1  0
 15 34  1  0
 15 35  1  0
 15 36  1  0
 16 37  1  0
 16 38  1  0
 17 39  1  0
 17 40  1  0
 17 41  1  0
 18 42  1  0
M  CHG  1  18   1
M  END
>  <UniqueID>  (13) 
13

>  <SMILES>  (13) 
CCSc1nc2ccc(COCCN(C)CC)[nH+]c2o1

>  <Energy>  (13) 
74.68561907821474

>  <Genealogy>  (13) 
CCSc1nc2ccc(COCCN(C)CC)[nH+]c2o1 (protonated)
CCSc1nc2ccc(COCCN(C)CC)[nH+]c2o1 (3D coordinates assigned)
CCSc1nc2ccc(COCCN(C)CC)[nH+]c2o1 (optimized conformer: 74.68561907821474 kcal/mol)

>  <smiles>  (13) 
CCSc1nc2ccc(COCCN(C)CC)nc2o1

>  <score_type>  (13) 
oracle

>  <origin>  (13) 
adg

>  <m_score__min__energy>  (13) 
-4.2699999999999996

>  <m_primary>  (13) 
energy

$$$$
13:0
     RDKit          3D

 61 63  0  0  0  0  0  0  0  0999 V2000
   59.7860   29.2880   51.0420 C   0  0  0  0  0  0  0  0  0  0  0  0
   61.1680   29.0670   50.4410 C   0  0  0  0  0  0  0  0  0  0  0  0
   61.2020   29.5130   49.0830 O   0  0  0  0  0  0  0  0  0  0  0  0
   60.3430   29.1050   48.0480 C   0  0  0  0  0  0  0  0  0  0  0  0
   59.9940   27.7480   47.9440 C   0  0  0  0  0  0  0  0  0  0  0  0
   59.0750   27.3180   47.0070 C   0  0  0  0  0  0  0  0  0  0  0  0
   58.4890   28.2230   46.1430 C   0  0  0  0  0  0  0  0  0  0  0  0
   58.8400   29.5940   46.1580 C   0  0  0  0  0  0  0  0  0  0  0  0
   59.7820   30.0570   47.1300 C   0  0  0  0  0  0  0  0  0  0  0  0
   60.1270   31.4500   47.1250 C   0  0  0  0  0  0  0  0  0  0  0  0
   61.2750   31.9530   47.8620 N   0  0  0  0  0  0  0  0  0  0  0  0
   62.5360   31.7210   47.1270 C   0  0  0  0  0  0  0  0  0  0  0  0
   63.7560   31.9750   48.0170 C   0  0  0  0  0  0  0  0  0  0  0  0
   63.3400   32.3330   49.3200 O   0  0  0  0  0  0  0  0  0  0  0  0
   63.3880   33.7390   49.4870 C   0  0  0  0  0  0  0  0  0  0  0  0
   62.1350   34.2080   50.2220 C   0  0  0  0  0  0  0  0  0  0  0  0
   61.1360   33.1110   50.2570 N   0  0  0  0  0  0  0  0  0  0  0  0
   61.2070   32.3770   51.5330 C   0  0  0  0  0  0  0  0  0  0  0  0
   59.7600   33.5960   50.0240 C   0  0  0  0  0  0  0  0  0  0  0  0
   58.7710   32.4340   50.0570 C   0  0  0  0  0  0  0  0  0  0  0  0
   59.3390   32.3450   46.3480 C   0  0  0  0  0  0  0  0  0  0  0  0
   59.4900   33.7530   46.4410 C   0  0  0  0  0  0  0  0  0  0  0  0
   58.6810   34.6160   45.7070 C   0  0  0  0  0  0  0  0  0  0  0  0
   57.6960   34.1090   44.8780 C   0  0  0  0  0  0  0  0  0  0  0  0
   57.5370   32.7320   44.7500 C   0  0  0  0  0  0  0  0  0  0  0  0
   58.3760   31.8250   45.4470 C   0  0  0  0  0  0  0  0  0  0  0  0
   58.2770   30.4670   45.2520 N   0  0  0  0  0  0  0  0  0  0  0  0
   57.5730   29.9450   44.0570 C   0  0  0  0  0  0  0  0  0  0  0  0
   59.8574   29.2766   52.1396 H   0  0  0  0  0  0  0  0  0  0  0  0
   59.3931   30.2604   50.7102 H   0  0  0  0  0  0  0  0  0  0  0  0
   59.1094   28.4866   50.7102 H   0  0  0  0  0  0  0  0  0  0  0  0
   61.9108   29.6298   51.0253 H   0  0  0  0  0  0  0  0  0  0  0  0
   61.3991   27.9919   50.4677 H   0  0  0  0  0  0  0  0  0  0  0  0
   60.4603   27.0161   48.6199 H   0  0  0  0  0  0  0  0  0  0  0  0
   58.8089   26.2523   46.9484 H   0  0  0  0  0  0  0  0  0  0  0  0
   57.7323   27.8698   45.4270 H   0  0  0  0  0  0  0  0  0  0  0  0
   61.1420   32.9570   48.1130 H   0  0  0  0  0  0  0  0  0  0  0  0
   61.3300   31.4960   48.7990 H   0  0  0  0  0  0  0  0  0  0  0  0
   62.5594   30.6786   46.7765 H   0  0  0  0  0  0  0  0  0  0  0  0
   62.5754   32.4192   46.2779 H   0  0  0  0  0  0  0  0  0  0  0  0
   64.3659   31.0610   48.0679 H   0  0  0  0  0  0  0  0  0  0  0  0
   64.3490   32.7970   47.5895 H   0  0  0  0  0  0  0  0  0  0  0  0
   64.2791   34.0083   50.0730 H   0  0  0  0  0  0  0  0  0  0  0  0
   63.4371   34.2236   48.5007 H   0  0  0  0  0  0  0  0  0  0  0  0
   62.3999   34.4943   51.2505 H   0  0  0  0  0  0  0  0  0  0  0  0
   61.7068   35.0742   49.6963 H   0  0  0  0  0  0  0  0  0  0  0  0
   61.1382   33.0881   52.3694 H   0  0  0  0  0  0  0  0  0  0  0  0
   60.3739   31.6610   51.5910 H   0  0  0  0  0  0  0  0  0  0  0  0
   62.1619   31.8340   51.5910 H   0  0  0  0  0  0  0  0  0  0  0  0
   59.4938   34.3203   50.8079 H   0  0  0  0  0  0  0  0  0  0  0  0
   59.7141   34.0743   49.0345 H   0  0  0  0  0  0  0  0  0  0  0  0
   58.5479   32.1719   51.1018 H   0  0  0  0  0  0  0  0  0  0  0  0
   57.8422   32.7284   49.5465 H   0  0  0  0  0  0  0  0  0  0  0  0
   59.2101   31.5642   49.5465 H   0  0  0  0  0  0  0  0  0  0  0  0
   60.2608   34.1703   47.1056 H   0  0  0  0  0  0  0  0  0  0  0  0
   58.8252   35.7036   45.7863 H   0  0  0  0  0  0  0  0  0  0  0  0
   57.0393   34.7933   44.3207 H   0  0  0  0  0  0  0  0  0  0  0  0
   56.7450   32.3394   44.0953 H   0  0  0  0  0  0  0  0  0  0  0  0
   56.7270   29.3177   44.3747 H   0  0  0  0  0  0  0  0  0  0  0  0
   57.1998   30.7864   43.4547 H   0  0  0  0  0  0  0  0  0  0  0  0
   58.2696   29.3434   43.4547 H   0  0  0  0  0  0  0  0  0  0  0  0
  1  2  1  0
  2  3  1  0
  3  4  1  0
  4  5  2  0
  5  6  1  0
  6  7  2  0
  7  8  1  0
  8  9  2  0
  9 10  1  0
 10 11  1  0
 11 12  1  0
 12 13  1  0
 13 14  1  0
 14 15  1  0
 15 16  1  0
 16 17  1  0
 17 18  1  0
 17 19  1  0
 19 20  1  0
 10 21  2  0
 21 22  1  0
 22 23  2  0
 23 24  1  0
 24 25  2  0
 25 26  1  0
 26 27  2  0
 27 28  1  0
  9  4  1  0
 26 21  1  0
 27  8  1  0
  1 29  1  0
  1 30  1  0
  1 31  1  0
  2 32  1  0
  2 33  1  0
  5 34  1  0
  6 35  1  0
  7 36  1  0
 11 37  1  0
 11 38  1  0
 12 39  1  0
 12 40  1  0
 13 41  1  0
 13 42  1  0
 15 43  1  0
 15 44  1  0
 16 45  1  0
 16 46  1  0
 18 47  1  0
 18 48  1  0
 18 49  1  0
 19 50  1  0
 19 51  1  0
 20 52  1  0
 20 53  1  0
 20 54  1  0
 22 55  1  0
 23 56  1  0
 24 57  1  0
 25 58  1  0
 28 59  1  0
 28 60  1  0
 28 61  1  0
M  CHG  2  11   1  27   1
M  END
>  <UniqueID>  (14) 
14

>  <SMILES>  (14) 
CCOc1cccc2c1c([NH2+]CCOCCN(C)CC)c1ccccc1[n+]2C

>  <Energy>  (14) 
91.37395545890011

>  <Genealogy>  (14) 
CCOc1cccc2c1c([NH2+]CCOCCN(C)CC)c1ccccc1[n+]2C (protonated)
CCOc1cccc2c1c([NH2+]CCOCCN(C)CC)c1ccccc1[n+]2C (3D coordinates assigned)
CCOc1cccc2c1c([NH2+]CCOCCN(C)CC)c1ccccc1[n+]2C (optimized conformer: 91.37395545890011 kcal/mol)

>  <smiles>  (14) 
CCOc1cccc2c1c(NCCOCCN(C)CC)c1ccccc1[n+]2C

>  <score_type>  (14) 
oracle

>  <origin>  (14) 
adg

>  <m_score__min__energy>  (14) 
-2.9399999999999999

>  <m_primary>  (14) 
energy

$$$$
14:0
     RDKit          3D

 62 66  0  0  0  0  0  0  0  0999 V2000
   63.5890   29.7473   52.4216 H   0  0  0  0  0  0  0  0  0  0  0  0
   64.3000   30.4210   51.9210 C   0  0  0  0  0  0  0  0  0  0  0  0
   65.5620   30.5470   52.3980 N   0  0  0  0  0  0  0  0  0  0  0  0
   66.4550   31.4080   51.8470 C   0  0  0  0  0  0  0  0  0  0  0  0
   67.7220   31.5410   52.4280 C   0  0  0  0  0  0  0  0  0  0  0  0
   68.0160   30.8822   53.2584 H   0  0  0  0  0  0  0  0  0  0  0  0
   68.6120   32.5050   51.9580 C   0  0  0  0  0  0  0  0  0  0  0  0
   69.6180   32.5850   52.3956 H   0  0  0  0  0  0  0  0  0  0  0  0
   68.2270   33.3670   50.9340 C   0  0  0  0  0  0  0  0  0  0  0  0
   68.9153   34.1550   50.5943 H   0  0  0  0  0  0  0  0  0  0  0  0
   66.9710   33.2360   50.3360 C   0  0  0  0  0  0  0  0  0  0  0  0
   66.6643   33.9467   49.5544 H   0  0  0  0  0  0  0  0  0  0  0  0
   66.0890   32.2000   50.7240 C   0  0  0  0  0  0  0  0  0  0  0  0
   64.8100   31.9690   50.1270 C   0  0  0  0  0  0  0  0  0  0  0  0
   64.4250   32.4290   48.9630 N   0  0  0  0  0  0  0  0  0  0  0  0
   63.1020   32.6100   48.4370 C   0  0  0  0  0  0  0  0  0  0  0  0
   62.5820   33.8920   48.2310 C   0  0  0  0  0  0  0  0  0  0  0  0
   63.1767   34.7754   48.5064 H   0  0  0  0  0  0  0  0  0  0  0  0
   61.3130   34.0540   47.6780 C   0  0  0  0  0  0  0  0  0  0  0  0
   60.8995   35.0660   47.5559 H   0  0  0  0  0  0  0  0  0  0  0  0
   60.5540   32.9410   47.2740 C   0  0  0  0  0  0  0  0  0  0  0  0
   59.1650   33.1920   46.7290 C   0  0  0  0  0  0  0  0  0  0  0  0
   58.9699   34.2746   46.7317 H   0  0  0  0  0  0  0  0  0  0  0  0
   58.4421   32.6631   47.3675 H   0  0  0  0  0  0  0  0  0  0  0  0
   59.0270   32.6850   45.3570 N   0  0  0  0  0  0  0  0  0  0  0  0
   58.7610   31.6740   45.4290 H   0  0  0  0  0  0  0  0  0  0  0  0
   57.9590   33.3760   44.6220 C   0  0  0  0  0  0  0  0  0  0  0  0
   58.2370   34.4310   44.4815 H   0  0  0  0  0  0  0  0  0  0  0  0
   57.0237   33.3105   45.1972 H   0  0  0  0  0  0  0  0  0  0  0  0
   57.7550   32.7170   43.2510 C   0  0  0  0  0  0  0  0  0  0  0  0
   58.6792   32.8276   42.6648 H   0  0  0  0  0  0  0  0  0  0  0  0
   56.9055   33.2161   42.7619 H   0  0  0  0  0  0  0  0  0  0  0  0
   57.4190   31.2250   43.3640 C   0  0  0  0  0  0  0  0  0  0  0  0
   58.2769   30.6334   43.0119 H   0  0  0  0  0  0  0  0  0  0  0  0
   56.5327   31.0129   42.7479 H   0  0  0  0  0  0  0  0  0  0  0  0
   57.1240   30.8660   44.7600 N   0  0  0  0  0  0  0  0  0  0  0  0
   58.0190   30.6290   45.2490 H   0  0  0  0  0  0  0  0  0  0  0  0
   56.2130   29.7160   44.8620 C   0  0  0  0  0  0  0  0  0  0  0  0
   55.7127   29.7482   45.8411 H   0  0  0  0  0  0  0  0  0  0  0  0
   56.8142   28.8023   44.7444 H   0  0  0  0  0  0  0  0  0  0  0  0
   55.1450   29.7140   43.7650 C   0  0  0  0  0  0  0  0  0  0  0  0
   54.1461   29.7121   44.2257 H   0  0  0  0  0  0  0  0  0  0  0  0
   55.2591   30.6124   43.1406 H   0  0  0  0  0  0  0  0  0  0  0  0
   55.2624   28.8161   43.1406 H   0  0  0  0  0  0  0  0  0  0  0  0
   61.1050   31.6370   47.4210 C   0  0  0  0  0  0  0  0  0  0  0  0
   60.3960   30.3970   47.0230 C   0  0  0  0  0  0  0  0  0  0  0  0
   60.1790   30.0680   45.7230 N   0  0  0  0  0  0  0  0  0  0  0  0
   59.4360   28.9390   45.6110 C   0  0  0  0  0  0  0  0  0  0  0  0
   59.0540   28.3600   44.4000 C   0  0  0  0  0  0  0  0  0  0  0  0
   59.3593   28.8084   43.4431 H   0  0  0  0  0  0  0  0  0  0  0  0
   58.2710   27.1920   44.4270 C   0  0  0  0  0  0  0  0  0  0  0  0
   57.9631   26.7191   43.4828 H   0  0  0  0  0  0  0  0  0  0  0  0
   57.8780   26.6230   45.6550 C   0  0  0  0  0  0  0  0  0  0  0  0
   57.2673   25.7081   45.6638 H   0  0  0  0  0  0  0  0  0  0  0  0
   58.2620   27.2180   46.8670 C   0  0  0  0  0  0  0  0  0  0  0  0
   57.9577   26.7860   47.8318 H   0  0  0  0  0  0  0  0  0  0  0  0
   59.0400   28.3720   46.8110 C   0  0  0  0  0  0  0  0  0  0  0  0
   59.6250   29.3070   48.0730 S   0  0  0  0  0  0  0  0  0  0  0  0
   62.3780   31.4960   48.0070 C   0  0  0  0  0  0  0  0  0  0  0  0
   62.8092   30.4913   48.1280 H   0  0  0  0  0  0  0  0  0  0  0  0
   63.9010   31.1420   50.7990 C   0  0  0  0  0  0  0  0  0  0  0  0
   62.8651   31.0617   50.4378 H   0  0  0  0  0  0  0  0  0  0  0  0
  1  2  1  0
  2  3  1  0
  3  4  1  0
  4  5  2  0
  5  6  1  0
  5  7  1  0
  7  8  1  0
  7  9  2  0
  9 10  1  0
  9 11  1  0
 11 12  1  0
 11 13  2  0
 13 14  1  0
 14 15  2  0
 15 16  1  0
 16 17  2  0
 17 18  1  0
 17 19  1  0
 19 20  1  0
 19 21  2  0
 21 22  1  0
 22 23  1  0
 22 24  1  0
 22 25  1  0
 25 26  1  0
 25 27  1  0
 27 28  1  0
 27 29  1  0
 27 30  1  0
 30 31  1  0
 30 32  1  0
 30 33  1  0
 33 34  1  0
 33 35  1  0
 33 36  1  0
 36 37  1  0
 36 38  1  0
 38 39  1  0
 38 40  1  0
 38 41  1  0
 41 42  1  0
 41 43  1  0
 41 44  1  0
 21 45  1  0
 45 46  1  0
 46 47  2  0
 47 48  1  0
 48 49  2  0
 49 50  1  0
 49 51  1  0
 51 52  1  0
 51 53  2  0
 53 54  1  0
 53 55  1  0
 55 56  1  0
 55 57  2  0
 57 58  1  0
 45 59  2  0
 59 60  1  0
 14 61  1  0
 61 62  1  0
 61  2  2  0
 13  4  1  0
 59 16  1  0
 58 46  1  0
 57 48  1  0
M  CHG  1   3  -1
M  END
>  <UniqueID>  (15) 
15

>  <SMILES>  (15) 
CCNCCCNCc1ccc(/N=c2/cc[n-]c3ccccc23)cc1-c1nc2ccccc2s1

>  <Energy>  (15) 
126.01686889218634

>  <Genealogy>  (15) 
CCNCCCNCc1ccc(N=c2cc[n-]c3ccccc23)cc1-c1nc2ccccc2s1 (protonated)
CCNCCCNCc1ccc(/N=c2/cc[n-]c3ccccc23)cc1-c1nc2ccccc2s1 (cis-trans isomerization)
CCNCCCNCc1ccc(/N=c2/cc[n-]c3ccccc23)cc1-c1nc2ccccc2s1 (3D coordinates assigned)
CCNCCCNCc1ccc(/N=c2/cc[n-]c3ccccc23)cc1-c1nc2ccccc2s1 (optimized conformer: 126.01686889218634 kcal/mol)

>  <smiles>  (15) 
CCNCCCNCc1ccc(N=c2cc[nH]c3ccccc23)cc1-c1nc2ccccc2s1

>  <score_type>  (15) 
oracle

>  <origin>  (15) 
adg

>  <m_score__min__energy>  (15) 
-10.289999999999999

>  <m_primary>  (15) 
energy

$$$$
15:0
     RDKit          3D

 84 86  0  0  0  0  0  0  0  0999 V2000
   63.7210   33.8510   47.9700 C   0  0  0  0  0  0  0  0  0  0  0  0
   63.5030   32.6690   47.0420 C   0  0  0  0  0  0  0  0  0  0  0  0
   62.1500   32.2710   47.1110 O   0  0  0  0  0  0  0  0  0  0  0  0
   62.0510   30.8620   47.1920 C   0  0  0  0  0  0  0  0  0  0  0  0
   60.8710   30.3370   46.3670 C   0  0  0  0  0  0  0  0  0  0  0  0
   59.6460   30.8420   46.8620 O   0  0  0  0  0  0  0  0  0  0  0  0
   59.1270   30.0190   47.8880 C   0  0  0  0  0  0  0  0  0  0  0  0
   58.2280   28.9570   47.2640 C   0  0  0  0  0  0  0  0  0  0  0  0
   58.8420   28.4300   46.1000 O   0  0  0  0  0  0  0  0  0  0  0  0
   57.8920   27.8250   45.2420 C   0  0  0  0  0  0  0  0  0  0  0  0
   57.6460   28.7320   44.0300 C   0  0  0  0  0  0  0  0  0  0  0  0
   58.5470   29.9030   44.0010 N   0  0  0  0  0  0  0  0  0  0  0  0
   57.9030   31.1840   43.6360 C   0  0  0  0  0  0  0  0  0  0  0  0
   56.7140   31.5980   44.5300 C   0  0  0  0  0  0  0  0  0  0  0  0
   57.0000   32.8290   45.4000 C   0  0  0  0  0  0  0  0  0  0  0  0
   58.4490   33.0150   45.5630 N   0  0  0  0  0  0  0  0  0  0  0  0
   58.8700   34.3980   45.2620 C   0  0  0  0  0  0  0  0  0  0  0  0
   60.1580   34.8040   46.0020 C   0  0  0  0  0  0  0  0  0  0  0  0
   60.3070   34.0080   47.2270 N   0  0  0  0  0  0  0  0  0  0  0  0
   59.4120   34.4800   48.2880 C   0  0  0  0  0  0  0  0  0  0  0  0
   59.8120   33.8270   49.6110 C   0  0  0  0  0  0  0  0  0  0  0  0
   60.3680   32.4970   49.3800 N   0  0  0  0  0  0  0  0  0  0  0  0
   60.5010   31.5480   50.4520 C   0  0  0  0  0  0  0  0  0  0  0  0
   59.3620   31.1000   51.1450 C   0  0  0  0  0  0  0  0  0  0  0  0
   58.0830   31.6240   50.8550 C   0  0  0  0  0  0  0  0  0  0  0  0
   56.9640   31.2140   51.5750 C   0  0  0  0  0  0  0  0  0  0  0  0
   57.0990   30.2910   52.6060 C   0  0  0  0  0  0  0  0  0  0  0  0
   58.3530   29.7640   52.9160 C   0  0  0  0  0  0  0  0  0  0  0  0
   59.5050   30.1310   52.1750 C   0  0  0  0  0  0  0  0  0  0  0  0
   60.7450   29.5820   52.4430 N   0  0  0  0  0  0  0  0  0  0  0  0
   60.8500   28.3660   53.2820 C   0  0  0  0  0  0  0  0  0  0  0  0
   61.8830   30.1500   51.9020 C   0  0  0  0  0  0  0  0  0  0  0  0
   63.1790   29.8070   52.3640 C   0  0  0  0  0  0  0  0  0  0  0  0
   64.3210   30.3430   51.7690 C   0  0  0  0  0  0  0  0  0  0  0  0
   64.2030   31.2390   50.7110 C   0  0  0  0  0  0  0  0  0  0  0  0
   62.9440   31.6260   50.2610 C   0  0  0  0  0  0  0  0  0  0  0  0
   61.7730   31.1160   50.8640 C   0  0  0  0  0  0  0  0  0  0  0  0
   63.6587   33.5131   49.0150 H   0  0  0  0  0  0  0  0  0  0  0  0
   64.7144   34.2852   47.7836 H   0  0  0  0  0  0  0  0  0  0  0  0
   62.9479   34.6110   47.7836 H   0  0  0  0  0  0  0  0  0  0  0  0
   63.7491   32.9604   46.0102 H   0  0  0  0  0  0  0  0  0  0  0  0
   64.1510   31.8340   47.3468 H   0  0  0  0  0  0  0  0  0  0  0  0
   62.9812   30.4152   46.8110 H   0  0  0  0  0  0  0  0  0  0  0  0
   61.8883   30.5859   48.2443 H   0  0  0  0  0  0  0  0  0  0  0  0
   60.9943   30.6526   45.3205 H   0  0  0  0  0  0  0  0  0  0  0  0
   60.8532   29.2394   46.4372 H   0  0  0  0  0  0  0  0  0  0  0  0
   59.9546   29.5327   48.4251 H   0  0  0  0  0  0  0  0  0  0  0  0
   58.5466   30.6286   48.5962 H   0  0  0  0  0  0  0  0  0  0  0  0
   58.0637   28.1461   47.9889 H   0  0  0  0  0  0  0  0  0  0  0  0
   57.2644   29.4121   46.9913 H   0  0  0  0  0  0  0  0  0  0  0  0
   58.2743   26.8519   44.9000 H   0  0  0  0  0  0  0  0  0  0  0  0
   56.9479   27.6775   45.7868 H   0  0  0  0  0  0  0  0  0  0  0  0
   57.8030   28.1445   43.1134 H   0  0  0  0  0  0  0  0  0  0  0  0
   56.6148   29.1083   44.1008 H   0  0  0  0  0  0  0  0  0  0  0  0
   58.9830   30.0170   44.9450 H   0  0  0  0  0  0  0  0  0  0  0  0
   59.3320   29.7130   43.3380 H   0  0  0  0  0  0  0  0  0  0  0  0
   58.6640   31.9762   43.6928 H   0  0  0  0  0  0  0  0  0  0  0  0
   57.4917   31.0429   42.6256 H   0  0  0  0  0  0  0  0  0  0  0  0
   55.8534   31.8219   43.8826 H   0  0  0  0  0  0  0  0  0  0  0  0
   56.5161   30.7588   45.2131 H   0  0  0  0  0  0  0  0  0  0  0  0
   56.5719   33.7206   44.9186 H   0  0  0  0  0  0  0  0  0  0  0  0
   56.5455   32.6797   46.3905 H   0  0  0  0  0  0  0  0  0  0  0  0
   58.7270   32.7650   46.5430 H   0  0  0  0  0  0  0  0  0  0  0  0
   59.0445   34.4845   44.1794 H   0  0  0  0  0  0  0  0  0  0  0  0
   58.0675   35.0697   45.6009 H   0  0  0  0  0  0  0  0  0  0  0  0
   61.0244   34.6299   45.3470 H   0  0  0  0  0  0  0  0  0  0  0  0
   60.0997   35.8695   46.2692 H   0  0  0  0  0  0  0  0  0  0  0  0
   60.0540   33.0130   47.0010 H   0  0  0  0  0  0  0  0  0  0  0  0
   59.4929   35.5733   48.3782 H   0  0  0  0  0  0  0  0  0  0  0  0
   58.3740   34.2113   48.0424 H   0  0  0  0  0  0  0  0  0  0  0  0
   60.5669   34.4529   50.1094 H   0  0  0  0  0  0  0  0  0  0  0  0
   58.9177   33.7325   50.2445 H   0  0  0  0  0  0  0  0  0  0  0  0
   60.4430   32.1620   48.3910 H   0  0  0  0  0  0  0  0  0  0  0  0
   57.9694   32.3653   50.0503 H   0  0  0  0  0  0  0  0  0  0  0  0
   55.9723   31.6207   51.3279 H   0  0  0  0  0  0  0  0  0  0  0  0
   56.2146   29.9754   53.1789 H   0  0  0  0  0  0  0  0  0  0  0  0
   58.4497   29.0521   53.7489 H   0  0  0  0  0  0  0  0  0  0  0  0
   60.8255   28.6503   54.3444 H   0  0  0  0  0  0  0  0  0  0  0  0
   60.0064   27.6950   53.0624 H   0  0  0  0  0  0  0  0  0  0  0  0
   61.7961   27.8496   53.0624 H   0  0  0  0  0  0  0  0  0  0  0  0
   63.2855   29.1066   53.2055 H   0  0  0  0  0  0  0  0  0  0  0  0
   65.3173   30.0567   52.1370 H   0  0  0  0  0  0  0  0  0  0  0  0
   65.1061   31.6421   50.2295 H   0  0  0  0  0  0  0  0  0  0  0  0
   62.8600   32.3373   49.4261 H   0  0  0  0  0  0  0  0  0  0  0  0
  1  2  1  0
  2  3  1  0
  3  4  1  0
  4  5  1  0
  5  6  1  0
  6  7  1  0
  7  8  1  0
  8  9  1  0
  9 10  1  0
 10 11  1  0
 11 12  1  0
 12 13  1  0
 13 14  1  0
 14 15  1  0
 15 16  1  0
 16 17  1  0
 17 18  1  0
 18 19  1  0
 19 20  1  0
 20 21  1  0
 21 22  1  0
 22 23  1  0
 23 24  2  0
 24 25  1  0
 25 26  2  0
 26 27  1  0
 27 28  2  0
 28 29  1  0
 29 30  2  0
 30 31  1  0
 30 32  1  0
 32 33  2  0
 33 34  1  0
 34 35  2  0
 35 36  1  0
 36 37  2  0
 37 23  1  0
 29 24  1  0
 37 32  1  0
  1 38  1  0
  1 39  1  0
  1 40  1  0
  2 41  1  0
  2 42  1  0
  4 43  1  0
  4 44  1  0
  5 45  1  0
  5 46  1  0
  7 47  1  0
  7 48  1  0
  8 49  1  0
  8 50  1  0
 10 51  1  0
 10 52  1  0
 11 53  1  0
 11 54  1  0
 12 55  1  0
 12 56  1  0
 13 57  1  0
 13 58  1  0
 14 59  1  0
 14 60  1  0
 15 61  1  0
 15 62  1  0
 16 63  1  0
 17 64  1  0
 17 65  1  0
 18 66  1  0
 18 67  1  0
 19 68  1  0
 20 69  1  0
 20 70  1  0
 21 71  1  0
 21 72  1  0
 22 73  1  0
 25 74  1  0
 26 75  1  0
 27 76  1  0
 28 77  1  0
 31 78  1  0
 31 79  1  0
 31 80  1  0
 33 81  1  0
 34 82  1  0
 35 83  1  0
 36 84  1  0
M  CHG  2  12   1  30   1
M  END
>  <UniqueID>  (16) 
16

>  <SMILES>  (16) 
CCOCCOCCOCC[NH2+]CCCNCCNCCNc1c2ccccc2[n+](C)c2ccccc12

>  <Energy>  (16) 
98.91256970003376

>  <Genealogy>  (16) 
CCOCCOCCOCC[NH2+]CCCNCCNCCNc1c2ccccc2[n+](C)c2ccccc12 (protonated)
CCOCCOCCOCC[NH2+]CCCNCCNCCNc1c2ccccc2[n+](C)c2ccccc12 (3D coordinates assigned)
CCOCCOCCOCC[NH2+]CCCNCCNCCNc1c2ccccc2[n+](C)c2ccccc12 (optimized conformer: 98.91256970003376 kcal/mol)

>  <smiles>  (16) 
CCOCCOCCOCCNCCCNCCNCCNc1c2ccccc2[n+](C)c2ccccc12

>  <score_type>  (16) 
oracle

>  <origin>  (16) 
adg

>  <m_score__min__energy>  (16) 
-3.1099999999999999

>  <m_primary>  (16) 
energy

$$$$
16:0
     RDKit          3D

 71 75  0  0  0  0  0  0  0  0999 V2000
   63.3210   33.7450   46.8420 C   0  0  0  0  0  0  0  0  0  0  0  0
   63.3840   32.3400   47.4360 C   0  0  0  0  0  0  0  0  0  0  0  0
   62.1760   32.0560   48.2260 N   0  0  0  0  0  0  0  0  0  0  0  0
   61.0990   33.0330   47.9860 C   0  0  0  0  0  0  0  0  0  0  0  0
   60.0520   32.5260   46.9750 C   0  0  0  0  0  0  0  0  0  0  0  0
   60.5200   31.2900   46.3520 N   0  0  0  0  0  0  0  0  0  0  0  0
   59.6170   30.2220   46.0300 C   0  0  0  0  0  0  0  0  0  0  0  0
   58.6640   30.4300   45.0190 C   0  0  0  0  0  0  0  0  0  0  0  0
   58.3850   31.7300   44.5390 C   0  0  0  0  0  0  0  0  0  0  0  0
   57.4050   31.9330   43.5690 C   0  0  0  0  0  0  0  0  0  0  0  0
   56.6980   30.8500   43.0550 C   0  0  0  0  0  0  0  0  0  0  0  0
   56.9770   29.5580   43.4950 C   0  0  0  0  0  0  0  0  0  0  0  0
   57.9850   29.3190   44.4660 C   0  0  0  0  0  0  0  0  0  0  0  0
   58.3260   28.0440   44.8610 N   0  0  0  0  0  0  0  0  0  0  0  0
   57.9160   26.8850   44.0360 C   0  0  0  0  0  0  0  0  0  0  0  0
   59.0590   27.8500   46.0200 C   0  0  0  0  0  0  0  0  0  0  0  0
   59.1860   26.5630   46.5910 C   0  0  0  0  0  0  0  0  0  0  0  0
   59.9710   26.3500   47.7150 C   0  0  0  0  0  0  0  0  0  0  0  0
   60.5710   27.4170   48.3630 C   0  0  0  0  0  0  0  0  0  0  0  0
   60.3700   28.7420   47.9260 C   0  0  0  0  0  0  0  0  0  0  0  0
   60.8490   29.8570   48.7340 N   0  0  0  0  0  0  0  0  0  0  0  0
   60.5510   29.7640   50.1800 C   0  0  0  0  0  0  0  0  0  0  0  0
   61.7940   29.3250   50.9840 C   0  0  0  0  0  0  0  0  0  0  0  0
   62.1840   30.3000   52.1160 C   0  0  0  0  0  0  0  0  0  0  0  0
   62.7020   31.5890   51.6090 N   0  0  0  0  0  0  0  0  0  0  0  0
   61.8080   32.6240   51.4880 C   0  0  0  0  0  0  0  0  0  0  0  0
   62.2010   33.8680   50.9940 C   0  0  0  0  0  0  0  0  0  0  0  0
   63.5230   34.0750   50.6250 C   0  0  0  0  0  0  0  0  0  0  0  0
   64.4500   33.0360   50.7450 C   0  0  0  0  0  0  0  0  0  0  0  0
   65.7830   33.2360   50.3510 C   0  0  0  0  0  0  0  0  0  0  0  0
   66.7040   32.1910   50.4320 C   0  0  0  0  0  0  0  0  0  0  0  0
   66.3060   30.9470   50.9220 C   0  0  0  0  0  0  0  0  0  0  0  0
   64.9860   30.7370   51.3310 C   0  0  0  0  0  0  0  0  0  0  0  0
   64.0260   31.7730   51.2430 C   0  0  0  0  0  0  0  0  0  0  0  0
   59.6970   28.9540   46.6680 C   0  0  0  0  0  0  0  0  0  0  0  0
   63.2878   34.4855   47.6547 H   0  0  0  0  0  0  0  0  0  0  0  0
   64.2121   33.9211   46.2217 H   0  0  0  0  0  0  0  0  0  0  0  0
   62.4177   33.8407   46.2217 H   0  0  0  0  0  0  0  0  0  0  0  0
   63.4631   31.6061   46.6204 H   0  0  0  0  0  0  0  0  0  0  0  0
   64.2621   32.2733   48.0952 H   0  0  0  0  0  0  0  0  0  0  0  0
   62.4310   32.0590   49.2430 H   0  0  0  0  0  0  0  0  0  0  0  0
   60.5942   33.2422   48.9407 H   0  0  0  0  0  0  0  0  0  0  0  0
   61.5591   33.9382   47.5629 H   0  0  0  0  0  0  0  0  0  0  0  0
   59.1032   32.3345   47.4976 H   0  0  0  0  0  0  0  0  0  0  0  0
   59.9007   33.2889   46.1971 H   0  0  0  0  0  0  0  0  0  0  0  0
   61.5470   31.1110   46.2710 H   0  0  0  0  0  0  0  0  0  0  0  0
   58.9465   32.5892   44.9347 H   0  0  0  0  0  0  0  0  0  0  0  0
   57.1901   32.9501   43.2094 H   0  0  0  0  0  0  0  0  0  0  0  0
   55.9163   31.0147   42.2988 H   0  0  0  0  0  0  0  0  0  0  0  0
   56.4082   28.7108   43.0843 H   0  0  0  0  0  0  0  0  0  0  0  0
   57.6217   26.0532   44.6928 H   0  0  0  0  0  0  0  0  0  0  0  0
   57.0641   27.1699   43.4011 H   0  0  0  0  0  0  0  0  0  0  0  0
   58.7576   26.5708   43.4011 H   0  0  0  0  0  0  0  0  0  0  0  0
   58.6529   25.7152   46.1360 H   0  0  0  0  0  0  0  0  0  0  0  0
   60.1177   25.3277   48.0937 H   0  0  0  0  0  0  0  0  0  0  0  0
   61.2156   27.2271   49.2339 H   0  0  0  0  0  0  0  0  0  0  0  0
   60.3730   30.7200   48.4070 H   0  0  0  0  0  0  0  0  0  0  0  0
   61.8830   29.9420   48.6140 H   0  0  0  0  0  0  0  0  0  0  0  0
   60.2204   30.7489   50.5414 H   0  0  0  0  0  0  0  0  0  0  0  0
   59.7621   29.0109   50.3233 H   0  0  0  0  0  0  0  0  0  0  0  0
   61.5879   28.3410   51.4303 H   0  0  0  0  0  0  0  0  0  0  0  0
   62.6379   29.3008   50.2789 H   0  0  0  0  0  0  0  0  0  0  0  0
   61.2944   30.4967   52.7324 H   0  0  0  0  0  0  0  0  0  0  0  0
   62.9877   29.8263   52.6988 H   0  0  0  0  0  0  0  0  0  0  0  0
   60.7607   32.4692   51.7866 H   0  0  0  0  0  0  0  0  0  0  0  0
   61.4666   34.6812   50.8973 H   0  0  0  0  0  0  0  0  0  0  0  0
   63.8404   35.0549   50.2389 H   0  0  0  0  0  0  0  0  0  0  0  0
   66.1022   34.2201   49.9772 H   0  0  0  0  0  0  0  0  0  0  0  0
   67.7439   32.3481   50.1095 H   0  0  0  0  0  0  0  0  0  0  0  0
   67.0355   30.1262   50.9869 H   0  0  0  0  0  0  0  0  0  0  0  0
   64.6897   29.7541   51.7262 H   0  0  0  0  0  0  0  0  0  0  0  0
  1  2  1  0
  2  3  1  0
  3  4  1  0
  4  5  1  0
  5  6  1  0
  6  7  1  0
  7  8  2  0
  8  9  1  0
  9 10  2  0
 10 11  1  0
 11 12  2  0
 12 13  1  0
 13 14  2  0
 14 15  1  0
 14 16  1  0
 16 17  2  0
 17 18  1  0
 18 19  2  0
 19 20  1  0
 20 21  1  0
 21 22  1  0
 22 23  1  0
 23 24  1  0
 24 25  1  0
 25 26  2  0
 26 27  1  0
 27 28  2  0
 28 29  1  0
 29 30  2  0
 30 31  1  0
 31 32  2  0
 32 33  1  0
 33 34  2  0
 20 35  2  0
 35  7  1  0
 13  8  1  0
 35 16  1  0
 34 25  1  0
 34 29  1  0
  1 36  1  0
  1 37  1  0
  1 38  1  0
  2 39  1  0
  2 40  1  0
  3 41  1  0
  4 42  1  0
  4 43  1  0
  5 44  1  0
  5 45  1  0
  6 46  1  0
  9 47  1  0
 10 48  1  0
 11 49  1  0
 12 50  1  0
 15 51  1  0
 15 52  1  0
 15 53  1  0
 17 54  1  0
 18 55  1  0
 19 56  1  0
 21 57  1  0
 21 58  1  0
 22 59  1  0
 22 60  1  0
 23 61  1  0
 23 62  1  0
 24 63  1  0
 24 64  1  0
 26 65  1  0
 27 66  1  0
 28 67  1  0
 30 68  1  0
 31 69  1  0
 32 70  1  0
 33 71  1  0
M  CHG  3  14   1  21   1  25   1
M  END
>  <UniqueID>  (17) 
17

>  <SMILES>  (17) 
CCNCCNc1c2ccccc2[n+](C)c2cccc([NH2+]CCC[n+]3cccc4ccccc43)c12

>  <Energy>  (17) 
114.47130888389138

>  <Genealogy>  (17) 
CCNCCNc1c2ccccc2[n+](C)c2cccc([NH2+]CCC[n+]3cccc4ccccc43)c12 (protonated)
CCNCCNc1c2ccccc2[n+](C)c2cccc([NH2+]CCC[n+]3cccc4ccccc43)c12 (3D coordinates assigned)
CCNCCNc1c2ccccc2[n+](C)c2cccc([NH2+]CCC[n+]3cccc4ccccc43)c12 (optimized conformer: 114.47130888389138 kcal/mol)

>  <smiles>  (17) 
CCNCCNc1c2ccccc2[n+](C)c2cccc(NCCC[n+]3cccc4ccccc43)c12

>  <score_type>  (17) 
oracle

>  <origin>  (17) 
adg

>  <m_score__min__energy>  (17) 
-4.5999999999999996

>  <m_primary>  (17) 
energy

$$$$
17:0
     RDKit          3D

 63 65  0  0  0  0  0  0  0  0999 V2000
   57.4560   32.3160   41.5640 C   0  0  0  0  0  0  0  0  0  0  0  0
   58.0270   31.6750   42.8260 C   0  0  0  0  0  0  0  0  0  0  0  0
   57.0220   31.7350   43.9830 C   0  0  0  0  0  0  0  0  0  0  0  0
   56.2090   30.4420   44.0970 C   0  0  0  0  0  0  0  0  0  0  0  0
   56.5390   29.7310   45.3400 N   0  0  0  0  0  0  0  0  0  0  0  0
   56.9590   28.3440   45.0780 C   0  0  0  0  0  0  0  0  0  0  0  0
   58.1420   28.3240   44.1060 C   0  0  0  0  0  0  0  0  0  0  0  0
   59.4890   28.3350   44.8420 C   0  0  0  0  0  0  0  0  0  0  0  0
   59.8400   29.7260   45.3990 C   0  0  0  0  0  0  0  0  0  0  0  0
   58.7890   30.2400   46.2990 N   0  0  0  0  0  0  0  0  0  0  0  0
   59.3710   31.0400   47.3680 C   0  0  0  0  0  0  0  0  0  0  0  0
   59.4350   32.4560   47.2260 C   0  0  0  0  0  0  0  0  0  0  0  0
   58.8080   33.1300   46.1430 C   0  0  0  0  0  0  0  0  0  0  0  0
   58.9560   34.5000   45.9600 C   0  0  0  0  0  0  0  0  0  0  0  0
   59.7270   35.2390   46.8450 C   0  0  0  0  0  0  0  0  0  0  0  0
   60.3150   34.6180   47.9430 C   0  0  0  0  0  0  0  0  0  0  0  0
   60.1460   33.2290   48.1840 C   0  0  0  0  0  0  0  0  0  0  0  0
   60.6840   32.6280   49.3000 N   0  0  0  0  0  0  0  0  0  0  0  0
   61.1630   33.4630   50.4280 C   0  0  0  0  0  0  0  0  0  0  0  0
   60.7360   31.2540   49.3990 C   0  0  0  0  0  0  0  0  0  0  0  0
   61.5500   30.6360   50.3780 C   0  0  0  0  0  0  0  0  0  0  0  0
   61.5240   29.2660   50.5760 C   0  0  0  0  0  0  0  0  0  0  0  0
   60.6740   28.4720   49.8270 C   0  0  0  0  0  0  0  0  0  0  0  0
   59.8900   29.0250   48.8000 C   0  0  0  0  0  0  0  0  0  0  0  0
   58.9800   28.2070   48.1060 O   0  0  0  0  0  0  0  0  0  0  0  0
   59.1060   26.8100   47.8390 C   0  0  0  0  0  0  0  0  0  0  0  0
   60.4570   26.4950   47.2030 C   0  0  0  0  0  0  0  0  0  0  0  0
   59.9830   30.4280   48.5090 C   0  0  0  0  0  0  0  0  0  0  0  0
   56.7485   33.1103   41.8441 H   0  0  0  0  0  0  0  0  0  0  0  0
   58.2747   32.7472   40.9692 H   0  0  0  0  0  0  0  0  0  0  0  0
   56.9334   31.5524   40.9692 H   0  0  0  0  0  0  0  0  0  0  0  0
   58.2694   30.6229   42.6157 H   0  0  0  0  0  0  0  0  0  0  0  0
   58.9299   32.2301   43.1203 H   0  0  0  0  0  0  0  0  0  0  0  0
   57.5703   31.8950   44.9231 H   0  0  0  0  0  0  0  0  0  0  0  0
   56.3237   32.5621   43.7872 H   0  0  0  0  0  0  0  0  0  0  0  0
   55.1368   30.6878   44.0950 H   0  0  0  0  0  0  0  0  0  0  0  0
   56.4526   29.7936   43.2424 H   0  0  0  0  0  0  0  0  0  0  0  0
   55.6810   29.7110   45.9380 H   0  0  0  0  0  0  0  0  0  0  0  0
   57.2584   27.8702   46.0245 H   0  0  0  0  0  0  0  0  0  0  0  0
   56.1183   27.7929   44.6314 H   0  0  0  0  0  0  0  0  0  0  0  0
   58.0808   27.4145   43.4903 H   0  0  0  0  0  0  0  0  0  0  0  0
   58.0867   29.2293   43.4836 H   0  0  0  0  0  0  0  0  0  0  0  0
   59.4411   27.6213   45.6777 H   0  0  0  0  0  0  0  0  0  0  0  0
   60.2694   28.0558   44.1188 H   0  0  0  0  0  0  0  0  0  0  0  0
   60.7847   29.6571   45.9583 H   0  0  0  0  0  0  0  0  0  0  0  0
   59.9313   30.4199   44.5503 H   0  0  0  0  0  0  0  0  0  0  0  0
   58.0560   30.7750   45.7880 H   0  0  0  0  0  0  0  0  0  0  0  0
   58.2310   29.4490   46.6890 H   0  0  0  0  0  0  0  0  0  0  0  0
   58.1928   32.5555   45.4349 H   0  0  0  0  0  0  0  0  0  0  0  0
   58.4615   34.9982   45.1131 H   0  0  0  0  0  0  0  0  0  0  0  0
   59.8738   36.3164   46.6790 H   0  0  0  0  0  0  0  0  0  0  0  0
   60.9230   35.2154   48.6383 H   0  0  0  0  0  0  0  0  0  0  0  0
   60.8889   32.9852   51.3801 H   0  0  0  0  0  0  0  0  0  0  0  0
   62.2568   33.5647   50.3703 H   0  0  0  0  0  0  0  0  0  0  0  0
   60.6986   34.4585   50.3703 H   0  0  0  0  0  0  0  0  0  0  0  0
   62.2170   31.2569   50.9942 H   0  0  0  0  0  0  0  0  0  0  0  0
   62.1805   28.8079   51.3304 H   0  0  0  0  0  0  0  0  0  0  0  0
   60.6110   27.3943   50.0379 H   0  0  0  0  0  0  0  0  0  0  0  0
   59.0144   26.2535   48.7834 H   0  0  0  0  0  0  0  0  0  0  0  0
   58.3111   26.5137   47.1387 H   0  0  0  0  0  0  0  0  0  0  0  0
   61.2025   26.3212   47.9929 H   0  0  0  0  0  0  0  0  0  0  0  0
   60.3672   25.5937   46.5788 H   0  0  0  0  0  0  0  0  0  0  0  0
   60.7751   27.3431   46.5788 H   0  0  0  0  0  0  0  0  0  0  0  0
  1  2  1  0
  2  3  1  0
  3  4  1  0
  4  5  1  0
  5  6  1  0
  6  7  1  0
  7  8  1  0
  8  9  1  0
  9 10  1  0
 10 11  1  0
 11 12  2  0
 12 13  1  0
 13 14  2  0
 14 15  1  0
 15 16  2  0
 16 17  1  0
 17 18  2  0
 18 19  1  0
 18 20  1  0
 20 21  2  0
 21 22  1  0
 22 23  2  0
 23 24  1  0
 24 25  1  0
 25 26  1  0
 26 27  1  0
 24 28  2  0
 28 11  1  0
 17 12  1  0
 28 20  1  0
  1 29  1  0
  1 30  1  0
  1 31  1  0
  2 32  1  0
  2 33  1  0
  3 34  1  0
  3 35  1  0
  4 36  1  0
  4 37  1  0
  5 38  1  0
  6 39  1  0
  6 40  1  0
  7 41  1  0
  7 42  1  0
  8 43  1  0
  8 44  1  0
  9 45  1  0
  9 46  1  0
 10 47  1  0
 10 48  1  0
 13 49  1  0
 14 50  1  0
 15 51  1  0
 16 52  1  0
 19 53  1  0
 19 54  1  0
 19 55  1  0
 21 56  1  0
 22 57  1  0
 23 58  1  0
 26 59  1  0
 26 60  1  0
 27 61  1  0
 27 62  1  0
 27 63  1  0
M  CHG  2  10   1  18   1
M  END
>  <UniqueID>  (18) 
18

>  <SMILES>  (18) 
CCCCNCCCC[NH2+]c1c2ccccc2[n+](C)c2cccc(OCC)c12

>  <Energy>  (18) 
83.24964994073987

>  <Genealogy>  (18) 
CCCCNCCCC[NH2+]c1c2ccccc2[n+](C)c2cccc(OCC)c12 (protonated)
CCCCNCCCC[NH2+]c1c2ccccc2[n+](C)c2cccc(OCC)c12 (3D coordinates assigned)
CCCCNCCCC[NH2+]c1c2ccccc2[n+](C)c2cccc(OCC)c12 (optimized conformer: 83.24964994073987 kcal/mol)

>  <smiles>  (18) 
CCCCNCCCCNc1c2ccccc2[n+](C)c2cccc(OCC)c12

>  <score_type>  (18) 
oracle

>  <origin>  (18) 
adg

>  <m_score__min__energy>  (18) 
-4.5300000000000002

>  <m_primary>  (18) 
energy

$$$$
18:0
     RDKit          3D

 64 67  0  0  0  0  0  0  0  0999 V2000
   59.7490   29.8380   46.9990 C   0  0  0  0  0  0  0  0  0  0  0  0
   58.9180   29.3900   48.2070 C   0  0  0  0  0  0  0  0  0  0  0  0
   59.4590   29.8940   49.4810 N   0  0  0  0  0  0  0  0  0  0  0  0
   59.9710   28.8120   50.3380 C   0  0  0  0  0  0  0  0  0  0  0  0
   59.8920   29.2180   51.8120 C   0  0  0  0  0  0  0  0  0  0  0  0
   58.4410   29.2950   52.3290 C   0  0  0  0  0  0  0  0  0  0  0  0
   57.6380   30.0920   51.4780 O   0  0  0  0  0  0  0  0  0  0  0  0
   56.7530   30.9060   52.2280 C   0  0  0  0  0  0  0  0  0  0  0  0
   57.0540   32.3900   52.0140 C   0  0  0  0  0  0  0  0  0  0  0  0
   57.8190   32.8730   53.0990 O   0  0  0  0  0  0  0  0  0  0  0  0
   58.9060   33.6530   52.6410 C   0  0  0  0  0  0  0  0  0  0  0  0
   60.1600   32.7930   52.4610 C   0  0  0  0  0  0  0  0  0  0  0  0
   60.1080   32.0570   51.1990 N   0  0  0  0  0  0  0  0  0  0  0  0
   60.8260   32.5130   50.0410 C   0  0  0  0  0  0  0  0  0  0  0  0
   60.1400   32.8330   48.8730 C   0  0  0  0  0  0  0  0  0  0  0  0
   60.7960   33.3620   47.7750 C   0  0  0  0  0  0  0  0  0  0  0  0
   62.1640   33.4580   47.7250 N   0  0  0  0  0  0  0  0  0  0  0  0
   62.8300   33.7020   46.4350 C   0  0  0  0  0  0  0  0  0  0  0  0
   62.8840   33.2170   48.8850 C   0  0  0  0  0  0  0  0  0  0  0  0
   64.2760   33.4650   48.9590 C   0  0  0  0  0  0  0  0  0  0  0  0
   65.0040   33.1300   50.0990 C   0  0  0  0  0  0  0  0  0  0  0  0
   64.3680   32.5550   51.1950 C   0  0  0  0  0  0  0  0  0  0  0  0
   62.9930   32.3430   51.1770 C   0  0  0  0  0  0  0  0  0  0  0  0
   62.2280   32.7000   50.0510 C   0  0  0  0  0  0  0  0  0  0  0  0
   59.7690   33.6690   46.7470 C   0  0  0  0  0  0  0  0  0  0  0  0
   59.8660   34.3990   45.6000 N   0  0  0  0  0  0  0  0  0  0  0  0
   58.7470   34.6320   44.8500 C   0  0  0  0  0  0  0  0  0  0  0  0
   57.4860   34.1720   45.2780 C   0  0  0  0  0  0  0  0  0  0  0  0
   57.3710   33.4970   46.4980 C   0  0  0  0  0  0  0  0  0  0  0  0
   58.5350   33.2650   47.2230 C   0  0  0  0  0  0  0  0  0  0  0  0
   58.7120   32.7290   48.5600 C   0  0  0  0  0  0  0  0  0  0  0  0
   57.8020   32.2750   49.3040 O   0  0  0  0  0  0  0  0  0  0  0  0
   60.6670   30.3329   47.3487 H   0  0  0  0  0  0  0  0  0  0  0  0
   60.0143   28.9607   46.3908 H   0  0  0  0  0  0  0  0  0  0  0  0
   59.1619   30.5418   46.3908 H   0  0  0  0  0  0  0  0  0  0  0  0
   57.8907   29.7645   48.0871 H   0  0  0  0  0  0  0  0  0  0  0  0
   58.9458   28.2909   48.2431 H   0  0  0  0  0  0  0  0  0  0  0  0
   58.7060   30.4080   49.9950 H   0  0  0  0  0  0  0  0  0  0  0  0
   59.3674   27.9064   50.1784 H   0  0  0  0  0  0  0  0  0  0  0  0
   61.0215   28.6160   50.0770 H   0  0  0  0  0  0  0  0  0  0  0  0
   60.4407   28.4767   52.4115 H   0  0  0  0  0  0  0  0  0  0  0  0
   60.3326   30.2216   51.9052 H   0  0  0  0  0  0  0  0  0  0  0  0
   58.0207   28.2794   52.3720 H   0  0  0  0  0  0  0  0  0  0  0  0
   58.4505   29.7524   53.3294 H   0  0  0  0  0  0  0  0  0  0  0  0
   55.7199   30.6998   51.9114 H   0  0  0  0  0  0  0  0  0  0  0  0
   56.8844   30.6735   53.2951 H   0  0  0  0  0  0  0  0  0  0  0  0
   57.6196   32.5190   51.0794 H   0  0  0  0  0  0  0  0  0  0  0  0
   56.1104   32.9516   51.9499 H   0  0  0  0  0  0  0  0  0  0  0  0
   58.6405   34.1086   51.6756 H   0  0  0  0  0  0  0  0  0  0  0  0
   59.1188   34.4314   53.3885 H   0  0  0  0  0  0  0  0  0  0  0  0
   61.0469   33.4437   52.4627 H   0  0  0  0  0  0  0  0  0  0  0  0
   60.2137   32.0704   53.2886 H   0  0  0  0  0  0  0  0  0  0  0  0
   59.3170   31.3880   51.0610 H   0  0  0  0  0  0  0  0  0  0  0  0
   63.8492   34.0754   46.6134 H   0  0  0  0  0  0  0  0  0  0  0  0
   62.8782   32.7631   45.8639 H   0  0  0  0  0  0  0  0  0  0  0  0
   62.2603   34.4498   45.8639 H   0  0  0  0  0  0  0  0  0  0  0  0
   64.7902   33.9288   48.1043 H   0  0  0  0  0  0  0  0  0  0  0  0
   66.0868   33.3210   50.1327 H   0  0  0  0  0  0  0  0  0  0  0  0
   64.9549   32.2668   52.0796 H   0  0  0  0  0  0  0  0  0  0  0  0
   62.4995   31.8923   52.0507 H   0  0  0  0  0  0  0  0  0  0  0  0
   60.7630   34.8250   45.2910 H   0  0  0  0  0  0  0  0  0  0  0  0
   58.8321   35.1844   43.9025 H   0  0  0  0  0  0  0  0  0  0  0  0
   56.5954   34.3429   44.6554 H   0  0  0  0  0  0  0  0  0  0  0  0
   56.3924   33.1609   46.8714 H   0  0  0  0  0  0  0  0  0  0  0  0
  1  2  1  0
  2  3  1  0
  3  4  1  0
  4  5  1  0
  5  6  1  0
  6  7  1  0
  7  8  1  0
  8  9  1  0
  9 10  1  0
 10 11  1  0
 11 12  1  0
 12 13  1  0
 13 14  1  0
 14 15  2  0
 15 16  1  0
 16 17  2  0
 17 18  1  0
 17 19  1  0
 19 20  2  0
 20 21  1  0
 21 22  2  0
 22 23  1  0
 23 24  2  0
 16 25  1  0
 25 26  2  0
 26 27  1  0
 27 28  2  0
 28 29  1  0
 29 30  2  0
 30 31  1  0
 31 32  2  0
 24 14  1  0
 30 25  1  0
 31 15  1  0
 24 19  1  0
  1 33  1  0
  1 34  1  0
  1 35  1  0
  2 36  1  0
  2 37  1  0
  3 38  1  0
  4 39  1  0
  4 40  1  0
  5 41  1  0
  5 42  1  0
  6 43  1  0
  6 44  1  0
  8 45  1  0
  8 46  1  0
  9 47  1  0
  9 48  1  0
 11 49  1  0
 11 50  1  0
 12 51  1  0
 12 52  1  0
 13 53  1  0
 18 54  1  0
 18 55  1  0
 18 56  1  0
 20 57  1  0
 21 58  1  0
 22 59  1  0
 23 60  1  0
 26 61  1  0
 27 62  1  0
 28 63  1  0
 29 64  1  0
M  CHG  2  17   1  26   1
M  END
>  <UniqueID>  (19) 
19

>  <SMILES>  (19) 
CCNCCCOCCOCCNc1c2c([n+](C)c3ccccc13)-c1[nH+]cccc1C2=O

>  <Energy>  (19) 
118.37780907629127

>  <Genealogy>  (19) 
CCNCCCOCCOCCNc1c2c([n+](C)c3ccccc13)-c1[nH+]cccc1C2=O (protonated)
CCNCCCOCCOCCNc1c2c([n+](C)c3ccccc13)-c1[nH+]cccc1C2=O (3D coordinates assigned)
CCNCCCOCCOCCNc1c2c([n+](C)c3ccccc13)-c1[nH+]cccc1C2=O (nonaromatic ring conformer: 118.37780907629127 kcal/mol)

>  <smiles>  (19) 
CCNCCCOCCOCCNc1c2c([n+](C)c3ccccc13)-c1ncccc1C2=O

>  <score_type>  (19) 
oracle

>  <origin>  (19) 
adg

>  <m_score__min__energy>  (19) 
-6.0599999999999996

>  <m_primary>  (19) 
energy

$$$$
19:0
     RDKit          3D

 47 49  0  0  0  0  0  0  0  0999 V2000
   63.3520   33.3840   46.6850 C   0  0  0  0  0  0  0  0  0  0  0  0
   62.7190   32.9780   48.0200 C   0  0  0  0  0  0  0  0  0  0  0  0
   62.9790   31.5720   48.3670 N   0  0  0  0  0  0  0  0  0  0  0  0
   62.0820   31.0860   49.4230 C   0  0  0  0  0  0  0  0  0  0  0  0
   60.8110   30.5030   48.7940 C   0  0  0  0  0  0  0  0  0  0  0  0
   61.0160   30.0570   47.4020 N   0  0  0  0  0  0  0  0  0  0  0  0
   59.7690   29.9340   46.6570 C   0  0  0  0  0  0  0  0  0  0  0  0
   59.1360   28.6660   46.5170 C   0  0  0  0  0  0  0  0  0  0  0  0
   57.9440   28.5580   45.7620 C   0  0  0  0  0  0  0  0  0  0  0  0
   57.4970   29.6240   45.0140 N   0  0  0  0  0  0  0  0  0  0  0  0
   56.5200   29.4000   43.9260 C   0  0  0  0  0  0  0  0  0  0  0  0
   57.9900   30.8890   45.2470 C   0  0  0  0  0  0  0  0  0  0  0  0
   57.3520   32.0320   44.7020 C   0  0  0  0  0  0  0  0  0  0  0  0
   57.8540   33.3110   44.9150 C   0  0  0  0  0  0  0  0  0  0  0  0
   58.9930   33.4910   45.6840 C   0  0  0  0  0  0  0  0  0  0  0  0
   59.6670   35.2530   45.9860 Br  0  0  0  0  0  0  0  0  0  0  0  0
   59.6320   32.3910   46.2530 C   0  0  0  0  0  0  0  0  0  0  0  0
   59.1450   31.0730   46.0630 C   0  0  0  0  0  0  0  0  0  0  0  0
   57.1840   27.2680   45.8190 C   0  0  0  0  0  0  0  0  0  0  0  0
   55.9390   27.2520   45.6240 O   0  0  0  0  0  0  0  0  0  0  0  0
   57.8470   25.9850   46.2280 C   0  0  0  0  0  0  0  0  0  0  0  0
   59.3530   26.1600   46.4050 C   0  0  0  0  0  0  0  0  0  0  0  0
   59.6480   27.4150   47.2270 C   0  0  0  0  0  0  0  0  0  0  0  0
   64.2641   33.9690   46.8745 H   0  0  0  0  0  0  0  0  0  0  0  0
   63.6081   32.4812   46.1110 H   0  0  0  0  0  0  0  0  0  0  0  0
   62.6383   33.9932   46.1110 H   0  0  0  0  0  0  0  0  0  0  0  0
   63.1307   33.6184   48.8140 H   0  0  0  0  0  0  0  0  0  0  0  0
   61.6302   33.1004   47.9225 H   0  0  0  0  0  0  0  0  0  0  0  0
   63.9710   31.4750   48.6900 H   0  0  0  0  0  0  0  0  0  0  0  0
   62.5927   30.3053   50.0059 H   0  0  0  0  0  0  0  0  0  0  0  0
   61.8106   31.9225   50.0838 H   0  0  0  0  0  0  0  0  0  0  0  0
   60.4845   29.6414   49.3949 H   0  0  0  0  0  0  0  0  0  0  0  0
   60.0528   31.2998   48.7788 H   0  0  0  0  0  0  0  0  0  0  0  0
   61.7160   30.6660   46.9290 H   0  0  0  0  0  0  0  0  0  0  0  0
   61.5100   29.1380   47.4070 H   0  0  0  0  0  0  0  0  0  0  0  0
   55.5344   29.1740   44.3590 H   0  0  0  0  0  0  0  0  0  0  0  0
   56.4489   30.3051   43.3050 H   0  0  0  0  0  0  0  0  0  0  0  0
   56.8503   28.5543   43.3050 H   0  0  0  0  0  0  0  0  0  0  0  0
   56.4413   31.9042   44.0984 H   0  0  0  0  0  0  0  0  0  0  0  0
   57.3466   34.1810   44.4727 H   0  0  0  0  0  0  0  0  0  0  0  0
   60.5338   32.5487   46.8628 H   0  0  0  0  0  0  0  0  0  0  0  0
   57.4129   25.6471   47.1806 H   0  0  0  0  0  0  0  0  0  0  0  0
   57.6787   25.2432   45.4334 H   0  0  0  0  0  0  0  0  0  0  0  0
   59.7619   25.2811   46.9250 H   0  0  0  0  0  0  0  0  0  0  0  0
   59.8203   26.2628   45.4145 H   0  0  0  0  0  0  0  0  0  0  0  0
   59.1532   27.3287   48.2057 H   0  0  0  0  0  0  0  0  0  0  0  0
   60.7372   27.5040   47.3528 H   0  0  0  0  0  0  0  0  0  0  0  0
  1  2  1  0
  2  3  1  0
  3  4  1  0
  4  5  1  0
  5  6  1  0
  6  7  1  0
  7  8  2  0
  8  9  1  0
  9 10  2  0
 10 11  1  0
 10 12  1  0
 12 13  2  0
 13 14  1  0
 14 15  2  0
 15 16  1  0
 15 17  1  0
 17 18  2  0
  9 19  1  0
 19 20  2  0
 19 21  1  0
 21 22  1  0
 22 23  1  0
 18  7  1  0
 23  8  1  0
 18 12  1  0
  1 24  1  0
  1 25  1  0
  1 26  1  0
  2 27  1  0
  2 28  1  0
  3 29  1  0
  4 30  1  0
  4 31  1  0
  5 32  1  0
  5 33  1  0
  6 34  1  0
  6 35  1  0
 11 36  1  0
 11 37  1  0
 11 38  1  0
 13 39  1  0
 14 40  1  0
 17 41  1  0
 21 42  1  0
 21 43  1  0
 22 44  1  0
 22 45  1  0
 23 46  1  0
 23 47  1  0
M  CHG  2   6   1  10   1
M  END
>  <UniqueID>  (20) 
20

>  <SMILES>  (20) 
CCNCC[NH2+]c1c2c([n+](C)c3ccc(Br)cc13)C(=O)CCC2

>  <Energy>  (20) 
71.77514217658675

>  <Genealogy>  (20) 
CCNCC[NH2+]c1c2c([n+](C)c3ccc(Br)cc13)C(=O)CCC2 (protonated)
CCNCC[NH2+]c1c2c([n+](C)c3ccc(Br)cc13)C(=O)CCC2 (3D coordinates assigned)
CCNCC[NH2+]c1c2c([n+](C)c3ccc(Br)cc13)C(=O)CCC2 (nonaromatic ring conformer: 71.77514217658675 kcal/mol)

>  <smiles>  (20) 
CCNCCNc1c2c([n+](C)c3ccc(Br)cc13)C(=O)CCC2

>  <score_type>  (20) 
oracle

>  <origin>  (20) 
adg

>  <m_score__min__energy>  (20) 
-4.8499999999999996

>  <m_primary>  (20) 
energy

$$$$
20:0
     RDKit          3D

 49 51  0  0  0  0  0  0  0  0999 V2000
   59.2900   30.3370   45.6260 C   0  0  0  0  0  0  0  0  0  0  0  0
   57.7650   30.1870   45.7250 C   0  0  0  0  0  0  0  0  0  0  0  0
   56.9930   31.1280   44.8760 N   0  0  0  0  0  0  0  0  0  0  0  0
   56.3140   30.4470   43.7620 C   0  0  0  0  0  0  0  0  0  0  0  0
   57.7620   32.2950   44.3890 C   0  0  0  0  0  0  0  0  0  0  0  0
   57.0990   33.6260   44.7780 C   0  0  0  0  0  0  0  0  0  0  0  0
   57.9520   34.4070   45.6190 O   0  0  0  0  0  0  0  0  0  0  0  0
   59.0030   33.9070   46.4070 C   0  0  0  0  0  0  0  0  0  0  0  0
   60.3580   34.0740   46.0620 C   0  0  0  0  0  0  0  0  0  0  0  0
   61.3730   33.5830   46.8970 C   0  0  0  0  0  0  0  0  0  0  0  0
   61.0320   32.9370   48.1030 C   0  0  0  0  0  0  0  0  0  0  0  0
   59.6830   32.7350   48.4220 C   0  0  0  0  0  0  0  0  0  0  0  0
   58.6760   33.2200   47.5820 C   0  0  0  0  0  0  0  0  0  0  0  0
   57.3760   33.0360   47.9210 F   0  0  0  0  0  0  0  0  0  0  0  0
   62.1040   32.3720   49.0050 C   0  0  0  0  0  0  0  0  0  0  0  0
   63.3980   33.0590   48.8090 N   0  0  1  0  0  0  0  0  0  0  0  0
   64.4270   32.4230   49.6200 C   0  0  0  0  0  0  0  0  0  0  0  0
   64.2050   31.3280   50.1190 O   0  0  0  0  0  0  0  0  0  0  0  0
   65.7920   33.0340   49.8890 C   0  0  0  0  0  0  0  0  0  0  0  0
   66.8630   32.1290   50.4830 C   0  0  0  0  0  0  0  0  0  0  0  0
   66.2170   33.2130   51.3380 C   0  0  0  0  0  0  0  0  0  0  0  0
   63.7880   33.0260   47.3860 C   0  0  0  0  0  0  0  0  0  0  0  0
   62.8120   33.8530   46.5370 C   0  0  0  0  0  0  0  0  0  0  0  0
   59.7207   30.3794   46.6373 H   0  0  0  0  0  0  0  0  0  0  0  0
   59.7088   29.4757   45.0849 H   0  0  0  0  0  0  0  0  0  0  0  0
   59.5330   31.2634   45.0849 H   0  0  0  0  0  0  0  0  0  0  0  0
   57.5015   29.1615   45.4269 H   0  0  0  0  0  0  0  0  0  0  0  0
   57.4971   30.4172   46.7668 H   0  0  0  0  0  0  0  0  0  0  0  0
   55.5905   29.7214   44.1621 H   0  0  0  0  0  0  0  0  0  0  0  0
   55.7860   31.1894   43.1456 H   0  0  0  0  0  0  0  0  0  0  0  0
   57.0580   29.9211   43.1456 H   0  0  0  0  0  0  0  0  0  0  0  0
   58.7718   32.2611   44.8238 H   0  0  0  0  0  0  0  0  0  0  0  0
   57.7990   32.2426   43.2909 H   0  0  0  0  0  0  0  0  0  0  0  0
   56.8779   34.1964   43.8638 H   0  0  0  0  0  0  0  0  0  0  0  0
   56.1751   33.4039   45.3322 H   0  0  0  0  0  0  0  0  0  0  0  0
   60.6230   34.5940   45.1296 H   0  0  0  0  0  0  0  0  0  0  0  0
   59.4141   32.1911   49.3396 H   0  0  0  0  0  0  0  0  0  0  0  0
   61.7901   32.4940   50.0522 H   0  0  0  0  0  0  0  0  0  0  0  0
   62.2378   31.3089   48.7562 H   0  0  0  0  0  0  0  0  0  0  0  0
   63.2700   34.0570   49.0850 H   0  0  0  0  0  0  0  0  0  0  0  0
   65.7284   33.6949   49.0120 H   0  0  0  0  0  0  0  0  0  0  0  0
   66.6418   31.0693   50.6782 H   0  0  0  0  0  0  0  0  0  0  0  0
   67.8955   31.8631   50.2122 H   0  0  0  0  0  0  0  0  0  0  0  0
   65.5299   32.9356   52.1510 H   0  0  0  0  0  0  0  0  0  0  0  0
   66.5907   34.0539   51.9407 H   0  0  0  0  0  0  0  0  0  0  0  0
   64.8009   33.4414   47.2794 H   0  0  0  0  0  0  0  0  0  0  0  0
   63.7648   31.9832   47.0368 H   0  0  0  0  0  0  0  0  0  0  0  0
   63.0222   34.9211   46.6953 H   0  0  0  0  0  0  0  0  0  0  0  0
   62.9556   33.5681   45.4843 H   0  0  0  0  0  0  0  0  0  0  0  0
  1  2  1  0
  2  3  1  0
  3  4  1  0
  3  5  1  0
  5  6  1  0
  6  7  1  0
  7  8  1  0
  8  9  2  0
  9 10  1  0
 10 11  2  0
 11 12  1  0
 12 13  2  0
 13 14  1  0
 11 15  1  0
 15 16  1  0
 16 17  1  0
 17 18  2  0
 17 19  1  0
 19 20  1  0
 20 21  1  0
 16 22  1  0
 22 23  1  0
 13  8  1  0
 21 19  1  0
 23 10  1  0
  1 24  1  0
  1 25  1  0
  1 26  1  0
  2 27  1  0
  2 28  1  0
  4 29  1  0
  4 30  1  0
  4 31  1  0
  5 32  1  0
  5 33  1  0
  6 34  1  0
  6 35  1  0
  9 36  1  0
 12 37  1  0
 15 38  1  0
 15 39  1  0
 16 40  1  1
 19 41  1  0
 20 42  1  0
 20 43  1  0
 21 44  1  0
 21 45  1  0
 22 46  1  0
 22 47  1  0
 23 48  1  0
 23 49  1  0
M  CHG  1  16   1
M  END
>  <UniqueID>  (21) 
21

>  <SMILES>  (21) 
CCN(C)CCOc1cc2c(cc1F)C[N@@H+](C(=O)C1CC1)CC2

>  <Energy>  (21) 
321.51196679540055

>  <Genealogy>  (21) 
CCN(C)CCOc1cc2c(cc1F)C[NH+](C(=O)C1CC1)CC2 (protonated)
CCN(C)CCOc1cc2c(cc1F)C[N@@H+](C(=O)C1CC1)CC2 (chirality)
CCN(C)CCOc1cc2c(cc1F)C[N@@H+](C(=O)C1CC1)CC2 (3D coordinates assigned)
CCN(C)CCOc1cc2c(cc1F)C[N@@H+](C(=O)C1CC1)CC2 (nonaromatic ring conformer: 321.51196679540055 kcal/mol)

>  <smiles>  (21) 
CCN(C)CCOc1cc2c(cc1F)CN(C(=O)C1CC1)CC2

>  <score_type>  (21) 
oracle

>  <origin>  (21) 
adg

>  <m_score__min__energy>  (21) 
-5.4299999999999997

>  <m_primary>  (21) 
energy

$$$$
