0:0
     RDKit          3D

 63 65  0  0  0  0  0  0  0  0999 V2000
   58.6370   22.4570   45.2380 C   0  0  0  0  0  0  0  0  0  0  0  0
   57.3280   21.7920   45.6910 C   0  0  0  0  0  0  0  0  0  0  0  0
   56.1110   22.3360   45.0360 N   0  0  0  0  0  0  0  0  0  0  0  0
   56.4360   23.0700   43.7900 C   0  0  0  0  0  0  0  0  0  0  0  0
   56.5920   22.1040   42.6160 C   0  0  0  0  0  0  0  0  0  0  0  0
   55.2520   23.1470   45.9350 C   0  0  0  0  0  0  0  0  0  0  0  0
   55.0790   24.5920   45.4280 C   0  0  0  0  0  0  0  0  0  0  0  0
   55.5450   25.5220   46.3910 O   0  0  0  0  0  0  0  0  0  0  0  0
   56.9270   25.3460   46.6540 C   0  0  0  0  0  0  0  0  0  0  0  0
   57.6160   26.6910   46.8810 C   0  0  0  0  0  0  0  0  0  0  0  0
   58.9880   26.4570   47.1290 O   0  0  0  0  0  0  0  0  0  0  0  0
   59.7250   27.6490   46.9720 C   0  0  0  0  0  0  0  0  0  0  0  0
   59.0800   28.7520   47.8060 C   0  0  0  0  0  0  0  0  0  0  0  0
   58.0140   29.4180   47.0540 N   0  0  0  0  0  0  0  0  0  0  0  0
   58.2140   30.6970   46.4280 C   0  0  0  0  0  0  0  0  0  0  0  0
   58.7410   31.7610   47.1830 C   0  0  0  0  0  0  0  0  0  0  0  0
   58.9480   31.6300   48.5730 C   0  0  0  0  0  0  0  0  0  0  0  0
   59.4210   32.6990   49.3280 C   0  0  0  0  0  0  0  0  0  0  0  0
   59.6690   33.9240   48.7200 C   0  0  0  0  0  0  0  0  0  0  0  0
   59.4710   34.0800   47.3480 C   0  0  0  0  0  0  0  0  0  0  0  0
   59.0320   32.9950   46.5450 C   0  0  0  0  0  0  0  0  0  0  0  0
   58.8650   33.1250   45.1810 N   0  0  0  0  0  0  0  0  0  0  0  0
   59.4550   34.2840   44.4720 C   0  0  0  0  0  0  0  0  0  0  0  0
   58.1520   32.1710   44.4780 C   0  0  0  0  0  0  0  0  0  0  0  0
   57.7180   32.4080   43.1500 C   0  0  0  0  0  0  0  0  0  0  0  0
   57.0330   31.4360   42.4280 C   0  0  0  0  0  0  0  0  0  0  0  0
   56.7410   30.2140   43.0100 C   0  0  0  0  0  0  0  0  0  0  0  0
   57.1120   29.9510   44.3280 C   0  0  0  0  0  0  0  0  0  0  0  0
   56.7360   28.7260   44.8640 O   0  0  0  0  0  0  0  0  0  0  0  0
   57.8240   30.9230   45.0860 C   0  0  0  0  0  0  0  0  0  0  0  0
   59.2220   22.7542   46.1209 H   0  0  0  0  0  0  0  0  0  0  0  0
   59.2199   21.7457   44.6344 H   0  0  0  0  0  0  0  0  0  0  0  0
   58.4063   23.3472   44.6344 H   0  0  0  0  0  0  0  0  0  0  0  0
   57.3906   20.7173   45.4647 H   0  0  0  0  0  0  0  0  0  0  0  0
   57.2258   21.9953   46.7672 H   0  0  0  0  0  0  0  0  0  0  0  0
   55.6256   23.7798   43.5677 H   0  0  0  0  0  0  0  0  0  0  0  0
   57.3857   23.6060   43.9341 H   0  0  0  0  0  0  0  0  0  0  0  0
   56.7564   21.0858   42.9983 H   0  0  0  0  0  0  0  0  0  0  0  0
   55.6793   22.1223   42.0023 H   0  0  0  0  0  0  0  0  0  0  0  0
   57.4526   22.4087   42.0023 H   0  0  0  0  0  0  0  0  0  0  0  0
   54.2612   22.6736   46.0003 H   0  0  0  0  0  0  0  0  0  0  0  0
   55.7406   23.1909   46.9196 H   0  0  0  0  0  0  0  0  0  0  0  0
   55.6517   24.7188   44.4974 H   0  0  0  0  0  0  0  0  0  0  0  0
   54.0098   24.7769   45.2475 H   0  0  0  0  0  0  0  0  0  0  0  0
   57.0458   24.7244   47.5537 H   0  0  0  0  0  0  0  0  0  0  0  0
   57.3901   24.8569   45.7843 H   0  0  0  0  0  0  0  0  0  0  0  0
   57.5030   27.3212   45.9865 H   0  0  0  0  0  0  0  0  0  0  0  0
   57.1609   27.2070   47.7393 H   0  0  0  0  0  0  0  0  0  0  0  0
   60.7594   27.4892   47.3105 H   0  0  0  0  0  0  0  0  0  0  0  0
   59.7305   27.9429   45.9120 H   0  0  0  0  0  0  0  0  0  0  0  0
   58.6552   28.3112   48.7199 H   0  0  0  0  0  0  0  0  0  0  0  0
   59.8490   29.4961   48.0609 H   0  0  0  0  0  0  0  0  0  0  0  0
   57.0640   28.9860   47.0260 H   0  0  0  0  0  0  0  0  0  0  0  0
   58.7327   30.6705   49.0659 H   0  0  0  0  0  0  0  0  0  0  0  0
   59.5987   32.5745   50.4064 H   0  0  0  0  0  0  0  0  0  0  0  0
   60.0226   34.7734   49.3228 H   0  0  0  0  0  0  0  0  0  0  0  0
   59.6579   35.0585   46.8814 H   0  0  0  0  0  0  0  0  0  0  0  0
   59.8263   35.0133   45.2071 H   0  0  0  0  0  0  0  0  0  0  0  0
   60.2889   33.9423   43.8412 H   0  0  0  0  0  0  0  0  0  0  0  0
   58.6880   34.7572   43.8412 H   0  0  0  0  0  0  0  0  0  0  0  0
   57.9270   33.3805   42.6804 H   0  0  0  0  0  0  0  0  0  0  0  0
   56.7226   31.6387   41.3923 H   0  0  0  0  0  0  0  0  0  0  0  0
   56.2122   29.4448   42.4280 H   0  0  0  0  0  0  0  0  0  0  0  0
  1  2  1  0
  2  3  1  0
  3  4  1  0
  4  5  1  0
  3  6  1  0
  6  7  1  0
  7  8  1  0
  8  9  1  0
  9 10  1  0
 10 11  1  0
 11 12  1  0
 12 13  1  0
 13 14  1  0
 14 15  1  0
 15 16  2  0
 16 17  1  0
 17 18  2  0
 18 19  1  0
 19 20  2  0
 20 21  1  0
 21 22  2  0
 22 23  1  0
 22 24  1  0
 24 25  2  0
 25 26  1  0
 26 27  2  0
 27 28  1  0
 28 29  1  0
 28 30  2  0
 30 15  1  0
 21 16  1  0
 30 24  1  0
  1 31  1  0
  1 32  1  0
  1 33  1  0
  2 34  1  0
  2 35  1  0
  4 36  1  0
  4 37  1  0
  5 38  1  0
  5 39  1  0
  5 40  1  0
  6 41  1  0
  6 42  1  0
  7 43  1  0
  7 44  1  0
  9 45  1  0
  9 46  1  0
 10 47  1  0
 10 48  1  0
 12 49  1  0
 12 50  1  0
 13 51  1  0
 13 52  1  0
 14 53  1  0
 17 54  1  0
 18 55  1  0
 19 56  1  0
 20 57  1  0
 23 58  1  0
 23 59  1  0
 23 60  1  0
 25 61  1  0
 26 62  1  0
 27 63  1  0
M  CHG  2  22   1  29  -1
M  END
>  <UniqueID>  (1) 
1

>  <SMILES>  (1) 
CCN(CC)CCOCCOCCNc1c2ccccc2[n+](C)c2cccc([O-])c12

>  <Energy>  (1) 
94.39538225844707

>  <Genealogy>  (1) 
CCN(CC)CCOCCOCCNc1c2ccccc2[n+](C)c2cccc([O-])c12 (protonated)
CCN(CC)CCOCCOCCNc1c2ccccc2[n+](C)c2cccc([O-])c12 (3D coordinates assigned)
CCN(CC)CCOCCOCCNc1c2ccccc2[n+](C)c2cccc([O-])c12 (optimized conformer: 94.39538225844707 kcal/mol)

>  <smiles>  (1) 
CCN(CC)CCOCCOCCNc1c2ccccc2[n+](C)c2cccc(O)c12

>  <score_type>  (1) 
oracle

>  <origin>  (1) 
adg

>  <m_score__min__energy>  (1) 
-7.1299999999999999

>  <m_primary>  (1) 
energy

$$$$
1:0
     RDKit          3D

 79 83  0  0  0  0  0  0  0  0999 V2000
   63.1210   33.5550   47.1470 C   0  0  0  0  0  0  0  0  0  0  0  0
   61.6070   33.7070   47.0310 C   0  0  0  0  0  0  0  0  0  0  0  0
   61.0920   34.4870   48.1820 N   0  0  0  0  0  0  0  0  0  0  0  0
   59.6140   34.4360   48.2950 C   0  0  0  0  0  0  0  0  0  0  0  0
   58.8830   34.2480   46.9520 C   0  0  0  0  0  0  0  0  0  0  0  0
   61.8000   34.1570   49.4440 C   0  0  0  0  0  0  0  0  0  0  0  0
   60.8060   33.8580   50.5780 C   0  0  0  0  0  0  0  0  0  0  0  0
   60.6240   32.4490   50.7440 O   0  0  0  0  0  0  0  0  0  0  0  0
   60.4330   31.5330   49.6980 C   0  0  0  0  0  0  0  0  0  0  0  0
   61.5020   31.0000   48.9510 C   0  0  0  0  0  0  0  0  0  0  0  0
   61.2640   30.0230   47.9800 C   0  0  0  0  0  0  0  0  0  0  0  0
   59.9560   29.5860   47.7190 C   0  0  0  0  0  0  0  0  0  0  0  0
   59.7140   28.4480   46.7650 C   0  0  0  0  0  0  0  0  0  0  0  0
   58.5050   28.7130   45.9710 N   0  0  0  0  0  0  0  0  0  0  0  0
   57.5560   27.8160   45.5610 C   0  0  0  0  0  0  0  0  0  0  0  0
   57.5030   26.4070   45.9880 C   0  0  0  0  0  0  0  0  0  0  0  0
   56.4220   25.9240   46.7300 C   0  0  0  0  0  0  0  0  0  0  0  0
   56.3960   24.5930   47.1530 C   0  0  0  0  0  0  0  0  0  0  0  0
   57.4510   23.7270   46.8460 C   0  0  0  0  0  0  0  0  0  0  0  0
   57.3740   22.4070   47.3230 O   0  0  0  0  0  0  0  0  0  0  0  0
   56.9230   21.2650   46.5890 C   0  0  0  0  0  0  0  0  0  0  0  0
   55.5010   21.4880   46.0450 C   0  0  0  0  0  0  0  0  0  0  0  0
   55.5200   21.7040   44.5840 N   0  0  0  0  0  0  0  0  0  0  0  0
   55.0880   23.0770   44.2090 C   0  0  0  0  0  0  0  0  0  0  0  0
   56.2710   23.9490   43.7440 C   0  0  0  0  0  0  0  0  0  0  0  0
   56.9650   23.4020   42.6290 O   0  0  0  0  0  0  0  0  0  0  0  0
   57.0180   21.9790   42.6270 C   0  0  0  0  0  0  0  0  0  0  0  0
   56.8360   21.3440   44.0150 C   0  0  0  0  0  0  0  0  0  0  0  0
   58.5340   24.2120   46.0920 C   0  0  0  0  0  0  0  0  0  0  0  0
   58.5510   25.5400   45.6570 C   0  0  0  0  0  0  0  0  0  0  0  0
   56.7040   28.3170   44.6310 N   0  0  0  0  0  0  0  0  0  0  0  0
   57.1410   29.5780   44.4670 C   0  0  0  0  0  0  0  0  0  0  0  0
   56.6380   30.5350   43.5920 C   0  0  0  0  0  0  0  0  0  0  0  0
   57.2880   31.7820   43.5400 C   0  0  0  0  0  0  0  0  0  0  0  0
   58.4180   32.0330   44.3480 C   0  0  0  0  0  0  0  0  0  0  0  0
   58.9060   31.0420   45.2170 C   0  0  0  0  0  0  0  0  0  0  0  0
   58.2280   29.8200   45.2580 C   0  0  0  0  0  0  0  0  0  0  0  0
   58.8860   30.1620   48.4230 C   0  0  0  0  0  0  0  0  0  0  0  0
   59.1260   31.1240   49.4080 C   0  0  0  0  0  0  0  0  0  0  0  0
   63.4063   33.5264   48.2090 H   0  0  0  0  0  0  0  0  0  0  0  0
   63.4343   32.6209   46.6578 H   0  0  0  0  0  0  0  0  0  0  0  0
   63.6137   34.4082   46.6578 H   0  0  0  0  0  0  0  0  0  0  0  0
   61.3631   34.2318   46.0955 H   0  0  0  0  0  0  0  0  0  0  0  0
   61.1406   32.7108   47.0289 H   0  0  0  0  0  0  0  0  0  0  0  0
   59.3473   33.5960   48.9532 H   0  0  0  0  0  0  0  0  0  0  0  0
   59.2943   35.4096   48.6948 H   0  0  0  0  0  0  0  0  0  0  0  0
   57.8334   33.9781   47.1405 H   0  0  0  0  0  0  0  0  0  0  0  0
   58.9231   35.1857   46.3783 H   0  0  0  0  0  0  0  0  0  0  0  0
   59.3705   33.4460   46.3783 H   0  0  0  0  0  0  0  0  0  0  0  0
   62.4330   33.2726   49.2794 H   0  0  0  0  0  0  0  0  0  0  0  0
   62.4117   35.0232   49.7367 H   0  0  0  0  0  0  0  0  0  0  0  0
   61.1922   34.2835   51.5160 H   0  0  0  0  0  0  0  0  0  0  0  0
   59.8359   34.3080   50.3204 H   0  0  0  0  0  0  0  0  0  0  0  0
   62.5276   31.3539   49.1325 H   0  0  0  0  0  0  0  0  0  0  0  0
   62.1064   29.5943   47.4174 H   0  0  0  0  0  0  0  0  0  0  0  0
   60.5779   28.3456   46.0919 H   0  0  0  0  0  0  0  0  0  0  0  0
   59.5772   27.5178   47.3360 H   0  0  0  0  0  0  0  0  0  0  0  0
   55.5876   26.5950   46.9822 H   0  0  0  0  0  0  0  0  0  0  0  0
   55.5380   24.2223   47.7329 H   0  0  0  0  0  0  0  0  0  0  0  0
   57.6069   21.0855   45.7463 H   0  0  0  0  0  0  0  0  0  0  0  0
   56.9087   20.3967   47.2641 H   0  0  0  0  0  0  0  0  0  0  0  0
   54.8872   20.6032   46.2697 H   0  0  0  0  0  0  0  0  0  0  0  0
   55.0787   22.3828   46.5257 H   0  0  0  0  0  0  0  0  0  0  0  0
   54.3553   23.0077   43.3915 H   0  0  0  0  0  0  0  0  0  0  0  0
   54.6478   23.5493   45.0996 H   0  0  0  0  0  0  0  0  0  0  0  0
   55.8858   24.9406   43.4641 H   0  0  0  0  0  0  0  0  0  0  0  0
   56.9850   24.0042   44.5790 H   0  0  0  0  0  0  0  0  0  0  0  0
   56.2209   21.6042   41.9681 H   0  0  0  0  0  0  0  0  0  0  0  0
   58.0230   21.6987   42.2784 H   0  0  0  0  0  0  0  0  0  0  0  0
   56.9031   20.2499   43.9235 H   0  0  0  0  0  0  0  0  0  0  0  0
   57.6254   21.7194   44.6827 H   0  0  0  0  0  0  0  0  0  0  0  0
   59.3714   23.5434   45.8434 H   0  0  0  0  0  0  0  0  0  0  0  0
   59.3928   25.9061   45.0510 H   0  0  0  0  0  0  0  0  0  0  0  0
   55.7615   30.3242   42.9617 H   0  0  0  0  0  0  0  0  0  0  0  0
   56.9133   32.5660   42.8656 H   0  0  0  0  0  0  0  0  0  0  0  0
   58.9198   33.0105   44.2972 H   0  0  0  0  0  0  0  0  0  0  0  0
   59.7918   31.2218   45.8439 H   0  0  0  0  0  0  0  0  0  0  0  0
   57.8541   29.8545   48.1981 H   0  0  0  0  0  0  0  0  0  0  0  0
   58.2816   31.5631   49.9595 H   0  0  0  0  0  0  0  0  0  0  0  0
  1  2  1  0
  2  3  1  0
  3  4  1  0
  4  5  1  0
  3  6  1  0
  6  7  1  0
  7  8  1  0
  8  9  1  0
  9 10  2  0
 10 11  1  0
 11 12  2  0
 12 13  1  0
 13 14  1  0
 14 15  1  0
 15 16  1  0
 16 17  2  0
 17 18  1  0
 18 19  2  0
 19 20  1  0
 20 21  1  0
 21 22  1  0
 22 23  1  0
 23 24  1  0
 24 25  1  0
 25 26  1  0
 26 27  1  0
 27 28  1  0
 19 29  1  0
 29 30  2  0
 15 31  2  0
 31 32  1  0
 32 33  2  0
 33 34  1  0
 34 35  2  0
 35 36  1  0
 36 37  2  0
 12 38  1  0
 38 39  2  0
 39  9  1  0
 37 14  1  0
 30 16  1  0
 37 32  1  0
 28 23  1  0
  1 40  1  0
  1 41  1  0
  1 42  1  0
  2 43  1  0
  2 44  1  0
  4 45  1  0
  4 46  1  0
  5 47  1  0
  5 48  1  0
  5 49  1  0
  6 50  1  0
  6 51  1  0
  7 52  1  0
  7 53  1  0
 10 54  1  0
 11 55  1  0
 13 56  1  0
 13 57  1  0
 17 58  1  0
 18 59  1  0
 21 60  1  0
 21 61  1  0
 22 62  1  0
 22 63  1  0
 24 64  1  0
 24 65  1  0
 25 66  1  0
 25 67  1  0
 27 68  1  0
 27 69  1  0
 28 70  1  0
 28 71  1  0
 29 72  1  0
 30 73  1  0
 33 74  1  0
 34 75  1  0
 35 76  1  0
 36 77  1  0
 38 78  1  0
 39 79  1  0
M  END
>  <UniqueID>  (2) 
2

>  <SMILES>  (2) 
CCN(CC)CCOc1ccc(Cn2c(-c3ccc(OCCN4CCOCC4)cc3)nc3ccccc32)cc1

>  <Energy>  (2) 
137.06178254021933

>  <Genealogy>  (2) 
CCN(CC)CCOc1ccc(Cn2c(-c3ccc(OCCN4CCOCC4)cc3)nc3ccccc32)cc1 (3D coordinates assigned)
CCN(CC)CCOc1ccc(Cn2c(-c3ccc(OCCN4CCOCC4)cc3)nc3ccccc32)cc1 (nonaromatic ring conformer: 137.06178254021933 kcal/mol)

>  <smiles>  (2) 
CCN(CC)CCOc1ccc(Cn2c(-c3ccc(OCCN4CCOCC4)cc3)nc3ccccc32)cc1

>  <score_type>  (2) 
oracle

>  <origin>  (2) 
adg

>  <m_score__min__energy>  (2) 
-9.3200000000000003

>  <m_primary>  (2) 
energy

$$$$
2:0
     RDKit          3D

 63 66  0  0  0  0  0  0  0  0999 V2000
   58.4280   32.2930   49.7140 C   0  0  0  0  0  0  0  0  0  0  0  0
   59.5180   32.9980   50.5210 C   0  0  0  0  0  0  0  0  0  0  0  0
   60.7310   32.1730   50.5620 N   0  0  0  0  0  0  0  0  0  0  0  0
   61.0470   31.8000   51.9460 C   0  0  0  0  0  0  0  0  0  0  0  0
   62.3040   32.5310   52.4240 C   0  0  0  0  0  0  0  0  0  0  0  0
   62.4080   33.8470   51.7830 N   0  0  0  0  0  0  0  0  0  0  0  0
   63.8120   34.2760   51.7070 C   0  0  0  0  0  0  0  0  0  0  0  0
   64.4280   33.8290   50.3800 C   0  0  0  0  0  0  0  0  0  0  0  0
   63.4040   33.2420   49.5070 N   0  0  0  0  0  0  0  0  0  0  0  0
   64.0310   32.5340   48.3860 C   0  0  0  0  0  0  0  0  0  0  0  0
   62.9500   31.8990   47.4980 C   0  0  0  0  0  0  0  0  0  0  0  0
   61.6300   31.8770   48.1580 N   0  0  0  0  0  0  0  0  0  0  0  0
   60.5640   31.5770   47.2180 C   0  0  0  0  0  0  0  0  0  0  0  0
   60.2330   30.2420   46.9860 C   0  0  0  0  0  0  0  0  0  0  0  0
   59.2630   29.8740   46.0330 C   0  0  0  0  0  0  0  0  0  0  0  0
   58.9400   28.4970   45.8130 C   0  0  0  0  0  0  0  0  0  0  0  0
   59.3900   27.4380   46.6450 C   0  0  0  0  0  0  0  0  0  0  0  0
   59.0570   26.1100   46.3640 C   0  0  0  0  0  0  0  0  0  0  0  0
   58.2590   25.8030   45.2630 C   0  0  0  0  0  0  0  0  0  0  0  0
   57.8040   23.9860   44.8900 Br  0  0  0  0  0  0  0  0  0  0  0  0
   57.7840   26.8250   44.4440 C   0  0  0  0  0  0  0  0  0  0  0  0
   58.1090   28.1640   44.7180 C   0  0  0  0  0  0  0  0  0  0  0  0
   57.6200   29.1680   43.8970 C   0  0  0  0  0  0  0  0  0  0  0  0
   57.8990   30.4970   44.1830 C   0  0  0  0  0  0  0  0  0  0  0  0
   58.6590   30.8650   45.2700 N   0  0  0  0  0  0  0  0  0  0  0  0
   58.8630   32.2070   45.5720 C   0  0  0  0  0  0  0  0  0  0  0  0
   58.0840   33.2450   44.9860 C   0  0  0  0  0  0  0  0  0  0  0  0
   58.3380   34.5880   45.2570 C   0  0  0  0  0  0  0  0  0  0  0  0
   59.3580   34.9420   46.1270 C   0  0  0  0  0  0  0  0  0  0  0  0
   60.1060   33.9560   46.7630 C   0  0  0  0  0  0  0  0  0  0  0  0
   59.8560   32.5840   46.5240 C   0  0  0  0  0  0  0  0  0  0  0  0
   57.7068   31.8265   50.4012 H   0  0  0  0  0  0  0  0  0  0  0  0
   57.9086   33.0267   49.0800 H   0  0  0  0  0  0  0  0  0  0  0  0
   58.8842   31.5184   49.0800 H   0  0  0  0  0  0  0  0  0  0  0  0
   59.7514   33.9643   50.0501 H   0  0  0  0  0  0  0  0  0  0  0  0
   59.1578   33.1584   51.5479 H   0  0  0  0  0  0  0  0  0  0  0  0
   61.5230   32.7510   50.1960 H   0  0  0  0  0  0  0  0  0  0  0  0
   60.2017   32.0704   52.5959 H   0  0  0  0  0  0  0  0  0  0  0  0
   61.2273   30.7158   51.9902 H   0  0  0  0  0  0  0  0  0  0  0  0
   62.2534   32.6626   53.5149 H   0  0  0  0  0  0  0  0  0  0  0  0
   63.1873   31.9333   52.1548 H   0  0  0  0  0  0  0  0  0  0  0  0
   62.0470   33.7570   50.8020 H   0  0  0  0  0  0  0  0  0  0  0  0
   63.8617   35.3725   51.7800 H   0  0  0  0  0  0  0  0  0  0  0  0
   64.3730   33.8195   52.5358 H   0  0  0  0  0  0  0  0  0  0  0  0
   64.8756   34.6993   49.8778 H   0  0  0  0  0  0  0  0  0  0  0  0
   65.1977   33.0701   50.5840 H   0  0  0  0  0  0  0  0  0  0  0  0
   62.8630   32.5440   50.0710 H   0  0  0  0  0  0  0  0  0  0  0  0
   64.6213   33.2454   47.7897 H   0  0  0  0  0  0  0  0  0  0  0  0
   64.6873   31.7434   48.7787 H   0  0  0  0  0  0  0  0  0  0  0  0
   62.8709   32.4787   46.5665 H   0  0  0  0  0  0  0  0  0  0  0  0
   63.2453   30.8585   47.2975 H   0  0  0  0  0  0  0  0  0  0  0  0
   61.6490   31.1760   48.9360 H   0  0  0  0  0  0  0  0  0  0  0  0
   61.4500   32.7930   48.6280 H   0  0  0  0  0  0  0  0  0  0  0  0
   60.7428   29.4559   47.5623 H   0  0  0  0  0  0  0  0  0  0  0  0
   60.0103   27.6663   47.5243 H   0  0  0  0  0  0  0  0  0  0  0  0
   59.4263   25.3035   47.0145 H   0  0  0  0  0  0  0  0  0  0  0  0
   57.1509   26.5821   43.5779 H   0  0  0  0  0  0  0  0  0  0  0  0
   57.0104   28.9112   43.0181 H   0  0  0  0  0  0  0  0  0  0  0  0
   57.5007   31.2800   43.5210 H   0  0  0  0  0  0  0  0  0  0  0  0
   57.2628   32.9805   44.3036 H   0  0  0  0  0  0  0  0  0  0  0  0
   57.7280   35.3691   44.7797 H   0  0  0  0  0  0  0  0  0  0  0  0
   59.5762   36.0037   46.3147 H   0  0  0  0  0  0  0  0  0  0  0  0
   60.9037   34.2476   47.4621 H   0  0  0  0  0  0  0  0  0  0  0  0
  1  2  1  0
  2  3  1  0
  3  4  1  0
  4  5  1  0
  5  6  1  0
  6  7  1  0
  7  8  1  0
  8  9  1  0
  9 10  1  0
 10 11  1  0
 11 12  1  0
 12 13  1  0
 13 14  2  0
 14 15  1  0
 15 16  2  0
 16 17  1  0
 17 18  2  0
 18 19  1  0
 19 20  1  0
 19 21  2  0
 21 22  1  0
 22 23  2  0
 23 24  1  0
 24 25  2  0
 25 26  1  0
 26 27  2  0
 27 28  1  0
 28 29  2  0
 29 30  1  0
 30 31  2  0
 31 13  1  0
 25 15  1  0
 31 26  1  0
 22 16  1  0
  1 32  1  0
  1 33  1  0
  1 34  1  0
  2 35  1  0
  2 36  1  0
  3 37  1  0
  4 38  1  0
  4 39  1  0
  5 40  1  0
  5 41  1  0
  6 42  1  0
  7 43  1  0
  7 44  1  0
  8 45  1  0
  8 46  1  0
  9 47  1  0
 10 48  1  0
 10 49  1  0
 11 50  1  0
 11 51  1  0
 12 52  1  0
 12 53  1  0
 14 54  1  0
 17 55  1  0
 18 56  1  0
 21 57  1  0
 23 58  1  0
 24 59  1  0
 27 60  1  0
 28 61  1  0
 29 62  1  0
 30 63  1  0
M  CHG  2  12   1  25   1
M  END
>  <UniqueID>  (3) 
3

>  <SMILES>  (3) 
CCNCCNCCNCC[NH2+]c1cc2c3ccc(Br)cc3cc[n+]2c2ccccc12

>  <Energy>  (3) 
83.1413250348414

>  <Genealogy>  (3) 
CCNCCNCCNCC[NH2+]c1cc2c3ccc(Br)cc3cc[n+]2c2ccccc12 (protonated)
CCNCCNCCNCC[NH2+]c1cc2c3ccc(Br)cc3cc[n+]2c2ccccc12 (3D coordinates assigned)
CCNCCNCCNCC[NH2+]c1cc2c3ccc(Br)cc3cc[n+]2c2ccccc12 (optimized conformer: 83.1413250348414 kcal/mol)

>  <smiles>  (3) 
CCNCCNCCNCCNc1cc2c3ccc(Br)cc3cc[n+]2c2ccccc12

>  <score_type>  (3) 
oracle

>  <origin>  (3) 
adg

>  <m_score__min__energy>  (3) 
-4.6799999999999997

>  <m_primary>  (3) 
energy

$$$$
3:0
     RDKit          3D

 57 60  0  0  0  0  0  0  0  0999 V2000
   68.6360   33.4610   50.8540 C   0  0  0  0  0  0  0  0  0  0  0  0
   67.3600   32.6330   50.9750 C   0  0  0  0  0  0  0  0  0  0  0  0
   66.1960   33.4160   50.5370 N   0  0  0  0  0  0  0  0  0  0  0  0
   65.3450   32.6460   49.6180 C   0  0  0  0  0  0  0  0  0  0  0  0
   64.0860   33.4570   49.2600 C   0  0  1  0  0  0  0  0  0  0  0  0
   63.2800   32.8080   48.1200 C   0  0  0  0  0  0  0  0  0  0  0  0
   61.9830   32.4530   48.6870 N   0  0  0  0  0  0  0  0  0  0  0  0
   60.9870   31.6980   47.9730 C   0  0  0  0  0  0  0  0  0  0  0  0
   60.2270   32.3140   46.9660 C   0  0  0  0  0  0  0  0  0  0  0  0
   59.2520   31.5970   46.2360 C   0  0  0  0  0  0  0  0  0  0  0  0
   59.0150   30.2410   46.5750 C   0  0  0  0  0  0  0  0  0  0  0  0
   59.7840   29.6280   47.5820 C   0  0  0  0  0  0  0  0  0  0  0  0
   60.7640   30.3460   48.2680 C   0  0  0  0  0  0  0  0  0  0  0  0
   61.5110   29.7050   49.2000 F   0  0  0  0  0  0  0  0  0  0  0  0
   58.0030   29.5280   45.9070 C   0  0  0  0  0  0  0  0  0  0  0  0
   57.7930   28.3170   46.1930 O   0  0  0  0  0  0  0  0  0  0  0  0
   57.2200   30.1710   44.9300 C   0  0  0  0  0  0  0  0  0  0  0  0
   56.1120   29.4780   44.2180 C   0  0  0  0  0  0  0  0  0  0  0  0
   55.1400   28.9880   44.8510 O   0  0  0  0  0  0  0  0  0  0  0  0
   56.1320   29.3600   42.8320 O   0  0  0  0  0  0  0  0  0  0  0  0
   57.4990   31.5100   44.6240 C   0  0  0  0  0  0  0  0  0  0  0  0
   58.5260   32.1870   45.2230 N   0  0  0  0  0  0  0  0  0  0  0  0
   58.7590   33.5860   44.8150 C   0  0  0  0  0  0  0  0  0  0  0  0
   57.5160   34.4690   44.8810 C   0  0  0  0  0  0  0  0  0  0  0  0
   58.6020   34.6240   45.9260 C   0  0  0  0  0  0  0  0  0  0  0  0
   61.8300   32.8590   50.0740 C   0  0  0  0  0  0  0  0  0  0  0  0
   63.1290   33.5020   50.4070 C   0  0  0  0  0  0  0  0  0  0  0  0
   63.4810   33.9830   51.5690 N   0  0  0  0  0  0  0  0  0  0  0  0
   64.1600   35.1600   51.8520 O   0  0  0  0  0  0  0  0  0  0  0  0
   64.9360   35.4010   53.0230 C   0  0  0  0  0  0  0  0  0  0  0  0
   66.1860   36.1790   52.6440 C   0  0  0  0  0  0  0  0  0  0  0  0
   69.0116   33.7047   51.8588 H   0  0  0  0  0  0  0  0  0  0  0  0
   69.3970   32.8842   50.3080 H   0  0  0  0  0  0  0  0  0  0  0  0
   68.4192   34.3910   50.3080 H   0  0  0  0  0  0  0  0  0  0  0  0
   67.4499   31.7351   50.3460 H   0  0  0  0  0  0  0  0  0  0  0  0
   67.2203   32.3457   52.0276 H   0  0  0  0  0  0  0  0  0  0  0  0
   65.6230   33.6390   51.3850 H   0  0  0  0  0  0  0  0  0  0  0  0
   65.9085   32.4241   48.6997 H   0  0  0  0  0  0  0  0  0  0  0  0
   65.0428   31.7080   50.1068 H   0  0  0  0  0  0  0  0  0  0  0  0
   64.4612   34.4520   48.9787 H   0  0  0  0  0  0  0  0  0  0  0  0
   63.1516   33.5196   47.2911 H   0  0  0  0  0  0  0  0  0  0  0  0
   63.7964   31.9239   47.7178 H   0  0  0  0  0  0  0  0  0  0  0  0
   60.3940   33.3776   46.7403 H   0  0  0  0  0  0  0  0  0  0  0  0
   59.6103   28.5707   47.8310 H   0  0  0  0  0  0  0  0  0  0  0  0
   56.8755   32.0306   43.8823 H   0  0  0  0  0  0  0  0  0  0  0  0
   59.5309   33.3636   44.0635 H   0  0  0  0  0  0  0  0  0  0  0  0
   57.3614   35.2566   44.1288 H   0  0  0  0  0  0  0  0  0  0  0  0
   56.4324   34.2822   44.9101 H   0  0  0  0  0  0  0  0  0  0  0  0
   59.2353   35.5234   45.9311 H   0  0  0  0  0  0  0  0  0  0  0  0
   58.6319   34.5958   47.0252 H   0  0  0  0  0  0  0  0  0  0  0  0
   61.0009   33.5736   50.1829 H   0  0  0  0  0  0  0  0  0  0  0  0
   61.5933   32.0147   50.7382 H   0  0  0  0  0  0  0  0  0  0  0  0
   64.3437   35.9847   53.7430 H   0  0  0  0  0  0  0  0  0  0  0  0
   65.2222   34.4423   53.4800 H   0  0  0  0  0  0  0  0  0  0  0  0
   66.7070   36.5032   53.5569 H   0  0  0  0  0  0  0  0  0  0  0  0
   66.8523   35.5358   52.0504 H   0  0  0  0  0  0  0  0  0  0  0  0
   65.9031   37.0608   52.0504 H   0  0  0  0  0  0  0  0  0  0  0  0
  1  2  1  0
  2  3  1  0
  3  4  1  0
  4  5  1  0
  5  6  1  0
  6  7  1  0
  7  8  1  0
  8  9  2  0
  9 10  1  0
 10 11  2  0
 11 12  1  0
 12 13  2  0
 13 14  1  0
 11 15  1  0
 15 16  2  0
 15 17  1  0
 17 18  1  0
 18 19  2  0
 18 20  1  0
 17 21  2  0
 21 22  1  0
 22 23  1  0
 23 24  1  0
 24 25  1  0
  7 26  1  0
 26 27  1  0
 27 28  2  3
 28 29  1  0
 29 30  1  0
 30 31  1  0
 27  5  1  0
 13  8  1  0
 25 23  1  0
 22 10  1  0
  1 32  1  0
  1 33  1  0
  1 34  1  0
  2 35  1  0
  2 36  1  0
  3 37  1  0
  4 38  1  0
  4 39  1  0
  5 40  1  6
  6 41  1  0
  6 42  1  0
  9 43  1  0
 12 44  1  0
 21 45  1  0
 23 46  1  0
 24 47  1  0
 24 48  1  0
 25 49  1  0
 25 50  1  0
 26 51  1  0
 26 52  1  0
 30 53  1  0
 30 54  1  0
 31 55  1  0
 31 56  1  0
 31 57  1  0
M  CHG  1  20  -1
M  END
>  <UniqueID>  (4) 
4

>  <SMILES>  (4) 
CCNC[C@H]1CN(c2cc3c(cc2F)c(=O)c(C(=O)[O-])cn3C2CC2)CC1=NOCC

>  <Energy>  (4) 
340.22559571542064

>  <Genealogy>  (4) 
CCNCC1CN(c2cc3c(cc2F)c(=O)c(C(=O)[O-])cn3C2CC2)CC1=NOCC (protonated)
CCNC[C@H]1CN(c2cc3c(cc2F)c(=O)c(C(=O)[O-])cn3C2CC2)CC1=NOCC (chirality)
CCNC[C@H]1CN(c2cc3c(cc2F)c(=O)c(C(=O)[O-])cn3C2CC2)CC1=NOCC (3D coordinates assigned)
CCNC[C@H]1CN(c2cc3c(cc2F)c(=O)c(C(=O)[O-])cn3C2CC2)CC1=NOCC (nonaromatic ring conformer: 340.22559571542064 kcal/mol)

>  <smiles>  (4) 
CCNCC1CN(c2cc3c(cc2F)c(=O)c(C(=O)O)cn3C2CC2)CC1=NOCC

>  <score_type>  (4) 
oracle

>  <origin>  (4) 
adg

>  <m_score__min__energy>  (4) 
-9.4399999999999995

>  <m_primary>  (4) 
energy

$$$$
4:0
     RDKit          3D

 79 80  0  0  0  0  0  0  0  0999 V2000
   63.6600   33.1620   47.1570 C   0  0  0  0  0  0  0  0  0  0  0  0
   62.3460   33.3860   47.0610 C   0  0  0  0  0  0  0  0  0  0  0  0
   61.3630   32.2730   46.7880 C   0  0  0  0  0  0  0  0  0  0  0  0
   60.0760   32.3320   47.6780 C   0  0  1  0  0  0  0  0  0  0  0  0
   59.9270   33.7910   48.2470 C   0  0  0  0  0  0  0  0  0  0  0  0
   59.1130   34.8380   47.4430 C   0  0  0  0  0  0  0  0  0  0  0  0
   59.6400   35.2340   46.0500 C   0  0  0  0  0  0  0  0  0  0  0  0
   58.9730   34.5160   44.8640 C   0  0  0  0  0  0  0  0  0  0  0  0
   57.4960   34.2130   45.1090 C   0  0  0  0  0  0  0  0  0  0  0  0
   58.8110   31.9460   46.8540 C   0  0  0  0  0  0  0  0  0  0  0  0
   58.8550   30.4930   46.3490 C   0  0  2  0  0  0  0  0  0  0  0  0
   57.6030   30.1190   45.5790 C   0  0  0  0  0  0  0  0  0  0  0  0
   56.9890   30.9660   44.9460 O   0  0  0  0  0  0  0  0  0  0  0  0
   57.1300   28.6870   45.5360 C   0  0  0  0  0  0  0  0  0  0  0  0
   58.2080   27.6870   46.0410 C   0  0  0  0  0  0  0  0  0  0  0  0
   59.2880   27.4500   44.9610 C   0  0  0  0  0  0  0  0  0  0  0  0
   57.5280   26.3390   46.3460 C   0  0  0  0  0  0  0  0  0  0  0  0
   58.8570   28.2170   47.3090 C   0  0  0  0  0  0  0  0  0  0  0  0
   59.0740   29.5360   47.5080 C   0  0  0  0  0  0  0  0  0  0  0  0
   59.5920   30.0400   48.7680 N   0  0  0  0  0  0  0  0  0  0  0  0
   59.2780   29.4090   50.0690 C   0  0  0  0  0  0  0  0  0  0  0  0
   58.1350   30.1440   50.7860 C   0  0  0  0  0  0  0  0  0  0  0  0
   58.6220   31.0930   51.8910 C   0  0  0  0  0  0  0  0  0  0  0  0
   58.9920   32.3390   51.3300 O   0  0  0  0  0  0  0  0  0  0  0  0
   59.0050   33.3570   52.3060 C   0  0  0  0  0  0  0  0  0  0  0  0
   60.4310   33.4800   52.8640 C   0  0  0  0  0  0  0  0  0  0  0  0
   61.4290   32.7240   52.0620 N   0  0  2  0  0  0  0  0  0  0  0  0
   61.8360   31.5120   52.7990 C   0  0  0  0  0  0  0  0  0  0  0  0
   62.6080   33.5790   51.7620 C   0  0  0  0  0  0  0  0  0  0  0  0
   62.5540   34.2020   50.3600 C   0  0  0  0  0  0  0  0  0  0  0  0
   60.2730   31.3150   48.7880 C   0  0  0  0  0  0  0  0  0  0  0  0
   61.1030   31.5620   49.7080 O   0  0  0  0  0  0  0  0  0  0  0  0
   64.3472   33.9974   47.3569 H   0  0  0  0  0  0  0  0  0  0  0  0
   64.0544   32.1423   47.0362 H   0  0  0  0  0  0  0  0  0  0  0  0
   61.9693   34.4121   47.1846 H   0  0  0  0  0  0  0  0  0  0  0  0
   61.0576   32.3314   45.7329 H   0  0  0  0  0  0  0  0  0  0  0  0
   61.8743   31.3290   47.0275 H   0  0  0  0  0  0  0  0  0  0  0  0
   59.4509   33.7035   49.2347 H   0  0  0  0  0  0  0  0  0  0  0  0
   60.9535   34.1858   48.2258 H   0  0  0  0  0  0  0  0  0  0  0  0
   58.0988   34.4339   47.3086 H   0  0  0  0  0  0  0  0  0  0  0  0
   59.1778   35.7603   48.0390 H   0  0  0  0  0  0  0  0  0  0  0  0
   59.4845   36.3155   45.9231 H   0  0  0  0  0  0  0  0  0  0  0  0
   60.6982   34.9344   46.0297 H   0  0  0  0  0  0  0  0  0  0  0  0
   59.0573   35.1561   43.9734 H   0  0  0  0  0  0  0  0  0  0  0  0
   59.4895   33.5546   44.7265 H   0  0  0  0  0  0  0  0  0  0  0  0
   57.3044   34.1737   46.1915 H   0  0  0  0  0  0  0  0  0  0  0  0
   56.8795   35.0034   44.6560 H   0  0  0  0  0  0  0  0  0  0  0  0
   57.2405   33.2437   44.6560 H   0  0  0  0  0  0  0  0  0  0  0  0
   57.9234   32.0707   47.4917 H   0  0  0  0  0  0  0  0  0  0  0  0
   58.7732   32.6040   45.9733 H   0  0  0  0  0  0  0  0  0  0  0  0
   59.7025   30.4124   45.6524 H   0  0  0  0  0  0  0  0  0  0  0  0
   56.2362   28.5918   46.1701 H   0  0  0  0  0  0  0  0  0  0  0  0
   56.9107   28.4395   44.4869 H   0  0  0  0  0  0  0  0  0  0  0  0
   60.2520   27.2385   45.4467 H   0  0  0  0  0  0  0  0  0  0  0  0
   58.9978   26.5942   44.3338 H   0  0  0  0  0  0  0  0  0  0  0  0
   59.3828   28.3487   44.3338 H   0  0  0  0  0  0  0  0  0  0  0  0
   57.4586   26.2015   47.4352 H   0  0  0  0  0  0  0  0  0  0  0  0
   56.5180   26.3310   45.9103 H   0  0  0  0  0  0  0  0  0  0  0  0
   58.1218   25.5219   45.9103 H   0  0  0  0  0  0  0  0  0  0  0  0
   59.1599   27.5040   48.0900 H   0  0  0  0  0  0  0  0  0  0  0  0
   58.9799   28.3641   49.8975 H   0  0  0  0  0  0  0  0  0  0  0  0
   60.1747   29.4593   50.7041 H   0  0  0  0  0  0  0  0  0  0  0  0
   57.5768   30.7315   50.0422 H   0  0  0  0  0  0  0  0  0  0  0  0
   57.5068   29.3795   51.2665 H   0  0  0  0  0  0  0  0  0  0  0  0
   57.8137   31.2476   52.6209 H   0  0  0  0  0  0  0  0  0  0  0  0
   59.4952   30.6481   52.3905 H   0  0  0  0  0  0  0  0  0  0  0  0
   58.7012   34.3112   51.8508 H   0  0  0  0  0  0  0  0  0  0  0  0
   58.3033   33.1106   53.1165 H   0  0  0  0  0  0  0  0  0  0  0  0
   60.7161   34.5424   52.8695 H   0  0  0  0  0  0  0  0  0  0  0  0
   60.4285   33.0538   53.8781 H   0  0  0  0  0  0  0  0  0  0  0  0
   60.9840   32.4130   51.1650 H   0  0  0  0  0  0  0  0  0  0  0  0
   61.7722   31.7019   53.8806 H   0  0  0  0  0  0  0  0  0  0  0  0
   61.1681   30.6794   52.5329 H   0  0  0  0  0  0  0  0  0  0  0  0
   62.8710   31.2513   52.5329 H   0  0  0  0  0  0  0  0  0  0  0  0
   62.6517   34.3894   52.5046 H   0  0  0  0  0  0  0  0  0  0  0  0
   63.5001   32.9368   51.8033 H   0  0  0  0  0  0  0  0  0  0  0  0
   62.4593   35.2944   50.4476 H   0  0  0  0  0  0  0  0  0  0  0  0
   63.4768   33.9566   49.8139 H   0  0  0  0  0  0  0  0  0  0  0  0
   61.6872   33.8014   49.8139 H   0  0  0  0  0  0  0  0  0  0  0  0
  1  2  2  0
  2  3  1  0
  4  3  1  6
  4  5  1  0
  5  6  1  0
  6  7  1  0
  7  8  1  0
  8  9  1  0
  4 10  1  0
 10 11  1  0
 11 12  1  0
 12 13  2  0
 12 14  1  0
 14 15  1  0
 15 16  1  0
 15 17  1  0
 15 18  1  0
 18 19  2  0
 19 20  1  0
 20 21  1  0
 21 22  1  0
 22 23  1  0
 23 24  1  0
 24 25  1  0
 25 26  1  0
 26 27  1  0
 27 28  1  0
 27 29  1  0
 29 30  1  0
 20 31  1  0
 31 32  2  0
 31  4  1  0
 19 11  1  0
  1 33  1  0
  1 34  1  0
  2 35  1  0
  3 36  1  0
  3 37  1  0
  5 38  1  0
  5 39  1  0
  6 40  1  0
  6 41  1  0
  7 42  1  0
  7 43  1  0
  8 44  1  0
  8 45  1  0
  9 46  1  0
  9 47  1  0
  9 48  1  0
 10 49  1  0
 10 50  1  0
 11 51  1  6
 14 52  1  0
 14 53  1  0
 16 54  1  0
 16 55  1  0
 16 56  1  0
 17 57  1  0
 17 58  1  0
 17 59  1  0
 18 60  1  0
 21 61  1  0
 21 62  1  0
 22 63  1  0
 22 64  1  0
 23 65  1  0
 23 66  1  0
 25 67  1  0
 25 68  1  0
 26 69  1  0
 26 70  1  0
 27 71  1  6
 28 72  1  0
 28 73  1  0
 28 74  1  0
 29 75  1  0
 29 76  1  0
 30 77  1  0
 30 78  1  0
 30 79  1  0
M  CHG  1  27   1
M  END
>  <UniqueID>  (5) 
5

>  <SMILES>  (5) 
C=CC[C@@]1(CCCCC)C[C@@H]2C(=O)CC(C)(C)C=C2N(CCCOCC[NH+](C)CC)C1=O

>  <Energy>  (5) 
77.30091693902004

>  <Genealogy>  (5) 
C=CCC1(CCCCC)CC2C(=O)CC(C)(C)C=C2N(CCCOCC[NH+](C)CC)C1=O (protonated)
C=CC[C@@]1(CCCCC)C[C@@H]2C(=O)CC(C)(C)C=C2N(CCCOCC[NH+](C)CC)C1=O (chirality)
C=CC[C@@]1(CCCCC)C[C@@H]2C(=O)CC(C)(C)C=C2N(CCCOCC[NH+](C)CC)C1=O (3D coordinates assigned)
C=CC[C@@]1(CCCCC)C[C@@H]2C(=O)CC(C)(C)C=C2N(CCCOCC[NH+](C)CC)C1=O (nonaromatic ring conformer: 77.30091693902004 kcal/mol)

>  <smiles>  (5) 
C=CCC1(CCCCC)CC2C(=O)CC(C)(C)C=C2N(CCCOCCN(C)CC)C1=O

>  <score_type>  (5) 
oracle

>  <origin>  (5) 
adg

>  <m_score__min__energy>  (5) 
-6.8799999999999999

>  <m_primary>  (5) 
energy

$$$$
5:0
     RDKit          3D

 51 53  0  0  0  0  0  0  0  0999 V2000
   65.1700   32.9500   49.7100 C   0  0  0  0  0  0  0  0  0  0  0  0
   63.7190   32.4860   49.7950 C   0  0  0  0  0  0  0  0  0  0  0  0
   63.0260   32.6600   48.4990 N   0  0  0  0  0  0  0  0  0  0  0  0
   63.1680   34.0320   47.9610 C   0  0  0  0  0  0  0  0  0  0  0  0
   63.3850   34.0780   46.4410 C   0  0  0  0  0  0  0  0  0  0  0  0
   63.3600   31.6120   47.5020 C   0  0  0  0  0  0  0  0  0  0  0  0
   62.0990   30.8310   47.1130 C   0  0  0  0  0  0  0  0  0  0  0  0
   60.9250   31.2860   47.8750 N   0  0  0  0  0  0  0  0  0  0  0  0
   59.7110   31.1060   47.0970 C   0  0  0  0  0  0  0  0  0  0  0  0
   59.1080   32.2080   46.4290 C   0  0  0  0  0  0  0  0  0  0  0  0
   59.5700   33.5370   46.5950 C   0  0  0  0  0  0  0  0  0  0  0  0
   58.9750   34.5950   45.9080 C   0  0  0  0  0  0  0  0  0  0  0  0
   57.9090   34.3580   45.0480 C   0  0  0  0  0  0  0  0  0  0  0  0
   57.4200   33.0650   44.8820 C   0  0  0  0  0  0  0  0  0  0  0  0
   57.9980   31.9800   45.5720 C   0  0  0  0  0  0  0  0  0  0  0  0
   57.4900   30.7200   45.4200 N   0  0  0  0  0  0  0  0  0  0  0  0
   56.4230   30.5230   44.5660 O   0  0  0  0  0  0  0  0  0  0  0  0
   57.9930   29.6550   46.1150 C   0  0  0  0  0  0  0  0  0  0  0  0
   57.4090   28.3790   45.9750 C   0  0  0  0  0  0  0  0  0  0  0  0
   57.8820   27.2810   46.6950 C   0  0  0  0  0  0  0  0  0  0  0  0
   57.2540   26.0410   46.5080 O   0  0  0  0  0  0  0  0  0  0  0  0
   57.1590   25.3680   45.2570 C   0  0  0  0  0  0  0  0  0  0  0  0
   58.9540   27.4550   47.5780 C   0  0  0  0  0  0  0  0  0  0  0  0
   59.5520   28.7070   47.7270 C   0  0  0  0  0  0  0  0  0  0  0  0
   59.1000   29.8240   46.9870 C   0  0  0  0  0  0  0  0  0  0  0  0
   65.5737   33.0791   50.7251 H   0  0  0  0  0  0  0  0  0  0  0  0
   65.7647   32.1972   49.1718 H   0  0  0  0  0  0  0  0  0  0  0  0
   65.2176   33.9082   49.1718 H   0  0  0  0  0  0  0  0  0  0  0  0
   63.6980   31.4220   50.0734 H   0  0  0  0  0  0  0  0  0  0  0  0
   63.2019   33.0945   50.5516 H   0  0  0  0  0  0  0  0  0  0  0  0
   62.2534   34.5950   48.1987 H   0  0  0  0  0  0  0  0  0  0  0  0
   64.0626   34.4701   48.4276 H   0  0  0  0  0  0  0  0  0  0  0  0
   64.4407   34.3018   46.2279 H   0  0  0  0  0  0  0  0  0  0  0  0
   63.1211   33.1040   46.0033 H   0  0  0  0  0  0  0  0  0  0  0  0
   62.7486   34.8612   46.0033 H   0  0  0  0  0  0  0  0  0  0  0  0
   63.7852   32.0860   46.6050 H   0  0  0  0  0  0  0  0  0  0  0  0
   64.0911   30.9177   47.9418 H   0  0  0  0  0  0  0  0  0  0  0  0
   61.9062   30.9755   46.0397 H   0  0  0  0  0  0  0  0  0  0  0  0
   62.2676   29.7683   47.3416 H   0  0  0  0  0  0  0  0  0  0  0  0
   60.8530   30.7800   48.7850 H   0  0  0  0  0  0  0  0  0  0  0  0
   61.0420   32.2820   48.1630 H   0  0  0  0  0  0  0  0  0  0  0  0
   60.4104   33.7374   47.2758 H   0  0  0  0  0  0  0  0  0  0  0  0
   59.3503   35.6196   46.0471 H   0  0  0  0  0  0  0  0  0  0  0  0
   57.4511   35.1932   44.4978 H   0  0  0  0  0  0  0  0  0  0  0  0
   56.5721   32.8879   44.2040 H   0  0  0  0  0  0  0  0  0  0  0  0
   56.5633   28.2464   45.2841 H   0  0  0  0  0  0  0  0  0  0  0  0
   57.0072   24.2923   45.4299 H   0  0  0  0  0  0  0  0  0  0  0  0
   56.3089   25.7714   44.6873 H   0  0  0  0  0  0  0  0  0  0  0  0
   58.0875   25.5203   44.6873 H   0  0  0  0  0  0  0  0  0  0  0  0
   59.3277   26.5987   48.1586 H   0  0  0  0  0  0  0  0  0  0  0  0
   60.3884   28.8269   48.4314 H   0  0  0  0  0  0  0  0  0  0  0  0
  1  2  1  0
  2  3  1  0
  3  4  1  0
  4  5  1  0
  3  6  1  0
  6  7  1  0
  7  8  1  0
  8  9  1  0
  9 10  2  0
 10 11  1  0
 11 12  2  0
 12 13  1  0
 13 14  2  0
 14 15  1  0
 15 16  2  0
 16 17  1  0
 16 18  1  0
 18 19  2  0
 19 20  1  0
 20 21  1  0
 21 22  1  0
 20 23  2  0
 23 24  1  0
 24 25  2  0
 25  9  1  0
 15 10  1  0
 25 18  1  0
  1 26  1  0
  1 27  1  0
  1 28  1  0
  2 29  1  0
  2 30  1  0
  4 31  1  0
  4 32  1  0
  5 33  1  0
  5 34  1  0
  5 35  1  0
  6 36  1  0
  6 37  1  0
  7 38  1  0
  7 39  1  0
  8 40  1  0
  8 41  1  0
 11 42  1  0
 12 43  1  0
 13 44  1  0
 14 45  1  0
 19 46  1  0
 22 47  1  0
 22 48  1  0
 22 49  1  0
 23 50  1  0
 24 51  1  0
M  CHG  3   8   1  16   1  17  -1
M  END
>  <UniqueID>  (6) 
6

>  <SMILES>  (6) 
CCN(CC)CC[NH2+]c1c2ccccc2[n+]([O-])c2cc(OC)ccc12

>  <Energy>  (6) 
68.71850708415718

>  <Genealogy>  (6) 
CCN(CC)CC[NH2+]c1c2ccccc2[n+]([O-])c2cc(OC)ccc12 (protonated)
CCN(CC)CC[NH2+]c1c2ccccc2[n+]([O-])c2cc(OC)ccc12 (3D coordinates assigned)
CCN(CC)CC[NH2+]c1c2ccccc2[n+]([O-])c2cc(OC)ccc12 (optimized conformer: 68.71850708415718 kcal/mol)

>  <smiles>  (6) 
CCN(CC)CCNc1c2ccccc2[n+]([O-])c2cc(OC)ccc12

>  <score_type>  (6) 
oracle

>  <origin>  (6) 
adg

>  <m_score__min__energy>  (6) 
-5.6900000000000004

>  <m_primary>  (6) 
energy

$$$$
6:0
     RDKit          3D

 47 50  0  0  0  0  0  0  0  0999 V2000
   63.5550   33.8110   47.0320 C   0  0  0  0  0  0  0  0  0  0  0  0
   63.7250   32.6590   48.0190 C   0  0  0  0  0  0  0  0  0  0  0  0
   62.7830   31.5730   47.7100 N   0  0  0  0  0  0  0  0  0  0  0  0
   61.8920   31.2970   48.8440 C   0  0  0  0  0  0  0  0  0  0  0  0
   60.7320   30.4050   48.3890 C   0  0  0  0  0  0  0  0  0  0  0  0
   60.8660   30.0560   46.9640 N   0  0  0  0  0  0  0  0  0  0  0  0
   59.5650   29.9730   46.3370 C   0  0  0  0  0  0  0  0  0  0  0  0
   58.8940   28.7240   46.1950 C   0  0  0  0  0  0  0  0  0  0  0  0
   59.3720   27.5390   46.8030 C   0  0  0  0  0  0  0  0  0  0  0  0
   58.7010   26.3300   46.6400 C   0  0  0  0  0  0  0  0  0  0  0  0
   57.5420   26.2700   45.8770 C   0  0  0  0  0  0  0  0  0  0  0  0
   57.0380   27.4210   45.2760 C   0  0  0  0  0  0  0  0  0  0  0  0
   57.6940   28.6680   45.4200 C   0  0  0  0  0  0  0  0  0  0  0  0
   57.1940   29.8110   44.8290 N   0  0  0  0  0  0  0  0  0  0  0  0
   55.9800   29.7740   43.9920 C   0  0  0  0  0  0  0  0  0  0  0  0
   57.8280   30.9990   45.0570 C   0  0  0  0  0  0  0  0  0  0  0  0
   57.3940   32.1910   44.5760 N   0  0  0  0  0  0  0  0  0  0  0  0
   58.2900   33.0580   45.0680 C   0  0  0  0  0  0  0  0  0  0  0  0
   58.2810   34.4400   44.8990 C   0  0  0  0  0  0  0  0  0  0  0  0
   59.2730   35.1900   45.5470 C   0  0  0  0  0  0  0  0  0  0  0  0
   60.2300   34.5500   46.3590 C   0  0  0  0  0  0  0  0  0  0  0  0
   60.2140   33.1520   46.5190 C   0  0  0  0  0  0  0  0  0  0  0  0
   59.2360   32.4130   45.8290 C   0  0  0  0  0  0  0  0  0  0  0  0
   58.9540   31.0820   45.8100 N   0  0  0  0  0  0  0  0  0  0  0  0
   63.4163   34.7511   47.5861 H   0  0  0  0  0  0  0  0  0  0  0  0
   64.4516   33.8871   46.3994 H   0  0  0  0  0  0  0  0  0  0  0  0
   62.6746   33.6249   46.3994 H   0  0  0  0  0  0  0  0  0  0  0  0
   64.7538   32.2753   47.9538 H   0  0  0  0  0  0  0  0  0  0  0  0
   63.5216   33.0281   49.0351 H   0  0  0  0  0  0  0  0  0  0  0  0
   62.1870   31.8890   46.9090 H   0  0  0  0  0  0  0  0  0  0  0  0
   62.4575   30.7845   49.6362 H   0  0  0  0  0  0  0  0  0  0  0  0
   61.4904   32.2459   49.2291 H   0  0  0  0  0  0  0  0  0  0  0  0
   60.7310   29.4820   48.9875 H   0  0  0  0  0  0  0  0  0  0  0  0
   59.7895   30.9545   48.5295 H   0  0  0  0  0  0  0  0  0  0  0  0
   61.3830   29.1540   46.8660 H   0  0  0  0  0  0  0  0  0  0  0  0
   61.4650   30.7330   46.4490 H   0  0  0  0  0  0  0  0  0  0  0  0
   60.2867   27.5735   47.4131 H   0  0  0  0  0  0  0  0  0  0  0  0
   59.0903   25.4187   47.1174 H   0  0  0  0  0  0  0  0  0  0  0  0
   57.0204   25.3103   45.7469 H   0  0  0  0  0  0  0  0  0  0  0  0
   56.1155   27.3606   44.6799 H   0  0  0  0  0  0  0  0  0  0  0  0
   55.0900   29.7469   44.6379 H   0  0  0  0  0  0  0  0  0  0  0  0
   55.9450   30.6715   43.3570 H   0  0  0  0  0  0  0  0  0  0  0  0
   55.9997   28.8760   43.3570 H   0  0  0  0  0  0  0  0  0  0  0  0
   57.5181   34.9292   44.2755 H   0  0  0  0  0  0  0  0  0  0  0  0
   59.3040   36.2823   45.4208 H   0  0  0  0  0  0  0  0  0  0  0  0
   60.9967   35.1486   46.8726 H   0  0  0  0  0  0  0  0  0  0  0  0
   60.9475   32.6500   47.1670 H   0  0  0  0  0  0  0  0  0  0  0  0
  1  2  1  0
  2  3  1  0
  3  4  1  0
  4  5  1  0
  5  6  1  0
  6  7  1  0
  7  8  2  0
  8  9  1  0
  9 10  2  0
 10 11  1  0
 11 12  2  0
 12 13  1  0
 13 14  2  0
 14 15  1  0
 14 16  1  0
 16 17  2  0
 17 18  1  0
 18 19  2  0
 19 20  1  0
 20 21  2  0
 21 22  1  0
 22 23  2  0
 23 24  1  0
 24  7  1  0
 13  8  1  0
 24 16  1  0
 23 18  1  0
  1 25  1  0
  1 26  1  0
  1 27  1  0
  2 28  1  0
  2 29  1  0
  3 30  1  0
  4 31  1  0
  4 32  1  0
  5 33  1  0
  5 34  1  0
  6 35  1  0
  6 36  1  0
  9 37  1  0
 10 38  1  0
 11 39  1  0
 12 40  1  0
 15 41  1  0
 15 42  1  0
 15 43  1  0
 19 44  1  0
 20 45  1  0
 21 46  1  0
 22 47  1  0
M  CHG  2   6   1  14   1
M  END
>  <UniqueID>  (7) 
7

>  <SMILES>  (7) 
CCNCC[NH2+]c1c2ccccc2[n+](C)c2nc3ccccc3n12

>  <Energy>  (7) 
106.2562029088389

>  <Genealogy>  (7) 
CCNCC[NH2+]c1c2ccccc2[n+](C)c2nc3ccccc3n12 (protonated)
CCNCC[NH2+]c1c2ccccc2[n+](C)c2nc3ccccc3n12 (3D coordinates assigned)
CCNCC[NH2+]c1c2ccccc2[n+](C)c2nc3ccccc3n12 (optimized conformer: 106.2562029088389 kcal/mol)

>  <smiles>  (7) 
CCNCCNc1c2ccccc2[n+](C)c2nc3ccccc3n12

>  <score_type>  (7) 
oracle

>  <origin>  (7) 
adg

>  <m_score__min__energy>  (7) 
-4.29

>  <m_primary>  (7) 
energy

$$$$
7:0
     RDKit          3D

 47 50  0  0  0  0  0  0  0  0999 V2000
   63.4060   33.7590   47.6430 C   0  0  0  0  0  0  0  0  0  0  0  0
   61.9540   34.2130   48.6410 S   0  0  0  0  0  0  0  0  0  0  0  0
   60.8510   33.0950   47.7580 C   0  0  0  0  0  0  0  0  0  0  0  0
   61.2150   31.7870   47.6740 N   0  0  0  0  0  0  0  0  0  0  0  0
   60.4310   30.9210   47.0000 C   0  0  0  0  0  0  0  0  0  0  0  0
   60.7070   29.2850   46.7950 S   0  0  0  0  0  0  0  0  0  0  0  0
   59.3060   29.0180   45.8840 C   0  0  0  0  0  0  0  0  0  0  0  0
   58.8950   27.6840   45.4020 C   0  0  0  0  0  0  0  0  0  0  0  0
   59.1870   26.5400   46.1550 C   0  0  0  0  0  0  0  0  0  0  0  0
   58.7760   25.2850   45.7090 C   0  0  0  0  0  0  0  0  0  0  0  0
   58.0600   25.1750   44.5070 C   0  0  0  0  0  0  0  0  0  0  0  0
   57.6110   23.8860   44.0460 N   0  0  0  0  0  0  0  0  0  0  0  0
   58.2240   22.6540   44.5610 C   0  0  0  0  0  0  0  0  0  0  0  0
   57.1830   21.5170   44.6820 C   0  0  0  0  0  0  0  0  0  0  0  0
   55.9200   21.8400   44.1270 O   0  0  0  0  0  0  0  0  0  0  0  0
   56.0850   22.3840   42.8340 C   0  0  0  0  0  0  0  0  0  0  0  0
   56.6420   23.8040   42.9480 C   0  0  0  0  0  0  0  0  0  0  0  0
   57.7580   26.3050   43.8020 N   0  0  0  0  0  0  0  0  0  0  0  0
   58.1530   27.5380   44.2210 C   0  0  0  0  0  0  0  0  0  0  0  0
   58.6210   30.2390   45.7090 C   0  0  0  0  0  0  0  0  0  0  0  0
   57.3800   30.3960   44.8730 C   0  0  0  0  0  0  0  0  0  0  0  0
   59.2680   31.3080   46.3750 C   0  0  0  0  0  0  0  0  0  0  0  0
   58.8820   32.6530   46.4760 C   0  0  0  0  0  0  0  0  0  0  0  0
   57.8140   33.0460   45.9310 O   0  0  0  0  0  0  0  0  0  0  0  0
   59.6740   33.5340   47.1820 N   0  0  0  0  0  0  0  0  0  0  0  0
   59.2900   34.9510   47.3030 C   0  0  0  0  0  0  0  0  0  0  0  0
   64.2415   33.4977   48.3090 H   0  0  0  0  0  0  0  0  0  0  0  0
   63.1591   32.8952   47.0083 H   0  0  0  0  0  0  0  0  0  0  0  0
   63.6952   34.6096   47.0083 H   0  0  0  0  0  0  0  0  0  0  0  0
   59.7418   26.6320   47.1004 H   0  0  0  0  0  0  0  0  0  0  0  0
   59.0117   24.3852   46.2963 H   0  0  0  0  0  0  0  0  0  0  0  0
   59.0228   22.3370   43.8744 H   0  0  0  0  0  0  0  0  0  0  0  0
   58.6307   22.8605   45.5620 H   0  0  0  0  0  0  0  0  0  0  0  0
   57.5747   20.6306   44.1615 H   0  0  0  0  0  0  0  0  0  0  0  0
   57.0260   21.3377   45.7559 H   0  0  0  0  0  0  0  0  0  0  0  0
   56.7856   21.7599   42.2598 H   0  0  0  0  0  0  0  0  0  0  0  0
   55.1131   22.4106   42.3196 H   0  0  0  0  0  0  0  0  0  0  0  0
   57.1389   24.0753   42.0049 H   0  0  0  0  0  0  0  0  0  0  0  0
   55.8127   24.4976   43.1511 H   0  0  0  0  0  0  0  0  0  0  0  0
   57.2210   26.2370   42.9100 H   0  0  0  0  0  0  0  0  0  0  0  0
   57.8884   28.4266   43.6290 H   0  0  0  0  0  0  0  0  0  0  0  0
   56.5059   30.5066   45.5315 H   0  0  0  0  0  0  0  0  0  0  0  0
   57.4761   31.2891   44.2381 H   0  0  0  0  0  0  0  0  0  0  0  0
   57.2507   29.5071   44.2381 H   0  0  0  0  0  0  0  0  0  0  0  0
   59.2167   35.2215   48.3667 H   0  0  0  0  0  0  0  0  0  0  0  0
   60.0502   35.5797   46.8163 H   0  0  0  0  0  0  0  0  0  0  0  0
   58.3164   35.1099   46.8163 H   0  0  0  0  0  0  0  0  0  0  0  0
  1  2  1  0
  2  3  1  0
  3  4  2  0
  4  5  1  0
  5  6  1  0
  6  7  1  0
  7  8  1  0
  8  9  2  0
  9 10  1  0
 10 11  2  0
 11 12  1  0
 12 13  1  0
 13 14  1  0
 14 15  1  0
 15 16  1  0
 16 17  1  0
 11 18  1  0
 18 19  2  0
  7 20  2  0
 20 21  1  0
 20 22  1  0
 22 23  1  0
 23 24  2  0
 23 25  1  0
 25 26  1  0
 25  3  1  0
 22  5  2  0
 19  8  1  0
 17 12  1  0
  1 27  1  0
  1 28  1  0
  1 29  1  0
  9 30  1  0
 10 31  1  0
 13 32  1  0
 13 33  1  0
 14 34  1  0
 14 35  1  0
 16 36  1  0
 16 37  1  0
 17 38  1  0
 17 39  1  0
 18 40  1  0
 19 41  1  0
 21 42  1  0
 21 43  1  0
 21 44  1  0
 26 45  1  0
 26 46  1  0
 26 47  1  0
M  CHG  1  18   1
M  END
>  <UniqueID>  (8) 
8

>  <SMILES>  (8) 
CSc1nc2sc(-c3ccc(N4CCOCC4)[nH+]c3)c(C)c2c(=O)n1C

>  <Energy>  (8) 
100.32201874328176

>  <Genealogy>  (8) 
CSc1nc2sc(-c3ccc(N4CCOCC4)[nH+]c3)c(C)c2c(=O)n1C (protonated)
CSc1nc2sc(-c3ccc(N4CCOCC4)[nH+]c3)c(C)c2c(=O)n1C (3D coordinates assigned)
CSc1nc2sc(-c3ccc(N4CCOCC4)[nH+]c3)c(C)c2c(=O)n1C (nonaromatic ring conformer: 100.32201874328176 kcal/mol)

>  <smiles>  (8) 
CSc1nc2sc(-c3ccc(N4CCOCC4)nc3)c(C)c2c(=O)n1C

>  <score_type>  (8) 
oracle

>  <origin>  (8) 
adg

>  <m_score__min__energy>  (8) 
-6.3200000000000003

>  <m_primary>  (8) 
energy

$$$$
8:0
     RDKit          3D

 22 22  0  0  0  0  0  0  0  0999 V2000
   58.7200   27.4610   43.7920 C   0  0  0  0  0  0  0  0  0  0  0  0
   58.7370   28.2030   44.9040 C   0  0  0  0  0  0  0  0  0  0  0  0
   60.0550   28.5770   45.5210 C   0  0  0  0  0  0  0  0  0  0  0  0
   57.4800   28.5390   45.6170 C   0  0  0  0  0  0  0  0  0  0  0  0
   56.7120   27.6080   45.9750 O   0  0  0  0  0  0  0  0  0  0  0  0
   57.0960   29.8920   45.9030 N   0  0  0  0  0  0  0  0  0  0  0  0
   57.5800   31.0600   45.2240 C   0  0  0  0  0  0  0  0  0  0  0  0
   57.2960   31.2140   43.8570 C   0  0  0  0  0  0  0  0  0  0  0  0
   56.2960   29.8890   42.9020 Br  0  0  0  0  0  0  0  0  0  0  0  0
   57.7710   32.3290   43.1620 C   0  0  0  0  0  0  0  0  0  0  0  0
   58.5140   33.3050   43.8240 C   0  0  0  0  0  0  0  0  0  0  0  0
   58.7730   33.1870   45.1930 C   0  0  0  0  0  0  0  0  0  0  0  0
   59.7680   34.5870   46.0460 Br  0  0  0  0  0  0  0  0  0  0  0  0
   58.2970   32.0710   45.9080 C   0  0  0  0  0  0  0  0  0  0  0  0
   58.5370   31.9890   47.8150 Br  0  0  0  0  0  0  0  0  0  0  0  0
   57.7607   27.1815   43.3319 H   0  0  0  0  0  0  0  0  0  0  0  0
   59.6653   27.1300   43.3371 H   0  0  0  0  0  0  0  0  0  0  0  0
   59.9669   28.5520   46.6172 H   0  0  0  0  0  0  0  0  0  0  0  0
   60.8267   27.8624   45.1988 H   0  0  0  0  0  0  0  0  0  0  0  0
   60.3363   29.5904   45.1988 H   0  0  0  0  0  0  0  0  0  0  0  0
   57.5578   32.4371   42.0883 H   0  0  0  0  0  0  0  0  0  0  0  0
   58.8984   34.1721   43.2669 H   0  0  0  0  0  0  0  0  0  0  0  0
  1  2  2  0
  2  3  1  0
  2  4  1  0
  4  5  2  0
  4  6  1  0
  6  7  1  0
  7  8  2  0
  8  9  1  0
  8 10  1  0
 10 11  2  0
 11 12  1  0
 12 13  1  0
 12 14  2  0
 14 15  1  0
 14  7  1  0
  1 16  1  0
  1 17  1  0
  3 18  1  0
  3 19  1  0
  3 20  1  0
 10 21  1  0
 11 22  1  0
M  CHG  1   6  -1
M  END
>  <UniqueID>  (9) 
9

>  <SMILES>  (9) 
C=C(C)C(=O)[N-]c1c(Br)ccc(Br)c1Br

>  <Energy>  (9) 
30.492037936797587

>  <Genealogy>  (9) 
C=C(C)C(=O)[N-]c1c(Br)ccc(Br)c1Br (protonated)
C=C(C)C(=O)[N-]c1c(Br)ccc(Br)c1Br (3D coordinates assigned)
C=C(C)C(=O)[N-]c1c(Br)ccc(Br)c1Br (optimized conformer: 30.492037936797587 kcal/mol)

>  <smiles>  (9) 
C=C(C)C(=O)Nc1c(Br)ccc(Br)c1Br

>  <score_type>  (9) 
oracle

>  <origin>  (9) 
adg

>  <m_score__min__energy>  (9) 
-8.3000000000000007

>  <m_primary>  (9) 
energy

$$$$
9:0
     RDKit          3D

 72 74  0  0  0  0  0  0  0  0999 V2000
   62.9110   33.6700   46.7290 C   0  0  0  0  0  0  0  0  0  0  0  0
   62.4470   32.3800   47.4010 C   0  0  0  0  0  0  0  0  0  0  0  0
   62.1370   32.6290   48.8290 N   0  0  0  0  0  0  0  0  0  0  0  0
   62.0680   34.0800   49.1170 C   0  0  0  0  0  0  0  0  0  0  0  0
   63.0280   34.4430   50.2470 C   0  0  0  0  0  0  0  0  0  0  0  0
   63.1140   31.9510   49.7140 C   0  0  0  0  0  0  0  0  0  0  0  0
   62.6010   30.5660   50.1010 C   0  0  0  0  0  0  0  0  0  0  0  0
   61.5160   30.2230   49.2640 O   0  0  0  0  0  0  0  0  0  0  0  0
   61.0880   28.8990   49.5220 C   0  0  0  0  0  0  0  0  0  0  0  0
   60.3730   28.8350   50.8690 C   0  0  0  0  0  0  0  0  0  0  0  0
   59.6320   30.0240   51.0730 O   0  0  0  0  0  0  0  0  0  0  0  0
   59.7800   30.4810   52.4020 C   0  0  0  0  0  0  0  0  0  0  0  0
   60.4330   31.8700   52.4140 C   0  0  0  0  0  0  0  0  0  0  0  0
   60.3980   32.5470   51.1100 N   0  0  0  0  0  0  0  0  0  0  0  0
   59.0830   33.1310   50.8080 C   0  0  0  0  0  0  0  0  0  0  0  0
   58.4040   32.3440   49.6820 C   0  0  0  0  0  0  0  0  0  0  0  0
   59.3960   31.6500   48.8420 N   0  0  0  0  0  0  0  0  0  0  0  0
   59.0050   31.7000   47.4400 C   0  0  0  0  0  0  0  0  0  0  0  0
   58.6600   30.5120   46.7430 C   0  0  0  0  0  0  0  0  0  0  0  0
   58.5550   29.2630   47.4080 C   0  0  0  0  0  0  0  0  0  0  0  0
   58.3140   28.0900   46.6990 C   0  0  0  0  0  0  0  0  0  0  0  0
   58.1750   28.1260   45.3210 C   0  0  0  0  0  0  0  0  0  0  0  0
   58.2240   29.3420   44.6470 C   0  0  0  0  0  0  0  0  0  0  0  0
   58.4100   30.5650   45.3430 C   0  0  0  0  0  0  0  0  0  0  0  0
   58.3630   31.7790   44.6880 N   0  0  0  0  0  0  0  0  0  0  0  0
   57.8140   31.8520   43.3130 C   0  0  0  0  0  0  0  0  0  0  0  0
   58.7730   32.9320   45.3270 C   0  0  0  0  0  0  0  0  0  0  0  0
   58.9640   34.1420   44.6100 C   0  0  0  0  0  0  0  0  0  0  0  0
   59.2790   35.3280   45.2660 C   0  0  0  0  0  0  0  0  0  0  0  0
   59.4150   35.3430   46.6470 C   0  0  0  0  0  0  0  0  0  0  0  0
   59.2940   34.1620   47.3730 C   0  0  0  0  0  0  0  0  0  0  0  0
   59.0270   32.9280   46.7260 C   0  0  0  0  0  0  0  0  0  0  0  0
   63.1769   34.4093   47.4988 H   0  0  0  0  0  0  0  0  0  0  0  0
   63.7903   33.4611   46.1020 H   0  0  0  0  0  0  0  0  0  0  0  0
   62.1000   34.0690   46.1020 H   0  0  0  0  0  0  0  0  0  0  0  0
   61.5445   32.0098   46.8926 H   0  0  0  0  0  0  0  0  0  0  0  0
   63.2501   31.6314   47.3335 H   0  0  0  0  0  0  0  0  0  0  0  0
   62.3429   34.6428   48.2127 H   0  0  0  0  0  0  0  0  0  0  0  0
   61.0428   34.3353   49.4231 H   0  0  0  0  0  0  0  0  0  0  0  0
   62.5405   34.2587   51.2157 H   0  0  0  0  0  0  0  0  0  0  0  0
   63.9353   33.8259   50.1698 H   0  0  0  0  0  0  0  0  0  0  0  0
   63.3000   35.5060   50.1698 H   0  0  0  0  0  0  0  0  0  0  0  0
   64.0733   31.8487   49.1855 H   0  0  0  0  0  0  0  0  0  0  0  0
   63.2501   32.5514   50.6256 H   0  0  0  0  0  0  0  0  0  0  0  0
   63.4073   29.8277   49.9796 H   0  0  0  0  0  0  0  0  0  0  0  0
   62.2709   30.5736   51.1503 H   0  0  0  0  0  0  0  0  0  0  0  0
   60.3981   28.5778   48.7277 H   0  0  0  0  0  0  0  0  0  0  0  0
   61.9642   28.2344   49.5462 H   0  0  0  0  0  0  0  0  0  0  0  0
   59.6905   27.9724   50.8800 H   0  0  0  0  0  0  0  0  0  0  0  0
   61.1174   28.7275   51.6717 H   0  0  0  0  0  0  0  0  0  0  0  0
   58.7903   30.5404   52.8784 H   0  0  0  0  0  0  0  0  0  0  0  0
   60.4205   29.7779   52.9546 H   0  0  0  0  0  0  0  0  0  0  0  0
   59.9031   32.4972   53.1460 H   0  0  0  0  0  0  0  0  0  0  0  0
   61.4919   31.7268   52.6752 H   0  0  0  0  0  0  0  0  0  0  0  0
   60.6590   31.8740   50.3530 H   0  0  0  0  0  0  0  0  0  0  0  0
   58.4529   33.0943   51.7089 H   0  0  0  0  0  0  0  0  0  0  0  0
   59.2173   34.1748   50.4878 H   0  0  0  0  0  0  0  0  0  0  0  0
   57.7248   31.5999   50.1236 H   0  0  0  0  0  0  0  0  0  0  0  0
   57.8472   33.0515   49.0500 H   0  0  0  0  0  0  0  0  0  0  0  0
   60.3440   32.0600   48.9860 H   0  0  0  0  0  0  0  0  0  0  0  0
   59.5230   30.6630   49.1570 H   0  0  0  0  0  0  0  0  0  0  0  0
   58.6659   29.2212   48.5016 H   0  0  0  0  0  0  0  0  0  0  0  0
   58.2337   27.1321   47.2338 H   0  0  0  0  0  0  0  0  0  0  0  0
   58.0257   27.1921   44.7593 H   0  0  0  0  0  0  0  0  0  0  0  0
   58.1164   29.3560   43.5524 H   0  0  0  0  0  0  0  0  0  0  0  0
   56.7246   31.9969   43.3604 H   0  0  0  0  0  0  0  0  0  0  0  0
   58.2734   32.6970   42.7791 H   0  0  0  0  0  0  0  0  0  0  0  0
   58.0366   30.9163   42.7791 H   0  0  0  0  0  0  0  0  0  0  0  0
   58.8610   34.1421   43.5148 H   0  0  0  0  0  0  0  0  0  0  0  0
   59.4203   36.2542   44.6896 H   0  0  0  0  0  0  0  0  0  0  0  0
   59.6188   36.2898   47.1685 H   0  0  0  0  0  0  0  0  0  0  0  0
   59.4073   34.1857   48.4669 H   0  0  0  0  0  0  0  0  0  0  0  0
  1  2  1  0
  2  3  1  0
  3  4  1  0
  4  5  1  0
  3  6  1  0
  6  7  1  0
  7  8  1  0
  8  9  1  0
  9 10  1  0
 10 11  1  0
 11 12  1  0
 12 13  1  0
 13 14  1  0
 14 15  1  0
 15 16  1  0
 16 17  1  0
 17 18  1  0
 18 19  2  0
 19 20  1  0
 20 21  2  0
 21 22  1  0
 22 23  2  0
 23 24  1  0
 24 25  2  0
 25 26  1  0
 25 27  1  0
 27 28  2  0
 28 29  1  0
 29 30  2  0
 30 31  1  0
 31 32  2  0
 32 18  1  0
 24 19  1  0
 32 27  1  0
  1 33  1  0
  1 34  1  0
  1 35  1  0
  2 36  1  0
  2 37  1  0
  4 38  1  0
  4 39  1  0
  5 40  1  0
  5 41  1  0
  5 42  1  0
  6 43  1  0
  6 44  1  0
  7 45  1  0
  7 46  1  0
  9 47  1  0
  9 48  1  0
 10 49  1  0
 10 50  1  0
 12 51  1  0
 12 52  1  0
 13 53  1  0
 13 54  1  0
 14 55  1  0
 15 56  1  0
 15 57  1  0
 16 58  1  0
 16 59  1  0
 17 60  1  0
 17 61  1  0
 20 62  1  0
 21 63  1  0
 22 64  1  0
 23 65  1  0
 26 66  1  0
 26 67  1  0
 26 68  1  0
 28 69  1  0
 29 70  1  0
 30 71  1  0
 31 72  1  0
M  CHG  2  17   1  25   1
M  END
>  <UniqueID>  (10) 
10

>  <SMILES>  (10) 
CCN(CC)CCOCCOCCNCC[NH2+]c1c2ccccc2[n+](C)c2ccccc12

>  <Energy>  (10) 
98.22904355324232

>  <Genealogy>  (10) 
CCN(CC)CCOCCOCCNCC[NH2+]c1c2ccccc2[n+](C)c2ccccc12 (protonated)
CCN(CC)CCOCCOCCNCC[NH2+]c1c2ccccc2[n+](C)c2ccccc12 (3D coordinates assigned)
CCN(CC)CCOCCOCCNCC[NH2+]c1c2ccccc2[n+](C)c2ccccc12 (optimized conformer: 98.22904355324232 kcal/mol)

>  <smiles>  (10) 
CCN(CC)CCOCCOCCNCCNc1c2ccccc2[n+](C)c2ccccc12

>  <score_type>  (10) 
oracle

>  <origin>  (10) 
adg

>  <m_score__min__energy>  (10) 
-4.3600000000000003

>  <m_primary>  (10) 
energy

$$$$
10:0
     RDKit          3D

 42 44  0  0  0  0  0  0  0  0999 V2000
   56.6060   30.1770   42.6040 C   0  0  0  0  0  0  0  0  0  0  0  0
   56.6340   29.4850   43.9700 C   0  0  0  0  0  0  0  0  0  0  0  0
   57.5670   28.3430   44.0180 N   0  0  0  0  0  0  0  0  0  0  0  0
   58.2860   28.1780   45.2960 C   0  0  0  0  0  0  0  0  0  0  0  0
   58.1840   29.4200   46.2050 C   0  0  0  0  0  0  0  0  0  0  0  0
   59.3630   30.4030   46.0130 C   0  0  2  0  0  0  0  0  0  0  0  0
   60.4330   30.2450   47.1440 C   0  0  0  0  0  0  0  0  0  0  0  0
   61.1980   31.5040   47.4780 C   0  0  0  0  0  0  0  0  0  0  0  0
   62.5390   31.6580   47.0960 C   0  0  0  0  0  0  0  0  0  0  0  0
   63.2310   32.8290   47.4190 C   0  0  0  0  0  0  0  0  0  0  0  0
   62.5880   33.8550   48.1180 C   0  0  0  0  0  0  0  0  0  0  0  0
   61.2490   33.7150   48.4910 C   0  0  0  0  0  0  0  0  0  0  0  0
   60.5570   32.5380   48.1810 C   0  0  0  0  0  0  0  0  0  0  0  0
   58.8070   32.3930   48.5340 S   0  0  0  0  0  0  0  0  0  0  0  0
   58.4530   32.7230   46.8070 C   0  0  0  0  0  0  0  0  0  0  0  0
   57.9130   33.9760   46.4880 C   0  0  0  0  0  0  0  0  0  0  0  0
   57.6720   34.3260   45.1600 C   0  0  0  0  0  0  0  0  0  0  0  0
   57.9780   33.4310   44.1380 C   0  0  0  0  0  0  0  0  0  0  0  0
   58.5310   32.1850   44.4390 C   0  0  0  0  0  0  0  0  0  0  0  0
   58.7990   31.8110   45.7720 C   0  0  0  0  0  0  0  0  0  0  0  0
   56.5619   31.2669   42.7459 H   0  0  0  0  0  0  0  0  0  0  0  0
   57.5154   29.9169   42.0425 H   0  0  0  0  0  0  0  0  0  0  0  0
   55.7206   29.8442   42.0425 H   0  0  0  0  0  0  0  0  0  0  0  0
   56.9399   30.2199   44.7292 H   0  0  0  0  0  0  0  0  0  0  0  0
   55.6241   29.0934   44.1616 H   0  0  0  0  0  0  0  0  0  0  0  0
   58.2720   28.4550   43.2530 H   0  0  0  0  0  0  0  0  0  0  0  0
   57.0300   27.4670   43.8170 H   0  0  0  0  0  0  0  0  0  0  0  0
   57.8599   27.3159   45.8300 H   0  0  0  0  0  0  0  0  0  0  0  0
   59.3498   28.0273   45.0600 H   0  0  0  0  0  0  0  0  0  0  0  0
   57.2462   29.9472   45.9756 H   0  0  0  0  0  0  0  0  0  0  0  0
   58.2115   29.0701   47.2475 H   0  0  0  0  0  0  0  0  0  0  0  0
   59.9459   30.1670   45.1105 H   0  0  0  0  0  0  0  0  0  0  0  0
   59.9189   29.9059   48.0554 H   0  0  0  0  0  0  0  0  0  0  0  0
   61.1745   29.5248   46.7679 H   0  0  0  0  0  0  0  0  0  0  0  0
   63.0472   30.8556   46.5411 H   0  0  0  0  0  0  0  0  0  0  0  0
   64.2841   32.9434   47.1224 H   0  0  0  0  0  0  0  0  0  0  0  0
   63.1368   34.7732   48.3745 H   0  0  0  0  0  0  0  0  0  0  0  0
   60.7389   34.5285   49.0276 H   0  0  0  0  0  0  0  0  0  0  0  0
   57.6773   34.6892   47.2916 H   0  0  0  0  0  0  0  0  0  0  0  0
   57.2403   35.3088   44.9197 H   0  0  0  0  0  0  0  0  0  0  0  0
   57.7835   33.7065   43.0910 H   0  0  0  0  0  0  0  0  0  0  0  0
   58.7613   31.4838   43.6234 H   0  0  0  0  0  0  0  0  0  0  0  0
  1  2  1  0
  2  3  1  0
  3  4  1  0
  4  5  1  0
  5  6  1  0
  6  7  1  0
  7  8  1  0
  8  9  2  0
  9 10  1  0
 10 11  2  0
 11 12  1  0
 12 13  2  0
 13 14  1  0
 14 15  1  0
 15 16  2  0
 16 17  1  0
 17 18  2  0
 18 19  1  0
 19 20  2  0
 20  6  1  0
 13  8  1  0
 20 15  1  0
  1 21  1  0
  1 22  1  0
  1 23  1  0
  2 24  1  0
  2 25  1  0
  3 26  1  0
  3 27  1  0
  4 28  1  0
  4 29  1  0
  5 30  1  0
  5 31  1  0
  6 32  1  6
  7 33  1  0
  7 34  1  0
  9 35  1  0
 10 36  1  0
 11 37  1  0
 12 38  1  0
 16 39  1  0
 17 40  1  0
 18 41  1  0
 19 42  1  0
M  CHG  1   3   1
M  END
>  <UniqueID>  (11) 
11

>  <SMILES>  (11) 
CC[NH2+]CC[C@@H]1Cc2ccccc2Sc2ccccc21

>  <Energy>  (11) 
51.67954778213791

>  <Genealogy>  (11) 
CC[NH2+]CCC1Cc2ccccc2Sc2ccccc21 (protonated)
CC[NH2+]CC[C@@H]1Cc2ccccc2Sc2ccccc21 (chirality)
CC[NH2+]CC[C@@H]1Cc2ccccc2Sc2ccccc21 (3D coordinates assigned)
CC[NH2+]CC[C@@H]1Cc2ccccc2Sc2ccccc21 (nonaromatic ring conformer: 51.67954778213791 kcal/mol)

>  <smiles>  (11) 
CCNCCC1Cc2ccccc2Sc2ccccc21

>  <score_type>  (11) 
oracle

>  <origin>  (11) 
adg

>  <m_score__min__energy>  (11) 
-4.7599999999999998

>  <m_primary>  (11) 
energy

$$$$
11:0
     RDKit          3D

 53 55  0  0  0  0  0  0  0  0999 V2000
   62.9290   33.8750   49.6030 C   0  0  0  0  0  0  0  0  0  0  0  0
   64.0300   33.0900   48.8770 C   0  0  0  0  0  0  0  0  0  0  0  0
   63.6610   32.7310   47.4830 N   0  0  1  0  0  0  0  0  0  0  0  0
   62.7370   31.5790   47.4670 C   0  0  0  0  0  0  0  0  0  0  0  0
   63.0220   33.8850   46.7940 C   0  0  0  0  0  0  0  0  0  0  0  0
   61.5610   33.6200   46.3760 C   0  0  0  0  0  0  0  0  0  0  0  0
   60.5560   34.5980   47.0180 C   0  0  0  0  0  0  0  0  0  0  0  0
   59.1890   34.0810   46.9330 N   0  0  0  0  0  0  0  0  0  0  0  0
   58.9280   32.6860   46.6970 C   0  0  0  0  0  0  0  0  0  0  0  0
   59.0770   31.7510   47.7370 C   0  0  0  0  0  0  0  0  0  0  0  0
   59.3050   32.1670   49.0660 C   0  0  0  0  0  0  0  0  0  0  0  0
   59.4720   31.2310   50.0860 C   0  0  0  0  0  0  0  0  0  0  0  0
   59.4040   29.8710   49.8020 C   0  0  0  0  0  0  0  0  0  0  0  0
   59.1660   29.4390   48.4980 C   0  0  0  0  0  0  0  0  0  0  0  0
   59.0000   30.3680   47.4420 C   0  0  0  0  0  0  0  0  0  0  0  0
   58.7720   29.9500   46.1480 N   0  0  0  0  0  0  0  0  0  0  0  0
   59.2290   28.6050   45.7450 C   0  0  0  0  0  0  0  0  0  0  0  0
   58.3030   30.8490   45.2060 C   0  0  0  0  0  0  0  0  0  0  0  0
   57.6530   30.4410   43.9960 C   0  0  0  0  0  0  0  0  0  0  0  0
   57.0300   29.0800   43.8030 C   0  0  0  0  0  0  0  0  0  0  0  0
   57.4490   31.3780   42.9720 C   0  0  0  0  0  0  0  0  0  0  0  0
   57.7610   32.7170   43.1610 C   0  0  0  0  0  0  0  0  0  0  0  0
   58.2350   33.1550   44.3910 C   0  0  0  0  0  0  0  0  0  0  0  0
   58.4840   32.2420   45.4340 C   0  0  0  0  0  0  0  0  0  0  0  0
   63.0654   33.7777   50.6902 H   0  0  0  0  0  0  0  0  0  0  0  0
   62.9876   34.9362   49.3196 H   0  0  0  0  0  0  0  0  0  0  0  0
   61.9448   33.4736   49.3196 H   0  0  0  0  0  0  0  0  0  0  0  0
   64.9413   33.7056   48.8514 H   0  0  0  0  0  0  0  0  0  0  0  0
   64.1853   32.1515   49.4294 H   0  0  0  0  0  0  0  0  0  0  0  0
   64.5220   32.4470   46.9640 H   0  0  0  0  0  0  0  0  0  0  0  0
   62.5006   31.2842   48.5001 H   0  0  0  0  0  0  0  0  0  0  0  0
   61.8105   31.8593   46.9445 H   0  0  0  0  0  0  0  0  0  0  0  0
   63.2117   30.7354   46.9445 H   0  0  0  0  0  0  0  0  0  0  0  0
   63.0382   34.7492   47.4744 H   0  0  0  0  0  0  0  0  0  0  0  0
   63.5939   34.0687   45.8725 H   0  0  0  0  0  0  0  0  0  0  0  0
   61.4884   33.7127   45.2823 H   0  0  0  0  0  0  0  0  0  0  0  0
   61.3005   32.6097   46.7244 H   0  0  0  0  0  0  0  0  0  0  0  0
   60.8205   34.7417   48.0760 H   0  0  0  0  0  0  0  0  0  0  0  0
   60.6025   35.5532   46.4744 H   0  0  0  0  0  0  0  0  0  0  0  0
   58.4120   34.7700   46.8260 H   0  0  0  0  0  0  0  0  0  0  0  0
   59.3515   33.2409   49.2998 H   0  0  0  0  0  0  0  0  0  0  0  0
   59.6577   31.5685   51.1163 H   0  0  0  0  0  0  0  0  0  0  0  0
   59.5383   29.1347   50.6081 H   0  0  0  0  0  0  0  0  0  0  0  0
   59.1063   28.3612   48.2863 H   0  0  0  0  0  0  0  0  0  0  0  0
   59.4335   28.0030   46.6426 H   0  0  0  0  0  0  0  0  0  0  0  0
   58.4466   28.1161   45.1461 H   0  0  0  0  0  0  0  0  0  0  0  0
   60.1474   28.6940   45.1461 H   0  0  0  0  0  0  0  0  0  0  0  0
   56.8234   28.6288   44.7847 H   0  0  0  0  0  0  0  0  0  0  0  0
   56.0896   29.1835   43.2418 H   0  0  0  0  0  0  0  0  0  0  0  0
   57.7229   28.4358   43.2418 H   0  0  0  0  0  0  0  0  0  0  0  0
   57.0366   31.0473   42.0073 H   0  0  0  0  0  0  0  0  0  0  0  0
   57.6327   33.4326   42.3355 H   0  0  0  0  0  0  0  0  0  0  0  0
   58.4180   34.2276   44.5523 H   0  0  0  0  0  0  0  0  0  0  0  0
  1  2  1  0
  2  3  1  0
  3  4  1  0
  3  5  1  0
  5  6  1  0
  6  7  1  0
  7  8  1  0
  8  9  1  0
  9 10  2  0
 10 11  1  0
 11 12  2  0
 12 13  1  0
 13 14  2  0
 14 15  1  0
 15 16  2  0
 16 17  1  0
 16 18  1  0
 18 19  2  0
 19 20  1  0
 19 21  1  0
 21 22  2  0
 22 23  1  0
 23 24  2  0
 24  9  1  0
 15 10  1  0
 24 18  1  0
  1 25  1  0
  1 26  1  0
  1 27  1  0
  2 28  1  0
  2 29  1  0
  3 30  1  6
  4 31  1  0
  4 32  1  0
  4 33  1  0
  5 34  1  0
  5 35  1  0
  6 36  1  0
  6 37  1  0
  7 38  1  0
  7 39  1  0
  8 40  1  0
 11 41  1  0
 12 42  1  0
 13 43  1  0
 14 44  1  0
 17 45  1  0
 17 46  1  0
 17 47  1  0
 20 48  1  0
 20 49  1  0
 20 50  1  0
 21 51  1  0
 22 52  1  0
 23 53  1  0
M  CHG  2   3   1  16   1
M  END
>  <UniqueID>  (12) 
12

>  <SMILES>  (12) 
CC[N@@H+](C)CCCNc1c2ccccc2[n+](C)c2c(C)cccc12

>  <Energy>  (12) 
87.6697760550559

>  <Genealogy>  (12) 
CC[NH+](C)CCCNc1c2ccccc2[n+](C)c2c(C)cccc12 (protonated)
CC[N@@H+](C)CCCNc1c2ccccc2[n+](C)c2c(C)cccc12 (chirality)
CC[N@@H+](C)CCCNc1c2ccccc2[n+](C)c2c(C)cccc12 (3D coordinates assigned)
CC[N@@H+](C)CCCNc1c2ccccc2[n+](C)c2c(C)cccc12 (optimized conformer: 87.6697760550559 kcal/mol)

>  <smiles>  (12) 
CCN(C)CCCNc1c2ccccc2[n+](C)c2c(C)cccc12

>  <score_type>  (12) 
oracle

>  <origin>  (12) 
adg

>  <m_score__min__energy>  (12) 
-4.9000000000000004

>  <m_primary>  (12) 
energy

$$$$
12:0
     RDKit          3D

 45 46  0  0  0  0  0  0  0  0999 V2000
   56.8240   24.9480   45.2150 C   0  0  0  0  0  0  0  0  0  0  0  0
   56.2050   26.0500   46.0640 C   0  0  0  0  0  0  0  0  0  0  0  0
   56.7880   27.3490   45.7250 N   0  0  0  0  0  0  0  0  0  0  0  0
   57.8600   27.9890   46.4470 C   0  0  0  0  0  0  0  0  0  0  0  0
   58.6270   27.2250   47.3340 C   0  0  0  0  0  0  0  0  0  0  0  0
   59.6750   27.8030   48.0460 C   0  0  0  0  0  0  0  0  0  0  0  0
   59.9630   29.1670   47.9010 C   0  0  0  0  0  0  0  0  0  0  0  0
   59.1600   29.9780   47.0700 C   0  0  0  0  0  0  0  0  0  0  0  0
   58.1450   29.3620   46.3050 C   0  0  0  0  0  0  0  0  0  0  0  0
   59.4180   31.4090   46.9960 N   0  0  0  0  0  0  0  0  0  0  0  0
   58.3300   32.3700   46.7190 C   0  0  0  0  0  0  0  0  0  0  0  0
   58.0310   32.4870   45.2160 C   0  0  0  0  0  0  0  0  0  0  0  0
   56.8320   31.7190   44.8510 N   0  0  0  0  0  0  0  0  0  0  0  0
   57.0520   30.9270   43.6340 C   0  0  0  0  0  0  0  0  0  0  0  0
   56.1070   29.7170   43.5970 C   0  0  0  0  0  0  0  0  0  0  0  0
   55.2490   29.6450   44.7790 N   0  0  0  0  0  0  0  0  0  0  0  0
   60.6650   31.9750   47.5540 C   0  0  0  0  0  0  0  0  0  0  0  0
   61.7210   30.9060   47.8420 C   0  0  0  0  0  0  0  0  0  0  0  0
   61.1110   29.7700   48.6560 C   0  0  0  0  0  0  0  0  0  0  0  0
   57.2563   24.1784   45.8715 H   0  0  0  0  0  0  0  0  0  0  0  0
   56.0484   24.4949   44.5801 H   0  0  0  0  0  0  0  0  0  0  0  0
   57.6145   25.3746   44.5801 H   0  0  0  0  0  0  0  0  0  0  0  0
   55.1207   26.0814   45.8814 H   0  0  0  0  0  0  0  0  0  0  0  0
   56.4057   25.8365   47.1243 H   0  0  0  0  0  0  0  0  0  0  0  0
   56.4070   27.8280   44.8760 H   0  0  0  0  0  0  0  0  0  0  0  0
   58.3998   26.1574   47.4701 H   0  0  0  0  0  0  0  0  0  0  0  0
   60.2802   27.1856   48.7261 H   0  0  0  0  0  0  0  0  0  0  0  0
   57.5679   29.9633   45.5871 H   0  0  0  0  0  0  0  0  0  0  0  0
   57.4195   32.0339   47.2367 H   0  0  0  0  0  0  0  0  0  0  0  0
   58.6515   33.3586   47.0785 H   0  0  0  0  0  0  0  0  0  0  0  0
   57.8697   33.5454   44.9636 H   0  0  0  0  0  0  0  0  0  0  0  0
   58.8877   32.0813   44.6579 H   0  0  0  0  0  0  0  0  0  0  0  0
   56.6430   31.0500   45.6340 H   0  0  0  0  0  0  0  0  0  0  0  0
   56.8649   31.5587   42.7531 H   0  0  0  0  0  0  0  0  0  0  0  0
   58.0908   30.5653   43.6298 H   0  0  0  0  0  0  0  0  0  0  0  0
   55.4711   29.7923   42.7026 H   0  0  0  0  0  0  0  0  0  0  0  0
   56.7259   28.8079   43.5752 H   0  0  0  0  0  0  0  0  0  0  0  0
   54.4270   30.2760   44.6490 H   0  0  0  0  0  0  0  0  0  0  0  0
   55.7830   29.9740   45.6160 H   0  0  0  0  0  0  0  0  0  0  0  0
   61.0795   32.6936   46.8316 H   0  0  0  0  0  0  0  0  0  0  0  0
   60.4123   32.4585   48.5092 H   0  0  0  0  0  0  0  0  0  0  0  0
   62.1032   30.5071   46.8908 H   0  0  0  0  0  0  0  0  0  0  0  0
   62.5428   31.3584   48.4164 H   0  0  0  0  0  0  0  0  0  0  0  0
   61.8745   28.9992   48.8375 H   0  0  0  0  0  0  0  0  0  0  0  0
   60.7484   30.1641   49.6169 H   0  0  0  0  0  0  0  0  0  0  0  0
  1  2  1  0
  2  3  1  0
  3  4  1  0
  4  5  2  0
  5  6  1  0
  6  7  2  0
  7  8  1  0
  8  9  2  0
  8 10  1  0
 10 11  1  0
 11 12  1  0
 12 13  1  0
 13 14  1  0
 14 15  1  0
 15 16  1  0
 10 17  1  0
 17 18  1  0
 18 19  1  0
  9  4  1  0
 19  7  1  0
  1 20  1  0
  1 21  1  0
  1 22  1  0
  2 23  1  0
  2 24  1  0
  3 25  1  0
  5 26  1  0
  6 27  1  0
  9 28  1  0
 11 29  1  0
 11 30  1  0
 12 31  1  0
 12 32  1  0
 13 33  1  0
 14 34  1  0
 14 35  1  0
 15 36  1  0
 15 37  1  0
 16 38  1  0
 16 39  1  0
 17 40  1  0
 17 41  1  0
 18 42  1  0
 18 43  1  0
 19 44  1  0
 19 45  1  0
M  END
>  <UniqueID>  (13) 
13

>  <SMILES>  (13) 
CCNc1ccc2c(c1)N(CCNCCN)CCC2

>  <Energy>  (13) 
39.64385120725181

>  <Genealogy>  (13) 
CCNc1ccc2c(c1)N(CCNCCN)CCC2 (3D coordinates assigned)
CCNc1ccc2c(c1)N(CCNCCN)CCC2 (nonaromatic ring conformer: 39.64385120725181 kcal/mol)

>  <smiles>  (13) 
CCNc1ccc2c(c1)N(CCNCCN)CCC2

>  <score_type>  (13) 
oracle

>  <origin>  (13) 
adg

>  <m_score__min__energy>  (13) 
-6.9000000000000004

>  <m_primary>  (13) 
energy

$$$$
13:0
     RDKit          3D

 46 48  0  0  0  0  0  0  0  0999 V2000
   60.4480   28.9660   45.0060 C   0  0  0  0  0  0  0  0  0  0  0  0
   59.1000   28.5120   44.4560 C   0  0  0  0  0  0  0  0  0  0  0  0
   58.3140   29.6640   44.0190 N   0  0  0  0  0  0  0  0  0  0  0  0
   57.2910   30.2510   44.8360 C   0  0  0  0  0  0  0  0  0  0  0  0
   56.8770   29.6490   45.8640 O   0  0  0  0  0  0  0  0  0  0  0  0
   56.7270   31.5960   44.4930 C   0  0  0  0  0  0  0  0  0  0  0  0
   57.7830   32.6480   44.6620 C   0  0  0  0  0  0  0  0  0  0  0  0
   58.5740   33.0630   43.6540 N   0  0  0  0  0  0  0  0  0  0  0  0
   59.3280   34.0430   44.1300 N   0  0  0  0  0  0  0  0  0  0  0  0
   58.9880   34.2120   45.4220 C   0  0  0  0  0  0  0  0  0  0  0  0
   59.5750   35.2850   46.2900 C   0  0  0  0  0  0  0  0  0  0  0  0
   60.2470   34.6870   47.4410 N   0  0  0  0  0  0  0  0  0  0  0  0
   59.7870   34.7220   48.6880 N   0  0  0  0  0  0  0  0  0  0  0  0
   60.6430   34.1450   49.5310 N   0  0  0  0  0  0  0  0  0  0  0  0
   61.6810   33.7420   48.7750 C   0  0  0  0  0  0  0  0  0  0  0  0
   62.8470   33.0940   49.1710 C   0  0  0  0  0  0  0  0  0  0  0  0
   63.7910   32.7920   48.1680 C   0  0  0  0  0  0  0  0  0  0  0  0
   63.5420   33.1410   46.8180 C   0  0  0  0  0  0  0  0  0  0  0  0
   62.3490   33.7970   46.4580 C   0  0  0  0  0  0  0  0  0  0  0  0
   61.4420   34.0770   47.4790 C   0  0  0  0  0  0  0  0  0  0  0  0
   58.0000   33.3660   45.7850 N   0  0  0  0  0  0  0  0  0  0  0  0
   57.3860   33.2020   47.1060 C   0  0  0  0  0  0  0  0  0  0  0  0
   58.2640   32.3180   47.9930 C   0  0  0  0  0  0  0  0  0  0  0  0
   58.8330   31.2720   47.2290 O   0  0  0  0  0  0  0  0  0  0  0  0
   60.0710   30.8790   47.7800 C   0  0  0  0  0  0  0  0  0  0  0  0
   60.4176   28.9558   46.1055 H   0  0  0  0  0  0  0  0  0  0  0  0
   61.2360   28.2837   44.6546 H   0  0  0  0  0  0  0  0  0  0  0  0
   60.6627   29.9860   44.6546 H   0  0  0  0  0  0  0  0  0  0  0  0
   59.2651   27.8404   43.6006 H   0  0  0  0  0  0  0  0  0  0  0  0
   58.5500   27.9851   45.2496 H   0  0  0  0  0  0  0  0  0  0  0  0
   58.5140   30.0720   43.0770 H   0  0  0  0  0  0  0  0  0  0  0  0
   56.3802   31.5911   43.4491 H   0  0  0  0  0  0  0  0  0  0  0  0
   55.8831   31.8176   45.1629 H   0  0  0  0  0  0  0  0  0  0  0  0
   60.3025   35.8680   45.7062 H   0  0  0  0  0  0  0  0  0  0  0  0
   58.7680   35.9426   46.6455 H   0  0  0  0  0  0  0  0  0  0  0  0
   63.0251   32.8282   50.2235 H   0  0  0  0  0  0  0  0  0  0  0  0
   64.7278   32.2815   48.4360 H   0  0  0  0  0  0  0  0  0  0  0  0
   64.2860   32.8978   46.0451 H   0  0  0  0  0  0  0  0  0  0  0  0
   62.1414   34.0768   45.4146 H   0  0  0  0  0  0  0  0  0  0  0  0
   57.2709   34.1890   47.5778 H   0  0  0  0  0  0  0  0  0  0  0  0
   56.4022   32.7245   46.9867 H   0  0  0  0  0  0  0  0  0  0  0  0
   59.0684   32.9274   48.4308 H   0  0  0  0  0  0  0  0  0  0  0  0
   57.6451   31.8836   48.7919 H   0  0  0  0  0  0  0  0  0  0  0  0
   60.0067   30.8994   48.8779 H   0  0  0  0  0  0  0  0  0  0  0  0
   60.3140   29.8595   47.4458 H   0  0  0  0  0  0  0  0  0  0  0  0
   60.8575   31.5716   47.4458 H   0  0  0  0  0  0  0  0  0  0  0  0
  1  2  1  0
  2  3  1  0
  3  4  1  0
  4  5  2  0
  4  6  1  0
  6  7  1  0
  7  8  2  0
  8  9  1  0
  9 10  2  0
 10 11  1  0
 11 12  1  0
 12 13  1  0
 13 14  2  0
 14 15  1  0
 15 16  2  0
 16 17  1  0
 17 18  2  0
 18 19  1  0
 19 20  2  0
 10 21  1  0
 21 22  1  0
 22 23  1  0
 23 24  1  0
 24 25  1  0
 21  7  1  0
 20 12  1  0
 20 15  1  0
  1 26  1  0
  1 27  1  0
  1 28  1  0
  2 29  1  0
  2 30  1  0
  3 31  1  0
  6 32  1  0
  6 33  1  0
 11 34  1  0
 11 35  1  0
 16 36  1  0
 17 37  1  0
 18 38  1  0
 19 39  1  0
 22 40  1  0
 22 41  1  0
 23 42  1  0
 23 43  1  0
 25 44  1  0
 25 45  1  0
 25 46  1  0
M  END
>  <UniqueID>  (14) 
14

>  <SMILES>  (14) 
CCNC(=O)Cc1nnc(Cn2nnc3ccccc32)n1CCOC

>  <Energy>  (14) 
115.5378413072983

>  <Genealogy>  (14) 
CCNC(=O)Cc1nnc(Cn2nnc3ccccc32)n1CCOC (3D coordinates assigned)
CCNC(=O)Cc1nnc(Cn2nnc3ccccc32)n1CCOC (optimized conformer: 115.5378413072983 kcal/mol)

>  <smiles>  (14) 
CCNC(=O)Cc1nnc(Cn2nnc3ccccc32)n1CCOC

>  <score_type>  (14) 
oracle

>  <origin>  (14) 
adg

>  <m_score__min__energy>  (14) 
-7.8799999999999999

>  <m_primary>  (14) 
energy

$$$$
14:0
     RDKit          3D

 48 50  0  0  0  0  0  0  0  0999 V2000
   59.6270   28.2830   44.5280 C   0  0  0  0  0  0  0  0  0  0  0  0
   58.7120   27.1310   44.9310 C   0  0  0  0  0  0  0  0  0  0  0  0
   58.1950   27.3280   46.3060 N   0  0  0  0  0  0  0  0  0  0  0  0
   57.4310   26.1470   46.7800 C   0  0  0  0  0  0  0  0  0  0  0  0
   56.1380   25.8770   45.9960 C   0  0  0  0  0  0  0  0  0  0  0  0
   59.2790   27.7540   47.2250 C   0  0  0  0  0  0  0  0  0  0  0  0
   59.1920   29.2370   47.6290 C   0  0  0  0  0  0  0  0  0  0  0  0
   58.1460   29.9770   46.9110 N   0  0  0  0  0  0  0  0  0  0  0  0
   58.3000   31.3410   46.4930 C   0  0  0  0  0  0  0  0  0  0  0  0
   58.8560   32.3240   47.3470 C   0  0  0  0  0  0  0  0  0  0  0  0
   59.0890   32.0500   48.7090 C   0  0  0  0  0  0  0  0  0  0  0  0
   59.6410   33.0160   49.5470 C   0  0  0  0  0  0  0  0  0  0  0  0
   59.9520   34.2780   49.0500 C   0  0  0  0  0  0  0  0  0  0  0  0
   59.7080   34.5890   47.7130 C   0  0  0  0  0  0  0  0  0  0  0  0
   59.1580   33.6290   46.8290 C   0  0  0  0  0  0  0  0  0  0  0  0
   58.9030   33.9300   45.4990 N   0  0  0  0  0  0  0  0  0  0  0  0
   59.2830   35.2330   44.9220 C   0  0  0  0  0  0  0  0  0  0  0  0
   58.2580   32.9910   44.7390 C   0  0  0  0  0  0  0  0  0  0  0  0
   57.8360   33.0520   43.4180 C   0  0  0  0  0  0  0  0  0  0  0  0
   57.2920   31.8970   43.0950 O   0  0  0  0  0  0  0  0  0  0  0  0
   57.3280   31.0930   44.1370 C   0  0  0  0  0  0  0  0  0  0  0  0
   56.7760   29.7730   44.1110 N   0  0  0  0  0  0  0  0  0  0  0  0
   56.6770   29.1800   43.0180 O   0  0  0  0  0  0  0  0  0  0  0  0
   56.0750   29.2910   45.1900 O   0  0  0  0  0  0  0  0  0  0  0  0
   57.9420   31.7400   45.2030 C   0  0  0  0  0  0  0  0  0  0  0  0
   60.0174   28.7745   45.4314 H   0  0  0  0  0  0  0  0  0  0  0  0
   60.4650   27.8940   43.9310 H   0  0  0  0  0  0  0  0  0  0  0  0
   59.0584   29.0112   43.9310 H   0  0  0  0  0  0  0  0  0  0  0  0
   57.8652   27.0807   44.2307 H   0  0  0  0  0  0  0  0  0  0  0  0
   59.2886   26.1947   44.9011 H   0  0  0  0  0  0  0  0  0  0  0  0
   58.0774   25.2611   46.6947 H   0  0  0  0  0  0  0  0  0  0  0  0
   57.1330   26.3591   47.8174 H   0  0  0  0  0  0  0  0  0  0  0  0
   55.3112   25.7044   46.7007 H   0  0  0  0  0  0  0  0  0  0  0  0
   55.9048   26.7458   45.3629 H   0  0  0  0  0  0  0  0  0  0  0  0
   56.2720   24.9875   45.3629 H   0  0  0  0  0  0  0  0  0  0  0  0
   59.2242   27.1407   48.1365 H   0  0  0  0  0  0  0  0  0  0  0  0
   60.2301   27.6192   46.6891 H   0  0  0  0  0  0  0  0  0  0  0  0
   58.9810   29.2928   48.7071 H   0  0  0  0  0  0  0  0  0  0  0  0
   60.1547   29.7013   47.3690 H   0  0  0  0  0  0  0  0  0  0  0  0
   57.1670   29.6430   47.0500 H   0  0  0  0  0  0  0  0  0  0  0  0
   58.8318   31.0609   49.1158 H   0  0  0  0  0  0  0  0  0  0  0  0
   59.8316   32.7807   50.6045 H   0  0  0  0  0  0  0  0  0  0  0  0
   60.3929   35.0345   49.7158 H   0  0  0  0  0  0  0  0  0  0  0  0
   59.9464   35.5956   47.3390 H   0  0  0  0  0  0  0  0  0  0  0  0
   59.4911   35.9465   45.7330 H   0  0  0  0  0  0  0  0  0  0  0  0
   60.1829   35.1107   44.3013 H   0  0  0  0  0  0  0  0  0  0  0  0
   58.4585   35.6136   44.3013 H   0  0  0  0  0  0  0  0  0  0  0  0
   57.9389   33.9210   42.7515 H   0  0  0  0  0  0  0  0  0  0  0  0
  1  2  1  0
  2  3  1  0
  3  4  1  0
  4  5  1  0
  3  6  1  0
  6  7  1  0
  7  8  1  0
  8  9  1  0
  9 10  2  0
 10 11  1  0
 11 12  2  0
 12 13  1  0
 13 14  2  0
 14 15  1  0
 15 16  2  0
 16 17  1  0
 16 18  1  0
 18 19  2  0
 19 20  1  0
 20 21  1  0
 21 22  1  0
 22 23  2  0
 22 24  1  0
 21 25  2  0
 25  9  1  0
 15 10  1  0
 25 18  1  0
  1 26  1  0
  1 27  1  0
  1 28  1  0
  2 29  1  0
  2 30  1  0
  4 31  1  0
  4 32  1  0
  5 33  1  0
  5 34  1  0
  5 35  1  0
  6 36  1  0
  6 37  1  0
  7 38  1  0
  7 39  1  0
  8 40  1  0
 11 41  1  0
 12 42  1  0
 13 43  1  0
 14 44  1  0
 17 45  1  0
 17 46  1  0
 17 47  1  0
 19 48  1  0
M  CHG  3  16   1  22   1  24  -1
M  END
>  <UniqueID>  (15) 
15

>  <SMILES>  (15) 
CCN(CC)CCNc1c2ccccc2[n+](C)c2coc([N+](=O)[O-])c12

>  <Energy>  (15) 
104.89499074504931

>  <Genealogy>  (15) 
CCN(CC)CCNc1c2ccccc2[n+](C)c2coc([N+](=O)[O-])c12 (3D coordinates assigned)
CCN(CC)CCNc1c2ccccc2[n+](C)c2coc([N+](=O)[O-])c12 (optimized conformer: 104.89499074504931 kcal/mol)

>  <smiles>  (15) 
CCN(CC)CCNc1c2ccccc2[n+](C)c2coc([N+](=O)[O-])c12

>  <score_type>  (15) 
oracle

>  <origin>  (15) 
adg

>  <m_score__min__energy>  (15) 
-5.2800000000000002

>  <m_primary>  (15) 
energy

$$$$
15:0
     RDKit          3D

 40 40  0  0  0  0  0  0  0  0999 V2000
   60.3560   27.5040   47.9730 C   0  0  0  0  0  0  0  0  0  0  0  0
   59.1940   28.5020   47.9390 C   0  0  0  0  0  0  0  0  0  0  0  0
   59.4460   29.6570   47.0370 N   0  0  0  0  0  0  0  0  0  0  0  0
   60.4930   29.3290   46.0180 C   0  0  0  0  0  0  0  0  0  0  0  0
   59.9010   28.6490   44.7790 C   0  0  0  0  0  0  0  0  0  0  0  0
   59.8320   30.8500   47.8480 C   0  0  0  0  0  0  0  0  0  0  0  0
   58.8660   32.0380   47.6750 C   0  0  0  0  0  0  0  0  0  0  0  0
   58.9890   32.8040   46.0690 S   0  0  0  0  0  0  0  0  0  0  0  0
   58.5050   34.5210   46.0920 C   0  0  0  0  0  0  0  0  0  0  0  0
   59.7080   35.4070   46.3770 C   0  0  0  0  0  0  0  0  0  0  0  0
   58.0870   31.9000   44.8710 C   0  0  0  0  0  0  0  0  0  0  0  0
   58.1090   32.2840   43.5260 C   0  0  0  0  0  0  0  0  0  0  0  0
   57.3820   31.5420   42.5930 C   0  0  0  0  0  0  0  0  0  0  0  0
   56.6440   30.4320   43.0110 C   0  0  0  0  0  0  0  0  0  0  0  0
   55.9340   29.7040   42.1150 F   0  0  0  0  0  0  0  0  0  0  0  0
   56.6460   30.0800   44.3640 C   0  0  0  0  0  0  0  0  0  0  0  0
   57.3620   30.8150   45.2570 N   0  0  0  0  0  0  0  0  0  0  0  0
   60.6166   27.2802   49.0180 H   0  0  0  0  0  0  0  0  0  0  0  0
   60.0576   26.5763   47.4627 H   0  0  0  0  0  0  0  0  0  0  0  0
   61.2280   27.9390   47.4627 H   0  0  0  0  0  0  0  0  0  0  0  0
   58.2914   27.9773   47.5927 H   0  0  0  0  0  0  0  0  0  0  0  0
   59.0725   28.9002   48.9572 H   0  0  0  0  0  0  0  0  0  0  0  0
   58.5350   29.8700   46.5630 H   0  0  0  0  0  0  0  0  0  0  0  0
   60.9897   30.2602   45.7079 H   0  0  0  0  0  0  0  0  0  0  0  0
   61.2060   28.6297   46.4791 H   0  0  0  0  0  0  0  0  0  0  0  0
   59.2087   27.8538   45.0927 H   0  0  0  0  0  0  0  0  0  0  0  0
   59.3572   29.3923   44.1774 H   0  0  0  0  0  0  0  0  0  0  0  0
   60.7121   28.2128   44.1774 H   0  0  0  0  0  0  0  0  0  0  0  0
   59.8457   30.5619   48.9095 H   0  0  0  0  0  0  0  0  0  0  0  0
   60.8214   31.1785   47.4970 H   0  0  0  0  0  0  0  0  0  0  0  0
   57.8364   31.6763   47.8135 H   0  0  0  0  0  0  0  0  0  0  0  0
   59.1376   32.7963   48.4242 H   0  0  0  0  0  0  0  0  0  0  0  0
   58.0796   34.7908   45.1141 H   0  0  0  0  0  0  0  0  0  0  0  0
   57.7563   34.6702   46.8839 H   0  0  0  0  0  0  0  0  0  0  0  0
   59.8415   35.5053   47.4644 H   0  0  0  0  0  0  0  0  0  0  0  0
   60.6089   34.9550   45.9363 H   0  0  0  0  0  0  0  0  0  0  0  0
   59.5436   36.4014   45.9363 H   0  0  0  0  0  0  0  0  0  0  0  0
   58.6923   33.1604   43.2071 H   0  0  0  0  0  0  0  0  0  0  0  0
   57.3904   31.8307   41.5316 H   0  0  0  0  0  0  0  0  0  0  0  0
   56.0685   29.2086   44.7064 H   0  0  0  0  0  0  0  0  0  0  0  0
  1  2  1  0
  2  3  1  0
  3  4  1  0
  4  5  1  0
  3  6  1  0
  6  7  1  0
  8  7  1  1
  8  9  1  0
  9 10  1  0
  8 11  1  0
 11 12  2  0
 12 13  1  0
 13 14  2  0
 14 15  1  0
 14 16  1  0
 16 17  2  0
 17 11  1  0
  1 18  1  0
  1 19  1  0
  1 20  1  0
  2 21  1  0
  2 22  1  0
  3 23  1  0
  4 24  1  0
  4 25  1  0
  5 26  1  0
  5 27  1  0
  5 28  1  0
  6 29  1  0
  6 30  1  0
  7 31  1  0
  7 32  1  0
  9 33  1  0
  9 34  1  0
 10 35  1  0
 10 36  1  0
 10 37  1  0
 12 38  1  0
 13 39  1  0
 16 40  1  0
M  CHG  2   3   1   8   1
M  END
>  <UniqueID>  (16) 
16

>  <SMILES>  (16) 
CC[NH+](CC)CC[S@+](CC)c1ccc(F)cn1

>  <Energy>  (16) 
30.88496001684922

>  <Genealogy>  (16) 
CC[NH+](CC)CC[S+](CC)c1ccc(F)cn1 (protonated)
CC[NH+](CC)CC[S@+](CC)c1ccc(F)cn1 (chirality)
CC[NH+](CC)CC[S@+](CC)c1ccc(F)cn1 (3D coordinates assigned)
CC[NH+](CC)CC[S@+](CC)c1ccc(F)cn1 (optimized conformer: 30.88496001684922 kcal/mol)

>  <smiles>  (16) 
CCN(CC)CC[S+](CC)c1ccc(F)cn1

>  <score_type>  (16) 
oracle

>  <origin>  (16) 
adg

>  <m_score__min__energy>  (16) 
-2.6200000000000001

>  <m_primary>  (16) 
energy

$$$$
16:0
     RDKit          3D

 58 61  0  0  0  0  0  0  0  0999 V2000
   58.1420   27.4180   43.3570 C   0  0  0  0  0  0  0  0  0  0  0  0
   57.8000   27.7560   44.8030 C   0  0  0  0  0  0  0  0  0  0  0  0
   56.9430   28.8970   44.8680 O   0  0  0  0  0  0  0  0  0  0  0  0
   57.3610   30.2360   44.8190 C   0  0  0  0  0  0  0  0  0  0  0  0
   57.3080   31.0110   43.6420 C   0  0  0  0  0  0  0  0  0  0  0  0
   57.7300   32.3440   43.6560 C   0  0  0  0  0  0  0  0  0  0  0  0
   58.1980   32.9210   44.8420 C   0  0  0  0  0  0  0  0  0  0  0  0
   58.7160   34.6380   44.8640 S   0  0  0  0  0  0  0  0  0  0  0  0
   59.7410   34.4000   46.3160 C   0  0  0  0  0  0  0  0  0  0  0  0
   59.2570   34.7510   47.5770 C   0  0  0  0  0  0  0  0  0  0  0  0
   60.0440   34.5530   48.7130 C   0  0  0  0  0  0  0  0  0  0  0  0
   61.3370   33.9980   48.6050 C   0  0  0  0  0  0  0  0  0  0  0  0
   61.8220   33.6440   47.3210 C   0  0  0  0  0  0  0  0  0  0  0  0
   61.0240   33.8600   46.1870 C   0  0  0  0  0  0  0  0  0  0  0  0
   63.2170   33.1000   47.1360 C   0  0  0  0  0  0  0  0  0  0  0  0
   63.7880   32.5110   48.4290 C   0  0  0  0  0  0  0  0  0  0  0  0
   63.5950   33.4920   49.5810 C   0  0  0  0  0  0  0  0  0  0  0  0
   62.1630   33.7560   49.7750 N   0  0  0  0  0  0  0  0  0  0  0  0
   61.5990   33.6660   51.1340 C   0  0  0  0  0  0  0  0  0  0  0  0
   60.9110   32.3070   51.3430 C   0  0  0  0  0  0  0  0  0  0  0  0
   59.4910   32.3470   50.9290 N   0  0  0  0  0  0  0  0  0  0  0  0
   59.1870   31.2880   49.9350 C   0  0  0  0  0  0  0  0  0  0  0  0
   58.5140   30.0670   50.5890 C   0  0  0  0  0  0  0  0  0  0  0  0
   57.2890   30.3710   51.2450 O   0  0  0  0  0  0  0  0  0  0  0  0
   57.2110   31.7090   51.7180 C   0  0  0  0  0  0  0  0  0  0  0  0
   58.5770   32.3020   52.0980 C   0  0  0  0  0  0  0  0  0  0  0  0
   58.2520   32.1580   46.0130 C   0  0  0  0  0  0  0  0  0  0  0  0
   57.8350   30.8230   45.9990 C   0  0  0  0  0  0  0  0  0  0  0  0
   58.9242   26.6449   43.3363 H   0  0  0  0  0  0  0  0  0  0  0  0
   57.2430   27.0437   42.8454 H   0  0  0  0  0  0  0  0  0  0  0  0
   58.5057   28.3214   42.8454 H   0  0  0  0  0  0  0  0  0  0  0  0
   57.2915   26.8963   45.2638 H   0  0  0  0  0  0  0  0  0  0  0  0
   58.7316   27.9835   45.3418 H   0  0  0  0  0  0  0  0  0  0  0  0
   56.9331   30.5650   42.7090 H   0  0  0  0  0  0  0  0  0  0  0  0
   57.6940   32.9406   42.7325 H   0  0  0  0  0  0  0  0  0  0  0  0
   58.2513   35.1854   47.6763 H   0  0  0  0  0  0  0  0  0  0  0  0
   59.6523   34.8324   49.7022 H   0  0  0  0  0  0  0  0  0  0  0  0
   61.4107   33.6027   45.1899 H   0  0  0  0  0  0  0  0  0  0  0  0
   63.1902   32.3112   46.3697 H   0  0  0  0  0  0  0  0  0  0  0  0
   63.8657   33.9345   46.8315 H   0  0  0  0  0  0  0  0  0  0  0  0
   63.2677   31.5701   48.6612 H   0  0  0  0  0  0  0  0  0  0  0  0
   64.8630   32.3205   48.2942 H   0  0  0  0  0  0  0  0  0  0  0  0
   64.0150   33.0611   50.5019 H   0  0  0  0  0  0  0  0  0  0  0  0
   64.1095   34.4352   49.3450 H   0  0  0  0  0  0  0  0  0  0  0  0
   62.4086   33.7788   51.8701 H   0  0  0  0  0  0  0  0  0  0  0  0
   60.8544   34.4652   51.2636 H   0  0  0  0  0  0  0  0  0  0  0  0
   61.4355   31.5457   50.7469 H   0  0  0  0  0  0  0  0  0  0  0  0
   60.9506   32.0621   52.4147 H   0  0  0  0  0  0  0  0  0  0  0  0
   58.5117   31.7001   49.1707 H   0  0  0  0  0  0  0  0  0  0  0  0
   60.1354   30.9568   49.4869 H   0  0  0  0  0  0  0  0  0  0  0  0
   58.3126   29.3210   49.8061 H   0  0  0  0  0  0  0  0  0  0  0  0
   59.2057   29.6929   51.3582 H   0  0  0  0  0  0  0  0  0  0  0  0
   56.7675   32.3329   50.9280 H   0  0  0  0  0  0  0  0  0  0  0  0
   56.5972   31.6958   52.6307 H   0  0  0  0  0  0  0  0  0  0  0  0
   58.4306   33.3240   52.4776 H   0  0  0  0  0  0  0  0  0  0  0  0
   59.0308   31.6612   52.8684 H   0  0  0  0  0  0  0  0  0  0  0  0
   58.6227   32.6082   46.9457 H   0  0  0  0  0  0  0  0  0  0  0  0
   57.8797   30.2285   46.9234 H   0  0  0  0  0  0  0  0  0  0  0  0
  1  2  1  0
  2  3  1  0
  3  4  1  0
  4  5  2  0
  5  6  1  0
  6  7  2  0
  7  8  1  0
  8  9  1  0
  9 10  2  0
 10 11  1  0
 11 12  2  0
 12 13  1  0
 13 14  2  0
 13 15  1  0
 15 16  1  0
 16 17  1  0
 17 18  1  0
 18 19  1  0
 19 20  1  0
 20 21  1  0
 21 22  1  0
 22 23  1  0
 23 24  1  0
 24 25  1  0
 25 26  1  0
  7 27  1  0
 27 28  2  0
 28  4  1  0
 14  9  1  0
 26 21  1  0
 18 12  1  0
  1 29  1  0
  1 30  1  0
  1 31  1  0
  2 32  1  0
  2 33  1  0
  5 34  1  0
  6 35  1  0
 10 36  1  0
 11 37  1  0
 14 38  1  0
 15 39  1  0
 15 40  1  0
 16 41  1  0
 16 42  1  0
 17 43  1  0
 17 44  1  0
 19 45  1  0
 19 46  1  0
 20 47  1  0
 20 48  1  0
 22 49  1  0
 22 50  1  0
 23 51  1  0
 23 52  1  0
 25 53  1  0
 25 54  1  0
 26 55  1  0
 26 56  1  0
 27 57  1  0
 28 58  1  0
M  END
>  <UniqueID>  (17) 
17

>  <SMILES>  (17) 
CCOc1ccc(Sc2ccc3c(c2)CCCN3CCN2CCOCC2)cc1

>  <Energy>  (17) 
66.89469485050934

>  <Genealogy>  (17) 
CCOc1ccc(Sc2ccc3c(c2)CCCN3CCN2CCOCC2)cc1 (3D coordinates assigned)
CCOc1ccc(Sc2ccc3c(c2)CCCN3CCN2CCOCC2)cc1 (nonaromatic ring conformer: 66.89469485050934 kcal/mol)

>  <smiles>  (17) 
CCOc1ccc(Sc2ccc3c(c2)CCCN3CCN2CCOCC2)cc1

>  <score_type>  (17) 
oracle

>  <origin>  (17) 
adg

>  <m_score__min__energy>  (17) 
-8.8499999999999996

>  <m_primary>  (17) 
energy

$$$$
17:0
     RDKit          3D

 52 56  0  0  0  0  0  0  0  0999 V2000
   57.9380   23.2940   44.5090 C   0  0  0  0  0  0  0  0  0  0  0  0
   56.8040   24.2300   44.1030 C   0  0  0  0  0  0  0  0  0  0  0  0
   57.1300   25.6180   44.4710 N   0  0  0  0  0  0  0  0  0  0  0  0
   57.9680   26.3360   43.6620 C   0  0  0  0  0  0  0  0  0  0  0  0
   58.3330   27.6420   43.9910 C   0  0  0  0  0  0  0  0  0  0  0  0
   57.8520   28.2130   45.1710 C   0  0  0  0  0  0  0  0  0  0  0  0
   58.2400   29.5780   45.5440 C   0  0  0  0  0  0  0  0  0  0  0  0
   57.6690   30.6210   44.8820 N   0  0  0  0  0  0  0  0  0  0  0  0
   57.9870   31.9070   45.1780 C   0  0  0  0  0  0  0  0  0  0  0  0
   57.3980   32.9670   44.4860 C   0  0  0  0  0  0  0  0  0  0  0  0
   57.7360   34.2460   44.7950 N   0  0  0  0  0  0  0  0  0  0  0  0
   58.6390   34.5380   45.7700 C   0  0  0  0  0  0  0  0  0  0  0  0
   59.2530   33.5080   46.5030 C   0  0  0  0  0  0  0  0  0  0  0  0
   60.2800   33.8420   47.5600 C   0  0  0  0  0  0  0  0  0  0  0  0
   61.7060   33.8310   46.9940 C   0  0  0  0  0  0  0  0  0  0  0  0
   62.6670   33.1650   47.9340 C   0  0  0  0  0  0  0  0  0  0  0  0
   62.3760   31.9810   48.6050 C   0  0  0  0  0  0  0  0  0  0  0  0
   63.6790   31.6330   49.6060 S   0  0  0  0  0  0  0  0  0  0  0  0
   64.5520   32.9950   49.1520 C   0  0  0  0  0  0  0  0  0  0  0  0
   63.8680   33.7250   48.2450 N   0  0  0  0  0  0  0  0  0  0  0  0
   58.9240   32.1760   46.1910 C   0  0  0  0  0  0  0  0  0  0  0  0
   59.4930   31.1340   46.8530 N   0  0  0  0  0  0  0  0  0  0  0  0
   59.1820   29.8420   46.5620 C   0  0  0  0  0  0  0  0  0  0  0  0
   59.8120   28.7980   47.3110 N   0  0  0  0  0  0  0  0  0  0  0  0
   60.3910   27.4530   47.1120 C   0  0  0  0  0  0  0  0  0  0  0  0
   60.7430   27.2180   48.5420 C   0  0  0  0  0  0  0  0  0  0  0  0
   60.1580   28.5770   48.7260 C   0  0  0  0  0  0  0  0  0  0  0  0
   56.9940   27.4770   45.9910 C   0  0  0  0  0  0  0  0  0  0  0  0
   56.6470   26.1700   45.6320 C   0  0  0  0  0  0  0  0  0  0  0  0
   55.8910   25.5090   46.3960 O   0  0  0  0  0  0  0  0  0  0  0  0
   57.9977   23.2447   45.6063 H   0  0  0  0  0  0  0  0  0  0  0  0
   57.7453   22.2885   44.1067 H   0  0  0  0  0  0  0  0  0  0  0  0
   58.8888   23.6738   44.1067 H   0  0  0  0  0  0  0  0  0  0  0  0
   56.6549   24.1686   43.0149 H   0  0  0  0  0  0  0  0  0  0  0  0
   55.8854   23.9274   44.6271 H   0  0  0  0  0  0  0  0  0  0  0  0
   58.3586   25.8782   42.7412 H   0  0  0  0  0  0  0  0  0  0  0  0
   58.9943   28.2171   43.3262 H   0  0  0  0  0  0  0  0  0  0  0  0
   56.6624   32.7671   43.6929 H   0  0  0  0  0  0  0  0  0  0  0  0
   58.8901   35.5870   45.9859 H   0  0  0  0  0  0  0  0  0  0  0  0
   60.0644   34.8430   47.9620 H   0  0  0  0  0  0  0  0  0  0  0  0
   60.2197   33.0773   48.3484 H   0  0  0  0  0  0  0  0  0  0  0  0
   61.7066   33.2870   46.0379 H   0  0  0  0  0  0  0  0  0  0  0  0
   62.0286   34.8731   46.8527 H   0  0  0  0  0  0  0  0  0  0  0  0
   61.4594   31.3821   48.4991 H   0  0  0  0  0  0  0  0  0  0  0  0
   65.5469   33.2568   49.5413 H   0  0  0  0  0  0  0  0  0  0  0  0
   59.6575   26.7273   46.7307 H   0  0  0  0  0  0  0  0  0  0  0  0
   61.2025   27.3614   46.3751 H   0  0  0  0  0  0  0  0  0  0  0  0
   60.2018   26.3973   49.0355 H   0  0  0  0  0  0  0  0  0  0  0  0
   61.7462   26.9288   48.8884 H   0  0  0  0  0  0  0  0  0  0  0  0
   59.2752   28.5728   49.3823 H   0  0  0  0  0  0  0  0  0  0  0  0
   60.7954   29.3333   49.2075 H   0  0  0  0  0  0  0  0  0  0  0  0
   56.5934   27.9222   46.9137 H   0  0  0  0  0  0  0  0  0  0  0  0
  1  2  1  0
  2  3  1  0
  3  4  1  0
  4  5  2  0
  5  6  1  0
  6  7  1  0
  7  8  2  0
  8  9  1  0
  9 10  2  0
 10 11  1  0
 11 12  2  0
 12 13  1  0
 13 14  1  0
 14 15  1  0
 15 16  1  0
 16 17  2  0
 17 18  1  0
 18 19  1  0
 19 20  2  0
 13 21  2  0
 21 22  1  0
 22 23  2  0
 23 24  1  0
 24 25  1  0
 25 26  1  0
 26 27  1  0
  6 28  2  0
 28 29  1  0
 29 30  2  0
 29  3  1  0
 23  7  1  0
 27 24  1  0
 21  9  1  0
 20 16  1  0
  1 31  1  0
  1 32  1  0
  1 33  1  0
  2 34  1  0
  2 35  1  0
  4 36  1  0
  5 37  1  0
 10 38  1  0
 12 39  1  0
 14 40  1  0
 14 41  1  0
 15 42  1  0
 15 43  1  0
 17 44  1  0
 19 45  1  0
 25 46  1  0
 25 47  1  0
 26 48  1  0
 26 49  1  0
 27 50  1  0
 27 51  1  0
 28 52  1  0
M  END
>  <UniqueID>  (18) 
18

>  <SMILES>  (18) 
CCn1ccc(-c2nc3cncc(CCc4cscn4)c3nc2N2CCC2)cc1=O

>  <Energy>  (18) 
137.30501200365057

>  <Genealogy>  (18) 
CCn1ccc(-c2nc3cncc(CCc4cscn4)c3nc2N2CCC2)cc1=O (3D coordinates assigned)
CCn1ccc(-c2nc3cncc(CCc4cscn4)c3nc2N2CCC2)cc1=O (nonaromatic ring conformer: 137.30501200365057 kcal/mol)

>  <smiles>  (18) 
CCn1ccc(-c2nc3cncc(CCc4cscn4)c3nc2N2CCC2)cc1=O

>  <score_type>  (18) 
oracle

>  <origin>  (18) 
adg

>  <m_score__min__energy>  (18) 
-8.4399999999999995

>  <m_primary>  (18) 
energy

$$$$
18:0
     RDKit          3D

 69 71  0  0  0  0  0  0  0  0999 V2000
   58.9340   34.5720   45.9070 C   0  0  0  0  0  0  0  0  0  0  0  0
   60.2830   33.8580   45.8800 C   0  0  0  0  0  0  0  0  0  0  0  0
   60.6580   33.4110   47.2420 N   0  0  0  0  0  0  0  0  0  0  0  0
   59.5670   33.6420   48.2270 C   0  0  0  0  0  0  0  0  0  0  0  0
   60.0350   33.7910   49.6850 C   0  0  0  0  0  0  0  0  0  0  0  0
   61.9790   33.9460   47.6460 C   0  0  0  0  0  0  0  0  0  0  0  0
   63.1240   33.4190   46.7550 C   0  0  0  0  0  0  0  0  0  0  0  0
   63.4840   32.0240   47.0750 N   0  0  0  0  0  0  0  0  0  0  0  0
   63.0610   31.6470   48.4210 C   0  0  0  0  0  0  0  0  0  0  0  0
   63.8310   32.0510   49.5510 C   0  0  0  0  0  0  0  0  0  0  0  0
   64.9750   32.8810   49.4210 C   0  0  0  0  0  0  0  0  0  0  0  0
   65.6730   33.3290   50.5390 C   0  0  0  0  0  0  0  0  0  0  0  0
   65.2520   32.9720   51.8110 C   0  0  0  0  0  0  0  0  0  0  0  0
   64.1560   32.1310   51.9710 C   0  0  0  0  0  0  0  0  0  0  0  0
   63.4540   31.6140   50.8510 C   0  0  0  0  0  0  0  0  0  0  0  0
   62.4290   30.7070   51.0120 N   0  0  0  0  0  0  0  0  0  0  0  0
   62.2750   29.9900   52.2990 C   0  0  0  0  0  0  0  0  0  0  0  0
   61.5730   30.4340   49.9640 C   0  0  0  0  0  0  0  0  0  0  0  0
   60.3660   29.7190   50.1770 C   0  0  0  0  0  0  0  0  0  0  0  0
   59.5360   29.3670   49.1200 C   0  0  0  0  0  0  0  0  0  0  0  0
   59.8540   29.7420   47.8210 C   0  0  0  0  0  0  0  0  0  0  0  0
   58.9940   29.3390   46.7390 N   0  0  0  0  0  0  0  0  0  0  0  0
   59.4270   28.4670   45.6450 C   0  0  0  0  0  0  0  0  0  0  0  0
   58.5140   28.6260   44.4230 C   0  0  0  0  0  0  0  0  0  0  0  0
   58.2400   30.0990   44.0930 C   0  0  0  0  0  0  0  0  0  0  0  0
   57.0590   30.5870   44.8400 N   0  0  0  0  0  0  0  0  0  0  0  0
   55.8090   30.0990   44.2290 C   0  0  0  0  0  0  0  0  0  0  0  0
   57.0460   32.0590   44.8720 C   0  0  0  0  0  0  0  0  0  0  0  0
   61.0200   30.4800   47.5870 C   0  0  0  0  0  0  0  0  0  0  0  0
   61.8870   30.8640   48.6440 C   0  0  0  0  0  0  0  0  0  0  0  0
   58.6262   34.7349   46.9504 H   0  0  0  0  0  0  0  0  0  0  0  0
   59.0220   35.5416   45.3950 H   0  0  0  0  0  0  0  0  0  0  0  0
   58.1817   33.9540   45.3950 H   0  0  0  0  0  0  0  0  0  0  0  0
   60.2168   32.9830   45.2167 H   0  0  0  0  0  0  0  0  0  0  0  0
   61.0487   34.5557   45.5099 H   0  0  0  0  0  0  0  0  0  0  0  0
   59.0377   34.5631   47.9417 H   0  0  0  0  0  0  0  0  0  0  0  0
   58.9280   32.7472   48.1968 H   0  0  0  0  0  0  0  0  0  0  0  0
   59.2100   33.5283   50.3636 H   0  0  0  0  0  0  0  0  0  0  0  0
   60.8873   33.1198   49.8669 H   0  0  0  0  0  0  0  0  0  0  0  0
   60.3423   34.8314   49.8669 H   0  0  0  0  0  0  0  0  0  0  0  0
   61.9525   35.0434   47.5751 H   0  0  0  0  0  0  0  0  0  0  0  0
   62.1750   33.6136   48.6761 H   0  0  0  0  0  0  0  0  0  0  0  0
   62.8063   33.4703   45.7031 H   0  0  0  0  0  0  0  0  0  0  0  0
   64.0092   34.0460   46.9375 H   0  0  0  0  0  0  0  0  0  0  0  0
   63.0500   31.3860   46.3730 H   0  0  0  0  0  0  0  0  0  0  0  0
   64.4960   31.8680   46.8900 H   0  0  0  0  0  0  0  0  0  0  0  0
   65.3165   33.1758   48.4178 H   0  0  0  0  0  0  0  0  0  0  0  0
   66.5600   33.9673   50.4131 H   0  0  0  0  0  0  0  0  0  0  0  0
   65.7852   33.3542   52.6940 H   0  0  0  0  0  0  0  0  0  0  0  0
   63.8268   31.8612   52.9853 H   0  0  0  0  0  0  0  0  0  0  0  0
   62.4261   30.6935   53.1310 H   0  0  0  0  0  0  0  0  0  0  0  0
   61.2642   29.5606   52.3609 H   0  0  0  0  0  0  0  0  0  0  0  0
   63.0204   29.1834   52.3609 H   0  0  0  0  0  0  0  0  0  0  0  0
   60.0813   29.4373   51.2015 H   0  0  0  0  0  0  0  0  0  0  0  0
   58.6211   28.7876   49.3131 H   0  0  0  0  0  0  0  0  0  0  0  0
   58.0740   29.8240   46.6300 H   0  0  0  0  0  0  0  0  0  0  0  0
   60.4569   28.7296   45.3615 H   0  0  0  0  0  0  0  0  0  0  0  0
   59.3766   27.4229   45.9874 H   0  0  0  0  0  0  0  0  0  0  0  0
   58.9971   28.1524   43.5556 H   0  0  0  0  0  0  0  0  0  0  0  0
   57.5515   28.1470   44.6556 H   0  0  0  0  0  0  0  0  0  0  0  0
   59.1178   30.7013   44.3701 H   0  0  0  0  0  0  0  0  0  0  0  0
   58.0418   30.1910   43.0149 H   0  0  0  0  0  0  0  0  0  0  0  0
   55.0978   29.8214   45.0209 H   0  0  0  0  0  0  0  0  0  0  0  0
   55.3717   30.8924   43.6051 H   0  0  0  0  0  0  0  0  0  0  0  0
   56.0249   29.2191   43.6051 H   0  0  0  0  0  0  0  0  0  0  0  0
   57.0430   32.4030   45.9168 H   0  0  0  0  0  0  0  0  0  0  0  0
   57.9408   32.4448   44.3615 H   0  0  0  0  0  0  0  0  0  0  0  0
   56.1446   32.4289   44.3615 H   0  0  0  0  0  0  0  0  0  0  0  0
   61.2716   30.7704   46.5563 H   0  0  0  0  0  0  0  0  0  0  0  0
  1  2  1  0
  2  3  1  0
  3  4  1  0
  4  5  1  0
  3  6  1  0
  6  7  1  0
  7  8  1  0
  8  9  1  0
  9 10  2  0
 10 11  1  0
 11 12  2  0
 12 13  1  0
 13 14  2  0
 14 15  1  0
 15 16  2  0
 16 17  1  0
 16 18  1  0
 18 19  2  0
 19 20  1  0
 20 21  2  0
 21 22  1  0
 22 23  1  0
 23 24  1  0
 24 25  1  0
 25 26  1  0
 26 27  1  0
 26 28  1  0
 21 29  1  0
 29 30  2  0
 30  9  1  0
 15 10  1  0
 30 18  1  0
  1 31  1  0
  1 32  1  0
  1 33  1  0
  2 34  1  0
  2 35  1  0
  4 36  1  0
  4 37  1  0
  5 38  1  0
  5 39  1  0
  5 40  1  0
  6 41  1  0
  6 42  1  0
  7 43  1  0
  7 44  1  0
  8 45  1  0
  8 46  1  0
 11 47  1  0
 12 48  1  0
 13 49  1  0
 14 50  1  0
 17 51  1  0
 17 52  1  0
 17 53  1  0
 19 54  1  0
 20 55  1  0
 22 56  1  0
 23 57  1  0
 23 58  1  0
 24 59  1  0
 24 60  1  0
 25 61  1  0
 25 62  1  0
 27 63  1  0
 27 64  1  0
 27 65  1  0
 28 66  1  0
 28 67  1  0
 28 68  1  0
 29 69  1  0
M  CHG  2   8   1  16   1
M  END
>  <UniqueID>  (19) 
19

>  <SMILES>  (19) 
CCN(CC)CC[NH2+]c1c2ccccc2[n+](C)c2ccc(NCCCN(C)C)cc12

>  <Energy>  (19) 
96.67936489554681

>  <Genealogy>  (19) 
CCN(CC)CC[NH2+]c1c2ccccc2[n+](C)c2ccc(NCCCN(C)C)cc12 (protonated)
CCN(CC)CC[NH2+]c1c2ccccc2[n+](C)c2ccc(NCCCN(C)C)cc12 (3D coordinates assigned)
CCN(CC)CC[NH2+]c1c2ccccc2[n+](C)c2ccc(NCCCN(C)C)cc12 (optimized conformer: 96.67936489554681 kcal/mol)

>  <smiles>  (19) 
CCN(CC)CCNc1c2ccccc2[n+](C)c2ccc(NCCCN(C)C)cc12

>  <score_type>  (19) 
oracle

>  <origin>  (19) 
adg

>  <m_score__min__energy>  (19) 
-4.8799999999999999

>  <m_primary>  (19) 
energy

$$$$
19:0
     RDKit          3D

 36 38  0  0  0  0  0  0  0  0999 V2000
   57.0230   31.0790   42.6210 C   0  0  0  0  0  0  0  0  0  0  0  0
   56.2670   29.8210   43.0450 C   0  0  0  0  0  0  0  0  0  0  0  0
   57.1690   28.6590   43.0970 N   0  0  0  0  0  0  0  0  0  0  0  0
   57.3960   28.2000   44.4790 C   0  0  0  0  0  0  0  0  0  0  0  0
   58.4770   28.9960   45.1690 C   0  0  0  0  0  0  0  0  0  0  0  0
   59.7370   28.4000   45.4350 C   0  0  0  0  0  0  0  0  0  0  0  0
   60.7650   29.1340   46.0540 C   0  0  0  0  0  0  0  0  0  0  0  0
   60.5100   30.4590   46.3930 C   0  0  0  0  0  0  0  0  0  0  0  0
   61.3590   31.3290   46.9850 N   0  0  0  0  0  0  0  0  0  0  0  0
   60.6530   32.4770   47.0950 C   0  0  0  0  0  0  0  0  0  0  0  0
   61.0660   33.6970   47.6370 C   0  0  0  0  0  0  0  0  0  0  0  0
   62.4390   33.8810   48.2000 C   0  0  0  0  0  0  0  0  0  0  0  0
   60.1730   34.7320   47.6400 N   0  0  0  0  0  0  0  0  0  0  0  0
   58.9050   34.6100   47.1350 C   0  0  0  0  0  0  0  0  0  0  0  0
   58.4710   33.3920   46.5850 C   0  0  0  0  0  0  0  0  0  0  0  0
   59.3810   32.3400   46.5830 C   0  0  0  0  0  0  0  0  0  0  0  0
   59.2870   31.0440   46.1320 C   0  0  0  0  0  0  0  0  0  0  0  0
   58.2480   30.3460   45.5210 C   0  0  0  0  0  0  0  0  0  0  0  0
   57.3527   31.6276   43.5156 H   0  0  0  0  0  0  0  0  0  0  0  0
   57.9001   30.7949   42.0211 H   0  0  0  0  0  0  0  0  0  0  0  0
   56.3605   31.7202   42.0211 H   0  0  0  0  0  0  0  0  0  0  0  0
   55.8295   29.9823   44.0413 H   0  0  0  0  0  0  0  0  0  0  0  0
   55.4769   29.6200   42.3066 H   0  0  0  0  0  0  0  0  0  0  0  0
   58.0860   28.8980   42.6480 H   0  0  0  0  0  0  0  0  0  0  0  0
   56.7370   27.8690   42.5640 H   0  0  0  0  0  0  0  0  0  0  0  0
   56.4598   28.3060   45.0467 H   0  0  0  0  0  0  0  0  0  0  0  0
   57.7205   27.1497   44.4391 H   0  0  0  0  0  0  0  0  0  0  0  0
   59.9120   27.3511   45.1537 H   0  0  0  0  0  0  0  0  0  0  0  0
   61.7418   28.6739   46.2639 H   0  0  0  0  0  0  0  0  0  0  0  0
   62.3420   31.1490   47.2870 H   0  0  0  0  0  0  0  0  0  0  0  0
   62.3887   33.8743   49.2988 H   0  0  0  0  0  0  0  0  0  0  0  0
   63.0885   33.0619   47.8577 H   0  0  0  0  0  0  0  0  0  0  0  0
   62.8499   34.8422   47.8577 H   0  0  0  0  0  0  0  0  0  0  0  0
   58.2219   35.4718   47.1604 H   0  0  0  0  0  0  0  0  0  0  0  0
   57.4571   33.2756   46.1745 H   0  0  0  0  0  0  0  0  0  0  0  0
   57.2808   30.8294   45.3189 H   0  0  0  0  0  0  0  0  0  0  0  0
  1  2  1  0
  2  3  1  0
  3  4  1  0
  4  5  1  0
  5  6  2  0
  6  7  1  0
  7  8  2  0
  8  9  1  0
  9 10  1  0
 10 11  2  0
 11 12  1  0
 11 13  1  0
 13 14  2  0
 14 15  1  0
 15 16  2  0
 16 17  1  0
 17 18  2  0
 18  5  1  0
 17  8  1  0
 16 10  1  0
  1 19  1  0
  1 20  1  0
  1 21  1  0
  2 22  1  0
  2 23  1  0
  3 24  1  0
  3 25  1  0
  4 26  1  0
  4 27  1  0
  6 28  1  0
  7 29  1  0
  9 30  1  0
 12 31  1  0
 12 32  1  0
 12 33  1  0
 14 34  1  0
 15 35  1  0
 18 36  1  0
M  CHG  1   3   1
M  END
>  <UniqueID>  (20) 
20

>  <SMILES>  (20) 
CC[NH2+]Cc1ccc2[nH]c3c(C)nccc3c2c1

>  <Energy>  (20) 
75.1927607488192

>  <Genealogy>  (20) 
CC[NH2+]Cc1ccc2[nH]c3c(C)nccc3c2c1 (protonated)
CC[NH2+]Cc1ccc2[nH]c3c(C)nccc3c2c1 (3D coordinates assigned)
CC[NH2+]Cc1ccc2[nH]c3c(C)nccc3c2c1 (optimized conformer: 75.1927607488192 kcal/mol)

>  <smiles>  (20) 
CCNCc1ccc2[nH]c3c(C)nccc3c2c1

>  <score_type>  (20) 
oracle

>  <origin>  (20) 
adg

>  <m_score__min__energy>  (20) 
-4.9699999999999998

>  <m_primary>  (20) 
energy

$$$$
20:0
     RDKit          3D

 54 57  0  0  0  0  0  0  0  0999 V2000
   58.1200   32.5850   43.7750 C   0  0  0  0  0  0  0  0  0  0  0  0
   58.4690   33.8820   44.5200 C   0  0  0  0  0  0  0  0  0  0  0  0
   58.6200   33.7160   45.9840 N   0  0  0  0  0  0  0  0  0  0  0  0
   57.3340   33.4280   46.6440 C   0  0  0  0  0  0  0  0  0  0  0  0
   59.3250   34.8550   46.6120 C   0  0  0  0  0  0  0  0  0  0  0  0
   60.4150   34.3570   47.5670 C   0  0  0  0  0  0  0  0  0  0  0  0
   60.2540   32.9280   47.8410 N   0  0  0  0  0  0  0  0  0  0  0  0
   60.8140   32.3120   49.0120 C   0  0  0  0  0  0  0  0  0  0  0  0
   62.2100   32.2460   49.1880 C   0  0  0  0  0  0  0  0  0  0  0  0
   62.7310   31.5910   50.3260 C   0  0  0  0  0  0  0  0  0  0  0  0
   61.8960   30.7790   51.0690 N   0  0  0  0  0  0  0  0  0  0  0  0
   62.4170   29.5670   51.7310 C   0  0  0  0  0  0  0  0  0  0  0  0
   60.5310   30.9740   51.0200 C   0  0  0  0  0  0  0  0  0  0  0  0
   59.6630   30.3720   51.9620 C   0  0  0  0  0  0  0  0  0  0  0  0
   58.2840   30.5690   51.8920 C   0  0  0  0  0  0  0  0  0  0  0  0
   57.7400   31.3650   50.8870 C   0  0  0  0  0  0  0  0  0  0  0  0
   58.5730   31.9650   49.9430 C   0  0  0  0  0  0  0  0  0  0  0  0
   59.9690   31.7780   49.9980 C   0  0  0  0  0  0  0  0  0  0  0  0
   64.1850   31.8090   50.6700 C   0  0  0  0  0  0  0  0  0  0  0  0
   64.6940   31.4860   51.9010 N   0  0  0  0  0  0  0  0  0  0  0  0
   66.0150   31.6220   52.1970 C   0  0  0  0  0  0  0  0  0  0  0  0
   66.8880   32.1790   51.2690 C   0  0  0  0  0  0  0  0  0  0  0  0
   66.3820   32.6510   50.0640 C   0  0  0  0  0  0  0  0  0  0  0  0
   65.0220   32.4960   49.7610 C   0  0  0  0  0  0  0  0  0  0  0  0
   64.4420   33.2880   48.6250 C   0  0  0  0  0  0  0  0  0  0  0  0
   63.1500   32.6880   48.0880 C   0  0  0  0  0  0  0  0  0  0  0  0
   57.9060   31.7896   44.5041 H   0  0  0  0  0  0  0  0  0  0  0  0
   57.2347   32.7516   43.1437 H   0  0  0  0  0  0  0  0  0  0  0  0
   58.9693   32.2849   43.1437 H   0  0  0  0  0  0  0  0  0  0  0  0
   59.4167   34.2680   44.1164 H   0  0  0  0  0  0  0  0  0  0  0  0
   57.6281   34.5737   44.3641 H   0  0  0  0  0  0  0  0  0  0  0  0
   57.4673   33.4578   47.7355 H   0  0  0  0  0  0  0  0  0  0  0  0
   56.5912   34.1820   46.3445 H   0  0  0  0  0  0  0  0  0  0  0  0
   56.9838   32.4292   46.3445 H   0  0  0  0  0  0  0  0  0  0  0  0
   59.7870   35.4712   45.8266 H   0  0  0  0  0  0  0  0  0  0  0  0
   58.5975   35.4491   47.1845 H   0  0  0  0  0  0  0  0  0  0  0  0
   61.4006   34.5275   47.1093 H   0  0  0  0  0  0  0  0  0  0  0  0
   60.3319   34.9089   48.5149 H   0  0  0  0  0  0  0  0  0  0  0  0
   59.7520   32.3280   47.1490 H   0  0  0  0  0  0  0  0  0  0  0  0
   62.3627   29.6933   52.8224 H   0  0  0  0  0  0  0  0  0  0  0  0
   61.8131   28.6976   51.4320 H   0  0  0  0  0  0  0  0  0  0  0  0
   63.4634   29.4070   51.4320 H   0  0  0  0  0  0  0  0  0  0  0  0
   60.0814   29.7406   52.7597 H   0  0  0  0  0  0  0  0  0  0  0  0
   57.6240   30.0942   52.6329 H   0  0  0  0  0  0  0  0  0  0  0  0
   56.6522   31.5206   50.8377 H   0  0  0  0  0  0  0  0  0  0  0  0
   58.1371   32.5892   49.1491 H   0  0  0  0  0  0  0  0  0  0  0  0
   64.0750   31.1800   52.6790 H   0  0  0  0  0  0  0  0  0  0  0  0
   66.3941   31.2899   53.1747 H   0  0  0  0  0  0  0  0  0  0  0  0
   67.9644   32.2451   51.4858 H   0  0  0  0  0  0  0  0  0  0  0  0
   67.0506   33.1478   49.3456 H   0  0  0  0  0  0  0  0  0  0  0  0
   64.2355   34.3093   48.9777 H   0  0  0  0  0  0  0  0  0  0  0  0
   65.1766   33.2803   47.8063 H   0  0  0  0  0  0  0  0  0  0  0  0
   62.6404   33.4437   47.4722 H   0  0  0  0  0  0  0  0  0  0  0  0
   63.4165   31.7969   47.5007 H   0  0  0  0  0  0  0  0  0  0  0  0
  1  2  1  0
  2  3  1  0
  3  4  1  0
  3  5  1  0
  5  6  1  0
  6  7  1  0
  7  8  1  0
  8  9  2  0
  9 10  1  0
 10 11  2  0
 11 12  1  0
 11 13  1  0
 13 14  2  0
 14 15  1  0
 15 16  2  0
 16 17  1  0
 17 18  2  0
 10 19  1  0
 19 20  2  0
 20 21  1  0
 21 22  2  0
 22 23  1  0
 23 24  2  0
 24 25  1  0
 25 26  1  0
 18  8  1  0
 24 19  1  0
 26  9  1  0
 18 13  1  0
  1 27  1  0
  1 28  1  0
  1 29  1  0
  2 30  1  0
  2 31  1  0
  4 32  1  0
  4 33  1  0
  4 34  1  0
  5 35  1  0
  5 36  1  0
  6 37  1  0
  6 38  1  0
  7 39  1  0
 12 40  1  0
 12 41  1  0
 12 42  1  0
 14 43  1  0
 15 44  1  0
 16 45  1  0
 17 46  1  0
 20 47  1  0
 21 48  1  0
 22 49  1  0
 23 50  1  0
 25 51  1  0
 25 52  1  0
 26 53  1  0
 26 54  1  0
M  CHG  2  11   1  20   1
M  END
>  <UniqueID>  (21) 
21

>  <SMILES>  (21) 
CCN(C)CCNc1c2c([n+](C)c3ccccc13)-c1[nH+]cccc1CC2

>  <Energy>  (21) 
94.77569105535765

>  <Genealogy>  (21) 
CCN(C)CCNc1c2c([n+](C)c3ccccc13)-c1[nH+]cccc1CC2 (protonated)
CCN(C)CCNc1c2c([n+](C)c3ccccc13)-c1[nH+]cccc1CC2 (3D coordinates assigned)
CCN(C)CCNc1c2c([n+](C)c3ccccc13)-c1[nH+]cccc1CC2 (nonaromatic ring conformer: 94.77569105535765 kcal/mol)

>  <smiles>  (21) 
CCN(C)CCNc1c2c([n+](C)c3ccccc13)-c1ncccc1CC2

>  <score_type>  (21) 
oracle

>  <origin>  (21) 
adg

>  <m_score__min__energy>  (21) 
-4.4900000000000002

>  <m_primary>  (21) 
energy

$$$$
21:0
     RDKit          3D

 48 49  0  0  0  0  0  0  0  0999 V2000
   57.4830   34.4960   44.8690 C   0  0  0  0  0  0  0  0  0  0  0  0
   57.0330   33.0880   45.2390 C   0  0  0  0  0  0  0  0  0  0  0  0
   58.1910   32.2530   45.5890 N   0  0  0  0  0  0  0  0  0  0  0  0
   58.4160   30.9920   44.8680 C   0  0  0  0  0  0  0  0  0  0  0  0
   57.4950   29.8920   45.4070 C   0  0  0  0  0  0  0  0  0  0  0  0
   56.1970   30.0270   44.8580 O   0  0  0  0  0  0  0  0  0  0  0  0
   56.2610   30.0390   43.4480 C   0  0  0  0  0  0  0  0  0  0  0  0
   59.0840   32.6490   46.6530 C   0  0  0  0  0  0  0  0  0  0  0  0
   60.3570   33.0350   46.3770 N   0  0  0  0  0  0  0  0  0  0  0  0
   61.1920   33.4220   47.3740 C   0  0  0  0  0  0  0  0  0  0  0  0
   62.5990   33.8220   47.0430 C   0  0  0  0  0  0  0  0  0  0  0  0
   63.3050   34.1650   48.2210 O   0  0  0  0  0  0  0  0  0  0  0  0
   64.1310   33.0940   48.6240 C   0  0  0  0  0  0  0  0  0  0  0  0
   60.7600   33.4030   48.6660 N   0  0  0  0  0  0  0  0  0  0  0  0
   59.4880   33.0030   48.9560 C   0  0  0  0  0  0  0  0  0  0  0  0
   59.0080   32.9560   50.3170 N   0  0  0  0  0  0  0  0  0  0  0  0
   58.1510   31.8570   50.7790 C   0  0  0  0  0  0  0  0  0  0  0  0
   57.2580   32.3290   51.9310 C   0  0  0  0  0  0  0  0  0  0  0  0
   58.0220   32.9620   52.9380 O   0  0  0  0  0  0  0  0  0  0  0  0
   58.5870   34.1530   52.4250 C   0  0  0  0  0  0  0  0  0  0  0  0
   59.6070   33.8390   51.3270 C   0  0  0  0  0  0  0  0  0  0  0  0
   58.6610   32.6380   47.9430 N   0  0  0  0  0  0  0  0  0  0  0  0
   57.6679   35.0747   45.7860 H   0  0  0  0  0  0  0  0  0  0  0  0
   58.4085   34.4414   44.2769 H   0  0  0  0  0  0  0  0  0  0  0  0
   56.6974   34.9883   44.2769 H   0  0  0  0  0  0  0  0  0  0  0  0
   56.3510   33.1405   46.1004 H   0  0  0  0  0  0  0  0  0  0  0  0
   56.5193   32.6401   44.3755 H   0  0  0  0  0  0  0  0  0  0  0  0
   58.2093   31.1450   43.7985 H   0  0  0  0  0  0  0  0  0  0  0  0
   59.4615   30.6821   45.0124 H   0  0  0  0  0  0  0  0  0  0  0  0
   57.9048   28.9087   45.1329 H   0  0  0  0  0  0  0  0  0  0  0  0
   57.4323   29.9815   46.5016 H   0  0  0  0  0  0  0  0  0  0  0  0
   57.2959   30.2330   43.1296 H   0  0  0  0  0  0  0  0  0  0  0  0
   55.9340   29.0639   43.0578 H   0  0  0  0  0  0  0  0  0  0  0  0
   55.6030   30.8294   43.0578 H   0  0  0  0  0  0  0  0  0  0  0  0
   63.1075   32.9819   46.5474 H   0  0  0  0  0  0  0  0  0  0  0  0
   62.5737   34.6957   46.3752 H   0  0  0  0  0  0  0  0  0  0  0  0
   64.1647   33.0503   49.7226 H   0  0  0  0  0  0  0  0  0  0  0  0
   63.7248   32.1500   48.2318 H   0  0  0  0  0  0  0  0  0  0  0  0
   65.1472   33.2470   48.2318 H   0  0  0  0  0  0  0  0  0  0  0  0
   61.4060   33.7140   49.4240 H   0  0  0  0  0  0  0  0  0  0  0  0
   57.5189   31.5148   49.9463 H   0  0  0  0  0  0  0  0  0  0  0  0
   58.7863   31.0317   51.1330 H   0  0  0  0  0  0  0  0  0  0  0  0
   56.5154   33.0411   51.5419 H   0  0  0  0  0  0  0  0  0  0  0  0
   56.7587   31.4522   52.3691 H   0  0  0  0  0  0  0  0  0  0  0  0
   57.7869   34.7808   52.0058 H   0  0  0  0  0  0  0  0  0  0  0  0
   59.0988   34.6822   53.2423 H   0  0  0  0  0  0  0  0  0  0  0  0
   59.9252   34.7765   50.8475 H   0  0  0  0  0  0  0  0  0  0  0  0
   60.4749   33.3342   51.7764 H   0  0  0  0  0  0  0  0  0  0  0  0
  1  2  1  0
  2  3  1  0
  3  4  1  0
  4  5  1  0
  5  6  1  0
  6  7  1  0
  3  8  1  0
  8  9  2  0
  9 10  1  0
 10 11  1  0
 11 12  1  0
 12 13  1  0
 10 14  2  0
 14 15  1  0
 15 16  1  0
 16 17  1  0
 17 18  1  0
 18 19  1  0
 19 20  1  0
 20 21  1  0
 15 22  2  0
 22  8  1  0
 21 16  1  0
  1 23  1  0
  1 24  1  0
  1 25  1  0
  2 26  1  0
  2 27  1  0
  4 28  1  0
  4 29  1  0
  5 30  1  0
  5 31  1  0
  7 32  1  0
  7 33  1  0
  7 34  1  0
 11 35  1  0
 11 36  1  0
 13 37  1  0
 13 38  1  0
 13 39  1  0
 14 40  1  0
 17 41  1  0
 17 42  1  0
 18 43  1  0
 18 44  1  0
 20 45  1  0
 20 46  1  0
 21 47  1  0
 21 48  1  0
M  CHG  1  14   1
M  END
>  <UniqueID>  (22) 
22

>  <SMILES>  (22) 
CCN(CCOC)c1nc(COC)[nH+]c(N2CCOCC2)n1

>  <Energy>  (22) 
45.155526261720134

>  <Genealogy>  (22) 
CCN(CCOC)c1nc(COC)[nH+]c(N2CCOCC2)n1 (protonated)
CCN(CCOC)c1nc(COC)[nH+]c(N2CCOCC2)n1 (3D coordinates assigned)
CCN(CCOC)c1nc(COC)[nH+]c(N2CCOCC2)n1 (nonaromatic ring conformer: 45.155526261720134 kcal/mol)

>  <smiles>  (22) 
CCN(CCOC)c1nc(COC)nc(N2CCOCC2)n1

>  <score_type>  (22) 
oracle

>  <origin>  (22) 
adg

>  <m_score__min__energy>  (22) 
-4.1100000000000003

>  <m_primary>  (22) 
energy

$$$$
22:0
     RDKit          3D

 40 40  0  0  0  0  0  0  0  0999 V2000
   57.4060   33.0900   47.1210 C   0  0  0  0  0  0  0  0  0  0  0  0
   57.2040   33.5460   45.6690 C   0  0  0  0  0  0  0  0  0  0  0  0
   58.2840   33.1220   44.7440 N   0  0  0  0  0  0  0  0  0  0  0  0
   59.2650   34.2030   44.4930 C   0  0  0  0  0  0  0  0  0  0  0  0
   59.5820   34.9410   45.7890 C   0  0  0  0  0  0  0  0  0  0  0  0
   57.7970   32.5270   43.4770 C   0  0  0  0  0  0  0  0  0  0  0  0
   57.6830   30.9940   43.5470 C   0  0  0  0  0  0  0  0  0  0  0  0
   57.9930   30.4720   44.8830 N   0  0  0  0  0  0  0  0  0  0  0  0
   57.9570   29.0710   45.2160 C   0  0  0  0  0  0  0  0  0  0  0  0
   56.7130   28.4730   45.3950 C   0  0  0  0  0  0  0  0  0  0  0  0
   56.6460   27.1510   45.8110 C   0  0  0  0  0  0  0  0  0  0  0  0
   55.5130   26.6170   45.9660 O   0  0  0  0  0  0  0  0  0  0  0  0
   57.7940   26.4490   46.0620 N   0  0  0  0  0  0  0  0  0  0  0  0
   57.7180   25.0510   46.5180 C   0  0  0  0  0  0  0  0  0  0  0  0
   59.0150   27.0260   45.8120 C   0  0  0  0  0  0  0  0  0  0  0  0
   60.0710   26.3560   45.9970 O   0  0  0  0  0  0  0  0  0  0  0  0
   59.1000   28.3210   45.3570 N   0  0  0  0  0  0  0  0  0  0  0  0
   60.4170   28.8880   45.0220 C   0  0  0  0  0  0  0  0  0  0  0  0
   57.0570   33.8779   47.8047 H   0  0  0  0  0  0  0  0  0  0  0  0
   56.8317   32.1689   47.2993 H   0  0  0  0  0  0  0  0  0  0  0  0
   58.4741   32.8965   47.2993 H   0  0  0  0  0  0  0  0  0  0  0  0
   56.2538   33.1282   45.3049 H   0  0  0  0  0  0  0  0  0  0  0  0
   57.2090   34.6459   45.6788 H   0  0  0  0  0  0  0  0  0  0  0  0
   60.1901   33.7667   44.0882 H   0  0  0  0  0  0  0  0  0  0  0  0
   58.8368   34.9144   43.7715 H   0  0  0  0  0  0  0  0  0  0  0  0
   59.3103   34.3085   46.6470 H   0  0  0  0  0  0  0  0  0  0  0  0
   60.6574   35.1690   45.8275 H   0  0  0  0  0  0  0  0  0  0  0  0
   59.0070   35.8779   45.8275 H   0  0  0  0  0  0  0  0  0  0  0  0
   56.8045   32.9439   43.2509 H   0  0  0  0  0  0  0  0  0  0  0  0
   58.5285   32.7706   42.6924 H   0  0  0  0  0  0  0  0  0  0  0  0
   56.6553   30.7035   43.2836 H   0  0  0  0  0  0  0  0  0  0  0  0
   58.4139   30.5701   42.8426 H   0  0  0  0  0  0  0  0  0  0  0  0
   58.5330   31.1010   45.5180 H   0  0  0  0  0  0  0  0  0  0  0  0
   55.7911   29.0434   45.2083 H   0  0  0  0  0  0  0  0  0  0  0  0
   57.7165   25.0236   47.6177 H   0  0  0  0  0  0  0  0  0  0  0  0
   56.7935   24.5913   46.1385 H   0  0  0  0  0  0  0  0  0  0  0  0
   58.5872   24.4938   46.1385 H   0  0  0  0  0  0  0  0  0  0  0  0
   60.9617   29.1225   45.9485 H   0  0  0  0  0  0  0  0  0  0  0  0
   60.9918   28.1576   44.4336 H   0  0  0  0  0  0  0  0  0  0  0  0
   60.2814   29.8075   44.4336 H   0  0  0  0  0  0  0  0  0  0  0  0
  1  2  1  0
  2  3  1  0
  3  4  1  0
  4  5  1  0
  3  6  1  0
  6  7  1  0
  7  8  1  0
  8  9  1  0
  9 10  2  0
 10 11  1  0
 11 12  2  0
 11 13  1  0
 13 14  1  0
 13 15  1  0
 15 16  2  0
 15 17  1  0
 17 18  1  0
 17  9  1  0
  1 19  1  0
  1 20  1  0
  1 21  1  0
  2 22  1  0
  2 23  1  0
  4 24  1  0
  4 25  1  0
  5 26  1  0
  5 27  1  0
  5 28  1  0
  6 29  1  0
  6 30  1  0
  7 31  1  0
  7 32  1  0
  8 33  1  0
 10 34  1  0
 14 35  1  0
 14 36  1  0
 14 37  1  0
 18 38  1  0
 18 39  1  0
 18 40  1  0
M  END
>  <UniqueID>  (23) 
23

>  <SMILES>  (23) 
CCN(CC)CCNc1cc(=O)n(C)c(=O)n1C

>  <Energy>  (23) 
47.19511524177786

>  <Genealogy>  (23) 
CCN(CC)CCNc1cc(=O)n(C)c(=O)n1C (3D coordinates assigned)
CCN(CC)CCNc1cc(=O)n(C)c(=O)n1C (optimized conformer: 47.19511524177786 kcal/mol)

>  <smiles>  (23) 
CCN(CC)CCNc1cc(=O)n(C)c(=O)n1C

>  <score_type>  (23) 
oracle

>  <origin>  (23) 
adg

>  <m_score__min__energy>  (23) 
-5.3600000000000003

>  <m_primary>  (23) 
energy

$$$$
23:0
     RDKit          3D

 54 56  0  0  0  0  0  0  0  0999 V2000
   55.5730   29.7210   43.3690 C   0  0  0  0  0  0  0  0  0  0  0  0
   56.2580   30.3380   44.5180 N   0  0  0  0  0  0  0  0  0  0  0  0
   57.0090   29.3080   45.2510 C   0  0  0  0  0  0  0  0  0  0  0  0
   57.1710   31.4190   44.0800 C   0  0  0  0  0  0  0  0  0  0  0  0
   57.6710   32.2500   45.2710 C   0  0  0  0  0  0  0  0  0  0  0  0
   59.1550   32.0000   45.5650 C   0  0  0  0  0  0  0  0  0  0  0  0
   59.3200   31.4840   46.9280 N   0  0  0  0  0  0  0  0  0  0  0  0
   59.2360   32.1820   48.0980 C   0  0  0  0  0  0  0  0  0  0  0  0
   58.8990   33.6470   48.2030 C   0  0  0  0  0  0  0  0  0  0  0  0
   59.9690   34.5120   47.5260 C   0  0  0  0  0  0  0  0  0  0  0  0
   61.3440   33.9740   47.8190 C   0  0  0  0  0  0  0  0  0  0  0  0
   61.8220   33.9350   49.1410 C   0  0  0  0  0  0  0  0  0  0  0  0
   63.0810   33.3940   49.4180 C   0  0  0  0  0  0  0  0  0  0  0  0
   63.8670   32.8790   48.3810 C   0  0  0  0  0  0  0  0  0  0  0  0
   63.3940   32.9060   47.0670 C   0  0  0  0  0  0  0  0  0  0  0  0
   62.1350   33.4460   46.7840 C   0  0  0  0  0  0  0  0  0  0  0  0
   59.4700   31.4150   49.1960 N   0  0  0  0  0  0  0  0  0  0  0  0
   59.7380   30.2050   48.6710 C   0  0  0  0  0  0  0  0  0  0  0  0
   59.6660   30.2390   47.3180 C   0  0  0  0  0  0  0  0  0  0  0  0
   59.9760   29.1020   46.5750 C   0  0  0  0  0  0  0  0  0  0  0  0
   59.9630   29.1320   45.3130 O   0  0  0  0  0  0  0  0  0  0  0  0
   60.3170   27.9530   47.2510 N   0  0  0  0  0  0  0  0  0  0  0  0
   60.6800   26.7440   46.4920 C   0  0  0  0  0  0  0  0  0  0  0  0
   60.3990   27.9530   48.6330 C   0  0  0  0  0  0  0  0  0  0  0  0
   60.7780   26.9120   49.2390 O   0  0  0  0  0  0  0  0  0  0  0  0
   60.0840   29.0820   49.3570 N   0  0  0  0  0  0  0  0  0  0  0  0
   60.2020   29.1050   50.8210 C   0  0  0  0  0  0  0  0  0  0  0  0
   54.8015   29.0261   43.7320 H   0  0  0  0  0  0  0  0  0  0  0  0
   55.1019   30.5055   42.7585 H   0  0  0  0  0  0  0  0  0  0  0  0
   56.3041   29.1708   42.7585 H   0  0  0  0  0  0  0  0  0  0  0  0
   56.8917   29.4689   46.3328 H   0  0  0  0  0  0  0  0  0  0  0  0
   56.6228   28.3132   44.9843 H   0  0  0  0  0  0  0  0  0  0  0  0
   58.0743   29.3714   44.9843 H   0  0  0  0  0  0  0  0  0  0  0  0
   58.0357   30.9712   43.5684 H   0  0  0  0  0  0  0  0  0  0  0  0
   56.6172   32.0853   43.4023 H   0  0  0  0  0  0  0  0  0  0  0  0
   57.5291   33.3169   45.0438 H   0  0  0  0  0  0  0  0  0  0  0  0
   57.0944   31.9513   46.1589 H   0  0  0  0  0  0  0  0  0  0  0  0
   59.5490   31.2649   44.8477 H   0  0  0  0  0  0  0  0  0  0  0  0
   59.7049   32.9480   45.4704 H   0  0  0  0  0  0  0  0  0  0  0  0
   57.9298   33.8281   47.7153 H   0  0  0  0  0  0  0  0  0  0  0  0
   58.8540   33.9186   49.2680 H   0  0  0  0  0  0  0  0  0  0  0  0
   59.8029   34.5084   46.4386 H   0  0  0  0  0  0  0  0  0  0  0  0
   59.8973   35.5377   47.9169 H   0  0  0  0  0  0  0  0  0  0  0  0
   61.2034   34.3314   49.9596 H   0  0  0  0  0  0  0  0  0  0  0  0
   63.4543   33.3731   50.4525 H   0  0  0  0  0  0  0  0  0  0  0  0
   64.8571   32.4530   48.6006 H   0  0  0  0  0  0  0  0  0  0  0  0
   64.0131   32.5016   46.2527 H   0  0  0  0  0  0  0  0  0  0  0  0
   61.7631   33.4575   45.7489 H   0  0  0  0  0  0  0  0  0  0  0  0
   60.9240   25.9312   47.1919 H   0  0  0  0  0  0  0  0  0  0  0  0
   59.8333   26.4407   45.8587 H   0  0  0  0  0  0  0  0  0  0  0  0
   61.5537   26.9572   45.8587 H   0  0  0  0  0  0  0  0  0  0  0  0
   59.2169   28.9130   51.2713 H   0  0  0  0  0  0  0  0  0  0  0  0
   60.9105   28.3281   51.1440 H   0  0  0  0  0  0  0  0  0  0  0  0
   60.5669   30.0912   51.1440 H   0  0  0  0  0  0  0  0  0  0  0  0
  1  2  1  0
  2  3  1  0
  2  4  1  0
  4  5  1  0
  5  6  1  0
  6  7  1  0
  7  8  1  0
  8  9  1  0
  9 10  1  0
 10 11  1  0
 11 12  2  0
 12 13  1  0
 13 14  2  0
 14 15  1  0
 15 16  2  0
  8 17  2  0
 17 18  1  0
 18 19  2  0
 19 20  1  0
 20 21  2  0
 20 22  1  0
 22 23  1  0
 22 24  1  0
 24 25  2  0
 24 26  1  0
 26 27  1  0
 19  7  1  0
 16 11  1  0
 26 18  1  0
  1 28  1  0
  1 29  1  0
  1 30  1  0
  3 31  1  0
  3 32  1  0
  3 33  1  0
  4 34  1  0
  4 35  1  0
  5 36  1  0
  5 37  1  0
  6 38  1  0
  6 39  1  0
  9 40  1  0
  9 41  1  0
 10 42  1  0
 10 43  1  0
 12 44  1  0
 13 45  1  0
 14 46  1  0
 15 47  1  0
 16 48  1  0
 23 49  1  0
 23 50  1  0
 23 51  1  0
 27 52  1  0
 27 53  1  0
 27 54  1  0
M  END
>  <UniqueID>  (24) 
24

>  <SMILES>  (24) 
CN(C)CCCn1c(CCc2ccccc2)nc2c1c(=O)n(C)c(=O)n2C

>  <Energy>  (24) 
93.93877493631092

>  <Genealogy>  (24) 
CN(C)CCCn1c(CCc2ccccc2)nc2c1c(=O)n(C)c(=O)n2C (3D coordinates assigned)
CN(C)CCCn1c(CCc2ccccc2)nc2c1c(=O)n(C)c(=O)n2C (optimized conformer: 93.93877493631092 kcal/mol)

>  <smiles>  (24) 
CN(C)CCCn1c(CCc2ccccc2)nc2c1c(=O)n(C)c(=O)n2C

>  <score_type>  (24) 
oracle

>  <origin>  (24) 
adg

>  <m_score__min__energy>  (24) 
-7.4199999999999999

>  <m_primary>  (24) 
energy

$$$$
24:0
     RDKit          3D

 68 72  0  0  0  0  0  0  0  0999 V2000
   56.2610   19.9220   45.1450 C   0  0  0  0  0  0  0  0  0  0  0  0
   56.6690   20.7880   43.9390 C   0  0  0  0  0  0  0  0  0  0  0  0
   57.3110   22.1040   44.2680 N   0  0  0  0  0  0  0  0  0  0  0  0
   58.7880   21.9790   44.1360 C   0  0  0  0  0  0  0  0  0  0  0  0
   56.8020   23.1700   43.3590 C   0  0  0  0  0  0  0  0  0  0  0  0
   57.3600   24.5740   43.7040 C   0  0  0  0  0  0  0  0  0  0  0  0
   57.6620   24.7460   45.1480 N   0  0  0  0  0  0  0  0  0  0  0  0
   57.5770   26.1700   45.5480 C   0  0  0  0  0  0  0  0  0  0  0  0
   58.8830   26.9360   45.2700 C   0  0  0  0  0  0  0  0  0  0  0  0
   60.0420   26.5520   46.2050 C   0  0  0  0  0  0  0  0  0  0  0  0
   59.7260   26.8260   47.5700 O   0  0  0  0  0  0  0  0  0  0  0  0
   59.7200   28.1040   48.1490 C   0  0  0  0  0  0  0  0  0  0  0  0
   60.4560   28.5350   49.2600 C   0  0  0  0  0  0  0  0  0  0  0  0
   60.2120   29.8800   49.5640 C   0  0  0  0  0  0  0  0  0  0  0  0
   60.7780   30.5710   50.5920 N   0  0  0  0  0  0  0  0  0  0  0  0
   60.4300   31.8760   50.8120 C   0  0  0  0  0  0  0  0  0  0  0  0
   59.4780   32.5140   49.9890 C   0  0  0  0  0  0  0  0  0  0  0  0
   58.9010   31.8070   48.9150 C   0  0  0  0  0  0  0  0  0  0  0  0
   57.9600   32.3860   48.0610 O   0  0  0  0  0  0  0  0  0  0  0  0
   58.3360   33.0680   46.9010 C   0  0  0  0  0  0  0  0  0  0  0  0
   59.0240   34.2920   46.9810 C   0  0  0  0  0  0  0  0  0  0  0  0
   59.4000   34.9600   45.8060 C   0  0  0  0  0  0  0  0  0  0  0  0
   59.0720   34.4290   44.5540 C   0  0  0  0  0  0  0  0  0  0  0  0
   58.3890   33.2040   44.4660 C   0  0  0  0  0  0  0  0  0  0  0  0
   58.0520   32.6460   43.2260 C   0  0  0  0  0  0  0  0  0  0  0  0
   57.4020   31.4070   43.1720 C   0  0  0  0  0  0  0  0  0  0  0  0
   57.0880   30.7380   44.3640 C   0  0  0  0  0  0  0  0  0  0  0  0
   56.4000   29.4090   44.3330 C   0  0  0  0  0  0  0  0  0  0  0  0
   57.4020   31.3110   45.5620 N   0  0  0  0  0  0  0  0  0  0  0  0
   58.0400   32.5120   45.6450 C   0  0  0  0  0  0  0  0  0  0  0  0
   59.2970   30.4850   48.7220 C   0  0  0  0  0  0  0  0  0  0  0  0
   58.7640   29.3730   47.5730 S   0  0  0  0  0  0  0  0  0  0  0  0
   56.7530   23.9320   45.9710 C   0  0  0  0  0  0  0  0  0  0  0  0
   56.9610   22.4300   45.6950 C   0  0  0  0  0  0  0  0  0  0  0  0
   56.5100   20.4506   46.0770 H   0  0  0  0  0  0  0  0  0  0  0  0
   55.1783   19.7312   45.1098 H   0  0  0  0  0  0  0  0  0  0  0  0
   56.8032   18.9656   45.1098 H   0  0  0  0  0  0  0  0  0  0  0  0
   57.3797   20.2080   43.3320 H   0  0  0  0  0  0  0  0  0  0  0  0
   55.7324   21.0343   43.4173 H   0  0  0  0  0  0  0  0  0  0  0  0
   59.2436   21.9404   45.1365 H   0  0  0  0  0  0  0  0  0  0  0  0
   59.0303   21.0571   43.5870 H   0  0  0  0  0  0  0  0  0  0  0  0
   59.1818   22.8470   43.5870 H   0  0  0  0  0  0  0  0  0  0  0  0
   57.0928   22.9204   42.3279 H   0  0  0  0  0  0  0  0  0  0  0  0
   55.7092   23.2109   43.4777 H   0  0  0  0  0  0  0  0  0  0  0  0
   58.2862   24.7321   43.1321 H   0  0  0  0  0  0  0  0  0  0  0  0
   56.5826   25.3073   43.4435 H   0  0  0  0  0  0  0  0  0  0  0  0
   56.7610   26.6470   44.9853 H   0  0  0  0  0  0  0  0  0  0  0  0
   57.3923   26.2037   46.6319 H   0  0  0  0  0  0  0  0  0  0  0  0
   59.1911   26.7307   44.2342 H   0  0  0  0  0  0  0  0  0  0  0  0
   58.6716   28.0013   45.4446 H   0  0  0  0  0  0  0  0  0  0  0  0
   60.2490   25.4773   46.0948 H   0  0  0  0  0  0  0  0  0  0  0  0
   60.9220   27.1508   45.9276 H   0  0  0  0  0  0  0  0  0  0  0  0
   61.1451   27.8922   49.8274 H   0  0  0  0  0  0  0  0  0  0  0  0
   61.4790   30.1090   51.2110 H   0  0  0  0  0  0  0  0  0  0  0  0
   60.8967   32.4327   51.6380 H   0  0  0  0  0  0  0  0  0  0  0  0
   59.1879   33.5569   50.1844 H   0  0  0  0  0  0  0  0  0  0  0  0
   59.2668   34.7247   47.9628 H   0  0  0  0  0  0  0  0  0  0  0  0
   59.9561   35.9070   45.8696 H   0  0  0  0  0  0  0  0  0  0  0  0
   59.3489   34.9708   43.6376 H   0  0  0  0  0  0  0  0  0  0  0  0
   58.2976   33.1803   42.2964 H   0  0  0  0  0  0  0  0  0  0  0  0
   57.1394   30.9613   42.2012 H   0  0  0  0  0  0  0  0  0  0  0  0
   56.2216   29.0644   45.3623 H   0  0  0  0  0  0  0  0  0  0  0  0
   55.4388   29.5059   43.8070 H   0  0  0  0  0  0  0  0  0  0  0  0
   57.0340   28.6801   43.8070 H   0  0  0  0  0  0  0  0  0  0  0  0
   56.9508   24.1340   47.0340 H   0  0  0  0  0  0  0  0  0  0  0  0
   55.7159   24.1965   45.7172 H   0  0  0  0  0  0  0  0  0  0  0  0
   57.7765   22.0711   46.3401 H   0  0  0  0  0  0  0  0  0  0  0  0
   56.0007   21.9359   45.9040 H   0  0  0  0  0  0  0  0  0  0  0  0
  1  2  1  0
  2  3  1  0
  3  4  1  0
  3  5  1  0
  5  6  1  0
  6  7  1  0
  7  8  1  0
  8  9  1  0
  9 10  1  0
 10 11  1  0
 11 12  1  0
 12 13  2  0
 13 14  1  0
 14 15  2  0
 15 16  1  0
 16 17  2  0
 17 18  1  0
 18 19  1  0
 19 20  1  0
 20 21  2  0
 21 22  1  0
 22 23  2  0
 23 24  1  0
 24 25  2  0
 25 26  1  0
 26 27  2  0
 27 28  1  0
 27 29  1  0
 29 30  2  0
 18 31  2  0
 31 32  1  0
  7 33  1  0
 33 34  1  0
 34  3  1  0
 32 12  1  0
 31 14  1  0
 30 20  1  0
 30 24  1  0
  1 35  1  0
  1 36  1  0
  1 37  1  0
  2 38  1  0
  2 39  1  0
  4 40  1  0
  4 41  1  0
  4 42  1  0
  5 43  1  0
  5 44  1  0
  6 45  1  0
  6 46  1  0
  8 47  1  0
  8 48  1  0
  9 49  1  0
  9 50  1  0
 10 51  1  0
 10 52  1  0
 13 53  1  0
 15 54  1  0
 16 55  1  0
 17 56  1  0
 21 57  1  0
 22 58  1  0
 23 59  1  0
 25 60  1  0
 26 61  1  0
 28 62  1  0
 28 63  1  0
 28 64  1  0
 33 65  1  0
 33 66  1  0
 34 67  1  0
 34 68  1  0
M  CHG  2   3   1  15   1
M  END
>  <UniqueID>  (25) 
25

>  <SMILES>  (25) 
CC[N+]1(C)CCN(CCCOc2cc3[nH+]ccc(Oc4cccc5ccc(C)nc45)c3s2)CC1

>  <Energy>  (25) 
134.25049615551436

>  <Genealogy>  (25) 
CC[N+]1(C)CCN(CCCOc2cc3[nH+]ccc(Oc4cccc5ccc(C)nc45)c3s2)CC1 (protonated)
CC[N+]1(C)CCN(CCCOc2cc3[nH+]ccc(Oc4cccc5ccc(C)nc45)c3s2)CC1 (3D coordinates assigned)
CC[N+]1(C)CCN(CCCOc2cc3[nH+]ccc(Oc4cccc5ccc(C)nc45)c3s2)CC1 (nonaromatic ring conformer: 134.25049615551436 kcal/mol)

>  <smiles>  (25) 
CC[N+]1(C)CCN(CCCOc2cc3nccc(Oc4cccc5ccc(C)nc45)c3s2)CC1

>  <score_type>  (25) 
oracle

>  <origin>  (25) 
adg

>  <m_score__min__energy>  (25) 
-6.7199999999999998

>  <m_primary>  (25) 
energy

$$$$
25:0
     RDKit          3D

 82 83  0  0  0  0  0  0  0  0999 V2000
   61.0780   27.0500   50.7920 C   0  0  0  0  0  0  0  0  0  0  0  0
   60.3940   26.8400   49.4460 C   0  0  0  0  0  0  0  0  0  0  0  0
   60.4040   28.1070   48.6260 C   0  0  0  0  0  0  0  0  0  0  0  0
   60.4850   29.3360   49.2860 C   0  0  0  0  0  0  0  0  0  0  0  0
   60.5120   30.5390   48.5710 C   0  0  0  0  0  0  0  0  0  0  0  0
   60.4460   30.5210   47.1610 C   0  0  0  0  0  0  0  0  0  0  0  0
   60.4490   29.2770   46.4780 C   0  0  0  0  0  0  0  0  0  0  0  0
   60.5820   29.2420   44.9720 C   0  0  0  0  0  0  0  0  0  0  0  0
   60.3490   28.0710   47.2180 C   0  0  0  0  0  0  0  0  0  0  0  0
   60.2100   26.8280   46.5790 O   0  0  0  0  0  0  0  0  0  0  0  0
   59.0430   26.4390   45.8460 C   0  0  0  0  0  0  0  0  0  0  0  0
   57.8350   26.2600   46.7630 C   0  0  0  0  0  0  0  0  0  0  0  0
   56.8830   27.2700   46.4910 O   0  0  0  0  0  0  0  0  0  0  0  0
   57.3050   28.1080   45.4300 C   0  0  0  0  0  0  0  0  0  0  0  0
   57.4630   29.5840   45.8520 C   0  0  0  0  0  0  0  0  0  0  0  0
   56.6460   30.5130   45.0240 N   0  0  0  0  0  0  0  0  0  0  0  0
   55.8550   29.7890   43.9940 C   0  0  0  0  0  0  0  0  0  0  0  0
   56.5030   29.8110   42.6090 C   0  0  0  0  0  0  0  0  0  0  0  0
   57.5250   31.4920   44.3330 C   0  0  0  0  0  0  0  0  0  0  0  0
   57.3790   32.9000   44.9100 C   0  0  0  0  0  0  0  0  0  0  0  0
   60.2800   31.8250   46.3870 C   0  0  0  0  0  0  0  0  0  0  0  0
   60.2190   33.1130   47.2390 C   0  0  0  0  0  0  0  0  0  0  0  0
   59.6980   32.8800   48.6720 C   0  0  0  0  0  0  0  0  0  0  0  0
   58.2120   32.4370   48.6490 C   0  0  0  0  0  0  0  0  0  0  0  0
   59.7520   34.2130   49.4610 C   0  0  0  0  0  0  0  0  0  0  0  0
   60.5300   31.8040   49.2650 N   0  0  0  0  0  0  0  0  0  0  0  0
   61.5400   32.0290   50.3260 C   0  0  0  0  0  0  0  0  0  0  0  0
   62.9930   31.9370   49.8120 C   0  0  0  0  0  0  0  0  0  0  0  0
   63.5340   33.1510   49.0050 C   0  0  0  0  0  0  0  0  0  0  0  0
   63.8660   32.9230   47.5710 N   0  0  0  0  0  0  0  0  0  0  0  0
   63.3480   33.9740   46.6820 C   0  0  0  0  0  0  0  0  0  0  0  0
   63.5020   31.5840   47.0740 C   0  0  0  0  0  0  0  0  0  0  0  0
   60.3671   26.8317   51.6026 H   0  0  0  0  0  0  0  0  0  0  0  0
   61.9438   26.3763   50.8724 H   0  0  0  0  0  0  0  0  0  0  0  0
   61.4166   28.0935   50.8724 H   0  0  0  0  0  0  0  0  0  0  0  0
   60.9242   26.0505   48.8932 H   0  0  0  0  0  0  0  0  0  0  0  0
   59.3484   26.5505   49.6276 H   0  0  0  0  0  0  0  0  0  0  0  0
   60.5282   29.3584   50.3849 H   0  0  0  0  0  0  0  0  0  0  0  0
   61.6130   28.9707   44.7012 H   0  0  0  0  0  0  0  0  0  0  0  0
   59.8863   28.4964   44.5597 H   0  0  0  0  0  0  0  0  0  0  0  0
   60.3434   30.2335   44.5597 H   0  0  0  0  0  0  0  0  0  0  0  0
   58.8138   27.2159   45.1017 H   0  0  0  0  0  0  0  0  0  0  0  0
   59.2495   25.4750   45.3580 H   0  0  0  0  0  0  0  0  0  0  0  0
   57.3832   25.2729   46.5858 H   0  0  0  0  0  0  0  0  0  0  0  0
   58.1571   26.3327   47.8123 H   0  0  0  0  0  0  0  0  0  0  0  0
   58.2748   27.7436   45.0603 H   0  0  0  0  0  0  0  0  0  0  0  0
   56.5279   28.0700   44.6524 H   0  0  0  0  0  0  0  0  0  0  0  0
   57.1521   29.6841   46.9024 H   0  0  0  0  0  0  0  0  0  0  0  0
   58.5191   29.8570   45.7103 H   0  0  0  0  0  0  0  0  0  0  0  0
   55.7441   28.7416   44.3112 H   0  0  0  0  0  0  0  0  0  0  0  0
   54.8850   30.3006   43.9085 H   0  0  0  0  0  0  0  0  0  0  0  0
   57.5971   29.8481   42.7166 H   0  0  0  0  0  0  0  0  0  0  0  0
   56.2195   28.9027   42.0571 H   0  0  0  0  0  0  0  0  0  0  0  0
   56.1585   30.6980   42.0571 H   0  0  0  0  0  0  0  0  0  0  0  0
   58.5709   31.1698   44.4433 H   0  0  0  0  0  0  0  0  0  0  0  0
   57.2286   31.5264   43.2742 H   0  0  0  0  0  0  0  0  0  0  0  0
   57.3844   32.8484   46.0088 H   0  0  0  0  0  0  0  0  0  0  0  0
   58.2171   33.5251   44.5682 H   0  0  0  0  0  0  0  0  0  0  0  0
   56.4304   33.3398   44.5682 H   0  0  0  0  0  0  0  0  0  0  0  0
   61.1313   31.9177   45.6965 H   0  0  0  0  0  0  0  0  0  0  0  0
   59.3027   31.7521   45.8875 H   0  0  0  0  0  0  0  0  0  0  0  0
   61.2321   33.5370   47.3017 H   0  0  0  0  0  0  0  0  0  0  0  0
   59.5109   33.7942   46.7445 H   0  0  0  0  0  0  0  0  0  0  0  0
   57.8459   32.3279   49.6805 H   0  0  0  0  0  0  0  0  0  0  0  0
   57.6114   33.1952   48.1251 H   0  0  0  0  0  0  0  0  0  0  0  0
   58.1246   31.4737   48.1251 H   0  0  0  0  0  0  0  0  0  0  0  0
   59.7434   34.0008   50.5403 H   0  0  0  0  0  0  0  0  0  0  0  0
   60.6729   34.7557   49.2013 H   0  0  0  0  0  0  0  0  0  0  0  0
   58.8780   34.8284   49.2013 H   0  0  0  0  0  0  0  0  0  0  0  0
   61.3826   33.0310   50.7517 H   0  0  0  0  0  0  0  0  0  0  0  0
   61.4079   31.2357   51.0765 H   0  0  0  0  0  0  0  0  0  0  0  0
   63.6465   31.8019   50.6865 H   0  0  0  0  0  0  0  0  0  0  0  0
   62.9919   31.0983   49.1003 H   0  0  0  0  0  0  0  0  0  0  0  0
   62.7707   33.9420   49.0460 H   0  0  0  0  0  0  0  0  0  0  0  0
   64.4932   33.4025   49.4811 H   0  0  0  0  0  0  0  0  0  0  0  0
   64.9110   32.9860   47.5070 H   0  0  0  0  0  0  0  0  0  0  0  0
   62.9417   34.7983   47.2866 H   0  0  0  0  0  0  0  0  0  0  0  0
   64.1630   34.3519   46.0473 H   0  0  0  0  0  0  0  0  0  0  0  0
   62.5518   33.5578   46.0473 H   0  0  0  0  0  0  0  0  0  0  0  0
   63.3197   30.9134   47.9267 H   0  0  0  0  0  0  0  0  0  0  0  0
   62.5906   31.6552   46.4622 H   0  0  0  0  0  0  0  0  0  0  0  0
   64.3240   31.1840   46.4622 H   0  0  0  0  0  0  0  0  0  0  0  0
  1  2  1  0
  2  3  1  0
  3  4  2  0
  4  5  1  0
  5  6  2  0
  6  7  1  0
  7  8  1  0
  7  9  2  0
  9 10  1  0
 10 11  1  0
 11 12  1  0
 12 13  1  0
 13 14  1  0
 14 15  1  0
 15 16  1  0
 16 17  1  0
 17 18  1  0
 16 19  1  0
 19 20  1  0
  6 21  1  0
 21 22  1  0
 22 23  1  0
 23 24  1  0
 23 25  1  0
 23 26  1  0
 26 27  1  0
 27 28  1  0
 28 29  1  0
 29 30  1  0
 30 31  1  0
 30 32  1  0
  9  3  1  0
 26  5  1  0
  1 33  1  0
  1 34  1  0
  1 35  1  0
  2 36  1  0
  2 37  1  0
  4 38  1  0
  8 39  1  0
  8 40  1  0
  8 41  1  0
 11 42  1  0
 11 43  1  0
 12 44  1  0
 12 45  1  0
 14 46  1  0
 14 47  1  0
 15 48  1  0
 15 49  1  0
 17 50  1  0
 17 51  1  0
 18 52  1  0
 18 53  1  0
 18 54  1  0
 19 55  1  0
 19 56  1  0
 20 57  1  0
 20 58  1  0
 20 59  1  0
 21 60  1  0
 21 61  1  0
 22 62  1  0
 22 63  1  0
 24 64  1  0
 24 65  1  0
 24 66  1  0
 25 67  1  0
 25 68  1  0
 25 69  1  0
 27 70  1  0
 27 71  1  0
 28 72  1  0
 28 73  1  0
 29 74  1  0
 29 75  1  0
 30 76  1  0
 31 77  1  0
 31 78  1  0
 31 79  1  0
 32 80  1  0
 32 81  1  0
 32 82  1  0
M  CHG  1  30   1
M  END
>  <UniqueID>  (26) 
26

>  <SMILES>  (26) 
CCc1cc2c(c(C)c1OCCOCCN(CC)CC)CCC(C)(C)N2CCC[NH+](C)C

>  <Energy>  (26) 
97.10776233354376

>  <Genealogy>  (26) 
CCc1cc2c(c(C)c1OCCOCCN(CC)CC)CCC(C)(C)N2CCC[NH+](C)C (protonated)
CCc1cc2c(c(C)c1OCCOCCN(CC)CC)CCC(C)(C)N2CCC[NH+](C)C (3D coordinates assigned)
CCc1cc2c(c(C)c1OCCOCCN(CC)CC)CCC(C)(C)N2CCC[NH+](C)C (nonaromatic ring conformer: 97.10776233354376 kcal/mol)

>  <smiles>  (26) 
CCc1cc2c(c(C)c1OCCOCCN(CC)CC)CCC(C)(C)N2CCCN(C)C

>  <score_type>  (26) 
oracle

>  <origin>  (26) 
adg

>  <m_score__min__energy>  (26) 
-7.8600000000000003

>  <m_primary>  (26) 
energy

$$$$
