0:0
     RDKit          3D

 43 45  0  0  0  0  0  0  0  0999 V2000
   57.3450   23.5070   44.0690 C   0  0  0  0  0  0  0  0  0  0  0  0
   58.0370   24.5260   44.7820 O   0  0  0  0  0  0  0  0  0  0  0  0
   57.7560   25.8960   44.6770 C   0  0  0  0  0  0  0  0  0  0  0  0
   58.1870   26.6750   43.5860 C   0  0  0  0  0  0  0  0  0  0  0  0
   57.8820   28.0380   43.5280 C   0  0  0  0  0  0  0  0  0  0  0  0
   57.1420   28.6390   44.5530 C   0  0  0  0  0  0  0  0  0  0  0  0
   56.7870   30.3640   44.4820 S   0  0  0  0  0  0  0  0  0  0  0  0
   57.3330   30.9160   43.1950 O   0  0  0  0  0  0  0  0  0  0  0  0
   55.2980   30.5820   44.5030 O   0  0  0  0  0  0  0  0  0  0  0  0
   57.5270   31.1850   45.8350 N   0  0  0  0  0  0  0  0  0  0  0  0
   58.1590   32.4390   45.3740 C   0  0  0  0  0  0  0  0  0  0  0  0
   59.1700   32.9750   46.3920 C   0  0  0  0  0  0  0  0  0  0  0  0
   60.2070   31.9710   46.6570 N   0  0  0  0  0  0  0  0  0  0  0  0
   61.5060   32.3730   47.1450 C   0  0  0  0  0  0  0  0  0  0  0  0
   62.2070   31.5710   48.0670 C   0  0  0  0  0  0  0  0  0  0  0  0
   63.4650   31.9630   48.5350 C   0  0  0  0  0  0  0  0  0  0  0  0
   64.0380   33.1560   48.0900 C   0  0  0  0  0  0  0  0  0  0  0  0
   63.3550   33.9600   47.1760 C   0  0  0  0  0  0  0  0  0  0  0  0
   62.0970   33.5730   46.7030 C   0  0  0  0  0  0  0  0  0  0  0  0
   59.9190   30.5610   46.3590 C   0  0  0  0  0  0  0  0  0  0  0  0
   58.4280   30.2690   46.5810 C   0  0  0  0  0  0  0  0  0  0  0  0
   56.7170   27.8680   45.6430 C   0  0  0  0  0  0  0  0  0  0  0  0
   57.0210   26.5060   45.7020 C   0  0  0  0  0  0  0  0  0  0  0  0
   56.8748   22.8147   44.7829 H   0  0  0  0  0  0  0  0  0  0  0  0
   56.5697   23.9640   43.4365 H   0  0  0  0  0  0  0  0  0  0  0  0
   58.0557   22.9548   43.4365 H   0  0  0  0  0  0  0  0  0  0  0  0
   58.7664   26.2088   42.7755 H   0  0  0  0  0  0  0  0  0  0  0  0
   58.2247   28.6404   42.6738 H   0  0  0  0  0  0  0  0  0  0  0  0
   58.6785   32.2473   44.4236 H   0  0  0  0  0  0  0  0  0  0  0  0
   57.3686   33.1935   45.2478 H   0  0  0  0  0  0  0  0  0  0  0  0
   59.6401   33.8853   45.9917 H   0  0  0  0  0  0  0  0  0  0  0  0
   58.6451   33.2037   47.3312 H   0  0  0  0  0  0  0  0  0  0  0  0
   61.7615   30.6297   48.4213 H   0  0  0  0  0  0  0  0  0  0  0  0
   64.0043   31.3302   49.2552 H   0  0  0  0  0  0  0  0  0  0  0  0
   65.0277   33.4623   48.4597 H   0  0  0  0  0  0  0  0  0  0  0  0
   63.8072   34.9001   46.8269 H   0  0  0  0  0  0  0  0  0  0  0  0
   61.5653   34.2100   45.9808 H   0  0  0  0  0  0  0  0  0  0  0  0
   60.1790   30.3501   45.3112 H   0  0  0  0  0  0  0  0  0  0  0  0
   60.5146   29.9225   47.0281 H   0  0  0  0  0  0  0  0  0  0  0  0
   58.2230   29.2382   46.2562 H   0  0  0  0  0  0  0  0  0  0  0  0
   58.2253   30.4172   47.6520 H   0  0  0  0  0  0  0  0  0  0  0  0
   56.1420   28.3369   46.4551 H   0  0  0  0  0  0  0  0  0  0  0  0
   56.6807   25.9076   46.5600 H   0  0  0  0  0  0  0  0  0  0  0  0
  1  2  1  0
  2  3  1  0
  3  4  2  0
  4  5  1  0
  5  6  2  0
  6  7  1  0
  7  8  2  0
  7  9  2  0
  7 10  1  0
 10 11  1  0
 11 12  1  0
 12 13  1  0
 13 14  1  0
 14 15  2  0
 15 16  1  0
 16 17  2  0
 17 18  1  0
 18 19  2  0
 13 20  1  0
 20 21  1  0
  6 22  1  0
 22 23  2  0
 23  3  1  0
 21 10  1  0
 19 14  1  0
  1 24  1  0
  1 25  1  0
  1 26  1  0
  4 27  1  0
  5 28  1  0
 11 29  1  0
 11 30  1  0
 12 31  1  0
 12 32  1  0
 15 33  1  0
 16 34  1  0
 17 35  1  0
 18 36  1  0
 19 37  1  0
 20 38  1  0
 20 39  1  0
 21 40  1  0
 21 41  1  0
 22 42  1  0
 23 43  1  0
M  END
>  <UniqueID>  (1) 
1

>  <SMILES>  (1) 
COc1ccc(S(=O)(=O)N2CCN(c3ccccc3)CC2)cc1

>  <Energy>  (1) 
52.129201784257674

>  <Genealogy>  (1) 
COc1ccc(S(=O)(=O)N2CCN(c3ccccc3)CC2)cc1 (3D coordinates assigned)
COc1ccc(S(=O)(=O)N2CCN(c3ccccc3)CC2)cc1 (nonaromatic ring conformer: 52.129201784257674 kcal/mol)

>  <smiles>  (1) 
COc1ccc(S(=O)(=O)N2CCN(c3ccccc3)CC2)cc1

>  <score_type>  (1) 
oracle

>  <origin>  (1) 
adg

>  <m_score__min__energy>  (1) 
-7.6100000000000003

>  <m_primary>  (1) 
energy

$$$$
1:0
     RDKit          3D

 36 38  0  0  0  0  0  0  0  0999 V2000
   60.4370   26.6410   46.5520 C   0  0  0  0  0  0  0  0  0  0  0  0
   59.5700   25.9840   45.6330 O   0  0  0  0  0  0  0  0  0  0  0  0
   58.2880   25.5010   45.9470 C   0  0  0  0  0  0  0  0  0  0  0  0
   58.0870   24.1730   46.3700 C   0  0  0  0  0  0  0  0  0  0  0  0
   56.8020   23.7030   46.6450 C   0  0  0  0  0  0  0  0  0  0  0  0
   55.7040   24.5510   46.5070 C   0  0  0  0  0  0  0  0  0  0  0  0
   55.8830   25.8740   46.0990 C   0  0  0  0  0  0  0  0  0  0  0  0
   54.7700   26.7030   46.0040 O   0  0  0  0  0  0  0  0  0  0  0  0
   57.1750   26.3630   45.8150 C   0  0  0  0  0  0  0  0  0  0  0  0
   57.3570   27.7670   45.3800 C   0  0  0  0  0  0  0  0  0  0  0  0
   57.7650   28.8300   46.1760 C   0  0  0  0  0  0  0  0  0  0  0  0
   57.8060   29.9320   45.3990 N   0  0  0  0  0  0  0  0  0  0  0  0
   58.1470   31.2210   45.6920 C   0  0  0  0  0  0  0  0  0  0  0  0
   58.5710   31.6100   47.0880 C   0  0  0  0  0  0  0  0  0  0  0  0
   58.1590   32.1610   44.6300 C   0  0  0  0  0  0  0  0  0  0  0  0
   58.7260   33.9810   44.9270 Br  0  0  0  0  0  0  0  0  0  0  0  0
   57.7670   31.7460   43.3270 C   0  0  0  0  0  0  0  0  0  0  0  0
   57.7570   32.7170   42.1790 C   0  0  0  0  0  0  0  0  0  0  0  0
   57.4000   30.4080   43.0990 C   0  0  0  0  0  0  0  0  0  0  0  0
   57.4380   29.5260   44.1710 C   0  0  0  0  0  0  0  0  0  0  0  0
   57.1500   28.2120   44.1200 N   0  0  0  0  0  0  0  0  0  0  0  0
   60.1268   26.4059   47.5808 H   0  0  0  0  0  0  0  0  0  0  0  0
   61.4694   26.2964   46.3925 H   0  0  0  0  0  0  0  0  0  0  0  0
   60.3845   27.7281   46.3925 H   0  0  0  0  0  0  0  0  0  0  0  0
   58.9499   23.5005   46.4846 H   0  0  0  0  0  0  0  0  0  0  0  0
   56.6554   22.6627   46.9709 H   0  0  0  0  0  0  0  0  0  0  0  0
   54.6922   24.1759   46.7205 H   0  0  0  0  0  0  0  0  0  0  0  0
   58.0105   28.7818   47.2472 H   0  0  0  0  0  0  0  0  0  0  0  0
   57.9674   31.0563   47.8222 H   0  0  0  0  0  0  0  0  0  0  0  0
   59.6344   31.3668   47.2294 H   0  0  0  0  0  0  0  0  0  0  0  0
   58.4200   32.6904   47.2294 H   0  0  0  0  0  0  0  0  0  0  0  0
   57.7464   33.7456   42.5688 H   0  0  0  0  0  0  0  0  0  0  0  0
   58.6567   32.5671   41.5642 H   0  0  0  0  0  0  0  0  0  0  0  0
   56.8605   32.5487   41.5642 H   0  0  0  0  0  0  0  0  0  0  0  0
   57.0913   30.0692   42.0990 H   0  0  0  0  0  0  0  0  0  0  0  0
   56.8660   27.6570   43.2820 H   0  0  0  0  0  0  0  0  0  0  0  0
  1  2  1  0
  2  3  1  0
  3  4  2  0
  4  5  1  0
  5  6  2  0
  6  7  1  0
  7  8  1  0
  7  9  2  0
  9 10  1  0
 10 11  2  0
 11 12  1  0
 12 13  1  0
 13 14  1  0
 13 15  2  0
 15 16  1  0
 15 17  1  0
 17 18  1  0
 17 19  2  0
 19 20  1  0
 20 21  2  0
  9  3  1  0
 21 10  1  0
 20 12  1  0
  1 22  1  0
  1 23  1  0
  1 24  1  0
  4 25  1  0
  5 26  1  0
  6 27  1  0
 11 28  1  0
 14 29  1  0
 14 30  1  0
 14 31  1  0
 18 32  1  0
 18 33  1  0
 18 34  1  0
 19 35  1  0
 21 36  1  0
M  CHG  2   8  -1  21   1
M  END
>  <UniqueID>  (2) 
2

>  <SMILES>  (2) 
COc1cccc([O-])c1-c1cn2c(C)c(Br)c(C)cc2[nH+]1

>  <Energy>  (2) 
81.81082670810974

>  <Genealogy>  (2) 
COc1cccc([O-])c1-c1cn2c(C)c(Br)c(C)cc2[nH+]1 (protonated)
COc1cccc([O-])c1-c1cn2c(C)c(Br)c(C)cc2[nH+]1 (3D coordinates assigned)
COc1cccc([O-])c1-c1cn2c(C)c(Br)c(C)cc2[nH+]1 (optimized conformer: 81.81082670810974 kcal/mol)

>  <smiles>  (2) 
COc1cccc(O)c1-c1cn2c(C)c(Br)c(C)cc2n1

>  <score_type>  (2) 
oracle

>  <origin>  (2) 
adg

>  <m_score__min__energy>  (2) 
-10.01

>  <m_primary>  (2) 
energy

$$$$
2:0
     RDKit          3D

 47 49  0  0  1  0  0  0  0  0999 V2000
   59.6440   34.2400   45.3510 C   0  0  0  0  0  0  0  0  0  0  0  0
   58.5580   33.3110   45.5860 N   0  0  0  0  0  0  0  0  0  0  0  0
   57.7570   33.8430   46.6940 C   0  0  0  0  0  0  0  0  0  0  0  0
   57.7300   33.1660   44.4060 C   0  0  0  0  0  0  0  0  0  0  0  0
   58.1050   31.8700   43.7220 C   0  0  0  0  0  0  0  0  0  0  0  0
   56.8950   30.9580   43.7910 C   0  0  0  0  0  0  0  0  0  0  0  0
   59.4210   31.0810   48.3910 N   0  0  0  0  0  0  0  0  0  0  0  0
   58.9810   30.2270   47.5300 C   0  0  0  0  0  0  0  0  0  0  0  0
   58.0890   30.5740   46.5930 N   0  0  0  0  0  0  0  0  0  0  0  0
   57.6030   29.6990   45.6720 C   0  0  0  0  0  0  0  0  0  0  0  0
   56.7550   30.1100   44.8730 N   0  0  0  0  0  0  0  0  0  0  0  0
   60.5920   31.8410   48.1140 C   0  0  0  0  0  0  0  0  0  0  0  0
   61.6790   31.2140   47.5040 C   0  0  0  0  0  0  0  0  0  0  0  0
   62.8240   31.9250   47.2300 C   0  0  0  0  0  0  0  0  0  0  0  0
   62.9770   33.2650   47.5280 C   0  0  0  0  0  0  0  0  0  0  0  0
   64.1120   33.9450   47.2470 F   0  0  0  0  0  0  0  0  0  0  0  0
   61.8780   33.8730   48.1380 C   0  0  0  0  0  0  0  0  0  0  0  0
   60.7200   33.1790   48.4230 C   0  0  0  0  0  0  0  0  0  0  0  0
   59.4360   28.9690   47.5910 N   0  0  0  0  0  0  0  0  0  0  0  0
   58.9630   28.0920   46.6820 C   0  0  0  0  0  0  0  0  0  0  0  0
   59.4600   26.8090   46.7720 C   0  0  0  0  0  0  0  0  0  0  0  0
   58.9860   25.9130   45.8390 C   0  0  0  0  0  0  0  0  0  0  0  0
   58.0860   26.2020   44.8640 C   0  0  0  0  0  0  0  0  0  0  0  0
   57.5880   27.5220   44.7880 C   0  0  0  0  0  0  0  0  0  0  0  0
   58.0510   28.4090   45.7070 C   0  0  0  0  0  0  0  0  0  0  0  0
   60.0468   34.5846   46.3149 H   0  0  0  0  0  0  0  0  0  0  0  0
   60.4388   33.7380   44.7798 H   0  0  0  0  0  0  0  0  0  0  0  0
   59.2712   35.1030   44.7798 H   0  0  0  0  0  0  0  0  0  0  0  0
   58.2093   33.5426   47.6507 H   0  0  0  0  0  0  0  0  0  0  0  0
   57.7275   34.9408   46.6311 H   0  0  0  0  0  0  0  0  0  0  0  0
   56.7337   33.4445   46.6311 H   0  0  0  0  0  0  0  0  0  0  0  0
   56.6693   33.1406   44.6962 H   0  0  0  0  0  0  0  0  0  0  0  0
   57.8877   34.0149   43.7244 H   0  0  0  0  0  0  0  0  0  0  0  0
   58.3726   32.0618   42.6724 H   0  0  0  0  0  0  0  0  0  0  0  0
   58.9717   31.4056   44.2151 H   0  0  0  0  0  0  0  0  0  0  0  0
   56.0040   31.6027   43.7696 H   0  0  0  0  0  0  0  0  0  0  0  0
   57.0299   30.2766   42.9381 H   0  0  0  0  0  0  0  0  0  0  0  0
   57.7750   31.5710   46.5960 H   0  0  0  0  0  0  0  0  0  0  0  0
   61.6200   30.1474   47.2414 H   0  0  0  0  0  0  0  0  0  0  0  0
   63.6616   31.3991   46.7484 H   0  0  0  0  0  0  0  0  0  0  0  0
   61.9373   34.9397   48.3998 H   0  0  0  0  0  0  0  0  0  0  0  0
   59.8824   33.7033   48.9062 H   0  0  0  0  0  0  0  0  0  0  0  0
   60.1380   28.6860   48.3250 H   0  0  0  0  0  0  0  0  0  0  0  0
   60.1903   26.5186   47.5417 H   0  0  0  0  0  0  0  0  0  0  0  0
   59.3666   24.8821   45.8877 H   0  0  0  0  0  0  0  0  0  0  0  0
   57.7542   25.4304   44.1537 H   0  0  0  0  0  0  0  0  0  0  0  0
   56.8586   27.8180   44.0197 H   0  0  0  0  0  0  0  0  0  0  0  0
  1  2  1  0
  2  3  1  0
  2  4  1  0
  4  5  1  0
  5  6  1  0
  6  7  1  0
  7  8  2  0
  8  9  1  0
  9 10  1  0
 10 11  2  0
 11 12  1  0
 12 13  2  0
 13 14  1  0
 14 15  2  0
 15 16  1  0
 15 17  1  0
 17 18  2  0
 10 19  1  0
 19 20  1  0
 20 21  2  0
 21 22  1  0
 22 23  2  0
 23 24  1  0
 24 25  2  0
 25  8  1  0
 18 12  1  0
 25 20  1  0
  1 26  1  0
  1 27  1  0
  1 28  1  0
  3 29  1  0
  3 30  1  0
  3 31  1  0
  4 32  1  0
  4 33  1  0
  5 34  1  0
  5 35  1  0
  6 36  1  0
  6 37  1  0
  9 38  1  0
 13 39  1  0
 14 40  1  0
 17 41  1  0
 18 42  1  0
 19 43  1  0
 21 44  1  0
 22 45  1  0
 23 46  1  0
 24 47  1  0
M  END
>  <smiles>  (3) 
CN(C)CCCN=c1[nH]c(=Nc2ccc(F)cc2)[nH]c2ccccc12

>  <score_type>  (3) 
oracle

>  <origin>  (3) 
adg

>  <m_score__min__energy>  (3) 
-7.9800000000000004

>  <m_primary>  (3) 
energy

$$$$
3:0
     RDKit          3D

 51 54  0  0  0  0  0  0  0  0999 V2000
   60.7494   27.6163   47.3634 H   0  0  0  0  0  0  0  0  0  0  0  0
   60.4140   28.6210   47.6600 C   0  0  0  0  0  0  0  0  0  0  0  0
   60.9490   29.1550   48.7690 C   0  0  0  0  0  0  0  0  0  0  0  0
   61.1679   28.4785   49.6083 H   0  0  0  0  0  0  0  0  0  0  0  0
   61.2660   30.5950   48.9420 C   0  0  0  0  0  0  0  0  0  0  0  0
   62.3920   31.1350   48.3000 C   0  0  0  0  0  0  0  0  0  0  0  0
   62.9764   30.5164   47.6030 H   0  0  0  0  0  0  0  0  0  0  0  0
   62.7700   32.4540   48.5450 C   0  0  0  0  0  0  0  0  0  0  0  0
   63.6477   32.8769   48.0344 H   0  0  0  0  0  0  0  0  0  0  0  0
   62.0580   33.2180   49.4120 N   0  0  0  0  0  0  0  0  0  0  0  0
   60.9570   32.7420   50.0530 C   0  0  0  0  0  0  0  0  0  0  0  0
   60.2520   33.5750   50.9280 C   0  0  0  0  0  0  0  0  0  0  0  0
   60.6010   34.6026   51.1073 H   0  0  0  0  0  0  0  0  0  0  0  0
   59.1060   33.1060   51.5750 C   0  0  0  0  0  0  0  0  0  0  0  0
   58.2260   34.1570   52.6690 Cl  0  0  0  0  0  0  0  0  0  0  0  0
   58.6580   31.8020   51.3480 C   0  0  0  0  0  0  0  0  0  0  0  0
   57.7496   31.4393   51.8511 H   0  0  0  0  0  0  0  0  0  0  0  0
   59.3600   30.9570   50.4840 C   0  0  0  0  0  0  0  0  0  0  0  0
   59.0026   29.9308   50.3130 H   0  0  0  0  0  0  0  0  0  0  0  0
   60.5240   31.4120   49.8300 C   0  0  0  0  0  0  0  0  0  0  0  0
   59.4070   29.2870   46.8100 C   0  0  0  0  0  0  0  0  0  0  0  0
   58.5100   28.5120   46.0670 C   0  0  0  0  0  0  0  0  0  0  0  0
   58.5781   27.4143   46.0886 H   0  0  0  0  0  0  0  0  0  0  0  0
   57.5280   29.1390   45.2980 C   0  0  0  0  0  0  0  0  0  0  0  0
   56.8345   28.5324   44.6970 H   0  0  0  0  0  0  0  0  0  0  0  0
   57.4230   30.4970   45.2870 N   0  0  0  0  0  0  0  0  0  0  0  0
   56.4120   31.0730   44.5520 O   0  0  0  0  0  0  0  0  0  0  0  0
   58.2700   31.2790   46.0220 C   0  0  0  0  0  0  0  0  0  0  0  0
   58.1150   32.7100   46.0440 N   0  0  0  0  0  0  0  0  0  0  0  0
   57.9550   33.4210   44.7710 C   0  0  0  0  0  0  0  0  0  0  0  0
   57.9101   32.6799   43.9594 H   0  0  0  0  0  0  0  0  0  0  0  0
   57.0304   34.0129   44.8399 H   0  0  0  0  0  0  0  0  0  0  0  0
   59.1070   34.4010   44.4770 C   0  0  0  0  0  0  0  0  0  0  0  0
   59.7054   33.9897   43.6507 H   0  0  0  0  0  0  0  0  0  0  0  0
   58.6410   35.3667   44.2318 H   0  0  0  0  0  0  0  0  0  0  0  0
   60.0110   34.6490   45.6240 N   0  0  0  0  0  0  0  0  0  0  0  0
   60.8790   33.4960   45.9140 C   0  0  0  0  0  0  0  0  0  0  0  0
   60.9723   33.3720   47.0030 H   0  0  0  0  0  0  0  0  0  0  0  0
   60.4391   32.5870   45.4779 H   0  0  0  0  0  0  0  0  0  0  0  0
   61.8742   33.6674   45.4779 H   0  0  0  0  0  0  0  0  0  0  0  0
   59.4290   35.2420   46.8610 C   0  0  0  0  0  0  0  0  0  0  0  0
   60.2151   35.8306   47.3566 H   0  0  0  0  0  0  0  0  0  0  0  0
   58.5669   35.8405   46.5314 H   0  0  0  0  0  0  0  0  0  0  0  0
   58.8760   34.2340   47.8840 C   0  0  0  0  0  0  0  0  0  0  0  0
   59.7004   33.5855   48.2152 H   0  0  0  0  0  0  0  0  0  0  0  0
   58.4457   34.8154   48.7128 H   0  0  0  0  0  0  0  0  0  0  0  0
   57.7530   33.3460   47.3210 C   0  0  0  0  0  0  0  0  0  0  0  0
   57.5269   32.5580   48.0545 H   0  0  0  0  0  0  0  0  0  0  0  0
   56.8822   33.9917   47.1344 H   0  0  0  0  0  0  0  0  0  0  0  0
   59.2710   30.6830   46.7990 C   0  0  0  0  0  0  0  0  0  0  0  0
   59.9488   31.3079   47.3991 H   0  0  0  0  0  0  0  0  0  0  0  0
  1  2  1  0
  2  3  2  0
  3  4  1  0
  3  5  1  0
  5  6  2  0
  6  7  1  0
  6  8  1  0
  8  9  1  0
  8 10  2  0
 10 11  1  0
 11 12  2  0
 12 13  1  0
 12 14  1  0
 14 15  1  0
 14 16  2  0
 16 17  1  0
 16 18  1  0
 18 19  1  0
 18 20  2  0
  2 21  1  0
 21 22  2  0
 22 23  1  0
 22 24  1  0
 24 25  1  0
 24 26  2  0
 26 27  1  0
 26 28  1  0
 28 29  1  0
 29 30  1  0
 30 31  1  0
 30 32  1  0
 30 33  1  0
 33 34  1  0
 33 35  1  0
 33 36  1  0
 36 37  1  0
 37 38  1  0
 37 39  1  0
 37 40  1  0
 36 41  1  0
 41 42  1  0
 41 43  1  0
 41 44  1  0
 44 45  1  0
 44 46  1  0
 44 47  1  0
 47 48  1  0
 47 49  1  0
 28 50  2  0
 50 51  1  0
 20  5  1  0
 50 21  1  0
 20 11  1  0
 47 29  1  0
M  CHG  2  26   1  27  -1
M  END
>  <UniqueID>  (4) 
3

>  <SMILES>  (4) 
CN1CCCN(c2cc(/C=C\c3ccnc4cc(Cl)ccc34)cc[n+]2[O-])CC1

>  <Energy>  (4) 
85.98012052681624

>  <Genealogy>  (4) 
CN1CCCN(c2cc(/C=C\c3ccnc4cc(Cl)ccc34)cc[n+]2[O-])CC1 (cis-trans isomerization)
CN1CCCN(c2cc(/C=C\c3ccnc4cc(Cl)ccc34)cc[n+]2[O-])CC1 (3D coordinates assigned)
CN1CCCN(c2cc(/C=C\c3ccnc4cc(Cl)ccc34)cc[n+]2[O-])CC1 (nonaromatic ring conformer: 85.98012052681624 kcal/mol)

>  <smiles>  (4) 
CN1CCCN(c2cc(C=Cc3ccnc4cc(Cl)ccc34)cc[n+]2[O-])CC1

>  <score_type>  (4) 
oracle

>  <origin>  (4) 
adg

>  <m_score__min__energy>  (4) 
-7.3399999999999999

>  <m_primary>  (4) 
energy

$$$$
4:0
     RDKit          3D

 46 48  0  0  0  0  0  0  0  0999 V2000
   55.6650   27.0862   46.5267 H   0  0  0  0  0  0  0  0  0  0  0  0
   56.5490   26.6830   46.0110 C   0  0  0  0  0  0  0  0  0  0  0  0
   57.7030   27.3780   46.0990 C   0  0  0  0  0  0  0  0  0  0  0  0
   57.7110   28.8330   45.7830 C   0  0  0  0  0  0  0  0  0  0  0  0
   56.6200   29.4410   45.5980 O   0  0  0  0  0  0  0  0  0  0  0  0
   58.9970   29.5770   45.6910 C   0  0  0  0  0  0  0  0  0  0  0  0
   59.0040   30.8540   45.2540 C   0  0  0  0  0  0  0  0  0  0  0  0
   58.7967   31.0392   44.1897 H   0  0  0  0  0  0  0  0  0  0  0  0
   59.2740   32.0160   46.1230 C   0  0  0  0  0  0  0  0  0  0  0  0
   60.2770   31.9090   47.1000 C   0  0  0  0  0  0  0  0  0  0  0  0
   60.8569   30.9784   47.1879 H   0  0  0  0  0  0  0  0  0  0  0  0
   60.5430   32.9750   47.9600 C   0  0  0  0  0  0  0  0  0  0  0  0
   61.3370   32.8860   48.7161 H   0  0  0  0  0  0  0  0  0  0  0  0
   59.8040   34.1520   47.8620 C   0  0  0  0  0  0  0  0  0  0  0  0
   60.0180   34.9918   48.5395 H   0  0  0  0  0  0  0  0  0  0  0  0
   58.7920   34.2690   46.9060 C   0  0  0  0  0  0  0  0  0  0  0  0
   58.2094   35.1998   46.8408 H   0  0  0  0  0  0  0  0  0  0  0  0
   58.5100   33.2060   46.0240 C   0  0  0  0  0  0  0  0  0  0  0  0
   57.4070   33.3410   44.9930 C   0  0  0  0  0  0  0  0  0  0  0  0
   56.7920   34.5720   45.1250 F   0  0  0  0  0  0  0  0  0  0  0  0
   57.9450   33.2350   43.7230 F   0  0  0  0  0  0  0  0  0  0  0  0
   56.4430   32.3580   45.1380 F   0  0  0  0  0  0  0  0  0  0  0  0
   60.2910   28.8310   45.9520 C   0  0  0  0  0  0  0  0  0  0  0  0
   61.0171   29.5227   46.4040 H   0  0  0  0  0  0  0  0  0  0  0  0
   60.6640   28.4422   44.9930 H   0  0  0  0  0  0  0  0  0  0  0  0
   60.0770   27.6490   46.8970 C   0  0  0  0  0  0  0  0  0  0  0  0
   59.7400   28.0270   47.8735 H   0  0  0  0  0  0  0  0  0  0  0  0
   61.0291   27.1074   46.9978 H   0  0  0  0  0  0  0  0  0  0  0  0
   59.0270   26.6830   46.3470 C   0  0  0  0  0  0  0  0  0  0  0  0
   58.8734   25.8716   47.0737 H   0  0  0  0  0  0  0  0  0  0  0  0
   59.3926   26.2881   45.3876 H   0  0  0  0  0  0  0  0  0  0  0  0
   56.3970   25.4180   45.2680 C   0  0  0  0  0  0  0  0  0  0  0  0
   55.4110   24.4870   45.6290 C   0  0  0  0  0  0  0  0  0  0  0  0
   54.7628   24.6841   46.4956 H   0  0  0  0  0  0  0  0  0  0  0  0
   55.2490   23.3100   44.8920 C   0  0  0  0  0  0  0  0  0  0  0  0
   54.4837   22.5781   45.1896 H   0  0  0  0  0  0  0  0  0  0  0  0
   56.0620   23.0580   43.7700 C   0  0  0  0  0  0  0  0  0  0  0  0
   55.9410   21.8930   43.0000 O   0  0  0  0  0  0  0  0  0  0  0  0
   56.7340   20.7240   43.1800 C   0  0  0  0  0  0  0  0  0  0  0  0
   56.8646   20.5315   44.2551 H   0  0  0  0  0  0  0  0  0  0  0  0
   56.2317   19.8646   42.7120 H   0  0  0  0  0  0  0  0  0  0  0  0
   57.7183   20.8730   42.7120 H   0  0  0  0  0  0  0  0  0  0  0  0
   57.0270   24.0020   43.4010 C   0  0  0  0  0  0  0  0  0  0  0  0
   57.6645   23.8157   42.5242 H   0  0  0  0  0  0  0  0  0  0  0  0
   57.1880   25.1800   44.1370 C   0  0  0  0  0  0  0  0  0  0  0  0
   57.9383   25.9221   43.8267 H   0  0  0  0  0  0  0  0  0  0  0  0
  1  2  1  0
  2  3  2  0
  3  4  1  0
  4  5  2  0
  4  6  1  0
  6  7  2  0
  7  8  1  0
  7  9  1  0
  9 10  2  0
 10 11  1  0
 10 12  1  0
 12 13  1  0
 12 14  2  0
 14 15  1  0
 14 16  1  0
 16 17  1  0
 16 18  2  0
 18 19  1  0
 19 20  1  0
 19 21  1  0
 19 22  1  0
  6 23  1  0
 23 24  1  0
 23 25  1  0
 23 26  1  0
 26 27  1  0
 26 28  1  0
 26 29  1  0
 29 30  1  0
 29 31  1  0
  2 32  1  0
 32 33  2  0
 33 34  1  0
 33 35  1  0
 35 36  1  0
 35 37  2  0
 37 38  1  0
 38 39  1  0
 39 40  1  0
 39 41  1  0
 39 42  1  0
 37 43  1  0
 43 44  1  0
 43 45  2  0
 45 46  1  0
 29  3  1  0
 45 32  1  0
 18  9  1  0
M  END
>  <UniqueID>  (5) 
4

>  <SMILES>  (5) 
COc1ccc(/C=C2\CCC/C(=C\c3ccccc3C(F)(F)F)C2=O)cc1

>  <Energy>  (5) 
65.20978651756795

>  <Genealogy>  (5) 
COc1ccc(/C=C2\CCC/C(=C\c3ccccc3C(F)(F)F)C2=O)cc1 (cis-trans isomerization)
COc1ccc(/C=C2\CCC/C(=C\c3ccccc3C(F)(F)F)C2=O)cc1 (3D coordinates assigned)
COc1ccc(/C=C2\CCC/C(=C\c3ccccc3C(F)(F)F)C2=O)cc1 (nonaromatic ring conformer: 65.20978651756795 kcal/mol)

>  <smiles>  (5) 
COc1ccc(C=C2CCCC(=Cc3ccccc3C(F)(F)F)C2=O)cc1

>  <score_type>  (5) 
oracle

>  <origin>  (5) 
adg

>  <m_score__min__energy>  (5) 
-8.6799999999999997

>  <m_primary>  (5) 
energy

$$$$
5:0
     RDKit          3D

 32 34  0  0  0  0  0  0  0  0999 V2000
   54.8680   30.3460   45.1110 H   0  0  0  0  0  0  0  0  0  0  0  0
   55.1450   29.3690   44.8690 N   0  0  0  0  0  0  0  0  0  0  0  0
   56.3050   28.8990   45.2000 C   0  0  0  0  0  0  0  0  0  0  0  0
   56.4990   27.5970   45.5370 N   0  0  0  0  0  0  0  0  0  0  0  0
   57.8230   27.5560   45.7880 C   0  0  0  0  0  0  0  0  0  0  0  0
   58.5800   26.4500   46.1660 C   0  0  0  0  0  0  0  0  0  0  0  0
   58.1136   25.4644   46.3113 H   0  0  0  0  0  0  0  0  0  0  0  0
   59.9630   26.6360   46.3560 C   0  0  0  0  0  0  0  0  0  0  0  0
   60.5925   25.7860   46.6580 H   0  0  0  0  0  0  0  0  0  0  0  0
   60.5470   27.9080   46.1610 C   0  0  0  0  0  0  0  0  0  0  0  0
   61.6289   28.0405   46.3090 H   0  0  0  0  0  0  0  0  0  0  0  0
   59.7550   29.0060   45.7790 C   0  0  0  0  0  0  0  0  0  0  0  0
   60.1973   30.0010   45.6231 H   0  0  0  0  0  0  0  0  0  0  0  0
   58.3880   28.7870   45.6050 C   0  0  0  0  0  0  0  0  0  0  0  0
   57.4320   29.6520   45.2340 N   0  0  0  0  0  0  0  0  0  0  0  0
   57.6220   31.3380   44.8550 S   0  0  0  0  0  0  0  0  0  0  0  0
   58.4920   31.4920   43.6400 O   0  0  0  0  0  0  0  0  0  0  0  0
   56.2630   31.9090   44.5570 O   0  0  0  0  0  0  0  0  0  0  0  0
   58.3690   32.1960   46.2130 C   0  0  0  0  0  0  0  0  0  0  0  0
   58.5840   31.5020   47.4160 C   0  0  0  0  0  0  0  0  0  0  0  0
   58.2983   30.4425   47.4917 H   0  0  0  0  0  0  0  0  0  0  0  0
   59.1560   32.1430   48.5150 C   0  0  0  0  0  0  0  0  0  0  0  0
   59.3160   31.5891   49.4518 H   0  0  0  0  0  0  0  0  0  0  0  0
   59.5250   33.4840   48.4280 C   0  0  0  0  0  0  0  0  0  0  0  0
   59.9666   33.9898   49.2993 H   0  0  0  0  0  0  0  0  0  0  0  0
   59.3350   34.1860   47.2370 C   0  0  0  0  0  0  0  0  0  0  0  0
   59.6280   35.2445   47.1755 H   0  0  0  0  0  0  0  0  0  0  0  0
   58.7720   33.5520   46.1140 C   0  0  0  0  0  0  0  0  0  0  0  0
   58.5820   34.3490   44.8510 C   0  0  0  0  0  0  0  0  0  0  0  0
   58.3340   35.3894   45.1078 H   0  0  0  0  0  0  0  0  0  0  0  0
   59.5103   34.3282   44.2612 H   0  0  0  0  0  0  0  0  0  0  0  0
   57.7629   33.9117   44.2612 H   0  0  0  0  0  0  0  0  0  0  0  0
  1  2  1  0
  2  3  2  0
  3  4  1  0
  4  5  1  0
  5  6  2  0
  6  7  1  0
  6  8  1  0
  8  9  1  0
  8 10  2  0
 10 11  1  0
 10 12  1  0
 12 13  1  0
 12 14  2  0
 14 15  1  0
 15 16  1  0
 16 17  2  0
 16 18  2  0
 16 19  1  0
 19 20  2  0
 20 21  1  0
 20 22  1  0
 22 23  1  0
 22 24  2  0
 24 25  1  0
 24 26  1  0
 26 27  1  0
 26 28  2  0
 28 29  1  0
 29 30  1  0
 29 31  1  0
 29 32  1  0
 15  3  1  0
 28 19  1  0
 14  5  1  0
M  CHG  1   4  -1
M  END
>  <UniqueID>  (6) 
5

>  <SMILES>  (6) 
[H]/N=c1\[n-]c2ccccc2n1S(=O)(=O)c1ccccc1C

>  <Energy>  (6) 
76.54223907430908

>  <Genealogy>  (6) 
Cc1ccccc1S(=O)(=O)n1c(=N)[n-]c2ccccc21 (protonated)
[H]/N=c1\[n-]c2ccccc2n1S(=O)(=O)c1ccccc1C (cis-trans isomerization)
[H]/N=c1\[n-]c2ccccc2n1S(=O)(=O)c1ccccc1C (3D coordinates assigned)
[H]/N=c1\[n-]c2ccccc2n1S(=O)(=O)c1ccccc1C (optimized conformer: 76.54223907430908 kcal/mol)

>  <smiles>  (6) 
Cc1ccccc1S(=O)(=O)n1c(=N)[nH]c2ccccc21

>  <score_type>  (6) 
oracle

>  <origin>  (6) 
adg

>  <m_score__min__energy>  (6) 
-9.9199999999999999

>  <m_primary>  (6) 
energy

$$$$
6:0
     RDKit          3D

 35 37  0  0  0  0  0  0  0  0999 V2000
   54.2544   24.2790   45.9091 H   0  0  0  0  0  0  0  0  0  0  0  0
   55.2590   24.7240   45.8570 C   0  0  0  0  0  0  0  0  0  0  0  0
   55.4110   26.0690   45.9460 N   0  0  0  0  0  0  0  0  0  0  0  0
   56.6240   26.6850   45.8860 C   0  0  0  0  0  0  0  0  0  0  0  0
   56.6340   27.9860   45.9980 N   0  0  0  0  0  0  0  0  0  0  0  0
   57.2060   29.2040   44.8960 S   0  0  0  0  0  0  0  0  0  0  0  0
   57.5840   28.5600   43.5920 O   0  0  0  0  0  0  0  0  0  0  0  0
   56.0930   30.1820   44.6450 O   0  0  0  0  0  0  0  0  0  0  0  0
   58.5680   30.0830   45.5870 C   0  0  0  0  0  0  0  0  0  0  0  0
   58.4740   31.4620   45.8120 C   0  0  0  0  0  0  0  0  0  0  0  0
   57.5404   31.9939   45.5764 H   0  0  0  0  0  0  0  0  0  0  0  0
   59.5630   32.1640   46.3350 C   0  0  0  0  0  0  0  0  0  0  0  0
   59.4812   33.2477   46.5053 H   0  0  0  0  0  0  0  0  0  0  0  0
   60.7630   31.4990   46.6460 C   0  0  0  0  0  0  0  0  0  0  0  0
   61.8790   32.2390   47.1810 N   0  0  0  0  0  0  0  0  0  0  0  0
   63.1440   31.8610   47.0930 N   0  0  0  0  0  0  0  0  0  0  0  0
   63.8910   32.7750   47.6910 N   0  0  0  0  0  0  0  0  0  0  0  0
   64.9300   32.7300   47.7710 H   0  0  0  0  0  0  0  0  0  0  0  0
   63.1420   33.7540   48.1750 N   0  0  0  0  0  0  0  0  0  0  0  0
   61.8800   33.4100   47.8510 C   0  0  0  0  0  0  0  0  0  0  0  0
   60.9829   33.9974   48.0966 H   0  0  0  0  0  0  0  0  0  0  0  0
   60.8450   30.1110   46.4250 C   0  0  0  0  0  0  0  0  0  0  0  0
   61.7739   29.5735   46.6663 H   0  0  0  0  0  0  0  0  0  0  0  0
   59.7540   29.4110   45.9010 C   0  0  0  0  0  0  0  0  0  0  0  0
   59.8287   28.3262   45.7348 H   0  0  0  0  0  0  0  0  0  0  0  0
   57.7910   25.8870   45.7160 C   0  0  0  0  0  0  0  0  0  0  0  0
   59.0630   26.4730   45.6320 O   0  0  0  0  0  0  0  0  0  0  0  0
   60.2130   26.0420   46.3520 C   0  0  0  0  0  0  0  0  0  0  0  0
   60.0180   26.1151   47.4321 H   0  0  0  0  0  0  0  0  0  0  0  0
   60.4396   24.9979   46.0901 H   0  0  0  0  0  0  0  0  0  0  0  0
   61.0700   26.6800   46.0901 H   0  0  0  0  0  0  0  0  0  0  0  0
   57.6370   24.4890   45.6290 C   0  0  0  0  0  0  0  0  0  0  0  0
   58.5235   23.8499   45.5038 H   0  0  0  0  0  0  0  0  0  0  0  0
   56.3730   23.9090   45.7000 C   0  0  0  0  0  0  0  0  0  0  0  0
   56.2578   22.8171   45.6325 H   0  0  0  0  0  0  0  0  0  0  0  0
  1  2  1  0
  2  3  1  0
  3  4  1  0
  4  5  2  0
  5  6  1  0
  6  7  2  0
  6  8  2  0
  6  9  1  0
  9 10  2  0
 10 11  1  0
 10 12  1  0
 12 13  1  0
 12 14  2  0
 14 15  1  0
 15 16  1  0
 16 17  2  0
 17 18  1  0
 17 19  1  0
 19 20  2  0
 20 21  1  0
 14 22  1  0
 22 23  1  0
 22 24  2  0
 24 25  1  0
  4 26  1  0
 26 27  1  0
 27 28  1  0
 28 29  1  0
 28 30  1  0
 28 31  1  0
 26 32  2  0
 32 33  1  0
 32 34  1  0
 34 35  1  0
 34  2  2  0
 24  9  1  0
 20 15  1  0
M  CHG  2   3  -1  17   1
M  END
>  <UniqueID>  (7) 
6

>  <SMILES>  (7) 
COc1ccc[n-]/c1=N/S(=O)(=O)c1ccc(-n2cn[nH+]n2)cc1

>  <Energy>  (7) 
88.72964275166288

>  <Genealogy>  (7) 
COc1ccc[n-]c1=NS(=O)(=O)c1ccc(-n2cn[nH+]n2)cc1 (protonated)
COc1ccc[n-]/c1=N/S(=O)(=O)c1ccc(-n2cn[nH+]n2)cc1 (cis-trans isomerization)
COc1ccc[n-]/c1=N/S(=O)(=O)c1ccc(-n2cn[nH+]n2)cc1 (3D coordinates assigned)
COc1ccc[n-]/c1=N/S(=O)(=O)c1ccc(-n2cn[nH+]n2)cc1 (optimized conformer: 88.72964275166288 kcal/mol)

>  <smiles>  (7) 
COc1ccc[nH]c1=NS(=O)(=O)c1ccc(-n2cnnn2)cc1

>  <score_type>  (7) 
oracle

>  <origin>  (7) 
adg

>  <m_score__min__energy>  (7) 
-8.6199999999999992

>  <m_primary>  (7) 
energy

$$$$
7:0
     RDKit          3D

 33 35  0  0  0  0  0  0  0  0999 V2000
   56.4110   29.4800   42.6310 C   0  0  0  0  0  0  0  0  0  0  0  0
   57.2810   29.4750   43.8010 N   0  0  0  0  0  0  0  0  0  0  0  0
   58.2880   28.4650   44.1120 C   0  0  0  0  0  0  0  0  0  0  0  0
   58.9320   28.9150   45.4500 C   0  0  0  0  0  0  0  0  0  0  0  0
   58.2200   30.1270   45.8440 N   0  0  0  0  0  0  0  0  0  0  0  0
   58.5130   30.9400   47.0230 C   0  0  0  0  0  0  0  0  0  0  0  0
   59.1990   32.2540   46.6730 C   0  0  0  0  0  0  0  0  0  0  0  0
   58.4380   33.3530   46.2260 C   0  0  0  0  0  0  0  0  0  0  0  0
   59.0630   34.5550   45.8990 C   0  0  0  0  0  0  0  0  0  0  0  0
   60.4050   34.6860   46.0330 N   0  0  0  0  0  0  0  0  0  0  0  0
   61.1820   33.6740   46.4970 C   0  0  0  0  0  0  0  0  0  0  0  0
   62.5590   33.8750   46.6360 C   0  0  0  0  0  0  0  0  0  0  0  0
   63.3700   32.8580   47.1400 C   0  0  0  0  0  0  0  0  0  0  0  0
   62.8080   31.6370   47.5150 C   0  0  0  0  0  0  0  0  0  0  0  0
   61.4350   31.4200   47.3770 C   0  0  0  0  0  0  0  0  0  0  0  0
   60.5980   32.4290   46.8500 C   0  0  0  0  0  0  0  0  0  0  0  0
   57.2750   30.4270   44.8400 C   0  0  0  0  0  0  0  0  0  0  0  0
   56.5140   31.4310   44.8680 O   0  0  0  0  0  0  0  0  0  0  0  0
   55.3600   29.4860   42.9556 H   0  0  0  0  0  0  0  0  0  0  0  0
   56.6135   30.3770   42.0273 H   0  0  0  0  0  0  0  0  0  0  0  0
   56.6032   28.5807   42.0273 H   0  0  0  0  0  0  0  0  0  0  0  0
   57.8183   27.4768   44.2253 H   0  0  0  0  0  0  0  0  0  0  0  0
   59.0359   28.3760   43.3103 H   0  0  0  0  0  0  0  0  0  0  0  0
   58.8119   28.1339   46.2151 H   0  0  0  0  0  0  0  0  0  0  0  0
   60.0114   29.0962   45.3400 H   0  0  0  0  0  0  0  0  0  0  0  0
   57.5684   31.1628   47.5408 H   0  0  0  0  0  0  0  0  0  0  0  0
   59.2001   30.3653   47.6614 H   0  0  0  0  0  0  0  0  0  0  0  0
   57.3456   33.2615   46.1348 H   0  0  0  0  0  0  0  0  0  0  0  0
   58.4643   35.4010   45.5305 H   0  0  0  0  0  0  0  0  0  0  0  0
   63.0042   34.8385   46.3469 H   0  0  0  0  0  0  0  0  0  0  0  0
   64.4534   33.0187   47.2419 H   0  0  0  0  0  0  0  0  0  0  0  0
   63.4496   30.8412   47.9214 H   0  0  0  0  0  0  0  0  0  0  0  0
   61.0019   30.4557   47.6811 H   0  0  0  0  0  0  0  0  0  0  0  0
  1  2  1  0
  2  3  1  0
  3  4  1  0
  4  5  1  0
  5  6  1  0
  6  7  1  0
  7  8  2  0
  8  9  1  0
  9 10  2  0
 10 11  1  0
 11 12  2  0
 12 13  1  0
 13 14  2  0
 14 15  1  0
 15 16  2  0
  5 17  1  0
 17 18  2  0
 17  2  1  0
 16  7  1  0
 16 11  1  0
  1 19  1  0
  1 20  1  0
  1 21  1  0
  3 22  1  0
  3 23  1  0
  4 24  1  0
  4 25  1  0
  6 26  1  0
  6 27  1  0
  8 28  1  0
  9 29  1  0
 12 30  1  0
 13 31  1  0
 14 32  1  0
 15 33  1  0
M  END
>  <UniqueID>  (8) 
7

>  <SMILES>  (8) 
CN1CCN(Cc2ccnc3ccccc23)C1=O

>  <Energy>  (8) 
51.36533136235411

>  <Genealogy>  (8) 
CN1CCN(Cc2ccnc3ccccc23)C1=O (3D coordinates assigned)
CN1CCN(Cc2ccnc3ccccc23)C1=O (nonaromatic ring conformer: 51.36533136235411 kcal/mol)

>  <smiles>  (8) 
CN1CCN(Cc2ccnc3ccccc23)C1=O

>  <score_type>  (8) 
oracle

>  <origin>  (8) 
adg

>  <m_score__min__energy>  (8) 
-6.5700000000000003

>  <m_primary>  (8) 
energy

$$$$
8:0
     RDKit          3D

 34 36  0  0  0  0  0  0  0  0999 V2000
   59.3909   35.5455   44.8966 H   0  0  0  0  0  0  0  0  0  0  0  0
   59.1480   34.4910   45.0940 C   0  0  0  0  0  0  0  0  0  0  0  0
   58.0620   33.8930   44.4540 C   0  0  0  0  0  0  0  0  0  0  0  0
   57.4478   34.4774   43.7531 H   0  0  0  0  0  0  0  0  0  0  0  0
   57.7530   32.5520   44.7020 C   0  0  0  0  0  0  0  0  0  0  0  0
   56.8945   32.0880   44.1944 H   0  0  0  0  0  0  0  0  0  0  0  0
   58.5300   31.7900   45.5950 C   0  0  0  0  0  0  0  0  0  0  0  0
   58.1950   30.3660   45.8550 C   0  0  0  0  0  0  0  0  0  0  0  0
   59.1880   29.2660   46.6900 S   0  0  0  0  0  0  0  0  0  0  0  0
   58.1350   27.9690   46.5500 C   0  0  0  0  0  0  0  0  0  0  0  0
   58.2540   26.6650   47.0070 C   0  0  0  0  0  0  0  0  0  0  0  0
   59.2750   26.2830   47.6360 O   0  0  0  0  0  0  0  0  0  0  0  0
   57.2340   25.7990   46.7560 N   0  0  0  0  0  0  0  0  0  0  0  0
   56.1110   26.1900   46.0750 C   0  0  0  0  0  0  0  0  0  0  0  0
   55.1410   25.3510   45.8420 N   0  0  0  0  0  0  0  0  0  0  0  0
   55.1980   24.1050   45.0640 C   0  0  0  0  0  0  0  0  0  0  0  0
   55.4759   23.2977   45.7575 H   0  0  0  0  0  0  0  0  0  0  0  0
   53.8280   23.7400   44.4800 C   0  0  0  0  0  0  0  0  0  0  0  0
   53.1187   23.5510   45.2993 H   0  0  0  0  0  0  0  0  0  0  0  0
   53.4600   24.5714   43.8609 H   0  0  0  0  0  0  0  0  0  0  0  0
   53.9225   22.8357   43.8609 H   0  0  0  0  0  0  0  0  0  0  0  0
   56.2870   24.1610   43.9850 C   0  0  0  0  0  0  0  0  0  0  0  0
   57.2758   24.2118   44.4643 H   0  0  0  0  0  0  0  0  0  0  0  0
   56.2292   23.2587   43.3585 H   0  0  0  0  0  0  0  0  0  0  0  0
   56.1369   25.0526   43.3585 H   0  0  0  0  0  0  0  0  0  0  0  0
   56.0010   27.4790   45.6270 N   0  0  0  0  0  0  0  0  0  0  0  0
   55.1480   27.7870   45.1070 H   0  0  0  0  0  0  0  0  0  0  0  0
   57.0080   28.3610   45.8640 C   0  0  0  0  0  0  0  0  0  0  0  0
   57.0210   29.7010   45.4660 C   0  0  0  0  0  0  0  0  0  0  0  0
   56.2024   30.1812   44.9098 H   0  0  0  0  0  0  0  0  0  0  0  0
   59.6220   32.4090   46.2370 C   0  0  0  0  0  0  0  0  0  0  0  0
   60.2394   31.8324   46.9415 H   0  0  0  0  0  0  0  0  0  0  0  0
   59.9260   33.7500   45.9850 C   0  0  0  0  0  0  0  0  0  0  0  0
   60.7810   34.2227   46.4905 H   0  0  0  0  0  0  0  0  0  0  0  0
  1  2  1  0
  2  3  2  0
  3  4  1  0
  3  5  1  0
  5  6  1  0
  5  7  2  0
  7  8  1  0
  8  9  1  0
  9 10  1  0
 10 11  1  0
 11 12  2  0
 11 13  1  0
 13 14  1  0
 14 15  2  0
 15 16  1  0
 16 17  1  0
 16 18  1  0
 18 19  1  0
 18 20  1  0
 18 21  1  0
 16 22  1  0
 22 23  1  0
 22 24  1  0
 22 25  1  0
 14 26  1  0
 26 27  1  0
 26 28  1  0
 28 29  1  0
 29 30  1  0
  7 31  1  0
 31 32  1  0
 31 33  2  0
 33 34  1  0
 33  2  1  0
 29  8  2  0
 28 10  2  0
M  CHG  1  13  -1
M  END
>  <UniqueID>  (9) 
8

>  <SMILES>  (9) 
CC(C)/N=c1\[n-]c(=O)c2sc(-c3ccccc3)cc2[nH]1

>  <Energy>  (9) 
69.53904711236628

>  <Genealogy>  (9) 
CC(C)N=c1[n-]c(=O)c2sc(-c3ccccc3)cc2[nH]1 (protonated)
CC(C)/N=c1\[n-]c(=O)c2sc(-c3ccccc3)cc2[nH]1 (cis-trans isomerization)
CC(C)/N=c1\[n-]c(=O)c2sc(-c3ccccc3)cc2[nH]1 (3D coordinates assigned)
CC(C)/N=c1\[n-]c(=O)c2sc(-c3ccccc3)cc2[nH]1 (optimized conformer: 69.53904711236628 kcal/mol)

>  <smiles>  (9) 
CC(C)N=c1[nH]c(=O)c2sc(-c3ccccc3)cc2[nH]1

>  <score_type>  (9) 
oracle

>  <origin>  (9) 
adg

>  <m_score__min__energy>  (9) 
-9.2300000000000004

>  <m_primary>  (9) 
energy

$$$$
9:0
     RDKit          3D

 37 39  0  0  1  0  0  0  0  0999 V2000
   55.0010   25.9830   45.9920 O   0  0  0  0  0  0  0  0  0  0  0  0
   56.0140   25.1120   45.6660 C   0  0  0  0  0  0  0  0  0  0  0  0
   57.3330   25.4370   46.3630 C   0  0  0  0  0  0  0  0  0  0  0  0
   59.4400   30.7160   46.6410 N   0  0  0  0  0  0  0  0  0  0  0  0
   58.6440   29.9350   46.1330 C   0  0  0  0  0  0  0  0  0  0  0  0
   58.3910   28.7600   46.7790 N   0  0  0  0  0  0  0  0  0  0  0  0
   57.5460   27.8360   46.3180 C   0  0  0  0  0  0  0  0  0  0  0  0
   57.3400   26.7510   46.9570 N   0  0  0  0  0  0  0  0  0  0  0  0
   59.4100   32.0540   46.8300 C   0  0  0  0  0  0  0  0  0  0  0  0
   58.1940   32.7080   47.0540 C   0  0  0  0  0  0  0  0  0  0  0  0
   58.1900   34.1010   47.1290 C   0  0  0  0  0  0  0  0  0  0  0  0
   59.3700   34.8320   46.9850 C   0  0  0  0  0  0  0  0  0  0  0  0
   60.5660   34.1790   46.7640 C   0  0  0  0  0  0  0  0  0  0  0  0
   60.6010   32.8070   46.6850 C   0  0  0  0  0  0  0  0  0  0  0  0
   57.9940   30.1660   44.9570 C   0  0  0  0  0  0  0  0  0  0  0  0
   58.1890   31.3130   44.2470 C   0  0  0  0  0  0  0  0  0  0  0  0
   57.5050   31.5290   43.0350 C   0  0  0  0  0  0  0  0  0  0  0  0
   56.6630   30.5330   42.6440 C   0  0  0  0  0  0  0  0  0  0  0  0
   56.4470   29.3710   43.3340 C   0  0  0  0  0  0  0  0  0  0  0  0
   57.1320   29.1970   44.5110 C   0  0  0  0  0  0  0  0  0  0  0  0
   56.8940   28.0370   45.1670 N   0  0  0  0  0  0  0  0  0  0  0  0
   55.1410   26.3450   46.9070 H   0  0  0  0  0  0  0  0  0  0  0  0
   55.7075   24.0955   45.9538 H   0  0  0  0  0  0  0  0  0  0  0  0
   56.1857   25.2002   44.5831 H   0  0  0  0  0  0  0  0  0  0  0  0
   57.5057   24.6924   47.1540 H   0  0  0  0  0  0  0  0  0  0  0  0
   58.1260   25.4128   45.6010 H   0  0  0  0  0  0  0  0  0  0  0  0
   58.8750   28.5660   47.6710 H   0  0  0  0  0  0  0  0  0  0  0  0
   57.2612   32.1364   47.1685 H   0  0  0  0  0  0  0  0  0  0  0  0
   57.2423   34.6313   47.3043 H   0  0  0  0  0  0  0  0  0  0  0  0
   59.3471   35.9300   47.0477 H   0  0  0  0  0  0  0  0  0  0  0  0
   61.4941   34.7584   46.6507 H   0  0  0  0  0  0  0  0  0  0  0  0
   61.5570   32.2922   46.5086 H   0  0  0  0  0  0  0  0  0  0  0  0
   58.8861   32.0760   44.6236 H   0  0  0  0  0  0  0  0  0  0  0  0
   57.6424   32.4449   42.4415 H   0  0  0  0  0  0  0  0  0  0  0  0
   56.1142   30.6731   41.7010 H   0  0  0  0  0  0  0  0  0  0  0  0
   55.7511   28.6057   42.9598 H   0  0  0  0  0  0  0  0  0  0  0  0
   56.2310   27.3150   44.8040 H   0  0  0  0  0  0  0  0  0  0  0  0
  1  2  1  0
  2  3  1  0
  3  4  1  0
  4  5  2  0
  5  6  1  0
  6  7  1  0
  7  8  2  0
  8  9  1  0
  9 10  2  0
 10 11  1  0
 11 12  2  0
 12 13  1  0
 13 14  2  0
  7 15  1  0
 15 16  2  0
 16 17  1  0
 17 18  2  0
 18 19  1  0
 19 20  2  0
 20 21  1  0
 21  5  1  0
 14  9  1  0
 20 15  1  0
  1 22  1  0
  2 23  1  0
  2 24  1  0
  3 25  1  0
  3 26  1  0
  6 27  1  0
 10 28  1  0
 11 29  1  0
 12 30  1  0
 13 31  1  0
 14 32  1  0
 16 33  1  0
 17 34  1  0
 18 35  1  0
 19 36  1  0
 21 37  1  0
M  END
>  <smiles>  (10) 
OCCN=c1[nH]c(=Nc2ccccc2)c2ccccc2[nH]1

>  <score_type>  (10) 
oracle

>  <origin>  (10) 
adg

>  <m_score__min__energy>  (10) 
-7.7699999999999996

>  <m_primary>  (10) 
energy

$$$$
10:0
     RDKit          3D

 49 52  0  0  1  0  0  0  0  0999 V2000
   56.5050   29.6000   42.8080 N   0  0  0  0  0  0  0  0  0  0  0  0
   56.3840   29.6950   44.2160 C   0  0  0  0  0  0  0  0  0  0  0  0
   55.2960   29.4020   44.7710 O   0  0  0  0  0  0  0  0  0  0  0  0
   57.5360   30.1370   45.0080 C   0  0  0  0  0  0  0  0  0  0  0  0
   58.4810   29.2670   45.4740 C   0  0  0  0  0  0  0  0  0  0  0  0
   59.5710   29.6830   46.2210 C   0  0  0  0  0  0  0  0  0  0  0  0
   59.7180   31.0350   46.5140 C   0  0  0  0  0  0  0  0  0  0  0  0
   58.7750   31.9260   46.0520 C   0  0  0  0  0  0  0  0  0  0  0  0
   58.9110   33.2650   46.3380 C   0  0  0  0  0  0  0  0  0  0  0  0
   59.8890   33.6950   47.0180 N   0  0  0  0  0  0  0  0  0  0  0  0
   59.9400   34.0590   48.3940 C   0  0  0  0  0  0  0  0  0  0  0  0
   59.8870   32.9190   49.3370 C   0  0  0  0  0  0  0  0  0  0  0  0
   61.0660   32.5210   49.9340 C   0  0  0  0  0  0  0  0  0  0  0  0
   61.1380   31.4740   50.8300 C   0  0  0  0  0  0  0  0  0  0  0  0
   59.9840   30.7810   51.1580 C   0  0  0  0  0  0  0  0  0  0  0  0
   58.7930   31.1770   50.5620 C   0  0  0  0  0  0  0  0  0  0  0  0
   57.5810   30.4900   50.8710 N   0  0  0  0  0  0  0  0  0  0  0  0
   56.6100   31.1700   51.6490 C   0  0  0  0  0  0  0  0  0  0  0  0
   56.9230   32.3580   52.0050 O   0  0  0  0  0  0  0  0  0  0  0  0
   55.3340   30.5740   52.0290 C   0  0  0  0  0  0  0  0  0  0  0  0
   55.2280   29.4130   52.7630 C   0  0  0  0  0  0  0  0  0  0  0  0
   53.9710   28.9340   53.0690 C   0  0  0  0  0  0  0  0  0  0  0  0
   52.8080   29.5640   52.6740 C   0  0  0  0  0  0  0  0  0  0  0  0
   51.5810   29.0710   52.9880 F   0  0  0  0  0  0  0  0  0  0  0  0
   52.9200   30.7350   51.9340 C   0  0  0  0  0  0  0  0  0  0  0  0
   51.7760   31.3390   51.5550 F   0  0  0  0  0  0  0  0  0  0  0  0
   54.1760   31.2100   51.6300 C   0  0  0  0  0  0  0  0  0  0  0  0
   58.7510   32.2280   49.6660 C   0  0  0  0  0  0  0  0  0  0  0  0
   58.0060   34.1540   45.9000 N   0  0  0  0  0  0  0  0  0  0  0  0
   56.9710   33.7210   45.1830 C   0  0  0  0  0  0  0  0  0  0  0  0
   56.8180   32.4080   44.8920 N   0  0  0  0  0  0  0  0  0  0  0  0
   57.6980   31.4780   45.3090 C   0  0  0  0  0  0  0  0  0  0  0  0
   57.4290   29.3830   42.3450 H   0  0  0  0  0  0  0  0  0  0  0  0
   55.7020   29.7360   42.1460 H   0  0  0  0  0  0  0  0  0  0  0  0
   58.3722   28.1961   45.2475 H   0  0  0  0  0  0  0  0  0  0  0  0
   60.3118   28.9526   46.5784 H   0  0  0  0  0  0  0  0  0  0  0  0
   60.5753   31.3874   47.1063 H   0  0  0  0  0  0  0  0  0  0  0  0
   60.8783   34.6057   48.5694 H   0  0  0  0  0  0  0  0  0  0  0  0
   59.0433   34.6657   48.5887 H   0  0  0  0  0  0  0  0  0  0  0  0
   61.9901   33.0629   49.6843 H   0  0  0  0  0  0  0  0  0  0  0  0
   62.1018   31.1925   51.2793 H   0  0  0  0  0  0  0  0  0  0  0  0
   60.0099   29.9422   51.8691 H   0  0  0  0  0  0  0  0  0  0  0  0
   57.4050   29.5200   50.5400 H   0  0  0  0  0  0  0  0  0  0  0  0
   56.1286   28.8780   53.0987 H   0  0  0  0  0  0  0  0  0  0  0  0
   53.8918   28.0066   53.6552 H   0  0  0  0  0  0  0  0  0  0  0  0
   54.2602   32.1368   51.0435 H   0  0  0  0  0  0  0  0  0  0  0  0
   57.7915   32.5139   49.2104 H   0  0  0  0  0  0  0  0  0  0  0  0
   58.0890   35.1640   46.1020 H   0  0  0  0  0  0  0  0  0  0  0  0
   56.2259   34.4443   44.8201 H   0  0  0  0  0  0  0  0  0  0  0  0
  1  2  1  0
  2  3  2  0
  2  4  1  0
  4  5  2  0
  5  6  1  0
  6  7  2  0
  7  8  1  0
  8  9  1  0
  9 10  2  0
 10 11  1  0
 11 12  1  0
 12 13  2  0
 13 14  1  0
 14 15  2  0
 15 16  1  0
 16 17  1  0
 17 18  1  0
 18 19  2  0
 18 20  1  0
 20 21  2  0
 21 22  1  0
 22 23  2  0
 23 24  1  0
 23 25  1  0
 25 26  1  0
 25 27  2  0
 16 28  2  0
  9 29  1  0
 29 30  1  0
 30 31  2  0
 31 32  1  0
 32  4  1  0
 32  8  2  0
 28 12  1  0
 27 20  1  0
  1 33  1  0
  1 34  1  0
  5 35  1  0
  6 36  1  0
  7 37  1  0
 11 38  1  0
 11 39  1  0
 13 40  1  0
 14 41  1  0
 15 42  1  0
 17 43  1  0
 21 44  1  0
 22 45  1  0
 27 46  1  0
 28 47  1  0
 29 48  1  0
 30 49  1  0
M  END
>  <smiles>  (11) 
NC(=O)c1cccc2c(=NCc3cccc(NC(=O)c4ccc(F)c(F)c4)c3)[nH]cnc12

>  <score_type>  (11) 
oracle

>  <origin>  (11) 
adg

>  <m_score__min__energy>  (11) 
-9.6899999999999995

>  <m_primary>  (11) 
energy

$$$$
11:0
     RDKit          3D

 22 24  0  0  0  0  0  0  0  0999 V2000
   57.3870   32.3340   41.9150 Cl  0  0  0  0  0  0  0  0  0  0  0  0
   57.5530   31.1240   43.1760 C   0  0  0  0  0  0  0  0  0  0  0  0
   57.2490   29.8180   42.9900 N   0  0  0  0  0  0  0  0  0  0  0  0
   57.4690   29.2780   44.2050 C   0  0  0  0  0  0  0  0  0  0  0  0
   57.3170   27.9640   44.5090 N   0  0  0  0  0  0  0  0  0  0  0  0
   57.6010   27.5400   45.7750 C   0  0  0  0  0  0  0  0  0  0  0  0
   58.0540   28.4500   46.7480 C   0  0  0  0  0  0  0  0  0  0  0  0
   58.1990   29.7980   46.3960 C   0  0  0  0  0  0  0  0  0  0  0  0
   57.8810   30.1630   45.1270 N   0  0  0  0  0  0  0  0  0  0  0  0
   57.9380   31.3490   44.4930 C   0  0  0  0  0  0  0  0  0  0  0  0
   58.3190   32.6410   45.1010 C   0  0  0  0  0  0  0  0  0  0  0  0
   58.0970   32.9550   46.4510 C   0  0  0  0  0  0  0  0  0  0  0  0
   58.5210   34.2290   46.8020 C   0  0  0  0  0  0  0  0  0  0  0  0
   59.1640   34.9610   45.4330 S   0  0  0  0  0  0  0  0  0  0  0  0
   58.9110   33.6740   44.3820 C   0  0  0  0  0  0  0  0  0  0  0  0
   56.9930   27.2850   43.7850 H   0  0  0  0  0  0  0  0  0  0  0  0
   57.4748   26.4790   46.0366 H   0  0  0  0  0  0  0  0  0  0  0  0
   58.2900   28.1089   47.7668 H   0  0  0  0  0  0  0  0  0  0  0  0
   58.5595   30.5385   47.1252 H   0  0  0  0  0  0  0  0  0  0  0  0
   57.6313   32.2577   47.1629 H   0  0  0  0  0  0  0  0  0  0  0  0
   58.4487   34.6809   47.8023 H   0  0  0  0  0  0  0  0  0  0  0  0
   59.1685   33.6525   43.3128 H   0  0  0  0  0  0  0  0  0  0  0  0
  1  2  1  0
  2  3  1  0
  3  4  2  0
  4  5  1  0
  5  6  2  0
  6  7  1  0
  7  8  2  0
  8  9  1  0
  9 10  1  0
 10 11  1  0
 11 12  1  0
 12 13  2  0
 13 14  1  0
 14 15  1  0
 10  2  2  0
 15 11  2  0
  9  4  1  0
  5 16  1  0
  6 17  1  0
  7 18  1  0
  8 19  1  0
 12 20  1  0
 13 21  1  0
 15 22  1  0
M  CHG  1   5   1
M  END
>  <UniqueID>  (12) 
9

>  <SMILES>  (12) 
Clc1nc2[nH+]cccn2c1-c1ccsc1

>  <Energy>  (12) 
90.86392935852399

>  <Genealogy>  (12) 
Clc1nc2[nH+]cccn2c1-c1ccsc1 (protonated)
Clc1nc2[nH+]cccn2c1-c1ccsc1 (3D coordinates assigned)
Clc1nc2[nH+]cccn2c1-c1ccsc1 (optimized conformer: 90.86392935852399 kcal/mol)

>  <smiles>  (12) 
Clc1nc2ncccn2c1-c1ccsc1

>  <score_type>  (12) 
oracle

>  <origin>  (12) 
adg

>  <m_score__min__energy>  (12) 
-4.5899999999999999

>  <m_primary>  (12) 
energy

$$$$
12:0
     RDKit          3D

 62 66  0  0  0  0  0  0  0  0999 V2000
   52.0660   24.0390   44.0260 C   0  0  0  0  0  0  0  0  0  0  0  0
   52.7500   23.8300   45.3700 C   0  0  0  0  0  0  0  0  0  0  0  0
   54.1290   24.4250   45.3640 C   0  0  0  0  0  0  0  0  0  0  0  0
   55.1870   23.7930   44.7080 C   0  0  0  0  0  0  0  0  0  0  0  0
   56.4500   24.3810   44.7230 C   0  0  0  0  0  0  0  0  0  0  0  0
   56.6270   25.5950   45.3910 C   0  0  0  0  0  0  0  0  0  0  0  0
   57.9230   26.2100   45.4690 N   0  0  0  0  0  0  0  0  0  0  0  0
   58.4950   26.4880   46.7890 C   0  0  0  0  0  0  0  0  0  0  0  0
   58.3710   27.9800   47.1110 C   0  0  0  0  0  0  0  0  0  0  0  0
   58.7860   28.7960   45.9630 N   0  0  0  0  0  0  0  0  0  0  0  0
   59.3350   30.0940   46.2030 C   0  0  0  0  0  0  0  0  0  0  0  0
   60.4990   30.2210   46.8930 N   0  0  0  0  0  0  0  0  0  0  0  0
   61.0360   31.4160   47.1600 N   0  0  0  0  0  0  0  0  0  0  0  0
   60.4320   32.5750   46.7620 C   0  0  0  0  0  0  0  0  0  0  0  0
   61.0600   33.9060   47.0730 C   0  0  0  0  0  0  0  0  0  0  0  0
   62.1630   33.7610   48.0860 C   0  0  0  0  0  0  0  0  0  0  0  0
   63.4100   33.2360   47.7060 C   0  0  0  0  0  0  0  0  0  0  0  0
   64.4320   33.0900   48.6520 C   0  0  0  0  0  0  0  0  0  0  0  0
   64.2170   33.4650   49.9820 C   0  0  0  0  0  0  0  0  0  0  0  0
   62.9810   33.9890   50.3650 C   0  0  0  0  0  0  0  0  0  0  0  0
   61.9560   34.1370   49.4220 C   0  0  0  0  0  0  0  0  0  0  0  0
   59.2340   32.4780   46.0430 C   0  0  0  0  0  0  0  0  0  0  0  0
   58.6940   31.2530   45.7680 C   0  0  0  0  0  0  0  0  0  0  0  0
   57.4280   31.3580   45.0080 C   0  0  0  0  0  0  0  0  0  0  0  0
   57.1640   32.8690   44.9270 C   0  0  0  0  0  0  0  0  0  0  0  0
   58.4080   33.5780   45.4870 C   0  0  0  0  0  0  0  0  0  0  0  0
   58.2820   28.4690   44.6240 C   0  0  0  0  0  0  0  0  0  0  0  0
   58.4860   26.9760   44.3450 C   0  0  2  0  0  0  0  0  0  0  0  0
   57.9060   26.5760   42.9770 C   0  0  0  0  0  0  0  0  0  0  0  0
   57.4090   27.6930   42.3270 F   0  0  0  0  0  0  0  0  0  0  0  0
   55.5630   26.1760   46.0040 N   0  0  0  0  0  0  0  0  0  0  0  0
   54.3550   25.6090   45.9920 N   0  0  0  0  0  0  0  0  0  0  0  0
   51.0257   24.3569   44.1895 H   0  0  0  0  0  0  0  0  0  0  0  0
   52.6015   24.8145   43.4587 H   0  0  0  0  0  0  0  0  0  0  0  0
   52.0766   23.0966   43.4587 H   0  0  0  0  0  0  0  0  0  0  0  0
   52.1525   24.3121   46.1577 H   0  0  0  0  0  0  0  0  0  0  0  0
   52.8326   22.7496   45.5597 H   0  0  0  0  0  0  0  0  0  0  0  0
   55.0249   22.8395   44.1841 H   0  0  0  0  0  0  0  0  0  0  0  0
   57.2967   23.8956   44.2155 H   0  0  0  0  0  0  0  0  0  0  0  0
   57.9551   25.9052   47.5498 H   0  0  0  0  0  0  0  0  0  0  0  0
   59.5584   26.2065   46.7878 H   0  0  0  0  0  0  0  0  0  0  0  0
   57.3240   28.2102   47.3577 H   0  0  0  0  0  0  0  0  0  0  0  0
   59.0248   28.2127   47.9645 H   0  0  0  0  0  0  0  0  0  0  0  0
   61.9360   31.4510   47.6860 H   0  0  0  0  0  0  0  0  0  0  0  0
   61.4755   34.3321   46.1479 H   0  0  0  0  0  0  0  0  0  0  0  0
   60.2870   34.5680   47.4904 H   0  0  0  0  0  0  0  0  0  0  0  0
   63.5839   32.9386   46.6613 H   0  0  0  0  0  0  0  0  0  0  0  0
   65.4062   32.6794   48.3483 H   0  0  0  0  0  0  0  0  0  0  0  0
   65.0199   33.3474   50.7246 H   0  0  0  0  0  0  0  0  0  0  0  0
   62.8116   34.2865   51.4104 H   0  0  0  0  0  0  0  0  0  0  0  0
   60.9841   34.5499   49.7302 H   0  0  0  0  0  0  0  0  0  0  0  0
   57.5394   30.9266   44.0023 H   0  0  0  0  0  0  0  0  0  0  0  0
   56.6022   30.8101   45.4854 H   0  0  0  0  0  0  0  0  0  0  0  0
   56.9989   33.1673   43.8812 H   0  0  0  0  0  0  0  0  0  0  0  0
   56.2671   33.1403   45.5032 H   0  0  0  0  0  0  0  0  0  0  0  0
   58.9487   34.1065   44.6880 H   0  0  0  0  0  0  0  0  0  0  0  0
   58.1562   34.3384   46.2409 H   0  0  0  0  0  0  0  0  0  0  0  0
   57.2097   28.7080   44.5686 H   0  0  0  0  0  0  0  0  0  0  0  0
   58.8312   29.0577   43.8745 H   0  0  0  0  0  0  0  0  0  0  0  0
   59.5589   26.7429   44.2770 H   0  0  0  0  0  0  0  0  0  0  0  0
   58.6984   26.1210   42.3646 H   0  0  0  0  0  0  0  0  0  0  0  0
   57.0899   25.8542   43.1286 H   0  0  0  0  0  0  0  0  0  0  0  0
  1  2  1  0
  2  3  1  0
  3  4  2  0
  4  5  1  0
  5  6  2  0
  6  7  1  0
  7  8  1  0
  8  9  1  0
  9 10  1  0
 10 11  1  0
 11 12  2  0
 12 13  1  0
 13 14  2  0
 14 15  1  0
 15 16  1  0
 16 17  2  0
 17 18  1  0
 18 19  2  0
 19 20  1  0
 20 21  2  0
 14 22  1  0
 22 23  2  0
 23 24  1  0
 24 25  1  0
 25 26  1  0
 10 27  1  0
 27 28  1  0
 28 29  1  0
 29 30  1  0
  6 31  1  0
 31 32  2  0
 32  3  1  0
 28  7  1  0
 23 11  1  0
 21 16  1  0
 26 22  1  0
  1 33  1  0
  1 34  1  0
  1 35  1  0
  2 36  1  0
  2 37  1  0
  4 38  1  0
  5 39  1  0
  8 40  1  0
  8 41  1  0
  9 42  1  0
  9 43  1  0
 13 44  1  0
 15 45  1  0
 15 46  1  0
 17 47  1  0
 18 48  1  0
 19 49  1  0
 20 50  1  0
 21 51  1  0
 24 52  1  0
 24 53  1  0
 25 54  1  0
 25 55  1  0
 26 56  1  0
 26 57  1  0
 27 58  1  0
 27 59  1  0
 28 60  1  6
 29 61  1  0
 29 62  1  0
M  CHG  1  13   1
M  END
>  <UniqueID>  (13) 
10

>  <SMILES>  (13) 
CCc1ccc(N2CCN(c3n[nH+]c(Cc4ccccc4)c4c3CCC4)C[C@@H]2CF)nn1

>  <Energy>  (13) 
82.43274978243633

>  <Genealogy>  (13) 
CCc1ccc(N2CCN(c3n[nH+]c(Cc4ccccc4)c4c3CCC4)CC2CF)nn1 (protonated)
CCc1ccc(N2CCN(c3n[nH+]c(Cc4ccccc4)c4c3CCC4)C[C@@H]2CF)nn1 (chirality)
CCc1ccc(N2CCN(c3n[nH+]c(Cc4ccccc4)c4c3CCC4)C[C@@H]2CF)nn1 (3D coordinates assigned)
CCc1ccc(N2CCN(c3n[nH+]c(Cc4ccccc4)c4c3CCC4)C[C@@H]2CF)nn1 (nonaromatic ring conformer: 82.43274978243633 kcal/mol)

>  <smiles>  (13) 
CCc1ccc(N2CCN(c3nnc(Cc4ccccc4)c4c3CCC4)CC2CF)nn1

>  <score_type>  (13) 
oracle

>  <origin>  (13) 
adg

>  <m_score__min__energy>  (13) 
-8.7799999999999994

>  <m_primary>  (13) 
energy

$$$$
13:0
     RDKit          3D

 53 56  0  0  0  0  0  0  0  0999 V2000
   56.5870   26.9240   45.6850 C   0  0  0  0  0  0  0  0  0  0  0  0
   55.9700   28.1410   45.2660 O   0  0  0  0  0  0  0  0  0  0  0  0
   56.6230   29.1680   44.5670 C   0  0  0  0  0  0  0  0  0  0  0  0
   56.0410   29.7680   43.4280 C   0  0  0  0  0  0  0  0  0  0  0  0
   56.6910   30.8110   42.7680 C   0  0  0  0  0  0  0  0  0  0  0  0
   57.9240   31.2750   43.2360 C   0  0  0  0  0  0  0  0  0  0  0  0
   58.5070   30.6960   44.3660 C   0  0  0  0  0  0  0  0  0  0  0  0
   57.8810   29.6280   45.0210 C   0  0  0  0  0  0  0  0  0  0  0  0
   58.5140   29.0780   46.1890 N   0  0  0  0  0  0  0  0  0  0  0  0
   58.9530   29.8250   47.3260 C   0  0  0  0  0  0  0  0  0  0  0  0
   58.5300   29.5100   48.4720 O   0  0  0  0  0  0  0  0  0  0  0  0
   59.8450   30.9860   47.1760 C   0  0  0  0  0  0  0  0  0  0  0  0
   61.1930   30.9290   47.3180 N   0  0  0  0  0  0  0  0  0  0  0  0
   61.6050   32.2040   47.1220 C   0  0  0  0  0  0  0  0  0  0  0  0
   63.3370   32.7000   47.0810 S   0  0  0  0  0  0  0  0  0  0  0  0
   63.6700   32.7670   48.8890 C   0  0  0  0  0  0  0  0  0  0  0  0
   62.6690   33.5450   49.6970 C   0  0  0  0  0  0  0  0  0  0  0  0
   62.9330   34.7400   49.9890 O   0  0  0  0  0  0  0  0  0  0  0  0
   61.3980   32.9900   50.0810 N   0  0  0  0  0  0  0  0  0  0  0  0
   60.1730   33.7910   49.8780 C   0  0  0  0  0  0  0  0  0  0  0  0
   59.2010   33.5880   51.0460 C   0  0  0  0  0  0  0  0  0  0  0  0
   58.9620   32.0920   51.3020 C   0  0  0  0  0  0  0  0  0  0  0  0
   60.2890   31.3620   51.5660 C   0  0  0  0  0  0  0  0  0  0  0  0
   61.2580   31.5570   50.3900 C   0  0  0  0  0  0  0  0  0  0  0  0
   60.5790   33.0380   46.8650 N   0  0  0  0  0  0  0  0  0  0  0  0
   60.5640   34.3710   46.5970 C   0  0  0  0  0  0  0  0  0  0  0  0
   59.3250   34.9830   46.3570 C   0  0  0  0  0  0  0  0  0  0  0  0
   58.1480   34.2100   46.3870 C   0  0  0  0  0  0  0  0  0  0  0  0
   58.2130   32.8320   46.6490 C   0  0  0  0  0  0  0  0  0  0  0  0
   59.4750   32.2800   46.8820 C   0  0  0  0  0  0  0  0  0  0  0  0
   56.6078   26.8829   46.7840 H   0  0  0  0  0  0  0  0  0  0  0  0
   56.0133   26.0695   45.2969 H   0  0  0  0  0  0  0  0  0  0  0  0
   57.6154   26.8817   45.2969 H   0  0  0  0  0  0  0  0  0  0  0  0
   55.0685   29.4102   43.0590 H   0  0  0  0  0  0  0  0  0  0  0  0
   56.2331   31.2687   41.8787 H   0  0  0  0  0  0  0  0  0  0  0  0
   58.4357   32.0969   42.7139 H   0  0  0  0  0  0  0  0  0  0  0  0
   59.4651   31.0820   44.7442 H   0  0  0  0  0  0  0  0  0  0  0  0
   63.6866   31.7353   49.2702 H   0  0  0  0  0  0  0  0  0  0  0  0
   64.6290   33.2937   49.0029 H   0  0  0  0  0  0  0  0  0  0  0  0
   60.4429   34.8553   49.8121 H   0  0  0  0  0  0  0  0  0  0  0  0
   59.6848   33.4660   48.9474 H   0  0  0  0  0  0  0  0  0  0  0  0
   59.6249   34.0459   51.9519 H   0  0  0  0  0  0  0  0  0  0  0  0
   58.2406   34.0605   50.7922 H   0  0  0  0  0  0  0  0  0  0  0  0
   58.3069   31.9766   52.1781 H   0  0  0  0  0  0  0  0  0  0  0  0
   58.4910   31.6535   50.4099 H   0  0  0  0  0  0  0  0  0  0  0  0
   60.7467   31.7643   52.4818 H   0  0  0  0  0  0  0  0  0  0  0  0
   60.0850   30.2874   51.6823 H   0  0  0  0  0  0  0  0  0  0  0  0
   62.2421   31.1448   50.6575 H   0  0  0  0  0  0  0  0  0  0  0  0
   60.8610   31.0356   49.5065 H   0  0  0  0  0  0  0  0  0  0  0  0
   61.4971   34.9529   46.5692 H   0  0  0  0  0  0  0  0  0  0  0  0
   59.2728   36.0614   46.1464 H   0  0  0  0  0  0  0  0  0  0  0  0
   57.1741   34.6876   46.2045 H   0  0  0  0  0  0  0  0  0  0  0  0
   57.3052   32.2111   46.6700 H   0  0  0  0  0  0  0  0  0  0  0  0
  1  2  1  0
  2  3  1  0
  3  4  2  0
  4  5  1  0
  5  6  2  0
  6  7  1  0
  7  8  2  0
  8  9  1  0
  9 10  1  0
 10 11  2  0
 10 12  1  0
 12 13  1  0
 13 14  2  0
 14 15  1  0
 15 16  1  0
 16 17  1  0
 17 18  2  0
 17 19  1  0
 19 20  1  0
 20 21  1  0
 21 22  1  0
 22 23  1  0
 23 24  1  0
 14 25  1  0
 25 26  1  0
 26 27  2  0
 27 28  1  0
 28 29  2  0
 29 30  1  0
  8  3  1  0
 30 12  2  0
 24 19  1  0
 30 25  1  0
  1 31  1  0
  1 32  1  0
  1 33  1  0
  4 34  1  0
  5 35  1  0
  6 36  1  0
  7 37  1  0
 16 38  1  0
 16 39  1  0
 20 40  1  0
 20 41  1  0
 21 42  1  0
 21 43  1  0
 22 44  1  0
 22 45  1  0
 23 46  1  0
 23 47  1  0
 24 48  1  0
 24 49  1  0
 26 50  1  0
 27 51  1  0
 28 52  1  0
 29 53  1  0
M  CHG  1   9  -1
M  END
>  <UniqueID>  (14) 
11

>  <SMILES>  (14) 
COc1ccccc1[N-]C(=O)c1nc(SCC(=O)N2CCCCC2)n2ccccc12

>  <Energy>  (14) 
95.0308036237787

>  <Genealogy>  (14) 
COc1ccccc1[N-]C(=O)c1nc(SCC(=O)N2CCCCC2)n2ccccc12 (protonated)
COc1ccccc1[N-]C(=O)c1nc(SCC(=O)N2CCCCC2)n2ccccc12 (3D coordinates assigned)
COc1ccccc1[N-]C(=O)c1nc(SCC(=O)N2CCCCC2)n2ccccc12 (nonaromatic ring conformer: 95.0308036237787 kcal/mol)

>  <smiles>  (14) 
COc1ccccc1NC(=O)c1nc(SCC(=O)N2CCCCC2)n2ccccc12

>  <score_type>  (14) 
oracle

>  <origin>  (14) 
adg

>  <m_score__min__energy>  (14) 
-10.93

>  <m_primary>  (14) 
energy

$$$$
14:0
     RDKit          3D

 35 37  0  0  0  0  0  0  0  0999 V2000
   55.4960   26.6500   46.0760 O   0  0  0  0  0  0  0  0  0  0  0  0
   56.2800   27.5270   45.6240 C   0  0  0  0  0  0  0  0  0  0  0  0
   57.7470   27.2040   45.5200 C   0  0  0  0  0  0  0  0  0  0  0  0
   58.4710   26.9970   47.1860 S   0  0  0  0  0  0  0  0  0  0  0  0
   59.0330   28.6990   47.2940 C   0  0  0  0  0  0  0  0  0  0  0  0
   58.5130   29.5950   48.1650 N   0  0  0  0  0  0  0  0  0  0  0  0
   59.1170   30.8070   48.0270 C   0  0  0  0  0  0  0  0  0  0  0  0
   58.7750   31.9440   48.7610 C   0  0  0  0  0  0  0  0  0  0  0  0
   59.4460   33.1520   48.4890 C   0  0  0  0  0  0  0  0  0  0  0  0
   60.4310   33.2140   47.4820 C   0  0  0  0  0  0  0  0  0  0  0  0
   60.7680   32.0650   46.7500 C   0  0  0  0  0  0  0  0  0  0  0  0
   60.1000   30.8760   47.0510 C   0  0  0  0  0  0  0  0  0  0  0  0
   60.2580   29.3660   46.3280 S   0  0  0  0  0  0  0  0  0  0  0  0
   55.7440   28.8000   45.2400 N   0  0  0  0  0  0  0  0  0  0  0  0
   56.2280   29.6040   44.1220 C   0  0  0  0  0  0  0  0  0  0  0  0
   57.4750   30.4030   44.5310 C   0  0  1  0  0  0  0  0  0  0  0  0
   58.0430   31.2330   43.3740 C   0  0  0  0  0  0  0  0  0  0  0  0
   57.7480   32.6430   43.7770 C   0  0  0  0  0  0  0  0  0  0  0  0
   57.6190   32.5460   45.2820 C   0  0  0  0  0  0  0  0  0  0  0  0
   57.1600   31.2550   45.6140 O   0  0  0  0  0  0  0  0  0  0  0  0
   57.8737   26.2713   44.9509 H   0  0  0  0  0  0  0  0  0  0  0  0
   58.2599   28.0310   45.0073 H   0  0  0  0  0  0  0  0  0  0  0  0
   57.9965   31.8974   49.5368 H   0  0  0  0  0  0  0  0  0  0  0  0
   59.1995   34.0548   49.0671 H   0  0  0  0  0  0  0  0  0  0  0  0
   60.9375   34.1670   47.2692 H   0  0  0  0  0  0  0  0  0  0  0  0
   61.5354   32.0998   45.9627 H   0  0  0  0  0  0  0  0  0  0  0  0
   56.4831   28.9401   43.2829 H   0  0  0  0  0  0  0  0  0  0  0  0
   55.4376   30.3082   43.8230 H   0  0  0  0  0  0  0  0  0  0  0  0
   58.2469   29.6774   44.8271 H   0  0  0  0  0  0  0  0  0  0  0  0
   59.1262   31.0724   43.2698 H   0  0  0  0  0  0  0  0  0  0  0  0
   57.6062   30.9657   42.4005 H   0  0  0  0  0  0  0  0  0  0  0  0
   58.5706   33.3159   43.4931 H   0  0  0  0  0  0  0  0  0  0  0  0
   56.8516   33.0548   43.2903 H   0  0  0  0  0  0  0  0  0  0  0  0
   58.5990   32.7221   45.7496 H   0  0  0  0  0  0  0  0  0  0  0  0
   56.9080   33.3019   45.6467 H   0  0  0  0  0  0  0  0  0  0  0  0
  1  2  2  0
  2  3  1  0
  3  4  1  0
  4  5  1  0
  5  6  2  0
  6  7  1  0
  7  8  2  0
  8  9  1  0
  9 10  2  0
 10 11  1  0
 11 12  2  0
 12 13  1  0
  2 14  1  0
 14 15  1  0
 15 16  1  0
 16 17  1  0
 17 18  1  0
 18 19  1  0
 19 20  1  0
 13  5  1  0
 20 16  1  0
 12  7  1  0
  3 21  1  0
  3 22  1  0
  8 23  1  0
  9 24  1  0
 10 25  1  0
 11 26  1  0
 15 27  1  0
 15 28  1  0
 16 29  1  1
 17 30  1  0
 17 31  1  0
 18 32  1  0
 18 33  1  0
 19 34  1  0
 19 35  1  0
M  CHG  1  14  -1
M  END
>  <UniqueID>  (15) 
12

>  <SMILES>  (15) 
O=C(CSc1nc2ccccc2s1)[N-]C[C@H]1CCCO1

>  <Energy>  (15) 
61.49079403443799

>  <Genealogy>  (15) 
O=C(CSc1nc2ccccc2s1)[N-]CC1CCCO1 (protonated)
O=C(CSc1nc2ccccc2s1)[N-]C[C@H]1CCCO1 (chirality)
O=C(CSc1nc2ccccc2s1)[N-]C[C@H]1CCCO1 (3D coordinates assigned)
O=C(CSc1nc2ccccc2s1)[N-]C[C@H]1CCCO1 (nonaromatic ring conformer: 61.49079403443799 kcal/mol)

>  <smiles>  (15) 
O=C(CSc1nc2ccccc2s1)NCC1CCCO1

>  <score_type>  (15) 
oracle

>  <origin>  (15) 
adg

>  <m_score__min__energy>  (15) 
-10.19

>  <m_primary>  (15) 
energy

$$$$
15:0
     RDKit          3D

 56 59  0  0  1  0  0  0  0  0999 V2000
   52.1550   21.3860   50.8800 C   0  0  0  0  0  0  0  0  0  0  0  0
   53.3650   20.6950   50.9180 O   0  0  0  0  0  0  0  0  0  0  0  0
   54.5190   21.1850   50.2350 C   0  0  0  0  0  0  0  0  0  0  0  0
   55.6320   21.1700   50.0330 N   0  0  0  0  0  0  0  0  0  0  0  0
   56.3820   21.8820   49.2190 C   0  0  0  0  0  0  0  0  0  0  0  0
   55.6980   22.8040   48.4860 C   0  0  0  0  0  0  0  0  0  0  0  0
   56.1200   23.7810   47.4850 C   0  0  0  0  0  0  0  0  0  0  0  0
   55.4250   23.9260   46.3260 C   0  0  0  0  0  0  0  0  0  0  0  0
   55.8310   24.8530   45.3870 C   0  0  0  0  0  0  0  0  0  0  0  0
   56.9400   25.6410   45.6110 C   0  0  0  0  0  0  0  0  0  0  0  0
   57.3950   26.5600   44.7490 N   0  0  0  0  0  0  0  0  0  0  0  0
   58.4800   27.3070   45.0010 C   0  0  0  0  0  0  0  0  0  0  0  0
   58.9540   28.1970   44.2070 N   0  0  0  0  0  0  0  0  0  0  0  0
   58.7650   29.5640   44.5030 C   0  0  0  0  0  0  0  0  0  0  0  0
   57.9330   30.4150   43.8150 C   0  0  0  0  0  0  0  0  0  0  0  0
   57.8190   31.7600   44.1780 C   0  0  0  0  0  0  0  0  0  0  0  0
   58.5350   32.2870   45.2420 C   0  0  0  0  0  0  0  0  0  0  0  0
   58.3700   33.6590   45.5550 N   0  0  0  0  0  0  0  0  0  0  0  0
   57.0040   34.1820   45.4590 C   0  0  0  0  0  0  0  0  0  0  0  0
   59.4030   34.5610   45.9480 C   0  0  0  0  0  0  0  0  0  0  0  0
   59.2780   34.9600   47.4010 C   0  0  0  0  0  0  0  0  0  0  0  0
   60.3450   34.3660   48.2240 N   0  0  0  0  0  0  0  0  0  0  0  0
   59.7510   33.2050   48.8750 C   0  0  0  0  0  0  0  0  0  0  0  0
   61.3300   33.8410   47.2650 C   0  0  0  0  0  0  0  0  0  0  0  0
   59.3600   31.4280   45.9180 C   0  0  0  0  0  0  0  0  0  0  0  0
   59.4840   30.1010   45.5730 C   0  0  0  0  0  0  0  0  0  0  0  0
   59.1570   27.1390   46.1710 N   0  0  0  0  0  0  0  0  0  0  0  0
   58.6960   26.2310   47.0100 N   0  0  0  0  0  0  0  0  0  0  0  0
   57.6300   25.4660   46.8090 C   0  0  0  0  0  0  0  0  0  0  0  0
   57.2270   24.5470   47.7390 C   0  0  0  0  0  0  0  0  0  0  0  0
   53.9670   22.5810   49.0310 S   0  0  0  0  0  0  0  0  0  0  0  0
   51.8122   21.5818   51.9067 H   0  0  0  0  0  0  0  0  0  0  0  0
   52.2944   22.3407   50.3517 H   0  0  0  0  0  0  0  0  0  0  0  0
   51.4036   20.7808   50.3517 H   0  0  0  0  0  0  0  0  0  0  0  0
   57.4703   21.7440   49.1374 H   0  0  0  0  0  0  0  0  0  0  0  0
   54.5379   23.3039   46.1359 H   0  0  0  0  0  0  0  0  0  0  0  0
   55.2641   24.9640   44.4509 H   0  0  0  0  0  0  0  0  0  0  0  0
   56.8910   26.6960   43.8640 H   0  0  0  0  0  0  0  0  0  0  0  0
   57.3481   30.0317   42.9659 H   0  0  0  0  0  0  0  0  0  0  0  0
   57.1456   32.4156   43.6063 H   0  0  0  0  0  0  0  0  0  0  0  0
   56.5989   34.3371   46.4699 H   0  0  0  0  0  0  0  0  0  0  0  0
   57.0152   35.1394   44.9176 H   0  0  0  0  0  0  0  0  0  0  0  0
   56.3729   33.4619   44.9176 H   0  0  0  0  0  0  0  0  0  0  0  0
   60.3776   34.0744   45.7951 H   0  0  0  0  0  0  0  0  0  0  0  0
   59.3141   35.4701   45.3352 H   0  0  0  0  0  0  0  0  0  0  0  0
   59.3385   36.0558   47.4760 H   0  0  0  0  0  0  0  0  0  0  0  0
   58.3116   34.5913   47.7753 H   0  0  0  0  0  0  0  0  0  0  0  0
   59.8126   33.3253   49.9667 H   0  0  0  0  0  0  0  0  0  0  0  0
   58.6965   33.1158   48.5748 H   0  0  0  0  0  0  0  0  0  0  0  0
   60.2957   32.2977   48.5748 H   0  0  0  0  0  0  0  0  0  0  0  0
   62.1719   33.3923   47.8127 H   0  0  0  0  0  0  0  0  0  0  0  0
   60.8548   33.0765   46.6327 H   0  0  0  0  0  0  0  0  0  0  0  0
   61.6997   34.6617   46.6327 H   0  0  0  0  0  0  0  0  0  0  0  0
   59.9445   31.8121   46.7670 H   0  0  0  0  0  0  0  0  0  0  0  0
   60.1605   29.4531   46.1496 H   0  0  0  0  0  0  0  0  0  0  0  0
   57.7850   24.4247   48.6791 H   0  0  0  0  0  0  0  0  0  0  0  0
  1  2  1  0
  2  3  1  0
  3  4  2  0
  4  5  1  0
  5  6  2  0
  6  7  1  0
  7  8  2  0
  8  9  1  0
  9 10  2  0
 10 11  1  0
 11 12  1  0
 12 13  2  0
 13 14  1  0
 14 15  2  0
 15 16  1  0
 16 17  2  0
 17 18  1  0
 18 19  1  0
 18 20  1  0
 20 21  1  0
 21 22  1  0
 22 23  1  0
 22 24  1  0
 17 25  1  0
 25 26  2  0
 12 27  1  0
 27 28  2  0
 28 29  1  0
 29 30  2  0
  6 31  1  0
 31  3  1  0
 30  7  1  0
 29 10  1  0
 26 14  1  0
  1 32  1  0
  1 33  1  0
  1 34  1  0
  5 35  1  0
  8 36  1  0
  9 37  1  0
 11 38  1  0
 15 39  1  0
 16 40  1  0
 19 41  1  0
 19 42  1  0
 19 43  1  0
 20 44  1  0
 20 45  1  0
 21 46  1  0
 21 47  1  0
 23 48  1  0
 23 49  1  0
 23 50  1  0
 24 51  1  0
 24 52  1  0
 24 53  1  0
 25 54  1  0
 26 55  1  0
 30 56  1  0
M  END
>  <smiles>  (16) 
COc1ncc(-c2ccc3[nH]c(=Nc4ccc(N(C)CCN(C)C)cc4)nnc3c2)s1

>  <score_type>  (16) 
oracle

>  <origin>  (16) 
adg

>  <m_score__min__energy>  (16) 
-8.4199999999999999

>  <m_primary>  (16) 
energy

$$$$
16:0
     RDKit          3D

 31 32  0  0  0  0  0  0  0  0999 V2000
   64.5300   33.4660   49.7750 C   0  0  0  0  0  0  0  0  0  0  0  0
   63.3230   33.4010   48.9000 C   0  0  0  0  0  0  0  0  0  0  0  0
   63.4600   33.1700   47.5690 N   0  0  0  0  0  0  0  0  0  0  0  0
   62.3790   33.1450   46.7480 C   0  0  0  0  0  0  0  0  0  0  0  0
   61.0990   33.3730   47.2650 C   0  0  0  0  0  0  0  0  0  0  0  0
   59.9290   33.3540   46.3620 C   0  0  0  0  0  0  0  0  0  0  0  0
   59.4750   34.5800   45.8590 C   0  0  0  0  0  0  0  0  0  0  0  0
   58.3920   34.6290   44.9890 C   0  0  0  0  0  0  0  0  0  0  0  0
   57.7550   33.4550   44.5980 C   0  0  0  0  0  0  0  0  0  0  0  0
   58.1870   32.2060   45.0730 C   0  0  0  0  0  0  0  0  0  0  0  0
   57.4660   31.0120   44.5640 C   0  0  0  0  0  0  0  0  0  0  0  0
   56.2680   30.7710   44.8620 O   0  0  0  0  0  0  0  0  0  0  0  0
   59.2690   32.1470   46.0000 C   0  0  0  0  0  0  0  0  0  0  0  0
   59.7040   30.8290   46.6030 C   0  0  0  0  0  0  0  0  0  0  0  0
   60.9740   33.6140   48.6470 C   0  0  0  0  0  0  0  0  0  0  0  0
   59.6400   33.8610   49.2860 C   0  0  0  0  0  0  0  0  0  0  0  0
   62.0900   33.6320   49.4240 N   0  0  0  0  0  0  0  0  0  0  0  0
   64.2193   33.4493   50.8301 H   0  0  0  0  0  0  0  0  0  0  0  0
   65.1785   32.6015   49.5700 H   0  0  0  0  0  0  0  0  0  0  0  0
   65.0819   34.3952   49.5700 H   0  0  0  0  0  0  0  0  0  0  0  0
   62.5097   32.9451   45.6742 H   0  0  0  0  0  0  0  0  0  0  0  0
   59.9796   35.5116   46.1549 H   0  0  0  0  0  0  0  0  0  0  0  0
   58.0375   35.5983   44.6085 H   0  0  0  0  0  0  0  0  0  0  0  0
   56.9008   33.5061   43.9069 H   0  0  0  0  0  0  0  0  0  0  0  0
   57.9987   30.3130   43.9025 H   0  0  0  0  0  0  0  0  0  0  0  0
   59.6799   30.9021   47.7003 H   0  0  0  0  0  0  0  0  0  0  0  0
   59.0213   30.0319   46.2735 H   0  0  0  0  0  0  0  0  0  0  0  0
   60.7271   30.5949   46.2735 H   0  0  0  0  0  0  0  0  0  0  0  0
   59.7484   33.8409   50.3805 H   0  0  0  0  0  0  0  0  0  0  0  0
   59.2601   34.8448   48.9731 H   0  0  0  0  0  0  0  0  0  0  0  0
   58.9330   33.0785   48.9731 H   0  0  0  0  0  0  0  0  0  0  0  0
  1  2  1  0
  2  3  2  0
  3  4  1  0
  4  5  2  0
  5  6  1  0
  6  7  2  0
  7  8  1  0
  8  9  2  0
  9 10  1  0
 10 11  1  0
 11 12  2  0
 10 13  2  0
 13 14  1  0
  5 15  1  0
 15 16  1  0
 15 17  2  0
 17  2  1  0
 13  6  1  0
  1 18  1  0
  1 19  1  0
  1 20  1  0
  4 21  1  0
  7 22  1  0
  8 23  1  0
  9 24  1  0
 11 25  1  0
 14 26  1  0
 14 27  1  0
 14 28  1  0
 16 29  1  0
 16 30  1  0
 16 31  1  0
M  END
>  <UniqueID>  (17) 
13

>  <SMILES>  (17) 
Cc1ncc(-c2cccc(C=O)c2C)c(C)n1

>  <Energy>  (17) 
43.40739836943721

>  <Genealogy>  (17) 
Cc1ncc(-c2cccc(C=O)c2C)c(C)n1 (3D coordinates assigned)
Cc1ncc(-c2cccc(C=O)c2C)c(C)n1 (optimized conformer: 43.40739836943721 kcal/mol)

>  <smiles>  (17) 
Cc1ncc(-c2cccc(C=O)c2C)c(C)n1

>  <score_type>  (17) 
oracle

>  <origin>  (17) 
adg

>  <m_score__min__energy>  (17) 
-6.8099999999999996

>  <m_primary>  (17) 
energy

$$$$
17:0
     RDKit          3D

 48 51  0  0  0  0  0  0  0  0999 V2000
   56.6330   24.7910   47.0240 C   0  0  0  0  0  0  0  0  0  0  0  0
   55.7080   25.2720   45.9120 C   0  0  0  0  0  0  0  0  0  0  0  0
   55.6490   26.6970   45.8780 O   0  0  0  0  0  0  0  0  0  0  0  0
   56.6180   27.5430   45.3080 C   0  0  0  0  0  0  0  0  0  0  0  0
   57.7770   26.9630   44.7810 C   0  0  0  0  0  0  0  0  0  0  0  0
   58.7670   27.7570   44.1970 C   0  0  0  0  0  0  0  0  0  0  0  0
   58.6070   29.1450   44.1360 C   0  0  0  0  0  0  0  0  0  0  0  0
   57.4510   29.7440   44.6460 C   0  0  0  0  0  0  0  0  0  0  0  0
   57.3230   31.1390   44.5730 O   0  0  0  0  0  0  0  0  0  0  0  0
   58.0620   32.0540   45.3370 C   0  0  0  0  0  0  0  0  0  0  0  0
   58.3350   33.3520   44.8740 C   0  0  0  0  0  0  0  0  0  0  0  0
   59.0830   34.2350   45.6570 C   0  0  0  0  0  0  0  0  0  0  0  0
   59.5650   33.8370   46.9140 C   0  0  0  0  0  0  0  0  0  0  0  0
   60.3760   34.7890   47.7530 C   0  0  0  0  0  0  0  0  0  0  0  0
   61.4980   34.0920   48.3850 N   0  0  0  0  0  0  0  0  0  0  0  0
   62.6570   33.6560   47.8160 C   0  0  0  0  0  0  0  0  0  0  0  0
   63.0020   33.8390   46.3710 C   0  0  0  0  0  0  0  0  0  0  0  0
   63.4710   32.9900   48.6830 N   0  0  0  0  0  0  0  0  0  0  0  0
   62.7740   33.0250   49.8350 C   0  0  0  0  0  0  0  0  0  0  0  0
   63.1150   32.4860   51.0700 C   0  0  0  0  0  0  0  0  0  0  0  0
   62.1920   32.6480   52.1210 C   0  0  0  0  0  0  0  0  0  0  0  0
   60.9750   33.3340   51.8890 C   0  0  0  0  0  0  0  0  0  0  0  0
   60.6890   33.8440   50.6520 N   0  0  0  0  0  0  0  0  0  0  0  0
   61.5970   33.6810   49.6560 C   0  0  0  0  0  0  0  0  0  0  0  0
   59.3140   32.5300   47.3620 C   0  0  0  0  0  0  0  0  0  0  0  0
   58.5730   31.6460   46.5730 C   0  0  0  0  0  0  0  0  0  0  0  0
   56.4640   28.9430   45.2520 C   0  0  0  0  0  0  0  0  0  0  0  0
   56.1843   25.0243   48.0008 H   0  0  0  0  0  0  0  0  0  0  0  0
   56.7768   23.7039   46.9368 H   0  0  0  0  0  0  0  0  0  0  0  0
   57.6055   25.2976   46.9368 H   0  0  0  0  0  0  0  0  0  0  0  0
   56.0847   24.9042   44.9462 H   0  0  0  0  0  0  0  0  0  0  0  0
   54.6970   24.8834   46.1039 H   0  0  0  0  0  0  0  0  0  0  0  0
   57.9099   25.8720   44.8269 H   0  0  0  0  0  0  0  0  0  0  0  0
   59.6735   27.2899   43.7846 H   0  0  0  0  0  0  0  0  0  0  0  0
   59.3936   29.7679   43.6851 H   0  0  0  0  0  0  0  0  0  0  0  0
   57.9587   33.6742   43.8919 H   0  0  0  0  0  0  0  0  0  0  0  0
   59.2956   35.2485   45.2861 H   0  0  0  0  0  0  0  0  0  0  0  0
   60.7653   35.5939   47.1122 H   0  0  0  0  0  0  0  0  0  0  0  0
   59.7302   35.2070   48.5392 H   0  0  0  0  0  0  0  0  0  0  0  0
   63.9710   34.3530   46.2876 H   0  0  0  0  0  0  0  0  0  0  0  0
   63.0652   32.8558   45.8817 H   0  0  0  0  0  0  0  0  0  0  0  0
   62.2234   34.4427   45.8817 H   0  0  0  0  0  0  0  0  0  0  0  0
   64.0665   31.9549   51.2201 H   0  0  0  0  0  0  0  0  0  0  0  0
   62.4155   32.2430   53.1190 H   0  0  0  0  0  0  0  0  0  0  0  0
   60.2536   33.4579   52.7101 H   0  0  0  0  0  0  0  0  0  0  0  0
   59.7020   32.2009   48.3373 H   0  0  0  0  0  0  0  0  0  0  0  0
   58.3902   30.6208   46.9272 H   0  0  0  0  0  0  0  0  0  0  0  0
   55.5679   29.4124   45.6840 H   0  0  0  0  0  0  0  0  0  0  0  0
  1  2  1  0
  2  3  1  0
  3  4  1  0
  4  5  2  0
  5  6  1  0
  6  7  2  0
  7  8  1  0
  8  9  1  0
  9 10  1  0
 10 11  2  0
 11 12  1  0
 12 13  2  0
 13 14  1  0
 14 15  1  0
 15 16  1  0
 16 17  1  0
 16 18  2  0
 18 19  1  0
 19 20  2  0
 20 21  1  0
 21 22  2  0
 22 23  1  0
 23 24  2  0
 13 25  1  0
 25 26  2  0
  8 27  2  0
 27  4  1  0
 26 10  1  0
 24 15  1  0
 24 19  1  0
  1 28  1  0
  1 29  1  0
  1 30  1  0
  2 31  1  0
  2 32  1  0
  5 33  1  0
  6 34  1  0
  7 35  1  0
 11 36  1  0
 12 37  1  0
 14 38  1  0
 14 39  1  0
 17 40  1  0
 17 41  1  0
 17 42  1  0
 20 43  1  0
 21 44  1  0
 22 45  1  0
 25 46  1  0
 26 47  1  0
 27 48  1  0
M  END
>  <UniqueID>  (18) 
14

>  <SMILES>  (18) 
CCOc1cccc(Oc2ccc(Cn3c(C)nc4cccnc43)cc2)c1

>  <Energy>  (18) 
92.99234085192077

>  <Genealogy>  (18) 
CCOc1cccc(Oc2ccc(Cn3c(C)nc4cccnc43)cc2)c1 (3D coordinates assigned)
CCOc1cccc(Oc2ccc(Cn3c(C)nc4cccnc43)cc2)c1 (optimized conformer: 92.99234085192077 kcal/mol)

>  <smiles>  (18) 
CCOc1cccc(Oc2ccc(Cn3c(C)nc4cccnc43)cc2)c1

>  <score_type>  (18) 
oracle

>  <origin>  (18) 
adg

>  <m_score__min__energy>  (18) 
-7.8600000000000003

>  <m_primary>  (18) 
energy

$$$$
18:0
     RDKit          3D

 51 53  0  0  1  0  0  0  0  0999 V2000
   63.3930   33.8690   46.3990 C   0  0  0  0  0  0  0  0  0  0  0  0
   63.0620   32.6980   47.2560 C   0  0  0  0  0  0  0  0  0  0  0  0
   61.8090   32.8120   47.9780 N   0  0  0  0  0  0  0  0  0  0  0  0
   61.4980   31.5850   48.6930 C   0  0  0  0  0  0  0  0  0  0  0  0
   61.0560   30.5060   47.7430 C   0  0  0  0  0  0  0  0  0  0  0  0
   61.8060   33.9570   48.8700 C   0  0  0  0  0  0  0  0  0  0  0  0
   60.4320   34.5600   48.8580 C   0  0  0  0  0  0  0  0  0  0  0  0
   59.6590   34.1460   47.6290 C   0  0  0  0  0  0  0  0  0  0  0  0
   60.0460   34.6000   46.3690 C   0  0  0  0  0  0  0  0  0  0  0  0
   59.3020   34.1850   45.2670 C   0  0  0  0  0  0  0  0  0  0  0  0
   58.2060   33.3410   45.4420 C   0  0  0  0  0  0  0  0  0  0  0  0
   57.4200   32.8910   44.3360 N   0  0  0  0  0  0  0  0  0  0  0  0
   57.3650   31.6180   44.1210 C   0  0  0  0  0  0  0  0  0  0  0  0
   58.0550   30.8100   44.9450 N   0  0  0  0  0  0  0  0  0  0  0  0
   58.0470   29.4900   44.7840 C   0  0  0  0  0  0  0  0  0  0  0  0
   58.7950   28.6140   45.6780 C   0  0  0  0  0  0  0  0  0  0  0  0
   59.8910   27.8920   45.3210 C   0  0  0  0  0  0  0  0  0  0  0  0
   60.5240   27.1000   46.2290 C   0  0  0  0  0  0  0  0  0  0  0  0
   60.0640   27.0120   47.5400 C   0  0  0  0  0  0  0  0  0  0  0  0
   58.9880   27.7190   47.8970 N   0  0  0  0  0  0  0  0  0  0  0  0
   58.3670   28.4970   47.0020 C   0  0  0  0  0  0  0  0  0  0  0  0
   57.3090   28.9730   43.7410 C   0  0  0  0  0  0  0  0  0  0  0  0
   56.5890   29.7960   42.8770 C   0  0  0  0  0  0  0  0  0  0  0  0
   56.6430   31.1190   43.1020 N   0  0  0  0  0  0  0  0  0  0  0  0
   57.8400   32.9010   46.7140 C   0  0  0  0  0  0  0  0  0  0  0  0
   58.5770   33.3110   47.8120 C   0  0  0  0  0  0  0  0  0  0  0  0
   63.6370   34.7321   47.0358 H   0  0  0  0  0  0  0  0  0  0  0  0
   64.2576   33.6259   45.7639 H   0  0  0  0  0  0  0  0  0  0  0  0
   62.5290   34.1145   45.7639 H   0  0  0  0  0  0  0  0  0  0  0  0
   63.0075   31.8071   46.6132 H   0  0  0  0  0  0  0  0  0  0  0  0
   63.8546   32.6344   48.0161 H   0  0  0  0  0  0  0  0  0  0  0  0
   62.3949   31.2451   49.2316 H   0  0  0  0  0  0  0  0  0  0  0  0
   60.6791   31.7881   49.3988 H   0  0  0  0  0  0  0  0  0  0  0  0
   60.6999   29.6368   48.3154 H   0  0  0  0  0  0  0  0  0  0  0  0
   60.2413   30.8865   47.1094 H   0  0  0  0  0  0  0  0  0  0  0  0
   61.9035   30.2056   47.1094 H   0  0  0  0  0  0  0  0  0  0  0  0
   62.0618   33.6345   49.8901 H   0  0  0  0  0  0  0  0  0  0  0  0
   62.5480   34.6980   48.5379 H   0  0  0  0  0  0  0  0  0  0  0  0
   59.8868   34.2259   49.7530 H   0  0  0  0  0  0  0  0  0  0  0  0
   60.5348   35.6552   48.8495 H   0  0  0  0  0  0  0  0  0  0  0  0
   60.9131   35.2661   46.2487 H   0  0  0  0  0  0  0  0  0  0  0  0
   59.5793   34.5234   44.2578 H   0  0  0  0  0  0  0  0  0  0  0  0
   60.2690   27.9487   44.2896 H   0  0  0  0  0  0  0  0  0  0  0  0
   61.4092   26.5228   45.9235 H   0  0  0  0  0  0  0  0  0  0  0  0
   60.5784   26.3704   48.2706 H   0  0  0  0  0  0  0  0  0  0  0  0
   57.4830   29.0677   47.3228 H   0  0  0  0  0  0  0  0  0  0  0  0
   57.2878   27.8841   43.5868 H   0  0  0  0  0  0  0  0  0  0  0  0
   56.0012   29.3795   42.0457 H   0  0  0  0  0  0  0  0  0  0  0  0
   56.1000   31.7240   42.4470 H   0  0  0  0  0  0  0  0  0  0  0  0
   56.9743   32.2348   46.8435 H   0  0  0  0  0  0  0  0  0  0  0  0
   58.3017   32.9734   48.8221 H   0  0  0  0  0  0  0  0  0  0  0  0
  1  2  1  0
  2  3  1  0
  3  4  1  0
  4  5  1  0
  3  6  1  0
  6  7  1  0
  7  8  1  0
  8  9  2  0
  9 10  1  0
 10 11  2  0
 11 12  1  0
 12 13  2  0
 13 14  1  0
 14 15  2  0
 15 16  1  0
 16 17  2  0
 17 18  1  0
 18 19  2  0
 19 20  1  0
 20 21  2  0
 15 22  1  0
 22 23  2  0
 23 24  1  0
 11 25  1  0
 25 26  2  0
 26  8  1  0
 24 13  1  0
 21 16  1  0
  1 27  1  0
  1 28  1  0
  1 29  1  0
  2 30  1  0
  2 31  1  0
  4 32  1  0
  4 33  1  0
  5 34  1  0
  5 35  1  0
  5 36  1  0
  6 37  1  0
  6 38  1  0
  7 39  1  0
  7 40  1  0
  9 41  1  0
 10 42  1  0
 17 43  1  0
 18 44  1  0
 19 45  1  0
 21 46  1  0
 22 47  1  0
 23 48  1  0
 24 49  1  0
 25 50  1  0
 26 51  1  0
M  END
>  <smiles>  (19) 
CCN(CC)CCc1ccc(N=c2nc(-c3cccnc3)cc[nH]2)cc1

>  <score_type>  (19) 
oracle

>  <origin>  (19) 
adg

>  <m_score__min__energy>  (19) 
-8.0700000000000003

>  <m_primary>  (19) 
energy

$$$$
19:0
     RDKit          3D

 30 31  0  0  1  0  0  0  0  0999 V2000
   55.3180   24.5170   45.4470 C   0  0  0  0  0  0  0  0  0  0  0  0
   55.8140   25.5820   46.2930 N   0  0  0  0  0  0  0  0  0  0  0  0
   56.5960   26.4780   45.8160 C   0  0  0  0  0  0  0  0  0  0  0  0
   57.8810   26.1750   45.4950 N   0  0  0  0  0  0  0  0  0  0  0  0
   58.7060   27.1040   44.9950 C   0  0  0  0  0  0  0  0  0  0  0  0
   58.2800   28.3920   44.7930 C   0  0  0  0  0  0  0  0  0  0  0  0
   56.9720   28.6880   45.1240 C   0  0  0  0  0  0  0  0  0  0  0  0
   56.5740   29.8840   44.9360 N   0  0  0  0  0  0  0  0  0  0  0  0
   57.0400   30.8360   44.0020 C   0  0  0  0  0  0  0  0  0  0  0  0
   57.3330   32.2250   44.4090 C   0  0  0  0  0  0  0  0  0  0  0  0
   58.1520   32.6070   43.1560 C   0  0  0  0  0  0  0  0  0  0  0  0
   57.4130   31.9490   41.9910 C   0  0  0  0  0  0  0  0  0  0  0  0
   56.6490   30.7590   42.5890 C   0  0  0  0  0  0  0  0  0  0  0  0
   56.1590   27.7500   45.6210 N   0  0  0  0  0  0  0  0  0  0  0  0
   54.9365   23.6979   46.0743 H   0  0  0  0  0  0  0  0  0  0  0  0
   54.5061   24.9011   44.8119 H   0  0  0  0  0  0  0  0  0  0  0  0
   56.1345   24.1428   44.8119 H   0  0  0  0  0  0  0  0  0  0  0  0
   58.1910   25.1970   45.6530 H   0  0  0  0  0  0  0  0  0  0  0  0
   59.7409   26.8299   44.7425 H   0  0  0  0  0  0  0  0  0  0  0  0
   58.9536   29.1592   44.3835 H   0  0  0  0  0  0  0  0  0  0  0  0
   58.0069   30.3152   44.0645 H   0  0  0  0  0  0  0  0  0  0  0  0
   56.4234   32.8334   44.5211 H   0  0  0  0  0  0  0  0  0  0  0  0
   57.8232   32.3638   45.3839 H   0  0  0  0  0  0  0  0  0  0  0  0
   58.1801   33.6994   43.0296 H   0  0  0  0  0  0  0  0  0  0  0  0
   59.1978   32.2733   43.2259 H   0  0  0  0  0  0  0  0  0  0  0  0
   56.7115   32.6616   41.5327 H   0  0  0  0  0  0  0  0  0  0  0  0
   58.1104   31.6246   41.2046 H   0  0  0  0  0  0  0  0  0  0  0  0
   55.5623   30.8774   42.4664 H   0  0  0  0  0  0  0  0  0  0  0  0
   56.8800   29.7946   42.1130 H   0  0  0  0  0  0  0  0  0  0  0  0
   55.1630   28.0130   45.8630 H   0  0  0  0  0  0  0  0  0  0  0  0
  1  2  1  0
  2  3  2  0
  3  4  1  0
  4  5  1  0
  5  6  2  0
  6  7  1  0
  7  8  2  0
  8  9  1  0
  9 10  1  0
 10 11  1  0
 11 12  1  0
 12 13  1  0
  7 14  1  0
 14  3  1  0
 13  9  1  0
  1 15  1  0
  1 16  1  0
  1 17  1  0
  4 18  1  0
  5 19  1  0
  6 20  1  0
  9 21  1  0
 10 22  1  0
 10 23  1  0
 11 24  1  0
 11 25  1  0
 12 26  1  0
 12 27  1  0
 13 28  1  0
 13 29  1  0
 14 30  1  0
M  END
>  <smiles>  (20) 
CN=c1[nH]ccc(=NC2CCCC2)[nH]1

>  <score_type>  (20) 
oracle

>  <origin>  (20) 
adg

>  <m_score__min__energy>  (20) 
-6.2599999999999998

>  <m_primary>  (20) 
energy

$$$$
20:0
     RDKit          3D

 28 30  0  0  0  0  0  0  0  0999 V2000
   59.2710   25.1560   45.9950 C   0  0  0  0  0  0  0  0  0  0  0  0
   58.9390   26.5650   45.6120 C   0  0  0  0  0  0  0  0  0  0  0  0
   59.3970   27.6540   46.3890 C   0  0  0  0  0  0  0  0  0  0  0  0
   59.0580   28.9340   46.0600 N   0  0  0  0  0  0  0  0  0  0  0  0
   58.2730   29.1470   44.9760 C   0  0  0  0  0  0  0  0  0  0  0  0
   57.7810   30.3420   44.4780 C   0  0  0  0  0  0  0  0  0  0  0  0
   58.0070   31.7230   44.9650 C   0  0  0  0  0  0  0  0  0  0  0  0
   58.0660   32.8080   44.0690 C   0  0  0  0  0  0  0  0  0  0  0  0
   58.2760   34.1070   44.5430 C   0  0  0  0  0  0  0  0  0  0  0  0
   58.4260   34.3390   45.9110 C   0  0  0  0  0  0  0  0  0  0  0  0
   58.3620   33.2720   46.8100 C   0  0  0  0  0  0  0  0  0  0  0  0
   58.1500   31.9720   46.3430 C   0  0  0  0  0  0  0  0  0  0  0  0
   56.9870   29.9400   43.3980 C   0  0  0  0  0  0  0  0  0  0  0  0
   57.0280   28.5930   43.2840 N   0  0  0  0  0  0  0  0  0  0  0  0
   57.8070   28.1280   44.2440 N   0  0  0  0  0  0  0  0  0  0  0  0
   58.1010   26.8340   44.5160 C   0  0  0  0  0  0  0  0  0  0  0  0
   59.2915   25.0692   47.0914 H   0  0  0  0  0  0  0  0  0  0  0  0
   58.5085   24.4759   45.5875 H   0  0  0  0  0  0  0  0  0  0  0  0
   60.2569   24.8879   45.5875 H   0  0  0  0  0  0  0  0  0  0  0  0
   60.0327   27.4674   47.2671 H   0  0  0  0  0  0  0  0  0  0  0  0
   57.9462   32.6327   42.9897 H   0  0  0  0  0  0  0  0  0  0  0  0
   58.3231   34.9481   43.8356 H   0  0  0  0  0  0  0  0  0  0  0  0
   58.5945   35.3612   46.2808 H   0  0  0  0  0  0  0  0  0  0  0  0
   58.4788   33.4554   47.8883 H   0  0  0  0  0  0  0  0  0  0  0  0
   58.0945   31.1374   47.0574 H   0  0  0  0  0  0  0  0  0  0  0  0
   56.4174   30.6155   42.7428 H   0  0  0  0  0  0  0  0  0  0  0  0
   56.5310   28.0110   42.5740 H   0  0  0  0  0  0  0  0  0  0  0  0
   57.6964   26.0188   43.8982 H   0  0  0  0  0  0  0  0  0  0  0  0
  1  2  1  0
  2  3  1  0
  3  4  2  0
  4  5  1  0
  5  6  2  0
  6  7  1  0
  7  8  2  0
  8  9  1  0
  9 10  2  0
 10 11  1  0
 11 12  2  0
  6 13  1  0
 13 14  2  0
 14 15  1  0
 15 16  1  0
 16  2  2  0
 15  5  1  0
 12  7  1  0
  1 17  1  0
  1 18  1  0
  1 19  1  0
  3 20  1  0
  8 21  1  0
  9 22  1  0
 10 23  1  0
 11 24  1  0
 12 25  1  0
 13 26  1  0
 14 27  1  0
 16 28  1  0
M  CHG  1  14   1
M  END
>  <UniqueID>  (21) 
15

>  <SMILES>  (21) 
Cc1cnc2c(-c3ccccc3)c[nH+]n2c1

>  <Energy>  (21) 
71.22787218250802

>  <Genealogy>  (21) 
Cc1cnc2c(-c3ccccc3)c[nH+]n2c1 (protonated)
Cc1cnc2c(-c3ccccc3)c[nH+]n2c1 (3D coordinates assigned)
Cc1cnc2c(-c3ccccc3)c[nH+]n2c1 (optimized conformer: 71.22787218250802 kcal/mol)

>  <smiles>  (21) 
Cc1cnc2c(-c3ccccc3)cnn2c1

>  <score_type>  (21) 
oracle

>  <origin>  (21) 
adg

>  <m_score__min__energy>  (21) 
-5.0499999999999998

>  <m_primary>  (21) 
energy

$$$$
21:0
     RDKit          3D

 40 42  0  0  0  0  0  0  0  0999 V2000
   57.3490   21.2730   42.9920 C   0  0  0  0  0  0  0  0  0  0  0  0
   56.8020   22.3870   43.8780 C   0  0  0  0  0  0  0  0  0  0  0  0
   57.8640   23.0660   44.5450 O   0  0  0  0  0  0  0  0  0  0  0  0
   57.6820   23.8560   45.6880 C   0  0  0  0  0  0  0  0  0  0  0  0
   57.7950   23.3370   46.8330 O   0  0  0  0  0  0  0  0  0  0  0  0
   57.3480   25.2990   45.5590 C   0  0  0  0  0  0  0  0  0  0  0  0
   58.3210   26.2080   45.1110 C   0  0  0  0  0  0  0  0  0  0  0  0
   58.0080   27.5620   44.9890 C   0  0  0  0  0  0  0  0  0  0  0  0
   58.9520   28.4970   44.5450 C   0  0  0  0  0  0  0  0  0  0  0  0
   58.6020   29.8460   44.4380 C   0  0  0  0  0  0  0  0  0  0  0  0
   57.3140   30.2800   44.7740 C   0  0  0  0  0  0  0  0  0  0  0  0
   57.0230   31.6480   44.6530 O   0  0  0  0  0  0  0  0  0  0  0  0
   57.9920   32.6920   44.5390 C   0  0  0  0  0  0  0  0  0  0  0  0
   58.6690   32.9410   45.8600 C   0  0  0  0  0  0  0  0  0  0  0  0
   57.9300   32.8780   47.0520 C   0  0  0  0  0  0  0  0  0  0  0  0
   58.5550   33.1020   48.2820 C   0  0  0  0  0  0  0  0  0  0  0  0
   59.9230   33.3840   48.3320 C   0  0  0  0  0  0  0  0  0  0  0  0
   60.6700   33.4370   47.1510 C   0  0  0  0  0  0  0  0  0  0  0  0
   62.3870   33.7860   47.2140 Cl  0  0  0  0  0  0  0  0  0  0  0  0
   60.0460   33.2110   45.9180 C   0  0  0  0  0  0  0  0  0  0  0  0
   56.3630   29.3370   45.2130 C   0  0  0  0  0  0  0  0  0  0  0  0
   56.7070   27.9860   45.3240 C   0  0  0  0  0  0  0  0  0  0  0  0
   55.8060   27.1050   45.7440 O   0  0  0  0  0  0  0  0  0  0  0  0
   56.0680   25.8070   45.8720 C   0  0  0  0  0  0  0  0  0  0  0  0
   55.1500   25.0450   46.2780 O   0  0  0  0  0  0  0  0  0  0  0  0
   57.7461   20.4642   43.6230 H   0  0  0  0  0  0  0  0  0  0  0  0
   56.5415   20.8797   42.3569 H   0  0  0  0  0  0  0  0  0  0  0  0
   58.1539   21.6714   42.3569 H   0  0  0  0  0  0  0  0  0  0  0  0
   56.2487   23.1053   43.2552 H   0  0  0  0  0  0  0  0  0  0  0  0
   56.1352   21.9444   44.6327 H   0  0  0  0  0  0  0  0  0  0  0  0
   59.3301   25.8519   44.8563 H   0  0  0  0  0  0  0  0  0  0  0  0
   59.9684   28.1697   44.2807 H   0  0  0  0  0  0  0  0  0  0  0  0
   59.3469   30.5748   44.0859 H   0  0  0  0  0  0  0  0  0  0  0  0
   58.7487   32.4018   43.7953 H   0  0  0  0  0  0  0  0  0  0  0  0
   57.4807   33.6143   44.2260 H   0  0  0  0  0  0  0  0  0  0  0  0
   56.8542   32.6513   47.0178 H   0  0  0  0  0  0  0  0  0  0  0  0
   57.9693   33.0563   49.2120 H   0  0  0  0  0  0  0  0  0  0  0  0
   60.4122   33.5643   49.3006 H   0  0  0  0  0  0  0  0  0  0  0  0
   60.6369   33.2451   44.9908 H   0  0  0  0  0  0  0  0  0  0  0  0
   55.3450   29.6653   45.4696 H   0  0  0  0  0  0  0  0  0  0  0  0
  1  2  1  0
  2  3  1  0
  3  4  1  0
  4  5  2  0
  4  6  1  0
  6  7  2  0
  7  8  1  0
  8  9  2  0
  9 10  1  0
 10 11  2  0
 11 12  1  0
 12 13  1  0
 13 14  1  0
 14 15  2  0
 15 16  1  0
 16 17  2  0
 17 18  1  0
 18 19  1  0
 18 20  2  0
 11 21  1  0
 21 22  2  0
 22 23  1  0
 23 24  1  0
 24 25  2  0
 24  6  1  0
 22  8  1  0
 20 14  1  0
  1 26  1  0
  1 27  1  0
  1 28  1  0
  2 29  1  0
  2 30  1  0
  7 31  1  0
  9 32  1  0
 10 33  1  0
 13 34  1  0
 13 35  1  0
 15 36  1  0
 16 37  1  0
 17 38  1  0
 20 39  1  0
 21 40  1  0
M  END
>  <UniqueID>  (22) 
16

>  <SMILES>  (22) 
CCOC(=O)c1cc2ccc(OCc3cccc(Cl)c3)cc2oc1=O

>  <Energy>  (22) 
44.29711416998818

>  <Genealogy>  (22) 
CCOC(=O)c1cc2ccc(OCc3cccc(Cl)c3)cc2oc1=O (3D coordinates assigned)
CCOC(=O)c1cc2ccc(OCc3cccc(Cl)c3)cc2oc1=O (optimized conformer: 44.29711416998818 kcal/mol)

>  <smiles>  (22) 
CCOC(=O)c1cc2ccc(OCc3cccc(Cl)c3)cc2oc1=O

>  <score_type>  (22) 
oracle

>  <origin>  (22) 
adg

>  <m_score__min__energy>  (22) 
-8.6099999999999994

>  <m_primary>  (22) 
energy

$$$$
22:0
     RDKit          3D

 42 45  0  0  0  0  0  0  0  0999 V2000
   57.9090   27.7820   45.0810 C   0  0  0  0  0  0  0  0  0  0  0  0
   57.1210   29.0230   44.6450 C   0  0  2  0  0  0  0  0  0  0  0  0
   56.9810   29.0560   43.1010 C   0  0  0  0  0  0  0  0  0  0  0  0
   56.4430   30.4130   42.6030 C   0  0  0  0  0  0  0  0  0  0  0  0
   57.3980   31.5660   42.9580 C   0  0  0  0  0  0  0  0  0  0  0  0
   57.8310   31.4550   44.3870 C   0  0  0  0  0  0  0  0  0  0  0  0
   57.7740   30.2900   45.1390 C   0  0  0  0  0  0  0  0  0  0  0  0
   58.2480   30.5030   46.3900 N   0  0  0  0  0  0  0  0  0  0  0  0
   58.6450   31.7910   46.4100 C   0  0  0  0  0  0  0  0  0  0  0  0
   59.2130   32.4810   47.4780 C   0  0  0  0  0  0  0  0  0  0  0  0
   59.5620   33.8390   47.2890 C   0  0  0  0  0  0  0  0  0  0  0  0
   60.1220   34.6010   48.3760 N   0  0  0  0  0  0  0  0  0  0  0  0
   61.4970   34.2170   48.5740 C   0  0  0  0  0  0  0  0  0  0  0  0
   62.2880   33.8080   47.4840 C   0  0  0  0  0  0  0  0  0  0  0  0
   63.6120   33.4060   47.6830 C   0  0  0  0  0  0  0  0  0  0  0  0
   64.1570   33.4010   48.9700 C   0  0  0  0  0  0  0  0  0  0  0  0
   63.3780   33.7960   50.0610 C   0  0  0  0  0  0  0  0  0  0  0  0
   62.0540   34.2000   49.8660 C   0  0  0  0  0  0  0  0  0  0  0  0
   59.3140   34.4590   46.0340 C   0  0  0  0  0  0  0  0  0  0  0  0
   58.7350   33.7360   44.9760 C   0  0  0  0  0  0  0  0  0  0  0  0
   58.4130   32.4010   45.2020 C   0  0  0  0  0  0  0  0  0  0  0  0
   57.9394   27.7342   46.1795 H   0  0  0  0  0  0  0  0  0  0  0  0
   57.4183   26.8793   44.6881 H   0  0  0  0  0  0  0  0  0  0  0  0
   58.9347   27.8422   44.6881 H   0  0  0  0  0  0  0  0  0  0  0  0
   56.1187   28.9624   45.0942 H   0  0  0  0  0  0  0  0  0  0  0  0
   57.9683   28.8774   42.6502 H   0  0  0  0  0  0  0  0  0  0  0  0
   56.2644   28.2753   42.8061 H   0  0  0  0  0  0  0  0  0  0  0  0
   56.3251   30.3709   41.5102 H   0  0  0  0  0  0  0  0  0  0  0  0
   55.4777   30.6019   43.0955 H   0  0  0  0  0  0  0  0  0  0  0  0
   58.2823   31.5198   42.3054 H   0  0  0  0  0  0  0  0  0  0  0  0
   56.8755   32.5232   42.8138 H   0  0  0  0  0  0  0  0  0  0  0  0
   58.2850   29.8240   47.1820 H   0  0  0  0  0  0  0  0  0  0  0  0
   59.3858   31.9831   48.4435 H   0  0  0  0  0  0  0  0  0  0  0  0
   60.0620   35.6250   48.1650 H   0  0  0  0  0  0  0  0  0  0  0  0
   59.5720   34.4390   49.2510 H   0  0  0  0  0  0  0  0  0  0  0  0
   61.8620   33.8047   46.4699 H   0  0  0  0  0  0  0  0  0  0  0  0
   64.2258   33.0932   46.8254 H   0  0  0  0  0  0  0  0  0  0  0  0
   65.1996   33.0860   49.1243 H   0  0  0  0  0  0  0  0  0  0  0  0
   63.8070   33.7890   51.0739 H   0  0  0  0  0  0  0  0  0  0  0  0
   61.4436   34.5066   50.7282 H   0  0  0  0  0  0  0  0  0  0  0  0
   59.5782   35.5169   45.8888 H   0  0  0  0  0  0  0  0  0  0  0  0
   58.5429   34.2098   44.0021 H   0  0  0  0  0  0  0  0  0  0  0  0
  1  2  1  0
  2  3  1  0
  3  4  1  0
  4  5  1  0
  5  6  1  0
  6  7  2  0
  7  8  1  0
  8  9  1  0
  9 10  2  0
 10 11  1  0
 11 12  1  0
 12 13  1  0
 13 14  2  0
 14 15  1  0
 15 16  2  0
 16 17  1  0
 17 18  2  0
 11 19  2  0
 19 20  1  0
 20 21  2  0
  7  2  1  0
 21  9  1  0
 21  6  1  0
 18 13  1  0
  1 22  1  0
  1 23  1  0
  1 24  1  0
  2 25  1  1
  3 26  1  0
  3 27  1  0
  4 28  1  0
  4 29  1  0
  5 30  1  0
  5 31  1  0
  8 32  1  0
 10 33  1  0
 12 34  1  0
 12 35  1  0
 14 36  1  0
 15 37  1  0
 16 38  1  0
 17 39  1  0
 18 40  1  0
 19 41  1  0
 20 42  1  0
M  CHG  1  12   1
M  END
>  <UniqueID>  (23) 
17

>  <SMILES>  (23) 
C[C@@H]1CCCc2c1[nH]c1cc([NH2+]c3ccccc3)ccc21

>  <Energy>  (23) 
77.99111824790242

>  <Genealogy>  (23) 
CC1CCCc2c1[nH]c1cc([NH2+]c3ccccc3)ccc21 (protonated)
C[C@@H]1CCCc2c1[nH]c1cc([NH2+]c3ccccc3)ccc21 (chirality)
C[C@@H]1CCCc2c1[nH]c1cc([NH2+]c3ccccc3)ccc21 (3D coordinates assigned)
C[C@@H]1CCCc2c1[nH]c1cc([NH2+]c3ccccc3)ccc21 (nonaromatic ring conformer: 77.99111824790242 kcal/mol)

>  <smiles>  (23) 
CC1CCCc2c1[nH]c1cc(Nc3ccccc3)ccc21

>  <score_type>  (23) 
oracle

>  <origin>  (23) 
adg

>  <m_score__min__energy>  (23) 
-6.6600000000000001

>  <m_primary>  (23) 
energy

$$$$
23:0
     RDKit          3D

 53 56  0  0  0  0  0  0  0  0999 V2000
   56.1411   30.2490   41.7012 H   0  0  0  0  0  0  0  0  0  0  0  0
   56.7080   30.8320   42.4420 C   0  0  0  0  0  0  0  0  0  0  0  0
   56.7490   30.4160   43.7730 C   0  0  0  0  0  0  0  0  0  0  0  0
   56.2055   29.5091   44.0767 H   0  0  0  0  0  0  0  0  0  0  0  0
   57.4750   31.1410   44.7270 C   0  0  0  0  0  0  0  0  0  0  0  0
   57.5610   30.5960   46.0520 N   0  0  0  0  0  0  0  0  0  0  0  0
   58.3250   29.4490   46.4570 C   0  0  0  0  0  0  0  0  0  0  0  0
   59.1900   29.5960   47.3610 O   0  0  0  0  0  0  0  0  0  0  0  0
   58.1280   28.1080   45.8580 C   0  0  0  0  0  0  0  0  0  0  0  0
   58.3060   27.8900   44.4810 C   0  0  0  0  0  0  0  0  0  0  0  0
   58.5765   28.7311   43.8257 H   0  0  0  0  0  0  0  0  0  0  0  0
   58.1420   26.6130   43.9380 C   0  0  0  0  0  0  0  0  0  0  0  0
   58.3022   26.4525   42.8616 H   0  0  0  0  0  0  0  0  0  0  0  0
   57.7740   25.5330   44.7570 C   0  0  0  0  0  0  0  0  0  0  0  0
   57.6270   24.2110   44.2020 N   0  0  0  0  0  0  0  0  0  0  0  0
   58.4510   23.0950   44.6870 C   0  0  0  0  0  0  0  0  0  0  0  0
   59.0920   22.7352   43.8687 H   0  0  0  0  0  0  0  0  0  0  0  0
   59.0704   23.4464   45.5253 H   0  0  0  0  0  0  0  0  0  0  0  0
   57.5580   21.9430   45.1750 C   0  0  0  0  0  0  0  0  0  0  0  0
   58.1424   21.0116   45.1435 H   0  0  0  0  0  0  0  0  0  0  0  0
   57.2315   22.1954   46.1947 H   0  0  0  0  0  0  0  0  0  0  0  0
   56.2830   21.7500   44.3230 C   0  0  0  0  0  0  0  0  0  0  0  0
   56.1369   20.6740   44.1473 H   0  0  0  0  0  0  0  0  0  0  0  0
   55.4422   22.1895   44.8796 H   0  0  0  0  0  0  0  0  0  0  0  0
   56.3630   22.4620   42.9670 C   0  0  0  0  0  0  0  0  0  0  0  0
   57.1876   22.0316   42.3798 H   0  0  0  0  0  0  0  0  0  0  0  0
   55.4094   22.3260   42.4358 H   0  0  0  0  0  0  0  0  0  0  0  0
   56.6130   23.9640   43.1650 C   0  0  0  0  0  0  0  0  0  0  0  0
   56.9607   24.3965   42.2152 H   0  0  0  0  0  0  0  0  0  0  0  0
   55.6703   24.4307   43.4867 H   0  0  0  0  0  0  0  0  0  0  0  0
   57.5720   25.7550   46.1280 C   0  0  0  0  0  0  0  0  0  0  0  0
   57.2849   24.9172   46.7805 H   0  0  0  0  0  0  0  0  0  0  0  0
   57.7330   27.0330   46.6700 C   0  0  0  0  0  0  0  0  0  0  0  0
   57.5487   27.1980   47.7418 H   0  0  0  0  0  0  0  0  0  0  0  0
   58.1150   32.3520   44.3480 C   0  0  0  0  0  0  0  0  0  0  0  0
   58.7630   33.2520   45.3310 C   0  0  0  0  0  0  0  0  0  0  0  0
   58.5150   34.4870   45.2920 O   0  0  0  0  0  0  0  0  0  0  0  0
   59.5520   32.6940   46.3970 N   0  0  0  0  0  0  0  0  0  0  0  0
   59.4820   32.9070   47.6840 C   0  0  0  0  0  0  0  0  0  0  0  0
   60.2390   33.9040   48.3400 C   0  0  0  0  0  0  0  0  0  0  0  0
   60.9125   34.5563   47.7648 H   0  0  0  0  0  0  0  0  0  0  0  0
   60.1260   34.0550   49.7220 C   0  0  0  0  0  0  0  0  0  0  0  0
   60.7106   34.8298   50.2397 H   0  0  0  0  0  0  0  0  0  0  0  0
   59.2740   33.2260   50.4470 C   0  0  0  0  0  0  0  0  0  0  0  0
   59.1737   33.3465   51.5358 H   0  0  0  0  0  0  0  0  0  0  0  0
   58.5500   32.2420   49.7770 C   0  0  0  0  0  0  0  0  0  0  0  0
   57.8780   31.5775   50.3398 H   0  0  0  0  0  0  0  0  0  0  0  0
   58.6710   32.1000   48.4300 N   0  0  0  0  0  0  0  0  0  0  0  0
   58.1190   31.3470   47.9590 H   0  0  0  0  0  0  0  0  0  0  0  0
   58.0800   32.7440   42.9960 C   0  0  0  0  0  0  0  0  0  0  0  0
   58.6058   33.6574   42.6809 H   0  0  0  0  0  0  0  0  0  0  0  0
   57.3850   31.9860   42.0500 C   0  0  0  0  0  0  0  0  0  0  0  0
   57.3410   32.5030   40.3730 Cl  0  0  0  0  0  0  0  0  0  0  0  0
  1  2  1  0
  2  3  2  0
  3  4  1  0
  3  5  1  0
  5  6  1  0
  6  7  1  0
  7  8  2  0
  7  9  1  0
  9 10  2  0
 10 11  1  0
 10 12  1  0
 12 13  1  0
 12 14  2  0
 14 15  1  0
 15 16  1  0
 16 17  1  0
 16 18  1  0
 16 19  1  0
 19 20  1  0
 19 21  1  0
 19 22  1  0
 22 23  1  0
 22 24  1  0
 22 25  1  0
 25 26  1  0
 25 27  1  0
 25 28  1  0
 28 29  1  0
 28 30  1  0
 14 31  1  0
 31 32  1  0
 31 33  2  0
 33 34  1  0
  5 35  2  0
 35 36  1  0
 36 37  2  0
 36 38  1  0
 38 39  2  0
 39 40  1  0
 40 41  1  0
 40 42  2  0
 42 43  1  0
 42 44  1  0
 44 45  1  0
 44 46  2  0
 46 47  1  0
 46 48  1  0
 48 49  1  0
 35 50  1  0
 50 51  1  0
 50 52  2  0
 52 53  1  0
 52  2  1  0
 33  9  1  0
 48 39  1  0
 28 15  1  0
M  CHG  1   6  -1
M  END
>  <UniqueID>  (24) 
18

>  <SMILES>  (24) 
O=C([N-]c1ccc(Cl)cc1C(=O)/N=c1\cccc[nH]1)c1ccc(N2CCCCC2)cc1

>  <Energy>  (24) 
80.1145289478658

>  <Genealogy>  (24) 
O=C([N-]c1ccc(Cl)cc1C(=O)N=c1cccc[nH]1)c1ccc(N2CCCCC2)cc1 (protonated)
O=C([N-]c1ccc(Cl)cc1C(=O)/N=c1\cccc[nH]1)c1ccc(N2CCCCC2)cc1 (cis-trans isomerization)
O=C([N-]c1ccc(Cl)cc1C(=O)/N=c1\cccc[nH]1)c1ccc(N2CCCCC2)cc1 (3D coordinates assigned)
O=C([N-]c1ccc(Cl)cc1C(=O)/N=c1\cccc[nH]1)c1ccc(N2CCCCC2)cc1 (nonaromatic ring conformer: 80.1145289478658 kcal/mol)

>  <smiles>  (24) 
O=C(Nc1ccc(Cl)cc1C(=O)N=c1cccc[nH]1)c1ccc(N2CCCCC2)cc1

>  <score_type>  (24) 
oracle

>  <origin>  (24) 
adg

>  <m_score__min__energy>  (24) 
-11.6

>  <m_primary>  (24) 
energy

$$$$
24:0
     RDKit          3D

 31 33  0  0  0  0  0  0  0  0999 V2000
   57.0500   34.0250   45.2490 C   0  0  0  0  0  0  0  0  0  0  0  0
   57.4110   32.5770   45.2530 C   0  0  0  0  0  0  0  0  0  0  0  0
   56.6410   31.5960   44.7240 N   0  0  0  0  0  0  0  0  0  0  0  0
   57.2850   30.4430   44.8810 N   0  0  0  0  0  0  0  0  0  0  0  0
   56.7740   29.1550   44.4290 C   0  0  0  0  0  0  0  0  0  0  0  0
   58.4590   30.6800   45.4960 C   0  0  0  0  0  0  0  0  0  0  0  0
   59.4580   29.7780   45.8550 C   0  0  0  0  0  0  0  0  0  0  0  0
   60.6050   30.2910   46.4900 C   0  0  0  0  0  0  0  0  0  0  0  0
   60.7340   31.6840   46.7530 C   0  0  0  0  0  0  0  0  0  0  0  0
   61.9490   32.2130   47.4230 C   0  0  0  0  0  0  0  0  0  0  0  0
   62.4570   31.5900   48.5790 C   0  0  0  0  0  0  0  0  0  0  0  0
   63.6010   32.0900   49.2090 C   0  0  0  0  0  0  0  0  0  0  0  0
   64.2500   33.2150   48.6930 C   0  0  0  0  0  0  0  0  0  0  0  0
   63.7550   33.8410   47.5480 C   0  0  0  0  0  0  0  0  0  0  0  0
   62.6120   33.3460   46.9140 C   0  0  0  0  0  0  0  0  0  0  0  0
   59.6920   32.5630   46.3670 C   0  0  0  0  0  0  0  0  0  0  0  0
   58.5740   32.0170   45.7430 C   0  0  0  0  0  0  0  0  0  0  0  0
   56.9606   34.3835   46.2851 H   0  0  0  0  0  0  0  0  0  0  0  0
   57.8331   34.5967   44.7295 H   0  0  0  0  0  0  0  0  0  0  0  0
   56.0902   34.1622   44.7295 H   0  0  0  0  0  0  0  0  0  0  0  0
   56.5268   28.5320   45.3013 H   0  0  0  0  0  0  0  0  0  0  0  0
   55.8699   29.3117   43.8223 H   0  0  0  0  0  0  0  0  0  0  0  0
   57.5396   28.6492   43.8223 H   0  0  0  0  0  0  0  0  0  0  0  0
   59.3543   28.7024   45.6495 H   0  0  0  0  0  0  0  0  0  0  0  0
   61.4127   29.6059   46.7870 H   0  0  0  0  0  0  0  0  0  0  0  0
   61.9505   30.7039   48.9894 H   0  0  0  0  0  0  0  0  0  0  0  0
   63.9906   31.5971   50.1119 H   0  0  0  0  0  0  0  0  0  0  0  0
   65.1503   33.6068   49.1889 H   0  0  0  0  0  0  0  0  0  0  0  0
   64.2662   34.7269   47.1432 H   0  0  0  0  0  0  0  0  0  0  0  0
   62.2280   33.8447   46.0118 H   0  0  0  0  0  0  0  0  0  0  0  0
   59.7644   33.6444   46.5548 H   0  0  0  0  0  0  0  0  0  0  0  0
  1  2  1  0
  2  3  2  0
  3  4  1  0
  4  5  1  0
  4  6  1  0
  6  7  2  0
  7  8  1  0
  8  9  2  0
  9 10  1  0
 10 11  2  0
 11 12  1  0
 12 13  2  0
 13 14  1  0
 14 15  2  0
  9 16  1  0
 16 17  2  0
 17  2  1  0
 17  6  1  0
 15 10  1  0
  1 18  1  0
  1 19  1  0
  1 20  1  0
  5 21  1  0
  5 22  1  0
  5 23  1  0
  7 24  1  0
  8 25  1  0
 11 26  1  0
 12 27  1  0
 13 28  1  0
 14 29  1  0
 15 30  1  0
 16 31  1  0
M  END
>  <UniqueID>  (25) 
19

>  <SMILES>  (25) 
Cc1nn(C)c2ccc(-c3ccccc3)cc12

>  <Energy>  (25) 
75.48845305953856

>  <Genealogy>  (25) 
Cc1nn(C)c2ccc(-c3ccccc3)cc12 (3D coordinates assigned)
Cc1nn(C)c2ccc(-c3ccccc3)cc12 (optimized conformer: 75.48845305953856 kcal/mol)

>  <smiles>  (25) 
Cc1nn(C)c2ccc(-c3ccccc3)cc12

>  <score_type>  (25) 
oracle

>  <origin>  (25) 
adg

>  <m_score__min__energy>  (25) 
-6.7999999999999998

>  <m_primary>  (25) 
energy

$$$$
25:0
     RDKit          3D

 28 29  0  0  0  0  0  0  0  0999 V2000
   59.5870   31.5280   52.3600 C   0  0  0  0  0  0  0  0  0  0  0  0
   58.1300   31.5770   52.2350 N   0  0  0  0  0  0  0  0  0  0  0  0
   57.4440   32.8640   52.3580 C   0  0  0  0  0  0  0  0  0  0  0  0
   57.4090   30.3630   51.9480 C   0  0  0  0  0  0  0  0  0  0  0  0
   57.9370   29.4920   51.2040 O   0  0  0  0  0  0  0  0  0  0  0  0
   56.0640   30.1020   52.5160 C   0  0  0  0  0  0  0  0  0  0  0  0
   55.9070   29.1670   53.5510 C   0  0  0  0  0  0  0  0  0  0  0  0
   54.6470   28.9260   54.0980 C   0  0  0  0  0  0  0  0  0  0  0  0
   53.5310   29.6210   53.6270 C   0  0  0  0  0  0  0  0  0  0  0  0
   53.6640   30.5750   52.6030 C   0  0  0  0  0  0  0  0  0  0  0  0
   52.4800   31.3200   52.1050 C   0  0  0  0  0  0  0  0  0  0  0  0
   51.4180   31.8170   52.8410 C   0  0  0  0  0  0  0  0  0  0  0  0
   50.5520   32.4270   52.0120 N   0  0  0  0  0  0  0  0  0  0  0  0
   51.0160   32.3380   50.7740 N   0  0  0  0  0  0  0  0  0  0  0  0
   52.1860   31.6720   50.8000 C   0  0  0  0  0  0  0  0  0  0  0  0
   54.9400   30.8130   52.0590 C   0  0  0  0  0  0  0  0  0  0  0  0
   59.8636   31.5187   53.4246 H   0  0  0  0  0  0  0  0  0  0  0  0
   59.9662   30.6166   51.8747 H   0  0  0  0  0  0  0  0  0  0  0  0
   60.0266   32.4119   51.8747 H   0  0  0  0  0  0  0  0  0  0  0  0
   57.3131   33.1095   53.4222 H   0  0  0  0  0  0  0  0  0  0  0  0
   58.0442   33.6473   51.8721 H   0  0  0  0  0  0  0  0  0  0  0  0
   56.4591   32.8024   51.8721 H   0  0  0  0  0  0  0  0  0  0  0  0
   56.7825   28.6214   53.9327 H   0  0  0  0  0  0  0  0  0  0  0  0
   54.5318   28.1857   54.9034 H   0  0  0  0  0  0  0  0  0  0  0  0
   52.5402   29.4204   54.0606 H   0  0  0  0  0  0  0  0  0  0  0  0
   51.3009   31.7273   53.9311 H   0  0  0  0  0  0  0  0  0  0  0  0
   52.8091   31.4440   49.9227 H   0  0  0  0  0  0  0  0  0  0  0  0
   55.0598   31.5654   51.2655 H   0  0  0  0  0  0  0  0  0  0  0  0
  1  2  1  0
  2  3  1  0
  2  4  1  0
  4  5  2  0
  4  6  1  0
  6  7  2  0
  7  8  1  0
  8  9  2  0
  9 10  1  0
 10 11  1  0
 11 12  1  0
 12 13  2  0
 13 14  1  0
 14 15  1  0
 10 16  2  0
 16  6  1  0
 15 11  2  0
  1 17  1  0
  1 18  1  0
  1 19  1  0
  3 20  1  0
  3 21  1  0
  3 22  1  0
  7 23  1  0
  8 24  1  0
  9 25  1  0
 12 26  1  0
 15 27  1  0
 16 28  1  0
M  CHG  1  14  -1
M  END
>  <UniqueID>  (26) 
20

>  <SMILES>  (26) 
CN(C)C(=O)c1cccc(-c2cn[n-]c2)c1

>  <Energy>  (26) 
62.7398930263193

>  <Genealogy>  (26) 
CN(C)C(=O)c1cccc(-c2cn[n-]c2)c1 (protonated)
CN(C)C(=O)c1cccc(-c2cn[n-]c2)c1 (3D coordinates assigned)
CN(C)C(=O)c1cccc(-c2cn[n-]c2)c1 (optimized conformer: 62.7398930263193 kcal/mol)

>  <smiles>  (26) 
CN(C)C(=O)c1cccc(-c2cn[nH]c2)c1

>  <score_type>  (26) 
oracle

>  <origin>  (26) 
adg

>  <m_score__min__energy>  (26) 
-8.6500000000000004

>  <m_primary>  (26) 
energy

$$$$
26:0
     RDKit          3D

 44 46  0  0  0  0  0  0  0  0999 V2000
   59.6500   34.5830   47.3510 C   0  0  0  0  0  0  0  0  0  0  0  0
   58.4220   33.9320   47.4930 C   0  0  0  0  0  0  0  0  0  0  0  0
   57.7820   33.3900   46.3730 C   0  0  0  0  0  0  0  0  0  0  0  0
   58.3640   33.5110   45.1010 C   0  0  0  0  0  0  0  0  0  0  0  0
   57.6960   32.9020   43.9000 C   0  0  0  0  0  0  0  0  0  0  0  0
   57.3660   31.5050   44.1610 N   0  0  0  0  0  0  0  0  0  0  0  0
   57.6780   30.4470   43.3930 C   0  0  0  0  0  0  0  0  0  0  0  0
   57.1780   29.3470   44.0560 C   0  0  0  0  0  0  0  0  0  0  0  0
   57.3950   27.9710   43.7000 N   0  0  0  0  0  0  0  0  0  0  0  0
   58.8290   27.6390   43.6200 C   0  0  0  0  0  0  0  0  0  0  0  0
   59.4800   27.4770   45.0080 C   0  0  0  0  0  0  0  0  0  0  0  0
   59.1070   28.5790   45.9220 N   0  0  0  0  0  0  0  0  0  0  0  0
   59.1360   28.1240   47.3230 C   0  0  0  0  0  0  0  0  0  0  0  0
   58.5740   29.2170   48.2550 C   0  0  0  0  0  0  0  0  0  0  0  0
   58.5950   30.5540   47.6390 N   0  0  0  0  0  0  0  0  0  0  0  0
   59.8410   30.7710   46.8990 C   0  0  0  0  0  0  0  0  0  0  0  0
   59.9950   29.7530   45.7480 C   0  0  0  0  0  0  0  0  0  0  0  0
   56.5910   29.7570   45.2000 N   0  0  0  0  0  0  0  0  0  0  0  0
   56.7090   31.0760   45.2290 N   0  0  0  0  0  0  0  0  0  0  0  0
   59.6040   34.1570   44.9670 C   0  0  0  0  0  0  0  0  0  0  0  0
   60.2420   34.6930   46.0900 C   0  0  0  0  0  0  0  0  0  0  0  0
   60.1512   35.0093   48.2325 H   0  0  0  0  0  0  0  0  0  0  0  0
   57.9578   33.8454   48.4865 H   0  0  0  0  0  0  0  0  0  0  0  0
   56.8208   32.8680   46.4893 H   0  0  0  0  0  0  0  0  0  0  0  0
   56.7733   33.4577   43.6767 H   0  0  0  0  0  0  0  0  0  0  0  0
   58.3829   32.9543   43.0424 H   0  0  0  0  0  0  0  0  0  0  0  0
   58.2193   30.4570   42.4354 H   0  0  0  0  0  0  0  0  0  0  0  0
   56.9610   27.8150   42.7620 H   0  0  0  0  0  0  0  0  0  0  0  0
   56.9160   27.3420   44.3860 H   0  0  0  0  0  0  0  0  0  0  0  0
   58.9415   26.6953   43.0661 H   0  0  0  0  0  0  0  0  0  0  0  0
   59.3352   28.4722   43.1105 H   0  0  0  0  0  0  0  0  0  0  0  0
   59.1505   26.5236   45.4467 H   0  0  0  0  0  0  0  0  0  0  0  0
   60.5721   27.4958   44.8777 H   0  0  0  0  0  0  0  0  0  0  0  0
   58.5252   27.2145   47.4214 H   0  0  0  0  0  0  0  0  0  0  0  0
   60.1772   27.9127   47.6081 H   0  0  0  0  0  0  0  0  0  0  0  0
   57.5344   28.9627   48.5089 H   0  0  0  0  0  0  0  0  0  0  0  0
   59.2137   29.2528   49.1491 H   0  0  0  0  0  0  0  0  0  0  0  0
   57.7960   30.6260   46.9660 H   0  0  0  0  0  0  0  0  0  0  0  0
   59.8361   31.7879   46.4796 H   0  0  0  0  0  0  0  0  0  0  0  0
   60.6842   30.6401   47.5932 H   0  0  0  0  0  0  0  0  0  0  0  0
   59.7450   30.2497   44.7989 H   0  0  0  0  0  0  0  0  0  0  0  0
   61.0351   29.3950   45.7481 H   0  0  0  0  0  0  0  0  0  0  0  0
   60.0744   34.2415   43.9762 H   0  0  0  0  0  0  0  0  0  0  0  0
   61.2111   35.2018   45.9806 H   0  0  0  0  0  0  0  0  0  0  0  0
  1  2  2  0
  2  3  1  0
  3  4  2  0
  4  5  1  0
  5  6  1  0
  6  7  1  0
  7  8  2  0
  8  9  1  0
  9 10  1  0
 10 11  1  0
 11 12  1  0
 12 13  1  0
 13 14  1  0
 14 15  1  0
 15 16  1  0
 16 17  1  0
  8 18  1  0
 18 19  2  0
  4 20  1  0
 20 21  2  0
 21  1  1  0
 19  6  1  0
 17 12  1  0
  1 22  1  0
  2 23  1  0
  3 24  1  0
  5 25  1  0
  5 26  1  0
  7 27  1  0
  9 28  1  0
  9 29  1  0
 10 30  1  0
 10 31  1  0
 11 32  1  0
 11 33  1  0
 13 34  1  0
 13 35  1  0
 14 36  1  0
 14 37  1  0
 15 38  1  0
 16 39  1  0
 16 40  1  0
 17 41  1  0
 17 42  1  0
 20 43  1  0
 21 44  1  0
M  CHG  1   9   1
M  END
>  <UniqueID>  (27) 
21

>  <SMILES>  (27) 
c1ccc(Cn2cc([NH2+]CCN3CCNCC3)nn2)cc1

>  <Energy>  (27) 
82.42736998955111

>  <Genealogy>  (27) 
c1ccc(Cn2cc([NH2+]CCN3CCNCC3)nn2)cc1 (protonated)
c1ccc(Cn2cc([NH2+]CCN3CCNCC3)nn2)cc1 (3D coordinates assigned)
c1ccc(Cn2cc([NH2+]CCN3CCNCC3)nn2)cc1 (nonaromatic ring conformer: 82.42736998955111 kcal/mol)

>  <smiles>  (27) 
c1ccc(Cn2cc(NCCN3CCNCC3)nn2)cc1

>  <score_type>  (27) 
oracle

>  <origin>  (27) 
adg

>  <m_score__min__energy>  (27) 
-7.3899999999999997

>  <m_primary>  (27) 
energy

$$$$
27:0
     RDKit          3D

 32 34  0  0  0  0  0  0  0  0999 V2000
   57.5960   21.2400   43.3760 C   0  0  0  0  0  0  0  0  0  0  0  0
   56.2530   21.6320   43.6400 O   0  0  0  0  0  0  0  0  0  0  0  0
   55.8920   22.8230   44.2870 C   0  0  0  0  0  0  0  0  0  0  0  0
   54.5870   22.9220   44.8290 C   0  0  0  0  0  0  0  0  0  0  0  0
   54.1640   24.0930   45.4870 C   0  0  0  0  0  0  0  0  0  0  0  0
   55.0710   25.1420   45.5870 C   0  0  0  0  0  0  0  0  0  0  0  0
   54.8800   26.3470   46.1510 N   0  0  0  0  0  0  0  0  0  0  0  0
   56.0080   27.0380   46.0040 N   0  0  0  0  0  0  0  0  0  0  0  0
   56.9140   26.2660   45.3570 C   0  0  0  0  0  0  0  0  0  0  0  0
   58.2810   26.7210   44.9630 C   0  0  0  0  0  0  0  0  0  0  0  0
   58.7650   28.1470   45.9880 S   0  0  0  0  0  0  0  0  0  0  0  0
   58.0910   29.3500   44.8420 C   0  0  0  0  0  0  0  0  0  0  0  0
   57.1700   28.9480   43.8650 C   0  0  0  0  0  0  0  0  0  0  0  0
   56.6440   29.8870   42.9720 C   0  0  0  0  0  0  0  0  0  0  0  0
   57.0340   31.2270   43.0540 C   0  0  0  0  0  0  0  0  0  0  0  0
   57.9510   31.6300   44.0300 C   0  0  0  0  0  0  0  0  0  0  0  0
   58.4780   30.6940   44.9240 C   0  0  0  0  0  0  0  0  0  0  0  0
   56.3310   25.0530   45.0720 C   0  0  0  0  0  0  0  0  0  0  0  0
   56.7870   23.9160   44.4090 C   0  0  0  0  0  0  0  0  0  0  0  0
   58.1265   21.0852   44.3271 H   0  0  0  0  0  0  0  0  0  0  0  0
   57.5979   20.3038   42.7985 H   0  0  0  0  0  0  0  0  0  0  0  0
   58.1012   22.0282   42.7985 H   0  0  0  0  0  0  0  0  0  0  0  0
   53.8945   22.0725   44.7346 H   0  0  0  0  0  0  0  0  0  0  0  0
   53.1508   24.1749   45.9074 H   0  0  0  0  0  0  0  0  0  0  0  0
   58.9982   25.9007   45.1139 H   0  0  0  0  0  0  0  0  0  0  0  0
   58.2783   27.0153   43.9031 H   0  0  0  0  0  0  0  0  0  0  0  0
   56.8610   27.8943   43.8006 H   0  0  0  0  0  0  0  0  0  0  0  0
   55.9226   29.5708   42.2042 H   0  0  0  0  0  0  0  0  0  0  0  0
   56.6196   31.9644   42.3508 H   0  0  0  0  0  0  0  0  0  0  0  0
   58.2577   32.6844   44.0940 H   0  0  0  0  0  0  0  0  0  0  0  0
   59.1973   31.0128   45.6927 H   0  0  0  0  0  0  0  0  0  0  0  0
   57.8049   23.8678   43.9949 H   0  0  0  0  0  0  0  0  0  0  0  0
  1  2  1  0
  2  3  1  0
  3  4  1  0
  4  5  2  0
  5  6  1  0
  6  7  2  0
  7  8  1  0
  8  9  1  0
  9 10  1  0
 10 11  1  0
 11 12  1  0
 12 13  2  0
 13 14  1  0
 14 15  2  0
 15 16  1  0
 16 17  2  0
  9 18  2  0
 18 19  1  0
 19  3  2  0
 18  6  1  0
 17 12  1  0
  1 20  1  0
  1 21  1  0
  1 22  1  0
  4 23  1  0
  5 24  1  0
 10 25  1  0
 10 26  1  0
 13 27  1  0
 14 28  1  0
 15 29  1  0
 16 30  1  0
 17 31  1  0
 19 32  1  0
M  CHG  1   8  -1
M  END
>  <UniqueID>  (28) 
22

>  <SMILES>  (28) 
COc1ccc2n[n-]c(CSc3ccccc3)c2c1

>  <Energy>  (28) 
66.36177331371614

>  <Genealogy>  (28) 
COc1ccc2n[n-]c(CSc3ccccc3)c2c1 (protonated)
COc1ccc2n[n-]c(CSc3ccccc3)c2c1 (3D coordinates assigned)
COc1ccc2n[n-]c(CSc3ccccc3)c2c1 (optimized conformer: 66.36177331371614 kcal/mol)

>  <smiles>  (28) 
COc1ccc2n[nH]c(CSc3ccccc3)c2c1

>  <score_type>  (28) 
oracle

>  <origin>  (28) 
adg

>  <m_score__min__energy>  (28) 
-9.5999999999999996

>  <m_primary>  (28) 
energy

$$$$
28:0
     RDKit          3D

 46 48  0  0  0  0  0  0  0  0999 V2000
   55.2530   29.7230   44.8710 O   0  0  0  0  0  0  0  0  0  0  0  0
   56.4200   29.3920   44.5280 C   0  0  0  0  0  0  0  0  0  0  0  0
   57.0950   30.1120   43.4880 N   0  0  0  0  0  0  0  0  0  0  0  0
   57.5440   31.4950   43.6130 C   0  0  0  0  0  0  0  0  0  0  0  0
   56.9540   32.1510   44.8670 C   0  0  0  0  0  0  0  0  0  0  0  0
   57.9250   33.1010   45.5150 C   0  0  0  0  0  0  0  0  0  0  0  0
   58.0240   33.1650   46.9150 C   0  0  0  0  0  0  0  0  0  0  0  0
   58.8930   34.0800   47.5190 C   0  0  0  0  0  0  0  0  0  0  0  0
   59.6630   34.9390   46.7310 C   0  0  0  0  0  0  0  0  0  0  0  0
   59.5670   34.8870   45.3370 C   0  0  0  0  0  0  0  0  0  0  0  0
   58.7010   33.9720   44.7300 C   0  0  0  0  0  0  0  0  0  0  0  0
   57.1090   28.2640   45.2600 C   0  0  1  0  0  0  0  0  0  0  0  0
   57.8130   27.2560   44.3560 C   0  0  0  0  0  0  0  0  0  0  0  0
   58.8920   26.6520   45.2400 C   0  0  0  0  0  0  0  0  0  0  0  0
   58.8680   27.4690   46.5320 C   0  0  0  0  0  0  0  0  0  0  0  0
   58.0850   28.6920   46.2840 N   0  0  0  0  0  0  0  0  0  0  0  0
   58.9750   29.8010   45.8530 C   0  0  0  0  0  0  0  0  0  0  0  0
   59.7920   30.3240   47.0090 C   0  0  0  0  0  0  0  0  0  0  0  0
   59.2720   30.2960   48.3150 C   0  0  0  0  0  0  0  0  0  0  0  0
   60.0260   30.7870   49.3840 C   0  0  0  0  0  0  0  0  0  0  0  0
   61.2960   31.3260   49.1570 C   0  0  0  0  0  0  0  0  0  0  0  0
   61.8090   31.3810   47.8590 C   0  0  0  0  0  0  0  0  0  0  0  0
   61.0590   30.8900   46.7860 C   0  0  0  0  0  0  0  0  0  0  0  0
   58.6418   31.5125   43.6801 H   0  0  0  0  0  0  0  0  0  0  0  0
   57.2039   32.0559   42.7300 H   0  0  0  0  0  0  0  0  0  0  0  0
   56.0479   32.7070   44.5843 H   0  0  0  0  0  0  0  0  0  0  0  0
   56.7225   31.3553   45.5903 H   0  0  0  0  0  0  0  0  0  0  0  0
   57.4159   32.4931   47.5386 H   0  0  0  0  0  0  0  0  0  0  0  0
   58.9701   34.1231   48.6154 H   0  0  0  0  0  0  0  0  0  0  0  0
   60.3459   35.6574   47.2080 H   0  0  0  0  0  0  0  0  0  0  0  0
   60.1724   35.5655   44.7181 H   0  0  0  0  0  0  0  0  0  0  0  0
   58.6265   33.9335   43.6332 H   0  0  0  0  0  0  0  0  0  0  0  0
   56.2529   27.7809   45.7538 H   0  0  0  0  0  0  0  0  0  0  0  0
   57.1105   26.4818   44.0137 H   0  0  0  0  0  0  0  0  0  0  0  0
   58.2239   27.7201   43.4473 H   0  0  0  0  0  0  0  0  0  0  0  0
   58.6700   25.5952   45.4495 H   0  0  0  0  0  0  0  0  0  0  0  0
   59.8796   26.6829   44.7565 H   0  0  0  0  0  0  0  0  0  0  0  0
   58.3991   26.8824   47.3358 H   0  0  0  0  0  0  0  0  0  0  0  0
   59.8921   27.7272   46.8394 H   0  0  0  0  0  0  0  0  0  0  0  0
   59.6547   29.4325   45.0706 H   0  0  0  0  0  0  0  0  0  0  0  0
   58.3501   30.6205   45.4684 H   0  0  0  0  0  0  0  0  0  0  0  0
   58.2675   29.8859   48.4959 H   0  0  0  0  0  0  0  0  0  0  0  0
   59.6199   30.7494   50.4056 H   0  0  0  0  0  0  0  0  0  0  0  0
   61.8909   31.7066   50.0003 H   0  0  0  0  0  0  0  0  0  0  0  0
   62.8054   31.8116   47.6805 H   0  0  0  0  0  0  0  0  0  0  0  0
   61.4619   30.9469   45.7640 H   0  0  0  0  0  0  0  0  0  0  0  0
  1  2  2  0
  2  3  1  0
  3  4  1  0
  4  5  1  0
  5  6  1  0
  6  7  2  0
  7  8  1  0
  8  9  2  0
  9 10  1  0
 10 11  2  0
  2 12  1  0
 12 13  1  0
 13 14  1  0
 14 15  1  0
 15 16  1  0
 16 17  1  0
 17 18  1  0
 18 19  2  0
 19 20  1  0
 20 21  2  0
 21 22  1  0
 22 23  2  0
 11  6  1  0
 16 12  1  0
 23 18  1  0
  4 24  1  0
  4 25  1  0
  5 26  1  0
  5 27  1  0
  7 28  1  0
  8 29  1  0
  9 30  1  0
 10 31  1  0
 11 32  1  0
 12 33  1  1
 13 34  1  0
 13 35  1  0
 14 36  1  0
 14 37  1  0
 15 38  1  0
 15 39  1  0
 17 40  1  0
 17 41  1  0
 19 42  1  0
 20 43  1  0
 21 44  1  0
 22 45  1  0
 23 46  1  0
M  CHG  1   3  -1
M  END
>  <UniqueID>  (29) 
23

>  <SMILES>  (29) 
O=C([N-]CCc1ccccc1)[C@H]1CCCN1Cc1ccccc1

>  <Energy>  (29) 
49.946038161040555

>  <Genealogy>  (29) 
O=C([N-]CCc1ccccc1)C1CCCN1Cc1ccccc1 (protonated)
O=C([N-]CCc1ccccc1)[C@H]1CCCN1Cc1ccccc1 (chirality)
O=C([N-]CCc1ccccc1)[C@H]1CCCN1Cc1ccccc1 (3D coordinates assigned)
O=C([N-]CCc1ccccc1)[C@H]1CCCN1Cc1ccccc1 (nonaromatic ring conformer: 49.946038161040555 kcal/mol)

>  <smiles>  (29) 
O=C(NCCc1ccccc1)C1CCCN1Cc1ccccc1

>  <score_type>  (29) 
oracle

>  <origin>  (29) 
adg

>  <m_score__min__energy>  (29) 
-10.029999999999999

>  <m_primary>  (29) 
energy

$$$$
29:0
     RDKit          3D

 54 57  0  0  0  0  0  0  0  0999 V2000
   62.7900   33.2150   47.2740 C   0  0  0  0  0  0  0  0  0  0  0  0
   63.3310   32.7910   48.4800 C   0  0  0  0  0  0  0  0  0  0  0  0
   62.5910   31.3440   48.9070 S   0  0  0  0  0  0  0  0  0  0  0  0
   61.5800   31.2440   47.5660 C   0  0  0  0  0  0  0  0  0  0  0  0
   60.6170   30.1610   47.3080 C   0  0  0  0  0  0  0  0  0  0  0  0
   60.0280   29.3360   48.2630 C   0  0  0  0  0  0  0  0  0  0  0  0
   59.1530   28.3910   47.7170 C   0  0  0  0  0  0  0  0  0  0  0  0
   59.0520   28.4730   46.3340 C   0  0  0  0  0  0  0  0  0  0  0  0
   58.2090   27.5930   45.4570 C   0  0  0  0  0  0  0  0  0  0  0  0
   56.8080   28.0450   45.3880 N   0  0  0  0  0  0  0  0  0  0  0  0
   56.6550   29.4000   44.8300 C   0  0  0  0  0  0  0  0  0  0  0  0
   56.7590   29.4090   43.2960 C   0  0  0  0  0  0  0  0  0  0  0  0
   56.8450   30.8150   42.6730 C   0  0  0  0  0  0  0  0  0  0  0  0
   57.8100   31.7860   43.3760 C   0  0  0  0  0  0  0  0  0  0  0  0
   57.2200   32.4010   44.5750 N   0  0  0  0  0  0  0  0  0  0  0  0
   57.6620   33.7900   44.7930 C   0  0  0  0  0  0  0  0  0  0  0  0
   58.3200   33.9010   46.1410 C   0  0  0  0  0  0  0  0  0  0  0  0
   59.2590   34.9110   46.4000 C   0  0  0  0  0  0  0  0  0  0  0  0
   59.9200   34.9650   47.6290 C   0  0  0  0  0  0  0  0  0  0  0  0
   59.6550   34.0060   48.6170 C   0  0  0  0  0  0  0  0  0  0  0  0
   60.3300   34.0370   49.8470 C   0  0  0  0  0  0  0  0  0  0  0  0
   60.0640   33.0680   50.8180 C   0  0  0  0  0  0  0  0  0  0  0  0
   59.1250   32.0630   50.5700 C   0  0  0  0  0  0  0  0  0  0  0  0
   58.4440   32.0210   49.3500 C   0  0  0  0  0  0  0  0  0  0  0  0
   58.7010   32.9900   48.3670 C   0  0  0  0  0  0  0  0  0  0  0  0
   58.0310   32.9530   47.1360 C   0  0  0  0  0  0  0  0  0  0  0  0
   60.0460   29.7140   45.7880 S   0  0  0  0  0  0  0  0  0  0  0  0
   61.8130   32.3540   46.7610 C   0  0  0  0  0  0  0  0  0  0  0  0
   63.1002   34.1414   46.7685 H   0  0  0  0  0  0  0  0  0  0  0  0
   64.1095   33.3121   49.0565 H   0  0  0  0  0  0  0  0  0  0  0  0
   60.2309   29.4193   49.3409 H   0  0  0  0  0  0  0  0  0  0  0  0
   58.6006   27.6569   48.3219 H   0  0  0  0  0  0  0  0  0  0  0  0
   58.6319   27.5972   44.4416 H   0  0  0  0  0  0  0  0  0  0  0  0
   58.2143   26.5826   45.8918 H   0  0  0  0  0  0  0  0  0  0  0  0
   56.2660   27.3760   44.7930 H   0  0  0  0  0  0  0  0  0  0  0  0
   55.6702   29.7943   45.1211 H   0  0  0  0  0  0  0  0  0  0  0  0
   57.4685   30.0242   45.2283 H   0  0  0  0  0  0  0  0  0  0  0  0
   57.6616   28.8496   43.0090 H   0  0  0  0  0  0  0  0  0  0  0  0
   55.8331   28.9529   42.9156 H   0  0  0  0  0  0  0  0  0  0  0  0
   57.1737   30.7050   41.6291 H   0  0  0  0  0  0  0  0  0  0  0  0
   55.8420   31.2552   42.7741 H   0  0  0  0  0  0  0  0  0  0  0  0
   58.7131   31.2323   43.6722 H   0  0  0  0  0  0  0  0  0  0  0  0
   58.0438   32.5945   42.6677 H   0  0  0  0  0  0  0  0  0  0  0  0
   56.1810   32.4070   44.4410 H   0  0  0  0  0  0  0  0  0  0  0  0
   58.3805   34.0734   44.0098 H   0  0  0  0  0  0  0  0  0  0  0  0
   56.7922   34.4621   44.7531 H   0  0  0  0  0  0  0  0  0  0  0  0
   59.4760   35.6656   45.6296 H   0  0  0  0  0  0  0  0  0  0  0  0
   60.6516   35.7632   47.8228 H   0  0  0  0  0  0  0  0  0  0  0  0
   61.0701   34.8258   50.0471 H   0  0  0  0  0  0  0  0  0  0  0  0
   60.5954   33.0963   51.7807 H   0  0  0  0  0  0  0  0  0  0  0  0
   58.9211   31.3021   51.3378 H   0  0  0  0  0  0  0  0  0  0  0  0
   57.7059   31.2279   49.1599 H   0  0  0  0  0  0  0  0  0  0  0  0
   57.2745   32.1768   46.9484 H   0  0  0  0  0  0  0  0  0  0  0  0
   61.2822   32.5370   45.8151 H   0  0  0  0  0  0  0  0  0  0  0  0
  1  2  2  0
  2  3  1  0
  3  4  1  0
  4  5  1  0
  5  6  2  0
  6  7  1  0
  7  8  2  0
  8  9  1  0
  9 10  1  0
 10 11  1  0
 11 12  1  0
 12 13  1  0
 13 14  1  0
 14 15  1  0
 15 16  1  0
 16 17  1  0
 17 18  2  0
 18 19  1  0
 19 20  2  0
 20 21  1  0
 21 22  2  0
 22 23  1  0
 23 24  2  0
 24 25  1  0
 25 26  2  0
  8 27  1  0
  4 28  2  0
 28  1  1  0
 27  5  1  0
 26 17  1  0
 25 20  1  0
  1 29  1  0
  2 30  1  0
  6 31  1  0
  7 32  1  0
  9 33  1  0
  9 34  1  0
 10 35  1  0
 11 36  1  0
 11 37  1  0
 12 38  1  0
 12 39  1  0
 13 40  1  0
 13 41  1  0
 14 42  1  0
 14 43  1  0
 15 44  1  0
 16 45  1  0
 16 46  1  0
 18 47  1  0
 19 48  1  0
 21 49  1  0
 22 50  1  0
 23 51  1  0
 24 52  1  0
 26 53  1  0
 28 54  1  0
M  END
>  <UniqueID>  (30) 
24

>  <SMILES>  (30) 
c1csc(-c2ccc(CNCCCCNCc3ccc4ccccc4c3)s2)c1

>  <Energy>  (30) 
107.49527600033517

>  <Genealogy>  (30) 
c1csc(-c2ccc(CNCCCCNCc3ccc4ccccc4c3)s2)c1 (3D coordinates assigned)
c1csc(-c2ccc(CNCCCCNCc3ccc4ccccc4c3)s2)c1 (optimized conformer: 107.49527600033517 kcal/mol)

>  <smiles>  (30) 
c1csc(-c2ccc(CNCCCCNCc3ccc4ccccc4c3)s2)c1

>  <score_type>  (30) 
oracle

>  <origin>  (30) 
adg

>  <m_score__min__energy>  (30) 
-8.3300000000000001

>  <m_primary>  (30) 
energy

$$$$
30:0
     RDKit          3D

 39 42  0  0  0  0  0  0  0  0999 V2000
   59.9460   34.2200   49.9140 F   0  0  0  0  0  0  0  0  0  0  0  0
   59.5840   33.9020   48.6470 C   0  0  0  0  0  0  0  0  0  0  0  0
   60.0120   34.6950   47.5780 C   0  0  0  0  0  0  0  0  0  0  0  0
   59.6380   34.3700   46.2710 C   0  0  0  0  0  0  0  0  0  0  0  0
   58.8410   33.2400   46.0240 C   0  0  0  0  0  0  0  0  0  0  0  0
   58.4020   32.9130   44.6240 C   0  0  0  0  0  0  0  0  0  0  0  0
   57.7250   31.6220   44.6060 N   0  0  0  0  0  0  0  0  0  0  0  0
   58.3000   30.4160   44.4650 C   0  0  0  0  0  0  0  0  0  0  0  0
   57.2820   29.4890   44.5930 C   0  0  0  0  0  0  0  0  0  0  0  0
   57.3850   28.0120   44.5210 C   0  0  0  0  0  0  0  0  0  0  0  0
   57.1030   27.2060   45.6370 C   0  0  0  0  0  0  0  0  0  0  0  0
   57.2060   25.8140   45.5530 C   0  0  0  0  0  0  0  0  0  0  0  0
   57.5900   25.1960   44.3500 C   0  0  0  0  0  0  0  0  0  0  0  0
   57.6960   23.7600   44.2640 N   0  0  0  0  0  0  0  0  0  0  0  0
   56.8950   22.9210   43.5720 C   0  0  0  0  0  0  0  0  0  0  0  0
   57.3470   21.6320   43.7600 C   0  0  0  0  0  0  0  0  0  0  0  0
   58.4260   21.6690   44.5620 N   0  0  0  0  0  0  0  0  0  0  0  0
   58.6190   22.9690   44.8550 C   0  0  0  0  0  0  0  0  0  0  0  0
   57.8730   26.0030   43.2350 C   0  0  0  0  0  0  0  0  0  0  0  0
   57.7710   27.3940   43.3200 C   0  0  0  0  0  0  0  0  0  0  0  0
   56.1320   30.1620   44.8150 N   0  0  0  0  0  0  0  0  0  0  0  0
   56.4320   31.4520   44.8250 N   0  0  0  0  0  0  0  0  0  0  0  0
   58.4030   32.4550   47.1040 C   0  0  0  0  0  0  0  0  0  0  0  0
   58.7780   32.7850   48.4100 C   0  0  0  0  0  0  0  0  0  0  0  0
   60.6438   35.5757   47.7657 H   0  0  0  0  0  0  0  0  0  0  0  0
   59.9689   35.0012   45.4331 H   0  0  0  0  0  0  0  0  0  0  0  0
   57.7122   33.6918   44.2666 H   0  0  0  0  0  0  0  0  0  0  0  0
   59.2842   32.8689   43.9684 H   0  0  0  0  0  0  0  0  0  0  0  0
   59.3650   30.2081   44.2843 H   0  0  0  0  0  0  0  0  0  0  0  0
   56.7986   27.6741   46.5848 H   0  0  0  0  0  0  0  0  0  0  0  0
   56.9846   25.1969   46.4362 H   0  0  0  0  0  0  0  0  0  0  0  0
   56.0287   23.2161   42.9617 H   0  0  0  0  0  0  0  0  0  0  0  0
   56.8999   20.7252   43.3266 H   0  0  0  0  0  0  0  0  0  0  0  0
   58.9970   20.8580   44.8870 H   0  0  0  0  0  0  0  0  0  0  0  0
   59.4299   23.3422   45.4977 H   0  0  0  0  0  0  0  0  0  0  0  0
   58.1775   25.5356   42.2869 H   0  0  0  0  0  0  0  0  0  0  0  0
   57.9952   28.0113   42.4376 H   0  0  0  0  0  0  0  0  0  0  0  0
   57.7636   31.5787   46.9216 H   0  0  0  0  0  0  0  0  0  0  0  0
   58.4381   32.1645   49.2523 H   0  0  0  0  0  0  0  0  0  0  0  0
  1  2  1  0
  2  3  2  0
  3  4  1  0
  4  5  2  0
  5  6  1  0
  6  7  1  0
  7  8  1  0
  8  9  2  0
  9 10  1  0
 10 11  2  0
 11 12  1  0
 12 13  2  0
 13 14  1  0
 14 15  1  0
 15 16  2  0
 16 17  1  0
 17 18  2  0
 13 19  1  0
 19 20  2  0
  9 21  1  0
 21 22  2  0
  5 23  1  0
 23 24  2  0
 24  2  1  0
 22  7  1  0
 20 10  1  0
 18 14  1  0
  3 25  1  0
  4 26  1  0
  6 27  1  0
  6 28  1  0
  8 29  1  0
 11 30  1  0
 12 31  1  0
 15 32  1  0
 16 33  1  0
 17 34  1  0
 18 35  1  0
 19 36  1  0
 20 37  1  0
 23 38  1  0
 24 39  1  0
M  CHG  1  17   1
M  END
>  <UniqueID>  (31) 
25

>  <SMILES>  (31) 
Fc1ccc(Cn2cc(-c3ccc(-n4cc[nH+]c4)cc3)nn2)cc1

>  <Energy>  (31) 
111.69512025248486

>  <Genealogy>  (31) 
Fc1ccc(Cn2cc(-c3ccc(-n4cc[nH+]c4)cc3)nn2)cc1 (protonated)
Fc1ccc(Cn2cc(-c3ccc(-n4cc[nH+]c4)cc3)nn2)cc1 (3D coordinates assigned)
Fc1ccc(Cn2cc(-c3ccc(-n4cc[nH+]c4)cc3)nn2)cc1 (optimized conformer: 111.69512025248486 kcal/mol)

>  <smiles>  (31) 
Fc1ccc(Cn2cc(-c3ccc(-n4ccnc4)cc3)nn2)cc1

>  <score_type>  (31) 
oracle

>  <origin>  (31) 
adg

>  <m_score__min__energy>  (31) 
-7.54

>  <m_primary>  (31) 
energy

$$$$
31:0
     RDKit          3D

 28 29  0  0  0  0  0  0  0  0999 V2000
   59.5870   29.1840   44.9140 C   0  0  0  0  0  0  0  0  0  0  0  0
   58.4200   28.8230   45.8260 C   0  0  0  0  0  0  0  0  0  0  0  0
   57.4360   29.8560   45.8180 O   0  0  0  0  0  0  0  0  0  0  0  0
   56.5120   30.0310   44.7820 C   0  0  0  0  0  0  0  0  0  0  0  0
   55.3670   29.5090   44.8540 O   0  0  0  0  0  0  0  0  0  0  0  0
   56.8780   30.8670   43.6260 C   0  0  0  0  0  0  0  0  0  0  0  0
   56.6420   30.5410   42.3040 C   0  0  0  0  0  0  0  0  0  0  0  0
   57.1770   31.4520   41.5230 O   0  0  0  0  0  0  0  0  0  0  0  0
   57.7560   32.3690   42.2630 C   0  0  0  0  0  0  0  0  0  0  0  0
   57.5940   32.0570   43.6000 C   0  0  0  0  0  0  0  0  0  0  0  0
   58.0570   32.8830   44.7340 C   0  0  0  0  0  0  0  0  0  0  0  0
   57.4760   32.7470   46.0060 C   0  0  0  0  0  0  0  0  0  0  0  0
   57.9020   33.5520   47.0660 C   0  0  0  0  0  0  0  0  0  0  0  0
   58.9010   34.5080   46.8640 C   0  0  0  0  0  0  0  0  0  0  0  0
   59.4710   34.6650   45.5970 C   0  0  0  0  0  0  0  0  0  0  0  0
   59.0470   33.8610   44.5340 C   0  0  0  0  0  0  0  0  0  0  0  0
   60.4604   29.4542   45.5257 H   0  0  0  0  0  0  0  0  0  0  0  0
   59.8368   28.3211   44.2791 H   0  0  0  0  0  0  0  0  0  0  0  0
   59.3059   30.0372   44.2791 H   0  0  0  0  0  0  0  0  0  0  0  0
   57.9631   27.8862   45.4743 H   0  0  0  0  0  0  0  0  0  0  0  0
   58.7972   28.7016   46.8521 H   0  0  0  0  0  0  0  0  0  0  0  0
   56.0905   29.6542   41.9584 H   0  0  0  0  0  0  0  0  0  0  0  0
   58.2887   33.2510   41.8779 H   0  0  0  0  0  0  0  0  0  0  0  0
   56.6819   32.0033   46.1683 H   0  0  0  0  0  0  0  0  0  0  0  0
   57.4499   33.4328   48.0617 H   0  0  0  0  0  0  0  0  0  0  0  0
   59.2387   35.1366   47.7012 H   0  0  0  0  0  0  0  0  0  0  0  0
   60.2534   35.4213   45.4361 H   0  0  0  0  0  0  0  0  0  0  0  0
   59.4904   33.9946   43.5362 H   0  0  0  0  0  0  0  0  0  0  0  0
  1  2  1  0
  2  3  1  0
  3  4  1  0
  4  5  2  0
  4  6  1  0
  6  7  2  0
  7  8  1  0
  8  9  1  0
  9 10  2  0
 10 11  1  0
 11 12  2  0
 12 13  1  0
 13 14  2  0
 14 15  1  0
 15 16  2  0
 10  6  1  0
 16 11  1  0
  1 17  1  0
  1 18  1  0
  1 19  1  0
  2 20  1  0
  2 21  1  0
  7 22  1  0
  9 23  1  0
 12 24  1  0
 13 25  1  0
 14 26  1  0
 15 27  1  0
 16 28  1  0
M  END
>  <UniqueID>  (32) 
26

>  <SMILES>  (32) 
CCOC(=O)c1cocc1-c1ccccc1

>  <Energy>  (32) 
56.53556820029539

>  <Genealogy>  (32) 
CCOC(=O)c1cocc1-c1ccccc1 (3D coordinates assigned)
CCOC(=O)c1cocc1-c1ccccc1 (optimized conformer: 56.53556820029539 kcal/mol)

>  <smiles>  (32) 
CCOC(=O)c1cocc1-c1ccccc1

>  <score_type>  (32) 
oracle

>  <origin>  (32) 
adg

>  <m_score__min__energy>  (32) 
-6.0599999999999996

>  <m_primary>  (32) 
energy

$$$$
32:0
     RDKit          3D

 35 36  0  0  0  0  0  0  0  0999 V2000
   55.9700   31.2820   44.4670 N   0  0  0  0  0  0  0  0  0  0  0  0
   56.5930   29.6870   44.2080 S   0  0  0  0  0  0  0  0  0  0  0  0
   56.5990   29.4230   42.7290 O   0  0  0  0  0  0  0  0  0  0  0  0
   55.7020   28.6920   44.8960 O   0  0  0  0  0  0  0  0  0  0  0  0
   58.2370   29.5670   44.8490 C   0  0  0  0  0  0  0  0  0  0  0  0
   59.0160   28.4510   44.5010 C   0  0  0  0  0  0  0  0  0  0  0  0
   60.2770   28.2580   45.0700 C   0  0  0  0  0  0  0  0  0  0  0  0
   60.7670   29.1680   46.0050 C   0  0  0  0  0  0  0  0  0  0  0  0
   60.0100   30.2890   46.3520 C   0  0  0  0  0  0  0  0  0  0  0  0
   58.7650   30.5210   45.7520 C   0  0  0  0  0  0  0  0  0  0  0  0
   58.0540   31.7140   46.1000 N   0  0  0  0  0  0  0  0  0  0  0  0
   58.0430   33.1260   45.0930 S   0  0  0  0  0  0  0  0  0  0  0  0
   58.4330   32.7470   43.6930 O   0  0  0  0  0  0  0  0  0  0  0  0
   56.6560   33.7000   45.0500 O   0  0  0  0  0  0  0  0  0  0  0  0
   59.1980   34.3270   45.6890 C   0  0  0  0  0  0  0  0  0  0  0  0
   59.7600   34.3400   46.9060 C   0  0  0  0  0  0  0  0  0  0  0  0
   61.0290   33.6840   47.2750 C   0  0  0  0  0  0  0  0  0  0  0  0
   62.1530   33.8530   46.4520 C   0  0  0  0  0  0  0  0  0  0  0  0
   63.3530   33.2030   46.7530 C   0  0  0  0  0  0  0  0  0  0  0  0
   63.4340   32.3620   47.8670 C   0  0  0  0  0  0  0  0  0  0  0  0
   62.3110   32.1640   48.6750 C   0  0  0  0  0  0  0  0  0  0  0  0
   61.1090   32.8130   48.3740 C   0  0  0  0  0  0  0  0  0  0  0  0
   56.4470   31.9140   43.7860 H   0  0  0  0  0  0  0  0  0  0  0  0
   56.2840   31.5820   45.4170 H   0  0  0  0  0  0  0  0  0  0  0  0
   58.6293   27.7222   43.7735 H   0  0  0  0  0  0  0  0  0  0  0  0
   60.8836   27.3874   44.7800 H   0  0  0  0  0  0  0  0  0  0  0  0
   61.7503   29.0032   46.4697 H   0  0  0  0  0  0  0  0  0  0  0  0
   60.3941   30.9957   47.1024 H   0  0  0  0  0  0  0  0  0  0  0  0
   59.4802   35.1356   44.9987 H   0  0  0  0  0  0  0  0  0  0  0  0
   59.2288   34.8874   47.6985 H   0  0  0  0  0  0  0  0  0  0  0  0
   62.0892   34.5006   45.5651 H   0  0  0  0  0  0  0  0  0  0  0  0
   64.2348   33.3532   46.1128 H   0  0  0  0  0  0  0  0  0  0  0  0
   64.3810   31.8565   48.1073 H   0  0  0  0  0  0  0  0  0  0  0  0
   62.3724   31.4976   49.5480 H   0  0  0  0  0  0  0  0  0  0  0  0
   60.2219   32.6404   49.0011 H   0  0  0  0  0  0  0  0  0  0  0  0
  1  2  1  0
  2  3  2  0
  2  4  2  0
  2  5  1  0
  5  6  2  0
  6  7  1  0
  7  8  2  0
  8  9  1  0
  9 10  2  0
 10 11  1  0
 11 12  1  0
 12 13  2  0
 12 14  2  0
 12 15  1  0
 15 16  2  3
 16 17  1  0
 17 18  2  0
 18 19  1  0
 19 20  2  0
 20 21  1  0
 21 22  2  0
 10  5  1  0
 22 17  1  0
  1 23  1  0
  1 24  1  0
  6 25  1  0
  7 26  1  0
  8 27  1  0
  9 28  1  0
 15 29  1  0
 16 30  1  0
 18 31  1  0
 19 32  1  0
 20 33  1  0
 21 34  1  0
 22 35  1  0
M  CHG  1  11  -1
M  END
>  <UniqueID>  (33) 
27

>  <SMILES>  (33) 
NS(=O)(=O)c1ccccc1[N-]S(=O)(=O)C=Cc1ccccc1

>  <Energy>  (33) 
53.03005973688122

>  <Genealogy>  (33) 
NS(=O)(=O)c1ccccc1[N-]S(=O)(=O)C=Cc1ccccc1 (protonated)
NS(=O)(=O)c1ccccc1[N-]S(=O)(=O)C=Cc1ccccc1 (3D coordinates assigned)
NS(=O)(=O)c1ccccc1[N-]S(=O)(=O)C=Cc1ccccc1 (optimized conformer: 53.03005973688122 kcal/mol)

>  <smiles>  (33) 
NS(=O)(=O)c1ccccc1NS(=O)(=O)C=Cc1ccccc1

>  <score_type>  (33) 
oracle

>  <origin>  (33) 
adg

>  <m_score__min__energy>  (33) 
-9.2300000000000004

>  <m_primary>  (33) 
energy

$$$$
33:0
     RDKit          3D

 46 49  0  0  1  0  0  0  0  0999 V2000
   55.5090   29.7260   43.3620 C   0  0  0  0  0  0  0  0  0  0  0  0
   55.4380   29.1090   44.6340 O   0  0  0  0  0  0  0  0  0  0  0  0
   56.6360   28.8140   45.2680 C   0  0  0  0  0  0  0  0  0  0  0  0
   57.5080   29.8820   45.4520 C   0  0  0  0  0  0  0  0  0  0  0  0
   58.7200   29.6380   46.0810 C   0  0  0  0  0  0  0  0  0  0  0  0
   59.0730   28.3810   46.5210 C   0  0  0  0  0  0  0  0  0  0  0  0
   60.3740   28.1100   47.1990 C   0  0  0  0  0  0  0  0  0  0  0  0
   60.2030   28.3420   48.6060 N   0  0  0  0  0  0  0  0  0  0  0  0
   59.9100   29.4840   49.1340 C   0  0  0  0  0  0  0  0  0  0  0  0
   58.9080   29.5470   50.0280 N   0  0  0  0  0  0  0  0  0  0  0  0
   58.5660   30.7130   50.6050 C   0  0  0  0  0  0  0  0  0  0  0  0
   57.6440   31.1000   51.5090 N   0  0  0  0  0  0  0  0  0  0  0  0
   57.7690   32.4260   51.7120 C   0  0  0  0  0  0  0  0  0  0  0  0
   58.7790   32.8680   50.9290 N   0  0  0  0  0  0  0  0  0  0  0  0
   59.2940   31.8270   50.2300 C   0  0  0  0  0  0  0  0  0  0  0  0
   60.3170   31.7360   49.3090 C   0  0  0  0  0  0  0  0  0  0  0  0
   61.2220   33.2140   48.8640 S   0  0  0  0  0  0  0  0  0  0  0  0
   59.9580   34.5070   48.5560 C   0  0  0  0  0  0  0  0  0  0  0  0
   59.2420   34.2340   47.2950 C   0  0  0  0  0  0  0  0  0  0  0  0
   59.6050   34.7380   46.0750 C   0  0  0  0  0  0  0  0  0  0  0  0
   58.9100   34.4620   44.9040 C   0  0  0  0  0  0  0  0  0  0  0  0
   57.7910   33.6310   44.9840 C   0  0  0  0  0  0  0  0  0  0  0  0
   57.3900   33.0980   46.2130 C   0  0  0  0  0  0  0  0  0  0  0  0
   58.1300   33.4160   47.3350 C   0  0  0  0  0  0  0  0  0  0  0  0
   60.6350   30.5390   48.7460 N   0  0  0  0  0  0  0  0  0  0  0  0
   58.1760   27.3560   46.3170 C   0  0  0  0  0  0  0  0  0  0  0  0
   56.9560   27.5300   45.6990 C   0  0  0  0  0  0  0  0  0  0  0  0
   55.6339   30.8116   43.4875 H   0  0  0  0  0  0  0  0  0  0  0  0
   56.3664   29.3202   42.8050 H   0  0  0  0  0  0  0  0  0  0  0  0
   54.5819   29.5256   42.8050 H   0  0  0  0  0  0  0  0  0  0  0  0
   57.2436   30.8928   45.1080 H   0  0  0  0  0  0  0  0  0  0  0  0
   59.4200   30.4728   46.2330 H   0  0  0  0  0  0  0  0  0  0  0  0
   60.6730   27.0654   47.0274 H   0  0  0  0  0  0  0  0  0  0  0  0
   61.1569   28.7700   46.7972 H   0  0  0  0  0  0  0  0  0  0  0  0
   56.9430   30.4750   51.9760 H   0  0  0  0  0  0  0  0  0  0  0  0
   57.1592   33.0388   52.3922 H   0  0  0  0  0  0  0  0  0  0  0  0
   59.2379   34.5157   49.3875 H   0  0  0  0  0  0  0  0  0  0  0  0
   60.4574   35.4841   48.4793 H   0  0  0  0  0  0  0  0  0  0  0  0
   60.4879   35.3918   46.0192 H   0  0  0  0  0  0  0  0  0  0  0  0
   59.2322   34.8861   43.9415 H   0  0  0  0  0  0  0  0  0  0  0  0
   57.2207   33.3938   44.0738 H   0  0  0  0  0  0  0  0  0  0  0  0
   56.5090   32.4432   46.2843 H   0  0  0  0  0  0  0  0  0  0  0  0
   57.8196   32.9988   48.3043 H   0  0  0  0  0  0  0  0  0  0  0  0
   61.4060   30.5150   48.0630 H   0  0  0  0  0  0  0  0  0  0  0  0
   58.4466   26.3480   46.6646 H   0  0  0  0  0  0  0  0  0  0  0  0
   56.2635   26.6880   45.5525 H   0  0  0  0  0  0  0  0  0  0  0  0
  1  2  1  0
  2  3  1  0
  3  4  2  0
  4  5  1  0
  5  6  2  0
  6  7  1  0
  7  8  1  0
  8  9  2  0
  9 10  1  0
 10 11  2  0
 11 12  1  0
 12 13  1  0
 13 14  2  0
 14 15  1  0
 15 16  2  0
 16 17  1  0
 17 18  1  0
 18 19  1  0
 19 20  2  0
 20 21  1  0
 21 22  2  0
 22 23  1  0
 23 24  2  0
 16 25  1  0
  6 26  1  0
 26 27  2  0
 27  3  1  0
 25  9  1  0
 15 11  1  0
 24 19  1  0
  1 28  1  0
  1 29  1  0
  1 30  1  0
  4 31  1  0
  5 32  1  0
  7 33  1  0
  7 34  1  0
 12 35  1  0
 13 36  1  0
 18 37  1  0
 18 38  1  0
 20 39  1  0
 21 40  1  0
 22 41  1  0
 23 42  1  0
 24 43  1  0
 25 44  1  0
 26 45  1  0
 27 46  1  0
M  END
>  <smiles>  (34) 
COc1ccc(CN=c2nc3[nH]cnc3c(SCc3ccccc3)[nH]2)cc1

>  <score_type>  (34) 
oracle

>  <origin>  (34) 
adg

>  <m_score__min__energy>  (34) 
-8.7200000000000006

>  <m_primary>  (34) 
energy

$$$$
34:0
     RDKit          3D

 60 66  0  0  0  0  0  0  0  0999 V2000
   59.7800   30.0930   45.1850 O   0  0  0  0  0  0  0  0  0  0  0  0
   59.6410   29.0540   45.8870 C   0  0  0  0  0  0  0  0  0  0  0  0
   59.0230   27.9050   45.3630 C   0  0  0  0  0  0  0  0  0  0  0  0
   58.8830   26.7720   46.1540 C   0  0  0  0  0  0  0  0  0  0  0  0
   59.3520   26.7560   47.4760 C   0  0  0  0  0  0  0  0  0  0  0  0
   59.9580   27.9210   47.9510 C   0  0  0  0  0  0  0  0  0  0  0  0
   60.0870   29.0200   47.1740 N   0  0  0  0  0  0  0  0  0  0  0  0
   60.7610   30.0940   47.9130 C   0  0  0  0  0  0  0  0  0  0  0  0
   60.9980   29.4670   49.2650 C   0  0  0  0  0  0  0  0  0  0  0  0
   60.5180   28.1820   49.2500 C   0  0  0  0  0  0  0  0  0  0  0  0
   60.5650   27.3700   50.3270 N   0  0  0  0  0  0  0  0  0  0  0  0
   61.1020   27.8280   51.4910 C   0  0  0  0  0  0  0  0  0  0  0  0
   61.1360   26.9740   52.5990 C   0  0  0  0  0  0  0  0  0  0  0  0
   61.6560   27.4160   53.8130 C   0  0  0  0  0  0  0  0  0  0  0  0
   62.1420   28.7170   53.9330 C   0  0  0  0  0  0  0  0  0  0  0  0
   62.1180   29.5870   52.8400 C   0  0  0  0  0  0  0  0  0  0  0  0
   61.6110   29.1650   51.5890 C   0  0  0  0  0  0  0  0  0  0  0  0
   61.5760   30.0070   50.4280 C   0  0  0  0  0  0  0  0  0  0  0  0
   62.0820   31.4410   50.3900 C   0  0  0  0  0  0  0  0  0  0  0  0
   60.9690   32.3930   50.3380 N   0  0  0  0  0  0  0  0  0  0  0  0
   60.2730   32.7630   49.1330 C   0  0  0  0  0  0  0  0  0  0  0  0
   60.9760   33.4140   48.1080 C   0  0  0  0  0  0  0  0  0  0  0  0
   60.3240   33.7950   46.9310 C   0  0  0  0  0  0  0  0  0  0  0  0
   58.9600   33.5310   46.7630 C   0  0  0  0  0  0  0  0  0  0  0  0
   58.1530   33.9970   45.2680 S   0  0  0  0  0  0  0  0  0  0  0  0
   56.6760   34.1680   45.4950 O   0  0  0  0  0  0  0  0  0  0  0  0
   58.7160   35.3070   44.7940 O   0  0  0  0  0  0  0  0  0  0  0  0
   58.4210   32.7880   44.0530 N   0  0  0  0  0  0  0  0  0  0  0  0
   57.6150   31.7940   43.8310 C   0  0  0  0  0  0  0  0  0  0  0  0
   57.0280   31.1260   44.8620 N   0  0  0  0  0  0  0  0  0  0  0  0
   56.1880   30.0830   44.6340 C   0  0  0  0  0  0  0  0  0  0  0  0
   55.9150   29.6860   43.3270 C   0  0  0  0  0  0  0  0  0  0  0  0
   56.5210   30.3820   42.2820 C   0  0  0  0  0  0  0  0  0  0  0  0
   57.3570   31.4180   42.5520 N   0  0  0  0  0  0  0  0  0  0  0  0
   58.2550   32.8690   47.7770 C   0  0  0  0  0  0  0  0  0  0  0  0
   58.9060   32.4840   48.9520 C   0  0  0  0  0  0  0  0  0  0  0  0
   58.2200   25.6140   45.5070 C   0  0  0  0  0  0  0  0  0  0  0  0
   57.7780   26.1160   43.8050 S   0  0  0  0  0  0  0  0  0  0  0  0
   58.4900   27.7910   43.9820 C   0  0  0  0  0  0  0  0  0  0  0  0
   59.2469   25.8641   48.1112 H   0  0  0  0  0  0  0  0  0  0  0  0
   61.7107   30.3711   47.4321 H   0  0  0  0  0  0  0  0  0  0  0  0
   60.1773   31.0252   47.9596 H   0  0  0  0  0  0  0  0  0  0  0  0
   60.7498   25.9478   52.5106 H   0  0  0  0  0  0  0  0  0  0  0  0
   61.6832   26.7375   54.6784 H   0  0  0  0  0  0  0  0  0  0  0  0
   62.5476   29.0614   54.8958 H   0  0  0  0  0  0  0  0  0  0  0  0
   62.4982   30.6129   52.9539 H   0  0  0  0  0  0  0  0  0  0  0  0
   62.6788   31.6353   51.2934 H   0  0  0  0  0  0  0  0  0  0  0  0
   62.6949   31.5709   49.4858 H   0  0  0  0  0  0  0  0  0  0  0  0
   60.6270   32.7770   51.2470 H   0  0  0  0  0  0  0  0  0  0  0  0
   62.0483   33.6263   48.2312 H   0  0  0  0  0  0  0  0  0  0  0  0
   60.8856   34.3043   46.1340 H   0  0  0  0  0  0  0  0  0  0  0  0
   55.7246   29.5533   45.4794 H   0  0  0  0  0  0  0  0  0  0  0  0
   55.2375   28.8435   43.1242 H   0  0  0  0  0  0  0  0  0  0  0  0
   56.3223   30.0924   41.2396 H   0  0  0  0  0  0  0  0  0  0  0  0
   57.1845   32.6515   47.6475 H   0  0  0  0  0  0  0  0  0  0  0  0
   58.3461   31.9595   49.7403 H   0  0  0  0  0  0  0  0  0  0  0  0
   58.9067   24.7552   45.4791 H   0  0  0  0  0  0  0  0  0  0  0  0
   57.3225   25.3169   46.0693 H   0  0  0  0  0  0  0  0  0  0  0  0
   59.3015   27.9332   43.2532 H   0  0  0  0  0  0  0  0  0  0  0  0
   57.7246   28.5591   43.7972 H   0  0  0  0  0  0  0  0  0  0  0  0
  1  2  2  0
  2  3  1  0
  3  4  2  0
  4  5  1  0
  5  6  2  0
  6  7  1  0
  7  8  1  0
  8  9  1  0
  9 10  2  0
 10 11  1  0
 11 12  2  0
 12 13  1  0
 13 14  2  0
 14 15  1  0
 15 16  2  0
 16 17  1  0
 17 18  2  0
 18 19  1  0
 19 20  1  0
 20 21  1  0
 21 22  2  0
 22 23  1  0
 23 24  2  0
 24 25  1  0
 25 26  2  0
 25 27  2  0
 25 28  1  0
 28 29  2  3
 29 30  1  0
 30 31  2  0
 31 32  1  0
 32 33  2  0
 33 34  1  0
 24 35  1  0
 35 36  2  0
  4 37  1  0
 37 38  1  0
 38 39  1  0
  7  2  1  0
 18  9  1  0
 36 21  1  0
 39  3  1  0
 10  6  1  0
 17 12  1  0
 34 29  1  0
  5 40  1  0
  8 41  1  0
  8 42  1  0
 13 43  1  0
 14 44  1  0
 15 45  1  0
 16 46  1  0
 19 47  1  0
 19 48  1  0
 20 49  1  0
 22 50  1  0
 23 51  1  0
 31 52  1  0
 32 53  1  0
 33 54  1  0
 35 55  1  0
 36 56  1  0
 37 57  1  0
 37 58  1  0
 39 59  1  0
 39 60  1  0
M  CHG  1  34  -1
M  END
>  <UniqueID>  (35) 
28

>  <SMILES>  (35) 
O=c1c2c(cc3n1Cc1c-3nc3ccccc3c1CNc1ccc(S(=O)(=O)N=c3nccc[n-]3)cc1)CSC2

>  <Energy>  (35) 
106.56050842522261

>  <Genealogy>  (35) 
O=c1c2c(cc3n1Cc1c-3nc3ccccc3c1CNc1ccc(S(=O)(=O)N=c3nccc[n-]3)cc1)CSC2 (protonated)
O=c1c2c(cc3n1Cc1c-3nc3ccccc3c1CNc1ccc(S(=O)(=O)N=c3nccc[n-]3)cc1)CSC2 (3D coordinates assigned)
O=c1c2c(cc3n1Cc1c-3nc3ccccc3c1CNc1ccc(S(=O)(=O)N=c3nccc[n-]3)cc1)CSC2 (nonaromatic ring conformer: 106.56050842522261 kcal/mol)

>  <smiles>  (35) 
O=c1c2c(cc3n1Cc1c-3nc3ccccc3c1CNc1ccc(S(=O)(=O)N=c3nccc[nH]3)cc1)CSC2

>  <score_type>  (35) 
oracle

>  <origin>  (35) 
adg

>  <m_score__min__energy>  (35) 
-11.82

>  <m_primary>  (35) 
energy

$$$$
35:0
     RDKit          3D

 45 49  0  0  0  0  0  0  0  0999 V2000
   57.5790   32.9310   44.7300 C   0  0  0  0  0  0  0  0  0  0  0  0
   57.8020   31.7810   45.5220 C   0  0  0  0  0  0  0  0  0  0  0  0
   58.5000   31.8780   46.7420 C   0  0  0  0  0  0  0  0  0  0  0  0
   58.9620   33.1410   47.1220 C   0  0  0  0  0  0  0  0  0  0  0  0
   58.7360   34.2460   46.3590 C   0  0  0  0  0  0  0  0  0  0  0  0
   58.0500   34.1900   45.1500 C   0  0  0  0  0  0  0  0  0  0  0  0
   59.2770   35.3160   46.9650 N   0  0  0  0  0  0  0  0  0  0  0  0
   59.8280   34.8540   48.0870 N   0  0  0  0  0  0  0  0  0  0  0  0
   59.6420   33.5420   48.2160 N   0  0  0  0  0  0  0  0  0  0  0  0
   60.2430   32.7500   49.3020 C   0  0  2  0  0  0  0  0  0  0  0  0
   60.9850   31.5310   48.6980 C   0  0  0  0  0  0  0  0  0  0  0  0
   62.3650   31.8770   48.2910 N   0  0  0  0  0  0  0  0  0  0  0  0
   62.3990   32.7480   47.1140 C   0  0  0  0  0  0  0  0  0  0  0  0
   63.7480   33.4440   47.1350 C   0  0  0  0  0  0  0  0  0  0  0  0
   64.1980   33.3930   48.5870 C   0  0  0  0  0  0  0  0  0  0  0  0
   63.1250   32.5970   49.3170 C   0  0  0  0  0  0  0  0  0  0  0  0
   59.2580   32.4400   50.4310 C   0  0  0  0  0  0  0  0  0  0  0  0
   58.9380   33.4260   51.4100 C   0  0  0  0  0  0  0  0  0  0  0  0
   57.9830   33.1730   52.4110 C   0  0  0  0  0  0  0  0  0  0  0  0
   57.3230   31.9510   52.3840 C   0  0  0  0  0  0  0  0  0  0  0  0
   57.5690   31.0270   51.4260 C   0  0  0  0  0  0  0  0  0  0  0  0
   58.5060   31.2360   50.4200 C   0  0  0  0  0  0  0  0  0  0  0  0
   56.7550   29.9280   51.6290 O   0  0  0  0  0  0  0  0  0  0  0  0
   55.9540   30.1780   52.7900 C   0  0  0  0  0  0  0  0  0  0  0  0
   56.3470   31.4820   53.2410 O   0  0  0  0  0  0  0  0  0  0  0  0
   57.0337   32.8416   43.7789 H   0  0  0  0  0  0  0  0  0  0  0  0
   57.4278   30.8037   45.1832 H   0  0  0  0  0  0  0  0  0  0  0  0
   58.6747   30.9931   47.3716 H   0  0  0  0  0  0  0  0  0  0  0  0
   57.8821   35.0937   44.5458 H   0  0  0  0  0  0  0  0  0  0  0  0
   61.0054   33.3504   49.8200 H   0  0  0  0  0  0  0  0  0  0  0  0
   61.0256   30.7297   49.4505 H   0  0  0  0  0  0  0  0  0  0  0  0
   60.4353   31.2039   47.8031 H   0  0  0  0  0  0  0  0  0  0  0  0
   62.2929   32.1514   46.1960 H   0  0  0  0  0  0  0  0  0  0  0  0
   61.5744   33.4758   47.1324 H   0  0  0  0  0  0  0  0  0  0  0  0
   64.4652   32.9156   46.4897 H   0  0  0  0  0  0  0  0  0  0  0  0
   63.6851   34.4759   46.7591 H   0  0  0  0  0  0  0  0  0  0  0  0
   65.1729   32.8904   48.6700 H   0  0  0  0  0  0  0  0  0  0  0  0
   64.3197   34.4001   49.0124 H   0  0  0  0  0  0  0  0  0  0  0  0
   63.5898   31.8846   50.0145 H   0  0  0  0  0  0  0  0  0  0  0  0
   62.4706   33.2590   49.9031 H   0  0  0  0  0  0  0  0  0  0  0  0
   59.4466   34.4009   51.3819 H   0  0  0  0  0  0  0  0  0  0  0  0
   57.7658   33.9186   53.1900 H   0  0  0  0  0  0  0  0  0  0  0  0
   58.6612   30.4841   49.6322 H   0  0  0  0  0  0  0  0  0  0  0  0
   54.8848   30.1646   52.5318 H   0  0  0  0  0  0  0  0  0  0  0  0
   56.1013   29.4118   53.5654 H   0  0  0  0  0  0  0  0  0  0  0  0
  1  2  2  0
  2  3  1  0
  3  4  2  0
  4  5  1  0
  5  6  2  0
  5  7  1  0
  7  8  2  0
  8  9  1  0
  9 10  1  0
 10 11  1  0
 11 12  1  0
 12 13  1  0
 13 14  1  0
 14 15  1  0
 15 16  1  0
 10 17  1  0
 17 18  2  0
 18 19  1  0
 19 20  2  0
 20 21  1  0
 21 22  2  0
 21 23  1  0
 23 24  1  0
 24 25  1  0
  6  1  1  0
 16 12  1  0
 22 17  1  0
  9  4  1  0
 25 20  1  0
  1 26  1  0
  2 27  1  0
  3 28  1  0
  6 29  1  0
 10 30  1  1
 11 31  1  0
 11 32  1  0
 13 33  1  0
 13 34  1  0
 14 35  1  0
 14 36  1  0
 15 37  1  0
 15 38  1  0
 16 39  1  0
 16 40  1  0
 18 41  1  0
 19 42  1  0
 22 43  1  0
 24 44  1  0
 24 45  1  0
M  END
>  <UniqueID>  (36) 
29

>  <SMILES>  (36) 
c1ccc2c(c1)nnn2[C@H](CN1CCCC1)c1ccc2c(c1)OCO2

>  <Energy>  (36) 
129.61813852401784

>  <Genealogy>  (36) 
c1ccc2c(c1)nnn2[C@H](CN1CCCC1)c1ccc2c(c1)OCO2 (chirality)
c1ccc2c(c1)nnn2[C@H](CN1CCCC1)c1ccc2c(c1)OCO2 (3D coordinates assigned)
c1ccc2c(c1)nnn2[C@H](CN1CCCC1)c1ccc2c(c1)OCO2 (nonaromatic ring conformer: 129.61813852401784 kcal/mol)

>  <smiles>  (36) 
c1ccc2c(c1)nnn2C(CN1CCCC1)c1ccc2c(c1)OCO2

>  <score_type>  (36) 
oracle

>  <origin>  (36) 
adg

>  <m_score__min__energy>  (36) 
-8.3900000000000006

>  <m_primary>  (36) 
energy

$$$$
36:0
     RDKit          3D

 37 39  0  0  0  0  0  0  0  0999 V2000
   55.2480   29.7070   43.5140 C   0  0  0  0  0  0  0  0  0  0  0  0
   56.3210   30.1870   44.4350 C   0  0  0  0  0  0  0  0  0  0  0  0
   56.7350   31.4680   44.5110 N   0  0  0  0  0  0  0  0  0  0  0  0
   57.6390   31.5450   45.4780 N   0  0  0  0  0  0  0  0  0  0  0  0
   58.2860   32.7760   45.8400 C   0  0  0  0  0  0  0  0  0  0  0  0
   58.8340   33.6210   44.8590 C   0  0  0  0  0  0  0  0  0  0  0  0
   59.4800   34.8050   45.2310 C   0  0  0  0  0  0  0  0  0  0  0  0
   59.5960   35.1470   46.5810 C   0  0  0  0  0  0  0  0  0  0  0  0
   59.0720   34.3010   47.5620 C   0  0  0  0  0  0  0  0  0  0  0  0
   58.4260   33.1170   47.1950 C   0  0  0  0  0  0  0  0  0  0  0  0
   57.8220   30.3230   46.0330 C   0  0  0  0  0  0  0  0  0  0  0  0
   58.8910   29.9660   47.3860 Cl  0  0  0  0  0  0  0  0  0  0  0  0
   56.9950   29.4330   45.3720 C   0  0  0  0  0  0  0  0  0  0  0  0
   56.7590   28.0500   45.6570 N   0  0  0  0  0  0  0  0  0  0  0  0
   57.7370   27.0090   45.5580 C   0  0  0  0  0  0  0  0  0  0  0  0
   58.9360   27.2440   45.8710 O   0  0  0  0  0  0  0  0  0  0  0  0
   57.3560   25.6760   45.0350 C   0  0  0  0  0  0  0  0  0  0  0  0
   57.4040   25.4100   43.6550 C   0  0  0  0  0  0  0  0  0  0  0  0
   57.0470   24.1530   43.1610 C   0  0  0  0  0  0  0  0  0  0  0  0
   56.6340   23.1320   44.0340 C   0  0  0  0  0  0  0  0  0  0  0  0
   56.2660   21.8390   43.5200 N   0  0  0  0  0  0  0  0  0  0  0  0
   56.2190   21.6320   42.2900 O   0  0  0  0  0  0  0  0  0  0  0  0
   55.9570   20.8070   44.3770 O   0  0  0  0  0  0  0  0  0  0  0  0
   56.5860   23.3970   45.4130 C   0  0  0  0  0  0  0  0  0  0  0  0
   56.9430   24.6540   45.9080 C   0  0  0  0  0  0  0  0  0  0  0  0
   54.4007   29.3280   44.1042 H   0  0  0  0  0  0  0  0  0  0  0  0
   54.9097   30.5396   42.8797 H   0  0  0  0  0  0  0  0  0  0  0  0
   55.6432   28.8999   42.8797 H   0  0  0  0  0  0  0  0  0  0  0  0
   58.7546   33.3504   43.7958 H   0  0  0  0  0  0  0  0  0  0  0  0
   59.8975   35.4682   44.4591 H   0  0  0  0  0  0  0  0  0  0  0  0
   60.0992   36.0811   46.8711 H   0  0  0  0  0  0  0  0  0  0  0  0
   59.1681   34.5673   48.6250 H   0  0  0  0  0  0  0  0  0  0  0  0
   58.0252   32.4489   47.9716 H   0  0  0  0  0  0  0  0  0  0  0  0
   57.7254   26.1984   42.9585 H   0  0  0  0  0  0  0  0  0  0  0  0
   57.0895   23.9606   42.0788 H   0  0  0  0  0  0  0  0  0  0  0  0
   56.2646   22.6081   46.1090 H   0  0  0  0  0  0  0  0  0  0  0  0
   56.9006   24.8457   46.9903 H   0  0  0  0  0  0  0  0  0  0  0  0
  1  2  1  0
  2  3  2  0
  3  4  1  0
  4  5  1  0
  5  6  2  0
  6  7  1  0
  7  8  2  0
  8  9  1  0
  9 10  2  0
  4 11  1  0
 11 12  1  0
 11 13  2  0
 13 14  1  0
 14 15  1  0
 15 16  2  0
 15 17  1  0
 17 18  2  0
 18 19  1  0
 19 20  2  0
 20 21  1  0
 21 22  2  0
 21 23  1  0
 20 24  1  0
 24 25  2  0
 13  2  1  0
 25 17  1  0
 10  5  1  0
  1 26  1  0
  1 27  1  0
  1 28  1  0
  6 29  1  0
  7 30  1  0
  8 31  1  0
  9 32  1  0
 10 33  1  0
 18 34  1  0
 19 35  1  0
 24 36  1  0
 25 37  1  0
M  CHG  3  14  -1  21   1  23  -1
M  END
>  <UniqueID>  (37) 
30

>  <SMILES>  (37) 
Cc1nn(-c2ccccc2)c(Cl)c1[N-]C(=O)c1ccc([N+](=O)[O-])cc1

>  <Energy>  (37) 
82.81814075273158

>  <Genealogy>  (37) 
Cc1nn(-c2ccccc2)c(Cl)c1[N-]C(=O)c1ccc([N+](=O)[O-])cc1 (protonated)
Cc1nn(-c2ccccc2)c(Cl)c1[N-]C(=O)c1ccc([N+](=O)[O-])cc1 (3D coordinates assigned)
Cc1nn(-c2ccccc2)c(Cl)c1[N-]C(=O)c1ccc([N+](=O)[O-])cc1 (optimized conformer: 82.81814075273158 kcal/mol)

>  <smiles>  (37) 
Cc1nn(-c2ccccc2)c(Cl)c1NC(=O)c1ccc([N+](=O)[O-])cc1

>  <score_type>  (37) 
oracle

>  <origin>  (37) 
adg

>  <m_score__min__energy>  (37) 
-9.9800000000000004

>  <m_primary>  (37) 
energy

$$$$
37:0
     RDKit          3D

 36 38  0  0  0  0  0  0  0  0999 V2000
   57.0810   25.3770   44.9720 C   0  0  0  0  0  0  0  0  0  0  0  0
   56.6580   26.3190   45.9520 O   0  0  0  0  0  0  0  0  0  0  0  0
   57.2710   27.5610   46.1780 C   0  0  0  0  0  0  0  0  0  0  0  0
   58.4480   27.6910   46.9350 C   0  0  0  0  0  0  0  0  0  0  0  0
   59.0380   28.9460   47.1250 C   0  0  0  0  0  0  0  0  0  0  0  0
   58.4350   30.1110   46.6010 C   0  0  0  0  0  0  0  0  0  0  0  0
   57.2590   29.9630   45.8330 C   0  0  0  0  0  0  0  0  0  0  0  0
   56.6890   28.7050   45.6240 C   0  0  0  0  0  0  0  0  0  0  0  0
   55.5280   28.5950   44.8670 O   0  0  0  0  0  0  0  0  0  0  0  0
   58.9660   31.4320   46.9060 N   0  0  0  0  0  0  0  0  0  0  0  0
   58.5630   32.5910   46.0960 C   0  0  0  0  0  0  0  0  0  0  0  0
   59.8790   31.6840   48.0460 C   0  0  2  0  0  0  0  0  0  0  0  0
   61.2480   32.1560   47.5710 C   0  0  0  0  0  0  0  0  0  0  0  0
   62.3600   31.2890   47.5790 C   0  0  0  0  0  0  0  0  0  0  0  0
   63.6150   31.7430   47.1660 C   0  0  0  0  0  0  0  0  0  0  0  0
   63.7800   33.0660   46.7520 C   0  0  0  0  0  0  0  0  0  0  0  0
   62.6920   33.9400   46.7540 C   0  0  0  0  0  0  0  0  0  0  0  0
   61.4310   33.4930   47.1650 C   0  0  0  0  0  0  0  0  0  0  0  0
   60.3930   34.3680   47.1710 F   0  0  0  0  0  0  0  0  0  0  0  0
   60.0160   30.4730   48.9830 C   0  0  0  0  0  0  0  0  0  0  0  0
   60.5730   29.0290   48.0420 S   0  0  0  0  0  0  0  0  0  0  0  0
   57.4824   24.4831   45.4718 H   0  0  0  0  0  0  0  0  0  0  0  0
   56.2244   25.0921   44.3435 H   0  0  0  0  0  0  0  0  0  0  0  0
   57.8631   25.8279   44.3435 H   0  0  0  0  0  0  0  0  0  0  0  0
   58.9097   26.7984   47.3822 H   0  0  0  0  0  0  0  0  0  0  0  0
   56.7845   30.8523   45.3925 H   0  0  0  0  0  0  0  0  0  0  0  0
   58.2749   33.4197   46.7595 H   0  0  0  0  0  0  0  0  0  0  0  0
   59.4046   32.9052   45.4612 H   0  0  0  0  0  0  0  0  0  0  0  0
   57.7080   32.3152   45.4612 H   0  0  0  0  0  0  0  0  0  0  0  0
   59.4164   32.4911   48.6330 H   0  0  0  0  0  0  0  0  0  0  0  0
   62.2385   30.2479   47.9128 H   0  0  0  0  0  0  0  0  0  0  0  0
   64.4747   31.0568   47.1670 H   0  0  0  0  0  0  0  0  0  0  0  0
   64.7685   33.4199   46.4239 H   0  0  0  0  0  0  0  0  0  0  0  0
   62.8259   34.9831   46.4316 H   0  0  0  0  0  0  0  0  0  0  0  0
   60.7499   30.7013   49.7699 H   0  0  0  0  0  0  0  0  0  0  0  0
   59.0392   30.2545   49.4392 H   0  0  0  0  0  0  0  0  0  0  0  0
  1  2  1  0
  2  3  1  0
  3  4  2  0
  4  5  1  0
  5  6  2  0
  6  7  1  0
  7  8  2  0
  8  9  1  0
  6 10  1  0
 10 11  1  0
 10 12  1  0
 12 13  1  0
 13 14  2  0
 14 15  1  0
 15 16  2  0
 16 17  1  0
 17 18  2  0
 18 19  1  0
 12 20  1  0
 20 21  1  0
  8  3  1  0
 18 13  1  0
 21  5  1  0
  1 22  1  0
  1 23  1  0
  1 24  1  0
  4 25  1  0
  7 26  1  0
 11 27  1  0
 11 28  1  0
 11 29  1  0
 12 30  1  1
 14 31  1  0
 15 32  1  0
 16 33  1  0
 17 34  1  0
 20 35  1  0
 20 36  1  0
M  CHG  1   9  -1
M  END
>  <UniqueID>  (38) 
31

>  <SMILES>  (38) 
COc1cc2c(cc1[O-])N(C)[C@H](c1ccccc1F)CS2

>  <Energy>  (38) 
45.490784423798814

>  <Genealogy>  (38) 
COc1cc2c(cc1[O-])N(C)C(c1ccccc1F)CS2 (protonated)
COc1cc2c(cc1[O-])N(C)[C@H](c1ccccc1F)CS2 (chirality)
COc1cc2c(cc1[O-])N(C)[C@H](c1ccccc1F)CS2 (3D coordinates assigned)
COc1cc2c(cc1[O-])N(C)[C@H](c1ccccc1F)CS2 (nonaromatic ring conformer: 45.490784423798814 kcal/mol)

>  <smiles>  (38) 
COc1cc2c(cc1O)N(C)C(c1ccccc1F)CS2

>  <score_type>  (38) 
oracle

>  <origin>  (38) 
adg

>  <m_score__min__energy>  (38) 
-9.9299999999999997

>  <m_primary>  (38) 
energy

$$$$
38:0
     RDKit          3D

 43 46  0  0  0  0  0  0  0  0999 V2000
   56.0610   26.0190   46.5270 O   0  0  0  0  0  0  0  0  0  0  0  0
   56.6870   27.0860   46.2940 C   0  0  0  0  0  0  0  0  0  0  0  0
   57.7440   27.4750   47.1190 C   0  0  0  0  0  0  0  0  0  0  0  0
   58.4170   28.6740   46.8330 C   0  0  0  0  0  0  0  0  0  0  0  0
   59.5200   29.1360   47.6440 N   0  0  0  0  0  0  0  0  0  0  0  0
   59.6410   28.6650   49.0300 C   0  0  0  0  0  0  0  0  0  0  0  0
   60.3920   29.6950   49.8790 C   0  0  0  0  0  0  0  0  0  0  0  0
   61.6150   30.0540   49.2640 O   0  0  0  0  0  0  0  0  0  0  0  0
   61.3520   30.7330   48.0530 C   0  0  0  0  0  0  0  0  0  0  0  0
   60.6810   29.8010   47.0380 C   0  0  0  0  0  0  0  0  0  0  0  0
   58.0110   29.4170   45.7670 N   0  0  0  0  0  0  0  0  0  0  0  0
   56.9870   29.0170   44.9670 C   0  0  0  0  0  0  0  0  0  0  0  0
   56.5590   29.8690   43.8120 C   0  0  0  0  0  0  0  0  0  0  0  0
   56.1950   31.1780   44.2530 O   0  0  0  0  0  0  0  0  0  0  0  0
   57.0670   32.1110   44.8390 C   0  0  0  0  0  0  0  0  0  0  0  0
   57.5880   33.2040   44.1210 C   0  0  0  0  0  0  0  0  0  0  0  0
   58.4560   34.0960   44.7490 C   0  0  0  0  0  0  0  0  0  0  0  0
   58.8030   33.9040   46.0900 C   0  0  0  0  0  0  0  0  0  0  0  0
   59.6740   34.7870   46.7460 C   0  0  0  0  0  0  0  0  0  0  0  0
   60.0070   34.5740   48.0870 C   0  0  0  0  0  0  0  0  0  0  0  0
   59.4720   33.4830   48.7780 C   0  0  0  0  0  0  0  0  0  0  0  0
   58.6030   32.5980   48.1330 C   0  0  0  0  0  0  0  0  0  0  0  0
   58.2610   32.8010   46.7860 C   0  0  0  0  0  0  0  0  0  0  0  0
   57.4150   31.9420   46.1470 N   0  0  0  0  0  0  0  0  0  0  0  0
   56.3280   27.8610   45.2400 N   0  0  0  0  0  0  0  0  0  0  0  0
   58.0438   26.8544   47.9763 H   0  0  0  0  0  0  0  0  0  0  0  0
   58.6359   28.5122   49.4502 H   0  0  0  0  0  0  0  0  0  0  0  0
   60.2013   27.7184   49.0381 H   0  0  0  0  0  0  0  0  0  0  0  0
   59.7676   30.5934   49.9927 H   0  0  0  0  0  0  0  0  0  0  0  0
   60.6073   29.2528   50.8629 H   0  0  0  0  0  0  0  0  0  0  0  0
   60.6859   31.5848   48.2550 H   0  0  0  0  0  0  0  0  0  0  0  0
   62.3061   31.0828   47.6318 H   0  0  0  0  0  0  0  0  0  0  0  0
   60.3495   30.3892   46.1696 H   0  0  0  0  0  0  0  0  0  0  0  0
   61.4057   29.0363   46.7218 H   0  0  0  0  0  0  0  0  0  0  0  0
   57.3897   29.9482   43.0953 H   0  0  0  0  0  0  0  0  0  0  0  0
   55.6843   29.4023   43.3354 H   0  0  0  0  0  0  0  0  0  0  0  0
   57.3109   33.3539   43.0671 H   0  0  0  0  0  0  0  0  0  0  0  0
   58.8674   34.9497   44.1904 H   0  0  0  0  0  0  0  0  0  0  0  0
   60.0950   35.6472   46.2049 H   0  0  0  0  0  0  0  0  0  0  0  0
   60.6913   35.2663   48.5993 H   0  0  0  0  0  0  0  0  0  0  0  0
   59.7358   33.3202   49.8334 H   0  0  0  0  0  0  0  0  0  0  0  0
   58.1861   31.7406   48.6818 H   0  0  0  0  0  0  0  0  0  0  0  0
   57.0180   31.1250   46.6640 H   0  0  0  0  0  0  0  0  0  0  0  0
  1  2  2  0
  2  3  1  0
  3  4  2  0
  4  5  1  0
  5  6  1  0
  6  7  1  0
  7  8  1  0
  8  9  1  0
  9 10  1  0
  4 11  1  0
 11 12  1  0
 12 13  1  0
 13 14  1  0
 14 15  1  0
 15 16  2  0
 16 17  1  0
 17 18  2  0
 18 19  1  0
 19 20  2  0
 20 21  1  0
 21 22  2  0
 22 23  1  0
 23 24  2  0
 12 25  2  0
 25  2  1  0
 10  5  1  0
 24 15  1  0
 23 18  1  0
  3 26  1  0
  6 27  1  0
  6 28  1  0
  7 29  1  0
  7 30  1  0
  9 31  1  0
  9 32  1  0
 10 33  1  0
 10 34  1  0
 13 35  1  0
 13 36  1  0
 16 37  1  0
 17 38  1  0
 19 39  1  0
 20 40  1  0
 21 41  1  0
 22 42  1  0
 24 43  1  0
M  CHG  2  11  -1  24   1
M  END
>  <UniqueID>  (39) 
32

>  <SMILES>  (39) 
O=c1cc(N2CCOCC2)[n-]c(COc2ccc3ccccc3[nH+]2)n1

>  <Energy>  (39) 
53.84624834131024

>  <Genealogy>  (39) 
O=c1cc(N2CCOCC2)[n-]c(COc2ccc3ccccc3[nH+]2)n1 (protonated)
O=c1cc(N2CCOCC2)[n-]c(COc2ccc3ccccc3[nH+]2)n1 (3D coordinates assigned)
O=c1cc(N2CCOCC2)[n-]c(COc2ccc3ccccc3[nH+]2)n1 (nonaromatic ring conformer: 53.84624834131024 kcal/mol)

>  <smiles>  (39) 
O=c1cc(N2CCOCC2)[nH]c(COc2ccc3ccccc3n2)n1

>  <score_type>  (39) 
oracle

>  <origin>  (39) 
adg

>  <m_score__min__energy>  (39) 
-7.5599999999999996

>  <m_primary>  (39) 
energy

$$$$
39:0
     RDKit          3D

 35 36  0  0  0  0  0  0  0  0999 V2000
   59.2520   34.6730   47.6830 N   0  0  0  0  0  0  0  0  0  0  0  0
   60.2840   34.1980   47.0480 C   0  0  0  0  0  0  0  0  0  0  0  0
   60.2320   34.0150   45.6250 N   0  0  0  0  0  0  0  0  0  0  0  0
   59.1580   34.4820   44.8920 O   0  0  0  0  0  0  0  0  0  0  0  0
   57.9440   33.7920   44.8270 C   0  0  0  0  0  0  0  0  0  0  0  0
   57.0190   34.0380   45.6470 O   0  0  0  0  0  0  0  0  0  0  0  0
   57.7500   32.7430   43.7810 C   0  0  0  0  0  0  0  0  0  0  0  0
   56.9040   31.2840   44.4810 S   0  0  0  0  0  0  0  0  0  0  0  0
   58.3190   30.7270   45.4380 C   0  0  0  0  0  0  0  0  0  0  0  0
   58.5460   31.2440   46.7200 C   0  0  0  0  0  0  0  0  0  0  0  0
   59.6470   30.8100   47.4650 C   0  0  0  0  0  0  0  0  0  0  0  0
   60.5190   29.8550   46.9330 C   0  0  0  0  0  0  0  0  0  0  0  0
   60.2900   29.3320   45.6560 C   0  0  0  0  0  0  0  0  0  0  0  0
   59.1890   29.7640   44.9100 C   0  0  0  0  0  0  0  0  0  0  0  0
   61.5260   33.8490   47.7850 C   0  0  0  0  0  0  0  0  0  0  0  0
   61.6670   34.2020   49.1380 C   0  0  0  0  0  0  0  0  0  0  0  0
   62.8350   33.8770   49.8360 C   0  0  0  0  0  0  0  0  0  0  0  0
   63.8740   33.2010   49.1910 C   0  0  0  0  0  0  0  0  0  0  0  0
   65.4670   32.7610   50.1460 Br  0  0  0  0  0  0  0  0  0  0  0  0
   63.7450   32.8490   47.8440 C   0  0  0  0  0  0  0  0  0  0  0  0
   62.5770   33.1700   47.1430 C   0  0  0  0  0  0  0  0  0  0  0  0
   59.3050   34.9250   48.6940 H   0  0  0  0  0  0  0  0  0  0  0  0
   58.3290   34.8000   47.2110 H   0  0  0  0  0  0  0  0  0  0  0  0
   61.0170   33.5210   45.1440 H   0  0  0  0  0  0  0  0  0  0  0  0
   57.1408   33.1562   42.9636 H   0  0  0  0  0  0  0  0  0  0  0  0
   58.7355   32.4334   43.4030 H   0  0  0  0  0  0  0  0  0  0  0  0
   57.8578   31.9918   47.1409 H   0  0  0  0  0  0  0  0  0  0  0  0
   59.8271   31.2199   48.4697 H   0  0  0  0  0  0  0  0  0  0  0  0
   61.3855   29.5148   47.5190 H   0  0  0  0  0  0  0  0  0  0  0  0
   60.9763   28.5806   45.2385 H   0  0  0  0  0  0  0  0  0  0  0  0
   59.0059   29.3477   43.9084 H   0  0  0  0  0  0  0  0  0  0  0  0
   60.8543   34.7369   49.6511 H   0  0  0  0  0  0  0  0  0  0  0  0
   62.9358   34.1544   50.8957 H   0  0  0  0  0  0  0  0  0  0  0  0
   64.5630   32.3188   47.3343 H   0  0  0  0  0  0  0  0  0  0  0  0
   62.4805   32.8896   46.0837 H   0  0  0  0  0  0  0  0  0  0  0  0
  1  2  2  0
  2  3  1  0
  3  4  1  0
  4  5  1  0
  5  6  2  0
  5  7  1  0
  7  8  1  0
  8  9  1  0
  9 10  2  0
 10 11  1  0
 11 12  2  0
 12 13  1  0
 13 14  2  0
  2 15  1  0
 15 16  2  0
 16 17  1  0
 17 18  2  0
 18 19  1  0
 18 20  1  0
 20 21  2  0
 14  9  1  0
 21 15  1  0
  1 22  1  0
  1 23  1  0
  3 24  1  0
  7 25  1  0
  7 26  1  0
 10 27  1  0
 11 28  1  0
 12 29  1  0
 13 30  1  0
 14 31  1  0
 16 32  1  0
 17 33  1  0
 20 34  1  0
 21 35  1  0
M  CHG  1   1   1
M  END
>  <UniqueID>  (40) 
33

>  <SMILES>  (40) 
[NH2+]=C(NOC(=O)CSc1ccccc1)c1ccc(Br)cc1

>  <Energy>  (40) 
31.692617659828173

>  <Genealogy>  (40) 
[NH2+]=C(NOC(=O)CSc1ccccc1)c1ccc(Br)cc1 (protonated)
[NH2+]=C(NOC(=O)CSc1ccccc1)c1ccc(Br)cc1 (3D coordinates assigned)
[NH2+]=C(NOC(=O)CSc1ccccc1)c1ccc(Br)cc1 (optimized conformer: 31.692617659828173 kcal/mol)

>  <smiles>  (40) 
N=C(NOC(=O)CSc1ccccc1)c1ccc(Br)cc1

>  <score_type>  (40) 
oracle

>  <origin>  (40) 
adg

>  <m_score__min__energy>  (40) 
-6.2999999999999998

>  <m_primary>  (40) 
energy

$$$$
40:0
     RDKit          3D

 40 42  0  0  0  0  0  0  0  0999 V2000
   55.2140   29.5600   44.8820 O   0  0  0  0  0  0  0  0  0  0  0  0
   56.1530   28.7260   44.9850 C   0  0  0  0  0  0  0  0  0  0  0  0
   57.5020   29.0750   44.4150 C   0  0  0  0  0  0  0  0  0  0  0  0
   58.1020   30.1850   45.1700 N   0  0  0  0  0  0  0  0  0  0  0  0
   59.2440   29.9620   45.9060 C   0  0  0  0  0  0  0  0  0  0  0  0
   59.8410   30.9740   46.6000 N   0  0  0  0  0  0  0  0  0  0  0  0
   59.3070   32.2180   46.5620 C   0  0  0  0  0  0  0  0  0  0  0  0
   59.8180   33.3370   47.2210 C   0  0  0  0  0  0  0  0  0  0  0  0
   59.0590   34.4830   46.9870 C   0  0  0  0  0  0  0  0  0  0  0  0
   57.7650   34.0930   45.9640 S   0  0  0  0  0  0  0  0  0  0  0  0
   58.1740   32.4690   45.8240 C   0  0  0  0  0  0  0  0  0  0  0  0
   57.5590   31.4480   45.1130 C   0  0  0  0  0  0  0  0  0  0  0  0
   56.5250   31.6850   44.4290 O   0  0  0  0  0  0  0  0  0  0  0  0
   55.8890   27.4700   45.6220 N   0  0  0  0  0  0  0  0  0  0  0  0
   56.8820   26.6550   46.3110 C   0  0  0  0  0  0  0  0  0  0  0  0
   57.9370   26.1490   45.3200 C   0  0  0  0  0  0  0  0  0  0  0  0
   58.5640   24.8110   45.7430 C   0  0  0  0  0  0  0  0  0  0  0  0
   58.1500   23.7270   44.8530 N   0  0  0  0  0  0  0  0  0  0  0  0
   56.8850   23.6870   44.1410 C   0  0  0  0  0  0  0  0  0  0  0  0
   56.8990   22.3810   43.3240 C   0  0  0  0  0  0  0  0  0  0  0  0
   58.1280   21.5730   43.7730 C   0  0  0  0  0  0  0  0  0  0  0  0
   58.8400   22.5080   44.6670 C   0  0  0  0  0  0  0  0  0  0  0  0
   59.9350   22.2410   45.2290 O   0  0  0  0  0  0  0  0  0  0  0  0
   58.1606   28.1961   44.4766 H   0  0  0  0  0  0  0  0  0  0  0  0
   57.3794   29.3805   43.3654 H   0  0  0  0  0  0  0  0  0  0  0  0
   59.6816   28.9532   45.9350 H   0  0  0  0  0  0  0  0  0  0  0  0
   60.7178   33.3172   47.8535 H   0  0  0  0  0  0  0  0  0  0  0  0
   59.2668   35.4810   47.4003 H   0  0  0  0  0  0  0  0  0  0  0  0
   57.3737   27.2609   47.0863 H   0  0  0  0  0  0  0  0  0  0  0  0
   56.3791   25.7909   46.7698 H   0  0  0  0  0  0  0  0  0  0  0  0
   57.4607   26.0179   44.3372 H   0  0  0  0  0  0  0  0  0  0  0  0
   58.7441   26.8957   45.2883 H   0  0  0  0  0  0  0  0  0  0  0  0
   59.6597   24.9025   45.7111 H   0  0  0  0  0  0  0  0  0  0  0  0
   58.2235   24.5739   46.7617 H   0  0  0  0  0  0  0  0  0  0  0  0
   56.0459   23.6839   44.8523 H   0  0  0  0  0  0  0  0  0  0  0  0
   56.7595   24.5667   43.4926 H   0  0  0  0  0  0  0  0  0  0  0  0
   55.9805   21.8070   43.5162 H   0  0  0  0  0  0  0  0  0  0  0  0
   56.9475   22.5966   42.2464 H   0  0  0  0  0  0  0  0  0  0  0  0
   57.8260   20.6637   44.3134 H   0  0  0  0  0  0  0  0  0  0  0  0
   58.7462   21.2260   42.9319 H   0  0  0  0  0  0  0  0  0  0  0  0
  1  2  2  0
  2  3  1  0
  3  4  1  0
  4  5  1  0
  5  6  2  0
  6  7  1  0
  7  8  1  0
  8  9  2  0
  9 10  1  0
 10 11  1  0
 11 12  1  0
 12 13  2  0
  2 14  1  0
 14 15  1  0
 15 16  1  0
 16 17  1  0
 17 18  1  0
 18 19  1  0
 19 20  1  0
 20 21  1  0
 21 22  1  0
 22 23  2  0
 12  4  1  0
 22 18  1  0
 11  7  2  0
  3 24  1  0
  3 25  1  0
  5 26  1  0
  8 27  1  0
  9 28  1  0
 15 29  1  0
 15 30  1  0
 16 31  1  0
 16 32  1  0
 17 33  1  0
 17 34  1  0
 19 35  1  0
 19 36  1  0
 20 37  1  0
 20 38  1  0
 21 39  1  0
 21 40  1  0
M  CHG  1  14  -1
M  END
>  <UniqueID>  (41) 
34

>  <SMILES>  (41) 
O=C(Cn1cnc2ccsc2c1=O)[N-]CCCN1CCCC1=O

>  <Energy>  (41) 
73.5479314024695

>  <Genealogy>  (41) 
O=C(Cn1cnc2ccsc2c1=O)[N-]CCCN1CCCC1=O (protonated)
O=C(Cn1cnc2ccsc2c1=O)[N-]CCCN1CCCC1=O (3D coordinates assigned)
O=C(Cn1cnc2ccsc2c1=O)[N-]CCCN1CCCC1=O (nonaromatic ring conformer: 73.5479314024695 kcal/mol)

>  <smiles>  (41) 
O=C(Cn1cnc2ccsc2c1=O)NCCCN1CCCC1=O

>  <score_type>  (41) 
oracle

>  <origin>  (41) 
adg

>  <m_score__min__energy>  (41) 
-9.9199999999999999

>  <m_primary>  (41) 
energy

$$$$
41:0
     RDKit          3D

 50 54  0  0  0  0  0  0  0  0999 V2000
   56.4110   30.1260   41.9810 O   0  0  0  0  0  0  0  0  0  0  0  0
   57.0250   31.0270   42.6150 C   0  0  0  0  0  0  0  0  0  0  0  0
   57.7610   31.9650   41.8910 C   0  0  0  0  0  0  0  0  0  0  0  0
   58.4180   32.9520   42.5370 N   0  0  0  0  0  0  0  0  0  0  0  0
   58.3730   33.0600   43.8870 C   0  0  0  0  0  0  0  0  0  0  0  0
   59.0620   34.1040   44.5150 C   0  0  0  0  0  0  0  0  0  0  0  0
   59.0210   34.2350   45.9020 C   0  0  0  0  0  0  0  0  0  0  0  0
   58.2890   33.3290   46.6670 C   0  0  0  0  0  0  0  0  0  0  0  0
   57.5970   32.2810   46.0530 C   0  0  0  0  0  0  0  0  0  0  0  0
   57.6310   32.1180   44.6470 C   0  0  0  0  0  0  0  0  0  0  0  0
   56.9730   31.0900   43.9910 N   0  0  0  0  0  0  0  0  0  0  0  0
   56.2720   30.0130   44.7330 C   0  0  0  0  0  0  0  0  0  0  0  0
   57.2050   28.8210   44.9960 C   0  0  0  0  0  0  0  0  0  0  0  0
   58.2940   29.2090   45.9220 N   0  0  0  0  0  0  0  0  0  0  0  0
   59.5710   29.4360   45.2030 C   0  0  0  0  0  0  0  0  0  0  0  0
   60.7620   29.5900   46.1720 C   0  0  0  0  0  0  0  0  0  0  0  0
   60.2830   29.8210   47.5380 N   0  0  0  0  0  0  0  0  0  0  0  0
   60.4400   31.1140   48.1530 C   0  0  0  0  0  0  0  0  0  0  0  0
   59.5020   31.6190   49.0020 N   0  0  0  0  0  0  0  0  0  0  0  0
   60.0710   33.0770   49.5660 S   0  0  0  0  0  0  0  0  0  0  0  0
   61.5140   33.1100   48.7350 C   0  0  0  0  0  0  0  0  0  0  0  0
   62.5110   34.0780   48.7210 C   0  0  0  0  0  0  0  0  0  0  0  0
   63.6210   33.8610   47.8930 C   0  0  0  0  0  0  0  0  0  0  0  0
   63.7020   32.6990   47.1010 C   0  0  0  0  0  0  0  0  0  0  0  0
   62.6770   31.7370   47.1350 C   0  0  0  0  0  0  0  0  0  0  0  0
   61.5780   31.9460   47.9790 C   0  0  0  0  0  0  0  0  0  0  0  0
   59.3570   28.8330   48.1090 C   0  0  0  0  0  0  0  0  0  0  0  0
   58.4690   28.2280   47.0090 C   0  0  0  0  0  0  0  0  0  0  0  0
   57.8062   31.9006   40.7938 H   0  0  0  0  0  0  0  0  0  0  0  0
   59.6371   34.8226   43.9126 H   0  0  0  0  0  0  0  0  0  0  0  0
   59.5668   35.0541   46.3931 H   0  0  0  0  0  0  0  0  0  0  0  0
   58.2555   33.4392   47.7610 H   0  0  0  0  0  0  0  0  0  0  0  0
   57.0199   31.5755   46.6688 H   0  0  0  0  0  0  0  0  0  0  0  0
   55.9191   30.4116   45.6956 H   0  0  0  0  0  0  0  0  0  0  0  0
   55.4252   29.6645   44.1235 H   0  0  0  0  0  0  0  0  0  0  0  0
   56.6256   27.9995   45.4426 H   0  0  0  0  0  0  0  0  0  0  0  0
   57.6474   28.4982   44.0420 H   0  0  0  0  0  0  0  0  0  0  0  0
   59.7618   28.5797   44.5395 H   0  0  0  0  0  0  0  0  0  0  0  0
   59.4765   30.3705   44.6305 H   0  0  0  0  0  0  0  0  0  0  0  0
   61.3676   28.6720   46.1507 H   0  0  0  0  0  0  0  0  0  0  0  0
   61.3695   30.4511   45.8566 H   0  0  0  0  0  0  0  0  0  0  0  0
   58.6010   31.1690   49.2730 H   0  0  0  0  0  0  0  0  0  0  0  0
   62.4317   34.9844   49.3392 H   0  0  0  0  0  0  0  0  0  0  0  0
   64.4332   34.6022   47.8616 H   0  0  0  0  0  0  0  0  0  0  0  0
   64.5749   32.5427   46.4501 H   0  0  0  0  0  0  0  0  0  0  0  0
   62.7369   30.8345   46.5089 H   0  0  0  0  0  0  0  0  0  0  0  0
   59.9355   28.0302   48.5895 H   0  0  0  0  0  0  0  0  0  0  0  0
   58.7152   29.3333   48.8491 H   0  0  0  0  0  0  0  0  0  0  0  0
   58.9463   27.3207   46.6104 H   0  0  0  0  0  0  0  0  0  0  0  0
   57.4866   27.9707   47.4317 H   0  0  0  0  0  0  0  0  0  0  0  0
  1  2  2  0
  2  3  1  0
  3  4  2  0
  4  5  1  0
  5  6  2  0
  6  7  1  0
  7  8  2  0
  8  9  1  0
  9 10  2  0
 10 11  1  0
 11 12  1  0
 12 13  1  0
 13 14  1  0
 14 15  1  0
 15 16  1  0
 16 17  1  0
 17 18  1  0
 18 19  2  0
 19 20  1  0
 20 21  1  0
 21 22  2  0
 22 23  1  0
 23 24  2  0
 24 25  1  0
 25 26  2  0
 17 27  1  0
 27 28  1  0
 11  2  1  0
 28 14  1  0
 10  5  1  0
 26 18  1  0
 26 21  1  0
  3 29  1  0
  6 30  1  0
  7 31  1  0
  8 32  1  0
  9 33  1  0
 12 34  1  0
 12 35  1  0
 13 36  1  0
 13 37  1  0
 15 38  1  0
 15 39  1  0
 16 40  1  0
 16 41  1  0
 19 42  1  0
 22 43  1  0
 23 44  1  0
 24 45  1  0
 25 46  1  0
 27 47  1  0
 27 48  1  0
 28 49  1  0
 28 50  1  0
M  CHG  1  19   1
M  END
>  <UniqueID>  (42) 
35

>  <SMILES>  (42) 
O=c1cnc2ccccc2n1CCN1CCN(c2[nH+]sc3ccccc23)CC1

>  <Energy>  (42) 
113.6134279095753

>  <Genealogy>  (42) 
O=c1cnc2ccccc2n1CCN1CCN(c2[nH+]sc3ccccc23)CC1 (protonated)
O=c1cnc2ccccc2n1CCN1CCN(c2[nH+]sc3ccccc23)CC1 (3D coordinates assigned)
O=c1cnc2ccccc2n1CCN1CCN(c2[nH+]sc3ccccc23)CC1 (nonaromatic ring conformer: 113.6134279095753 kcal/mol)

>  <smiles>  (42) 
O=c1cnc2ccccc2n1CCN1CCN(c2nsc3ccccc23)CC1

>  <score_type>  (42) 
oracle

>  <origin>  (42) 
adg

>  <m_score__min__energy>  (42) 
-7.25

>  <m_primary>  (42) 
energy

$$$$
42:0
     RDKit          3D

 47 49  0  0  0  0  0  0  0  0999 V2000
   57.4040   25.2010   44.1560 C   0  0  0  0  0  0  0  0  0  0  0  0
   57.8290   24.0400   45.0490 C   0  0  0  0  0  0  0  0  0  0  0  0
   58.2220   24.5120   46.3380 O   0  0  0  0  0  0  0  0  0  0  0  0
   58.7750   25.7740   46.6150 C   0  0  0  0  0  0  0  0  0  0  0  0
   57.9430   26.7490   47.1760 C   0  0  0  0  0  0  0  0  0  0  0  0
   58.4380   28.0210   47.4720 C   0  0  0  0  0  0  0  0  0  0  0  0
   59.7800   28.3350   47.2250 C   0  0  0  0  0  0  0  0  0  0  0  0
   60.2440   29.6590   47.5220 N   0  0  0  0  0  0  0  0  0  0  0  0
   59.4270   30.8310   47.6570 C   0  0  0  0  0  0  0  0  0  0  0  0
   59.2150   31.3220   48.7980 O   0  0  0  0  0  0  0  0  0  0  0  0
   58.7690   31.4130   46.4640 C   0  0  0  0  0  0  0  0  0  0  0  0
   57.8790   30.6170   45.7170 C   0  0  0  0  0  0  0  0  0  0  0  0
   57.1920   31.1420   44.6080 C   0  0  0  0  0  0  0  0  0  0  0  0
   56.2790   30.3230   43.8530 N   0  0  0  0  0  0  0  0  0  0  0  0
   56.3790   30.2370   42.6110 O   0  0  0  0  0  0  0  0  0  0  0  0
   55.2800   29.6210   44.4880 O   0  0  0  0  0  0  0  0  0  0  0  0
   57.4030   32.4810   44.2480 C   0  0  0  0  0  0  0  0  0  0  0  0
   58.2930   33.2760   44.9710 C   0  0  0  0  0  0  0  0  0  0  0  0
   58.9860   32.7550   46.0710 C   0  0  0  0  0  0  0  0  0  0  0  0
   59.9560   33.5840   46.7320 N   0  0  0  0  0  0  0  0  0  0  0  0
   61.3760   33.5020   46.3890 C   0  0  0  0  0  0  0  0  0  0  0  0
   62.1930   33.3370   47.6730 C   0  0  0  0  0  0  0  0  0  0  0  0
   61.8660   34.3480   48.6120 O   0  0  0  0  0  0  0  0  0  0  0  0
   60.5160   34.2130   49.0210 C   0  0  0  0  0  0  0  0  0  0  0  0
   59.5670   34.4560   47.8420 C   0  0  0  0  0  0  0  0  0  0  0  0
   60.6140   27.3680   46.6380 C   0  0  0  0  0  0  0  0  0  0  0  0
   60.1180   26.0960   46.3390 C   0  0  0  0  0  0  0  0  0  0  0  0
   57.0931   26.0504   44.7820 H   0  0  0  0  0  0  0  0  0  0  0  0
   58.2496   25.5037   43.5209 H   0  0  0  0  0  0  0  0  0  0  0  0
   56.5628   24.8863   43.5209 H   0  0  0  0  0  0  0  0  0  0  0  0
   56.9852   23.3433   45.1614 H   0  0  0  0  0  0  0  0  0  0  0  0
   58.6852   23.5305   44.5829 H   0  0  0  0  0  0  0  0  0  0  0  0
   56.8896   26.5116   47.3858 H   0  0  0  0  0  0  0  0  0  0  0  0
   57.7692   28.7811   47.9020 H   0  0  0  0  0  0  0  0  0  0  0  0
   57.7187   29.5677   46.0057 H   0  0  0  0  0  0  0  0  0  0  0  0
   56.8631   32.9074   43.3897 H   0  0  0  0  0  0  0  0  0  0  0  0
   58.4521   34.3231   44.6739 H   0  0  0  0  0  0  0  0  0  0  0  0
   61.5465   32.6376   45.7304 H   0  0  0  0  0  0  0  0  0  0  0  0
   61.6851   34.4205   45.8687 H   0  0  0  0  0  0  0  0  0  0  0  0
   61.9773   32.3524   48.1135 H   0  0  0  0  0  0  0  0  0  0  0  0
   63.2612   33.4197   47.4239 H   0  0  0  0  0  0  0  0  0  0  0  0
   60.3562   33.1965   49.4099 H   0  0  0  0  0  0  0  0  0  0  0  0
   60.3068   34.9575   49.8033 H   0  0  0  0  0  0  0  0  0  0  0  0
   58.5347   34.2283   48.1460 H   0  0  0  0  0  0  0  0  0  0  0  0
   59.6258   35.5084   47.5272 H   0  0  0  0  0  0  0  0  0  0  0  0
   61.6623   27.6135   46.4128 H   0  0  0  0  0  0  0  0  0  0  0  0
   60.7796   25.3429   45.8860 H   0  0  0  0  0  0  0  0  0  0  0  0
  1  2  1  0
  2  3  1  0
  3  4  1  0
  4  5  2  0
  5  6  1  0
  6  7  2  0
  7  8  1  0
  8  9  1  0
  9 10  2  0
  9 11  1  0
 11 12  2  0
 12 13  1  0
 13 14  1  0
 14 15  2  0
 14 16  1  0
 13 17  2  0
 17 18  1  0
 18 19  2  0
 19 20  1  0
 20 21  1  0
 21 22  1  0
 22 23  1  0
 23 24  1  0
 24 25  1  0
  7 26  1  0
 26 27  2  0
 27  4  1  0
 19 11  1  0
 25 20  1  0
  1 28  1  0
  1 29  1  0
  1 30  1  0
  2 31  1  0
  2 32  1  0
  5 33  1  0
  6 34  1  0
 12 35  1  0
 17 36  1  0
 18 37  1  0
 21 38  1  0
 21 39  1  0
 22 40  1  0
 22 41  1  0
 24 42  1  0
 24 43  1  0
 25 44  1  0
 25 45  1  0
 26 46  1  0
 27 47  1  0
M  CHG  3   8  -1  14   1  16  -1
M  END
>  <UniqueID>  (43) 
36

>  <SMILES>  (43) 
CCOc1ccc([N-]C(=O)c2cc([N+](=O)[O-])ccc2N2CCOCC2)cc1

>  <Energy>  (43) 
61.163947156307124

>  <Genealogy>  (43) 
CCOc1ccc([N-]C(=O)c2cc([N+](=O)[O-])ccc2N2CCOCC2)cc1 (protonated)
CCOc1ccc([N-]C(=O)c2cc([N+](=O)[O-])ccc2N2CCOCC2)cc1 (3D coordinates assigned)
CCOc1ccc([N-]C(=O)c2cc([N+](=O)[O-])ccc2N2CCOCC2)cc1 (nonaromatic ring conformer: 61.163947156307124 kcal/mol)

>  <smiles>  (43) 
CCOc1ccc(NC(=O)c2cc([N+](=O)[O-])ccc2N2CCOCC2)cc1

>  <score_type>  (43) 
oracle

>  <origin>  (43) 
adg

>  <m_score__min__energy>  (43) 
-8.4900000000000002

>  <m_primary>  (43) 
energy

$$$$
43:0
     RDKit          3D

 43 45  0  0  0  0  0  0  0  0999 V2000
   56.6240   20.3440   44.0340 C   0  0  0  0  0  0  0  0  0  0  0  0
   56.4880   21.7990   44.2300 N   0  0  0  0  0  0  0  0  0  0  0  0
   56.6360   22.4990   42.9370 C   0  0  0  0  0  0  0  0  0  0  0  0
   56.4970   24.0120   43.1300 C   0  0  0  0  0  0  0  0  0  0  0  0
   57.4040   24.4800   44.1800 N   0  0  0  0  0  0  0  0  0  0  0  0
   57.4980   25.8860   44.4560 C   0  0  0  0  0  0  0  0  0  0  0  0
   57.9400   26.7590   43.4530 C   0  0  0  0  0  0  0  0  0  0  0  0
   58.0260   28.1330   43.6960 C   0  0  0  0  0  0  0  0  0  0  0  0
   57.6820   28.6590   44.9540 C   0  0  0  0  0  0  0  0  0  0  0  0
   57.7500   30.1150   45.2300 C   0  0  0  0  0  0  0  0  0  0  0  0
   56.6980   30.8040   45.1190 O   0  0  0  0  0  0  0  0  0  0  0  0
   58.9880   30.7470   45.6070 N   0  0  0  0  0  0  0  0  0  0  0  0
   59.1040   32.1420   45.9440 C   0  0  0  0  0  0  0  0  0  0  0  0
   58.7940   33.1130   44.9770 C   0  0  0  0  0  0  0  0  0  0  0  0
   58.9220   34.4740   45.2720 C   0  0  0  0  0  0  0  0  0  0  0  0
   59.3770   34.8780   46.5310 C   0  0  0  0  0  0  0  0  0  0  0  0
   59.7060   33.9200   47.4970 C   0  0  0  0  0  0  0  0  0  0  0  0
   59.5810   32.5570   47.2030 C   0  0  0  0  0  0  0  0  0  0  0  0
   57.2360   27.7800   45.9580 C   0  0  0  0  0  0  0  0  0  0  0  0
   57.1490   26.4030   45.7180 C   0  0  0  0  0  0  0  0  0  0  0  0
   56.6390   25.3480   47.0320 Cl  0  0  0  0  0  0  0  0  0  0  0  0
   58.2350   23.5230   44.9130 C   0  0  0  0  0  0  0  0  0  0  0  0
   57.4020   22.2890   45.3030 C   0  0  0  0  0  0  0  0  0  0  0  0
   56.6707   19.8449   45.0131 H   0  0  0  0  0  0  0  0  0  0  0  0
   55.7572   19.9672   43.4713 H   0  0  0  0  0  0  0  0  0  0  0  0
   57.5457   20.1344   43.4713 H   0  0  0  0  0  0  0  0  0  0  0  0
   57.6277   22.2769   42.5160 H   0  0  0  0  0  0  0  0  0  0  0  0
   55.8483   22.1529   42.2516 H   0  0  0  0  0  0  0  0  0  0  0  0
   56.7420   24.5214   42.1864 H   0  0  0  0  0  0  0  0  0  0  0  0
   55.4623   24.2395   43.4259 H   0  0  0  0  0  0  0  0  0  0  0  0
   58.2214   26.3603   42.4672 H   0  0  0  0  0  0  0  0  0  0  0  0
   58.3655   28.8082   42.8967 H   0  0  0  0  0  0  0  0  0  0  0  0
   59.8720   30.1910   45.5910 H   0  0  0  0  0  0  0  0  0  0  0  0
   58.4481   32.8004   43.9807 H   0  0  0  0  0  0  0  0  0  0  0  0
   58.6645   35.2274   44.5130 H   0  0  0  0  0  0  0  0  0  0  0  0
   59.4764   35.9488   46.7623 H   0  0  0  0  0  0  0  0  0  0  0  0
   60.0629   34.2382   48.4876 H   0  0  0  0  0  0  0  0  0  0  0  0
   59.8565   31.8065   47.9586 H   0  0  0  0  0  0  0  0  0  0  0  0
   56.9523   28.1790   46.9430 H   0  0  0  0  0  0  0  0  0  0  0  0
   59.0752   23.2084   44.2765 H   0  0  0  0  0  0  0  0  0  0  0  0
   58.6165   24.0030   45.8262 H   0  0  0  0  0  0  0  0  0  0  0  0
   58.0942   21.4749   45.5638 H   0  0  0  0  0  0  0  0  0  0  0  0
   56.7632   22.5943   46.1448 H   0  0  0  0  0  0  0  0  0  0  0  0
  1  2  1  0
  2  3  1  0
  3  4  1  0
  4  5  1  0
  5  6  1  0
  6  7  2  0
  7  8  1  0
  8  9  2  0
  9 10  1  0
 10 11  2  0
 10 12  1  0
 12 13  1  0
 13 14  2  0
 14 15  1  0
 15 16  2  0
 16 17  1  0
 17 18  2  0
  9 19  1  0
 19 20  2  0
 20 21  1  0
  5 22  1  0
 22 23  1  0
 23  2  1  0
 20  6  1  0
 18 13  1  0
  1 24  1  0
  1 25  1  0
  1 26  1  0
  3 27  1  0
  3 28  1  0
  4 29  1  0
  4 30  1  0
  7 31  1  0
  8 32  1  0
 12 33  1  0
 14 34  1  0
 15 35  1  0
 16 36  1  0
 17 37  1  0
 18 38  1  0
 19 39  1  0
 22 40  1  0
 22 41  1  0
 23 42  1  0
 23 43  1  0
M  END
>  <UniqueID>  (44) 
37

>  <SMILES>  (44) 
CN1CCN(c2ccc(C(=O)Nc3ccccc3)cc2Cl)CC1

>  <Energy>  (44) 
62.86349027048914

>  <Genealogy>  (44) 
CN1CCN(c2ccc(C(=O)Nc3ccccc3)cc2Cl)CC1 (3D coordinates assigned)
CN1CCN(c2ccc(C(=O)Nc3ccccc3)cc2Cl)CC1 (nonaromatic ring conformer: 62.86349027048914 kcal/mol)

>  <smiles>  (44) 
CN1CCN(c2ccc(C(=O)Nc3ccccc3)cc2Cl)CC1

>  <score_type>  (44) 
oracle

>  <origin>  (44) 
adg

>  <m_score__min__energy>  (44) 
-7.6799999999999997

>  <m_primary>  (44) 
energy

$$$$
44:0
     RDKit          3D

 48 50  0  0  0  0  0  0  0  0999 V2000
   57.4130   33.4280   43.7790 O   0  0  0  0  0  0  0  0  0  0  0  0
   57.6070   32.6540   44.7580 C   0  0  0  0  0  0  0  0  0  0  0  0
   56.8730   31.4250   44.8620 N   0  0  0  0  0  0  0  0  0  0  0  0
   57.4260   30.1020   44.8970 C   0  0  0  0  0  0  0  0  0  0  0  0
   58.8000   29.9420   44.6710 C   0  0  0  0  0  0  0  0  0  0  0  0
   59.3810   28.6710   44.7160 C   0  0  0  0  0  0  0  0  0  0  0  0
   58.5960   27.5520   45.0050 C   0  0  0  0  0  0  0  0  0  0  0  0
   57.2300   27.7030   45.2580 C   0  0  0  0  0  0  0  0  0  0  0  0
   56.4730   26.6190   45.5600 F   0  0  0  0  0  0  0  0  0  0  0  0
   56.6440   28.9740   45.2120 C   0  0  0  0  0  0  0  0  0  0  0  0
   58.6310   32.9530   45.7310 N   0  0  1  0  0  0  0  0  0  0  0  0
   59.0450   34.3740   45.6110 C   0  0  0  0  0  0  0  0  0  0  0  0
   59.7780   34.9030   46.8660 C   0  0  0  0  0  0  0  0  0  0  0  0
   60.3930   33.7570   47.6890 C   0  0  1  0  0  0  0  0  0  0  0  0
   61.2190   34.2690   48.8860 C   0  0  0  0  0  0  0  0  0  0  0  0
   62.6740   34.2350   48.5900 N   0  0  0  0  0  0  0  0  0  0  0  0
   62.9920   33.7950   47.2100 C   0  0  0  0  0  0  0  0  0  0  0  0
   63.4190   32.3120   47.1240 C   0  0  0  0  0  0  0  0  0  0  0  0
   62.7880   31.5090   48.1750 N   0  0  0  0  0  0  0  0  0  0  0  0
   63.1780   31.9650   49.5210 C   0  0  0  0  0  0  0  0  0  0  0  0
   63.4460   33.4850   49.5980 C   0  0  0  0  0  0  0  0  0  0  0  0
   59.3040   32.7500   48.1250 C   0  0  0  0  0  0  0  0  0  0  0  0
   58.1620   32.6290   47.0930 C   0  0  0  0  0  0  0  0  0  0  0  0
   59.4249   30.8216   44.4570 H   0  0  0  0  0  0  0  0  0  0  0  0
   60.4575   28.5520   44.5236 H   0  0  0  0  0  0  0  0  0  0  0  0
   59.0533   26.5520   45.0334 H   0  0  0  0  0  0  0  0  0  0  0  0
   55.5707   29.0915   45.4223 H   0  0  0  0  0  0  0  0  0  0  0  0
   59.4570   32.3440   45.5160 H   0  0  0  0  0  0  0  0  0  0  0  0
   58.1467   34.9872   45.4463 H   0  0  0  0  0  0  0  0  0  0  0  0
   59.7498   34.4392   44.7690 H   0  0  0  0  0  0  0  0  0  0  0  0
   59.0596   35.4487   47.4954 H   0  0  0  0  0  0  0  0  0  0  0  0
   60.5925   35.5642   46.5352 H   0  0  0  0  0  0  0  0  0  0  0  0
   61.1017   33.2266   47.0360 H   0  0  0  0  0  0  0  0  0  0  0  0
   60.9227   35.3045   49.1094 H   0  0  0  0  0  0  0  0  0  0  0  0
   61.0242   33.6145   49.7483 H   0  0  0  0  0  0  0  0  0  0  0  0
   62.0992   33.9381   46.5835 H   0  0  0  0  0  0  0  0  0  0  0  0
   63.8431   34.3996   46.8633 H   0  0  0  0  0  0  0  0  0  0  0  0
   63.1241   31.9116   46.1428 H   0  0  0  0  0  0  0  0  0  0  0  0
   64.5096   32.2589   47.2573 H   0  0  0  0  0  0  0  0  0  0  0  0
   61.7490   31.5750   48.0740 H   0  0  0  0  0  0  0  0  0  0  0  0
   62.3672   31.7175   50.2220 H   0  0  0  0  0  0  0  0  0  0  0  0
   64.1182   31.4551   49.7779 H   0  0  0  0  0  0  0  0  0  0  0  0
   63.1660   33.8445   50.5992 H   0  0  0  0  0  0  0  0  0  0  0  0
   64.5150   33.6515   49.3994 H   0  0  0  0  0  0  0  0  0  0  0  0
   58.8793   33.0830   49.0835 H   0  0  0  0  0  0  0  0  0  0  0  0
   59.7794   31.7620   48.2142 H   0  0  0  0  0  0  0  0  0  0  0  0
   57.3552   33.3241   47.3686 H   0  0  0  0  0  0  0  0  0  0  0  0
   57.8001   31.5902   47.0969 H   0  0  0  0  0  0  0  0  0  0  0  0
  1  2  2  0
  2  3  1  0
  3  4  1  0
  4  5  2  0
  5  6  1  0
  6  7  2  0
  7  8  1  0
  8  9  1  0
  8 10  2  0
  2 11  1  0
 11 12  1  0
 12 13  1  0
 13 14  1  0
 14 15  1  0
 15 16  1  0
 16 17  1  0
 17 18  1  0
 18 19  1  0
 19 20  1  0
 20 21  1  0
 14 22  1  0
 22 23  1  0
 10  4  1  0
 23 11  1  0
 21 16  1  0
  5 24  1  0
  6 25  1  0
  7 26  1  0
 10 27  1  0
 11 28  1  6
 12 29  1  0
 12 30  1  0
 13 31  1  0
 13 32  1  0
 14 33  1  6
 15 34  1  0
 15 35  1  0
 17 36  1  0
 17 37  1  0
 18 38  1  0
 18 39  1  0
 19 40  1  0
 20 41  1  0
 20 42  1  0
 21 43  1  0
 21 44  1  0
 22 45  1  0
 22 46  1  0
 23 47  1  0
 23 48  1  0
M  CHG  2   3  -1  11   1
M  END
>  <UniqueID>  (45) 
38

>  <SMILES>  (45) 
O=C([N-]c1cccc(F)c1)[NH+]1CCC(CN2CCNCC2)CC1

>  <Energy>  (45) 
69.93421332064375

>  <Genealogy>  (45) 
O=C([N-]c1cccc(F)c1)[NH+]1CCC(CN2CCNCC2)CC1 (protonated)
O=C([N-]c1cccc(F)c1)[NH+]1CCC(CN2CCNCC2)CC1 (3D coordinates assigned)
O=C([N-]c1cccc(F)c1)[NH+]1CCC(CN2CCNCC2)CC1 (nonaromatic ring conformer: 69.93421332064375 kcal/mol)

>  <smiles>  (45) 
O=C(Nc1cccc(F)c1)N1CCC(CN2CCNCC2)CC1

>  <score_type>  (45) 
oracle

>  <origin>  (45) 
adg

>  <m_score__min__energy>  (45) 
-7.1900000000000004

>  <m_primary>  (45) 
energy

$$$$
45:0
     RDKit          3D

 40 42  0  0  0  0  0  0  0  0999 V2000
   59.8210   27.9380   48.1720 S   0  0  0  0  0  0  0  0  0  0  0  0
   59.1890   28.9160   47.0080 C   0  0  0  0  0  0  0  0  0  0  0  0
   59.1870   30.3500   47.1580 N   0  0  0  0  0  0  0  0  0  0  0  0
   59.5250   31.0720   48.3850 C   0  0  0  0  0  0  0  0  0  0  0  0
   58.6600   32.3290   48.5350 C   0  0  0  0  0  0  0  0  0  0  0  0
   58.6120   33.1350   47.2620 C   0  0  0  0  0  0  0  0  0  0  0  0
   57.3810   33.4660   46.6650 C   0  0  0  0  0  0  0  0  0  0  0  0
   57.3510   34.2120   45.4780 C   0  0  0  0  0  0  0  0  0  0  0  0
   58.5470   34.6230   44.8770 C   0  0  0  0  0  0  0  0  0  0  0  0
   59.7750   34.2810   45.4570 C   0  0  0  0  0  0  0  0  0  0  0  0
   59.8080   33.5400   46.6440 C   0  0  0  0  0  0  0  0  0  0  0  0
   58.4950   28.3260   45.8850 N   0  0  0  0  0  0  0  0  0  0  0  0
   58.8050   26.9280   45.5370 C   0  0  0  0  0  0  0  0  0  0  0  0
   57.8200   26.3820   44.4910 C   0  0  0  0  0  0  0  0  0  0  0  0
   57.7610   27.2660   43.3180 N   0  0  0  0  0  0  0  0  0  0  0  0
   57.3690   28.6040   43.6970 C   0  0  0  0  0  0  0  0  0  0  0  0
   56.6970   29.4320   42.7820 C   0  0  0  0  0  0  0  0  0  0  0  0
   56.3710   30.7390   43.1360 C   0  0  0  0  0  0  0  0  0  0  0  0
   56.7160   31.2150   44.4040 C   0  0  0  0  0  0  0  0  0  0  0  0
   57.3950   30.4170   45.2700 N   0  0  0  0  0  0  0  0  0  0  0  0
   57.7490   29.1400   44.9490 C   0  0  0  0  0  0  0  0  0  0  0  0
   58.8580   30.9240   46.3520 H   0  0  0  0  0  0  0  0  0  0  0  0
   59.3557   30.4128   49.2492 H   0  0  0  0  0  0  0  0  0  0  0  0
   60.5811   31.3756   48.3350 H   0  0  0  0  0  0  0  0  0  0  0  0
   57.6369   32.0265   48.8029 H   0  0  0  0  0  0  0  0  0  0  0  0
   59.1065   32.9578   49.3194 H   0  0  0  0  0  0  0  0  0  0  0  0
   56.4399   33.1386   47.1309 H   0  0  0  0  0  0  0  0  0  0  0  0
   56.3867   34.4746   45.0185 H   0  0  0  0  0  0  0  0  0  0  0  0
   58.5221   35.2142   43.9497 H   0  0  0  0  0  0  0  0  0  0  0  0
   60.7147   34.5951   44.9792 H   0  0  0  0  0  0  0  0  0  0  0  0
   60.7748   33.2732   47.0957 H   0  0  0  0  0  0  0  0  0  0  0  0
   59.8253   26.8780   45.1290 H   0  0  0  0  0  0  0  0  0  0  0  0
   58.7198   26.3162   46.4472 H   0  0  0  0  0  0  0  0  0  0  0  0
   58.1496   25.3820   44.1727 H   0  0  0  0  0  0  0  0  0  0  0  0
   56.8187   26.3292   44.9434 H   0  0  0  0  0  0  0  0  0  0  0  0
   57.0660   26.8680   42.6410 H   0  0  0  0  0  0  0  0  0  0  0  0
   58.7020   27.3060   42.8560 H   0  0  0  0  0  0  0  0  0  0  0  0
   56.4286   29.0482   41.7867 H   0  0  0  0  0  0  0  0  0  0  0  0
   55.8460   31.3917   42.4230 H   0  0  0  0  0  0  0  0  0  0  0  0
   56.4377   32.2368   44.7016 H   0  0  0  0  0  0  0  0  0  0  0  0
  1  2  2  0
  2  3  1  0
  3  4  1  0
  4  5  1  0
  5  6  1  0
  6  7  2  0
  7  8  1  0
  8  9  2  0
  9 10  1  0
 10 11  2  0
  2 12  1  0
 12 13  1  0
 13 14  1  0
 14 15  1  0
 15 16  1  0
 16 17  2  0
 17 18  1  0
 18 19  2  0
 19 20  1  0
 20 21  2  0
 11  6  1  0
 21 12  1  0
 21 16  1  0
  3 22  1  0
  4 23  1  0
  4 24  1  0
  5 25  1  0
  5 26  1  0
  7 27  1  0
  8 28  1  0
  9 29  1  0
 10 30  1  0
 11 31  1  0
 13 32  1  0
 13 33  1  0
 14 34  1  0
 14 35  1  0
 15 36  1  0
 15 37  1  0
 17 38  1  0
 18 39  1  0
 19 40  1  0
M  CHG  1  15   1
M  END
>  <UniqueID>  (46) 
39

>  <SMILES>  (46) 
S=C(NCCc1ccccc1)N1CC[NH2+]c2cccnc21

>  <Energy>  (46) 
47.865291173185454

>  <Genealogy>  (46) 
S=C(NCCc1ccccc1)N1CC[NH2+]c2cccnc21 (protonated)
S=C(NCCc1ccccc1)N1CC[NH2+]c2cccnc21 (3D coordinates assigned)
S=C(NCCc1ccccc1)N1CC[NH2+]c2cccnc21 (nonaromatic ring conformer: 47.865291173185454 kcal/mol)

>  <smiles>  (46) 
S=C(NCCc1ccccc1)N1CCNc2cccnc21

>  <score_type>  (46) 
oracle

>  <origin>  (46) 
adg

>  <m_score__min__energy>  (46) 
-5.9500000000000002

>  <m_primary>  (46) 
energy

$$$$
46:0
     RDKit          3D

 46 48  0  0  0  0  0  0  0  0999 V2000
   58.9230   31.8100   49.2740 C   0  0  0  0  0  0  0  0  0  0  0  0
   58.9700   30.7380   47.8060 S   0  0  0  0  0  0  0  0  0  0  0  0
   58.5730   32.0650   46.6540 C   0  0  0  0  0  0  0  0  0  0  0  0
   59.0050   33.3590   46.9730 C   0  0  0  0  0  0  0  0  0  0  0  0
   58.7340   34.4290   46.1180 C   0  0  0  0  0  0  0  0  0  0  0  0
   58.0160   34.2180   44.9420 C   0  0  0  0  0  0  0  0  0  0  0  0
   57.5700   32.9370   44.6160 C   0  0  0  0  0  0  0  0  0  0  0  0
   57.8530   31.8400   45.4540 C   0  0  0  0  0  0  0  0  0  0  0  0
   57.3840   30.4880   45.0560 C   0  0  0  0  0  0  0  0  0  0  0  0
   56.1550   30.2840   44.8740 O   0  0  0  0  0  0  0  0  0  0  0  0
   58.3010   29.4150   44.7900 N   0  0  0  0  0  0  0  0  0  0  0  0
   58.1580   28.0550   45.2270 C   0  0  0  0  0  0  0  0  0  0  0  0
   56.8940   27.5970   45.6180 C   0  0  0  0  0  0  0  0  0  0  0  0
   56.7080   26.2570   45.9700 C   0  0  0  0  0  0  0  0  0  0  0  0
   57.7890   25.3640   45.9420 C   0  0  0  0  0  0  0  0  0  0  0  0
   57.5470   23.6600   46.3170 S   0  0  0  0  0  0  0  0  0  0  0  0
   58.7800   22.9010   45.9110 O   0  0  0  0  0  0  0  0  0  0  0  0
   57.3940   23.5110   47.8050 O   0  0  0  0  0  0  0  0  0  0  0  0
   56.1520   22.9540   45.5200 N   0  0  0  0  0  0  0  0  0  0  0  0
   56.2960   21.4990   45.2890 C   0  0  0  0  0  0  0  0  0  0  0  0
   56.9360   21.1610   43.9330 C   0  0  0  0  0  0  0  0  0  0  0  0
   56.2630   21.8180   42.8830 O   0  0  0  0  0  0  0  0  0  0  0  0
   56.4310   23.2090   43.0330 C   0  0  0  0  0  0  0  0  0  0  0  0
   55.7400   23.7050   44.3110 C   0  0  0  0  0  0  0  0  0  0  0  0
   59.0690   25.8410   45.6320 C   0  0  0  0  0  0  0  0  0  0  0  0
   59.2530   27.1780   45.2730 C   0  0  0  0  0  0  0  0  0  0  0  0
   58.9502   31.1897   50.1820 H   0  0  0  0  0  0  0  0  0  0  0  0
   59.7925   32.4837   49.2640 H   0  0  0  0  0  0  0  0  0  0  0  0
   57.9979   32.4051   49.2640 H   0  0  0  0  0  0  0  0  0  0  0  0
   59.5625   33.5335   47.9051 H   0  0  0  0  0  0  0  0  0  0  0  0
   59.0873   35.4391   46.3726 H   0  0  0  0  0  0  0  0  0  0  0  0
   57.8009   35.0623   44.2705 H   0  0  0  0  0  0  0  0  0  0  0  0
   56.9906   32.7814   43.6940 H   0  0  0  0  0  0  0  0  0  0  0  0
   56.0439   28.2944   45.6483 H   0  0  0  0  0  0  0  0  0  0  0  0
   55.7110   25.9020   46.2698 H   0  0  0  0  0  0  0  0  0  0  0  0
   55.3760   23.0690   46.2150 H   0  0  0  0  0  0  0  0  0  0  0  0
   56.9258   21.0791   46.0871 H   0  0  0  0  0  0  0  0  0  0  0  0
   55.2846   21.0665   45.2897 H   0  0  0  0  0  0  0  0  0  0  0  0
   57.9887   21.4800   43.9418 H   0  0  0  0  0  0  0  0  0  0  0  0
   56.8657   20.0752   43.7714 H   0  0  0  0  0  0  0  0  0  0  0  0
   57.5052   23.4387   43.0911 H   0  0  0  0  0  0  0  0  0  0  0  0
   55.9784   23.7150   42.1674 H   0  0  0  0  0  0  0  0  0  0  0  0
   55.9900   24.7664   44.4554 H   0  0  0  0  0  0  0  0  0  0  0  0
   54.6584   23.5522   44.1811 H   0  0  0  0  0  0  0  0  0  0  0  0
   59.9321   25.1602   45.6715 H   0  0  0  0  0  0  0  0  0  0  0  0
   60.2599   27.5452   45.0253 H   0  0  0  0  0  0  0  0  0  0  0  0
  1  2  1  0
  2  3  1  0
  3  4  2  0
  4  5  1  0
  5  6  2  0
  6  7  1  0
  7  8  2  0
  8  9  1  0
  9 10  2  0
  9 11  1  0
 11 12  1  0
 12 13  2  0
 13 14  1  0
 14 15  2  0
 15 16  1  0
 16 17  2  0
 16 18  2  0
 16 19  1  0
 19 20  1  0
 20 21  1  0
 21 22  1  0
 22 23  1  0
 23 24  1  0
 15 25  1  0
 25 26  2  0
  8  3  1  0
 26 12  1  0
 24 19  1  0
  1 27  1  0
  1 28  1  0
  1 29  1  0
  4 30  1  0
  5 31  1  0
  6 32  1  0
  7 33  1  0
 13 34  1  0
 14 35  1  0
 19 36  1  0
 20 37  1  0
 20 38  1  0
 21 39  1  0
 21 40  1  0
 23 41  1  0
 23 42  1  0
 24 43  1  0
 24 44  1  0
 25 45  1  0
 26 46  1  0
M  CHG  2  11  -1  19   1
M  END
>  <UniqueID>  (47) 
40

>  <SMILES>  (47) 
CSc1ccccc1C(=O)[N-]c1ccc(S(=O)(=O)[NH+]2CCOCC2)cc1

>  <Energy>  (47) 
56.73377852849916

>  <Genealogy>  (47) 
CSc1ccccc1C(=O)[N-]c1ccc(S(=O)(=O)[NH+]2CCOCC2)cc1 (protonated)
CSc1ccccc1C(=O)[N-]c1ccc(S(=O)(=O)[NH+]2CCOCC2)cc1 (3D coordinates assigned)
CSc1ccccc1C(=O)[N-]c1ccc(S(=O)(=O)[NH+]2CCOCC2)cc1 (nonaromatic ring conformer: 56.73377852849916 kcal/mol)

>  <smiles>  (47) 
CSc1ccccc1C(=O)Nc1ccc(S(=O)(=O)N2CCOCC2)cc1

>  <score_type>  (47) 
oracle

>  <origin>  (47) 
adg

>  <m_score__min__energy>  (47) 
-8.7799999999999994

>  <m_primary>  (47) 
energy

$$$$
47:0
     RDKit          3D

 35 36  0  0  0  0  0  0  0  0999 V2000
   62.4400   33.4450   47.2910 C   0  0  0  0  0  0  0  0  0  0  0  0
   61.2140   33.4880   46.3800 C   0  0  0  0  0  0  0  0  0  0  0  0
   59.9650   33.9880   47.1180 C   0  0  0  0  0  0  0  0  0  0  0  0
   58.8220   33.0640   46.9440 N   0  0  0  0  0  0  0  0  0  0  0  0
   57.6400   33.7430   46.3570 C   0  0  0  0  0  0  0  0  0  0  0  0
   57.8370   34.2300   44.9020 C   0  0  0  0  0  0  0  0  0  0  0  0
   58.3360   33.1550   43.9210 C   0  0  0  0  0  0  0  0  0  0  0  0
   57.7850   31.7880   44.2450 C   0  0  0  0  0  0  0  0  0  0  0  0
   56.8210   31.1970   43.4160 C   0  0  0  0  0  0  0  0  0  0  0  0
   56.2680   29.9580   43.7470 C   0  0  0  0  0  0  0  0  0  0  0  0
   56.6640   29.3000   44.9170 C   0  0  0  0  0  0  0  0  0  0  0  0
   56.0930   28.0330   45.2560 N   0  0  0  0  0  0  0  0  0  0  0  0
   57.6190   29.8890   45.7570 C   0  0  0  0  0  0  0  0  0  0  0  0
   58.1850   31.1330   45.4310 C   0  0  0  0  0  0  0  0  0  0  0  0
   59.2250   31.7620   46.3390 C   0  0  0  0  0  0  0  0  0  0  0  0
   62.1163   33.4564   48.3422 H   0  0  0  0  0  0  0  0  0  0  0  0
   63.0117   32.5263   47.0933 H   0  0  0  0  0  0  0  0  0  0  0  0
   63.0746   34.3214   47.0933 H   0  0  0  0  0  0  0  0  0  0  0  0
   61.4220   34.1630   45.5367 H   0  0  0  0  0  0  0  0  0  0  0  0
   61.0146   32.4640   46.0311 H   0  0  0  0  0  0  0  0  0  0  0  0
   60.1945   34.0737   48.1904 H   0  0  0  0  0  0  0  0  0  0  0  0
   59.6847   34.9646   46.6966 H   0  0  0  0  0  0  0  0  0  0  0  0
   56.7960   33.0377   46.3720 H   0  0  0  0  0  0  0  0  0  0  0  0
   57.4607   34.6413   46.9660 H   0  0  0  0  0  0  0  0  0  0  0  0
   56.8712   34.6065   44.5340 H   0  0  0  0  0  0  0  0  0  0  0  0
   58.6200   35.0018   44.9384 H   0  0  0  0  0  0  0  0  0  0  0  0
   58.0227   33.4312   42.9034 H   0  0  0  0  0  0  0  0  0  0  0  0
   59.4318   33.1056   44.0029 H   0  0  0  0  0  0  0  0  0  0  0  0
   56.4983   31.7123   42.4993 H   0  0  0  0  0  0  0  0  0  0  0  0
   55.5188   29.4978   43.0860 H   0  0  0  0  0  0  0  0  0  0  0  0
   55.1630   27.9730   45.7270 H   0  0  0  0  0  0  0  0  0  0  0  0
   56.5960   27.1440   45.0390 H   0  0  0  0  0  0  0  0  0  0  0  0
   57.9277   29.3735   46.6784 H   0  0  0  0  0  0  0  0  0  0  0  0
   59.4377   31.0565   47.1557 H   0  0  0  0  0  0  0  0  0  0  0  0
   60.1008   31.9720   45.7075 H   0  0  0  0  0  0  0  0  0  0  0  0
  1  2  1  0
  2  3  1  0
  3  4  1  0
  4  5  1  0
  5  6  1  0
  6  7  1  0
  7  8  1  0
  8  9  2  0
  9 10  1  0
 10 11  2  0
 11 12  1  0
 11 13  1  0
 13 14  2  0
 14 15  1  0
 15  4  1  0
 14  8  1  0
  1 16  1  0
  1 17  1  0
  1 18  1  0
  2 19  1  0
  2 20  1  0
  3 21  1  0
  3 22  1  0
  5 23  1  0
  5 24  1  0
  6 25  1  0
  6 26  1  0
  7 27  1  0
  7 28  1  0
  9 29  1  0
 10 30  1  0
 12 31  1  0
 12 32  1  0
 13 33  1  0
 15 34  1  0
 15 35  1  0
M  END
>  <UniqueID>  (48) 
41

>  <SMILES>  (48) 
CCCN1CCCc2ccc(N)cc2C1

>  <Energy>  (48) 
44.16355207481579

>  <Genealogy>  (48) 
CCCN1CCCc2ccc(N)cc2C1 (3D coordinates assigned)
CCCN1CCCc2ccc(N)cc2C1 (nonaromatic ring conformer: 44.16355207481579 kcal/mol)

>  <smiles>  (48) 
CCCN1CCCc2ccc(N)cc2C1

>  <score_type>  (48) 
oracle

>  <origin>  (48) 
adg

>  <m_score__min__energy>  (48) 
-4.75

>  <m_primary>  (48) 
energy

$$$$
