0:0
     RDKit          3D

 39 41  0  0  0  0  0  0  0  0999 V2000
   55.8050   29.9280   43.7190 C   0  0  0  0  0  0  0  0  0  0  0  0
   55.5410   29.1780   44.8850 O   0  0  0  0  0  0  0  0  0  0  0  0
   56.6470   28.3540   45.1970 C   0  0  0  0  0  0  0  0  0  0  0  0
   57.6570   29.1180   46.0050 C   0  0  0  0  0  0  0  0  0  0  0  0
   58.3880   28.4930   47.0210 C   0  0  0  0  0  0  0  0  0  0  0  0
   59.3000   29.2560   47.7670 C   0  0  0  0  0  0  0  0  0  0  0  0
   60.0860   28.6720   48.8290 N   0  0  0  0  0  0  0  0  0  0  0  0
   60.6970   29.5490   49.8370 C   0  0  0  0  0  0  0  0  0  0  0  0
   60.8990   28.7890   51.1510 C   0  0  0  0  0  0  0  0  0  0  0  0
   61.5850   27.5730   50.9260 O   0  0  0  0  0  0  0  0  0  0  0  0
   60.7760   26.7110   50.1520 C   0  0  0  0  0  0  0  0  0  0  0  0
   60.5550   27.2810   48.7480 C   0  0  0  0  0  0  0  0  0  0  0  0
   59.4460   30.5770   47.4720 N   0  0  0  0  0  0  0  0  0  0  0  0
   58.7280   31.1790   46.4870 C   0  0  0  0  0  0  0  0  0  0  0  0
   58.9120   32.6230   46.2000 C   0  0  0  0  0  0  0  0  0  0  0  0
   58.2080   33.2420   45.1520 C   0  0  0  0  0  0  0  0  0  0  0  0
   58.3960   34.6030   44.8990 C   0  0  0  0  0  0  0  0  0  0  0  0
   59.2580   35.3260   45.6610 N   0  0  0  0  0  0  0  0  0  0  0  0
   59.9530   34.7590   46.6810 C   0  0  0  0  0  0  0  0  0  0  0  0
   59.7950   33.4010   46.9690 C   0  0  0  0  0  0  0  0  0  0  0  0
   57.8380   30.4440   45.7670 N   0  0  0  0  0  0  0  0  0  0  0  0
   56.1581   30.9311   44.0004 H   0  0  0  0  0  0  0  0  0  0  0  0
   56.5785   29.4205   43.1239 H   0  0  0  0  0  0  0  0  0  0  0  0
   54.8842   30.0170   43.1239 H   0  0  0  0  0  0  0  0  0  0  0  0
   56.3003   27.4860   45.7770 H   0  0  0  0  0  0  0  0  0  0  0  0
   57.1180   28.0190   44.2611 H   0  0  0  0  0  0  0  0  0  0  0  0
   58.2505   27.4221   47.2316 H   0  0  0  0  0  0  0  0  0  0  0  0
   61.6715   29.9016   49.4683 H   0  0  0  0  0  0  0  0  0  0  0  0
   60.0302   30.4049   50.0178 H   0  0  0  0  0  0  0  0  0  0  0  0
   61.4861   29.4121   51.8417 H   0  0  0  0  0  0  0  0  0  0  0  0
   59.9131   28.5635   51.5837 H   0  0  0  0  0  0  0  0  0  0  0  0
   61.2701   25.7317   50.0692 H   0  0  0  0  0  0  0  0  0  0  0  0
   59.7990   26.6085   50.6469 H   0  0  0  0  0  0  0  0  0  0  0  0
   61.5028   27.2497   48.1905 H   0  0  0  0  0  0  0  0  0  0  0  0
   59.7939   26.6767   48.2326 H   0  0  0  0  0  0  0  0  0  0  0  0
   57.5117   32.6567   44.5335 H   0  0  0  0  0  0  0  0  0  0  0  0
   57.8450   35.0904   44.0812 H   0  0  0  0  0  0  0  0  0  0  0  0
   60.6421   35.3706   47.2819 H   0  0  0  0  0  0  0  0  0  0  0  0
   60.3594   32.9423   47.7943 H   0  0  0  0  0  0  0  0  0  0  0  0
  1  2  1  0
  2  3  1  0
  3  4  1  0
  4  5  2  0
  5  6  1  0
  6  7  1  0
  7  8  1  0
  8  9  1  0
  9 10  1  0
 10 11  1  0
 11 12  1  0
  6 13  2  0
 13 14  1  0
 14 15  1  0
 15 16  2  0
 16 17  1  0
 17 18  2  0
 18 19  1  0
 19 20  2  0
 14 21  2  0
 21  4  1  0
 12  7  1  0
 20 15  1  0
  1 22  1  0
  1 23  1  0
  1 24  1  0
  3 25  1  0
  3 26  1  0
  5 27  1  0
  8 28  1  0
  8 29  1  0
  9 30  1  0
  9 31  1  0
 11 32  1  0
 11 33  1  0
 12 34  1  0
 12 35  1  0
 16 36  1  0
 17 37  1  0
 19 38  1  0
 20 39  1  0
M  END
>  <UniqueID>  (1) 
1

>  <SMILES>  (1) 
COCc1cc(N2CCOCC2)nc(-c2ccncc2)n1

>  <Energy>  (1) 
48.022153133905086

>  <Genealogy>  (1) 
COCc1cc(N2CCOCC2)nc(-c2ccncc2)n1 (3D coordinates assigned)
COCc1cc(N2CCOCC2)nc(-c2ccncc2)n1 (nonaromatic ring conformer: 48.022153133905086 kcal/mol)

>  <smiles>  (1) 
COCc1cc(N2CCOCC2)nc(-c2ccncc2)n1

>  <score_type>  (1) 
oracle

>  <origin>  (1) 
adg

>  <m_score__min__energy>  (1) 
-5.8899999999999997

>  <m_primary>  (1) 
energy

$$$$
1:0
     RDKit          3D

 37 39  0  0  0  0  0  0  0  0999 V2000
   56.6110   27.0960   45.7440 C   0  0  0  0  0  0  0  0  0  0  0  0
   55.8800   28.2100   45.2440 O   0  0  0  0  0  0  0  0  0  0  0  0
   56.4650   29.3380   44.6480 C   0  0  0  0  0  0  0  0  0  0  0  0
   56.1680   29.7370   43.3310 C   0  0  0  0  0  0  0  0  0  0  0  0
   56.7800   30.8660   42.7830 C   0  0  0  0  0  0  0  0  0  0  0  0
   57.6870   31.6110   43.5390 C   0  0  0  0  0  0  0  0  0  0  0  0
   57.9840   31.2340   44.8580 C   0  0  0  0  0  0  0  0  0  0  0  0
   58.9480   32.0230   45.6600 C   0  0  0  0  0  0  0  0  0  0  0  0
   58.8650   33.4240   45.6250 C   0  0  0  0  0  0  0  0  0  0  0  0
   59.8150   34.2100   46.2860 C   0  0  0  0  0  0  0  0  0  0  0  0
   59.7100   35.7060   46.2690 C   0  0  0  0  0  0  0  0  0  0  0  0
   60.8300   33.5760   47.0070 C   0  0  0  0  0  0  0  0  0  0  0  0
   60.8900   32.2210   47.0530 N   0  0  0  0  0  0  0  0  0  0  0  0
   59.9890   31.4230   46.4150 C   0  0  0  0  0  0  0  0  0  0  0  0
   60.1090   29.9550   46.5890 C   0  0  0  0  0  0  0  0  0  0  0  0
   59.9200   29.3680   47.8510 C   0  0  0  0  0  0  0  0  0  0  0  0
   60.0190   27.9820   47.9870 C   0  0  0  0  0  0  0  0  0  0  0  0
   60.2940   27.1910   46.8710 C   0  0  0  0  0  0  0  0  0  0  0  0
   60.4630   27.8030   45.6270 C   0  0  0  0  0  0  0  0  0  0  0  0
   60.3620   29.1540   45.5150 N   0  0  0  0  0  0  0  0  0  0  0  0
   57.3790   30.0870   45.4000 C   0  0  0  0  0  0  0  0  0  0  0  0
   56.5994   27.1136   46.8438 H   0  0  0  0  0  0  0  0  0  0  0  0
   56.1484   26.1639   45.3873 H   0  0  0  0  0  0  0  0  0  0  0  0
   57.6502   27.1494   45.3873 H   0  0  0  0  0  0  0  0  0  0  0  0
   55.4510   29.1571   42.7314 H   0  0  0  0  0  0  0  0  0  0  0  0
   56.5467   31.1696   41.7518 H   0  0  0  0  0  0  0  0  0  0  0  0
   58.1703   32.4961   43.0996 H   0  0  0  0  0  0  0  0  0  0  0  0
   58.0458   33.9080   45.0730 H   0  0  0  0  0  0  0  0  0  0  0  0
   59.6835   36.0835   47.3019 H   0  0  0  0  0  0  0  0  0  0  0  0
   60.5807   36.1288   45.7463 H   0  0  0  0  0  0  0  0  0  0  0  0
   58.7888   36.0030   45.7463 H   0  0  0  0  0  0  0  0  0  0  0  0
   61.5825   34.1767   47.5388 H   0  0  0  0  0  0  0  0  0  0  0  0
   59.6956   29.9958   48.7259 H   0  0  0  0  0  0  0  0  0  0  0  0
   59.8804   27.5142   48.9729 H   0  0  0  0  0  0  0  0  0  0  0  0
   60.3767   26.0986   46.9697 H   0  0  0  0  0  0  0  0  0  0  0  0
   60.6778   27.1919   44.7380 H   0  0  0  0  0  0  0  0  0  0  0  0
   57.6258   29.7743   46.4253 H   0  0  0  0  0  0  0  0  0  0  0  0
  1  2  1  0
  2  3  1  0
  3  4  2  0
  4  5  1  0
  5  6  2  0
  6  7  1  0
  7  8  1  0
  8  9  2  0
  9 10  1  0
 10 11  1  0
 10 12  2  0
 12 13  1  0
 13 14  2  0
 14 15  1  0
 15 16  2  0
 16 17  1  0
 17 18  2  0
 18 19  1  0
 19 20  2  0
  7 21  2  0
 21  3  1  0
 14  8  1  0
 20 15  1  0
  1 22  1  0
  1 23  1  0
  1 24  1  0
  4 25  1  0
  5 26  1  0
  6 27  1  0
  9 28  1  0
 11 29  1  0
 11 30  1  0
 11 31  1  0
 12 32  1  0
 16 33  1  0
 17 34  1  0
 18 35  1  0
 19 36  1  0
 21 37  1  0
M  END
>  <UniqueID>  (2) 
2

>  <SMILES>  (2) 
COc1cccc(-c2cc(C)cnc2-c2ccccn2)c1

>  <Energy>  (2) 
50.30856893891981

>  <Genealogy>  (2) 
COc1cccc(-c2cc(C)cnc2-c2ccccn2)c1 (3D coordinates assigned)
COc1cccc(-c2cc(C)cnc2-c2ccccn2)c1 (optimized conformer: 50.30856893891981 kcal/mol)

>  <smiles>  (2) 
COc1cccc(-c2cc(C)cnc2-c2ccccn2)c1

>  <score_type>  (2) 
oracle

>  <origin>  (2) 
adg

>  <m_score__min__energy>  (2) 
-7.3099999999999996

>  <m_primary>  (2) 
energy

$$$$
2:0
     RDKit          3D

 66 71  0  0  0  0  0  0  0  0999 V2000
   55.2760   29.4720   54.4130 C   0  0  0  0  0  0  0  0  0  0  0  0
   55.9760   30.6710   54.0910 O   0  0  0  0  0  0  0  0  0  0  0  0
   56.9600   30.7720   53.0970 C   0  0  0  0  0  0  0  0  0  0  0  0
   58.1560   30.0270   53.1410 C   0  0  0  0  0  0  0  0  0  0  0  0
   59.1070   30.1640   52.1260 C   0  0  0  0  0  0  0  0  0  0  0  0
   58.8730   31.0340   51.0500 C   0  0  0  0  0  0  0  0  0  0  0  0
   59.8720   31.2020   50.0260 N   0  0  0  0  0  0  0  0  0  0  0  0
   60.0870   30.2310   49.0730 C   0  0  0  0  0  0  0  0  0  0  0  0
   59.2380   28.9760   48.9840 C   0  0  0  0  0  0  0  0  0  0  0  0
   58.7480   28.7930   47.6180 N   0  0  0  0  0  0  0  0  0  0  0  0
   58.5390   29.8060   46.7880 N   0  0  0  0  0  0  0  0  0  0  0  0
   58.0860   29.3110   45.6150 C   0  0  0  0  0  0  0  0  0  0  0  0
   57.8070   30.1620   44.4350 C   0  0  0  0  0  0  0  0  0  0  0  0
   58.3920   31.4390   44.3520 C   0  0  0  0  0  0  0  0  0  0  0  0
   58.1430   32.2640   43.2500 C   0  0  0  0  0  0  0  0  0  0  0  0
   57.3020   31.8280   42.2260 C   0  0  0  0  0  0  0  0  0  0  0  0
   56.7000   30.5690   42.3050 C   0  0  0  0  0  0  0  0  0  0  0  0
   56.9450   29.7410   43.4060 C   0  0  0  0  0  0  0  0  0  0  0  0
   58.0210   27.9260   45.7140 C   0  0  0  0  0  0  0  0  0  0  0  0
   58.4530   27.6390   46.9800 C   0  0  0  0  0  0  0  0  0  0  0  0
   58.5720   26.2370   47.4820 C   0  0  0  0  0  0  0  0  0  0  0  0
   58.9410   25.3170   46.3100 C   0  0  0  0  0  0  0  0  0  0  0  0
   58.0460   25.5190   45.1470 N   0  0  0  0  0  0  0  0  0  0  0  0
   57.7250   24.3890   44.3020 C   0  0  0  0  0  0  0  0  0  0  0  0
   58.1590   22.9970   44.6570 C   0  0  0  0  0  0  0  0  0  0  0  0
   57.0660   24.5600   43.2400 O   0  0  0  0  0  0  0  0  0  0  0  0
   57.6630   26.8780   44.7010 C   0  0  0  0  0  0  0  0  0  0  0  0
   61.0590   30.4080   48.1330 N   0  0  0  0  0  0  0  0  0  0  0  0
   61.8300   31.5260   48.1050 C   0  0  0  0  0  0  0  0  0  0  0  0
   62.8200   31.6780   47.1210 C   0  0  0  0  0  0  0  0  0  0  0  0
   63.6120   32.8250   47.0910 C   0  0  0  0  0  0  0  0  0  0  0  0
   63.4230   33.8320   48.0380 C   0  0  0  0  0  0  0  0  0  0  0  0
   62.4410   33.6990   49.0240 C   0  0  0  0  0  0  0  0  0  0  0  0
   62.2900   34.7030   49.9260 F   0  0  0  0  0  0  0  0  0  0  0  0
   61.6320   32.5400   49.0650 C   0  0  0  0  0  0  0  0  0  0  0  0
   60.6290   32.3460   50.0330 C   0  0  0  0  0  0  0  0  0  0  0  0
   60.4310   33.2260   50.9190 O   0  0  0  0  0  0  0  0  0  0  0  0
   57.6920   31.7880   51.0160 C   0  0  0  0  0  0  0  0  0  0  0  0
   56.7400   31.6500   52.0300 C   0  0  0  0  0  0  0  0  0  0  0  0
   55.2140   29.3659   55.5061 H   0  0  0  0  0  0  0  0  0  0  0  0
   54.2612   29.5152   53.9907 H   0  0  0  0  0  0  0  0  0  0  0  0
   55.8125   28.6095   53.9907 H   0  0  0  0  0  0  0  0  0  0  0  0
   58.3413   29.3359   53.9765 H   0  0  0  0  0  0  0  0  0  0  0  0
   60.0428   29.5875   52.1707 H   0  0  0  0  0  0  0  0  0  0  0  0
   59.8455   28.1053   49.2717 H   0  0  0  0  0  0  0  0  0  0  0  0
   58.3784   29.0754   49.6632 H   0  0  0  0  0  0  0  0  0  0  0  0
   59.0502   31.7913   45.1599 H   0  0  0  0  0  0  0  0  0  0  0  0
   58.6110   33.2577   43.1909 H   0  0  0  0  0  0  0  0  0  0  0  0
   57.1126   32.4748   41.3566 H   0  0  0  0  0  0  0  0  0  0  0  0
   56.0322   30.2284   41.4999 H   0  0  0  0  0  0  0  0  0  0  0  0
   56.4608   28.7552   43.4673 H   0  0  0  0  0  0  0  0  0  0  0  0
   59.3559   26.1861   48.2520 H   0  0  0  0  0  0  0  0  0  0  0  0
   57.6152   25.9162   47.9197 H   0  0  0  0  0  0  0  0  0  0  0  0
   59.9759   25.5290   46.0035 H   0  0  0  0  0  0  0  0  0  0  0  0
   58.8330   24.2754   46.6468 H   0  0  0  0  0  0  0  0  0  0  0  0
   58.1920   22.8911   45.7514 H   0  0  0  0  0  0  0  0  0  0  0  0
   57.4441   22.2724   44.2399 H   0  0  0  0  0  0  0  0  0  0  0  0
   59.1590   22.8071   44.2399 H   0  0  0  0  0  0  0  0  0  0  0  0
   58.1846   27.1024   43.7589 H   0  0  0  0  0  0  0  0  0  0  0  0
   56.5714   26.8955   44.5665 H   0  0  0  0  0  0  0  0  0  0  0  0
   61.2120   29.6650   47.4130 H   0  0  0  0  0  0  0  0  0  0  0  0
   62.9714   30.8884   46.3703 H   0  0  0  0  0  0  0  0  0  0  0  0
   64.3876   32.9363   46.3190 H   0  0  0  0  0  0  0  0  0  0  0  0
   64.0500   34.7353   48.0086 H   0  0  0  0  0  0  0  0  0  0  0  0
   57.5138   32.4906   50.1886 H   0  0  0  0  0  0  0  0  0  0  0  0
   55.8103   32.2364   51.9889 H   0  0  0  0  0  0  0  0  0  0  0  0
  1  2  1  0
  2  3  1  0
  3  4  2  0
  4  5  1  0
  5  6  2  0
  6  7  1  0
  7  8  1  0
  8  9  1  0
  9 10  1  0
 10 11  1  0
 11 12  2  0
 12 13  1  0
 13 14  2  0
 14 15  1  0
 15 16  2  0
 16 17  1  0
 17 18  2  0
 12 19  1  0
 19 20  2  0
 20 21  1  0
 21 22  1  0
 22 23  1  0
 23 24  1  0
 24 25  1  0
 24 26  2  0
 23 27  1  0
  8 28  2  0
 28 29  1  0
 29 30  2  0
 30 31  1  0
 31 32  2  0
 32 33  1  0
 33 34  1  0
 33 35  2  0
 35 36  1  0
 36 37  2  0
  6 38  1  0
 38 39  2  0
 39  3  1  0
 36  7  1  0
 20 10  1  0
 35 29  1  0
 18 13  1  0
 27 19  1  0
  1 40  1  0
  1 41  1  0
  1 42  1  0
  4 43  1  0
  5 44  1  0
  9 45  1  0
  9 46  1  0
 14 47  1  0
 15 48  1  0
 16 49  1  0
 17 50  1  0
 18 51  1  0
 21 52  1  0
 21 53  1  0
 22 54  1  0
 22 55  1  0
 25 56  1  0
 25 57  1  0
 25 58  1  0
 27 59  1  0
 27 60  1  0
 28 61  1  0
 30 62  1  0
 31 63  1  0
 32 64  1  0
 38 65  1  0
 39 66  1  0
M  CHG  1  28   1
M  END
>  <UniqueID>  (3) 
3

>  <SMILES>  (3) 
COc1ccc(-n2c(Cn3nc(-c4ccccc4)c4c3CCN(C(C)=O)C4)[nH+]c3cccc(F)c3c2=O)cc1

>  <Energy>  (3) 
125.38471082110412

>  <Genealogy>  (3) 
COc1ccc(-n2c(Cn3nc(-c4ccccc4)c4c3CCN(C(C)=O)C4)[nH+]c3cccc(F)c3c2=O)cc1 (protonated)
COc1ccc(-n2c(Cn3nc(-c4ccccc4)c4c3CCN(C(C)=O)C4)[nH+]c3cccc(F)c3c2=O)cc1 (3D coordinates assigned)
COc1ccc(-n2c(Cn3nc(-c4ccccc4)c4c3CCN(C(C)=O)C4)[nH+]c3cccc(F)c3c2=O)cc1 (nonaromatic ring conformer: 125.38471082110412 kcal/mol)

>  <smiles>  (3) 
COc1ccc(-n2c(Cn3nc(-c4ccccc4)c4c3CCN(C(C)=O)C4)nc3cccc(F)c3c2=O)cc1

>  <score_type>  (3) 
oracle

>  <origin>  (3) 
adg

>  <m_score__min__energy>  (3) 
-7.7199999999999998

>  <m_primary>  (3) 
energy

$$$$
3:0
     RDKit          3D

 45 46  0  0  0  0  0  0  0  0999 V2000
   55.3070   23.7170   44.3580 C   0  0  0  0  0  0  0  0  0  0  0  0
   54.6280   24.4860   45.4880 C   0  0  0  0  0  0  0  0  0  0  0  0
   55.6220   25.2310   46.2900 N   0  0  0  0  0  0  0  0  0  0  0  0
   56.2340   24.4240   47.3720 C   0  0  0  0  0  0  0  0  0  0  0  0
   57.6950   24.1540   47.0380 C   0  0  0  0  0  0  0  0  0  0  0  0
   56.6250   25.9310   45.4540 C   0  0  0  0  0  0  0  0  0  0  0  0
   56.8730   27.3880   45.8760 C   0  0  0  0  0  0  0  0  0  0  0  0
   55.9130   28.2280   45.2440 O   0  0  0  0  0  0  0  0  0  0  0  0
   56.2550   29.4320   44.6240 C   0  0  0  0  0  0  0  0  0  0  0  0
   55.3910   30.3350   44.4500 O   0  0  0  0  0  0  0  0  0  0  0  0
   57.6450   29.6240   44.1120 C   0  0  0  0  0  0  0  0  0  0  0  0
   58.4250   30.4090   45.0720 N   0  0  0  0  0  0  0  0  0  0  0  0
   59.4720   29.9780   45.8270 C   0  0  0  0  0  0  0  0  0  0  0  0
   59.9890   28.5720   45.8440 C   0  0  0  0  0  0  0  0  0  0  0  0
   60.0210   31.0270   46.5600 C   0  0  0  0  0  0  0  0  0  0  0  0
   59.2760   32.1340   46.2180 C   0  0  0  0  0  0  0  0  0  0  0  0
   59.3940   33.4590   46.6300 C   0  0  0  0  0  0  0  0  0  0  0  0
   58.4980   34.3970   46.0890 C   0  0  0  0  0  0  0  0  0  0  0  0
   57.5180   33.9950   45.1560 C   0  0  0  0  0  0  0  0  0  0  0  0
   57.4250   32.6490   44.7560 C   0  0  0  0  0  0  0  0  0  0  0  0
   58.3230   31.7340   45.3140 C   0  0  0  0  0  0  0  0  0  0  0  0
   55.9784   22.9567   44.7836 H   0  0  0  0  0  0  0  0  0  0  0  0
   54.5428   23.2256   43.7380 H   0  0  0  0  0  0  0  0  0  0  0  0
   55.8893   24.4145   43.7380 H   0  0  0  0  0  0  0  0  0  0  0  0
   53.9068   25.1964   45.0577 H   0  0  0  0  0  0  0  0  0  0  0  0
   54.1145   23.7673   46.1436 H   0  0  0  0  0  0  0  0  0  0  0  0
   56.1706   24.9755   48.3217 H   0  0  0  0  0  0  0  0  0  0  0  0
   55.6965   23.4690   47.4666 H   0  0  0  0  0  0  0  0  0  0  0  0
   58.2705   24.0477   47.9694 H   0  0  0  0  0  0  0  0  0  0  0  0
   57.7717   23.2265   46.4517 H   0  0  0  0  0  0  0  0  0  0  0  0
   58.0982   24.9928   46.4517 H   0  0  0  0  0  0  0  0  0  0  0  0
   57.5765   25.3832   45.5216 H   0  0  0  0  0  0  0  0  0  0  0  0
   56.2272   25.9567   44.4288 H   0  0  0  0  0  0  0  0  0  0  0  0
   56.7768   27.4762   46.9682 H   0  0  0  0  0  0  0  0  0  0  0  0
   57.8861   27.6928   45.5748 H   0  0  0  0  0  0  0  0  0  0  0  0
   58.1209   28.6423   43.9712 H   0  0  0  0  0  0  0  0  0  0  0  0
   57.6070   30.1594   43.1518 H   0  0  0  0  0  0  0  0  0  0  0  0
   60.1115   28.2389   46.8852 H   0  0  0  0  0  0  0  0  0  0  0  0
   59.2746   27.9124   45.3297 H   0  0  0  0  0  0  0  0  0  0  0  0
   60.9605   28.5323   45.3297 H   0  0  0  0  0  0  0  0  0  0  0  0
   60.8674   30.9814   47.2612 H   0  0  0  0  0  0  0  0  0  0  0  0
   60.1636   33.7617   47.3554 H   0  0  0  0  0  0  0  0  0  0  0  0
   58.5609   35.4518   46.3948 H   0  0  0  0  0  0  0  0  0  0  0  0
   56.8227   34.7384   44.7390 H   0  0  0  0  0  0  0  0  0  0  0  0
   56.6682   32.3263   44.0259 H   0  0  0  0  0  0  0  0  0  0  0  0
  1  2  1  0
  2  3  1  0
  3  4  1  0
  4  5  1  0
  3  6  1  0
  6  7  1  0
  7  8  1  0
  8  9  1  0
  9 10  2  0
  9 11  1  0
 11 12  1  0
 12 13  1  0
 13 14  1  0
 13 15  2  0
 15 16  1  0
 16 17  2  0
 17 18  1  0
 18 19  2  0
 19 20  1  0
 20 21  2  0
 21 12  1  0
 21 16  1  0
  1 22  1  0
  1 23  1  0
  1 24  1  0
  2 25  1  0
  2 26  1  0
  4 27  1  0
  4 28  1  0
  5 29  1  0
  5 30  1  0
  5 31  1  0
  6 32  1  0
  6 33  1  0
  7 34  1  0
  7 35  1  0
 11 36  1  0
 11 37  1  0
 14 38  1  0
 14 39  1  0
 14 40  1  0
 15 41  1  0
 17 42  1  0
 18 43  1  0
 19 44  1  0
 20 45  1  0
M  END
>  <UniqueID>  (4) 
4

>  <SMILES>  (4) 
CCN(CC)CCOC(=O)Cn1c(C)cc2ccccc21

>  <Energy>  (4) 
72.38101980437368

>  <Genealogy>  (4) 
CCN(CC)CCOC(=O)Cn1c(C)cc2ccccc21 (3D coordinates assigned)
CCN(CC)CCOC(=O)Cn1c(C)cc2ccccc21 (optimized conformer: 72.38101980437368 kcal/mol)

>  <smiles>  (4) 
CCN(CC)CCOC(=O)Cn1c(C)cc2ccccc21

>  <score_type>  (4) 
oracle

>  <origin>  (4) 
adg

>  <m_score__min__energy>  (4) 
-7

>  <m_primary>  (4) 
energy

$$$$
4:0
     RDKit          3D

 49 51  0  0  0  0  0  0  0  0999 V2000
   56.1700   19.8490   44.3660 C   0  0  0  0  0  0  0  0  0  0  0  0
   56.1360   21.0080   43.5390 O   0  0  0  0  0  0  0  0  0  0  0  0
   56.2140   22.3240   44.0180 C   0  0  0  0  0  0  0  0  0  0  0  0
   56.9970   23.3120   43.3900 C   0  0  0  0  0  0  0  0  0  0  0  0
   57.0460   24.6080   43.9110 C   0  0  0  0  0  0  0  0  0  0  0  0
   56.3250   24.9420   45.0690 C   0  0  0  0  0  0  0  0  0  0  0  0
   56.4090   26.3150   45.6220 C   0  0  0  0  0  0  0  0  0  0  0  0
   55.5290   26.7120   46.4330 O   0  0  0  0  0  0  0  0  0  0  0  0
   57.5310   27.2500   45.2520 C   0  0  0  0  0  0  0  0  0  0  0  0
   58.6470   27.1470   46.2190 N   0  0  0  0  0  0  0  0  0  0  0  0
   58.3630   27.8580   47.4960 C   0  0  0  0  0  0  0  0  0  0  0  0
   59.0030   29.2590   47.5930 C   0  0  0  0  0  0  0  0  0  0  0  0
   59.1850   29.8310   46.2570 N   0  0  0  0  0  0  0  0  0  0  0  0
   58.6840   31.1410   45.9360 C   0  0  0  0  0  0  0  0  0  0  0  0
   59.4360   32.2760   46.2790 C   0  0  0  0  0  0  0  0  0  0  0  0
   58.9680   33.5560   45.9680 C   0  0  0  0  0  0  0  0  0  0  0  0
   59.9120   34.9660   46.4110 Cl  0  0  0  0  0  0  0  0  0  0  0  0
   57.7490   33.7100   45.3060 C   0  0  0  0  0  0  0  0  0  0  0  0
   56.9970   32.5890   44.9480 C   0  0  0  0  0  0  0  0  0  0  0  0
   57.4590   31.2930   45.2530 C   0  0  0  0  0  0  0  0  0  0  0  0
   56.7430   30.1460   44.8790 O   0  0  0  0  0  0  0  0  0  0  0  0
   56.4000   29.8040   43.5400 C   0  0  0  0  0  0  0  0  0  0  0  0
   59.9290   29.0620   45.2540 C   0  0  0  0  0  0  0  0  0  0  0  0
   59.9310   27.5650   45.6170 C   0  0  0  0  0  0  0  0  0  0  0  0
   55.5320   23.9550   45.6840 C   0  0  0  0  0  0  0  0  0  0  0  0
   55.4820   22.6600   45.1610 C   0  0  0  0  0  0  0  0  0  0  0  0
   56.1611   20.1526   45.4232 H   0  0  0  0  0  0  0  0  0  0  0  0
   55.2898   19.2233   44.1567 H   0  0  0  0  0  0  0  0  0  0  0  0
   57.0853   19.2760   44.1567 H   0  0  0  0  0  0  0  0  0  0  0  0
   57.5721   23.0627   42.4861 H   0  0  0  0  0  0  0  0  0  0  0  0
   57.6553   25.3740   43.4091 H   0  0  0  0  0  0  0  0  0  0  0  0
   57.8993   26.9908   44.2484 H   0  0  0  0  0  0  0  0  0  0  0  0
   57.1478   28.2810   45.2670 H   0  0  0  0  0  0  0  0  0  0  0  0
   57.2730   27.9685   47.5948 H   0  0  0  0  0  0  0  0  0  0  0  0
   58.8033   27.2517   48.3013 H   0  0  0  0  0  0  0  0  0  0  0  0
   58.3476   29.9168   48.1827 H   0  0  0  0  0  0  0  0  0  0  0  0
   59.9854   29.1695   48.0796 H   0  0  0  0  0  0  0  0  0  0  0  0
   60.3997   32.1572   46.7958 H   0  0  0  0  0  0  0  0  0  0  0  0
   57.3793   34.7177   45.0654 H   0  0  0  0  0  0  0  0  0  0  0  0
   56.0381   32.7184   44.4247 H   0  0  0  0  0  0  0  0  0  0  0  0
   55.6211   29.0273   43.5480 H   0  0  0  0  0  0  0  0  0  0  0  0
   56.0228   30.6962   43.0188 H   0  0  0  0  0  0  0  0  0  0  0  0
   57.2911   29.4242   43.0188 H   0  0  0  0  0  0  0  0  0  0  0  0
   59.4552   29.1957   44.2703 H   0  0  0  0  0  0  0  0  0  0  0  0
   60.9675   29.4234   45.2260 H   0  0  0  0  0  0  0  0  0  0  0  0
   60.1049   26.9769   44.7038 H   0  0  0  0  0  0  0  0  0  0  0  0
   60.7283   27.3920   46.3548 H   0  0  0  0  0  0  0  0  0  0  0  0
   54.9479   24.2046   46.5821 H   0  0  0  0  0  0  0  0  0  0  0  0
   54.8606   21.8975   45.6534 H   0  0  0  0  0  0  0  0  0  0  0  0
  1  2  1  0
  2  3  1  0
  3  4  2  0
  4  5  1  0
  5  6  2  0
  6  7  1  0
  7  8  2  0
  7  9  1  0
  9 10  1  0
 10 11  1  0
 11 12  1  0
 12 13  1  0
 13 14  1  0
 14 15  2  0
 15 16  1  0
 16 17  1  0
 16 18  2  0
 18 19  1  0
 19 20  2  0
 20 21  1  0
 21 22  1  0
 13 23  1  0
 23 24  1  0
  6 25  1  0
 25 26  2  0
 26  3  1  0
 24 10  1  0
 20 14  1  0
  1 27  1  0
  1 28  1  0
  1 29  1  0
  4 30  1  0
  5 31  1  0
  9 32  1  0
  9 33  1  0
 11 34  1  0
 11 35  1  0
 12 36  1  0
 12 37  1  0
 15 38  1  0
 18 39  1  0
 19 40  1  0
 22 41  1  0
 22 42  1  0
 22 43  1  0
 23 44  1  0
 23 45  1  0
 24 46  1  0
 24 47  1  0
 25 48  1  0
 26 49  1  0
M  END
>  <UniqueID>  (5) 
5

>  <SMILES>  (5) 
COc1ccc(C(=O)CN2CCN(c3cc(Cl)ccc3OC)CC2)cc1

>  <Energy>  (5) 
61.41437954948135

>  <Genealogy>  (5) 
COc1ccc(C(=O)CN2CCN(c3cc(Cl)ccc3OC)CC2)cc1 (3D coordinates assigned)
COc1ccc(C(=O)CN2CCN(c3cc(Cl)ccc3OC)CC2)cc1 (nonaromatic ring conformer: 61.41437954948135 kcal/mol)

>  <smiles>  (5) 
COc1ccc(C(=O)CN2CCN(c3cc(Cl)ccc3OC)CC2)cc1

>  <score_type>  (5) 
oracle

>  <origin>  (5) 
adg

>  <m_score__min__energy>  (5) 
-8.2899999999999991

>  <m_primary>  (5) 
energy

$$$$
5:0
     RDKit          3D

 52 54  0  0  0  0  0  0  0  0999 V2000
   59.2640   33.8330   51.6150 C   0  0  0  0  0  0  0  0  0  0  0  0
   60.7780   33.7030   51.4230 C   0  0  0  0  0  0  0  0  0  0  0  0
   61.1190   32.9290   50.2110 N   0  0  0  0  0  0  0  0  0  0  0  0
   61.9660   33.6860   49.2620 C   0  0  0  0  0  0  0  0  0  0  0  0
   61.3020   33.8850   47.8880 C   0  0  0  0  0  0  0  0  0  0  0  0
   59.9550   33.2690   47.8610 N   0  0  0  0  0  0  0  0  0  0  0  0
   59.9850   31.7820   47.7600 C   0  0  0  0  0  0  0  0  0  0  0  0
   59.5230   31.2680   46.3920 C   0  0  0  0  0  0  0  0  0  0  0  0
   58.0690   31.7150   46.1170 C   0  0  0  0  0  0  0  0  0  0  0  0
   57.7470   31.6170   44.6820 N   0  0  0  0  0  0  0  0  0  0  0  0
   58.0410   32.5400   43.7390 C   0  0  0  0  0  0  0  0  0  0  0  0
   57.6000   32.1180   42.5020 C   0  0  0  0  0  0  0  0  0  0  0  0
   56.9980   30.8940   42.6940 C   0  0  0  0  0  0  0  0  0  0  0  0
   57.0960   30.6120   44.0440 C   0  0  0  0  0  0  0  0  0  0  0  0
   56.4810   29.4340   44.6940 C   0  0  0  0  0  0  0  0  0  0  0  0
   55.2250   29.3760   44.7860 O   0  0  0  0  0  0  0  0  0  0  0  0
   57.3000   28.2990   45.1870 C   0  0  0  0  0  0  0  0  0  0  0  0
   58.7020   28.3360   45.0670 C   0  0  0  0  0  0  0  0  0  0  0  0
   59.4810   27.2660   45.5210 C   0  0  0  0  0  0  0  0  0  0  0  0
   58.8700   26.1470   46.0910 C   0  0  0  0  0  0  0  0  0  0  0  0
   57.4790   26.0920   46.2050 C   0  0  0  0  0  0  0  0  0  0  0  0
   56.6960   27.1600   45.7530 C   0  0  0  0  0  0  0  0  0  0  0  0
   57.7770   33.1380   46.6490 C   0  0  0  0  0  0  0  0  0  0  0  0
   59.0670   33.9350   46.8780 C   0  0  0  0  0  0  0  0  0  0  0  0
   59.0311   33.8530   52.6899 H   0  0  0  0  0  0  0  0  0  0  0  0
   58.9136   34.7645   51.1465 H   0  0  0  0  0  0  0  0  0  0  0  0
   58.7600   32.9748   51.1465 H   0  0  0  0  0  0  0  0  0  0  0  0
   61.2124   34.7098   51.3351 H   0  0  0  0  0  0  0  0  0  0  0  0
   61.1857   33.1678   52.2933 H   0  0  0  0  0  0  0  0  0  0  0  0
   60.2350   32.6210   49.7450 H   0  0  0  0  0  0  0  0  0  0  0  0
   61.6190   32.0530   50.4900 H   0  0  0  0  0  0  0  0  0  0  0  0
   62.1791   34.6747   49.6945 H   0  0  0  0  0  0  0  0  0  0  0  0
   62.8835   33.1007   49.1017 H   0  0  0  0  0  0  0  0  0  0  0  0
   61.2102   34.9621   47.6843 H   0  0  0  0  0  0  0  0  0  0  0  0
   61.9260   33.4024   47.1214 H   0  0  0  0  0  0  0  0  0  0  0  0
   61.0156   31.4390   47.9341 H   0  0  0  0  0  0  0  0  0  0  0  0
   59.2890   31.3857   48.5140 H   0  0  0  0  0  0  0  0  0  0  0  0
   60.1819   31.6735   45.6100 H   0  0  0  0  0  0  0  0  0  0  0  0
   59.5675   30.1689   46.3878 H   0  0  0  0  0  0  0  0  0  0  0  0
   57.4158   31.0241   46.6702 H   0  0  0  0  0  0  0  0  0  0  0  0
   58.5581   33.4917   43.9308 H   0  0  0  0  0  0  0  0  0  0  0  0
   57.7080   32.6545   41.5478 H   0  0  0  0  0  0  0  0  0  0  0  0
   56.5303   30.2636   41.9233 H   0  0  0  0  0  0  0  0  0  0  0  0
   59.1885   29.2120   44.6132 H   0  0  0  0  0  0  0  0  0  0  0  0
   60.5764   27.3063   45.4288 H   0  0  0  0  0  0  0  0  0  0  0  0
   59.4846   25.3085   46.4504 H   0  0  0  0  0  0  0  0  0  0  0  0
   56.9986   25.2084   46.6505 H   0  0  0  0  0  0  0  0  0  0  0  0
   55.6007   27.1094   45.8405 H   0  0  0  0  0  0  0  0  0  0  0  0
   57.1540   33.6715   45.9160 H   0  0  0  0  0  0  0  0  0  0  0  0
   57.2574   33.0429   47.6139 H   0  0  0  0  0  0  0  0  0  0  0  0
   59.6018   34.0303   45.9215 H   0  0  0  0  0  0  0  0  0  0  0  0
   58.7938   34.9232   47.2766 H   0  0  0  0  0  0  0  0  0  0  0  0
  1  2  1  0
  2  3  1  0
  3  4  1  0
  4  5  1  0
  5  6  1  0
  6  7  1  0
  7  8  1  0
  8  9  1  0
  9 10  1  0
 10 11  1  0
 11 12  2  0
 12 13  1  0
 13 14  2  0
 14 15  1  0
 15 16  2  0
 15 17  1  0
 17 18  2  0
 18 19  1  0
 19 20  2  0
 20 21  1  0
 21 22  2  0
  9 23  1  0
 23 24  1  0
 24  6  1  0
 14 10  1  0
 22 17  1  0
  1 25  1  0
  1 26  1  0
  1 27  1  0
  2 28  1  0
  2 29  1  0
  3 30  1  0
  3 31  1  0
  4 32  1  0
  4 33  1  0
  5 34  1  0
  5 35  1  0
  7 36  1  0
  7 37  1  0
  8 38  1  0
  8 39  1  0
  9 40  1  0
 11 41  1  0
 12 42  1  0
 13 43  1  0
 18 44  1  0
 19 45  1  0
 20 46  1  0
 21 47  1  0
 22 48  1  0
 23 49  1  0
 23 50  1  0
 24 51  1  0
 24 52  1  0
M  CHG  1   3   1
M  END
>  <UniqueID>  (6) 
6

>  <SMILES>  (6) 
CC[NH2+]CCN1CCC(n2cccc2C(=O)c2ccccc2)CC1

>  <Energy>  (6) 
95.5436770147628

>  <Genealogy>  (6) 
CC[NH2+]CCN1CCC(n2cccc2C(=O)c2ccccc2)CC1 (protonated)
CC[NH2+]CCN1CCC(n2cccc2C(=O)c2ccccc2)CC1 (3D coordinates assigned)
CC[NH2+]CCN1CCC(n2cccc2C(=O)c2ccccc2)CC1 (nonaromatic ring conformer: 95.5436770147628 kcal/mol)

>  <smiles>  (6) 
CCNCCN1CCC(n2cccc2C(=O)c2ccccc2)CC1

>  <score_type>  (6) 
oracle

>  <origin>  (6) 
adg

>  <m_score__min__energy>  (6) 
-7.5099999999999998

>  <m_primary>  (6) 
energy

$$$$
6:0
     RDKit          3D

 49 52  0  0  0  0  0  0  0  0999 V2000
   59.2690   35.3180   44.9120 C   0  0  0  0  0  0  0  0  0  0  0  0
   58.1300   34.5920   45.3620 O   0  0  0  0  0  0  0  0  0  0  0  0
   58.0510   33.1910   45.4250 C   0  0  0  0  0  0  0  0  0  0  0  0
   57.4200   32.4380   44.4150 C   0  0  0  0  0  0  0  0  0  0  0  0
   57.3690   31.0460   44.4960 C   0  0  0  0  0  0  0  0  0  0  0  0
   57.9520   30.3740   45.5790 C   0  0  0  0  0  0  0  0  0  0  0  0
   57.8980   28.9400   45.6650 N   0  0  0  0  0  0  0  0  0  0  0  0
   56.8030   28.1570   45.5270 C   0  0  0  0  0  0  0  0  0  0  0  0
   55.5250   28.6330   45.2480 O   0  0  0  0  0  0  0  0  0  0  0  0
   57.1380   26.8270   45.6740 C   0  0  0  0  0  0  0  0  0  0  0  0
   58.4890   26.7860   45.9060 C   0  0  0  0  0  0  0  0  0  0  0  0
   58.9320   28.0960   45.8970 C   0  0  0  0  0  0  0  0  0  0  0  0
   60.2440   28.5100   46.1180 O   0  0  0  0  0  0  0  0  0  0  0  0
   59.2640   25.5250   46.1190 C   0  0  0  0  0  0  0  0  0  0  0  0
   58.3730   24.3000   46.0640 C   0  0  0  0  0  0  0  0  0  0  0  0
   57.0420   24.3420   45.8290 C   0  0  0  0  0  0  0  0  0  0  0  0
   56.2620   25.6190   45.5860 C   0  0  0  0  0  0  0  0  0  0  0  0
   58.5850   31.1200   46.5830 C   0  0  0  0  0  0  0  0  0  0  0  0
   58.6210   32.5210   46.5240 C   0  0  0  0  0  0  0  0  0  0  0  0
   59.4200   33.4190   47.8200 S   0  0  0  0  0  0  0  0  0  0  0  0
   58.9010   34.8290   47.8130 O   0  0  0  0  0  0  0  0  0  0  0  0
   59.1150   32.7840   49.1500 O   0  0  0  0  0  0  0  0  0  0  0  0
   61.1490   33.4270   47.5640 N   0  0  0  0  0  0  0  0  0  0  0  0
   61.6490   32.0500   47.4290 C   0  0  0  0  0  0  0  0  0  0  0  0
   63.1700   32.0710   47.1710 C   0  0  0  0  0  0  0  0  0  0  0  0
   63.7380   33.3540   47.3800 O   0  0  0  0  0  0  0  0  0  0  0  0
   63.3450   33.8530   48.6430 C   0  0  0  0  0  0  0  0  0  0  0  0
   61.8230   34.1030   48.6860 C   0  0  0  0  0  0  0  0  0  0  0  0
   59.8388   35.6812   45.7800 H   0  0  0  0  0  0  0  0  0  0  0  0
   59.9069   34.6595   44.3041 H   0  0  0  0  0  0  0  0  0  0  0  0
   58.9414   36.1743   44.3041 H   0  0  0  0  0  0  0  0  0  0  0  0
   56.9640   32.9516   43.5558 H   0  0  0  0  0  0  0  0  0  0  0  0
   56.8672   30.4714   43.7035 H   0  0  0  0  0  0  0  0  0  0  0  0
   60.8830   28.6590   45.3470 H   0  0  0  0  0  0  0  0  0  0  0  0
   60.0316   25.4423   45.3355 H   0  0  0  0  0  0  0  0  0  0  0  0
   59.7218   25.5699   47.1182 H   0  0  0  0  0  0  0  0  0  0  0  0
   58.8378   23.3161   46.2252 H   0  0  0  0  0  0  0  0  0  0  0  0
   56.4909   23.3902   45.8132 H   0  0  0  0  0  0  0  0  0  0  0  0
   55.8126   25.5768   44.5829 H   0  0  0  0  0  0  0  0  0  0  0  0
   55.4867   25.7003   46.3621 H   0  0  0  0  0  0  0  0  0  0  0  0
   59.0597   30.5999   47.4281 H   0  0  0  0  0  0  0  0  0  0  0  0
   61.4431   31.4939   48.3555 H   0  0  0  0  0  0  0  0  0  0  0  0
   61.1432   31.5605   46.5837 H   0  0  0  0  0  0  0  0  0  0  0  0
   63.6535   31.3557   47.8526 H   0  0  0  0  0  0  0  0  0  0  0  0
   63.3345   31.7998   46.1177 H   0  0  0  0  0  0  0  0  0  0  0  0
   63.6118   33.1203   49.4188 H   0  0  0  0  0  0  0  0  0  0  0  0
   63.8634   34.8067   48.8213 H   0  0  0  0  0  0  0  0  0  0  0  0
   61.4208   33.7162   49.6339 H   0  0  0  0  0  0  0  0  0  0  0  0
   61.6414   35.1849   48.6056 H   0  0  0  0  0  0  0  0  0  0  0  0
  1  2  1  0
  2  3  1  0
  3  4  2  0
  4  5  1  0
  5  6  2  0
  6  7  1  0
  7  8  1  0
  8  9  1  0
  8 10  2  0
 10 11  1  0
 11 12  2  0
 12 13  1  0
 11 14  1  0
 14 15  1  0
 15 16  2  0
 16 17  1  0
  6 18  1  0
 18 19  2  0
 19 20  1  0
 20 21  2  0
 20 22  2  0
 20 23  1  0
 23 24  1  0
 24 25  1  0
 25 26  1  0
 26 27  1  0
 27 28  1  0
 19  3  1  0
 28 23  1  0
 12  7  1  0
 17 10  1  0
  1 29  1  0
  1 30  1  0
  1 31  1  0
  4 32  1  0
  5 33  1  0
 13 34  1  0
 14 35  1  0
 14 36  1  0
 15 37  1  0
 16 38  1  0
 17 39  1  0
 17 40  1  0
 18 41  1  0
 24 42  1  0
 24 43  1  0
 25 44  1  0
 25 45  1  0
 27 46  1  0
 27 47  1  0
 28 48  1  0
 28 49  1  0
M  CHG  1   9  -1
M  END
>  <UniqueID>  (7) 
7

>  <SMILES>  (7) 
COc1ccc(-n2c([O-])c3c(c2O)CC=CC3)cc1S(=O)(=O)N1CCOCC1

>  <Energy>  (7) 
95.8166155142665

>  <Genealogy>  (7) 
COc1ccc(-n2c([O-])c3c(c2O)CC=CC3)cc1S(=O)(=O)N1CCOCC1 (protonated)
COc1ccc(-n2c([O-])c3c(c2O)CC=CC3)cc1S(=O)(=O)N1CCOCC1 (3D coordinates assigned)
COc1ccc(-n2c([O-])c3c(c2O)CC=CC3)cc1S(=O)(=O)N1CCOCC1 (nonaromatic ring conformer: 95.8166155142665 kcal/mol)

>  <smiles>  (7) 
COc1ccc(-n2c(O)c3c(c2O)CC=CC3)cc1S(=O)(=O)N1CCOCC1

>  <score_type>  (7) 
oracle

>  <origin>  (7) 
adg

>  <m_score__min__energy>  (7) 
-11.74

>  <m_primary>  (7) 
energy

$$$$
7:0
     RDKit          3D

 43 46  0  0  0  0  0  0  0  0999 V2000
   57.0230   33.6640   44.8970 C   0  0  0  0  0  0  0  0  0  0  0  0
   58.1380   33.4560   45.8780 C   0  0  0  0  0  0  0  0  0  0  0  0
   58.5740   34.5740   46.5370 N   0  0  0  0  0  0  0  0  0  0  0  0
   59.4820   34.5370   47.5550 C   0  0  0  0  0  0  0  0  0  0  0  0
   59.9880   33.3140   47.9990 C   0  0  0  0  0  0  0  0  0  0  0  0
   59.5490   32.1700   47.3500 C   0  0  0  0  0  0  0  0  0  0  0  0
   59.9300   30.9160   47.6270 N   0  0  0  0  0  0  0  0  0  0  0  0
   59.2560   30.1780   46.7170 C   0  0  0  0  0  0  0  0  0  0  0  0
   59.3910   28.7070   46.6830 C   0  0  0  0  0  0  0  0  0  0  0  0
   60.5180   28.1070   46.1010 C   0  0  0  0  0  0  0  0  0  0  0  0
   60.6250   26.7130   46.0490 C   0  0  0  0  0  0  0  0  0  0  0  0
   59.6000   25.9130   46.5630 C   0  0  0  0  0  0  0  0  0  0  0  0
   58.4640   26.5050   47.1220 C   0  0  0  0  0  0  0  0  0  0  0  0
   57.4660   25.7280   47.6100 F   0  0  0  0  0  0  0  0  0  0  0  0
   58.3550   27.8990   47.1750 C   0  0  0  0  0  0  0  0  0  0  0  0
   58.4810   30.9190   45.8650 N   0  0  0  0  0  0  0  0  0  0  0  0
   57.8780   30.4010   44.6170 C   0  0  0  0  0  0  0  0  0  0  0  0
   58.0350   31.4170   43.4530 C   0  0  0  0  0  0  0  0  0  0  0  0
   57.0660   31.2130   42.2700 C   0  0  0  0  0  0  0  0  0  0  0  0
   56.3060   29.8880   42.3330 C   0  0  0  0  0  0  0  0  0  0  0  0
   55.5410   29.7920   43.6500 C   0  0  0  0  0  0  0  0  0  0  0  0
   56.4790   29.7840   44.8700 C   0  0  0  0  0  0  0  0  0  0  0  0
   58.6620   32.2010   46.3020 C   0  0  0  0  0  0  0  0  0  0  0  0
   56.0835   33.8393   45.4415 H   0  0  0  0  0  0  0  0  0  0  0  0
   57.2485   34.5356   44.2649 H   0  0  0  0  0  0  0  0  0  0  0  0
   56.9191   32.7697   44.2649 H   0  0  0  0  0  0  0  0  0  0  0  0
   59.8160   35.4729   48.0268 H   0  0  0  0  0  0  0  0  0  0  0  0
   60.7062   33.2600   48.8304 H   0  0  0  0  0  0  0  0  0  0  0  0
   61.3197   28.7345   45.6844 H   0  0  0  0  0  0  0  0  0  0  0  0
   61.5159   26.2462   45.6036 H   0  0  0  0  0  0  0  0  0  0  0  0
   59.6877   24.8171   46.5274 H   0  0  0  0  0  0  0  0  0  0  0  0
   57.4543   28.3627   47.6037 H   0  0  0  0  0  0  0  0  0  0  0  0
   58.4429   29.5321   44.2484 H   0  0  0  0  0  0  0  0  0  0  0  0
   57.8707   32.4266   43.8576 H   0  0  0  0  0  0  0  0  0  0  0  0
   59.0470   31.2657   43.0492 H   0  0  0  0  0  0  0  0  0  0  0  0
   56.3352   32.0352   42.2714 H   0  0  0  0  0  0  0  0  0  0  0  0
   57.6713   31.1983   41.3516 H   0  0  0  0  0  0  0  0  0  0  0  0
   55.5966   29.8338   41.4940 H   0  0  0  0  0  0  0  0  0  0  0  0
   57.0221   29.0555   42.2678 H   0  0  0  0  0  0  0  0  0  0  0  0
   54.8640   30.6553   43.7298 H   0  0  0  0  0  0  0  0  0  0  0  0
   54.9835   28.8437   43.6474 H   0  0  0  0  0  0  0  0  0  0  0  0
   55.9950   30.3526   45.6777 H   0  0  0  0  0  0  0  0  0  0  0  0
   56.6476   28.7272   45.1246 H   0  0  0  0  0  0  0  0  0  0  0  0
  1  2  1  0
  2  3  2  0
  3  4  1  0
  4  5  2  0
  5  6  1  0
  6  7  1  0
  7  8  2  0
  8  9  1  0
  9 10  2  0
 10 11  1  0
 11 12  2  0
 12 13  1  0
 13 14  1  0
 13 15  2  0
  8 16  1  0
 16 17  1  0
 17 18  1  0
 18 19  1  0
 19 20  1  0
 20 21  1  0
 21 22  1  0
 16 23  1  0
 23  2  1  0
 23  6  2  0
 15  9  1  0
 22 17  1  0
  1 24  1  0
  1 25  1  0
  1 26  1  0
  4 27  1  0
  5 28  1  0
 10 29  1  0
 11 30  1  0
 12 31  1  0
 15 32  1  0
 17 33  1  0
 18 34  1  0
 18 35  1  0
 19 36  1  0
 19 37  1  0
 20 38  1  0
 20 39  1  0
 21 40  1  0
 21 41  1  0
 22 42  1  0
 22 43  1  0
M  END
>  <UniqueID>  (8) 
8

>  <SMILES>  (8) 
Cc1nccc2nc(-c3cccc(F)c3)n(C3CCCCC3)c12

>  <Energy>  (8) 
106.35473373813662

>  <Genealogy>  (8) 
Cc1nccc2nc(-c3cccc(F)c3)n(C3CCCCC3)c12 (3D coordinates assigned)
Cc1nccc2nc(-c3cccc(F)c3)n(C3CCCCC3)c12 (nonaromatic ring conformer: 106.35473373813662 kcal/mol)

>  <smiles>  (8) 
Cc1nccc2nc(-c3cccc(F)c3)n(C3CCCCC3)c12

>  <score_type>  (8) 
oracle

>  <origin>  (8) 
adg

>  <m_score__min__energy>  (8) 
-7.6299999999999999

>  <m_primary>  (8) 
energy

$$$$
8:0
     RDKit          3D

 49 51  0  0  0  0  0  0  0  0999 V2000
   56.3940   30.0090   43.1570 C   0  0  0  0  0  0  0  0  0  0  0  0
   57.2860   31.1400   43.6420 C   0  0  0  0  0  0  0  0  0  0  0  0
   57.4170   31.0640   45.0560 O   0  0  0  0  0  0  0  0  0  0  0  0
   58.0670   32.0190   45.8540 C   0  0  0  0  0  0  0  0  0  0  0  0
   57.4590   33.2460   46.1880 C   0  0  0  0  0  0  0  0  0  0  0  0
   58.1340   34.1740   46.9830 C   0  0  0  0  0  0  0  0  0  0  0  0
   59.4170   33.8940   47.4550 C   0  0  0  0  0  0  0  0  0  0  0  0
   60.0300   32.6840   47.1310 C   0  0  0  0  0  0  0  0  0  0  0  0
   59.3650   31.7390   46.3310 C   0  0  0  0  0  0  0  0  0  0  0  0
   60.0450   30.4260   45.9940 C   0  0  0  0  0  0  0  0  0  0  0  0
   59.0760   29.3040   45.9050 N   0  0  0  0  0  0  0  0  0  0  0  0
   59.0010   28.5380   47.1880 C   0  0  0  0  0  0  0  0  0  0  0  0
   58.7970   27.0180   47.0180 C   0  0  0  0  0  0  0  0  0  0  0  0
   58.0310   26.7090   45.8080 N   0  0  0  0  0  0  0  0  0  0  0  0
   57.0720   25.6430   45.8280 C   0  0  0  0  0  0  0  0  0  0  0  0
   55.7160   25.9350   45.9610 C   0  0  0  0  0  0  0  0  0  0  0  0
   54.8090   24.9250   45.9930 N   0  0  0  0  0  0  0  0  0  0  0  0
   55.1720   23.6430   45.8910 N   0  0  0  0  0  0  0  0  0  0  0  0
   54.1360   22.6130   45.9490 C   0  0  0  0  0  0  0  0  0  0  0  0
   56.4910   23.3010   45.7520 C   0  0  0  0  0  0  0  0  0  0  0  0
   56.8320   22.0900   45.6440 O   0  0  0  0  0  0  0  0  0  0  0  0
   57.4690   24.3020   45.7290 C   0  0  0  0  0  0  0  0  0  0  0  0
   59.1760   23.8670   45.6370 Cl  0  0  0  0  0  0  0  0  0  0  0  0
   58.3330   27.3850   44.5460 C   0  0  0  0  0  0  0  0  0  0  0  0
   59.4160   28.4460   44.7510 C   0  0  0  0  0  0  0  0  0  0  0  0
   55.9739   29.4763   44.0229 H   0  0  0  0  0  0  0  0  0  0  0  0
   55.5761   30.4223   42.5486 H   0  0  0  0  0  0  0  0  0  0  0  0
   56.9865   29.3099   42.5486 H   0  0  0  0  0  0  0  0  0  0  0  0
   58.2784   31.0505   43.1760 H   0  0  0  0  0  0  0  0  0  0  0  0
   56.8382   32.1060   43.3655 H   0  0  0  0  0  0  0  0  0  0  0  0
   56.4475   33.4735   45.8204 H   0  0  0  0  0  0  0  0  0  0  0  0
   57.6527   35.1296   47.2383 H   0  0  0  0  0  0  0  0  0  0  0  0
   59.9447   34.6274   48.0824 H   0  0  0  0  0  0  0  0  0  0  0  0
   61.0418   32.4675   47.5045 H   0  0  0  0  0  0  0  0  0  0  0  0
   60.5579   30.5298   45.0264 H   0  0  0  0  0  0  0  0  0  0  0  0
   60.7578   30.1961   46.7997 H   0  0  0  0  0  0  0  0  0  0  0  0
   58.1280   29.7150   45.7150 H   0  0  0  0  0  0  0  0  0  0  0  0
   59.9395   28.6987   47.7388 H   0  0  0  0  0  0  0  0  0  0  0  0
   58.1165   28.9131   47.7236 H   0  0  0  0  0  0  0  0  0  0  0  0
   59.7810   26.5309   46.9517 H   0  0  0  0  0  0  0  0  0  0  0  0
   58.2330   26.6471   47.8865 H   0  0  0  0  0  0  0  0  0  0  0  0
   55.3815   26.9799   46.0398 H   0  0  0  0  0  0  0  0  0  0  0  0
   53.9054   22.3837   46.9998 H   0  0  0  0  0  0  0  0  0  0  0  0
   53.2284   22.9771   45.4454 H   0  0  0  0  0  0  0  0  0  0  0  0
   54.4948   21.7033   45.4454 H   0  0  0  0  0  0  0  0  0  0  0  0
   58.6866   26.6438   43.8141 H   0  0  0  0  0  0  0  0  0  0  0  0
   57.4198   27.8759   44.1785 H   0  0  0  0  0  0  0  0  0  0  0  0
   60.3800   27.9502   44.9381 H   0  0  0  0  0  0  0  0  0  0  0  0
   59.4842   29.0694   43.8473 H   0  0  0  0  0  0  0  0  0  0  0  0
  1  2  1  0
  2  3  1  0
  3  4  1  0
  4  5  2  0
  5  6  1  0
  6  7  2  0
  7  8  1  0
  8  9  2  0
  9 10  1  0
 10 11  1  0
 11 12  1  0
 12 13  1  0
 13 14  1  0
 14 15  1  0
 15 16  1  0
 16 17  2  0
 17 18  1  0
 18 19  1  0
 18 20  1  0
 20 21  2  0
 20 22  1  0
 22 23  1  0
 14 24  1  0
 24 25  1  0
  9  4  1  0
 25 11  1  0
 22 15  2  0
  1 26  1  0
  1 27  1  0
  1 28  1  0
  2 29  1  0
  2 30  1  0
  5 31  1  0
  6 32  1  0
  7 33  1  0
  8 34  1  0
 10 35  1  0
 10 36  1  0
 11 37  1  0
 12 38  1  0
 12 39  1  0
 13 40  1  0
 13 41  1  0
 16 42  1  0
 19 43  1  0
 19 44  1  0
 19 45  1  0
 24 46  1  0
 24 47  1  0
 25 48  1  0
 25 49  1  0
M  CHG  1  11   1
M  END
>  <UniqueID>  (9) 
9

>  <SMILES>  (9) 
CCOc1ccccc1C[NH+]1CCN(c2cnn(C)c(=O)c2Cl)CC1

>  <Energy>  (9) 
61.83192317578362

>  <Genealogy>  (9) 
CCOc1ccccc1C[NH+]1CCN(c2cnn(C)c(=O)c2Cl)CC1 (protonated)
CCOc1ccccc1C[NH+]1CCN(c2cnn(C)c(=O)c2Cl)CC1 (3D coordinates assigned)
CCOc1ccccc1C[NH+]1CCN(c2cnn(C)c(=O)c2Cl)CC1 (nonaromatic ring conformer: 61.83192317578362 kcal/mol)

>  <smiles>  (9) 
CCOc1ccccc1CN1CCN(c2cnn(C)c(=O)c2Cl)CC1

>  <score_type>  (9) 
oracle

>  <origin>  (9) 
adg

>  <m_score__min__energy>  (9) 
-5.3300000000000001

>  <m_primary>  (9) 
energy

$$$$
9:0
     RDKit          3D

 40 42  0  0  0  0  0  0  0  0999 V2000
   56.8290   30.4530   44.0320 C   0  0  0  0  0  0  0  0  0  0  0  0
   57.0360   31.1680   45.2450 O   0  0  0  0  0  0  0  0  0  0  0  0
   57.8780   32.2840   45.3800 C   0  0  0  0  0  0  0  0  0  0  0  0
   57.6270   33.4900   44.6990 C   0  0  0  0  0  0  0  0  0  0  0  0
   58.4660   34.5890   44.8830 C   0  0  0  0  0  0  0  0  0  0  0  0
   59.5660   34.4990   45.7340 C   0  0  0  0  0  0  0  0  0  0  0  0
   59.8480   33.3020   46.4100 C   0  0  0  0  0  0  0  0  0  0  0  0
   61.0460   33.2340   47.2750 C   0  0  0  0  0  0  0  0  0  0  0  0
   61.2700   34.2070   48.2600 C   0  0  0  0  0  0  0  0  0  0  0  0
   62.4020   34.1300   49.0730 C   0  0  0  0  0  0  0  0  0  0  0  0
   63.3060   33.0820   48.8900 C   0  0  0  0  0  0  0  0  0  0  0  0
   63.0850   32.1540   47.9220 N   0  0  0  0  0  0  0  0  0  0  0  0
   61.9890   32.2060   47.1180 C   0  0  0  0  0  0  0  0  0  0  0  0
   58.9920   32.1870   46.2360 C   0  0  0  0  0  0  0  0  0  0  0  0
   59.2060   30.9710   46.9730 N   0  0  0  0  0  0  0  0  0  0  0  0
   58.8650   30.8970   48.3970 C   0  0  0  0  0  0  0  0  0  0  0  0
   60.0670   30.4060   49.2320 C   0  0  0  0  0  0  0  0  0  0  0  0
   61.0400   29.6040   48.4590 N   0  0  0  0  0  0  0  0  0  0  0  0
   60.4130   28.8560   47.3600 C   0  0  0  0  0  0  0  0  0  0  0  0
   59.8520   29.8280   46.3170 C   0  0  0  0  0  0  0  0  0  0  0  0
   56.5299   29.4197   44.2619 H   0  0  0  0  0  0  0  0  0  0  0  0
   56.0359   30.9431   43.4483 H   0  0  0  0  0  0  0  0  0  0  0  0
   57.7613   30.4436   43.4483 H   0  0  0  0  0  0  0  0  0  0  0  0
   56.7657   33.5661   44.0190 H   0  0  0  0  0  0  0  0  0  0  0  0
   58.2585   35.5309   44.3541 H   0  0  0  0  0  0  0  0  0  0  0  0
   60.2183   35.3731   45.8769 H   0  0  0  0  0  0  0  0  0  0  0  0
   60.5534   35.0310   48.3919 H   0  0  0  0  0  0  0  0  0  0  0  0
   62.5801   34.8877   49.8503 H   0  0  0  0  0  0  0  0  0  0  0  0
   64.1977   33.0073   49.5297 H   0  0  0  0  0  0  0  0  0  0  0  0
   61.8412   31.4401   46.3424 H   0  0  0  0  0  0  0  0  0  0  0  0
   58.5684   31.8965   48.7477 H   0  0  0  0  0  0  0  0  0  0  0  0
   58.0382   30.1822   48.5214 H   0  0  0  0  0  0  0  0  0  0  0  0
   60.5879   31.2844   49.6407 H   0  0  0  0  0  0  0  0  0  0  0  0
   59.6653   29.7520   50.0200 H   0  0  0  0  0  0  0  0  0  0  0  0
   61.7790   30.2360   48.0670 H   0  0  0  0  0  0  0  0  0  0  0  0
   61.5100   28.9260   49.1030 H   0  0  0  0  0  0  0  0  0  0  0  0
   61.1641   28.2070   46.8861 H   0  0  0  0  0  0  0  0  0  0  0  0
   59.5917   28.2446   47.7621 H   0  0  0  0  0  0  0  0  0  0  0  0
   60.6737   30.1919   45.6827 H   0  0  0  0  0  0  0  0  0  0  0  0
   59.1051   29.3007   45.7054 H   0  0  0  0  0  0  0  0  0  0  0  0
  1  2  1  0
  2  3  1  0
  3  4  2  0
  4  5  1  0
  5  6  2  0
  6  7  1  0
  7  8  1  0
  8  9  2  0
  9 10  1  0
 10 11  2  0
 11 12  1  0
 12 13  2  0
  7 14  2  0
 14 15  1  0
 15 16  1  0
 16 17  1  0
 17 18  1  0
 18 19  1  0
 19 20  1  0
 14  3  1  0
 20 15  1  0
 13  8  1  0
  1 21  1  0
  1 22  1  0
  1 23  1  0
  4 24  1  0
  5 25  1  0
  6 26  1  0
  9 27  1  0
 10 28  1  0
 11 29  1  0
 13 30  1  0
 16 31  1  0
 16 32  1  0
 17 33  1  0
 17 34  1  0
 18 35  1  0
 18 36  1  0
 19 37  1  0
 19 38  1  0
 20 39  1  0
 20 40  1  0
M  CHG  1  18   1
M  END
>  <UniqueID>  (10) 
10

>  <SMILES>  (10) 
COc1cccc(-c2cccnc2)c1N1CC[NH2+]CC1

>  <Energy>  (10) 
56.722308504857644

>  <Genealogy>  (10) 
COc1cccc(-c2cccnc2)c1N1CC[NH2+]CC1 (protonated)
COc1cccc(-c2cccnc2)c1N1CC[NH2+]CC1 (3D coordinates assigned)
COc1cccc(-c2cccnc2)c1N1CC[NH2+]CC1 (nonaromatic ring conformer: 56.722308504857644 kcal/mol)

>  <smiles>  (10) 
COc1cccc(-c2cccnc2)c1N1CCNCC1

>  <score_type>  (10) 
oracle

>  <origin>  (10) 
adg

>  <m_score__min__energy>  (10) 
-4.8499999999999996

>  <m_primary>  (10) 
energy

$$$$
10:0
     RDKit          3D

 47 49  0  0  0  0  0  0  0  0999 V2000
   59.5840   27.8580   45.5690 C   0  0  0  0  0  0  0  0  0  0  0  0
   58.9120   27.6970   46.8700 N   0  0  0  0  0  0  0  0  0  0  0  0
   59.2270   28.8360   47.7610 C   0  0  0  0  0  0  0  0  0  0  0  0
   59.2000   30.1450   46.9680 C   0  0  0  0  0  0  0  0  0  0  0  0
   57.9020   30.3700   46.4150 O   0  0  0  0  0  0  0  0  0  0  0  0
   57.6130   30.5730   45.0530 C   0  0  0  0  0  0  0  0  0  0  0  0
   57.1600   29.5290   44.2200 C   0  0  0  0  0  0  0  0  0  0  0  0
   56.8300   29.7800   42.8860 C   0  0  0  0  0  0  0  0  0  0  0  0
   56.9460   31.0690   42.3670 C   0  0  0  0  0  0  0  0  0  0  0  0
   57.4030   32.1100   43.1750 C   0  0  0  0  0  0  0  0  0  0  0  0
   57.7510   31.8710   44.5150 C   0  0  0  0  0  0  0  0  0  0  0  0
   58.2870   32.9810   45.3330 C   0  0  0  0  0  0  0  0  0  0  0  0
   57.9850   33.0640   46.7030 C   0  0  0  0  0  0  0  0  0  0  0  0
   58.5240   34.0920   47.4830 C   0  0  0  0  0  0  0  0  0  0  0  0
   59.3570   35.0510   46.9010 C   0  0  0  0  0  0  0  0  0  0  0  0
   59.6640   34.9750   45.5390 C   0  0  0  0  0  0  0  0  0  0  0  0
   59.1370   33.9420   44.7580 C   0  0  0  0  0  0  0  0  0  0  0  0
   57.4520   27.5430   46.6880 C   0  0  0  0  0  0  0  0  0  0  0  0
   57.1270   26.1420   46.2340 C   0  0  0  0  0  0  0  0  0  0  0  0
   58.1430   25.1750   46.1480 C   0  0  0  0  0  0  0  0  0  0  0  0
   57.8450   23.8720   45.7400 C   0  0  0  0  0  0  0  0  0  0  0  0
   56.5320   23.5220   45.4150 C   0  0  0  0  0  0  0  0  0  0  0  0
   55.5150   24.4750   45.4990 C   0  0  0  0  0  0  0  0  0  0  0  0
   55.8040   25.7800   45.9120 C   0  0  0  0  0  0  0  0  0  0  0  0
   54.7730   26.7090   46.0020 O   0  0  0  0  0  0  0  0  0  0  0  0
   60.6420   28.1115   45.7317 H   0  0  0  0  0  0  0  0  0  0  0  0
   59.5152   26.9179   45.0019 H   0  0  0  0  0  0  0  0  0  0  0  0
   59.0967   28.6648   45.0019 H   0  0  0  0  0  0  0  0  0  0  0  0
   58.4814   28.8839   48.5683 H   0  0  0  0  0  0  0  0  0  0  0  0
   60.2308   28.6934   48.1878 H   0  0  0  0  0  0  0  0  0  0  0  0
   59.4574   30.9789   47.6376 H   0  0  0  0  0  0  0  0  0  0  0  0
   59.9290   30.0779   46.1470 H   0  0  0  0  0  0  0  0  0  0  0  0
   57.0659   28.5100   44.6235 H   0  0  0  0  0  0  0  0  0  0  0  0
   56.4780   28.9592   42.2438 H   0  0  0  0  0  0  0  0  0  0  0  0
   56.6767   31.2652   41.3187 H   0  0  0  0  0  0  0  0  0  0  0  0
   57.4915   33.1250   42.7603 H   0  0  0  0  0  0  0  0  0  0  0  0
   57.3218   32.3171   47.1638 H   0  0  0  0  0  0  0  0  0  0  0  0
   58.2917   34.1457   48.5569 H   0  0  0  0  0  0  0  0  0  0  0  0
   59.7710   35.8652   47.5139 H   0  0  0  0  0  0  0  0  0  0  0  0
   60.3211   35.7291   45.0813 H   0  0  0  0  0  0  0  0  0  0  0  0
   59.3885   33.8809   43.6889 H   0  0  0  0  0  0  0  0  0  0  0  0
   56.9441   27.7421   47.6432 H   0  0  0  0  0  0  0  0  0  0  0  0
   57.1091   28.2559   45.9236 H   0  0  0  0  0  0  0  0  0  0  0  0
   59.1783   25.4451   46.4032 H   0  0  0  0  0  0  0  0  0  0  0  0
   58.6457   23.1206   45.6746 H   0  0  0  0  0  0  0  0  0  0  0  0
   56.2996   22.4961   45.0931 H   0  0  0  0  0  0  0  0  0  0  0  0
   54.4824   24.1986   45.2394 H   0  0  0  0  0  0  0  0  0  0  0  0
  1  2  1  0
  2  3  1  0
  3  4  1  0
  4  5  1  0
  5  6  1  0
  6  7  2  0
  7  8  1  0
  8  9  2  0
  9 10  1  0
 10 11  2  0
 11 12  1  0
 12 13  2  0
 13 14  1  0
 14 15  2  0
 15 16  1  0
 16 17  2  0
  2 18  1  0
 18 19  1  0
 19 20  2  0
 20 21  1  0
 21 22  2  0
 22 23  1  0
 23 24  2  0
 24 25  1  0
 11  6  1  0
 17 12  1  0
 24 19  1  0
  1 26  1  0
  1 27  1  0
  1 28  1  0
  3 29  1  0
  3 30  1  0
  4 31  1  0
  4 32  1  0
  7 33  1  0
  8 34  1  0
  9 35  1  0
 10 36  1  0
 13 37  1  0
 14 38  1  0
 15 39  1  0
 16 40  1  0
 17 41  1  0
 18 42  1  0
 18 43  1  0
 20 44  1  0
 21 45  1  0
 22 46  1  0
 23 47  1  0
M  CHG  1  25  -1
M  END
>  <UniqueID>  (11) 
11

>  <SMILES>  (11) 
CN(CCOc1ccccc1-c1ccccc1)Cc1ccccc1[O-]

>  <Energy>  (11) 
53.612441105933634

>  <Genealogy>  (11) 
CN(CCOc1ccccc1-c1ccccc1)Cc1ccccc1[O-] (protonated)
CN(CCOc1ccccc1-c1ccccc1)Cc1ccccc1[O-] (3D coordinates assigned)
CN(CCOc1ccccc1-c1ccccc1)Cc1ccccc1[O-] (optimized conformer: 53.612441105933634 kcal/mol)

>  <smiles>  (11) 
CN(CCOc1ccccc1-c1ccccc1)Cc1ccccc1O

>  <score_type>  (11) 
oracle

>  <origin>  (11) 
adg

>  <m_score__min__energy>  (11) 
-12.32

>  <m_primary>  (11) 
energy

$$$$
11:0
     RDKit          3D

 44 46  0  0  0  0  0  0  0  0999 V2000
   59.6370   22.2150   44.8560 C   0  0  0  0  0  0  0  0  0  0  0  0
   59.7380   23.3420   45.7220 O   0  0  0  0  0  0  0  0  0  0  0  0
   58.8470   24.4240   45.7210 C   0  0  0  0  0  0  0  0  0  0  0  0
   59.1700   25.6700   46.2890 C   0  0  0  0  0  0  0  0  0  0  0  0
   58.2480   26.7210   46.2580 C   0  0  0  0  0  0  0  0  0  0  0  0
   56.9930   26.5460   45.6480 C   0  0  0  0  0  0  0  0  0  0  0  0
   56.0110   27.5910   45.6120 N   0  0  0  0  0  0  0  0  0  0  0  0
   56.1420   28.8660   44.9700 C   0  0  0  0  0  0  0  0  0  0  0  0
   55.1530   29.6400   44.8610 O   0  0  0  0  0  0  0  0  0  0  0  0
   57.4880   29.3210   44.5010 C   0  0  0  0  0  0  0  0  0  0  0  0
   57.9560   30.4600   45.3190 N   0  0  0  0  0  0  0  0  0  0  0  0
   59.3830   30.3150   45.6840 C   0  0  0  0  0  0  0  0  0  0  0  0
   59.5340   29.9720   47.1330 C   0  0  0  0  0  0  0  0  0  0  0  0
   60.6960   30.0770   47.8700 C   0  0  0  0  0  0  0  0  0  0  0  0
   60.3670   29.6530   49.1380 C   0  0  0  0  0  0  0  0  0  0  0  0
   59.0300   29.3150   49.0970 C   0  0  0  0  0  0  0  0  0  0  0  0
   58.5610   29.5160   47.8870 O   0  0  0  0  0  0  0  0  0  0  0  0
   57.6430   31.7660   44.6880 C   0  0  0  0  0  0  0  0  0  0  0  0
   58.2110   32.9490   45.4280 C   0  0  0  0  0  0  0  0  0  0  0  0
   58.9430   33.9860   44.8640 C   0  0  0  0  0  0  0  0  0  0  0  0
   59.3480   34.9480   45.7960 C   0  0  0  0  0  0  0  0  0  0  0  0
   58.9430   34.6700   47.0940 C   0  0  0  0  0  0  0  0  0  0  0  0
   58.0810   33.2270   47.0820 S   0  0  0  0  0  0  0  0  0  0  0  0
   56.6660   25.2980   45.1060 C   0  0  0  0  0  0  0  0  0  0  0  0
   57.5870   24.2480   45.1370 C   0  0  0  0  0  0  0  0  0  0  0  0
   59.5548   21.2972   45.4567 H   0  0  0  0  0  0  0  0  0  0  0  0
   58.7446   22.3191   44.2214 H   0  0  0  0  0  0  0  0  0  0  0  0
   60.5337   22.1587   44.2214 H   0  0  0  0  0  0  0  0  0  0  0  0
   60.1530   25.8183   46.7600 H   0  0  0  0  0  0  0  0  0  0  0  0
   58.5056   27.6889   46.7128 H   0  0  0  0  0  0  0  0  0  0  0  0
   58.2039   28.4907   44.5911 H   0  0  0  0  0  0  0  0  0  0  0  0
   57.4130   29.6403   43.4510 H   0  0  0  0  0  0  0  0  0  0  0  0
   59.8301   29.5145   45.0764 H   0  0  0  0  0  0  0  0  0  0  0  0
   59.8918   31.2719   45.4956 H   0  0  0  0  0  0  0  0  0  0  0  0
   61.6782   30.4259   47.5185 H   0  0  0  0  0  0  0  0  0  0  0  0
   61.0361   29.5953   50.0092 H   0  0  0  0  0  0  0  0  0  0  0  0
   58.4459   28.9351   49.9482 H   0  0  0  0  0  0  0  0  0  0  0  0
   58.0532   31.7655   43.6674 H   0  0  0  0  0  0  0  0  0  0  0  0
   56.5485   31.8746   44.7010 H   0  0  0  0  0  0  0  0  0  0  0  0
   59.1806   34.0451   43.7916 H   0  0  0  0  0  0  0  0  0  0  0  0
   59.9320   35.8400   45.5255 H   0  0  0  0  0  0  0  0  0  0  0  0
   59.1507   35.2885   47.9796 H   0  0  0  0  0  0  0  0  0  0  0  0
   55.6762   25.1425   44.6520 H   0  0  0  0  0  0  0  0  0  0  0  0
   57.3199   23.2750   44.6989 H   0  0  0  0  0  0  0  0  0  0  0  0
  1  2  1  0
  2  3  1  0
  3  4  2  0
  4  5  1  0
  5  6  2  0
  6  7  1  0
  7  8  1  0
  8  9  2  0
  8 10  1  0
 10 11  1  0
 11 12  1  0
 12 13  1  0
 13 14  2  0
 14 15  1  0
 15 16  2  0
 16 17  1  0
 11 18  1  0
 18 19  1  0
 19 20  2  0
 20 21  1  0
 21 22  2  0
 22 23  1  0
  6 24  1  0
 24 25  2  0
 25  3  1  0
 17 13  1  0
 23 19  1  0
  1 26  1  0
  1 27  1  0
  1 28  1  0
  4 29  1  0
  5 30  1  0
 10 31  1  0
 10 32  1  0
 12 33  1  0
 12 34  1  0
 14 35  1  0
 15 36  1  0
 16 37  1  0
 18 38  1  0
 18 39  1  0
 20 40  1  0
 21 41  1  0
 22 42  1  0
 24 43  1  0
 25 44  1  0
M  CHG  1   7  -1
M  END
>  <UniqueID>  (12) 
12

>  <SMILES>  (12) 
COc1ccc([N-]C(=O)CN(Cc2ccco2)Cc2cccs2)cc1

>  <Energy>  (12) 
101.61019397324206

>  <Genealogy>  (12) 
COc1ccc([N-]C(=O)CN(Cc2ccco2)Cc2cccs2)cc1 (protonated)
COc1ccc([N-]C(=O)CN(Cc2ccco2)Cc2cccs2)cc1 (3D coordinates assigned)
COc1ccc([N-]C(=O)CN(Cc2ccco2)Cc2cccs2)cc1 (optimized conformer: 101.61019397324206 kcal/mol)

>  <smiles>  (12) 
COc1ccc(NC(=O)CN(Cc2ccco2)Cc2cccs2)cc1

>  <score_type>  (12) 
oracle

>  <origin>  (12) 
adg

>  <m_score__min__energy>  (12) 
-9.1099999999999994

>  <m_primary>  (12) 
energy

$$$$
12:0
     RDKit          3D

 45 47  0  0  0  0  0  0  0  0999 V2000
   61.3920   31.2540   50.4150 C   0  0  0  0  0  0  0  0  0  0  0  0
   61.3520   31.9590   49.0970 C   0  0  0  0  0  0  0  0  0  0  0  0
   62.5370   32.3430   48.4630 C   0  0  0  0  0  0  0  0  0  0  0  0
   62.4530   33.0180   47.2420 C   0  0  0  0  0  0  0  0  0  0  0  0
   63.6920   33.4730   46.5400 C   0  0  0  0  0  0  0  0  0  0  0  0
   61.2330   33.2980   46.7110 N   0  0  0  0  0  0  0  0  0  0  0  0
   60.0860   32.9140   47.3340 C   0  0  0  0  0  0  0  0  0  0  0  0
   58.7530   33.2930   46.7280 C   0  0  1  0  0  0  0  0  0  0  0  0
   58.8060   34.4340   45.7190 C   0  0  0  0  0  0  0  0  0  0  0  0
   57.5480   34.2470   44.8910 C   0  0  0  0  0  0  0  0  0  0  0  0
   57.0110   32.8650   45.2650 C   0  0  0  0  0  0  0  0  0  0  0  0
   58.0320   32.1780   46.0810 N   0  0  0  0  0  0  0  0  0  0  0  0
   58.8980   31.3270   45.2270 C   0  0  0  0  0  0  0  0  0  0  0  0
   59.3020   30.0840   45.9610 C   0  0  0  0  0  0  0  0  0  0  0  0
   59.7050   28.8930   45.3810 C   0  0  0  0  0  0  0  0  0  0  0  0
   59.9850   28.0690   46.4570 C   0  0  0  0  0  0  0  0  0  0  0  0
   60.4940   26.6640   46.3740 C   0  0  0  0  0  0  0  0  0  0  0  0
   59.7740   28.7540   47.6020 N   0  0  0  0  0  0  0  0  0  0  0  0
   59.9400   28.2520   48.9630 C   0  0  0  0  0  0  0  0  0  0  0  0
   59.3520   29.9700   47.3020 N   0  0  0  0  0  0  0  0  0  0  0  0
   60.1570   32.2600   48.5260 N   0  0  0  0  0  0  0  0  0  0  0  0
   61.3500   31.9938   51.2280 H   0  0  0  0  0  0  0  0  0  0  0  0
   60.5310   30.5739   50.4933 H   0  0  0  0  0  0  0  0  0  0  0  0
   62.3244   30.6756   50.4933 H   0  0  0  0  0  0  0  0  0  0  0  0
   63.5144   32.1188   48.9151 H   0  0  0  0  0  0  0  0  0  0  0  0
   64.4530   33.7525   47.2835 H   0  0  0  0  0  0  0  0  0  0  0  0
   64.0769   32.6576   45.9100 H   0  0  0  0  0  0  0  0  0  0  0  0
   63.4577   34.3438   45.9100 H   0  0  0  0  0  0  0  0  0  0  0  0
   58.2051   33.6218   47.6234 H   0  0  0  0  0  0  0  0  0  0  0  0
   58.7976   35.4085   46.2292 H   0  0  0  0  0  0  0  0  0  0  0  0
   59.7215   34.4193   45.1093 H   0  0  0  0  0  0  0  0  0  0  0  0
   56.8091   35.0247   45.1342 H   0  0  0  0  0  0  0  0  0  0  0  0
   57.7547   34.3254   43.8134 H   0  0  0  0  0  0  0  0  0  0  0  0
   56.0815   32.9709   45.8436 H   0  0  0  0  0  0  0  0  0  0  0  0
   56.7958   32.2827   44.3569 H   0  0  0  0  0  0  0  0  0  0  0  0
   58.3461   31.0469   44.3176 H   0  0  0  0  0  0  0  0  0  0  0  0
   59.8031   31.8935   44.9626 H   0  0  0  0  0  0  0  0  0  0  0  0
   59.7844   28.6560   44.3098 H   0  0  0  0  0  0  0  0  0  0  0  0
   60.6383   26.2657   47.3892 H   0  0  0  0  0  0  0  0  0  0  0  0
   59.7645   26.0409   45.8359 H   0  0  0  0  0  0  0  0  0  0  0  0
   61.4533   26.6527   45.8359 H   0  0  0  0  0  0  0  0  0  0  0  0
   59.6782   29.0438   49.6803 H   0  0  0  0  0  0  0  0  0  0  0  0
   59.2807   27.3850   49.1170 H   0  0  0  0  0  0  0  0  0  0  0  0
   60.9862   27.9490   49.1170 H   0  0  0  0  0  0  0  0  0  0  0  0
   59.1090   30.7110   47.9980 H   0  0  0  0  0  0  0  0  0  0  0  0
  1  2  1  0
  2  3  2  0
  3  4  1  0
  4  5  1  0
  4  6  2  0
  6  7  1  0
  7  8  1  0
  8  9  1  0
  9 10  1  0
 10 11  1  0
 11 12  1  0
 12 13  1  0
 13 14  1  0
 14 15  1  0
 15 16  2  0
 16 17  1  0
 16 18  1  0
 18 19  1  0
 18 20  1  0
  7 21  2  0
 21  2  1  0
 12  8  1  0
 20 14  2  0
  1 22  1  0
  1 23  1  0
  1 24  1  0
  3 25  1  0
  5 26  1  0
  5 27  1  0
  5 28  1  0
  8 29  1  1
  9 30  1  0
  9 31  1  0
 10 32  1  0
 10 33  1  0
 11 34  1  0
 11 35  1  0
 13 36  1  0
 13 37  1  0
 15 38  1  0
 17 39  1  0
 17 40  1  0
 17 41  1  0
 19 42  1  0
 19 43  1  0
 19 44  1  0
 20 45  1  0
M  CHG  1  20   1
M  END
>  <UniqueID>  (13) 
13

>  <SMILES>  (13) 
Cc1cc(C)nc([C@H]2CCCN2Cc2cc(C)n(C)[nH+]2)n1

>  <Energy>  (13) 
79.78541627538624

>  <Genealogy>  (13) 
Cc1cc(C)nc(C2CCCN2Cc2cc(C)n(C)[nH+]2)n1 (protonated)
Cc1cc(C)nc([C@H]2CCCN2Cc2cc(C)n(C)[nH+]2)n1 (chirality)
Cc1cc(C)nc([C@H]2CCCN2Cc2cc(C)n(C)[nH+]2)n1 (3D coordinates assigned)
Cc1cc(C)nc([C@H]2CCCN2Cc2cc(C)n(C)[nH+]2)n1 (nonaromatic ring conformer: 79.78541627538624 kcal/mol)

>  <smiles>  (13) 
Cc1cc(C)nc(C2CCCN2Cc2cc(C)n(C)n2)n1

>  <score_type>  (13) 
oracle

>  <origin>  (13) 
adg

>  <m_score__min__energy>  (13) 
-5.3799999999999999

>  <m_primary>  (13) 
energy

$$$$
13:0
     RDKit          3D

 46 48  0  0  0  0  0  0  0  0999 V2000
   55.4530   29.7380   43.5460 C   0  0  0  0  0  0  0  0  0  0  0  0
   56.6530   30.1040   42.6780 C   0  0  0  0  0  0  0  0  0  0  0  0
   57.4050   31.2240   43.2880 N   0  0  0  0  0  0  0  0  0  0  0  0
   57.9440   32.1600   42.2710 C   0  0  0  0  0  0  0  0  0  0  0  0
   57.0400   32.3370   41.0430 C   0  0  0  0  0  0  0  0  0  0  0  0
   58.4140   30.7360   44.2590 C   0  0  0  0  0  0  0  0  0  0  0  0
   57.8600   30.6440   45.6870 C   0  0  0  0  0  0  0  0  0  0  0  0
   57.3880   29.2900   45.9730 N   0  0  0  0  0  0  0  0  0  0  0  0
   58.2910   28.1860   46.1560 C   0  0  0  0  0  0  0  0  0  0  0  0
   59.6280   28.4640   46.4820 C   0  0  0  0  0  0  0  0  0  0  0  0
   60.5610   27.4420   46.6010 C   0  0  0  0  0  0  0  0  0  0  0  0
   60.1830   26.1220   46.3920 C   0  0  0  0  0  0  0  0  0  0  0  0
   58.8520   25.7990   46.0720 C   0  0  0  0  0  0  0  0  0  0  0  0
   58.4870   24.4540   45.8700 C   0  0  0  0  0  0  0  0  0  0  0  0
   59.4510   23.4500   45.9660 O   0  0  0  0  0  0  0  0  0  0  0  0
   57.1580   24.1150   45.5730 C   0  0  0  0  0  0  0  0  0  0  0  0
   56.7870   22.7720   45.3660 C   0  0  0  0  0  0  0  0  0  0  0  0
   55.4610   22.4390   45.0830 C   0  0  0  0  0  0  0  0  0  0  0  0
   54.4910   23.4370   45.0040 C   0  0  0  0  0  0  0  0  0  0  0  0
   54.8410   24.7730   45.2060 C   0  0  0  0  0  0  0  0  0  0  0  0
   56.1750   25.1290   45.4900 C   0  0  0  0  0  0  0  0  0  0  0  0
   56.5310   26.4760   45.6940 C   0  0  0  0  0  0  0  0  0  0  0  0
   55.5320   27.4430   45.6480 O   0  0  0  0  0  0  0  0  0  0  0  0
   57.8780   26.8340   45.9620 C   0  0  0  0  0  0  0  0  0  0  0  0
   55.7290   29.8222   44.6075 H   0  0  0  0  0  0  0  0  0  0  0  0
   54.6204   30.4230   43.3282 H   0  0  0  0  0  0  0  0  0  0  0  0
   55.1444   28.7049   43.3282 H   0  0  0  0  0  0  0  0  0  0  0  0
   57.3146   29.2300   42.5861 H   0  0  0  0  0  0  0  0  0  0  0  0
   56.2956   30.4118   41.6843 H   0  0  0  0  0  0  0  0  0  0  0  0
   58.0808   33.1435   42.7443 H   0  0  0  0  0  0  0  0  0  0  0  0
   58.8891   31.7279   41.9104 H   0  0  0  0  0  0  0  0  0  0  0  0
   56.0099   32.5387   41.3720 H   0  0  0  0  0  0  0  0  0  0  0  0
   57.4037   33.1810   40.4385 H   0  0  0  0  0  0  0  0  0  0  0  0
   57.0586   31.4182   40.4385 H   0  0  0  0  0  0  0  0  0  0  0  0
   58.7500   29.7364   43.9460 H   0  0  0  0  0  0  0  0  0  0  0  0
   59.2443   31.4575   44.2688 H   0  0  0  0  0  0  0  0  0  0  0  0
   58.6550   30.9072   46.4002 H   0  0  0  0  0  0  0  0  0  0  0  0
   57.0142   31.3406   45.7833 H   0  0  0  0  0  0  0  0  0  0  0  0
   56.3710   29.0840   45.8450 H   0  0  0  0  0  0  0  0  0  0  0  0
   59.9410   29.5058   46.6455 H   0  0  0  0  0  0  0  0  0  0  0  0
   61.6031   27.6789   46.8617 H   0  0  0  0  0  0  0  0  0  0  0  0
   60.9321   25.3211   46.4776 H   0  0  0  0  0  0  0  0  0  0  0  0
   57.5476   21.9797   45.4278 H   0  0  0  0  0  0  0  0  0  0  0  0
   55.1813   21.3874   44.9221 H   0  0  0  0  0  0  0  0  0  0  0  0
   53.4470   23.1710   44.7819 H   0  0  0  0  0  0  0  0  0  0  0  0
   54.0695   25.5545   45.1431 H   0  0  0  0  0  0  0  0  0  0  0  0
  1  2  1  0
  2  3  1  0
  3  4  1  0
  4  5  1  0
  3  6  1  0
  6  7  1  0
  7  8  1  0
  8  9  1  0
  9 10  2  0
 10 11  1  0
 11 12  2  0
 12 13  1  0
 13 14  2  0
 14 15  1  0
 14 16  1  0
 16 17  2  0
 17 18  1  0
 18 19  2  0
 19 20  1  0
 20 21  2  0
 21 22  1  0
 22 23  1  0
 22 24  2  0
 24  9  1  0
 24 13  1  0
 21 16  1  0
  1 25  1  0
  1 26  1  0
  1 27  1  0
  2 28  1  0
  2 29  1  0
  4 30  1  0
  4 31  1  0
  5 32  1  0
  5 33  1  0
  5 34  1  0
  6 35  1  0
  6 36  1  0
  7 37  1  0
  7 38  1  0
  8 39  1  0
 10 40  1  0
 11 41  1  0
 12 42  1  0
 17 43  1  0
 18 44  1  0
 19 45  1  0
 20 46  1  0
M  CHG  2  15  -1  23  -1
M  END
>  <UniqueID>  (14) 
14

>  <SMILES>  (14) 
CCN(CC)CCNc1cccc2c([O-])c3ccccc3c([O-])c12

>  <Energy>  (14) 
63.97245911024182

>  <Genealogy>  (14) 
CCN(CC)CCNc1cccc2c([O-])c3ccccc3c([O-])c12 (protonated)
CCN(CC)CCNc1cccc2c([O-])c3ccccc3c([O-])c12 (3D coordinates assigned)
CCN(CC)CCNc1cccc2c([O-])c3ccccc3c([O-])c12 (optimized conformer: 63.97245911024182 kcal/mol)

>  <smiles>  (14) 
CCN(CC)CCNc1cccc2c(O)c3ccccc3c(O)c12

>  <score_type>  (14) 
oracle

>  <origin>  (14) 
adg

>  <m_score__min__energy>  (14) 
-12.69

>  <m_primary>  (14) 
energy

$$$$
14:0
     RDKit          3D

 27 27  0  0  0  0  0  0  0  0999 V2000
   61.2370   33.8280   46.9210 C   0  0  0  0  0  0  0  0  0  0  0  0
   60.0630   34.7040   47.0720 N   0  0  0  0  0  0  0  0  0  0  0  0
   58.9440   34.0130   47.7450 C   0  0  0  0  0  0  0  0  0  0  0  0
   58.3110   32.9130   46.8640 C   0  0  0  0  0  0  0  0  0  0  0  0
   58.5340   33.1620   45.4260 N   0  0  0  0  0  0  0  0  0  0  0  0
   57.6950   32.3120   44.5500 C   0  0  0  0  0  0  0  0  0  0  0  0
   57.4170   30.9010   45.1080 C   0  0  0  0  0  0  0  0  0  0  0  0
   56.2080   30.3460   44.5110 N   0  0  0  0  0  0  0  0  0  0  0  0
   56.2270   29.8390   43.3890 N   0  0  0  0  0  0  0  0  0  0  0  0
   56.2470   29.3320   42.2690 N   0  0  0  0  0  0  0  0  0  0  0  0
   58.4870   34.5940   45.0970 C   0  0  0  0  0  0  0  0  0  0  0  0
   59.6560   35.3240   45.7850 C   0  0  0  0  0  0  0  0  0  0  0  0
   61.6146   33.5463   47.9150 H   0  0  0  0  0  0  0  0  0  0  0  0
   60.9496   32.9218   46.3676 H   0  0  0  0  0  0  0  0  0  0  0  0
   62.0238   34.3615   46.3676 H   0  0  0  0  0  0  0  0  0  0  0  0
   59.3200   33.5511   48.6698 H   0  0  0  0  0  0  0  0  0  0  0  0
   58.1662   34.7623   47.9537 H   0  0  0  0  0  0  0  0  0  0  0  0
   58.7574   31.9436   47.1303 H   0  0  0  0  0  0  0  0  0  0  0  0
   57.2261   32.9137   47.0455 H   0  0  0  0  0  0  0  0  0  0  0  0
   56.7303   32.8190   44.4003 H   0  0  0  0  0  0  0  0  0  0  0  0
   58.2569   32.1745   43.6144 H   0  0  0  0  0  0  0  0  0  0  0  0
   58.2693   30.2454   44.8761 H   0  0  0  0  0  0  0  0  0  0  0  0
   57.2774   30.9697   46.1969 H   0  0  0  0  0  0  0  0  0  0  0  0
   58.5670   34.7215   44.0074 H   0  0  0  0  0  0  0  0  0  0  0  0
   57.5351   35.0176   45.4499 H   0  0  0  0  0  0  0  0  0  0  0  0
   60.5207   35.3158   45.1051 H   0  0  0  0  0  0  0  0  0  0  0  0
   59.3139   36.3449   46.0102 H   0  0  0  0  0  0  0  0  0  0  0  0
  1  2  1  0
  2  3  1  0
  3  4  1  0
  4  5  1  0
  5  6  1  0
  6  7  1  0
  7  8  1  0
  8  9  2  0
  9 10  2  0
  5 11  1  0
 11 12  1  0
 12  2  1  0
  1 13  1  0
  1 14  1  0
  1 15  1  0
  3 16  1  0
  3 17  1  0
  4 18  1  0
  4 19  1  0
  6 20  1  0
  6 21  1  0
  7 22  1  0
  7 23  1  0
 11 24  1  0
 11 25  1  0
 12 26  1  0
 12 27  1  0
M  CHG  2   9   1  10  -1
M  END
>  <UniqueID>  (15) 
15

>  <SMILES>  (15) 
CN1CCN(CCN=[N+]=[N-])CC1

>  <Energy>  (15) 
34.58862019596691

>  <Genealogy>  (15) 
CN1CCN(CCN=[N+]=[N-])CC1 (3D coordinates assigned)
CN1CCN(CCN=[N+]=[N-])CC1 (nonaromatic ring conformer: 34.58862019596691 kcal/mol)

>  <smiles>  (15) 
CN1CCN(CCN=[N+]=[N-])CC1

>  <score_type>  (15) 
oracle

>  <origin>  (15) 
adg

>  <m_score__min__energy>  (15) 
-4.9699999999999998

>  <m_primary>  (15) 
energy

$$$$
15:0
     RDKit          3D

 29 30  0  0  0  0  0  0  0  0999 V2000
   59.6530   35.3240   46.6820 C   0  0  0  0  0  0  0  0  0  0  0  0
   59.2970   34.8830   45.3760 O   0  0  0  0  0  0  0  0  0  0  0  0
   58.6960   33.6480   45.0930 C   0  0  0  0  0  0  0  0  0  0  0  0
   58.4170   33.3330   43.7580 C   0  0  0  0  0  0  0  0  0  0  0  0
   57.8220   32.1130   43.4250 C   0  0  0  0  0  0  0  0  0  0  0  0
   57.5050   31.1860   44.4260 C   0  0  0  0  0  0  0  0  0  0  0  0
   56.7640   29.6420   44.0030 S   0  0  0  0  0  0  0  0  0  0  0  0
   56.2760   29.7100   42.5840 O   0  0  0  0  0  0  0  0  0  0  0  0
   55.5690   29.4100   44.8870 O   0  0  0  0  0  0  0  0  0  0  0  0
   57.8710   28.2960   44.1710 N   0  0  0  0  0  0  0  0  0  0  0  0
   57.4320   27.3520   45.2030 C   0  0  0  0  0  0  0  0  0  0  0  0
   58.0180   27.7320   46.5550 C   0  0  0  0  0  0  0  0  0  0  0  0
   59.4910   28.7450   46.2900 S   0  0  0  0  0  0  0  0  0  0  0  0
   59.2290   28.7430   44.4930 C   0  0  0  0  0  0  0  0  0  0  0  0
   57.7740   31.4990   45.7660 C   0  0  0  0  0  0  0  0  0  0  0  0
   58.3690   32.7190   46.1000 C   0  0  0  0  0  0  0  0  0  0  0  0
   59.1471   34.6973   47.4312 H   0  0  0  0  0  0  0  0  0  0  0  0
   60.7423   35.2436   46.8119 H   0  0  0  0  0  0  0  0  0  0  0  0
   59.3446   36.3719   46.8119 H   0  0  0  0  0  0  0  0  0  0  0  0
   58.6682   34.0518   42.9642 H   0  0  0  0  0  0  0  0  0  0  0  0
   57.6018   31.8799   42.3728 H   0  0  0  0  0  0  0  0  0  0  0  0
   56.3340   27.3694   45.2663 H   0  0  0  0  0  0  0  0  0  0  0  0
   57.7798   26.3435   44.9346 H   0  0  0  0  0  0  0  0  0  0  0  0
   57.2758   28.3032   47.1319 H   0  0  0  0  0  0  0  0  0  0  0  0
   58.2860   26.8233   47.1140 H   0  0  0  0  0  0  0  0  0  0  0  0
   59.3760   29.7617   44.1050 H   0  0  0  0  0  0  0  0  0  0  0  0
   59.9492   28.0523   44.0301 H   0  0  0  0  0  0  0  0  0  0  0  0
   57.5156   30.7810   46.5583 H   0  0  0  0  0  0  0  0  0  0  0  0
   58.5826   32.9544   47.1531 H   0  0  0  0  0  0  0  0  0  0  0  0
  1  2  1  0
  2  3  1  0
  3  4  2  0
  4  5  1  0
  5  6  2  0
  6  7  1  0
  7  8  2  0
  7  9  2  0
  7 10  1  0
 10 11  1  0
 11 12  1  0
 12 13  1  0
 13 14  1  0
  6 15  1  0
 15 16  2  0
 16  3  1  0
 14 10  1  0
  1 17  1  0
  1 18  1  0
  1 19  1  0
  4 20  1  0
  5 21  1  0
 11 22  1  0
 11 23  1  0
 12 24  1  0
 12 25  1  0
 14 26  1  0
 14 27  1  0
 15 28  1  0
 16 29  1  0
M  END
>  <UniqueID>  (16) 
16

>  <SMILES>  (16) 
COc1ccc(S(=O)(=O)N2CCSC2)cc1

>  <Energy>  (16) 
25.116002802689703

>  <Genealogy>  (16) 
COc1ccc(S(=O)(=O)N2CCSC2)cc1 (3D coordinates assigned)
COc1ccc(S(=O)(=O)N2CCSC2)cc1 (nonaromatic ring conformer: 25.116002802689703 kcal/mol)

>  <smiles>  (16) 
COc1ccc(S(=O)(=O)N2CCSC2)cc1

>  <score_type>  (16) 
oracle

>  <origin>  (16) 
adg

>  <m_score__min__energy>  (16) 
-6.1299999999999999

>  <m_primary>  (16) 
energy

$$$$
16:0
     RDKit          3D

 43 45  0  0  0  0  0  0  0  0999 V2000
   58.5612   24.4799   46.6588 H   0  0  0  0  0  0  0  0  0  0  0  0
   58.0100   25.3850   46.3640 C   0  0  0  0  0  0  0  0  0  0  0  0
   58.6660   26.4360   45.8070 N   0  0  0  0  0  0  0  0  0  0  0  0
   58.0030   27.5640   45.4370 C   0  0  0  0  0  0  0  0  0  0  0  0
   58.5508   28.4050   44.9868 H   0  0  0  0  0  0  0  0  0  0  0  0
   56.6210   27.6490   45.6320 C   0  0  0  0  0  0  0  0  0  0  0  0
   55.9270   28.8470   45.2410 N   0  0  0  0  0  0  0  0  0  0  0  0
   56.3980   29.8440   44.5510 C   0  0  0  0  0  0  0  0  0  0  0  0
   56.7570   30.9840   45.1980 N   0  0  0  0  0  0  0  0  0  0  0  0
   57.2590   32.0540   44.5260 C   0  0  0  0  0  0  0  0  0  0  0  0
   57.6040   33.3090   45.2760 C   0  0  0  0  0  0  0  0  0  0  0  0
   56.7644   34.0161   45.2042 H   0  0  0  0  0  0  0  0  0  0  0  0
   58.5097   33.7500   44.8343 H   0  0  0  0  0  0  0  0  0  0  0  0
   57.8630   33.0080   46.6900 N   0  0  0  0  0  0  0  0  0  0  0  0
   57.3790   32.1190   46.9610 H   0  0  0  0  0  0  0  0  0  0  0  0
   57.4720   33.7730   47.2890 H   0  0  0  0  0  0  0  0  0  0  0  0
   59.2840   32.8850   46.9190 C   0  0  0  0  0  0  0  0  0  0  0  0
   60.1410   33.9410   46.5670 C   0  0  0  0  0  0  0  0  0  0  0  0
   59.7211   34.8627   46.1379 H   0  0  0  0  0  0  0  0  0  0  0  0
   61.5190   33.8330   46.7560 C   0  0  0  0  0  0  0  0  0  0  0  0
   62.1765   34.6711   46.4817 H   0  0  0  0  0  0  0  0  0  0  0  0
   62.0710   32.6590   47.2950 C   0  0  0  0  0  0  0  0  0  0  0  0
   63.4490   32.5030   47.5070 O   0  0  0  0  0  0  0  0  0  0  0  0
   64.1230   32.8650   48.7080 C   0  0  0  0  0  0  0  0  0  0  0  0
   63.5260   32.5443   49.5744 H   0  0  0  0  0  0  0  0  0  0  0  0
   65.1068   32.3739   48.7387 H   0  0  0  0  0  0  0  0  0  0  0  0
   64.2569   33.9564   48.7387 H   0  0  0  0  0  0  0  0  0  0  0  0
   61.2240   31.5980   47.6330 C   0  0  0  0  0  0  0  0  0  0  0  0
   61.6517   30.6750   48.0515 H   0  0  0  0  0  0  0  0  0  0  0  0
   59.8310   31.6950   47.4450 C   0  0  0  0  0  0  0  0  0  0  0  0
   58.9660   30.6340   47.7640 O   0  0  0  0  0  0  0  0  0  0  0  0
   59.3740   29.2820   47.9390 C   0  0  0  0  0  0  0  0  0  0  0  0
   59.4423   29.0557   49.0133 H   0  0  0  0  0  0  0  0  0  0  0  0
   58.6377   28.6131   47.4695 H   0  0  0  0  0  0  0  0  0  0  0  0
   60.3574   29.1321   47.4695 H   0  0  0  0  0  0  0  0  0  0  0  0
   57.3930   31.9930   43.1350 C   0  0  0  0  0  0  0  0  0  0  0  0
   57.7814   32.8524   42.5688 H   0  0  0  0  0  0  0  0  0  0  0  0
   57.0230   30.8180   42.4830 C   0  0  0  0  0  0  0  0  0  0  0  0
   57.1257   30.7387   41.3907 H   0  0  0  0  0  0  0  0  0  0  0  0
   56.5360   29.7720   43.1970 N   0  0  0  0  0  0  0  0  0  0  0  0
   55.9680   26.5920   46.1910 N   0  0  0  0  0  0  0  0  0  0  0  0
   56.6290   25.4640   46.5590 C   0  0  0  0  0  0  0  0  0  0  0  0
   56.0822   24.6208   47.0063 H   0  0  0  0  0  0  0  0  0  0  0  0
  1  2  1  0
  2  3  2  0
  3  4  1  0
  4  5  1  0
  4  6  2  0
  6  7  1  0
  7  8  2  0
  8  9  1  0
  9 10  2  0
 10 11  1  0
 11 12  1  0
 11 13  1  0
 11 14  1  0
 14 15  1  0
 14 16  1  0
 14 17  1  0
 17 18  2  0
 18 19  1  0
 18 20  1  0
 20 21  1  0
 20 22  2  0
 22 23  1  0
 23 24  1  0
 24 25  1  0
 24 26  1  0
 24 27  1  0
 22 28  1  0
 28 29  1  0
 28 30  2  0
 30 31  1  0
 31 32  1  0
 32 33  1  0
 32 34  1  0
 32 35  1  0
 10 36  1  0
 36 37  1  0
 36 38  2  0
 38 39  1  0
 38 40  1  0
  6 41  1  0
 41 42  2  0
 42 43  1  0
 42  2  1  0
 40  8  1  0
 30 17  1  0
M  CHG  2  14   1  40  -1
M  END
>  <UniqueID>  (17) 
17

>  <SMILES>  (17) 
COc1ccc([NH2+]Cc2cc[n-]/c(=N\c3cnccn3)n2)c(OC)c1

>  <Energy>  (17) 
50.272532431355984

>  <Genealogy>  (17) 
COc1ccc([NH2+]Cc2cc[n-]c(=Nc3cnccn3)n2)c(OC)c1 (protonated)
COc1ccc([NH2+]Cc2cc[n-]/c(=N\c3cnccn3)n2)c(OC)c1 (cis-trans isomerization)
COc1ccc([NH2+]Cc2cc[n-]/c(=N\c3cnccn3)n2)c(OC)c1 (3D coordinates assigned)
COc1ccc([NH2+]Cc2cc[n-]/c(=N\c3cnccn3)n2)c(OC)c1 (optimized conformer: 50.272532431355984 kcal/mol)

>  <smiles>  (17) 
COc1ccc(NCc2cc[nH]c(=Nc3cnccn3)n2)c(OC)c1

>  <score_type>  (17) 
oracle

>  <origin>  (17) 
adg

>  <m_score__min__energy>  (17) 
-7.1100000000000003

>  <m_primary>  (17) 
energy

$$$$
17:0
     RDKit          3D

 50 52  0  0  0  0  0  0  0  0999 V2000
   57.6750   26.5880   46.7320 C   0  0  0  0  0  0  0  0  0  0  0  0
   58.4750   27.6500   47.4920 C   0  0  0  0  0  0  0  0  0  0  0  0
   59.3510   28.4540   46.6230 N   0  0  0  0  0  0  0  0  0  0  0  0
   60.3880   27.7430   45.8580 C   0  0  0  0  0  0  0  0  0  0  0  0
   61.0610   28.6650   44.8490 C   0  0  0  0  0  0  0  0  0  0  0  0
   58.8820   29.7110   46.0950 C   0  0  0  0  0  0  0  0  0  0  0  0
   57.9980   29.6780   45.0090 C   0  0  0  0  0  0  0  0  0  0  0  0
   57.5100   30.8530   44.4500 C   0  0  0  0  0  0  0  0  0  0  0  0
   57.8950   32.0930   44.9680 C   0  0  0  0  0  0  0  0  0  0  0  0
   57.3930   33.2710   44.3980 C   0  0  0  0  0  0  0  0  0  0  0  0
   57.7620   34.5120   44.9110 C   0  0  0  0  0  0  0  0  0  0  0  0
   58.6360   34.5910   45.9950 C   0  0  0  0  0  0  0  0  0  0  0  0
   59.1550   33.4240   46.5820 C   0  0  0  0  0  0  0  0  0  0  0  0
   58.7870   32.1570   46.0710 C   0  0  0  0  0  0  0  0  0  0  0  0
   59.2830   30.9580   46.6470 C   0  0  0  0  0  0  0  0  0  0  0  0
   60.2100   31.0480   47.8140 C   0  0  0  0  0  0  0  0  0  0  0  0
   60.5580   30.0080   48.4320 O   0  0  0  0  0  0  0  0  0  0  0  0
   60.7020   32.3320   48.2490 N   0  0  0  0  0  0  0  0  0  0  0  0
   61.7540   32.4340   49.2760 C   0  0  0  0  0  0  0  0  0  0  0  0
   62.9440   33.3200   48.8330 C   0  0  0  0  0  0  0  0  0  0  0  0
   63.5370   32.9980   47.5130 N   0  0  0  0  0  0  0  0  0  0  0  0
   63.1210   33.9080   46.4360 C   0  0  0  0  0  0  0  0  0  0  0  0
   63.3920   31.5880   47.1260 C   0  0  0  0  0  0  0  0  0  0  0  0
   60.0870   33.5210   47.7230 C   0  0  0  0  0  0  0  0  0  0  0  0
   60.3340   34.6450   48.2420 O   0  0  0  0  0  0  0  0  0  0  0  0
   57.1738   25.9227   47.4504 H   0  0  0  0  0  0  0  0  0  0  0  0
   56.9209   27.0797   46.0998 H   0  0  0  0  0  0  0  0  0  0  0  0
   58.3557   25.9989   46.0998 H   0  0  0  0  0  0  0  0  0  0  0  0
   57.7678   28.3256   47.9954 H   0  0  0  0  0  0  0  0  0  0  0  0
   59.1228   27.1201   48.2059 H   0  0  0  0  0  0  0  0  0  0  0  0
   61.1475   27.3591   46.5549 H   0  0  0  0  0  0  0  0  0  0  0  0
   59.9105   26.9176   45.3097 H   0  0  0  0  0  0  0  0  0  0  0  0
   61.6279   29.4417   45.3832 H   0  0  0  0  0  0  0  0  0  0  0  0
   61.7459   28.0800   44.2176 H   0  0  0  0  0  0  0  0  0  0  0  0
   60.2951   29.1390   44.2176 H   0  0  0  0  0  0  0  0  0  0  0  0
   57.6858   28.7088   44.5929 H   0  0  0  0  0  0  0  0  0  0  0  0
   56.8178   30.8071   43.5963 H   0  0  0  0  0  0  0  0  0  0  0  0
   56.7046   33.2150   43.5418 H   0  0  0  0  0  0  0  0  0  0  0  0
   57.3630   35.4325   44.4600 H   0  0  0  0  0  0  0  0  0  0  0  0
   58.9217   35.5754   46.3942 H   0  0  0  0  0  0  0  0  0  0  0  0
   61.3145   32.8663   50.1870 H   0  0  0  0  0  0  0  0  0  0  0  0
   62.1440   31.4205   49.4511 H   0  0  0  0  0  0  0  0  0  0  0  0
   62.5937   34.3622   48.7995 H   0  0  0  0  0  0  0  0  0  0  0  0
   63.7407   33.1368   49.5690 H   0  0  0  0  0  0  0  0  0  0  0  0
   62.7013   34.8260   46.8733 H   0  0  0  0  0  0  0  0  0  0  0  0
   63.9920   34.1629   45.8144 H   0  0  0  0  0  0  0  0  0  0  0  0
   62.3583   33.4161   45.8144 H   0  0  0  0  0  0  0  0  0  0  0  0
   63.3279   30.9644   48.0299 H   0  0  0  0  0  0  0  0  0  0  0  0
   62.4764   31.4639   46.5292 H   0  0  0  0  0  0  0  0  0  0  0  0
   64.2632   31.2801   46.5292 H   0  0  0  0  0  0  0  0  0  0  0  0
  1  2  1  0
  2  3  1  0
  3  4  1  0
  4  5  1  0
  3  6  1  0
  6  7  2  0
  7  8  1  0
  8  9  2  0
  9 10  1  0
 10 11  2  0
 11 12  1  0
 12 13  2  0
 13 14  1  0
 14 15  2  0
 15 16  1  0
 16 17  2  0
 16 18  1  0
 18 19  1  0
 19 20  1  0
 20 21  1  0
 21 22  1  0
 21 23  1  0
 18 24  1  0
 24 25  2  0
 15  6  1  0
 14  9  1  0
 24 13  1  0
  1 26  1  0
  1 27  1  0
  1 28  1  0
  2 29  1  0
  2 30  1  0
  4 31  1  0
  4 32  1  0
  5 33  1  0
  5 34  1  0
  5 35  1  0
  7 36  1  0
  8 37  1  0
 10 38  1  0
 11 39  1  0
 12 40  1  0
 19 41  1  0
 19 42  1  0
 20 43  1  0
 20 44  1  0
 22 45  1  0
 22 46  1  0
 22 47  1  0
 23 48  1  0
 23 49  1  0
 23 50  1  0
M  END
>  <UniqueID>  (18) 
18

>  <SMILES>  (18) 
CCN(CC)c1ccc2cccc3c2c1C(=O)N(CCN(C)C)C3=O

>  <Energy>  (18) 
63.54221414371374

>  <Genealogy>  (18) 
CCN(CC)c1ccc2cccc3c2c1C(=O)N(CCN(C)C)C3=O (3D coordinates assigned)
CCN(CC)c1ccc2cccc3c2c1C(=O)N(CCN(C)C)C3=O (nonaromatic ring conformer: 63.54221414371374 kcal/mol)

>  <smiles>  (18) 
CCN(CC)c1ccc2cccc3c2c1C(=O)N(CCN(C)C)C3=O

>  <score_type>  (18) 
oracle

>  <origin>  (18) 
adg

>  <m_score__min__energy>  (18) 
-6.9299999999999997

>  <m_primary>  (18) 
energy

$$$$
18:0
     RDKit          3D

 61 63  0  0  0  0  0  0  0  0999 V2000
   63.2460   33.7840   46.3880 C   0  0  0  0  0  0  0  0  0  0  0  0
   63.7680   33.4700   47.7900 C   0  0  0  0  0  0  0  0  0  0  0  0
   63.0010   32.3800   48.4380 N   0  0  0  0  0  0  0  0  0  0  0  0
   62.2210   31.6020   47.4500 C   0  0  0  0  0  0  0  0  0  0  0  0
   61.3730   30.5440   48.1500 C   0  0  0  0  0  0  0  0  0  0  0  0
   62.1670   32.8210   49.5860 C   0  0  0  0  0  0  0  0  0  0  0  0
   61.5240   34.2230   49.4020 C   0  0  0  0  0  0  0  0  0  0  0  0
   60.0400   34.2350   49.4800 N   0  0  0  0  0  0  0  0  0  0  0  0
   59.4600   33.4640   50.5920 C   0  0  0  0  0  0  0  0  0  0  0  0
   59.2690   34.1210   48.2140 C   0  0  1  0  0  0  0  0  0  0  0  0
   60.0140   34.7890   47.0490 C   0  0  0  0  0  0  0  0  0  0  0  0
   59.1370   34.8390   45.7820 C   0  0  0  0  0  0  0  0  0  0  0  0
   57.9560   33.8490   45.8270 C   0  0  0  0  0  0  0  0  0  0  0  0
   58.3270   32.5550   46.4400 N   0  0  0  0  0  0  0  0  0  0  0  0
   59.1880   31.7550   45.5400 C   0  0  0  0  0  0  0  0  0  0  0  0
   58.3650   30.7370   44.7770 C   0  0  0  0  0  0  0  0  0  0  0  0
   57.4000   31.1960   43.8700 C   0  0  0  0  0  0  0  0  0  0  0  0
   56.6450   30.2890   43.1310 C   0  0  0  0  0  0  0  0  0  0  0  0
   56.8250   28.9530   43.2880 N   0  0  0  0  0  0  0  0  0  0  0  0
   57.7290   28.4560   44.1790 C   0  0  0  0  0  0  0  0  0  0  0  0
   57.8730   27.0670   44.3300 C   0  0  0  0  0  0  0  0  0  0  0  0
   58.7840   26.5480   45.2510 C   0  0  0  0  0  0  0  0  0  0  0  0
   59.5560   27.4080   46.0320 C   0  0  0  0  0  0  0  0  0  0  0  0
   59.4290   28.7920   45.8940 C   0  0  0  0  0  0  0  0  0  0  0  0
   58.5230   29.3380   44.9590 C   0  0  0  0  0  0  0  0  0  0  0  0
   58.8730   32.6710   47.8250 C   0  0  0  0  0  0  0  0  0  0  0  0
   62.3057   34.3496   46.4650 H   0  0  0  0  0  0  0  0  0  0  0  0
   63.9913   34.3838   45.8451 H   0  0  0  0  0  0  0  0  0  0  0  0
   63.0654   32.8445   45.8451 H   0  0  0  0  0  0  0  0  0  0  0  0
   64.8227   33.1665   47.7163 H   0  0  0  0  0  0  0  0  0  0  0  0
   63.6559   34.3755   48.4045 H   0  0  0  0  0  0  0  0  0  0  0  0
   61.5616   32.2833   46.8923 H   0  0  0  0  0  0  0  0  0  0  0  0
   62.9181   31.1006   46.7625 H   0  0  0  0  0  0  0  0  0  0  0  0
   61.4668   30.6610   49.2397 H   0  0  0  0  0  0  0  0  0  0  0  0
   60.3196   30.6659   47.8574 H   0  0  0  0  0  0  0  0  0  0  0  0
   61.7213   29.5424   47.8574 H   0  0  0  0  0  0  0  0  0  0  0  0
   61.3602   32.0871   49.7287 H   0  0  0  0  0  0  0  0  0  0  0  0
   62.8367   32.8912   50.4558 H   0  0  0  0  0  0  0  0  0  0  0  0
   61.9148   34.8861   50.1879 H   0  0  0  0  0  0  0  0  0  0  0  0
   61.7868   34.5572   48.3875 H   0  0  0  0  0  0  0  0  0  0  0  0
   59.7865   33.8980   51.5486 H   0  0  0  0  0  0  0  0  0  0  0  0
   58.3624   33.4989   50.5291 H   0  0  0  0  0  0  0  0  0  0  0  0
   59.7978   32.4190   50.5291 H   0  0  0  0  0  0  0  0  0  0  0  0
   58.3266   34.6525   48.4124 H   0  0  0  0  0  0  0  0  0  0  0  0
   60.2857   35.8150   47.3380 H   0  0  0  0  0  0  0  0  0  0  0  0
   60.9143   34.1975   46.8264 H   0  0  0  0  0  0  0  0  0  0  0  0
   58.7364   35.8577   45.6730 H   0  0  0  0  0  0  0  0  0  0  0  0
   59.7726   34.5542   44.9306 H   0  0  0  0  0  0  0  0  0  0  0  0
   57.1415   34.2975   46.4147 H   0  0  0  0  0  0  0  0  0  0  0  0
   57.6445   33.6517   44.7906 H   0  0  0  0  0  0  0  0  0  0  0  0
   59.6852   32.4266   44.8247 H   0  0  0  0  0  0  0  0  0  0  0  0
   59.9355   31.2226   46.1465 H   0  0  0  0  0  0  0  0  0  0  0  0
   57.2386   32.2765   43.7415 H   0  0  0  0  0  0  0  0  0  0  0  0
   55.8967   30.6582   42.4142 H   0  0  0  0  0  0  0  0  0  0  0  0
   56.2400   28.3040   42.7150 H   0  0  0  0  0  0  0  0  0  0  0  0
   57.2643   26.3844   43.7188 H   0  0  0  0  0  0  0  0  0  0  0  0
   58.8934   25.4590   45.3612 H   0  0  0  0  0  0  0  0  0  0  0  0
   60.2686   26.9940   46.7605 H   0  0  0  0  0  0  0  0  0  0  0  0
   60.0392   29.4613   46.5182 H   0  0  0  0  0  0  0  0  0  0  0  0
   58.1080   32.3173   48.5318 H   0  0  0  0  0  0  0  0  0  0  0  0
   59.7891   32.0634   47.8641 H   0  0  0  0  0  0  0  0  0  0  0  0
  1  2  1  0
  2  3  1  0
  3  4  1  0
  4  5  1  0
  3  6  1  0
  6  7  1  0
  7  8  1  0
  8  9  1  0
  8 10  1  0
 10 11  1  0
 11 12  1  0
 12 13  1  0
 13 14  1  0
 14 15  1  0
 15 16  1  0
 16 17  2  0
 17 18  1  0
 18 19  2  0
 19 20  1  0
 20 21  2  0
 21 22  1  0
 22 23  2  0
 23 24  1  0
 24 25  2  0
 14 26  1  0
 26 10  1  0
 25 16  1  0
 25 20  1  0
  1 27  1  0
  1 28  1  0
  1 29  1  0
  2 30  1  0
  2 31  1  0
  4 32  1  0
  4 33  1  0
  5 34  1  0
  5 35  1  0
  5 36  1  0
  6 37  1  0
  6 38  1  0
  7 39  1  0
  7 40  1  0
  9 41  1  0
  9 42  1  0
  9 43  1  0
 10 44  1  1
 11 45  1  0
 11 46  1  0
 12 47  1  0
 12 48  1  0
 13 49  1  0
 13 50  1  0
 15 51  1  0
 15 52  1  0
 17 53  1  0
 18 54  1  0
 19 55  1  0
 21 56  1  0
 22 57  1  0
 23 58  1  0
 24 59  1  0
 26 60  1  0
 26 61  1  0
M  CHG  1  19   1
M  END
>  <UniqueID>  (19) 
19

>  <SMILES>  (19) 
CCN(CC)CCN(C)[C@H]1CCCN(Cc2cc[nH+]c3ccccc23)C1

>  <Energy>  (19) 
86.35737803499575

>  <Genealogy>  (19) 
CCN(CC)CCN(C)C1CCCN(Cc2cc[nH+]c3ccccc23)C1 (protonated)
CCN(CC)CCN(C)[C@H]1CCCN(Cc2cc[nH+]c3ccccc23)C1 (chirality)
CCN(CC)CCN(C)[C@H]1CCCN(Cc2cc[nH+]c3ccccc23)C1 (3D coordinates assigned)
CCN(CC)CCN(C)[C@H]1CCCN(Cc2cc[nH+]c3ccccc23)C1 (nonaromatic ring conformer: 86.35737803499575 kcal/mol)

>  <smiles>  (19) 
CCN(CC)CCN(C)C1CCCN(Cc2ccnc3ccccc23)C1

>  <score_type>  (19) 
oracle

>  <origin>  (19) 
adg

>  <m_score__min__energy>  (19) 
-7.0599999999999996

>  <m_primary>  (19) 
energy

$$$$
19:0
     RDKit          3D

 48 50  0  0  0  0  0  0  0  0999 V2000
   55.9680   25.9250   45.9740 C   0  0  0  0  0  0  0  0  0  0  0  0
   55.6600   27.2720   45.6280 O   0  0  0  0  0  0  0  0  0  0  0  0
   56.6180   28.2530   45.3320 C   0  0  0  0  0  0  0  0  0  0  0  0
   56.2600   29.2920   44.4650 C   0  0  0  0  0  0  0  0  0  0  0  0
   57.1770   30.2950   44.1410 C   0  0  0  0  0  0  0  0  0  0  0  0
   58.4630   30.2690   44.6830 C   0  0  0  0  0  0  0  0  0  0  0  0
   58.8430   29.2360   45.5520 C   0  0  0  0  0  0  0  0  0  0  0  0
   60.2310   29.2230   46.1400 C   0  0  0  0  0  0  0  0  0  0  0  0
   60.1970   29.6640   47.5510 N   0  0  0  0  0  0  0  0  0  0  0  0
   61.3900   30.4730   47.9160 C   0  0  0  0  0  0  0  0  0  0  0  0
   61.0770   31.9740   47.9890 C   0  0  0  0  0  0  0  0  0  0  0  0
   60.0400   32.2620   49.0050 N   0  0  0  0  0  0  0  0  0  0  0  0
   59.4330   33.5870   48.7620 C   0  0  0  0  0  0  0  0  0  0  0  0
   58.8930   33.6750   47.3500 C   0  0  0  0  0  0  0  0  0  0  0  0
   57.5540   33.3210   47.1200 C   0  0  0  0  0  0  0  0  0  0  0  0
   57.0160   33.3870   45.8350 C   0  0  0  0  0  0  0  0  0  0  0  0
   57.8180   33.8150   44.7810 C   0  0  0  0  0  0  0  0  0  0  0  0
   59.1100   34.1670   45.0100 N   0  0  0  0  0  0  0  0  0  0  0  0
   59.6720   34.1150   46.2500 C   0  0  0  0  0  0  0  0  0  0  0  0
   61.1030   34.5390   46.3970 C   0  0  0  0  0  0  0  0  0  0  0  0
   59.0180   31.1900   49.1240 C   0  0  0  0  0  0  0  0  0  0  0  0
   58.9130   30.3400   47.8500 C   0  0  0  0  0  0  0  0  0  0  0  0
   57.9180   28.2290   45.8760 C   0  0  0  0  0  0  0  0  0  0  0  0
   55.9911   25.8238   47.0691 H   0  0  0  0  0  0  0  0  0  0  0  0
   55.1998   25.2553   45.5600 H   0  0  0  0  0  0  0  0  0  0  0  0
   56.9509   25.6557   45.5600 H   0  0  0  0  0  0  0  0  0  0  0  0
   55.2479   29.3190   44.0350 H   0  0  0  0  0  0  0  0  0  0  0  0
   56.8851   31.1063   43.4579 H   0  0  0  0  0  0  0  0  0  0  0  0
   59.1813   31.0620   44.4275 H   0  0  0  0  0  0  0  0  0  0  0  0
   60.6367   28.2018   46.0891 H   0  0  0  0  0  0  0  0  0  0  0  0
   60.8682   29.9118   45.5660 H   0  0  0  0  0  0  0  0  0  0  0  0
   61.7560   30.1399   48.8984 H   0  0  0  0  0  0  0  0  0  0  0  0
   62.1485   30.3255   47.1331 H   0  0  0  0  0  0  0  0  0  0  0  0
   61.9959   32.5186   48.2516 H   0  0  0  0  0  0  0  0  0  0  0  0
   60.6984   32.2962   47.0078 H   0  0  0  0  0  0  0  0  0  0  0  0
   58.6096   33.7435   49.4744 H   0  0  0  0  0  0  0  0  0  0  0  0
   60.2040   34.3602   48.8957 H   0  0  0  0  0  0  0  0  0  0  0  0
   56.9249   32.9893   47.9591 H   0  0  0  0  0  0  0  0  0  0  0  0
   55.9683   33.1036   45.6562 H   0  0  0  0  0  0  0  0  0  0  0  0
   57.4057   33.8682   43.7626 H   0  0  0  0  0  0  0  0  0  0  0  0
   61.3554   34.6138   47.4650 H   0  0  0  0  0  0  0  0  0  0  0  0
   61.7568   33.7960   45.9169 H   0  0  0  0  0  0  0  0  0  0  0  0
   61.2464   35.5182   45.9169 H   0  0  0  0  0  0  0  0  0  0  0  0
   59.2892   30.5347   49.9649 H   0  0  0  0  0  0  0  0  0  0  0  0
   58.0429   31.6719   49.2879 H   0  0  0  0  0  0  0  0  0  0  0  0
   58.1307   29.5793   47.9894 H   0  0  0  0  0  0  0  0  0  0  0  0
   58.6633   31.0026   47.0082 H   0  0  0  0  0  0  0  0  0  0  0  0
   58.2102   27.4171   46.5583 H   0  0  0  0  0  0  0  0  0  0  0  0
  1  2  1  0
  2  3  1  0
  3  4  2  0
  4  5  1  0
  5  6  2  0
  6  7  1  0
  7  8  1  0
  8  9  1  0
  9 10  1  0
 10 11  1  0
 11 12  1  0
 12 13  1  0
 13 14  1  0
 14 15  2  0
 15 16  1  0
 16 17  2  0
 17 18  1  0
 18 19  2  0
 19 20  1  0
 12 21  1  0
 21 22  1  0
  7 23  2  0
 23  3  1  0
 22  9  1  0
 19 14  1  0
  1 24  1  0
  1 25  1  0
  1 26  1  0
  4 27  1  0
  5 28  1  0
  6 29  1  0
  8 30  1  0
  8 31  1  0
 10 32  1  0
 10 33  1  0
 11 34  1  0
 11 35  1  0
 13 36  1  0
 13 37  1  0
 15 38  1  0
 16 39  1  0
 17 40  1  0
 20 41  1  0
 20 42  1  0
 20 43  1  0
 21 44  1  0
 21 45  1  0
 22 46  1  0
 22 47  1  0
 23 48  1  0
M  END
>  <UniqueID>  (20) 
20

>  <SMILES>  (20) 
COc1cccc(CN2CCN(Cc3cccnc3C)CC2)c1

>  <Energy>  (20) 
62.27521547688156

>  <Genealogy>  (20) 
COc1cccc(CN2CCN(Cc3cccnc3C)CC2)c1 (3D coordinates assigned)
COc1cccc(CN2CCN(Cc3cccnc3C)CC2)c1 (nonaromatic ring conformer: 62.27521547688156 kcal/mol)

>  <smiles>  (20) 
COc1cccc(CN2CCN(Cc3cccnc3C)CC2)c1

>  <score_type>  (20) 
oracle

>  <origin>  (20) 
adg

>  <m_score__min__energy>  (20) 
-8.4800000000000004

>  <m_primary>  (20) 
energy

$$$$
20:0
     RDKit          3D

 55 57  0  0  0  0  0  0  0  0999 V2000
   62.6550   30.1000   51.0370 C   0  0  0  0  0  0  0  0  0  0  0  0
   61.8300   30.6270   50.0000 O   0  0  0  0  0  0  0  0  0  0  0  0
   62.1910   31.6920   49.1560 C   0  0  0  0  0  0  0  0  0  0  0  0
   62.9020   31.4810   47.9560 C   0  0  0  0  0  0  0  0  0  0  0  0
   63.2350   32.5630   47.1320 C   0  0  0  0  0  0  0  0  0  0  0  0
   62.8600   33.8580   47.4900 C   0  0  0  0  0  0  0  0  0  0  0  0
   62.1590   34.0820   48.6760 C   0  0  0  0  0  0  0  0  0  0  0  0
   61.8280   33.0060   49.5210 C   0  0  0  0  0  0  0  0  0  0  0  0
   61.0460   33.2590   50.7820 C   0  0  0  0  0  0  0  0  0  0  0  0
   60.0150   32.2370   50.9460 N   0  0  0  0  0  0  0  0  0  0  0  0
   58.7110   32.5300   51.4670 C   0  0  0  0  0  0  0  0  0  0  0  0
   58.4080   33.7070   51.8020 O   0  0  0  0  0  0  0  0  0  0  0  0
   57.6910   31.4380   51.5930 C   0  0  0  0  0  0  0  0  0  0  0  0
   57.7790   30.5570   50.4780 O   0  0  0  0  0  0  0  0  0  0  0  0
   58.8740   29.7160   50.2440 C   0  0  0  0  0  0  0  0  0  0  0  0
   59.5520   29.2890   51.2200 O   0  0  0  0  0  0  0  0  0  0  0  0
   59.2710   29.3640   48.8540 C   0  0  0  0  0  0  0  0  0  0  0  0
   59.8460   28.1000   48.6080 C   0  0  0  0  0  0  0  0  0  0  0  0
   60.3150   27.7630   47.3370 C   0  0  0  0  0  0  0  0  0  0  0  0
   60.2200   28.6770   46.2900 C   0  0  0  0  0  0  0  0  0  0  0  0
   59.6460   29.9290   46.5080 C   0  0  0  0  0  0  0  0  0  0  0  0
   59.1630   30.2840   47.7790 C   0  0  0  0  0  0  0  0  0  0  0  0
   58.5260   31.5600   47.9470 N   0  0  0  0  0  0  0  0  0  0  0  0
   58.5040   32.5790   46.9320 C   0  0  0  0  0  0  0  0  0  0  0  0
   59.2750   33.7370   47.1180 C   0  0  0  0  0  0  0  0  0  0  0  0
   59.2910   34.7430   46.1500 C   0  0  0  0  0  0  0  0  0  0  0  0
   58.5440   34.5980   44.9790 C   0  0  0  0  0  0  0  0  0  0  0  0
   57.7880   33.4410   44.7670 C   0  0  0  0  0  0  0  0  0  0  0  0
   57.7730   32.4120   45.7310 C   0  0  0  0  0  0  0  0  0  0  0  0
   57.0710   31.2150   45.5150 O   0  0  0  0  0  0  0  0  0  0  0  0
   56.9640   30.5510   44.2590 C   0  0  0  0  0  0  0  0  0  0  0  0
   62.2316   30.3705   52.0155 H   0  0  0  0  0  0  0  0  0  0  0  0
   62.7014   29.0046   50.9477 H   0  0  0  0  0  0  0  0  0  0  0  0
   63.6684   30.5184   50.9477 H   0  0  0  0  0  0  0  0  0  0  0  0
   63.1962   30.4615   47.6662 H   0  0  0  0  0  0  0  0  0  0  0  0
   63.7937   32.3914   46.2001 H   0  0  0  0  0  0  0  0  0  0  0  0
   63.1173   34.7044   46.8363 H   0  0  0  0  0  0  0  0  0  0  0  0
   61.8636   35.1050   48.9519 H   0  0  0  0  0  0  0  0  0  0  0  0
   61.7276   33.2302   51.6449 H   0  0  0  0  0  0  0  0  0  0  0  0
   60.5669   34.2470   50.7168 H   0  0  0  0  0  0  0  0  0  0  0  0
   60.2280   31.2640   50.6330 H   0  0  0  0  0  0  0  0  0  0  0  0
   57.8749   30.8731   52.5188 H   0  0  0  0  0  0  0  0  0  0  0  0
   56.6862   31.8847   51.6212 H   0  0  0  0  0  0  0  0  0  0  0  0
   59.9259   27.3707   49.4276 H   0  0  0  0  0  0  0  0  0  0  0  0
   60.7609   26.7728   47.1618 H   0  0  0  0  0  0  0  0  0  0  0  0
   60.5977   28.4112   45.2916 H   0  0  0  0  0  0  0  0  0  0  0  0
   59.5706   30.6457   45.6770 H   0  0  0  0  0  0  0  0  0  0  0  0
   57.9550   31.7050   48.8130 H   0  0  0  0  0  0  0  0  0  0  0  0
   59.8720   33.8530   48.0346 H   0  0  0  0  0  0  0  0  0  0  0  0
   59.8922   35.6502   46.3098 H   0  0  0  0  0  0  0  0  0  0  0  0
   58.5504   35.3958   44.2217 H   0  0  0  0  0  0  0  0  0  0  0  0
   57.2015   33.3329   43.8427 H   0  0  0  0  0  0  0  0  0  0  0  0
   56.7910   29.4775   44.4253 H   0  0  0  0  0  0  0  0  0  0  0  0
   56.1225   30.9743   43.6910 H   0  0  0  0  0  0  0  0  0  0  0  0
   57.8959   30.6885   43.6910 H   0  0  0  0  0  0  0  0  0  0  0  0
  1  2  1  0
  2  3  1  0
  3  4  2  0
  4  5  1  0
  5  6  2  0
  6  7  1  0
  7  8  2  0
  8  9  1  0
  9 10  1  0
 10 11  1  0
 11 12  2  0
 11 13  1  0
 13 14  1  0
 14 15  1  0
 15 16  2  0
 15 17  1  0
 17 18  2  0
 18 19  1  0
 19 20  2  0
 20 21  1  0
 21 22  2  0
 22 23  1  0
 23 24  1  0
 24 25  2  0
 25 26  1  0
 26 27  2  0
 27 28  1  0
 28 29  2  0
 29 30  1  0
 30 31  1  0
  8  3  1  0
 22 17  1  0
 29 24  1  0
  1 32  1  0
  1 33  1  0
  1 34  1  0
  4 35  1  0
  5 36  1  0
  6 37  1  0
  7 38  1  0
  9 39  1  0
  9 40  1  0
 10 41  1  0
 13 42  1  0
 13 43  1  0
 18 44  1  0
 19 45  1  0
 20 46  1  0
 21 47  1  0
 23 48  1  0
 25 49  1  0
 26 50  1  0
 27 51  1  0
 28 52  1  0
 31 53  1  0
 31 54  1  0
 31 55  1  0
M  END
>  <UniqueID>  (21) 
21

>  <SMILES>  (21) 
COc1ccccc1CNC(=O)COC(=O)c1ccccc1Nc1ccccc1OC

>  <Energy>  (21) 
58.748793951668304

>  <Genealogy>  (21) 
COc1ccccc1CNC(=O)COC(=O)c1ccccc1Nc1ccccc1OC (3D coordinates assigned)
COc1ccccc1CNC(=O)COC(=O)c1ccccc1Nc1ccccc1OC (optimized conformer: 58.748793951668304 kcal/mol)

>  <smiles>  (21) 
COc1ccccc1CNC(=O)COC(=O)c1ccccc1Nc1ccccc1OC

>  <score_type>  (21) 
oracle

>  <origin>  (21) 
adg

>  <m_score__min__energy>  (21) 
-7.6699999999999999

>  <m_primary>  (21) 
energy

$$$$
21:0
     RDKit          3D

 60 63  0  0  0  0  0  0  0  0999 V2000
   57.4980   31.5320   43.2440 C   0  0  0  0  0  0  0  0  0  0  0  0
   56.8180   31.1330   44.4870 N   0  0  0  0  0  0  0  0  0  0  0  0
   56.1840   29.8150   44.2920 C   0  0  0  0  0  0  0  0  0  0  0  0
   57.7800   31.1060   45.6140 C   0  0  0  0  0  0  0  0  0  0  0  0
   58.2750   32.5190   45.9610 C   0  0  0  0  0  0  0  0  0  0  0  0
   58.3820   32.7440   47.4710 C   0  0  0  0  0  0  0  0  0  0  0  0
   59.3290   33.8510   47.7320 N   0  0  0  0  0  0  0  0  0  0  0  0
   59.7970   33.9740   49.1350 C   0  0  0  0  0  0  0  0  0  0  0  0
   61.1830   33.3420   49.4440 C   0  0  2  0  0  0  0  0  0  0  0  0
   62.3490   34.2020   48.9040 C   0  0  0  0  0  0  0  0  0  0  0  0
   62.7310   33.8140   47.4640 C   0  0  0  0  0  0  0  0  0  0  0  0
   61.5540   33.1220   46.7480 C   0  0  2  0  0  0  0  0  0  0  0  0
   60.3320   34.0730   46.6670 C   0  0  0  0  0  0  0  0  0  0  0  0
   61.1760   31.8520   47.4280 N   0  0  0  0  0  0  0  0  0  0  0  0
   61.8380   30.6680   46.8510 C   0  0  0  0  0  0  0  0  0  0  0  0
   60.7950   29.6770   46.4270 C   0  0  0  0  0  0  0  0  0  0  0  0
   60.5990   29.3160   45.1330 N   0  0  0  0  0  0  0  0  0  0  0  0
   59.5570   28.4710   45.1790 C   0  0  0  0  0  0  0  0  0  0  0  0
   58.9480   27.7990   44.1210 C   0  0  0  0  0  0  0  0  0  0  0  0
   57.8630   26.9520   44.4220 C   0  0  0  0  0  0  0  0  0  0  0  0
   57.4280   26.7950   45.7580 C   0  0  0  0  0  0  0  0  0  0  0  0
   58.0720   27.4830   46.8060 C   0  0  0  0  0  0  0  0  0  0  0  0
   59.1340   28.3280   46.4720 C   0  0  0  0  0  0  0  0  0  0  0  0
   59.8940   29.1020   47.2720 N   0  0  0  0  0  0  0  0  0  0  0  0
   59.8490   29.2030   48.7300 C   0  0  0  0  0  0  0  0  0  0  0  0
   61.3050   31.9030   48.9060 C   0  0  0  0  0  0  0  0  0  0  0  0
   58.4227   32.0746   43.4899 H   0  0  0  0  0  0  0  0  0  0  0  0
   57.7442   30.6351   42.6566 H   0  0  0  0  0  0  0  0  0  0  0  0
   56.8352   32.1844   42.6566 H   0  0  0  0  0  0  0  0  0  0  0  0
   55.9670   29.3640   45.2715 H   0  0  0  0  0  0  0  0  0  0  0  0
   55.2468   29.9386   43.7295 H   0  0  0  0  0  0  0  0  0  0  0  0
   56.8655   29.1599   43.7295 H   0  0  0  0  0  0  0  0  0  0  0  0
   57.2860   30.6729   46.4962 H   0  0  0  0  0  0  0  0  0  0  0  0
   58.6470   30.4985   45.3153 H   0  0  0  0  0  0  0  0  0  0  0  0
   59.2676   32.6664   45.5105 H   0  0  0  0  0  0  0  0  0  0  0  0
   57.5426   33.2381   45.5653 H   0  0  0  0  0  0  0  0  0  0  0  0
   57.3924   33.0033   47.8754 H   0  0  0  0  0  0  0  0  0  0  0  0
   58.7438   31.8258   47.9568 H   0  0  0  0  0  0  0  0  0  0  0  0
   59.8525   35.0450   49.3795 H   0  0  0  0  0  0  0  0  0  0  0  0
   59.0711   33.4132   49.7421 H   0  0  0  0  0  0  0  0  0  0  0  0
   61.2545   33.3064   50.5411 H   0  0  0  0  0  0  0  0  0  0  0  0
   62.0471   35.2597   48.9189 H   0  0  0  0  0  0  0  0  0  0  0  0
   63.2250   34.0299   49.5467 H   0  0  0  0  0  0  0  0  0  0  0  0
   63.0067   34.7221   46.9078 H   0  0  0  0  0  0  0  0  0  0  0  0
   63.5785   33.1138   47.5026 H   0  0  0  0  0  0  0  0  0  0  0  0
   61.8812   32.8758   45.7271 H   0  0  0  0  0  0  0  0  0  0  0  0
   60.6937   35.1091   46.7421 H   0  0  0  0  0  0  0  0  0  0  0  0
   59.8314   33.8694   45.7089 H   0  0  0  0  0  0  0  0  0  0  0  0
   62.4354   30.9695   45.9780 H   0  0  0  0  0  0  0  0  0  0  0  0
   62.4981   30.2107   47.6028 H   0  0  0  0  0  0  0  0  0  0  0  0
   61.1320   29.6250   44.2900 H   0  0  0  0  0  0  0  0  0  0  0  0
   59.3019   27.9253   43.0872 H   0  0  0  0  0  0  0  0  0  0  0  0
   57.3515   26.4099   43.6130 H   0  0  0  0  0  0  0  0  0  0  0  0
   56.5802   26.1306   45.9813 H   0  0  0  0  0  0  0  0  0  0  0  0
   57.7500   27.3592   47.8505 H   0  0  0  0  0  0  0  0  0  0  0  0
   60.2586   28.2837   49.1740 H   0  0  0  0  0  0  0  0  0  0  0  0
   60.4477   30.0662   49.0564 H   0  0  0  0  0  0  0  0  0  0  0  0
   58.8069   29.3351   49.0564 H   0  0  0  0  0  0  0  0  0  0  0  0
   60.5110   31.2874   49.3538 H   0  0  0  0  0  0  0  0  0  0  0  0
   62.3013   31.5218   49.1747 H   0  0  0  0  0  0  0  0  0  0  0  0
  1  2  1  0
  2  3  1  0
  2  4  1  0
  4  5  1  0
  5  6  1  0
  6  7  1  0
  7  8  1  0
  8  9  1  0
  9 10  1  0
 10 11  1  0
 11 12  1  0
 12 13  1  0
 12 14  1  0
 14 15  1  0
 15 16  1  0
 16 17  2  0
 17 18  1  0
 18 19  2  0
 19 20  1  0
 20 21  2  0
 21 22  1  0
 22 23  2  0
 23 24  1  0
 24 25  1  0
 14 26  1  0
 13  7  1  0
 24 16  1  0
 26  9  1  0
 23 18  1  0
  1 27  1  0
  1 28  1  0
  1 29  1  0
  3 30  1  0
  3 31  1  0
  3 32  1  0
  4 33  1  0
  4 34  1  0
  5 35  1  0
  5 36  1  0
  6 37  1  0
  6 38  1  0
  8 39  1  0
  8 40  1  0
  9 41  1  1
 10 42  1  0
 10 43  1  0
 11 44  1  0
 11 45  1  0
 12 46  1  6
 13 47  1  0
 13 48  1  0
 15 49  1  0
 15 50  1  0
 17 51  1  0
 19 52  1  0
 20 53  1  0
 21 54  1  0
 22 55  1  0
 25 56  1  0
 25 57  1  0
 25 58  1  0
 26 59  1  0
 26 60  1  0
M  CHG  1  17   1
M  END
>  <UniqueID>  (22) 
22

>  <SMILES>  (22) 
CN(C)CCCN1C[C@@H]2CC[C@H](C1)N(Cc1[nH+]c3ccccc3n1C)C2

>  <Energy>  (22) 
118.66614357165531

>  <Genealogy>  (22) 
CN(C)CCCN1CC2CCC(C1)N(Cc1[nH+]c3ccccc3n1C)C2 (protonated)
CN(C)CCCN1C[C@@H]2CC[C@H](C1)N(Cc1[nH+]c3ccccc3n1C)C2 (chirality)
CN(C)CCCN1C[C@@H]2CC[C@H](C1)N(Cc1[nH+]c3ccccc3n1C)C2 (3D coordinates assigned)
CN(C)CCCN1C[C@@H]2CC[C@H](C1)N(Cc1[nH+]c3ccccc3n1C)C2 (nonaromatic ring conformer: 118.66614357165531 kcal/mol)

>  <smiles>  (22) 
CN(C)CCCN1CC2CCC(C1)N(Cc1nc3ccccc3n1C)C2

>  <score_type>  (22) 
oracle

>  <origin>  (22) 
adg

>  <m_score__min__energy>  (22) 
-5.1200000000000001

>  <m_primary>  (22) 
energy

$$$$
22:0
     RDKit          3D

 42 44  0  0  0  0  0  0  0  0999 V2000
   65.8170   32.5640   50.0970 C   0  0  0  0  0  0  0  0  0  0  0  0
   64.5580   33.1650   49.4680 C   0  0  0  0  0  0  0  0  0  0  0  0
   64.3800   32.7500   48.0670 N   0  0  0  0  0  0  0  0  0  0  0  0
   63.0000   32.8500   47.6530 C   0  0  0  0  0  0  0  0  0  0  0  0
   62.6160   33.7710   46.6720 C   0  0  0  0  0  0  0  0  0  0  0  0
   61.2820   33.8730   46.2830 C   0  0  0  0  0  0  0  0  0  0  0  0
   60.2920   33.0650   46.8710 C   0  0  0  0  0  0  0  0  0  0  0  0
   60.6650   32.1340   47.8790 C   0  0  0  0  0  0  0  0  0  0  0  0
   62.0200   32.0400   48.2460 C   0  0  0  0  0  0  0  0  0  0  0  0
   59.7310   31.2690   48.5680 N   0  0  0  0  0  0  0  0  0  0  0  0
   58.5630   30.5890   48.0030 C   0  0  0  0  0  0  0  0  0  0  0  0
   58.6420   30.5130   46.4650 C   0  0  0  0  0  0  0  0  0  0  0  0
   58.0200   31.6630   45.7840 N   0  0  0  0  0  0  0  0  0  0  0  0
   57.8450   31.5240   44.3240 C   0  0  0  0  0  0  0  0  0  0  0  0
   57.3830   30.1210   43.8850 C   0  0  0  0  0  0  0  0  0  0  0  0
   56.4240   30.1350   42.7010 C   0  0  0  0  0  0  0  0  0  0  0  0
   55.9100   29.7910   44.0880 C   0  0  0  0  0  0  0  0  0  0  0  0
   58.6360   33.2230   46.2740 S   0  0  0  0  0  0  0  0  0  0  0  0
   57.7510   33.7500   47.3690 O   0  0  0  0  0  0  0  0  0  0  0  0
   58.6200   34.2120   45.1420 O   0  0  0  0  0  0  0  0  0  0  0  0
   65.7340   32.6036   51.1931 H   0  0  0  0  0  0  0  0  0  0  0  0
   65.9241   31.5177   49.7750 H   0  0  0  0  0  0  0  0  0  0  0  0
   66.6979   33.1387   49.7750 H   0  0  0  0  0  0  0  0  0  0  0  0
   63.6823   32.8377   50.0477 H   0  0  0  0  0  0  0  0  0  0  0  0
   64.6642   34.2598   49.4835 H   0  0  0  0  0  0  0  0  0  0  0  0
   64.9970   33.3210   47.4430 H   0  0  0  0  0  0  0  0  0  0  0  0
   64.6890   31.7540   47.9720 H   0  0  0  0  0  0  0  0  0  0  0  0
   63.3724   34.4188   46.2048 H   0  0  0  0  0  0  0  0  0  0  0  0
   60.9987   34.5964   45.5042 H   0  0  0  0  0  0  0  0  0  0  0  0
   62.3182   31.3138   49.0165 H   0  0  0  0  0  0  0  0  0  0  0  0
   59.8140   31.2140   49.6090 H   0  0  0  0  0  0  0  0  0  0  0  0
   58.5128   29.5680   48.4091 H   0  0  0  0  0  0  0  0  0  0  0  0
   57.6648   31.1632   48.2743 H   0  0  0  0  0  0  0  0  0  0  0  0
   59.7016   30.4676   46.1731 H   0  0  0  0  0  0  0  0  0  0  0  0
   58.0843   29.6161   46.1575 H   0  0  0  0  0  0  0  0  0  0  0  0
   57.0935   32.2561   43.9933 H   0  0  0  0  0  0  0  0  0  0  0  0
   58.8298   31.6958   43.8650 H   0  0  0  0  0  0  0  0  0  0  0  0
   58.3226   29.6116   44.1450 H   0  0  0  0  0  0  0  0  0  0  0  0
   56.1436   31.0896   42.2319 H   0  0  0  0  0  0  0  0  0  0  0  0
   56.3960   29.6431   41.7175 H   0  0  0  0  0  0  0  0  0  0  0  0
   55.2573   30.4966   44.6229 H   0  0  0  0  0  0  0  0  0  0  0  0
   55.3557   28.9469   44.5241 H   0  0  0  0  0  0  0  0  0  0  0  0
  1  2  1  0
  2  3  1  0
  3  4  1  0
  4  5  2  0
  5  6  1  0
  6  7  2  0
  7  8  1  0
  8  9  2  0
  8 10  1  0
 10 11  1  0
 11 12  1  0
 12 13  1  0
 13 14  1  0
 14 15  1  0
 15 16  1  0
 16 17  1  0
 13 18  1  0
 18 19  2  0
 18 20  2  0
  9  4  1  0
 17 15  1  0
 18  7  1  0
  1 21  1  0
  1 22  1  0
  1 23  1  0
  2 24  1  0
  2 25  1  0
  3 26  1  0
  3 27  1  0
  5 28  1  0
  6 29  1  0
  9 30  1  0
 10 31  1  0
 11 32  1  0
 11 33  1  0
 12 34  1  0
 12 35  1  0
 14 36  1  0
 14 37  1  0
 15 38  1  0
 16 39  1  0
 16 40  1  0
 17 41  1  0
 17 42  1  0
M  CHG  1   3   1
M  END
>  <UniqueID>  (23) 
23

>  <SMILES>  (23) 
CC[NH2+]c1ccc2c(c1)NCCN(CC1CC1)S2(=O)=O

>  <Energy>  (23) 
321.0519887422673

>  <Genealogy>  (23) 
CC[NH2+]c1ccc2c(c1)NCCN(CC1CC1)S2(=O)=O (protonated)
CC[NH2+]c1ccc2c(c1)NCCN(CC1CC1)S2(=O)=O (3D coordinates assigned)
CC[NH2+]c1ccc2c(c1)NCCN(CC1CC1)S2(=O)=O (nonaromatic ring conformer: 321.0519887422673 kcal/mol)

>  <smiles>  (23) 
CCNc1ccc2c(c1)NCCN(CC1CC1)S2(=O)=O

>  <score_type>  (23) 
oracle

>  <origin>  (23) 
adg

>  <m_score__min__energy>  (23) 
-3.9500000000000002

>  <m_primary>  (23) 
energy

$$$$
23:0
     RDKit          3D

 46 48  0  0  0  0  0  0  0  0999 V2000
   64.4060   33.7380   50.9430 C   0  0  0  0  0  0  0  0  0  0  0  0
   64.6940   33.0760   49.5850 C   0  0  0  0  0  0  0  0  0  0  0  0
   63.4390   32.5980   48.9160 C   0  0  0  0  0  0  0  0  0  0  0  0
   63.3870   31.6810   47.8700 C   0  0  0  0  0  0  0  0  0  0  0  0
   62.0960   31.4820   47.3680 C   0  0  0  0  0  0  0  0  0  0  0  0
   61.1270   32.2430   48.0140 C   0  0  0  0  0  0  0  0  0  0  0  0
   59.6850   32.2620   47.7170 C   0  0  0  0  0  0  0  0  0  0  0  0
   59.0480   31.1720   47.6870 O   0  0  0  0  0  0  0  0  0  0  0  0
   59.0000   33.4920   47.4180 N   0  0  0  0  0  0  0  0  0  0  0  0
   59.7880   34.5980   46.8330 C   0  0  0  0  0  0  0  0  0  0  0  0
   59.3490   35.0060   45.4120 C   0  0  0  0  0  0  0  0  0  0  0  0
   58.9950   33.8330   44.4690 C   0  0  0  0  0  0  0  0  0  0  0  0
   57.9790   32.9290   45.0290 N   0  0  0  0  0  0  0  0  0  0  0  0
   58.0210   31.5240   44.7050 C   0  0  0  0  0  0  0  0  0  0  0  0
   56.9800   30.9540   44.0380 N   0  0  0  0  0  0  0  0  0  0  0  0
   56.9830   29.6330   43.7170 C   0  0  0  0  0  0  0  0  0  0  0  0
   58.0740   28.8310   44.0670 C   0  0  0  0  0  0  0  0  0  0  0  0
   58.0750   27.3590   43.7690 C   0  0  0  0  0  0  0  0  0  0  0  0
   59.1220   29.4230   44.7820 C   0  0  0  0  0  0  0  0  0  0  0  0
   59.0800   30.7490   45.0860 N   0  0  0  0  0  0  0  0  0  0  0  0
   56.9830   33.4510   45.9770 C   0  0  0  0  0  0  0  0  0  0  0  0
   57.5290   33.4880   47.4110 C   0  0  0  0  0  0  0  0  0  0  0  0
   61.8820   33.1910   49.1830 S   0  0  0  0  0  0  0  0  0  0  0  0
   64.7027   33.0561   51.7536 H   0  0  0  0  0  0  0  0  0  0  0  0
   64.9783   34.6740   51.0234 H   0  0  0  0  0  0  0  0  0  0  0  0
   63.3311   33.9574   51.0234 H   0  0  0  0  0  0  0  0  0  0  0  0
   65.1886   33.8087   48.9304 H   0  0  0  0  0  0  0  0  0  0  0  0
   65.3386   32.2025   49.7624 H   0  0  0  0  0  0  0  0  0  0  0  0
   64.2742   31.1633   47.4764 H   0  0  0  0  0  0  0  0  0  0  0  0
   61.8694   30.7909   46.5427 H   0  0  0  0  0  0  0  0  0  0  0  0
   59.6905   35.4754   47.4892 H   0  0  0  0  0  0  0  0  0  0  0  0
   60.8245   34.2386   46.7521 H   0  0  0  0  0  0  0  0  0  0  0  0
   58.4616   35.6498   45.5019 H   0  0  0  0  0  0  0  0  0  0  0  0
   60.2148   35.5109   44.9587 H   0  0  0  0  0  0  0  0  0  0  0  0
   58.6130   34.2466   43.5240 H   0  0  0  0  0  0  0  0  0  0  0  0
   59.9119   33.2438   44.3199 H   0  0  0  0  0  0  0  0  0  0  0  0
   56.1275   29.1950   43.1821 H   0  0  0  0  0  0  0  0  0  0  0  0
   58.0754   26.7938   44.7127 H   0  0  0  0  0  0  0  0  0  0  0  0
   57.1770   27.1019   43.1880 H   0  0  0  0  0  0  0  0  0  0  0  0
   58.9733   27.1031   43.1880 H   0  0  0  0  0  0  0  0  0  0  0  0
   59.9819   28.8147   45.0990 H   0  0  0  0  0  0  0  0  0  0  0  0
   59.8660   31.1560   45.6450 H   0  0  0  0  0  0  0  0  0  0  0  0
   56.7042   34.4714   45.6753 H   0  0  0  0  0  0  0  0  0  0  0  0
   56.1097   32.7823   45.9597 H   0  0  0  0  0  0  0  0  0  0  0  0
   57.1649   34.3979   47.9106 H   0  0  0  0  0  0  0  0  0  0  0  0
   57.1797   32.5896   47.9410 H   0  0  0  0  0  0  0  0  0  0  0  0
  1  2  1  0
  2  3  1  0
  3  4  2  0
  4  5  1  0
  5  6  2  0
  6  7  1  0
  7  8  2  0
  7  9  1  0
  9 10  1  0
 10 11  1  0
 11 12  1  0
 12 13  1  0
 13 14  1  0
 14 15  2  0
 15 16  1  0
 16 17  2  0
 17 18  1  0
 17 19  1  0
 19 20  2  0
 13 21  1  0
 21 22  1  0
  6 23  1  0
 23  3  1  0
 22  9  1  0
 20 14  1  0
  1 24  1  0
  1 25  1  0
  1 26  1  0
  2 27  1  0
  2 28  1  0
  4 29  1  0
  5 30  1  0
 10 31  1  0
 10 32  1  0
 11 33  1  0
 11 34  1  0
 12 35  1  0
 12 36  1  0
 16 37  1  0
 18 38  1  0
 18 39  1  0
 18 40  1  0
 19 41  1  0
 20 42  1  0
 21 43  1  0
 21 44  1  0
 22 45  1  0
 22 46  1  0
M  CHG  1  20   1
M  END
>  <UniqueID>  (24) 
24

>  <SMILES>  (24) 
CCc1ccc(C(=O)N2CCCN(c3ncc(C)c[nH+]3)CC2)s1

>  <Energy>  (24) 
81.69439194004006

>  <Genealogy>  (24) 
CCc1ccc(C(=O)N2CCCN(c3ncc(C)c[nH+]3)CC2)s1 (protonated)
CCc1ccc(C(=O)N2CCCN(c3ncc(C)c[nH+]3)CC2)s1 (3D coordinates assigned)
CCc1ccc(C(=O)N2CCCN(c3ncc(C)c[nH+]3)CC2)s1 (nonaromatic ring conformer: 81.69439194004006 kcal/mol)

>  <smiles>  (24) 
CCc1ccc(C(=O)N2CCCN(c3ncc(C)cn3)CC2)s1

>  <score_type>  (24) 
oracle

>  <origin>  (24) 
adg

>  <m_score__min__energy>  (24) 
-4.1299999999999999

>  <m_primary>  (24) 
energy

$$$$
24:0
     RDKit          3D

 41 43  0  0  0  0  0  0  0  0999 V2000
   56.6620   29.4100   42.8900 C   0  0  0  0  0  0  0  0  0  0  0  0
   55.6890   29.8100   43.9950 C   0  0  0  0  0  0  0  0  0  0  0  0
   56.2810   30.8450   44.8530 N   0  0  0  0  0  0  0  0  0  0  0  0
   57.4280   31.4920   44.2030 C   0  0  0  0  0  0  0  0  0  0  0  0
   57.9940   32.5470   45.1110 C   0  0  0  0  0  0  0  0  0  0  0  0
   57.2200   33.6540   45.4810 C   0  0  0  0  0  0  0  0  0  0  0  0
   57.7260   34.5890   46.3280 N   0  0  0  0  0  0  0  0  0  0  0  0
   58.9770   34.4850   46.8470 C   0  0  0  0  0  0  0  0  0  0  0  0
   59.7900   33.3860   46.5250 C   0  0  0  0  0  0  0  0  0  0  0  0
   61.1550   33.2560   47.0960 C   0  0  0  0  0  0  0  0  0  0  0  0
   62.2780   33.8110   46.4310 C   0  0  0  0  0  0  0  0  0  0  0  0
   63.5680   33.6920   46.9740 C   0  0  0  0  0  0  0  0  0  0  0  0
   63.6950   33.0090   48.1780 C   0  0  0  0  0  0  0  0  0  0  0  0
   64.8190   32.7910   48.8790 N   0  0  0  0  0  0  0  0  0  0  0  0
   64.4810   32.1170   49.9720 N   0  0  0  0  0  0  0  0  0  0  0  0
   63.1410   31.9260   49.9100 C   0  0  0  0  0  0  0  0  0  0  0  0
   62.3460   31.2500   50.9860 C   0  0  0  0  0  0  0  0  0  0  0  0
   61.7140   29.9650   50.4620 C   0  0  0  0  0  0  0  0  0  0  0  0
   62.6300   32.4860   48.7960 N   0  0  0  0  0  0  0  0  0  0  0  0
   61.3620   32.5760   48.3180 C   0  0  0  0  0  0  0  0  0  0  0  0
   59.2800   32.4120   45.6510 C   0  0  0  0  0  0  0  0  0  0  0  0
   57.5905   29.0283   43.3395 H   0  0  0  0  0  0  0  0  0  0  0  0
   56.2070   28.6260   42.2669 H   0  0  0  0  0  0  0  0  0  0  0  0
   56.8900   30.2874   42.2669 H   0  0  0  0  0  0  0  0  0  0  0  0
   54.7664   30.2006   43.5408 H   0  0  0  0  0  0  0  0  0  0  0  0
   55.4648   28.9250   44.6087 H   0  0  0  0  0  0  0  0  0  0  0  0
   56.6350   30.3750   45.7200 H   0  0  0  0  0  0  0  0  0  0  0  0
   58.2011   30.7388   43.9907 H   0  0  0  0  0  0  0  0  0  0  0  0
   57.0993   31.9581   43.2624 H   0  0  0  0  0  0  0  0  0  0  0  0
   56.1999   33.7671   45.0851 H   0  0  0  0  0  0  0  0  0  0  0  0
   59.3553   35.2658   47.5232 H   0  0  0  0  0  0  0  0  0  0  0  0
   62.1370   34.3415   45.4777 H   0  0  0  0  0  0  0  0  0  0  0  0
   64.4436   34.1226   46.4662 H   0  0  0  0  0  0  0  0  0  0  0  0
   65.7880   33.0930   48.6350 H   0  0  0  0  0  0  0  0  0  0  0  0
   63.0108   31.0081   51.8283 H   0  0  0  0  0  0  0  0  0  0  0  0
   61.5458   31.9295   51.3145 H   0  0  0  0  0  0  0  0  0  0  0  0
   61.4047   29.3362   51.3099 H   0  0  0  0  0  0  0  0  0  0  0  0
   60.8347   30.2123   49.8490 H   0  0  0  0  0  0  0  0  0  0  0  0
   62.4466   29.4195   49.8490 H   0  0  0  0  0  0  0  0  0  0  0  0
   60.5186   32.1317   48.8670 H   0  0  0  0  0  0  0  0  0  0  0  0
   59.8939   31.5377   45.3887 H   0  0  0  0  0  0  0  0  0  0  0  0
  1  2  1  0
  2  3  1  0
  3  4  1  0
  4  5  1  0
  5  6  2  0
  6  7  1  0
  7  8  2  0
  8  9  1  0
  9 10  1  0
 10 11  1  0
 11 12  2  0
 12 13  1  0
 13 14  2  0
 14 15  1  0
 15 16  2  0
 16 17  1  0
 17 18  1  0
 16 19  1  0
 19 20  1  0
  9 21  2  0
 21  5  1  0
 20 10  2  0
 19 13  1  0
  1 22  1  0
  1 23  1  0
  1 24  1  0
  2 25  1  0
  2 26  1  0
  3 27  1  0
  4 28  1  0
  4 29  1  0
  6 30  1  0
  8 31  1  0
 11 32  1  0
 12 33  1  0
 14 34  1  0
 17 35  1  0
 17 36  1  0
 18 37  1  0
 18 38  1  0
 18 39  1  0
 20 40  1  0
 21 41  1  0
M  CHG  1  14   1
M  END
>  <UniqueID>  (25) 
25

>  <SMILES>  (25) 
CCNCc1cncc(-c2ccc3[nH+]nc(CC)n3c2)c1

>  <Energy>  (25) 
82.84425735273913

>  <Genealogy>  (25) 
CCNCc1cncc(-c2ccc3[nH+]nc(CC)n3c2)c1 (protonated)
CCNCc1cncc(-c2ccc3[nH+]nc(CC)n3c2)c1 (3D coordinates assigned)
CCNCc1cncc(-c2ccc3[nH+]nc(CC)n3c2)c1 (optimized conformer: 82.84425735273913 kcal/mol)

>  <smiles>  (25) 
CCNCc1cncc(-c2ccc3nnc(CC)n3c2)c1

>  <score_type>  (25) 
oracle

>  <origin>  (25) 
adg

>  <m_score__min__energy>  (25) 
-6.0999999999999996

>  <m_primary>  (25) 
energy

$$$$
25:0
     RDKit          3D

 50 52  0  0  0  0  0  0  0  0999 V2000
   60.5680   28.6080   44.8710 C   0  0  0  0  0  0  0  0  0  0  0  0
   59.7420   27.6200   45.6880 C   0  0  0  0  0  0  0  0  0  0  0  0
   58.4040   28.1590   45.9670 N   0  0  0  0  0  0  0  0  0  0  0  0
   57.3830   27.3230   46.6190 C   0  0  0  0  0  0  0  0  0  0  0  0
   56.6790   26.4100   45.6120 C   0  0  0  0  0  0  0  0  0  0  0  0
   55.3450   26.1570   46.0100 O   0  0  0  0  0  0  0  0  0  0  0  0
   54.9570   24.8530   45.6390 C   0  0  0  0  0  0  0  0  0  0  0  0
   58.2170   29.5830   45.9150 C   0  0  0  0  0  0  0  0  0  0  0  0
   57.6760   30.2880   44.8380 C   0  0  0  0  0  0  0  0  0  0  0  0
   57.1370   29.7450   43.5510 C   0  0  0  0  0  0  0  0  0  0  0  0
   57.7750   31.6190   45.1880 C   0  0  0  0  0  0  0  0  0  0  0  0
   57.4040   32.7720   44.4950 C   0  0  0  0  0  0  0  0  0  0  0  0
   57.6440   34.0140   45.1090 C   0  0  0  0  0  0  0  0  0  0  0  0
   58.2450   34.0780   46.3840 C   0  0  0  0  0  0  0  0  0  0  0  0
   58.6140   32.9000   47.0590 C   0  0  0  0  0  0  0  0  0  0  0  0
   58.3590   31.6770   46.4310 C   0  0  0  0  0  0  0  0  0  0  0  0
   58.6310   30.4350   46.8890 N   0  0  0  0  0  0  0  0  0  0  0  0
   59.2580   30.0830   48.1690 C   0  0  0  0  0  0  0  0  0  0  0  0
   60.5770   30.7950   48.3550 C   0  0  0  0  0  0  0  0  0  0  0  0
   60.8710   31.4080   49.5850 C   0  0  0  0  0  0  0  0  0  0  0  0
   62.0730   32.1000   49.7610 C   0  0  0  0  0  0  0  0  0  0  0  0
   62.9880   32.1970   48.7080 C   0  0  0  0  0  0  0  0  0  0  0  0
   64.4950   33.0660   48.9310 Cl  0  0  0  0  0  0  0  0  0  0  0  0
   62.6960   31.6060   47.4750 C   0  0  0  0  0  0  0  0  0  0  0  0
   61.4950   30.9130   47.2960 C   0  0  0  0  0  0  0  0  0  0  0  0
   61.1229   29.2718   45.5503 H   0  0  0  0  0  0  0  0  0  0  0  0
   61.2775   28.0563   44.2367 H   0  0  0  0  0  0  0  0  0  0  0  0
   59.8994   29.2085   44.2367 H   0  0  0  0  0  0  0  0  0  0  0  0
   59.6415   26.6814   45.1233 H   0  0  0  0  0  0  0  0  0  0  0  0
   60.2547   27.4403   46.6445 H   0  0  0  0  0  0  0  0  0  0  0  0
   57.8668   26.7019   47.3873 H   0  0  0  0  0  0  0  0  0  0  0  0
   56.6297   27.9863   47.0690 H   0  0  0  0  0  0  0  0  0  0  0  0
   56.6749   26.8966   44.6255 H   0  0  0  0  0  0  0  0  0  0  0  0
   57.2203   25.4535   45.5649 H   0  0  0  0  0  0  0  0  0  0  0  0
   54.7783   24.2524   46.5431 H   0  0  0  0  0  0  0  0  0  0  0  0
   54.0342   24.9008   45.0423 H   0  0  0  0  0  0  0  0  0  0  0  0
   55.7559   24.3886   45.0423 H   0  0  0  0  0  0  0  0  0  0  0  0
   56.3770   28.9793   43.7658 H   0  0  0  0  0  0  0  0  0  0  0  0
   56.6816   30.5611   42.9708 H   0  0  0  0  0  0  0  0  0  0  0  0
   57.9564   29.2956   42.9708 H   0  0  0  0  0  0  0  0  0  0  0  0
   56.9386   32.7112   43.5001 H   0  0  0  0  0  0  0  0  0  0  0  0
   57.3611   34.9426   44.5915 H   0  0  0  0  0  0  0  0  0  0  0  0
   58.4264   35.0560   46.8537 H   0  0  0  0  0  0  0  0  0  0  0  0
   59.0886   32.9399   48.0505 H   0  0  0  0  0  0  0  0  0  0  0  0
   58.5807   30.3659   48.9883 H   0  0  0  0  0  0  0  0  0  0  0  0
   59.4477   28.9995   48.1734 H   0  0  0  0  0  0  0  0  0  0  0  0
   60.1511   31.3430   50.4142 H   0  0  0  0  0  0  0  0  0  0  0  0
   62.2994   32.5691   50.7298 H   0  0  0  0  0  0  0  0  0  0  0  0
   63.4125   31.6864   46.6442 H   0  0  0  0  0  0  0  0  0  0  0  0
   61.2667   30.4574   46.3212 H   0  0  0  0  0  0  0  0  0  0  0  0
  1  2  1  0
  2  3  1  0
  3  4  1  0
  4  5  1  0
  5  6  1  0
  6  7  1  0
  3  8  1  0
  8  9  2  0
  9 10  1  0
  9 11  1  0
 11 12  2  0
 12 13  1  0
 13 14  2  0
 14 15  1  0
 15 16  2  0
 16 17  1  0
 17 18  1  0
 18 19  1  0
 19 20  2  0
 20 21  1  0
 21 22  2  0
 22 23  1  0
 22 24  1  0
 24 25  2  0
 17  8  1  0
 25 19  1  0
 16 11  1  0
  1 26  1  0
  1 27  1  0
  1 28  1  0
  2 29  1  0
  2 30  1  0
  4 31  1  0
  4 32  1  0
  5 33  1  0
  5 34  1  0
  7 35  1  0
  7 36  1  0
  7 37  1  0
 10 38  1  0
 10 39  1  0
 10 40  1  0
 12 41  1  0
 13 42  1  0
 14 43  1  0
 15 44  1  0
 18 45  1  0
 18 46  1  0
 20 47  1  0
 21 48  1  0
 24 49  1  0
 25 50  1  0
M  END
>  <UniqueID>  (26) 
26

>  <SMILES>  (26) 
CCN(CCOC)c1c(C)c2ccccc2n1Cc1ccc(Cl)cc1

>  <Energy>  (26) 
84.36859573935203

>  <Genealogy>  (26) 
CCN(CCOC)c1c(C)c2ccccc2n1Cc1ccc(Cl)cc1 (3D coordinates assigned)
CCN(CCOC)c1c(C)c2ccccc2n1Cc1ccc(Cl)cc1 (optimized conformer: 84.36859573935203 kcal/mol)

>  <smiles>  (26) 
CCN(CCOC)c1c(C)c2ccccc2n1Cc1ccc(Cl)cc1

>  <score_type>  (26) 
oracle

>  <origin>  (26) 
adg

>  <m_score__min__energy>  (26) 
-7.9699999999999998

>  <m_primary>  (26) 
energy

$$$$
26:0
     RDKit          3D

 59 61  0  0  0  0  0  0  0  0999 V2000
   61.9100   33.4330   52.5180 C   0  0  0  0  0  0  0  0  0  0  0  0
   62.6640   33.5640   51.3180 O   0  0  0  0  0  0  0  0  0  0  0  0
   64.0640   33.6680   51.2630 C   0  0  0  0  0  0  0  0  0  0  0  0
   64.7720   34.5780   52.0750 C   0  0  0  0  0  0  0  0  0  0  0  0
   66.1630   34.6690   51.9900 C   0  0  0  0  0  0  0  0  0  0  0  0
   66.8640   33.8650   51.0920 C   0  0  0  0  0  0  0  0  0  0  0  0
   66.1780   32.9630   50.2800 C   0  0  0  0  0  0  0  0  0  0  0  0
   64.7800   32.8410   50.3700 C   0  0  0  0  0  0  0  0  0  0  0  0
   64.0710   31.8660   49.4640 C   0  0  0  0  0  0  0  0  0  0  0  0
   63.2340   32.6130   48.4070 C   0  0  0  0  0  0  0  0  0  0  0  0
   61.8950   33.0590   48.8700 N   0  0  1  0  0  0  0  0  0  0  0  0
   61.3130   34.1020   47.9830 C   0  0  0  0  0  0  0  0  0  0  0  0
   60.9210   33.5690   46.5940 C   0  0  0  0  0  0  0  0  0  0  0  0
   60.5870   32.0610   46.5860 C   0  0  0  0  0  0  0  0  0  0  0  0
   59.3570   31.7660   47.3550 N   0  0  0  0  0  0  0  0  0  0  0  0
   58.1930   32.5180   46.8310 C   0  0  0  0  0  0  0  0  0  0  0  0
   57.9790   32.1750   45.3540 C   0  0  0  0  0  0  0  0  0  0  0  0
   57.0300   31.0500   45.2090 N   0  0  0  0  0  0  0  0  0  0  0  0
   56.6060   30.8750   43.8070 C   0  0  0  0  0  0  0  0  0  0  0  0
   55.5540   29.7490   43.7110 C   0  0  0  0  0  0  0  0  0  0  0  0
   55.5210   28.9260   44.8650 O   0  0  0  0  0  0  0  0  0  0  0  0
   56.8310   28.5610   45.2420 C   0  0  0  0  0  0  0  0  0  0  0  0
   57.6220   29.7950   45.7220 C   0  0  0  0  0  0  0  0  0  0  0  0
   59.5280   31.9990   48.8040 C   0  0  0  0  0  0  0  0  0  0  0  0
   60.9950   31.9490   49.2960 C   0  0  0  0  0  0  0  0  0  0  0  0
   62.5773   33.5489   53.3848 H   0  0  0  0  0  0  0  0  0  0  0  0
   61.1313   34.2093   52.5483 H   0  0  0  0  0  0  0  0  0  0  0  0
   61.4387   32.4395   52.5483 H   0  0  0  0  0  0  0  0  0  0  0  0
   64.2248   35.2207   52.7803 H   0  0  0  0  0  0  0  0  0  0  0  0
   66.7069   35.3766   52.6330 H   0  0  0  0  0  0  0  0  0  0  0  0
   67.9592   33.9425   51.0242 H   0  0  0  0  0  0  0  0  0  0  0  0
   66.7348   32.3417   49.5631 H   0  0  0  0  0  0  0  0  0  0  0  0
   64.8171   31.2377   48.9555 H   0  0  0  0  0  0  0  0  0  0  0  0
   63.3981   31.2436   50.0722 H   0  0  0  0  0  0  0  0  0  0  0  0
   63.7991   33.5017   48.0894 H   0  0  0  0  0  0  0  0  0  0  0  0
   63.0554   31.8960   47.5921 H   0  0  0  0  0  0  0  0  0  0  0  0
   62.1000   33.5690   49.7640 H   0  0  0  0  0  0  0  0  0  0  0  0
   60.4135   34.5100   48.4672 H   0  0  0  0  0  0  0  0  0  0  0  0
   62.0861   34.8697   47.8315 H   0  0  0  0  0  0  0  0  0  0  0  0
   60.0375   34.1234   46.2447 H   0  0  0  0  0  0  0  0  0  0  0  0
   61.7899   33.7120   45.9348 H   0  0  0  0  0  0  0  0  0  0  0  0
   60.4435   31.7337   45.5457 H   0  0  0  0  0  0  0  0  0  0  0  0
   61.4225   31.5234   47.0582 H   0  0  0  0  0  0  0  0  0  0  0  0
   57.2941   32.2457   47.4035 H   0  0  0  0  0  0  0  0  0  0  0  0
   58.3818   33.5971   46.9306 H   0  0  0  0  0  0  0  0  0  0  0  0
   57.5759   33.0564   44.8337 H   0  0  0  0  0  0  0  0  0  0  0  0
   58.9445   31.8809   44.9165 H   0  0  0  0  0  0  0  0  0  0  0  0
   56.1687   31.8147   43.4385 H   0  0  0  0  0  0  0  0  0  0  0  0
   57.4802   30.6060   43.1959 H   0  0  0  0  0  0  0  0  0  0  0  0
   54.5622   30.2055   43.5768 H   0  0  0  0  0  0  0  0  0  0  0  0
   55.8294   29.1113   42.8581 H   0  0  0  0  0  0  0  0  0  0  0  0
   56.7804   27.8245   46.0575 H   0  0  0  0  0  0  0  0  0  0  0  0
   57.3434   28.1288   44.3698 H   0  0  0  0  0  0  0  0  0  0  0  0
   57.6143   29.8192   46.8217 H   0  0  0  0  0  0  0  0  0  0  0  0
   58.6505   29.7164   45.3399 H   0  0  0  0  0  0  0  0  0  0  0  0
   59.1198   32.9923   49.0423 H   0  0  0  0  0  0  0  0  0  0  0  0
   58.9995   31.1812   49.3158 H   0  0  0  0  0  0  0  0  0  0  0  0
   60.9751   31.9427   50.3958 H   0  0  0  0  0  0  0  0  0  0  0  0
   61.4190   31.0463   48.8319 H   0  0  0  0  0  0  0  0  0  0  0  0
  1  2  1  0
  2  3  1  0
  3  4  2  0
  4  5  1  0
  5  6  2  0
  6  7  1  0
  7  8  2  0
  8  9  1  0
  9 10  1  0
 10 11  1  0
 11 12  1  0
 12 13  1  0
 13 14  1  0
 14 15  1  0
 15 16  1  0
 16 17  1  0
 17 18  1  0
 18 19  1  0
 19 20  1  0
 20 21  1  0
 21 22  1  0
 22 23  1  0
 15 24  1  0
 24 25  1  0
  8  3  1  0
 25 11  1  0
 23 18  1  0
  1 26  1  0
  1 27  1  0
  1 28  1  0
  4 29  1  0
  5 30  1  0
  6 31  1  0
  7 32  1  0
  9 33  1  0
  9 34  1  0
 10 35  1  0
 10 36  1  0
 11 37  1  1
 12 38  1  0
 12 39  1  0
 13 40  1  0
 13 41  1  0
 14 42  1  0
 14 43  1  0
 16 44  1  0
 16 45  1  0
 17 46  1  0
 17 47  1  0
 19 48  1  0
 19 49  1  0
 20 50  1  0
 20 51  1  0
 22 52  1  0
 22 53  1  0
 23 54  1  0
 23 55  1  0
 24 56  1  0
 24 57  1  0
 25 58  1  0
 25 59  1  0
M  CHG  1  11   1
M  END
>  <UniqueID>  (27) 
27

>  <SMILES>  (27) 
COc1ccccc1CC[N@H+]1CCCN(CCN2CCOCC2)CC1

>  <Energy>  (27) 
84.6832451764912

>  <Genealogy>  (27) 
COc1ccccc1CC[NH+]1CCCN(CCN2CCOCC2)CC1 (protonated)
COc1ccccc1CC[N@H+]1CCCN(CCN2CCOCC2)CC1 (chirality)
COc1ccccc1CC[N@H+]1CCCN(CCN2CCOCC2)CC1 (3D coordinates assigned)
COc1ccccc1CC[N@H+]1CCCN(CCN2CCOCC2)CC1 (nonaromatic ring conformer: 84.6832451764912 kcal/mol)

>  <smiles>  (27) 
COc1ccccc1CCN1CCCN(CCN2CCOCC2)CC1

>  <score_type>  (27) 
oracle

>  <origin>  (27) 
adg

>  <m_score__min__energy>  (27) 
-3.8900000000000001

>  <m_primary>  (27) 
energy

$$$$
27:0
     RDKit          3D

 45 48  0  0  0  0  0  0  0  0999 V2000
   58.6452   34.7586   49.1021 H   0  0  0  0  0  0  0  0  0  0  0  0
   59.6560   34.4090   48.8450 C   0  0  0  0  0  0  0  0  0  0  0  0
   60.5850   34.1680   49.7220 N   0  0  0  0  0  0  0  0  0  0  0  0
   61.7270   33.7540   48.9820 C   0  0  0  0  0  0  0  0  0  0  0  0
   62.9400   33.4580   49.5110 N   0  0  0  0  0  0  0  0  0  0  0  0
   63.9750   33.1360   48.6800 C   0  0  0  0  0  0  0  0  0  0  0  0
   64.9561   32.8765   49.1044 H   0  0  0  0  0  0  0  0  0  0  0  0
   63.7940   33.1340   47.2810 C   0  0  0  0  0  0  0  0  0  0  0  0
   64.6332   32.8808   46.6164 H   0  0  0  0  0  0  0  0  0  0  0  0
   62.5400   33.4560   46.7400 C   0  0  0  0  0  0  0  0  0  0  0  0
   62.3794   33.4815   45.6521 H   0  0  0  0  0  0  0  0  0  0  0  0
   61.5030   33.7430   47.6300 C   0  0  0  0  0  0  0  0  0  0  0  0
   60.1130   34.1600   47.4690 C   0  0  0  0  0  0  0  0  0  0  0  0
   59.3700   34.3120   46.3670 C   0  0  0  0  0  0  0  0  0  0  0  0
   59.1409   35.3343   46.0318 H   0  0  0  0  0  0  0  0  0  0  0  0
   58.8440   33.1910   45.5810 C   0  0  0  0  0  0  0  0  0  0  0  0
   58.0980   33.3670   44.0760 S   0  0  0  0  0  0  0  0  0  0  0  0
   57.6270   31.7600   43.9500 C   0  0  0  0  0  0  0  0  0  0  0  0
   56.9440   31.1460   42.9030 C   0  0  0  0  0  0  0  0  0  0  0  0
   56.6398   31.7190   42.0147 H   0  0  0  0  0  0  0  0  0  0  0  0
   56.6540   29.7770   43.0110 C   0  0  0  0  0  0  0  0  0  0  0  0
   56.1139   29.2656   42.2006 H   0  0  0  0  0  0  0  0  0  0  0  0
   57.0520   29.0560   44.1530 C   0  0  0  0  0  0  0  0  0  0  0  0
   56.8242   27.9824   44.2272 H   0  0  0  0  0  0  0  0  0  0  0  0
   57.7380   29.6970   45.1990 C   0  0  0  0  0  0  0  0  0  0  0  0
   58.0533   29.1334   46.0894 H   0  0  0  0  0  0  0  0  0  0  0  0
   58.0130   31.0650   45.0880 C   0  0  0  0  0  0  0  0  0  0  0  0
   58.6800   31.8730   46.0250 C   0  0  0  0  0  0  0  0  0  0  0  0
   59.0680   31.4300   47.3310 N   0  0  0  0  0  0  0  0  0  0  0  0
   58.3980   31.5750   48.1200 H   0  0  0  0  0  0  0  0  0  0  0  0
   60.0720   30.3820   47.5070 C   0  0  0  0  0  0  0  0  0  0  0  0
   61.0030   30.6853   47.0058 H   0  0  0  0  0  0  0  0  0  0  0  0
   59.6908   29.4481   47.0683 H   0  0  0  0  0  0  0  0  0  0  0  0
   60.3550   30.1490   49.0030 C   0  0  0  0  0  0  0  0  0  0  0  0
   61.4381   30.0224   49.1471 H   0  0  0  0  0  0  0  0  0  0  0  0
   59.8113   29.2477   49.3224 H   0  0  0  0  0  0  0  0  0  0  0  0
   59.8930   31.2820   49.8180 N   0  0  0  0  0  0  0  0  0  0  0  0
   59.8910   32.1290   49.2010 H   0  0  0  0  0  0  0  0  0  0  0  0
   58.5170   31.0750   50.2900 C   0  0  0  0  0  0  0  0  0  0  0  0
   58.4723   30.1516   50.8861 H   0  0  0  0  0  0  0  0  0  0  0  0
   57.8477   30.9934   49.4209 H   0  0  0  0  0  0  0  0  0  0  0  0
   58.0740   32.2510   51.1500 C   0  0  0  0  0  0  0  0  0  0  0  0
   58.1738   31.9861   52.2129 H   0  0  0  0  0  0  0  0  0  0  0  0
   58.7046   33.1248   50.9292 H   0  0  0  0  0  0  0  0  0  0  0  0
   57.0236   32.4916   50.9292 H   0  0  0  0  0  0  0  0  0  0  0  0
  1  2  1  0
  2  3  2  0
  3  4  1  0
  4  5  2  0
  5  6  1  0
  6  7  1  0
  6  8  2  0
  8  9  1  0
  8 10  1  0
 10 11  1  0
 10 12  2  0
 12 13  1  0
 13 14  2  0
 14 15  1  0
 14 16  1  0
 16 17  1  0
 17 18  1  0
 18 19  2  0
 19 20  1  0
 19 21  1  0
 21 22  1  0
 21 23  2  0
 23 24  1  0
 23 25  1  0
 25 26  1  0
 25 27  2  0
 27 28  1  0
 28 29  1  0
 29 30  1  0
 29 31  1  0
 31 32  1  0
 31 33  1  0
 31 34  1  0
 34 35  1  0
 34 36  1  0
 34 37  1  0
 37 38  1  0
 37 39  1  0
 39 40  1  0
 39 41  1  0
 39 42  1  0
 42 43  1  0
 42 44  1  0
 42 45  1  0
 13  2  1  0
 28 16  2  0
 12  4  1  0
 27 18  1  0
M  END
>  <UniqueID>  (28) 
28

>  <SMILES>  (28) 
CCNCCNc1c(/C=C2/C=Nc3ncccc32)sc2ccccc12

>  <Energy>  (28) 
118.73045908797333

>  <Genealogy>  (28) 
CCNCCNc1c(/C=C2/C=Nc3ncccc32)sc2ccccc12 (cis-trans isomerization)
CCNCCNc1c(/C=C2/C=Nc3ncccc32)sc2ccccc12 (3D coordinates assigned)
CCNCCNc1c(/C=C2/C=Nc3ncccc32)sc2ccccc12 (nonaromatic ring conformer: 118.73045908797333 kcal/mol)

>  <smiles>  (28) 
CCNCCNc1c(C=C2C=Nc3ncccc32)sc2ccccc12

>  <score_type>  (28) 
oracle

>  <origin>  (28) 
adg

>  <m_score__min__energy>  (28) 
-7.4699999999999998

>  <m_primary>  (28) 
energy

$$$$
28:0
     RDKit          3D

 77 77  0  0  0  0  0  0  0  0999 V2000
   57.8000   32.2960   41.5520 C   0  0  0  0  0  0  0  0  0  0  0  0
   57.5190   31.5700   42.8640 C   0  0  0  0  0  0  0  0  0  0  0  0
   56.6100   30.3540   42.6400 C   0  0  0  0  0  0  0  0  0  0  0  0
   56.0250   29.7930   43.9490 C   0  0  0  0  0  0  0  0  0  0  0  0
   57.0140   28.9810   44.8060 C   0  0  0  0  0  0  0  0  0  0  0  0
   57.8590   28.0000   43.9820 C   0  0  0  0  0  0  0  0  0  0  0  0
   59.3090   27.9750   44.4780 C   0  0  0  0  0  0  0  0  0  0  0  0
   59.4240   27.2300   45.8160 C   0  0  0  0  0  0  0  0  0  0  0  0
   60.1090   28.0730   46.9040 C   0  0  0  0  0  0  0  0  0  0  0  0
   59.1060   28.9080   47.7210 C   0  0  0  0  0  0  0  0  0  0  0  0
   59.3430   30.4210   47.5920 C   0  0  0  0  0  0  0  0  0  0  0  0
   59.2830   30.9050   46.1330 C   0  0  0  0  0  0  0  0  0  0  0  0
   58.2790   32.0540   45.9260 C   0  0  0  0  0  0  0  0  0  0  0  0
   58.4370   33.2430   46.8960 C   0  0  0  0  0  0  0  0  0  0  0  0
   59.1340   34.4860   46.3050 C   0  0  0  0  0  0  0  0  0  0  0  0
   60.6260   34.6230   46.6610 C   0  0  0  0  0  0  0  0  0  0  0  0
   61.3430   33.2650   46.7460 C   0  0  0  0  0  0  0  0  0  0  0  0
   62.8500   33.3860   46.7670 C   0  0  0  0  0  0  0  0  0  0  0  0
   63.4160   34.1770   46.0210 O   0  0  0  0  0  0  0  0  0  0  0  0
   63.6280   32.5450   47.6570 N   0  0  0  0  0  0  0  0  0  0  0  0
   62.8520   31.3450   48.0700 C   0  0  0  0  0  0  0  0  0  0  0  0
   62.2720   31.4840   49.4900 C   0  0  0  0  0  0  0  0  0  0  0  0
   63.3360   31.6970   50.5230 N   0  0  0  0  0  0  0  0  0  0  0  0
   62.7570   32.4610   51.6540 C   0  0  0  0  0  0  0  0  0  0  0  0
   63.7890   30.3840   51.0470 C   0  0  0  0  0  0  0  0  0  0  0  0
   64.5200   32.4350   49.9740 C   0  0  0  0  0  0  0  0  0  0  0  0
   64.1390   33.3440   48.7970 C   0  0  0  0  0  0  0  0  0  0  0  0
   58.1895   33.3023   41.7659 H   0  0  0  0  0  0  0  0  0  0  0  0
   58.5442   31.7304   40.9721 H   0  0  0  0  0  0  0  0  0  0  0  0
   56.8690   32.3788   40.9721 H   0  0  0  0  0  0  0  0  0  0  0  0
   58.4713   31.2313   43.2981 H   0  0  0  0  0  0  0  0  0  0  0  0
   57.0087   32.2663   43.5458 H   0  0  0  0  0  0  0  0  0  0  0  0
   55.7791   30.6532   41.9842 H   0  0  0  0  0  0  0  0  0  0  0  0
   57.2245   29.5619   42.1873 H   0  0  0  0  0  0  0  0  0  0  0  0
   55.6648   30.6392   44.5525 H   0  0  0  0  0  0  0  0  0  0  0  0
   55.2263   29.0958   43.6559 H   0  0  0  0  0  0  0  0  0  0  0  0
   57.6903   29.6811   45.3183 H   0  0  0  0  0  0  0  0  0  0  0  0
   56.4213   28.3868   45.5170 H   0  0  0  0  0  0  0  0  0  0  0  0
   57.4301   26.9912   44.0728 H   0  0  0  0  0  0  0  0  0  0  0  0
   57.8528   28.3276   42.9319 H   0  0  0  0  0  0  0  0  0  0  0  0
   59.9358   27.4679   43.7297 H   0  0  0  0  0  0  0  0  0  0  0  0
   59.6451   29.0119   44.6260 H   0  0  0  0  0  0  0  0  0  0  0  0
   58.4133   26.9648   46.1598 H   0  0  0  0  0  0  0  0  0  0  0  0
   60.0425   26.3360   45.6479 H   0  0  0  0  0  0  0  0  0  0  0  0
   60.6457   27.3985   47.5873 H   0  0  0  0  0  0  0  0  0  0  0  0
   60.7958   28.7712   46.4032 H   0  0  0  0  0  0  0  0  0  0  0  0
   58.0896   28.6805   47.3673 H   0  0  0  0  0  0  0  0  0  0  0  0
   59.2399   28.6418   48.7799 H   0  0  0  0  0  0  0  0  0  0  0  0
   58.5712   30.9495   48.1709 H   0  0  0  0  0  0  0  0  0  0  0  0
   60.3524   30.6347   47.9735 H   0  0  0  0  0  0  0  0  0  0  0  0
   60.2831   31.2547   45.8374 H   0  0  0  0  0  0  0  0  0  0  0  0
   58.9481   30.0577   45.5166 H   0  0  0  0  0  0  0  0  0  0  0  0
   58.4007   32.4324   44.9003 H   0  0  0  0  0  0  0  0  0  0  0  0
   57.2830   31.6297   46.1208 H   0  0  0  0  0  0  0  0  0  0  0  0
   57.4336   33.5433   47.2322 H   0  0  0  0  0  0  0  0  0  0  0  0
   59.0858   32.8880   47.7102 H   0  0  0  0  0  0  0  0  0  0  0  0
   59.0470   34.4381   45.2095 H   0  0  0  0  0  0  0  0  0  0  0  0
   58.6305   35.3600   46.7438 H   0  0  0  0  0  0  0  0  0  0  0  0
   61.1175   35.2328   45.8886 H   0  0  0  0  0  0  0  0  0  0  0  0
   60.6890   35.0947   47.6527 H   0  0  0  0  0  0  0  0  0  0  0  0
   61.0205   32.7566   47.6666 H   0  0  0  0  0  0  0  0  0  0  0  0
   61.0738   32.6968   45.8434 H   0  0  0  0  0  0  0  0  0  0  0  0
   64.4640   32.2000   47.1270 H   0  0  0  0  0  0  0  0  0  0  0  0
   62.0229   31.1990   47.3620 H   0  0  0  0  0  0  0  0  0  0  0  0
   63.5373   30.4845   48.0692 H   0  0  0  0  0  0  0  0  0  0  0  0
   61.5848   32.3427   49.5084 H   0  0  0  0  0  0  0  0  0  0  0  0
   61.7514   30.5459   49.7331 H   0  0  0  0  0  0  0  0  0  0  0  0
   63.0917   32.0194   52.6043 H   0  0  0  0  0  0  0  0  0  0  0  0
   63.0907   33.5077   51.5984 H   0  0  0  0  0  0  0  0  0  0  0  0
   61.6591   32.4227   51.5984 H   0  0  0  0  0  0  0  0  0  0  0  0
   63.7815   30.4058   52.1468 H   0  0  0  0  0  0  0  0  0  0  0  0
   63.1116   29.5937   50.6913 H   0  0  0  0  0  0  0  0  0  0  0  0
   64.8096   30.1796   50.6913 H   0  0  0  0  0  0  0  0  0  0  0  0
   64.9545   33.0532   50.7734 H   0  0  0  0  0  0  0  0  0  0  0  0
   65.2426   31.6911   49.6073 H   0  0  0  0  0  0  0  0  0  0  0  0
   63.3585   34.0473   49.1227 H   0  0  0  0  0  0  0  0  0  0  0  0
   65.0356   33.8908   48.4698 H   0  0  0  0  0  0  0  0  0  0  0  0
  1  2  1  0
  2  3  1  0
  3  4  1  0
  4  5  1  0
  5  6  1  0
  6  7  1  0
  7  8  1  0
  8  9  1  0
  9 10  1  0
 10 11  1  0
 11 12  1  0
 12 13  1  0
 13 14  1  0
 14 15  1  0
 15 16  1  0
 16 17  1  0
 17 18  1  0
 18 19  2  0
 18 20  1  0
 20 21  1  0
 21 22  1  0
 22 23  1  0
 23 24  1  0
 23 25  1  0
 23 26  1  0
 26 27  1  0
 27 20  1  0
  1 28  1  0
  1 29  1  0
  1 30  1  0
  2 31  1  0
  2 32  1  0
  3 33  1  0
  3 34  1  0
  4 35  1  0
  4 36  1  0
  5 37  1  0
  5 38  1  0
  6 39  1  0
  6 40  1  0
  7 41  1  0
  7 42  1  0
  8 43  1  0
  8 44  1  0
  9 45  1  0
  9 46  1  0
 10 47  1  0
 10 48  1  0
 11 49  1  0
 11 50  1  0
 12 51  1  0
 12 52  1  0
 13 53  1  0
 13 54  1  0
 14 55  1  0
 14 56  1  0
 15 57  1  0
 15 58  1  0
 16 59  1  0
 16 60  1  0
 17 61  1  0
 17 62  1  0
 20 63  1  0
 21 64  1  0
 21 65  1  0
 22 66  1  0
 22 67  1  0
 24 68  1  0
 24 69  1  0
 24 70  1  0
 25 71  1  0
 25 72  1  0
 25 73  1  0
 26 74  1  0
 26 75  1  0
 27 76  1  0
 27 77  1  0
M  CHG  2  20   1  23   1
M  END
>  <UniqueID>  (29) 
29

>  <SMILES>  (29) 
CCCCCCCCCCCCCCCCCC(=O)[NH+]1CC[N+](C)(C)CC1

>  <Energy>  (29) 
63.80812097374253

>  <Genealogy>  (29) 
CCCCCCCCCCCCCCCCCC(=O)[NH+]1CC[N+](C)(C)CC1 (protonated)
CCCCCCCCCCCCCCCCCC(=O)[NH+]1CC[N+](C)(C)CC1 (3D coordinates assigned)
CCCCCCCCCCCCCCCCCC(=O)[NH+]1CC[N+](C)(C)CC1 (nonaromatic ring conformer: 63.80812097374253 kcal/mol)

>  <smiles>  (29) 
CCCCCCCCCCCCCCCCCC(=O)N1CC[N+](C)(C)CC1

>  <score_type>  (29) 
oracle

>  <origin>  (29) 
adg

>  <m_score__min__energy>  (29) 
-5.2199999999999998

>  <m_primary>  (29) 
energy

$$$$
29:0
     RDKit          3D

 48 50  0  0  0  0  0  0  0  0999 V2000
   60.9440   31.7240   49.2750 C   0  0  0  0  0  0  0  0  0  0  0  0
   59.9580   32.8120   49.7140 C   0  0  0  0  0  0  0  0  0  0  0  0
   60.0510   34.0480   48.9130 N   0  0  0  0  0  0  0  0  0  0  0  0
   59.2730   34.0650   47.6520 C   0  0  2  0  0  0  0  0  0  0  0  0
   58.1560   32.9780   47.7400 C   0  0  0  0  0  0  0  0  0  0  0  0
   57.7570   32.4380   46.4280 N   0  0  0  0  0  0  0  0  0  0  0  0
   57.8410   31.0230   46.1560 C   0  0  0  0  0  0  0  0  0  0  0  0
   58.6530   30.1740   46.9220 C   0  0  0  0  0  0  0  0  0  0  0  0
   58.6820   28.8110   46.6380 C   0  0  0  0  0  0  0  0  0  0  0  0
   57.8950   28.3070   45.5920 C   0  0  0  0  0  0  0  0  0  0  0  0
   57.8830   26.9060   45.2510 N   0  0  0  0  0  0  0  0  0  0  0  0
   58.3450   25.8720   45.9900 C   0  0  0  0  0  0  0  0  0  0  0  0
   58.1410   24.7010   45.2860 C   0  0  0  0  0  0  0  0  0  0  0  0
   57.5410   25.0920   44.1060 C   0  0  0  0  0  0  0  0  0  0  0  0
   57.3980   26.4280   44.1140 N   0  0  0  0  0  0  0  0  0  0  0  0
   57.1150   29.1730   44.8900 N   0  0  0  0  0  0  0  0  0  0  0  0
   57.0860   30.4780   45.1630 N   0  0  0  0  0  0  0  0  0  0  0  0
   57.3160   33.3360   45.3450 C   0  0  0  0  0  0  0  0  0  0  0  0
   58.4580   33.7840   44.4170 C   0  0  0  0  0  0  0  0  0  0  0  0
   59.5690   34.5840   45.1230 C   0  0  0  0  0  0  0  0  0  0  0  0
   60.1790   33.9450   46.3920 C   0  0  1  0  0  0  0  0  0  0  0  0
   61.4570   34.5210   46.6320 O   0  0  0  0  0  0  0  0  0  0  0  0
   62.4530   33.5310   46.7720 C   0  0  0  0  0  0  0  0  0  0  0  0
   61.3794   31.2436   50.1636 H   0  0  0  0  0  0  0  0  0  0  0  0
   60.4146   30.9706   48.6732 H   0  0  0  0  0  0  0  0  0  0  0  0
   61.7457   32.1769   48.6732 H   0  0  0  0  0  0  0  0  0  0  0  0
   58.9367   32.4138   49.6227 H   0  0  0  0  0  0  0  0  0  0  0  0
   60.2105   33.0784   50.7510 H   0  0  0  0  0  0  0  0  0  0  0  0
   61.0640   34.1870   48.6830 H   0  0  0  0  0  0  0  0  0  0  0  0
   58.7850   35.0432   47.5300 H   0  0  0  0  0  0  0  0  0  0  0  0
   58.5257   32.1482   48.3603 H   0  0  0  0  0  0  0  0  0  0  0  0
   57.2683   33.4605   48.1750 H   0  0  0  0  0  0  0  0  0  0  0  0
   59.2628   30.5820   47.7416 H   0  0  0  0  0  0  0  0  0  0  0  0
   59.3171   28.1349   47.2293 H   0  0  0  0  0  0  0  0  0  0  0  0
   58.8063   25.9503   46.9855 H   0  0  0  0  0  0  0  0  0  0  0  0
   58.4005   23.6786   45.5981 H   0  0  0  0  0  0  0  0  0  0  0  0
   57.2307   24.4199   43.2923 H   0  0  0  0  0  0  0  0  0  0  0  0
   56.9750   27.0010   43.3500 H   0  0  0  0  0  0  0  0  0  0  0  0
   56.5626   32.8093   44.7409 H   0  0  0  0  0  0  0  0  0  0  0  0
   56.9106   34.2415   45.8201 H   0  0  0  0  0  0  0  0  0  0  0  0
   58.9104   32.8870   43.9691 H   0  0  0  0  0  0  0  0  0  0  0  0
   58.0119   34.4556   43.6687 H   0  0  0  0  0  0  0  0  0  0  0  0
   60.3840   34.7342   44.3996 H   0  0  0  0  0  0  0  0  0  0  0  0
   59.0868   35.5110   45.4668 H   0  0  0  0  0  0  0  0  0  0  0  0
   60.2730   32.8656   46.2021 H   0  0  0  0  0  0  0  0  0  0  0  0
   62.6388   33.3463   47.8403 H   0  0  0  0  0  0  0  0  0  0  0  0
   62.1151   32.6005   46.2924 H   0  0  0  0  0  0  0  0  0  0  0  0
   63.3814   33.8745   46.2924 H   0  0  0  0  0  0  0  0  0  0  0  0
  1  2  1  0
  2  3  1  0
  3  4  1  0
  4  5  1  0
  5  6  1  0
  6  7  1  0
  7  8  2  0
  8  9  1  0
  9 10  2  0
 10 11  1  0
 11 12  1  0
 12 13  2  0
 13 14  1  0
 14 15  2  0
 10 16  1  0
 16 17  2  0
  6 18  1  0
 18 19  1  0
 19 20  1  0
 20 21  1  0
 21 22  1  0
 22 23  1  0
 21  4  1  0
 17  7  1  0
 15 11  1  0
  1 24  1  0
  1 25  1  0
  1 26  1  0
  2 27  1  0
  2 28  1  0
  3 29  1  0
  4 30  1  6
  5 31  1  0
  5 32  1  0
  8 33  1  0
  9 34  1  0
 12 35  1  0
 13 36  1  0
 14 37  1  0
 15 38  1  0
 18 39  1  0
 18 40  1  0
 19 41  1  0
 19 42  1  0
 20 43  1  0
 20 44  1  0
 21 45  1  6
 23 46  1  0
 23 47  1  0
 23 48  1  0
M  CHG  1  15   1
M  END
>  <UniqueID>  (30) 
30

>  <SMILES>  (30) 
CCN[C@@H]1CN(c2ccc(-n3ccc[nH+]3)nn2)CCC[C@H]1OC

>  <Energy>  (30) 
96.79748429028902

>  <Genealogy>  (30) 
CCNC1CN(c2ccc(-n3ccc[nH+]3)nn2)CCCC1OC (protonated)
CCN[C@@H]1CN(c2ccc(-n3ccc[nH+]3)nn2)CCC[C@H]1OC (chirality)
CCN[C@@H]1CN(c2ccc(-n3ccc[nH+]3)nn2)CCC[C@H]1OC (3D coordinates assigned)
CCN[C@@H]1CN(c2ccc(-n3ccc[nH+]3)nn2)CCC[C@H]1OC (nonaromatic ring conformer: 96.79748429028902 kcal/mol)

>  <smiles>  (30) 
CCNC1CN(c2ccc(-n3cccn3)nn2)CCCC1OC

>  <score_type>  (30) 
oracle

>  <origin>  (30) 
adg

>  <m_score__min__energy>  (30) 
-4.1699999999999999

>  <m_primary>  (30) 
energy

$$$$
30:0
     RDKit          3D

 63 65  0  0  0  0  0  0  0  0999 V2000
   55.3960   25.8172   46.7918 H   0  0  0  0  0  0  0  0  0  0  0  0
   56.2290   26.4320   46.4200 C   0  0  0  0  0  0  0  0  0  0  0  0
   55.9780   27.4850   45.6020 N   0  0  0  0  0  0  0  0  0  0  0  0
   56.9750   28.2710   45.1210 C   0  0  0  0  0  0  0  0  0  0  0  0
   56.6630   29.3510   44.2860 C   0  0  0  0  0  0  0  0  0  0  0  0
   55.6153   29.5513   44.0173 H   0  0  0  0  0  0  0  0  0  0  0  0
   57.6780   30.1750   43.7930 C   0  0  0  0  0  0  0  0  0  0  0  0
   57.2810   31.5280   42.7510 Cl  0  0  0  0  0  0  0  0  0  0  0  0
   59.0110   29.9250   44.1340 C   0  0  0  0  0  0  0  0  0  0  0  0
   59.8071   30.5780   43.7471 H   0  0  0  0  0  0  0  0  0  0  0  0
   59.3360   28.8480   44.9650 C   0  0  0  0  0  0  0  0  0  0  0  0
   60.3870   28.6582   45.2285 H   0  0  0  0  0  0  0  0  0  0  0  0
   58.3240   28.0040   45.4670 C   0  0  0  0  0  0  0  0  0  0  0  0
   58.6090   26.9120   46.3180 C   0  0  0  0  0  0  0  0  0  0  0  0
   59.8490   26.6720   46.6610 N   0  0  0  0  0  0  0  0  0  0  0  0
   60.4930   26.9380   47.9470 C   0  0  0  0  0  0  0  0  0  0  0  0
   61.5523   27.1754   47.7697 H   0  0  0  0  0  0  0  0  0  0  0  0
   60.3817   26.0392   48.5713 H   0  0  0  0  0  0  0  0  0  0  0  0
   59.8370   28.1210   48.6990 C   0  0  0  0  0  0  0  0  0  0  0  0
   60.2824   28.1754   49.7033 H   0  0  0  0  0  0  0  0  0  0  0  0
   58.7563   27.9159   48.7097 H   0  0  0  0  0  0  0  0  0  0  0  0
   60.0000   29.4470   48.0510 N   0  0  0  0  0  0  0  0  0  0  0  0
   58.7050   30.1280   47.8210 C   0  0  0  0  0  0  0  0  0  0  0  0
   58.1993   29.6599   46.9636 H   0  0  0  0  0  0  0  0  0  0  0  0
   58.0912   30.0316   48.7287 H   0  0  0  0  0  0  0  0  0  0  0  0
   58.9110   31.5910   47.5330 C   0  0  0  0  0  0  0  0  0  0  0  0
   59.0740   32.4990   48.5900 C   0  0  0  0  0  0  0  0  0  0  0  0
   59.0877   32.1347   49.6278 H   0  0  0  0  0  0  0  0  0  0  0  0
   59.2190   33.8640   48.3300 C   0  0  0  0  0  0  0  0  0  0  0  0
   59.3468   34.5677   49.1658 H   0  0  0  0  0  0  0  0  0  0  0  0
   59.2030   34.3440   47.0150 C   0  0  0  0  0  0  0  0  0  0  0  0
   59.3500   35.7240   46.8070 O   0  0  0  0  0  0  0  0  0  0  0  0
   60.0160   36.3010   45.6890 C   0  0  0  0  0  0  0  0  0  0  0  0
   60.8032   36.9830   46.0430 H   0  0  0  0  0  0  0  0  0  0  0  0
   60.4678   35.5041   45.0800 H   0  0  0  0  0  0  0  0  0  0  0  0
   59.2916   36.8618   45.0800 H   0  0  0  0  0  0  0  0  0  0  0  0
   59.0410   33.4330   45.9530 C   0  0  0  0  0  0  0  0  0  0  0  0
   59.0285   33.7977   44.9153 H   0  0  0  0  0  0  0  0  0  0  0  0
   58.8960   32.0670   46.2130 C   0  0  0  0  0  0  0  0  0  0  0  0
   58.7695   31.3616   45.3785 H   0  0  0  0  0  0  0  0  0  0  0  0
   61.0150   30.3060   48.7050 C   0  0  0  0  0  0  0  0  0  0  0  0
   61.6209   29.6867   49.3828 H   0  0  0  0  0  0  0  0  0  0  0  0
   60.4862   31.0979   49.2557 H   0  0  0  0  0  0  0  0  0  0  0  0
   61.9500   30.9820   47.6770 C   0  0  0  0  0  0  0  0  0  0  0  0
   61.3230   31.4013   46.8763 H   0  0  0  0  0  0  0  0  0  0  0  0
   62.6410   30.1947   47.3413 H   0  0  0  0  0  0  0  0  0  0  0  0
   62.8100   32.0740   48.2000 N   0  0  0  0  0  0  0  0  0  0  0  0
   63.5210   31.8810   49.4810 C   0  0  0  0  0  0  0  0  0  0  0  0
   63.8313   30.8288   49.5626 H   0  0  0  0  0  0  0  0  0  0  0  0
   62.8378   32.1522   50.2993 H   0  0  0  0  0  0  0  0  0  0  0  0
   64.7580   32.7720   49.5740 C   0  0  0  0  0  0  0  0  0  0  0  0
   65.0037   32.9490   50.6315 H   0  0  0  0  0  0  0  0  0  0  0  0
   65.6055   32.2756   49.0787 H   0  0  0  0  0  0  0  0  0  0  0  0
   64.5557   33.7331   49.0787 H   0  0  0  0  0  0  0  0  0  0  0  0
   63.5060   32.9120   47.2020 C   0  0  0  0  0  0  0  0  0  0  0  0
   64.2545   33.5255   47.7248 H   0  0  0  0  0  0  0  0  0  0  0  0
   63.9613   32.2292   46.4696 H   0  0  0  0  0  0  0  0  0  0  0  0
   62.5740   33.8440   46.4260 C   0  0  0  0  0  0  0  0  0  0  0  0
   61.9785   34.4395   47.1337 H   0  0  0  0  0  0  0  0  0  0  0  0
   63.1717   34.5165   45.7931 H   0  0  0  0  0  0  0  0  0  0  0  0
   61.9015   33.2463   45.7931 H   0  0  0  0  0  0  0  0  0  0  0  0
   57.5380   26.1250   46.7920 C   0  0  0  0  0  0  0  0  0  0  0  0
   57.7352   25.2695   47.4548 H   0  0  0  0  0  0  0  0  0  0  0  0
  1  2  1  0
  2  3  1  0
  3  4  1  0
  4  5  2  0
  5  6  1  0
  5  7  1  0
  7  8  1  0
  7  9  2  0
  9 10  1  0
  9 11  1  0
 11 12  1  0
 11 13  2  0
 13 14  1  0
 14 15  2  0
 15 16  1  0
 16 17  1  0
 16 18  1  0
 16 19  1  0
 19 20  1  0
 19 21  1  0
 19 22  1  0
 22 23  1  0
 23 24  1  0
 23 25  1  0
 23 26  1  0
 26 27  2  0
 27 28  1  0
 27 29  1  0
 29 30  1  0
 29 31  2  0
 31 32  1  0
 32 33  1  0
 33 34  1  0
 33 35  1  0
 33 36  1  0
 31 37  1  0
 37 38  1  0
 37 39  2  0
 39 40  1  0
 22 41  1  0
 41 42  1  0
 41 43  1  0
 41 44  1  0
 44 45  1  0
 44 46  1  0
 44 47  1  0
 47 48  1  0
 48 49  1  0
 48 50  1  0
 48 51  1  0
 51 52  1  0
 51 53  1  0
 51 54  1  0
 47 55  1  0
 55 56  1  0
 55 57  1  0
 55 58  1  0
 58 59  1  0
 58 60  1  0
 58 61  1  0
 14 62  1  0
 62 63  1  0
 62  2  2  0
 13  4  1  0
 39 26  1  0
M  CHG  1   3  -1
M  END
>  <UniqueID>  (31) 
31

>  <SMILES>  (31) 
CCN(CC)CCN(CC/N=c1\cc[n-]c2cc(Cl)ccc12)Cc1ccc(OC)cc1

>  <Energy>  (31) 
80.59426179294519

>  <Genealogy>  (31) 
CCN(CC)CCN(CCN=c1cc[n-]c2cc(Cl)ccc12)Cc1ccc(OC)cc1 (protonated)
CCN(CC)CCN(CC/N=c1\cc[n-]c2cc(Cl)ccc12)Cc1ccc(OC)cc1 (cis-trans isomerization)
CCN(CC)CCN(CC/N=c1\cc[n-]c2cc(Cl)ccc12)Cc1ccc(OC)cc1 (3D coordinates assigned)
CCN(CC)CCN(CC/N=c1\cc[n-]c2cc(Cl)ccc12)Cc1ccc(OC)cc1 (optimized conformer: 80.59426179294519 kcal/mol)

>  <smiles>  (31) 
CCN(CC)CCN(CCN=c1cc[nH]c2cc(Cl)ccc12)Cc1ccc(OC)cc1

>  <score_type>  (31) 
oracle

>  <origin>  (31) 
adg

>  <m_score__min__energy>  (31) 
-9.6799999999999997

>  <m_primary>  (31) 
energy

$$$$
31:0
     RDKit          3D

 50 52  0  0  0  0  0  0  0  0999 V2000
   61.8430   30.8270   48.6680 C   0  0  0  0  0  0  0  0  0  0  0  0
   62.6590   31.2310   47.4430 C   0  0  0  0  0  0  0  0  0  0  0  0
   63.4610   32.4290   47.7440 N   0  0  0  0  0  0  0  0  0  0  0  0
   62.7700   33.6800   47.3880 C   0  0  0  0  0  0  0  0  0  0  0  0
   61.9020   34.2110   48.5460 C   0  0  0  0  0  0  0  0  0  0  0  0
   60.4500   33.9060   48.2980 C   0  0  0  0  0  0  0  0  0  0  0  0
   59.7010   33.7040   49.2920 O   0  0  0  0  0  0  0  0  0  0  0  0
   59.9120   33.8440   46.9610 N   0  0  0  0  0  0  0  0  0  0  0  0
   59.8120   34.9950   46.0560 C   0  0  0  0  0  0  0  0  0  0  0  0
   58.9060   34.5530   44.8830 C   0  0  0  0  0  0  0  0  0  0  0  0
   58.5720   33.1440   45.2180 C   0  0  0  0  0  0  0  0  0  0  0  0
   57.7990   32.2510   44.4750 C   0  0  0  0  0  0  0  0  0  0  0  0
   57.6470   30.9340   44.9480 C   0  0  0  0  0  0  0  0  0  0  0  0
   56.6740   29.7750   44.0520 S   0  0  0  0  0  0  0  0  0  0  0  0
   56.1570   30.4190   42.7950 O   0  0  0  0  0  0  0  0  0  0  0  0
   55.5010   29.3380   44.8890 O   0  0  0  0  0  0  0  0  0  0  0  0
   57.6830   28.3610   43.6390 C   0  0  0  0  0  0  0  0  0  0  0  0
   58.3310   27.7990   44.8720 C   0  0  0  0  0  0  0  0  0  0  0  0
   57.5490   27.2020   45.8760 C   0  0  0  0  0  0  0  0  0  0  0  0
   58.1520   26.7140   47.0400 C   0  0  0  0  0  0  0  0  0  0  0  0
   59.5350   26.8260   47.2140 C   0  0  0  0  0  0  0  0  0  0  0  0
   60.3170   27.4270   46.2240 C   0  0  0  0  0  0  0  0  0  0  0  0
   59.7190   27.9180   45.0590 C   0  0  0  0  0  0  0  0  0  0  0  0
   58.2650   30.5470   46.1560 C   0  0  0  0  0  0  0  0  0  0  0  0
   59.0420   31.4630   46.8830 C   0  0  0  0  0  0  0  0  0  0  0  0
   59.1650   32.7720   46.3970 C   0  0  0  0  0  0  0  0  0  0  0  0
   62.3929   31.0993   49.5810 H   0  0  0  0  0  0  0  0  0  0  0  0
   60.8755   31.3502   48.6529 H   0  0  0  0  0  0  0  0  0  0  0  0
   61.6725   29.7404   48.6529 H   0  0  0  0  0  0  0  0  0  0  0  0
   63.3293   30.4049   47.1633 H   0  0  0  0  0  0  0  0  0  0  0  0
   61.9747   31.4545   46.6113 H   0  0  0  0  0  0  0  0  0  0  0  0
   64.3750   32.3730   47.2330 H   0  0  0  0  0  0  0  0  0  0  0  0
   63.5223   34.4402   47.1307 H   0  0  0  0  0  0  0  0  0  0  0  0
   62.1073   33.4709   46.5353 H   0  0  0  0  0  0  0  0  0  0  0  0
   62.2176   33.7316   49.4844 H   0  0  0  0  0  0  0  0  0  0  0  0
   62.0299   35.3013   48.6158 H   0  0  0  0  0  0  0  0  0  0  0  0
   59.3645   35.8526   46.5797 H   0  0  0  0  0  0  0  0  0  0  0  0
   60.8040   35.3067   45.6972 H   0  0  0  0  0  0  0  0  0  0  0  0
   57.9978   35.1715   44.8324 H   0  0  0  0  0  0  0  0  0  0  0  0
   59.3921   34.6576   43.9018 H   0  0  0  0  0  0  0  0  0  0  0  0
   57.3181   32.5698   43.5385 H   0  0  0  0  0  0  0  0  0  0  0  0
   57.0511   27.5878   43.1777 H   0  0  0  0  0  0  0  0  0  0  0  0
   58.4685   28.6774   42.9370 H   0  0  0  0  0  0  0  0  0  0  0  0
   56.4599   27.1184   45.7460 H   0  0  0  0  0  0  0  0  0  0  0  0
   57.5371   26.2412   47.8200 H   0  0  0  0  0  0  0  0  0  0  0  0
   60.0072   26.4411   48.1299 H   0  0  0  0  0  0  0  0  0  0  0  0
   61.4049   27.5141   46.3613 H   0  0  0  0  0  0  0  0  0  0  0  0
   60.3370   28.3989   44.2864 H   0  0  0  0  0  0  0  0  0  0  0  0
   58.1372   29.5207   46.5307 H   0  0  0  0  0  0  0  0  0  0  0  0
   59.5434   31.1599   47.8140 H   0  0  0  0  0  0  0  0  0  0  0  0
  1  2  1  0
  2  3  1  0
  3  4  1  0
  4  5  1  0
  5  6  1  0
  6  7  2  0
  6  8  1  0
  8  9  1  0
  9 10  1  0
 10 11  1  0
 11 12  2  0
 12 13  1  0
 13 14  1  0
 14 15  2  0
 14 16  2  0
 14 17  1  0
 17 18  1  0
 18 19  2  0
 19 20  1  0
 20 21  2  0
 21 22  1  0
 22 23  2  0
 13 24  2  0
 24 25  1  0
 25 26  2  0
 26  8  1  0
 26 11  1  0
 23 18  1  0
  1 27  1  0
  1 28  1  0
  1 29  1  0
  2 30  1  0
  2 31  1  0
  3 32  1  0
  4 33  1  0
  4 34  1  0
  5 35  1  0
  5 36  1  0
  9 37  1  0
  9 38  1  0
 10 39  1  0
 10 40  1  0
 12 41  1  0
 17 42  1  0
 17 43  1  0
 19 44  1  0
 20 45  1  0
 21 46  1  0
 22 47  1  0
 23 48  1  0
 24 49  1  0
 25 50  1  0
M  END
>  <UniqueID>  (32) 
32

>  <SMILES>  (32) 
CCNCCC(=O)N1CCc2cc(S(=O)(=O)Cc3ccccc3)ccc21

>  <Energy>  (32) 
61.21427353768232

>  <Genealogy>  (32) 
CCNCCC(=O)N1CCc2cc(S(=O)(=O)Cc3ccccc3)ccc21 (3D coordinates assigned)
CCNCCC(=O)N1CCc2cc(S(=O)(=O)Cc3ccccc3)ccc21 (nonaromatic ring conformer: 61.21427353768232 kcal/mol)

>  <smiles>  (32) 
CCNCCC(=O)N1CCc2cc(S(=O)(=O)Cc3ccccc3)ccc21

>  <score_type>  (32) 
oracle

>  <origin>  (32) 
adg

>  <m_score__min__energy>  (32) 
-9.4199999999999999

>  <m_primary>  (32) 
energy

$$$$
32:0
     RDKit          3D

 43 45  0  0  0  0  0  0  0  0999 V2000
   55.7540   24.0020   45.5940 C   0  0  0  0  0  0  0  0  0  0  0  0
   54.5920   24.9900   45.6110 C   0  0  0  0  0  0  0  0  0  0  0  0
   55.0610   26.3280   45.9960 N   0  0  0  0  0  0  0  0  0  0  0  0
   56.5260   26.3810   46.0930 C   0  0  0  0  0  0  0  0  0  0  0  0
   57.0580   27.6560   45.4330 C   0  0  0  0  0  0  0  0  0  0  0  0
   55.9740   28.6300   45.2450 N   0  0  0  0  0  0  0  0  0  0  0  0
   56.3270   29.6420   44.2380 C   0  0  0  0  0  0  0  0  0  0  0  0
   57.8440   29.8550   44.1710 C   0  0  0  0  0  0  0  0  0  0  0  0
   58.3190   30.6380   45.3180 N   0  0  0  0  0  0  0  0  0  0  0  0
   59.0900   30.1970   46.3460 C   0  0  0  0  0  0  0  0  0  0  0  0
   59.5460   28.8970   46.5860 C   0  0  0  0  0  0  0  0  0  0  0  0
   60.3430   28.6730   47.7230 C   0  0  0  0  0  0  0  0  0  0  0  0
   60.6680   29.7360   48.5940 C   0  0  0  0  0  0  0  0  0  0  0  0
   60.1980   31.0360   48.3400 C   0  0  0  0  0  0  0  0  0  0  0  0
   59.4120   31.2300   47.2070 C   0  0  0  0  0  0  0  0  0  0  0  0
   58.8170   32.3570   46.6910 C   0  0  0  0  0  0  0  0  0  0  0  0
   58.7990   33.6800   47.1210 C   0  0  0  0  0  0  0  0  0  0  0  0
   58.1060   34.5890   46.3750 N   0  0  0  0  0  0  0  0  0  0  0  0
   57.4370   34.2330   45.2330 C   0  0  0  0  0  0  0  0  0  0  0  0
   57.4450   32.9000   44.7860 C   0  0  0  0  0  0  0  0  0  0  0  0
   58.1590   31.9680   45.5440 C   0  0  0  0  0  0  0  0  0  0  0  0
   56.0421   23.7570   46.6269 H   0  0  0  0  0  0  0  0  0  0  0  0
   55.4471   23.0840   45.0714 H   0  0  0  0  0  0  0  0  0  0  0  0
   56.6107   24.4525   45.0714 H   0  0  0  0  0  0  0  0  0  0  0  0
   54.1430   25.0383   44.6080 H   0  0  0  0  0  0  0  0  0  0  0  0
   53.8458   24.6496   46.3440 H   0  0  0  0  0  0  0  0  0  0  0  0
   54.7680   26.9940   45.2420 H   0  0  0  0  0  0  0  0  0  0  0  0
   56.8198   26.3717   47.1530 H   0  0  0  0  0  0  0  0  0  0  0  0
   56.9500   25.5075   45.5760 H   0  0  0  0  0  0  0  0  0  0  0  0
   57.8347   28.0983   46.0742 H   0  0  0  0  0  0  0  0  0  0  0  0
   57.4787   27.3983   44.4498 H   0  0  0  0  0  0  0  0  0  0  0  0
   55.1380   28.1070   44.8910 H   0  0  0  0  0  0  0  0  0  0  0  0
   55.9681   29.3082   43.2532 H   0  0  0  0  0  0  0  0  0  0  0  0
   55.8547   30.5940   44.5218 H   0  0  0  0  0  0  0  0  0  0  0  0
   58.3447   28.8756   44.1726 H   0  0  0  0  0  0  0  0  0  0  0  0
   58.0787   30.4078   43.2494 H   0  0  0  0  0  0  0  0  0  0  0  0
   59.2886   28.0727   45.9046 H   0  0  0  0  0  0  0  0  0  0  0  0
   60.7166   27.6605   47.9357 H   0  0  0  0  0  0  0  0  0  0  0  0
   61.2939   29.5451   49.4782 H   0  0  0  0  0  0  0  0  0  0  0  0
   60.4426   31.8712   49.0128 H   0  0  0  0  0  0  0  0  0  0  0  0
   59.3281   33.9848   48.0360 H   0  0  0  0  0  0  0  0  0  0  0  0
   56.8892   34.9966   44.6614 H   0  0  0  0  0  0  0  0  0  0  0  0
   56.9089   32.6016   43.8730 H   0  0  0  0  0  0  0  0  0  0  0  0
  1  2  1  0
  2  3  1  0
  3  4  1  0
  4  5  1  0
  5  6  1  0
  6  7  1  0
  7  8  1  0
  8  9  1  0
  9 10  1  0
 10 11  2  0
 11 12  1  0
 12 13  2  0
 13 14  1  0
 14 15  2  0
 15 16  1  0
 16 17  2  0
 17 18  1  0
 18 19  2  0
 19 20  1  0
 20 21  2  0
 21  9  1  0
 15 10  1  0
 21 16  1  0
  1 22  1  0
  1 23  1  0
  1 24  1  0
  2 25  1  0
  2 26  1  0
  3 27  1  0
  4 28  1  0
  4 29  1  0
  5 30  1  0
  5 31  1  0
  6 32  1  0
  7 33  1  0
  7 34  1  0
  8 35  1  0
  8 36  1  0
 11 37  1  0
 12 38  1  0
 13 39  1  0
 14 40  1  0
 17 41  1  0
 19 42  1  0
 20 43  1  0
M  END
>  <UniqueID>  (33) 
33

>  <SMILES>  (33) 
CCNCCNCCn1c2ccccc2c2cnccc21

>  <Energy>  (33) 
78.06238349777308

>  <Genealogy>  (33) 
CCNCCNCCn1c2ccccc2c2cnccc21 (3D coordinates assigned)
CCNCCNCCn1c2ccccc2c2cnccc21 (optimized conformer: 78.06238349777308 kcal/mol)

>  <smiles>  (33) 
CCNCCNCCn1c2ccccc2c2cnccc21

>  <score_type>  (33) 
oracle

>  <origin>  (33) 
adg

>  <m_score__min__energy>  (33) 
-7.4500000000000002

>  <m_primary>  (33) 
energy

$$$$
33:0
     RDKit          3D

 41 44  0  0  0  0  0  0  0  0999 V2000
   55.8390   23.0680   46.9130 C   0  0  0  0  0  0  0  0  0  0  0  0
   55.3990   24.3510   46.4790 O   0  0  0  0  0  0  0  0  0  0  0  0
   56.2390   25.3340   45.9350 C   0  0  0  0  0  0  0  0  0  0  0  0
   57.1270   24.9630   44.9200 C   0  0  0  0  0  0  0  0  0  0  0  0
   57.9860   25.9050   44.3460 C   0  0  0  0  0  0  0  0  0  0  0  0
   57.9740   27.2360   44.7900 C   0  0  0  0  0  0  0  0  0  0  0  0
   58.8630   28.2620   44.1460 C   0  0  0  0  0  0  0  0  0  0  0  0
   58.6310   29.5700   44.7510 N   0  0  0  0  0  0  0  0  0  0  0  0
   57.5400   30.3010   44.5500 N   0  0  0  0  0  0  0  0  0  0  0  0
   57.7710   31.4570   45.2040 C   0  0  0  0  0  0  0  0  0  0  0  0
   56.9360   32.5240   45.2270 N   0  0  0  0  0  0  0  0  0  0  0  0
   57.3300   33.6520   45.8860 C   0  0  0  0  0  0  0  0  0  0  0  0
   58.5840   33.7100   46.5240 C   0  0  0  0  0  0  0  0  0  0  0  0
   59.4250   32.5830   46.4850 C   0  0  0  0  0  0  0  0  0  0  0  0
   60.7320   32.5990   47.1740 C   0  0  0  0  0  0  0  0  0  0  0  0
   60.9560   31.7790   48.2920 C   0  0  0  0  0  0  0  0  0  0  0  0
   62.1860   31.8120   48.9560 C   0  0  0  0  0  0  0  0  0  0  0  0
   63.1980   32.6730   48.5160 C   0  0  0  0  0  0  0  0  0  0  0  0
   64.7400   32.7130   49.3500 Cl  0  0  0  0  0  0  0  0  0  0  0  0
   62.9760   33.5030   47.4130 C   0  0  0  0  0  0  0  0  0  0  0  0
   61.7460   33.4720   46.7470 C   0  0  0  0  0  0  0  0  0  0  0  0
   58.9710   31.4900   45.8070 N   0  0  0  0  0  0  0  0  0  0  0  0
   59.4990   30.2950   45.4900 C   0  0  0  0  0  0  0  0  0  0  0  0
   60.6610   29.9140   45.7960 O   0  0  0  0  0  0  0  0  0  0  0  0
   57.0750   27.6150   45.7980 C   0  0  0  0  0  0  0  0  0  0  0  0
   56.2160   26.6730   46.3720 C   0  0  0  0  0  0  0  0  0  0  0  0
   55.8498   23.0366   48.0125 H   0  0  0  0  0  0  0  0  0  0  0  0
   55.1540   22.2968   46.5309 H   0  0  0  0  0  0  0  0  0  0  0  0
   56.8531   22.8795   46.5309 H   0  0  0  0  0  0  0  0  0  0  0  0
   57.1497   23.9204   44.5701 H   0  0  0  0  0  0  0  0  0  0  0  0
   58.6740   25.6015   43.5431 H   0  0  0  0  0  0  0  0  0  0  0  0
   59.9151   27.9750   44.2899 H   0  0  0  0  0  0  0  0  0  0  0  0
   58.6358   28.3147   43.0710 H   0  0  0  0  0  0  0  0  0  0  0  0
   56.6613   34.5248   45.9192 H   0  0  0  0  0  0  0  0  0  0  0  0
   58.9018   34.6246   47.0460 H   0  0  0  0  0  0  0  0  0  0  0  0
   60.1601   31.1077   48.6469 H   0  0  0  0  0  0  0  0  0  0  0  0
   62.3586   31.1605   49.8253 H   0  0  0  0  0  0  0  0  0  0  0  0
   63.7700   34.1817   47.0681 H   0  0  0  0  0  0  0  0  0  0  0  0
   61.5724   34.1338   45.8857 H   0  0  0  0  0  0  0  0  0  0  0  0
   57.0457   28.6604   46.1391 H   0  0  0  0  0  0  0  0  0  0  0  0
   55.5201   26.9784   47.1673 H   0  0  0  0  0  0  0  0  0  0  0  0
  1  2  1  0
  2  3  1  0
  3  4  2  0
  4  5  1  0
  5  6  2  0
  6  7  1  0
  7  8  1  0
  8  9  1  0
  9 10  2  0
 10 11  1  0
 11 12  2  0
 12 13  1  0
 13 14  2  0
 14 15  1  0
 15 16  2  0
 16 17  1  0
 17 18  2  0
 18 19  1  0
 18 20  1  0
 20 21  2  0
 14 22  1  0
 22 23  1  0
 23 24  2  0
  6 25  1  0
 25 26  2  0
 26  3  1  0
 23  8  1  0
 22 10  1  0
 21 15  1  0
  1 27  1  0
  1 28  1  0
  1 29  1  0
  4 30  1  0
  5 31  1  0
  7 32  1  0
  7 33  1  0
 12 34  1  0
 13 35  1  0
 16 36  1  0
 17 37  1  0
 20 38  1  0
 21 39  1  0
 25 40  1  0
 26 41  1  0
M  END
>  <UniqueID>  (34) 
34

>  <SMILES>  (34) 
COc1ccc(Cn2nc3nccc(-c4ccc(Cl)cc4)n3c2=O)cc1

>  <Energy>  (34) 
95.92512261278148

>  <Genealogy>  (34) 
COc1ccc(Cn2nc3nccc(-c4ccc(Cl)cc4)n3c2=O)cc1 (3D coordinates assigned)
COc1ccc(Cn2nc3nccc(-c4ccc(Cl)cc4)n3c2=O)cc1 (optimized conformer: 95.92512261278148 kcal/mol)

>  <smiles>  (34) 
COc1ccc(Cn2nc3nccc(-c4ccc(Cl)cc4)n3c2=O)cc1

>  <score_type>  (34) 
oracle

>  <origin>  (34) 
adg

>  <m_score__min__energy>  (34) 
-7.9500000000000002

>  <m_primary>  (34) 
energy

$$$$
34:0
     RDKit          3D

 40 42  0  0  0  0  0  0  0  0999 V2000
   55.9070   30.2080   44.1100 C   0  0  0  0  0  0  0  0  0  0  0  0
   55.9350   28.9730   44.8190 O   0  0  0  0  0  0  0  0  0  0  0  0
   56.9930   28.5550   45.6390 C   0  0  0  0  0  0  0  0  0  0  0  0
   57.1340   27.1870   45.8960 C   0  0  0  0  0  0  0  0  0  0  0  0
   58.1800   26.7210   46.6950 C   0  0  0  0  0  0  0  0  0  0  0  0
   59.0960   27.6190   47.2470 C   0  0  0  0  0  0  0  0  0  0  0  0
   58.9670   28.9970   47.0110 C   0  0  0  0  0  0  0  0  0  0  0  0
   59.9250   29.9240   47.5620 N   0  0  0  0  0  0  0  0  0  0  0  0
   60.6280   30.8580   46.6780 C   0  0  0  0  0  0  0  0  0  0  0  0
   61.4170   31.9130   47.4710 C   0  0  0  0  0  0  0  0  0  0  0  0
   60.7040   32.4400   48.6680 N   0  0  0  0  0  0  0  0  0  0  0  0
   59.9490   33.6460   48.3650 C   0  0  0  0  0  0  0  0  0  0  0  0
   60.0740   34.6440   49.1290 O   0  0  0  0  0  0  0  0  0  0  0  0
   59.0820   33.8070   47.1680 C   0  0  0  0  0  0  0  0  0  0  0  0
   57.8420   33.1920   47.0080 C   0  0  0  0  0  0  0  0  0  0  0  0
   57.2370   33.4480   45.7710 C   0  0  0  0  0  0  0  0  0  0  0  0
   57.9950   34.2540   44.9350 C   0  0  0  0  0  0  0  0  0  0  0  0
   59.4160   34.6400   45.7410 S   0  0  0  0  0  0  0  0  0  0  0  0
   59.9270   31.4490   49.4650 C   0  0  0  0  0  0  0  0  0  0  0  0
   60.1520   30.0070   49.0060 C   0  0  0  0  0  0  0  0  0  0  0  0
   57.9140   29.4590   46.2040 C   0  0  0  0  0  0  0  0  0  0  0  0
   55.8881   31.0420   44.8270 H   0  0  0  0  0  0  0  0  0  0  0  0
   56.8036   30.2882   43.4777 H   0  0  0  0  0  0  0  0  0  0  0  0
   55.0077   30.2475   43.4777 H   0  0  0  0  0  0  0  0  0  0  0  0
   56.4158   26.4736   45.4656 H   0  0  0  0  0  0  0  0  0  0  0  0
   58.2828   25.6434   46.8902 H   0  0  0  0  0  0  0  0  0  0  0  0
   59.9223   27.2451   47.8695 H   0  0  0  0  0  0  0  0  0  0  0  0
   61.3276   30.2914   46.0458 H   0  0  0  0  0  0  0  0  0  0  0  0
   59.8771   31.3810   46.0676 H   0  0  0  0  0  0  0  0  0  0  0  0
   62.3611   31.4579   47.8050 H   0  0  0  0  0  0  0  0  0  0  0  0
   61.5697   32.7666   46.7942 H   0  0  0  0  0  0  0  0  0  0  0  0
   61.4770   32.7490   49.3060 H   0  0  0  0  0  0  0  0  0  0  0  0
   57.3801   32.5625   47.7829 H   0  0  0  0  0  0  0  0  0  0  0  0
   56.2523   33.0471   45.4889 H   0  0  0  0  0  0  0  0  0  0  0  0
   57.7148   34.5822   43.9232 H   0  0  0  0  0  0  0  0  0  0  0  0
   60.2289   31.5327   50.5194 H   0  0  0  0  0  0  0  0  0  0  0  0
   58.8600   31.6770   49.3249 H   0  0  0  0  0  0  0  0  0  0  0  0
   61.1845   29.7043   49.2348 H   0  0  0  0  0  0  0  0  0  0  0  0
   59.4542   29.3376   49.5304 H   0  0  0  0  0  0  0  0  0  0  0  0
   57.8076   30.5368   46.0114 H   0  0  0  0  0  0  0  0  0  0  0  0
  1  2  1  0
  2  3  1  0
  3  4  2  0
  4  5  1  0
  5  6  2  0
  6  7  1  0
  7  8  1  0
  8  9  1  0
  9 10  1  0
 10 11  1  0
 11 12  1  0
 12 13  2  0
 12 14  1  0
 14 15  2  0
 15 16  1  0
 16 17  2  0
 17 18  1  0
 11 19  1  0
 19 20  1  0
  7 21  2  0
 21  3  1  0
 20  8  1  0
 18 14  1  0
  1 22  1  0
  1 23  1  0
  1 24  1  0
  4 25  1  0
  5 26  1  0
  6 27  1  0
  9 28  1  0
  9 29  1  0
 10 30  1  0
 10 31  1  0
 11 32  1  0
 15 33  1  0
 16 34  1  0
 17 35  1  0
 19 36  1  0
 19 37  1  0
 20 38  1  0
 20 39  1  0
 21 40  1  0
M  CHG  1  11   1
M  END
>  <UniqueID>  (35) 
35

>  <SMILES>  (35) 
COc1cccc(N2CC[NH+](C(=O)c3cccs3)CC2)c1

>  <Energy>  (35) 
85.0784047960928

>  <Genealogy>  (35) 
COc1cccc(N2CC[NH+](C(=O)c3cccs3)CC2)c1 (protonated)
COc1cccc(N2CC[NH+](C(=O)c3cccs3)CC2)c1 (3D coordinates assigned)
COc1cccc(N2CC[NH+](C(=O)c3cccs3)CC2)c1 (nonaromatic ring conformer: 85.0784047960928 kcal/mol)

>  <smiles>  (35) 
COc1cccc(N2CCN(C(=O)c3cccs3)CC2)c1

>  <score_type>  (35) 
oracle

>  <origin>  (35) 
adg

>  <m_score__min__energy>  (35) 
-5.5800000000000001

>  <m_primary>  (35) 
energy

$$$$
35:0
     RDKit          3D

 69 73  0  0  0  0  0  0  0  0999 V2000
   64.3372   35.0338   47.0733 H   0  0  0  0  0  0  0  0  0  0  0  0
   63.7300   34.1440   47.2960 C   0  0  0  0  0  0  0  0  0  0  0  0
   62.6220   33.8380   46.5020 C   0  0  0  0  0  0  0  0  0  0  0  0
   62.3537   34.4911   45.6585 H   0  0  0  0  0  0  0  0  0  0  0  0
   61.8530   32.7020   46.7780 C   0  0  0  0  0  0  0  0  0  0  0  0
   60.9711   32.4738   46.1614 H   0  0  0  0  0  0  0  0  0  0  0  0
   62.2050   31.8490   47.8440 C   0  0  0  0  0  0  0  0  0  0  0  0
   61.4300   30.6870   48.1810 N   0  0  0  0  0  0  0  0  0  0  0  0
   60.5400   30.1100   47.4270 C   0  0  0  0  0  0  0  0  0  0  0  0
   59.8260   30.8140   46.5530 O   0  0  0  0  0  0  0  0  0  0  0  0
   58.9050   30.2760   45.7560 C   0  0  0  0  0  0  0  0  0  0  0  0
   58.2030   31.0990   44.8550 C   0  0  0  0  0  0  0  0  0  0  0  0
   58.5050   32.5090   44.7930 N   0  0  0  0  0  0  0  0  0  0  0  0
   59.2370   32.8400   44.1230 H   0  0  0  0  0  0  0  0  0  0  0  0
   57.8760   33.5320   45.6300 C   0  0  0  0  0  0  0  0  0  0  0  0
   56.8257   33.6524   45.3261 H   0  0  0  0  0  0  0  0  0  0  0  0
   58.4197   34.4795   45.5015 H   0  0  0  0  0  0  0  0  0  0  0  0
   57.9300   33.1270   47.1070 C   0  0  0  0  0  0  0  0  0  0  0  0
   58.1507   32.0516   47.1767 H   0  0  0  0  0  0  0  0  0  0  0  0
   56.9565   33.3527   47.5668 H   0  0  0  0  0  0  0  0  0  0  0  0
   59.0160   33.9110   47.8560 C   0  0  0  0  0  0  0  0  0  0  0  0
   58.5654   34.8104   48.3010 H   0  0  0  0  0  0  0  0  0  0  0  0
   59.8036   34.1832   47.1380 H   0  0  0  0  0  0  0  0  0  0  0  0
   59.6270   33.0960   48.9310 N   0  0  0  0  0  0  0  0  0  0  0  0
   60.0510   33.9350   50.0810 C   0  0  0  0  0  0  0  0  0  0  0  0
   59.3441   34.7707   50.1906 H   0  0  0  0  0  0  0  0  0  0  0  0
   61.0692   34.2988   49.8788 H   0  0  0  0  0  0  0  0  0  0  0  0
   60.0840   33.1380   51.3940 C   0  0  0  0  0  0  0  0  0  0  0  0
   60.4268   33.8004   52.2025 H   0  0  0  0  0  0  0  0  0  0  0  0
   60.7686   32.2879   51.2574 H   0  0  0  0  0  0  0  0  0  0  0  0
   58.7490   32.5970   51.7520 N   0  0  0  0  0  0  0  0  0  0  0  0
   58.0550   33.4710   52.7240 C   0  0  0  0  0  0  0  0  0  0  0  0
   57.7391   32.8662   53.5868 H   0  0  0  0  0  0  0  0  0  0  0  0
   57.1856   33.9224   52.2237 H   0  0  0  0  0  0  0  0  0  0  0  0
   58.9660   34.5970   53.2130 C   0  0  0  0  0  0  0  0  0  0  0  0
   58.9758   34.6092   54.3129 H   0  0  0  0  0  0  0  0  0  0  0  0
   59.9871   34.4311   52.8390 H   0  0  0  0  0  0  0  0  0  0  0  0
   58.5906   35.5609   52.8390 H   0  0  0  0  0  0  0  0  0  0  0  0
   57.8980   32.3150   50.5670 C   0  0  0  0  0  0  0  0  0  0  0  0
   57.2870   33.2031   50.3479 H   0  0  0  0  0  0  0  0  0  0  0  0
   57.2640   31.4468   50.8000 H   0  0  0  0  0  0  0  0  0  0  0  0
   58.7400   31.9730   49.3290 C   0  0  0  0  0  0  0  0  0  0  0  0
   58.0639   31.7411   48.4928 H   0  0  0  0  0  0  0  0  0  0  0  0
   59.3755   31.1104   49.5783 H   0  0  0  0  0  0  0  0  0  0  0  0
   57.2350   30.5190   44.0170 C   0  0  0  0  0  0  0  0  0  0  0  0
   56.6842   31.1503   43.3042 H   0  0  0  0  0  0  0  0  0  0  0  0
   56.9650   29.1520   44.0790 C   0  0  0  0  0  0  0  0  0  0  0  0
   56.2052   28.7185   43.4120 H   0  0  0  0  0  0  0  0  0  0  0  0
   57.6480   28.3230   44.9790 C   0  0  0  0  0  0  0  0  0  0  0  0
   57.2910   26.8870   45.0210 C   0  0  0  0  0  0  0  0  0  0  0  0
   57.7850   26.0090   44.0430 C   0  0  0  0  0  0  0  0  0  0  0  0
   58.4498   26.3866   43.2521 H   0  0  0  0  0  0  0  0  0  0  0  0
   57.4340   24.6560   44.0720 C   0  0  0  0  0  0  0  0  0  0  0  0
   57.8290   23.9703   43.3079 H   0  0  0  0  0  0  0  0  0  0  0  0
   56.5820   24.1720   45.0700 C   0  0  0  0  0  0  0  0  0  0  0  0
   56.3102   23.1063   45.0926 H   0  0  0  0  0  0  0  0  0  0  0  0
   56.0760   25.0440   46.0390 C   0  0  0  0  0  0  0  0  0  0  0  0
   55.4031   24.6647   46.8222 H   0  0  0  0  0  0  0  0  0  0  0  0
   56.4250   26.3980   46.0130 C   0  0  0  0  0  0  0  0  0  0  0  0
   56.0197   27.0828   46.7724 H   0  0  0  0  0  0  0  0  0  0  0  0
   58.6380   28.8850   45.8200 C   0  0  0  0  0  0  0  0  0  0  0  0
   59.4030   28.1150   46.7130 C   0  0  0  0  0  0  0  0  0  0  0  0
   59.2487   27.0275   46.7734 H   0  0  0  0  0  0  0  0  0  0  0  0
   60.3560   28.7290   47.5210 C   0  0  0  0  0  0  0  0  0  0  0  0
   60.9565   28.1338   48.2246 H   0  0  0  0  0  0  0  0  0  0  0  0
   63.3010   32.1840   48.6510 C   0  0  0  0  0  0  0  0  0  0  0  0
   63.5605   31.5479   49.5101 H   0  0  0  0  0  0  0  0  0  0  0  0
   64.0670   33.3200   48.3730 C   0  0  0  0  0  0  0  0  0  0  0  0
   64.9353   33.5652   49.0023 H   0  0  0  0  0  0  0  0  0  0  0  0
  1  2  1  0
  2  3  2  0
  3  4  1  0
  3  5  1  0
  5  6  1  0
  5  7  2  0
  7  8  1  0
  8  9  2  0
  9 10  1  0
 10 11  1  0
 11 12  2  0
 12 13  1  0
 13 14  1  0
 13 15  1  0
 15 16  1  0
 15 17  1  0
 15 18  1  0
 18 19  1  0
 18 20  1  0
 18 21  1  0
 21 22  1  0
 21 23  1  0
 21 24  1  0
 24 25  1  0
 25 26  1  0
 25 27  1  0
 25 28  1  0
 28 29  1  0
 28 30  1  0
 28 31  1  0
 31 32  1  0
 32 33  1  0
 32 34  1  0
 32 35  1  0
 35 36  1  0
 35 37  1  0
 35 38  1  0
 31 39  1  0
 39 40  1  0
 39 41  1  0
 39 42  1  0
 42 43  1  0
 42 44  1  0
 12 45  1  0
 45 46  1  0
 45 47  2  0
 47 48  1  0
 47 49  1  0
 49 50  1  0
 50 51  2  0
 51 52  1  0
 51 53  1  0
 53 54  1  0
 53 55  2  0
 55 56  1  0
 55 57  1  0
 57 58  1  0
 57 59  2  0
 59 60  1  0
 49 61  2  0
 61 62  1  0
 62 63  1  0
 62 64  2  0
 64 65  1  0
  7 66  1  0
 66 67  1  0
 66 68  2  0
 68 69  1  0
 68  2  1  0
 64  9  1  0
 61 11  1  0
 42 24  1  0
 59 50  1  0
M  END
>  <UniqueID>  (36) 
36

>  <SMILES>  (36) 
CCN1CCN(CCCNc2ccc(-c3ccccc3)c3cc/c(=N/c4ccccc4)oc23)CC1

>  <Energy>  (36) 
99.88191549582383

>  <Genealogy>  (36) 
CCN1CCN(CCCNc2ccc(-c3ccccc3)c3cc/c(=N/c4ccccc4)oc23)CC1 (cis-trans isomerization)
CCN1CCN(CCCNc2ccc(-c3ccccc3)c3cc/c(=N/c4ccccc4)oc23)CC1 (3D coordinates assigned)
CCN1CCN(CCCNc2ccc(-c3ccccc3)c3cc/c(=N/c4ccccc4)oc23)CC1 (nonaromatic ring conformer: 99.88191549582383 kcal/mol)

>  <smiles>  (36) 
CCN1CCN(CCCNc2ccc(-c3ccccc3)c3ccc(=Nc4ccccc4)oc23)CC1

>  <score_type>  (36) 
oracle

>  <origin>  (36) 
adg

>  <m_score__min__energy>  (36) 
-9.1799999999999997

>  <m_primary>  (36) 
energy

$$$$
36:0
     RDKit          3D

 46 49  0  0  0  0  0  0  0  0999 V2000
   59.2210   34.2170   44.6830 C   0  0  0  0  0  0  0  0  0  0  0  0
   59.5840   34.0800   45.9540 C   0  0  0  0  0  0  0  0  0  0  0  0
   59.1640   32.7420   46.5340 C   0  0  1  0  0  0  0  0  0  0  0  0
   60.4200   31.9310   46.9560 C   0  0  0  0  0  0  0  0  0  0  0  0
   60.1160   30.9880   48.1310 C   0  0  0  0  0  0  0  0  0  0  0  0
   59.5980   31.6980   49.3400 N   0  0  1  0  0  0  0  0  0  0  0  0
   60.6660   31.9040   50.3530 C   0  0  0  0  0  0  0  0  0  0  0  0
   61.8000   30.8530   50.2470 C   0  0  0  0  0  0  0  0  0  0  0  0
   63.2020   31.4770   50.1630 C   0  0  0  0  0  0  0  0  0  0  0  0
   63.3620   32.3520   48.9590 C   0  0  0  0  0  0  0  0  0  0  0  0
   63.7460   31.9320   47.6910 C   0  0  0  0  0  0  0  0  0  0  0  0
   63.7260   32.9590   46.7420 C   0  0  0  0  0  0  0  0  0  0  0  0
   63.3230   34.1860   47.2540 C   0  0  0  0  0  0  0  0  0  0  0  0
   62.9840   33.9900   48.8910 S   0  0  0  0  0  0  0  0  0  0  0  0
   58.9320   32.9930   49.0370 C   0  0  0  0  0  0  0  0  0  0  0  0
   58.1730   32.9430   47.7060 C   0  0  0  0  0  0  0  0  0  0  0  0
   58.4780   32.1420   45.3350 C   0  0  0  0  0  0  0  0  0  0  0  0
   57.8530   30.8970   45.2030 C   0  0  0  0  0  0  0  0  0  0  0  0
   57.2810   30.5590   43.9650 C   0  0  0  0  0  0  0  0  0  0  0  0
   57.3380   31.4600   42.8850 C   0  0  0  0  0  0  0  0  0  0  0  0
   57.9680   32.7060   43.0360 C   0  0  0  0  0  0  0  0  0  0  0  0
   58.5280   33.0170   44.2740 C   0  0  0  0  0  0  0  0  0  0  0  0
   59.4152   35.0952   44.0497 H   0  0  0  0  0  0  0  0  0  0  0  0
   60.1276   34.8496   46.5216 H   0  0  0  0  0  0  0  0  0  0  0  0
   60.7639   31.3337   46.0987 H   0  0  0  0  0  0  0  0  0  0  0  0
   61.1964   32.6412   47.2767 H   0  0  0  0  0  0  0  0  0  0  0  0
   59.3615   30.2566   47.8056 H   0  0  0  0  0  0  0  0  0  0  0  0
   61.0633   30.5071   48.4164 H   0  0  0  0  0  0  0  0  0  0  0  0
   58.8610   31.0840   49.7590 H   0  0  0  0  0  0  0  0  0  0  0  0
   61.0990   32.9049   50.2096 H   0  0  0  0  0  0  0  0  0  0  0  0
   60.2066   31.7988   51.3469 H   0  0  0  0  0  0  0  0  0  0  0  0
   61.7591   30.2047   51.1347 H   0  0  0  0  0  0  0  0  0  0  0  0
   61.6373   30.2913   49.3153 H   0  0  0  0  0  0  0  0  0  0  0  0
   63.3750   32.0817   51.0655 H   0  0  0  0  0  0  0  0  0  0  0  0
   63.9314   30.6575   50.0833 H   0  0  0  0  0  0  0  0  0  0  0  0
   64.0362   30.8969   47.4576 H   0  0  0  0  0  0  0  0  0  0  0  0
   64.0035   32.8092   45.6882 H   0  0  0  0  0  0  0  0  0  0  0  0
   63.2397   35.1248   46.6868 H   0  0  0  0  0  0  0  0  0  0  0  0
   58.2215   33.2258   49.8439 H   0  0  0  0  0  0  0  0  0  0  0  0
   59.7088   33.7680   48.9597 H   0  0  0  0  0  0  0  0  0  0  0  0
   57.4590   32.1065   47.7259 H   0  0  0  0  0  0  0  0  0  0  0  0
   57.6351   33.8918   47.5631 H   0  0  0  0  0  0  0  0  0  0  0  0
   57.8104   30.1975   46.0508 H   0  0  0  0  0  0  0  0  0  0  0  0
   56.7859   29.5848   43.8390 H   0  0  0  0  0  0  0  0  0  0  0  0
   56.8875   31.1871   41.9193 H   0  0  0  0  0  0  0  0  0  0  0  0
   58.0182   33.4180   42.1991 H   0  0  0  0  0  0  0  0  0  0  0  0
  1  2  2  0
  2  3  1  0
  3  4  1  1
  4  5  1  0
  5  6  1  0
  6  7  1  0
  7  8  1  0
  8  9  1  0
  9 10  1  0
 10 11  2  0
 11 12  1  0
 12 13  2  0
 13 14  1  0
  6 15  1  0
 15 16  1  0
  3 17  1  0
 17 18  2  0
 18 19  1  0
 19 20  2  0
 20 21  1  0
 21 22  2  0
 22  1  1  0
 16  3  1  0
 22 17  1  0
 14 10  1  0
  1 23  1  0
  2 24  1  0
  4 25  1  0
  4 26  1  0
  5 27  1  0
  5 28  1  0
  6 29  1  1
  7 30  1  0
  7 31  1  0
  8 32  1  0
  8 33  1  0
  9 34  1  0
  9 35  1  0
 11 36  1  0
 12 37  1  0
 13 38  1  0
 15 39  1  0
 15 40  1  0
 16 41  1  0
 16 42  1  0
 18 43  1  0
 19 44  1  0
 20 45  1  0
 21 46  1  0
M  CHG  1   6   1
M  END
>  <UniqueID>  (37) 
37

>  <SMILES>  (37) 
C1=CC2(CC[NH+](CCCc3cccs3)CC2)c2ccccc21

>  <Energy>  (37) 
99.5928559642487

>  <Genealogy>  (37) 
C1=CC2(CC[NH+](CCCc3cccs3)CC2)c2ccccc21 (protonated)
C1=CC2(CC[NH+](CCCc3cccs3)CC2)c2ccccc21 (3D coordinates assigned)
C1=CC2(CC[NH+](CCCc3cccs3)CC2)c2ccccc21 (nonaromatic ring conformer: 99.5928559642487 kcal/mol)

>  <smiles>  (37) 
C1=CC2(CCN(CCCc3cccs3)CC2)c2ccccc21

>  <score_type>  (37) 
oracle

>  <origin>  (37) 
adg

>  <m_score__min__energy>  (37) 
-6.4400000000000004

>  <m_primary>  (37) 
energy

$$$$
37:0
     RDKit          3D

 43 44  0  0  0  0  0  0  0  0999 V2000
   60.7270   30.1150   47.8330 C   0  0  0  0  0  0  0  0  0  0  0  0
   59.4920   29.9010   46.9540 C   0  0  0  0  0  0  0  0  0  0  0  0
   59.5560   30.6550   45.6930 N   0  0  0  0  0  0  0  0  0  0  0  0
   58.4990   30.2590   44.7520 C   0  0  0  0  0  0  0  0  0  0  0  0
   57.3870   31.3130   44.7540 C   0  0  0  0  0  0  0  0  0  0  0  0
   57.7480   32.5850   43.9610 C   0  0  0  0  0  0  0  0  0  0  0  0
   58.1980   33.8050   44.8070 C   0  0  0  0  0  0  0  0  0  0  0  0
   59.0360   33.4580   45.9880 N   0  0  2  0  0  0  0  0  0  0  0  0
   58.1940   33.5700   47.2110 C   0  0  0  0  0  0  0  0  0  0  0  0
   58.7850   32.8570   48.4360 C   0  0  0  0  0  0  0  0  0  0  0  0
   59.7770   34.0280   49.4010 S   0  0  0  0  0  0  0  0  0  0  0  0
   61.2840   33.8270   48.4270 C   0  0  0  0  0  0  0  0  0  0  0  0
   62.4510   33.5750   49.1640 C   0  0  0  0  0  0  0  0  0  0  0  0
   63.6580   33.3060   48.5250 C   0  0  0  0  0  0  0  0  0  0  0  0
   63.7210   33.2940   47.1350 C   0  0  0  0  0  0  0  0  0  0  0  0
   62.5810   33.5720   46.3810 C   0  0  0  0  0  0  0  0  0  0  0  0
   61.3400   33.8410   46.9990 C   0  0  0  0  0  0  0  0  0  0  0  0
   60.2270   34.3450   46.0800 C   0  0  0  0  0  0  0  0  0  0  0  0
   60.4361   30.0646   48.8926 H   0  0  0  0  0  0  0  0  0  0  0  0
   61.4695   29.3321   47.6190 H   0  0  0  0  0  0  0  0  0  0  0  0
   61.1628   31.1020   47.6190 H   0  0  0  0  0  0  0  0  0  0  0  0
   59.4081   28.8295   46.7196 H   0  0  0  0  0  0  0  0  0  0  0  0
   58.6180   30.2641   47.5145 H   0  0  0  0  0  0  0  0  0  0  0  0
   60.4900   30.4990   45.2440 H   0  0  0  0  0  0  0  0  0  0  0  0
   58.9223   30.1755   43.7401 H   0  0  0  0  0  0  0  0  0  0  0  0
   58.0824   29.2882   45.0584 H   0  0  0  0  0  0  0  0  0  0  0  0
   56.4846   30.8687   44.3086 H   0  0  0  0  0  0  0  0  0  0  0  0
   57.2285   31.6160   45.7995 H   0  0  0  0  0  0  0  0  0  0  0  0
   58.5673   32.3317   43.2721 H   0  0  0  0  0  0  0  0  0  0  0  0
   56.8202   32.8965   43.4588 H   0  0  0  0  0  0  0  0  0  0  0  0
   58.7785   34.4780   44.1589 H   0  0  0  0  0  0  0  0  0  0  0  0
   57.2818   34.2716   45.1979 H   0  0  0  0  0  0  0  0  0  0  0  0
   59.3360   32.4660   45.8780 H   0  0  0  0  0  0  0  0  0  0  0  0
   58.0749   34.6362   47.4539 H   0  0  0  0  0  0  0  0  0  0  0  0
   57.2349   33.0805   46.9864 H   0  0  0  0  0  0  0  0  0  0  0  0
   57.9688   32.4663   49.0614 H   0  0  0  0  0  0  0  0  0  0  0  0
   59.4233   32.0256   48.1022 H   0  0  0  0  0  0  0  0  0  0  0  0
   62.4115   33.5902   50.2632 H   0  0  0  0  0  0  0  0  0  0  0  0
   64.5616   33.1030   49.1186 H   0  0  0  0  0  0  0  0  0  0  0  0
   64.6711   33.0650   46.6302 H   0  0  0  0  0  0  0  0  0  0  0  0
   62.6499   33.5819   45.2832 H   0  0  0  0  0  0  0  0  0  0  0  0
   59.8944   35.3249   46.4530 H   0  0  0  0  0  0  0  0  0  0  0  0
   60.6585   34.3853   45.0690 H   0  0  0  0  0  0  0  0  0  0  0  0
  1  2  1  0
  2  3  1  0
  3  4  1  0
  4  5  1  0
  5  6  1  0
  6  7  1  0
  7  8  1  0
  8  9  1  0
  9 10  1  0
 10 11  1  0
 11 12  1  0
 12 13  2  0
 13 14  1  0
 14 15  2  0
 15 16  1  0
 16 17  2  0
 17 18  1  0
 18  8  1  0
 17 12  1  0
  1 19  1  0
  1 20  1  0
  1 21  1  0
  2 22  1  0
  2 23  1  0
  3 24  1  0
  4 25  1  0
  4 26  1  0
  5 27  1  0
  5 28  1  0
  6 29  1  0
  6 30  1  0
  7 31  1  0
  7 32  1  0
  8 33  1  6
  9 34  1  0
  9 35  1  0
 10 36  1  0
 10 37  1  0
 13 38  1  0
 14 39  1  0
 15 40  1  0
 16 41  1  0
 18 42  1  0
 18 43  1  0
M  CHG  1   8   1
M  END
>  <UniqueID>  (38) 
38

>  <SMILES>  (38) 
CCNCCCC[N@@H+]1CCSc2ccccc2C1

>  <Energy>  (38) 
55.04287204733145

>  <Genealogy>  (38) 
CCNCCCC[NH+]1CCSc2ccccc2C1 (protonated)
CCNCCCC[N@@H+]1CCSc2ccccc2C1 (chirality)
CCNCCCC[N@@H+]1CCSc2ccccc2C1 (3D coordinates assigned)
CCNCCCC[N@@H+]1CCSc2ccccc2C1 (nonaromatic ring conformer: 55.04287204733145 kcal/mol)

>  <smiles>  (38) 
CCNCCCCN1CCSc2ccccc2C1

>  <score_type>  (38) 
oracle

>  <origin>  (38) 
adg

>  <m_score__min__energy>  (38) 
-3.75

>  <m_primary>  (38) 
energy

$$$$
38:0
     RDKit          3D

 55 58  0  0  0  0  0  0  0  0999 V2000
   54.2080   23.9310   46.0850 C   0  0  0  0  0  0  0  0  0  0  0  0
   55.4080   24.6210   46.4170 O   0  0  0  0  0  0  0  0  0  0  0  0
   56.2320   25.2770   45.4890 C   0  0  0  0  0  0  0  0  0  0  0  0
   56.6970   26.5900   45.6990 C   0  0  0  0  0  0  0  0  0  0  0  0
   57.5290   27.2150   44.7560 C   0  0  0  0  0  0  0  0  0  0  0  0
   58.0010   28.6380   44.9560 C   0  0  2  0  0  0  0  0  0  0  0  0
   58.3750   28.8600   46.3200 O   0  0  0  0  0  0  0  0  0  0  0  0
   58.5990   30.1470   46.8240 C   0  0  0  0  0  0  0  0  0  0  0  0
   59.2710   30.3050   48.0400 C   0  0  0  0  0  0  0  0  0  0  0  0
   59.5230   31.5860   48.5420 C   0  0  0  0  0  0  0  0  0  0  0  0
   60.1710   31.7320   49.6960 O   0  0  0  0  0  0  0  0  0  0  0  0
   60.4390   32.9260   50.2200 C   0  0  0  0  0  0  0  0  0  0  0  0
   61.0560   33.0000   51.3150 O   0  0  0  0  0  0  0  0  0  0  0  0
   60.0400   34.0940   49.5610 C   0  0  0  0  0  0  0  0  0  0  0  0
   59.3580   33.9870   48.3500 C   0  0  0  0  0  0  0  0  0  0  0  0
   59.0900   32.7210   47.8220 C   0  0  0  0  0  0  0  0  0  0  0  0
   58.4010   32.5620   46.6100 C   0  0  0  0  0  0  0  0  0  0  0  0
   58.1470   31.2730   46.1130 C   0  0  0  0  0  0  0  0  0  0  0  0
   57.3720   31.0590   44.8710 C   0  0  0  0  0  0  0  0  0  0  0  0
   57.0200   32.0350   44.1540 O   0  0  0  0  0  0  0  0  0  0  0  0
   56.9360   29.6640   44.5000 C   0  0  2  0  0  0  0  0  0  0  0  0
   55.6750   29.3890   45.0580 O   0  0  0  0  0  0  0  0  0  0  0  0
   57.8690   26.5280   43.5830 C   0  0  0  0  0  0  0  0  0  0  0  0
   57.4120   25.2260   43.3680 C   0  0  0  0  0  0  0  0  0  0  0  0
   56.5970   24.5890   44.3210 C   0  0  0  0  0  0  0  0  0  0  0  0
   56.1180   23.2790   44.1490 O   0  0  0  0  0  0  0  0  0  0  0  0
   56.7780   22.2370   43.4280 C   0  0  0  0  0  0  0  0  0  0  0  0
   56.7910   20.9160   44.2210 C   0  0  0  0  0  0  0  0  0  0  0  0
   57.9020   20.8310   45.2010 N   0  0  0  0  0  0  0  0  0  0  0  0
   58.7700   22.0220   45.1480 C   0  0  0  0  0  0  0  0  0  0  0  0
   57.3540   20.6800   46.5600 C   0  0  0  0  0  0  0  0  0  0  0  0
   53.6892   23.6327   47.0080 H   0  0  0  0  0  0  0  0  0  0  0  0
   53.5560   24.5922   45.4952 H   0  0  0  0  0  0  0  0  0  0  0  0
   54.4514   23.0349   45.4952 H   0  0  0  0  0  0  0  0  0  0  0  0
   56.4054   27.1314   46.6111 H   0  0  0  0  0  0  0  0  0  0  0  0
   58.8892   28.7855   44.3240 H   0  0  0  0  0  0  0  0  0  0  0  0
   59.6022   29.4200   48.6030 H   0  0  0  0  0  0  0  0  0  0  0  0
   60.2611   35.0816   49.9920 H   0  0  0  0  0  0  0  0  0  0  0  0
   59.0335   34.8914   47.8144 H   0  0  0  0  0  0  0  0  0  0  0  0
   58.0603   33.4454   46.0500 H   0  0  0  0  0  0  0  0  0  0  0  0
   56.8421   29.5864   43.4068 H   0  0  0  0  0  0  0  0  0  0  0  0
   55.6840   29.7050   46.0000 H   0  0  0  0  0  0  0  0  0  0  0  0
   58.5000   27.0175   42.8265 H   0  0  0  0  0  0  0  0  0  0  0  0
   57.6916   24.6946   42.4463 H   0  0  0  0  0  0  0  0  0  0  0  0
   56.2535   22.0755   42.4747 H   0  0  0  0  0  0  0  0  0  0  0  0
   57.8201   22.5449   43.2570 H   0  0  0  0  0  0  0  0  0  0  0  0
   55.8387   20.8253   44.7640 H   0  0  0  0  0  0  0  0  0  0  0  0
   56.9334   20.1016   43.4954 H   0  0  0  0  0  0  0  0  0  0  0  0
   58.4850   19.9840   45.0020 H   0  0  0  0  0  0  0  0  0  0  0  0
   59.0078   22.3482   46.1712 H   0  0  0  0  0  0  0  0  0  0  0  0
   59.7007   21.7741   44.6166 H   0  0  0  0  0  0  0  0  0  0  0  0
   58.2490   22.8321   44.6166 H   0  0  0  0  0  0  0  0  0  0  0  0
   58.1400   20.8966   47.2985 H   0  0  0  0  0  0  0  0  0  0  0  0
   56.5178   21.3812   46.6982 H   0  0  0  0  0  0  0  0  0  0  0  0
   56.9950   19.6495   46.6982 H   0  0  0  0  0  0  0  0  0  0  0  0
  1  2  1  0
  2  3  1  0
  3  4  2  0
  4  5  1  0
  5  6  1  0
  6  7  1  0
  7  8  1  0
  8  9  2  0
  9 10  1  0
 10 11  1  0
 11 12  1  0
 12 13  2  0
 12 14  1  0
 14 15  2  0
 15 16  1  0
 16 17  1  0
 17 18  2  0
 18 19  1  0
 19 20  2  0
 19 21  1  0
 21 22  1  0
  5 23  2  0
 23 24  1  0
 24 25  2  0
 25 26  1  0
 26 27  1  0
 27 28  1  0
 28 29  1  0
 29 30  1  0
 29 31  1  0
 25  3  1  0
 21  6  1  0
 18  8  1  0
 16 10  2  0
  1 32  1  0
  1 33  1  0
  1 34  1  0
  4 35  1  0
  6 36  1  6
  9 37  1  0
 14 38  1  0
 15 39  1  0
 17 40  1  0
 21 41  1  6
 22 42  1  0
 23 43  1  0
 24 44  1  0
 27 45  1  0
 27 46  1  0
 28 47  1  0
 28 48  1  0
 29 49  1  0
 30 50  1  0
 30 51  1  0
 30 52  1  0
 31 53  1  0
 31 54  1  0
 31 55  1  0
M  CHG  1  29   1
M  END
>  <UniqueID>  (39) 
39

>  <SMILES>  (39) 
COc1cc([C@@H]2Oc3cc4oc(=O)ccc4cc3C(=O)[C@@H]2O)ccc1OCC[NH+](C)C

>  <Energy>  (39) 
65.20570500506608

>  <Genealogy>  (39) 
COc1cc(C2Oc3cc4oc(=O)ccc4cc3C(=O)C2O)ccc1OCC[NH+](C)C (protonated)
COc1cc([C@@H]2Oc3cc4oc(=O)ccc4cc3C(=O)[C@@H]2O)ccc1OCC[NH+](C)C (chirality)
COc1cc([C@@H]2Oc3cc4oc(=O)ccc4cc3C(=O)[C@@H]2O)ccc1OCC[NH+](C)C (3D coordinates assigned)
COc1cc([C@@H]2Oc3cc4oc(=O)ccc4cc3C(=O)[C@@H]2O)ccc1OCC[NH+](C)C (nonaromatic ring conformer: 65.20570500506608 kcal/mol)

>  <smiles>  (39) 
COc1cc(C2Oc3cc4oc(=O)ccc4cc3C(=O)C2O)ccc1OCCN(C)C

>  <score_type>  (39) 
oracle

>  <origin>  (39) 
adg

>  <m_score__min__energy>  (39) 
-8.0899999999999999

>  <m_primary>  (39) 
energy

$$$$
39:0
     RDKit          3D

 51 53  0  0  0  0  0  0  0  0999 V2000
   56.2940   29.9000   42.5970 C   0  0  0  0  0  0  0  0  0  0  0  0
   55.8870   30.1180   44.0530 C   0  0  0  0  0  0  0  0  0  0  0  0
   56.5230   29.1220   44.9940 C   0  0  0  0  0  0  0  0  0  0  0  0
   55.9210   28.0430   45.2500 O   0  0  0  0  0  0  0  0  0  0  0  0
   57.8140   29.3700   45.5900 N   0  0  0  0  0  0  0  0  0  0  0  0
   58.1790   28.6320   46.8120 C   0  0  0  0  0  0  0  0  0  0  0  0
   59.5940   28.9770   47.2960 C   0  0  0  0  0  0  0  0  0  0  0  0
   59.8180   30.4220   47.2120 N   0  0  0  0  0  0  0  0  0  0  0  0
   60.5100   31.0970   48.2690 C   0  0  0  0  0  0  0  0  0  0  0  0
   61.7090   31.6780   48.0030 N   0  0  0  0  0  0  0  0  0  0  0  0
   62.4050   32.3370   48.9640 C   0  0  0  0  0  0  0  0  0  0  0  0
   63.9800   33.0860   48.5540 S   0  0  0  0  0  0  0  0  0  0  0  0
   63.4770   33.4820   46.8500 C   0  0  0  0  0  0  0  0  0  0  0  0
   61.9100   32.4270   50.2270 N   0  0  0  0  0  0  0  0  0  0  0  0
   60.7130   31.8630   50.5510 C   0  0  0  0  0  0  0  0  0  0  0  0
   60.2110   31.9630   51.8560 C   0  0  0  0  0  0  0  0  0  0  0  0
   58.9760   31.3780   52.1950 C   0  0  0  0  0  0  0  0  0  0  0  0
   58.4420   31.4640   53.4900 O   0  0  0  0  0  0  0  0  0  0  0  0
   58.4520   30.4040   54.4410 C   0  0  0  0  0  0  0  0  0  0  0  0
   58.2430   30.6850   51.2190 C   0  0  0  0  0  0  0  0  0  0  0  0
   57.0170   30.1090   51.5930 O   0  0  0  0  0  0  0  0  0  0  0  0
   55.8670   30.8450   51.9960 C   0  0  0  0  0  0  0  0  0  0  0  0
   58.7440   30.5840   49.9080 C   0  0  0  0  0  0  0  0  0  0  0  0
   59.9740   31.1720   49.5680 C   0  0  0  0  0  0  0  0  0  0  0  0
   59.4140   31.1840   46.0250 C   0  0  0  0  0  0  0  0  0  0  0  0
   58.8020   30.2650   44.9650 C   0  0  0  0  0  0  0  0  0  0  0  0
   57.2631   29.3809   42.5610 H   0  0  0  0  0  0  0  0  0  0  0  0
   55.5319   29.2893   42.0907 H   0  0  0  0  0  0  0  0  0  0  0  0
   56.3801   30.8728   42.0907 H   0  0  0  0  0  0  0  0  0  0  0  0
   56.1915   31.1309   44.3551 H   0  0  0  0  0  0  0  0  0  0  0  0
   54.7970   29.9837   44.1159 H   0  0  0  0  0  0  0  0  0  0  0  0
   57.4613   28.8848   47.6063 H   0  0  0  0  0  0  0  0  0  0  0  0
   58.1545   27.5575   46.5779 H   0  0  0  0  0  0  0  0  0  0  0  0
   59.7106   28.6511   48.3401 H   0  0  0  0  0  0  0  0  0  0  0  0
   60.3275   28.4620   46.6582 H   0  0  0  0  0  0  0  0  0  0  0  0
   62.6129   34.1623   46.8715 H   0  0  0  0  0  0  0  0  0  0  0  0
   64.3127   33.9672   46.3244 H   0  0  0  0  0  0  0  0  0  0  0  0
   63.2015   32.5558   46.3244 H   0  0  0  0  0  0  0  0  0  0  0  0
   62.4640   32.9390   50.9510 H   0  0  0  0  0  0  0  0  0  0  0  0
   60.7869   32.5032   52.6218 H   0  0  0  0  0  0  0  0  0  0  0  0
   58.4480   30.8236   55.4578 H   0  0  0  0  0  0  0  0  0  0  0  0
   57.5597   29.7763   54.2999 H   0  0  0  0  0  0  0  0  0  0  0  0
   59.3559   29.7933   54.2999 H   0  0  0  0  0  0  0  0  0  0  0  0
   55.8181   30.8763   53.0945 H   0  0  0  0  0  0  0  0  0  0  0  0
   55.9313   31.8702   51.6025 H   0  0  0  0  0  0  0  0  0  0  0  0
   54.9630   30.3572   51.6025 H   0  0  0  0  0  0  0  0  0  0  0  0
   58.1686   30.0408   49.1439 H   0  0  0  0  0  0  0  0  0  0  0  0
   58.6704   31.9396   46.3186 H   0  0  0  0  0  0  0  0  0  0  0  0
   60.3057   31.6662   45.5980 H   0  0  0  0  0  0  0  0  0  0  0  0
   58.3065   30.8749   44.1952 H   0  0  0  0  0  0  0  0  0  0  0  0
   59.5982   29.6615   44.5047 H   0  0  0  0  0  0  0  0  0  0  0  0
  1  2  1  0
  2  3  1  0
  3  4  2  0
  3  5  1  0
  5  6  1  0
  6  7  1  0
  7  8  1  0
  8  9  1  0
  9 10  2  0
 10 11  1  0
 11 12  1  0
 12 13  1  0
 11 14  2  0
 14 15  1  0
 15 16  2  0
 16 17  1  0
 17 18  1  0
 18 19  1  0
 17 20  2  0
 20 21  1  0
 21 22  1  0
 20 23  1  0
 23 24  2  0
  8 25  1  0
 25 26  1  0
 26  5  1  0
 24  9  1  0
 24 15  1  0
  1 27  1  0
  1 28  1  0
  1 29  1  0
  2 30  1  0
  2 31  1  0
  6 32  1  0
  6 33  1  0
  7 34  1  0
  7 35  1  0
 13 36  1  0
 13 37  1  0
 13 38  1  0
 14 39  1  0
 16 40  1  0
 19 41  1  0
 19 42  1  0
 19 43  1  0
 22 44  1  0
 22 45  1  0
 22 46  1  0
 23 47  1  0
 25 48  1  0
 25 49  1  0
 26 50  1  0
 26 51  1  0
M  CHG  1  14   1
M  END
>  <UniqueID>  (40) 
40

>  <SMILES>  (40) 
CCC(=O)N1CCN(c2nc(SC)[nH+]c3cc(OC)c(OC)cc23)CC1

>  <Energy>  (40) 
55.05678682931012

>  <Genealogy>  (40) 
CCC(=O)N1CCN(c2nc(SC)[nH+]c3cc(OC)c(OC)cc23)CC1 (protonated)
CCC(=O)N1CCN(c2nc(SC)[nH+]c3cc(OC)c(OC)cc23)CC1 (3D coordinates assigned)
CCC(=O)N1CCN(c2nc(SC)[nH+]c3cc(OC)c(OC)cc23)CC1 (nonaromatic ring conformer: 55.05678682931012 kcal/mol)

>  <smiles>  (40) 
CCC(=O)N1CCN(c2nc(SC)nc3cc(OC)c(OC)cc23)CC1

>  <score_type>  (40) 
oracle

>  <origin>  (40) 
adg

>  <m_score__min__energy>  (40) 
-5.29

>  <m_primary>  (40) 
energy

$$$$
40:0
     RDKit          3D

 43 44  0  0  0  0  0  0  0  0999 V2000
   58.2840   31.9630   50.5350 C   0  0  0  0  0  0  0  0  0  0  0  0
   59.7740   32.2010   50.2660 C   0  0  0  0  0  0  0  0  0  0  0  0
   60.0960   32.3000   48.8170 N   0  0  2  0  0  0  0  0  0  0  0  0
   61.3670   31.6250   48.4380 C   0  0  0  0  0  0  0  0  0  0  0  0
   61.3060   30.8340   47.1200 C   0  0  0  0  0  0  0  0  0  0  0  0
   60.1440   31.2250   46.3970 O   0  0  0  0  0  0  0  0  0  0  0  0
   58.9420   30.5100   46.4500 C   0  0  0  0  0  0  0  0  0  0  0  0
   58.5970   29.9340   47.5180 O   0  0  0  0  0  0  0  0  0  0  0  0
   58.0790   30.4320   45.2510 C   0  0  0  0  0  0  0  0  0  0  0  0
   57.0380   29.4900   45.1870 C   0  0  0  0  0  0  0  0  0  0  0  0
   56.2210   29.4140   44.0540 C   0  0  0  0  0  0  0  0  0  0  0  0
   56.4340   30.2760   42.9770 C   0  0  0  0  0  0  0  0  0  0  0  0
   57.4650   31.2170   43.0270 C   0  0  0  0  0  0  0  0  0  0  0  0
   57.7320   32.3010   41.6730 Cl  0  0  0  0  0  0  0  0  0  0  0  0
   58.2860   31.2970   44.1590 C   0  0  0  0  0  0  0  0  0  0  0  0
   60.0890   33.7170   48.3700 C   0  0  0  0  0  0  0  0  0  0  0  0
   59.2350   33.9200   47.1380 C   0  0  0  0  0  0  0  0  0  0  0  0
   59.7700   34.5290   45.9890 C   0  0  0  0  0  0  0  0  0  0  0  0
   58.9690   34.7270   44.8600 C   0  0  0  0  0  0  0  0  0  0  0  0
   57.6320   34.3200   44.8690 C   0  0  0  0  0  0  0  0  0  0  0  0
   57.0920   33.7160   46.0070 C   0  0  0  0  0  0  0  0  0  0  0  0
   57.8890   33.5170   47.1390 C   0  0  0  0  0  0  0  0  0  0  0  0
   58.1073   31.9348   51.6203 H   0  0  0  0  0  0  0  0  0  0  0  0
   57.6960   32.7786   50.0889 H   0  0  0  0  0  0  0  0  0  0  0  0
   57.9793   31.0048   50.0889 H   0  0  0  0  0  0  0  0  0  0  0  0
   60.0729   33.1393   50.7561 H   0  0  0  0  0  0  0  0  0  0  0  0
   60.3223   31.3352   50.6658 H   0  0  0  0  0  0  0  0  0  0  0  0
   59.3390   31.7960   48.2930 H   0  0  0  0  0  0  0  0  0  0  0  0
   62.1476   32.3939   48.3404 H   0  0  0  0  0  0  0  0  0  0  0  0
   61.5783   30.8923   49.2308 H   0  0  0  0  0  0  0  0  0  0  0  0
   62.2028   31.0478   46.5200 H   0  0  0  0  0  0  0  0  0  0  0  0
   61.2638   29.7562   47.3356 H   0  0  0  0  0  0  0  0  0  0  0  0
   56.8646   28.8084   46.0328 H   0  0  0  0  0  0  0  0  0  0  0  0
   55.4089   28.6733   44.0117 H   0  0  0  0  0  0  0  0  0  0  0  0
   55.7892   30.2142   42.0879 H   0  0  0  0  0  0  0  0  0  0  0  0
   59.0968   32.0395   44.1953 H   0  0  0  0  0  0  0  0  0  0  0  0
   59.6936   34.3436   49.1830 H   0  0  0  0  0  0  0  0  0  0  0  0
   61.1219   33.9977   48.1166 H   0  0  0  0  0  0  0  0  0  0  0  0
   60.8219   34.8506   45.9782 H   0  0  0  0  0  0  0  0  0  0  0  0
   59.3919   35.2038   43.9634 H   0  0  0  0  0  0  0  0  0  0  0  0
   57.0043   34.4754   43.9791 H   0  0  0  0  0  0  0  0  0  0  0  0
   56.0394   33.3967   46.0128 H   0  0  0  0  0  0  0  0  0  0  0  0
   57.4601   33.0428   48.0341 H   0  0  0  0  0  0  0  0  0  0  0  0
  1  2  1  0
  2  3  1  0
  3  4  1  0
  4  5  1  0
  5  6  1  0
  6  7  1  0
  7  8  2  0
  7  9  1  0
  9 10  2  0
 10 11  1  0
 11 12  2  0
 12 13  1  0
 13 14  1  0
 13 15  2  0
  3 16  1  0
 16 17  1  0
 17 18  2  0
 18 19  1  0
 19 20  2  0
 20 21  1  0
 21 22  2  0
 15  9  1  0
 22 17  1  0
  1 23  1  0
  1 24  1  0
  1 25  1  0
  2 26  1  0
  2 27  1  0
  3 28  1  6
  4 29  1  0
  4 30  1  0
  5 31  1  0
  5 32  1  0
 10 33  1  0
 11 34  1  0
 12 35  1  0
 15 36  1  0
 16 37  1  0
 16 38  1  0
 18 39  1  0
 19 40  1  0
 20 41  1  0
 21 42  1  0
 22 43  1  0
M  CHG  1   3   1
M  END
>  <UniqueID>  (41) 
41

>  <SMILES>  (41) 
CC[N@H+](CCOC(=O)c1cccc(Cl)c1)Cc1ccccc1

>  <Energy>  (41) 
44.39819689301698

>  <Genealogy>  (41) 
CC[NH+](CCOC(=O)c1cccc(Cl)c1)Cc1ccccc1 (protonated)
CC[N@H+](CCOC(=O)c1cccc(Cl)c1)Cc1ccccc1 (chirality)
CC[N@H+](CCOC(=O)c1cccc(Cl)c1)Cc1ccccc1 (3D coordinates assigned)
CC[N@H+](CCOC(=O)c1cccc(Cl)c1)Cc1ccccc1 (optimized conformer: 44.39819689301698 kcal/mol)

>  <smiles>  (41) 
CCN(CCOC(=O)c1cccc(Cl)c1)Cc1ccccc1

>  <score_type>  (41) 
oracle

>  <origin>  (41) 
adg

>  <m_score__min__energy>  (41) 
-4.9199999999999999

>  <m_primary>  (41) 
energy

$$$$
41:0
     RDKit          3D

 38 41  0  0  0  0  0  0  0  0999 V2000
   65.0690   32.6670   49.5170 C   0  0  0  0  0  0  0  0  0  0  0  0
   63.7970   33.0050   48.7980 C   0  0  0  0  0  0  0  0  0  0  0  0
   63.8340   33.4920   47.4840 C   0  0  0  0  0  0  0  0  0  0  0  0
   62.6480   33.8360   46.8270 C   0  0  0  0  0  0  0  0  0  0  0  0
   61.4200   33.7050   47.4810 C   0  0  0  0  0  0  0  0  0  0  0  0
   61.3700   33.2360   48.8020 C   0  0  0  0  0  0  0  0  0  0  0  0
   60.1070   33.0920   49.4730 N   0  0  0  0  0  0  0  0  0  0  0  0
   58.9020   32.7270   48.9430 C   0  0  0  0  0  0  0  0  0  0  0  0
   58.6320   32.5360   47.5000 C   0  0  0  0  0  0  0  0  0  0  0  0
   58.9080   31.3090   46.8710 C   0  0  0  0  0  0  0  0  0  0  0  0
   58.6480   31.1410   45.5070 C   0  0  0  0  0  0  0  0  0  0  0  0
   58.1220   32.1980   44.7580 C   0  0  0  0  0  0  0  0  0  0  0  0
   57.7660   31.9650   42.8960 Br  0  0  0  0  0  0  0  0  0  0  0  0
   57.8630   33.4260   45.3720 C   0  0  0  0  0  0  0  0  0  0  0  0
   58.1220   33.5980   46.7360 C   0  0  0  0  0  0  0  0  0  0  0  0
   57.9450   32.5760   49.8930 N   0  0  0  0  0  0  0  0  0  0  0  0
   58.5720   32.8610   51.0440 C   0  0  0  0  0  0  0  0  0  0  0  0
   58.0660   32.8360   52.3390 C   0  0  0  0  0  0  0  0  0  0  0  0
   58.9220   33.1220   53.3650 N   0  0  0  0  0  0  0  0  0  0  0  0
   60.2420   33.4220   53.1480 C   0  0  0  0  0  0  0  0  0  0  0  0
   60.7630   33.4460   51.8410 C   0  0  0  0  0  0  0  0  0  0  0  0
   59.8760   33.1700   50.7990 C   0  0  0  0  0  0  0  0  0  0  0  0
   62.5630   32.8960   49.4600 C   0  0  0  0  0  0  0  0  0  0  0  0
   64.8995   32.7121   50.6029 H   0  0  0  0  0  0  0  0  0  0  0  0
   65.3896   31.6525   49.2377 H   0  0  0  0  0  0  0  0  0  0  0  0
   65.8509   33.3885   49.2377 H   0  0  0  0  0  0  0  0  0  0  0  0
   64.7989   33.6040   46.9679 H   0  0  0  0  0  0  0  0  0  0  0  0
   62.6820   34.2105   45.7933 H   0  0  0  0  0  0  0  0  0  0  0  0
   60.4894   33.9706   46.9581 H   0  0  0  0  0  0  0  0  0  0  0  0
   59.3303   30.4775   47.4543 H   0  0  0  0  0  0  0  0  0  0  0  0
   58.8577   30.1758   45.0228 H   0  0  0  0  0  0  0  0  0  0  0  0
   57.4545   34.2594   44.7816 H   0  0  0  0  0  0  0  0  0  0  0  0
   57.9252   34.5698   47.2122 H   0  0  0  0  0  0  0  0  0  0  0  0
   56.9420   32.3100   49.7620 H   0  0  0  0  0  0  0  0  0  0  0  0
   57.0104   32.5937   52.5313 H   0  0  0  0  0  0  0  0  0  0  0  0
   60.8986   33.6456   54.0017 H   0  0  0  0  0  0  0  0  0  0  0  0
   61.8222   33.6722   51.6489 H   0  0  0  0  0  0  0  0  0  0  0  0
   62.5309   32.5419   50.5010 H   0  0  0  0  0  0  0  0  0  0  0  0
  1  2  1  0
  2  3  2  0
  3  4  1  0
  4  5  2  0
  5  6  1  0
  6  7  1  0
  7  8  1  0
  8  9  1  0
  9 10  2  0
 10 11  1  0
 11 12  2  0
 12 13  1  0
 12 14  1  0
 14 15  2  0
  8 16  2  0
 16 17  1  0
 17 18  2  0
 18 19  1  0
 19 20  2  0
 20 21  1  0
 21 22  2  0
  6 23  2  0
 23  2  1  0
 22  7  1  0
 15  9  1  0
 22 17  1  0
  1 24  1  0
  1 25  1  0
  1 26  1  0
  3 27  1  0
  4 28  1  0
  5 29  1  0
 10 30  1  0
 11 31  1  0
 14 32  1  0
 15 33  1  0
 16 34  1  0
 18 35  1  0
 20 36  1  0
 21 37  1  0
 23 38  1  0
M  CHG  1  16   1
M  END
>  <UniqueID>  (42) 
42

>  <SMILES>  (42) 
Cc1cccc(-n2c(-c3ccc(Br)cc3)[nH+]c3cnccc32)c1

>  <Energy>  (42) 
91.73742366777378

>  <Genealogy>  (42) 
Cc1cccc(-n2c(-c3ccc(Br)cc3)[nH+]c3cnccc32)c1 (protonated)
Cc1cccc(-n2c(-c3ccc(Br)cc3)[nH+]c3cnccc32)c1 (3D coordinates assigned)
Cc1cccc(-n2c(-c3ccc(Br)cc3)[nH+]c3cnccc32)c1 (optimized conformer: 91.73742366777378 kcal/mol)

>  <smiles>  (42) 
Cc1cccc(-n2c(-c3ccc(Br)cc3)nc3cnccc32)c1

>  <score_type>  (42) 
oracle

>  <origin>  (42) 
adg

>  <m_score__min__energy>  (42) 
-6.5

>  <m_primary>  (42) 
energy

$$$$
42:0
     RDKit          3D

 41 43  0  0  0  0  0  0  0  0999 V2000
   64.2640   33.1520   48.5650 C   0  0  0  0  0  0  0  0  0  0  0  0
   62.8500   33.4010   48.1310 C   0  0  0  0  0  0  0  0  0  0  0  0
   62.5070   33.3290   46.7740 C   0  0  0  0  0  0  0  0  0  0  0  0
   61.1830   33.5250   46.3700 C   0  0  0  0  0  0  0  0  0  0  0  0
   60.1810   33.7790   47.3200 C   0  0  0  0  0  0  0  0  0  0  0  0
   58.7550   33.9760   46.8780 C   0  0  0  0  0  0  0  0  0  0  0  0
   58.2510   32.7670   46.2210 N   0  0  0  0  0  0  0  0  0  0  0  0
   57.7220   32.7350   44.9750 C   0  0  0  0  0  0  0  0  0  0  0  0
   57.4360   31.4310   44.6580 C   0  0  0  0  0  0  0  0  0  0  0  0
   56.9130   30.9370   43.5120 N   0  0  0  0  0  0  0  0  0  0  0  0
   56.7370   29.5880   43.4100 C   0  0  0  0  0  0  0  0  0  0  0  0
   57.0960   28.7620   44.4420 N   0  0  0  0  0  0  0  0  0  0  0  0
   57.6340   29.2490   45.5980 C   0  0  0  0  0  0  0  0  0  0  0  0
   58.1160   28.1010   46.8910 S   0  0  0  0  0  0  0  0  0  0  0  0
   57.6820   26.6070   45.9360 C   0  0  0  0  0  0  0  0  0  0  0  0
   56.3650   26.0580   46.3900 C   0  0  0  0  0  0  0  0  0  0  0  0
   55.1480   26.7040   46.0200 N   0  0  0  0  0  0  0  0  0  0  0  0
   56.3300   25.0080   47.0880 O   0  0  0  0  0  0  0  0  0  0  0  0
   57.7950   30.6350   45.7080 C   0  0  0  0  0  0  0  0  0  0  0  0
   58.2950   31.4850   46.6890 C   0  0  0  0  0  0  0  0  0  0  0  0
   58.8410   31.0750   48.0250 C   0  0  0  0  0  0  0  0  0  0  0  0
   60.5240   33.8390   48.6800 C   0  0  0  0  0  0  0  0  0  0  0  0
   61.8480   33.6430   49.0840 C   0  0  0  0  0  0  0  0  0  0  0  0
   64.3141   33.1432   49.6638 H   0  0  0  0  0  0  0  0  0  0  0  0
   64.6017   32.1806   48.1747 H   0  0  0  0  0  0  0  0  0  0  0  0
   64.9132   33.9496   48.1747 H   0  0  0  0  0  0  0  0  0  0  0  0
   63.2829   33.1173   46.0235 H   0  0  0  0  0  0  0  0  0  0  0  0
   60.9249   33.4799   45.3017 H   0  0  0  0  0  0  0  0  0  0  0  0
   58.1309   34.1980   47.7562 H   0  0  0  0  0  0  0  0  0  0  0  0
   58.7154   34.8122   46.1644 H   0  0  0  0  0  0  0  0  0  0  0  0
   57.5505   33.6069   44.3266 H   0  0  0  0  0  0  0  0  0  0  0  0
   56.3041   29.1610   42.4933 H   0  0  0  0  0  0  0  0  0  0  0  0
   57.6177   26.8657   44.8688 H   0  0  0  0  0  0  0  0  0  0  0  0
   58.4589   25.8448   46.0956 H   0  0  0  0  0  0  0  0  0  0  0  0
   55.1610   27.5650   45.4290 H   0  0  0  0  0  0  0  0  0  0  0  0
   54.2300   26.3200   46.3390 H   0  0  0  0  0  0  0  0  0  0  0  0
   58.2360   31.5293   48.8235 H   0  0  0  0  0  0  0  0  0  0  0  0
   58.8044   29.9793   48.1155 H   0  0  0  0  0  0  0  0  0  0  0  0
   59.8830   31.4157   48.1155 H   0  0  0  0  0  0  0  0  0  0  0  0
   59.7469   34.0413   49.4318 H   0  0  0  0  0  0  0  0  0  0  0  0
   62.1056   33.6786   50.1528 H   0  0  0  0  0  0  0  0  0  0  0  0
  1  2  1  0
  2  3  2  0
  3  4  1  0
  4  5  2  0
  5  6  1  0
  6  7  1  0
  7  8  1  0
  8  9  2  0
  9 10  1  0
 10 11  2  0
 11 12  1  0
 12 13  2  0
 13 14  1  0
 14 15  1  0
 15 16  1  0
 16 17  1  0
 16 18  2  0
 13 19  1  0
 19 20  2  0
 20 21  1  0
  5 22  1  0
 22 23  2  0
 23  2  1  0
 20  7  1  0
 19  9  1  0
  1 24  1  0
  1 25  1  0
  1 26  1  0
  3 27  1  0
  4 28  1  0
  6 29  1  0
  6 30  1  0
  8 31  1  0
 11 32  1  0
 15 33  1  0
 15 34  1  0
 17 35  1  0
 17 36  1  0
 21 37  1  0
 21 38  1  0
 21 39  1  0
 22 40  1  0
 23 41  1  0
M  END
>  <UniqueID>  (43) 
43

>  <SMILES>  (43) 
Cc1ccc(Cn2cc3ncnc(SCC(N)=O)c3c2C)cc1

>  <Energy>  (43) 
72.76229415143949

>  <Genealogy>  (43) 
Cc1ccc(Cn2cc3ncnc(SCC(N)=O)c3c2C)cc1 (3D coordinates assigned)
Cc1ccc(Cn2cc3ncnc(SCC(N)=O)c3c2C)cc1 (optimized conformer: 72.76229415143949 kcal/mol)

>  <smiles>  (43) 
Cc1ccc(Cn2cc3ncnc(SCC(N)=O)c3c2C)cc1

>  <score_type>  (43) 
oracle

>  <origin>  (43) 
adg

>  <m_score__min__energy>  (43) 
-8.8399999999999999

>  <m_primary>  (43) 
energy

$$$$
43:0
     RDKit          3D

 35 38  0  0  0  0  0  0  0  0999 V2000
   64.1440   32.6200   47.9200 C   0  0  0  0  0  0  0  0  0  0  0  0
   63.7060   33.2420   46.7520 C   0  0  0  0  0  0  0  0  0  0  0  0
   62.4580   33.8700   46.7130 C   0  0  0  0  0  0  0  0  0  0  0  0
   61.6250   33.8870   47.8520 C   0  0  0  0  0  0  0  0  0  0  0  0
   60.3500   34.5190   47.8510 C   0  0  0  0  0  0  0  0  0  0  0  0
   59.7810   35.2070   46.6300 C   0  0  0  0  0  0  0  0  0  0  0  0
   58.9420   34.2570   45.8370 C   0  0  0  0  0  0  0  0  0  0  0  0
   58.0060   34.6340   44.9450 N   0  0  0  0  0  0  0  0  0  0  0  0
   57.4970   33.5100   44.4700 N   0  0  0  0  0  0  0  0  0  0  0  0
   58.1280   32.4890   45.0820 C   0  0  0  0  0  0  0  0  0  0  0  0
   57.8780   31.0540   44.8560 C   0  0  0  0  0  0  0  0  0  0  0  0
   58.8960   30.0900   44.9590 C   0  0  0  0  0  0  0  0  0  0  0  0
   58.6010   28.7810   44.7390 N   0  0  0  0  0  0  0  0  0  0  0  0
   57.3420   28.3840   44.4200 C   0  0  0  0  0  0  0  0  0  0  0  0
   56.3300   29.3370   44.3170 C   0  0  0  0  0  0  0  0  0  0  0  0
   56.6200   30.6450   44.5360 N   0  0  0  0  0  0  0  0  0  0  0  0
   59.0200   32.9470   45.9290 O   0  0  0  0  0  0  0  0  0  0  0  0
   59.5610   34.4700   49.0140 C   0  0  0  0  0  0  0  0  0  0  0  0
   60.0210   33.8350   50.1660 C   0  0  0  0  0  0  0  0  0  0  0  0
   61.2740   33.2290   50.1820 C   0  0  0  0  0  0  0  0  0  0  0  0
   62.0810   33.2440   49.0360 C   0  0  0  0  0  0  0  0  0  0  0  0
   63.3380   32.6190   49.0590 C   0  0  0  0  0  0  0  0  0  0  0  0
   65.1278   32.1285   47.9439 H   0  0  0  0  0  0  0  0  0  0  0  0
   64.3454   33.2386   45.8570 H   0  0  0  0  0  0  0  0  0  0  0  0
   62.1217   34.3559   45.7852 H   0  0  0  0  0  0  0  0  0  0  0  0
   59.1609   36.0574   46.9497 H   0  0  0  0  0  0  0  0  0  0  0  0
   60.6116   35.5588   46.0005 H   0  0  0  0  0  0  0  0  0  0  0  0
   56.7430   33.4650   43.7510 H   0  0  0  0  0  0  0  0  0  0  0  0
   59.9222   30.3920   45.2153 H   0  0  0  0  0  0  0  0  0  0  0  0
   57.1230   27.3204   44.2446 H   0  0  0  0  0  0  0  0  0  0  0  0
   55.3048   29.0317   44.0604 H   0  0  0  0  0  0  0  0  0  0  0  0
   58.5663   34.9397   49.0144 H   0  0  0  0  0  0  0  0  0  0  0  0
   59.3907   33.8125   51.0672 H   0  0  0  0  0  0  0  0  0  0  0  0
   61.6324   32.7363   51.0978 H   0  0  0  0  0  0  0  0  0  0  0  0
   63.6887   32.1268   49.9781 H   0  0  0  0  0  0  0  0  0  0  0  0
  1  2  2  0
  2  3  1  0
  3  4  2  0
  4  5  1  0
  5  6  1  0
  6  7  1  0
  7  8  2  0
  8  9  1  0
  9 10  2  0
 10 11  1  0
 11 12  2  0
 12 13  1  0
 13 14  2  0
 14 15  1  0
 15 16  2  0
 10 17  1  0
  5 18  2  0
 18 19  1  0
 19 20  2  0
 20 21  1  0
 21 22  2  0
 22  1  1  0
 21  4  1  0
 17  7  1  0
 16 11  1  0
  1 23  1  0
  2 24  1  0
  3 25  1  0
  6 26  1  0
  6 27  1  0
  9 28  1  0
 12 29  1  0
 14 30  1  0
 15 31  1  0
 18 32  1  0
 19 33  1  0
 20 34  1  0
 22 35  1  0
M  CHG  1   9   1
M  END
>  <UniqueID>  (44) 
44

>  <SMILES>  (44) 
c1ccc2c(Cc3n[nH+]c(-c4cnccn4)o3)cccc2c1

>  <Energy>  (44) 
81.31607844295172

>  <Genealogy>  (44) 
c1ccc2c(Cc3n[nH+]c(-c4cnccn4)o3)cccc2c1 (protonated)
c1ccc2c(Cc3n[nH+]c(-c4cnccn4)o3)cccc2c1 (3D coordinates assigned)
c1ccc2c(Cc3n[nH+]c(-c4cnccn4)o3)cccc2c1 (optimized conformer: 81.31607844295172 kcal/mol)

>  <smiles>  (44) 
c1ccc2c(Cc3nnc(-c4cnccn4)o3)cccc2c1

>  <score_type>  (44) 
oracle

>  <origin>  (44) 
adg

>  <m_score__min__energy>  (44) 
-6.5899999999999999

>  <m_primary>  (44) 
energy

$$$$
44:0
     RDKit          3D

 36 37  0  0  0  0  0  0  0  0999 V2000
   58.1150   27.0310   42.7750 C   0  0  0  0  0  0  0  0  0  0  0  0
   58.5990   26.8210   44.1480 N   0  0  0  0  0  0  0  0  0  0  0  0
   59.3080   28.0210   44.6190 C   0  0  0  0  0  0  0  0  0  0  0  0
   57.4900   26.4530   45.0620 C   0  0  0  0  0  0  0  0  0  0  0  0
   57.0360   27.6780   45.8590 C   0  0  0  0  0  0  0  0  0  0  0  0
   56.1340   28.5120   45.0650 N   0  0  0  0  0  0  0  0  0  0  0  0
   56.5650   29.7020   44.3880 C   0  0  0  0  0  0  0  0  0  0  0  0
   56.4000   29.8280   43.0050 C   0  0  0  0  0  0  0  0  0  0  0  0
   56.8380   30.9510   42.3780 N   0  0  0  0  0  0  0  0  0  0  0  0
   57.4240   31.9640   43.0700 C   0  0  0  0  0  0  0  0  0  0  0  0
   57.5770   31.8550   44.4610 C   0  0  0  0  0  0  0  0  0  0  0  0
   58.2290   32.9180   45.2630 C   0  0  0  0  0  0  0  0  0  0  0  0
   58.6900   34.0800   44.6180 C   0  0  0  0  0  0  0  0  0  0  0  0
   59.3090   35.1000   45.3470 C   0  0  0  0  0  0  0  0  0  0  0  0
   59.4850   34.9660   46.7250 C   0  0  0  0  0  0  0  0  0  0  0  0
   59.0490   33.8090   47.3760 C   0  0  0  0  0  0  0  0  0  0  0  0
   58.4270   32.7850   46.6530 C   0  0  0  0  0  0  0  0  0  0  0  0
   58.0690   31.6520   47.3080 F   0  0  0  0  0  0  0  0  0  0  0  0
   57.1500   30.7200   45.0770 N   0  0  0  0  0  0  0  0  0  0  0  0
   57.1063   27.4687   42.8047 H   0  0  0  0  0  0  0  0  0  0  0  0
   58.7959   27.7146   42.2467 H   0  0  0  0  0  0  0  0  0  0  0  0
   58.0809   26.0668   42.2467 H   0  0  0  0  0  0  0  0  0  0  0  0
   59.3158   28.0342   45.7189 H   0  0  0  0  0  0  0  0  0  0  0  0
   60.3424   28.0061   44.2451 H   0  0  0  0  0  0  0  0  0  0  0  0
   58.7959   28.9199   44.2451 H   0  0  0  0  0  0  0  0  0  0  0  0
   56.6446   26.0692   44.4721 H   0  0  0  0  0  0  0  0  0  0  0  0
   57.8413   25.6793   45.7606 H   0  0  0  0  0  0  0  0  0  0  0  0
   56.5120   27.3434   46.7664 H   0  0  0  0  0  0  0  0  0  0  0  0
   57.9223   28.2729   46.1246 H   0  0  0  0  0  0  0  0  0  0  0  0
   55.1450   28.1920   44.9520 H   0  0  0  0  0  0  0  0  0  0  0  0
   55.9191   29.0237   42.4289 H   0  0  0  0  0  0  0  0  0  0  0  0
   57.7759   32.8632   42.5432 H   0  0  0  0  0  0  0  0  0  0  0  0
   58.5624   34.1871   43.5307 H   0  0  0  0  0  0  0  0  0  0  0  0
   59.6575   36.0086   44.8341 H   0  0  0  0  0  0  0  0  0  0  0  0
   59.9670   35.7713   47.2987 H   0  0  0  0  0  0  0  0  0  0  0  0
   59.1953   33.7027   48.4610 H   0  0  0  0  0  0  0  0  0  0  0  0
  1  2  1  0
  2  3  1  0
  2  4  1  0
  4  5  1  0
  5  6  1  0
  6  7  1  0
  7  8  2  0
  8  9  1  0
  9 10  2  0
 10 11  1  0
 11 12  1  0
 12 13  2  0
 13 14  1  0
 14 15  2  0
 15 16  1  0
 16 17  2  0
 17 18  1  0
 11 19  2  0
 19  7  1  0
 17 12  1  0
  1 20  1  0
  1 21  1  0
  1 22  1  0
  3 23  1  0
  3 24  1  0
  3 25  1  0
  4 26  1  0
  4 27  1  0
  5 28  1  0
  5 29  1  0
  6 30  1  0
  8 31  1  0
 10 32  1  0
 13 33  1  0
 14 34  1  0
 15 35  1  0
 16 36  1  0
M  END
>  <UniqueID>  (45) 
45

>  <SMILES>  (45) 
CN(C)CCNc1cncc(-c2ccccc2F)n1

>  <Energy>  (45) 
40.03491510989719

>  <Genealogy>  (45) 
CN(C)CCNc1cncc(-c2ccccc2F)n1 (3D coordinates assigned)
CN(C)CCNc1cncc(-c2ccccc2F)n1 (optimized conformer: 40.03491510989719 kcal/mol)

>  <smiles>  (45) 
CN(C)CCNc1cncc(-c2ccccc2F)n1

>  <score_type>  (45) 
oracle

>  <origin>  (45) 
adg

>  <m_score__min__energy>  (45) 
-7.5800000000000001

>  <m_primary>  (45) 
energy

$$$$
45:0
     RDKit          3D

 47 50  0  0  0  0  0  0  0  0999 V2000
   56.8080   33.4450   45.2480 C   0  0  0  0  0  0  0  0  0  0  0  0
   58.1330   33.4140   45.9620 C   0  0  0  0  0  0  0  0  0  0  0  0
   58.7460   34.6200   46.3300 C   0  0  0  0  0  0  0  0  0  0  0  0
   59.9730   34.6210   46.9950 C   0  0  0  0  0  0  0  0  0  0  0  0
   60.6090   33.4130   47.3210 C   0  0  0  0  0  0  0  0  0  0  0  0
   61.9100   33.4150   48.0390 C   0  0  0  0  0  0  0  0  0  0  0  0
   62.0850   33.9330   49.3370 C   0  0  0  0  0  0  0  0  0  0  0  0
   63.3840   33.8300   49.8110 C   0  0  0  0  0  0  0  0  0  0  0  0
   64.3180   33.0970   48.6240 S   0  0  0  0  0  0  0  0  0  0  0  0
   63.0890   32.9050   47.4950 C   0  0  0  0  0  0  0  0  0  0  0  0
   59.9910   32.2020   46.9620 C   0  0  0  0  0  0  0  0  0  0  0  0
   58.7630   32.1890   46.2770 C   0  0  0  0  0  0  0  0  0  0  0  0
   58.1340   30.9380   45.9460 N   0  0  0  0  0  0  0  0  0  0  0  0
   58.8430   29.8240   45.3780 C   0  0  0  0  0  0  0  0  0  0  0  0
   60.0250   29.9680   44.9630 O   0  0  0  0  0  0  0  0  0  0  0  0
   58.1860   28.5150   45.2480 C   0  0  0  0  0  0  0  0  0  0  0  0
   58.3510   27.6240   44.2080 C   0  0  0  0  0  0  0  0  0  0  0  0
   57.5810   26.5530   44.4600 N   0  0  0  0  0  0  0  0  0  0  0  0
   57.4900   25.3450   43.6460 C   0  0  0  0  0  0  0  0  0  0  0  0
   56.9840   26.7990   45.6490 C   0  0  0  0  0  0  0  0  0  0  0  0
   56.0270   25.8470   46.3240 C   0  0  2  0  0  0  0  0  0  0  0  0
   56.5400   24.4170   46.3970 C   0  0  0  0  0  0  0  0  0  0  0  0
   55.2690   23.6290   46.4520 C   0  0  0  0  0  0  0  0  0  0  0  0
   54.2710   24.5270   45.7400 C   0  0  0  0  0  0  0  0  0  0  0  0
   54.7970   25.8330   45.6380 O   0  0  0  0  0  0  0  0  0  0  0  0
   57.3280   28.0050   46.1560 N   0  0  0  0  0  0  0  0  0  0  0  0
   55.9936   33.4641   45.9871 H   0  0  0  0  0  0  0  0  0  0  0  0
   56.7522   34.3447   44.6176 H   0  0  0  0  0  0  0  0  0  0  0  0
   56.7101   32.5489   44.6176 H   0  0  0  0  0  0  0  0  0  0  0  0
   58.2549   35.5751   46.0922 H   0  0  0  0  0  0  0  0  0  0  0  0
   60.4457   35.5766   47.2659 H   0  0  0  0  0  0  0  0  0  0  0  0
   61.2662   34.3784   49.9212 H   0  0  0  0  0  0  0  0  0  0  0  0
   63.7408   34.1697   50.7945 H   0  0  0  0  0  0  0  0  0  0  0  0
   63.1957   32.4542   46.4973 H   0  0  0  0  0  0  0  0  0  0  0  0
   60.4761   31.2494   47.2212 H   0  0  0  0  0  0  0  0  0  0  0  0
   57.1000   30.8540   46.0650 H   0  0  0  0  0  0  0  0  0  0  0  0
   58.9976   27.7654   43.3294 H   0  0  0  0  0  0  0  0  0  0  0  0
   57.4237   24.4647   44.3023 H   0  0  0  0  0  0  0  0  0  0  0  0
   56.5933   25.3974   43.0111 H   0  0  0  0  0  0  0  0  0  0  0  0
   58.3845   25.2624   43.0111 H   0  0  0  0  0  0  0  0  0  0  0  0
   55.9131   26.2179   47.3533 H   0  0  0  0  0  0  0  0  0  0  0  0
   57.1312   24.1591   45.5059 H   0  0  0  0  0  0  0  0  0  0  0  0
   57.2123   24.2314   47.2476 H   0  0  0  0  0  0  0  0  0  0  0  0
   55.3781   22.6679   45.9283 H   0  0  0  0  0  0  0  0  0  0  0  0
   54.9641   23.3743   47.4777 H   0  0  0  0  0  0  0  0  0  0  0  0
   54.0764   24.1311   44.7323 H   0  0  0  0  0  0  0  0  0  0  0  0
   53.3321   24.5553   46.3125 H   0  0  0  0  0  0  0  0  0  0  0  0
  1  2  1  0
  2  3  2  0
  3  4  1  0
  4  5  2  0
  5  6  1  0
  6  7  1  0
  7  8  2  0
  8  9  1  0
  9 10  1  0
  5 11  1  0
 11 12  2  0
 12 13  1  0
 13 14  1  0
 14 15  2  0
 14 16  1  0
 16 17  2  0
 17 18  1  0
 18 19  1  0
 18 20  1  0
 20 21  1  0
 21 22  1  0
 22 23  1  0
 23 24  1  0
 24 25  1  0
 20 26  2  0
 12  2  1  0
 26 16  1  0
 10  6  2  0
 25 21  1  0
  1 27  1  0
  1 28  1  0
  1 29  1  0
  3 30  1  0
  4 31  1  0
  7 32  1  0
  8 33  1  0
 10 34  1  0
 11 35  1  0
 13 36  1  0
 17 37  1  0
 19 38  1  0
 19 39  1  0
 19 40  1  0
 21 41  1  1
 22 42  1  0
 22 43  1  0
 23 44  1  0
 23 45  1  0
 24 46  1  0
 24 47  1  0
M  END
>  <UniqueID>  (46) 
46

>  <SMILES>  (46) 
Cc1ccc(-c2ccsc2)cc1NC(=O)c1cn(C)c([C@@H]2CCCO2)n1

>  <Energy>  (46) 
111.90229642188406

>  <Genealogy>  (46) 
Cc1ccc(-c2ccsc2)cc1NC(=O)c1cn(C)c([C@@H]2CCCO2)n1 (chirality)
Cc1ccc(-c2ccsc2)cc1NC(=O)c1cn(C)c([C@@H]2CCCO2)n1 (3D coordinates assigned)
Cc1ccc(-c2ccsc2)cc1NC(=O)c1cn(C)c([C@@H]2CCCO2)n1 (nonaromatic ring conformer: 111.90229642188406 kcal/mol)

>  <smiles>  (46) 
Cc1ccc(-c2ccsc2)cc1NC(=O)c1cn(C)c(C2CCCO2)n1

>  <score_type>  (46) 
oracle

>  <origin>  (46) 
adg

>  <m_score__min__energy>  (46) 
-8.2599999999999998

>  <m_primary>  (46) 
energy

$$$$
46:0
     RDKit          3D

 59 61  0  0  0  0  0  0  0  0999 V2000
   62.9460   32.0320   47.4960 C   0  0  0  0  0  0  0  0  0  0  0  0
   62.5470   32.7980   48.7500 C   0  0  0  0  0  0  0  0  0  0  0  0
   62.1660   31.8580   49.8120 N   0  0  0  0  0  0  0  0  0  0  0  0
   62.7700   32.2270   51.1000 C   0  0  0  0  0  0  0  0  0  0  0  0
   61.7030   32.5760   52.1430 C   0  0  0  0  0  0  0  0  0  0  0  0
   60.3590   32.5480   51.5590 N   0  0  0  0  0  0  0  0  0  0  0  0
   59.3080   31.6390   51.9450 C   0  0  0  0  0  0  0  0  0  0  0  0
   58.6060   31.8110   53.1500 C   0  0  0  0  0  0  0  0  0  0  0  0
   57.5340   30.9750   53.4870 C   0  0  0  0  0  0  0  0  0  0  0  0
   56.7800   31.2260   55.0610 Cl  0  0  0  0  0  0  0  0  0  0  0  0
   57.1260   29.9540   52.5990 C   0  0  0  0  0  0  0  0  0  0  0  0
   55.9830   29.0540   52.8870 C   0  0  0  0  0  0  0  0  0  0  0  0
   56.0430   28.2680   53.8720 O   0  0  0  0  0  0  0  0  0  0  0  0
   54.8590   29.0030   52.0010 N   0  0  0  0  0  0  0  0  0  0  0  0
   53.8050   29.9740   51.8940 C   0  0  0  0  0  0  0  0  0  0  0  0
   53.3530   30.4270   50.6410 C   0  0  0  0  0  0  0  0  0  0  0  0
   52.3060   31.3500   50.5580 C   0  0  0  0  0  0  0  0  0  0  0  0
   51.6900   31.8170   51.7190 C   0  0  0  0  0  0  0  0  0  0  0  0
   50.6490   32.7320   51.6320 O   0  0  0  0  0  0  0  0  0  0  0  0
   52.1140   31.3580   52.9690 C   0  0  0  0  0  0  0  0  0  0  0  0
   53.1680   30.4330   53.0670 C   0  0  0  0  0  0  0  0  0  0  0  0
   53.6020   29.9320   54.4160 C   0  0  0  0  0  0  0  0  0  0  0  0
   57.8340   29.7840   51.3970 C   0  0  0  0  0  0  0  0  0  0  0  0
   58.9210   30.5990   51.0750 C   0  0  0  0  0  0  0  0  0  0  0  0
   59.6000   30.3620   49.8730 O   0  0  0  0  0  0  0  0  0  0  0  0
   59.1100   30.7210   48.6090 C   0  0  0  0  0  0  0  0  0  0  0  0
   58.6960   29.7520   47.6770 C   0  0  0  0  0  0  0  0  0  0  0  0
   58.2170   30.1350   46.4240 C   0  0  0  0  0  0  0  0  0  0  0  0
   58.1370   31.4890   46.0900 C   0  0  0  0  0  0  0  0  0  0  0  0
   57.5380   31.9680   44.5130 Cl  0  0  0  0  0  0  0  0  0  0  0  0
   58.5290   32.4620   47.0150 C   0  0  0  0  0  0  0  0  0  0  0  0
   59.0160   32.0840   48.2830 C   0  0  0  0  0  0  0  0  0  0  0  0
   59.4200   33.0290   49.2380 O   0  0  0  0  0  0  0  0  0  0  0  0
   59.7130   34.3920   48.9520 C   0  0  0  0  0  0  0  0  0  0  0  0
   63.4367   31.0900   47.7823 H   0  0  0  0  0  0  0  0  0  0  0  0
   62.0482   31.8114   46.8999 H   0  0  0  0  0  0  0  0  0  0  0  0
   63.6414   32.6412   46.8999 H   0  0  0  0  0  0  0  0  0  0  0  0
   63.3970   33.4076   49.0906 H   0  0  0  0  0  0  0  0  0  0  0  0
   61.6907   33.4486   48.5189 H   0  0  0  0  0  0  0  0  0  0  0  0
   61.1260   31.9150   49.9230 H   0  0  0  0  0  0  0  0  0  0  0  0
   63.3675   31.3807   51.4698 H   0  0  0  0  0  0  0  0  0  0  0  0
   63.4012   33.1141   50.9429 H   0  0  0  0  0  0  0  0  0  0  0  0
   61.7522   31.8459   52.9643 H   0  0  0  0  0  0  0  0  0  0  0  0
   61.8994   33.5927   52.5142 H   0  0  0  0  0  0  0  0  0  0  0  0
   60.1670   33.2320   50.7910 H   0  0  0  0  0  0  0  0  0  0  0  0
   58.9031   32.6149   53.8395 H   0  0  0  0  0  0  0  0  0  0  0  0
   53.8261   30.0528   49.7212 H   0  0  0  0  0  0  0  0  0  0  0  0
   51.9673   31.7087   49.5748 H   0  0  0  0  0  0  0  0  0  0  0  0
   51.6200   31.7227   53.8817 H   0  0  0  0  0  0  0  0  0  0  0  0
   53.0984   30.5133   55.2024 H   0  0  0  0  0  0  0  0  0  0  0  0
   53.3337   28.8699   54.5164 H   0  0  0  0  0  0  0  0  0  0  0  0
   54.6915   30.0461   54.5164 H   0  0  0  0  0  0  0  0  0  0  0  0
   57.5259   28.9938   50.6965 H   0  0  0  0  0  0  0  0  0  0  0  0
   58.7504   28.6848   47.9381 H   0  0  0  0  0  0  0  0  0  0  0  0
   57.9021   29.3704   45.6986 H   0  0  0  0  0  0  0  0  0  0  0  0
   58.4570   33.5276   46.7519 H   0  0  0  0  0  0  0  0  0  0  0  0
   59.8323   34.9469   49.8942 H   0  0  0  0  0  0  0  0  0  0  0  0
   60.6447   34.4525   48.3703 H   0  0  0  0  0  0  0  0  0  0  0  0
   58.8885   34.8300   48.3703 H   0  0  0  0  0  0  0  0  0  0  0  0
  1  2  1  0
  2  3  1  0
  3  4  1  0
  4  5  1  0
  5  6  1  0
  6  7  1  0
  7  8  2  0
  8  9  1  0
  9 10  1  0
  9 11  2  0
 11 12  1  0
 12 13  2  0
 12 14  1  0
 14 15  1  0
 15 16  2  0
 16 17  1  0
 17 18  2  0
 18 19  1  0
 18 20  1  0
 20 21  2  0
 21 22  1  0
 11 23  1  0
 23 24  2  0
 24 25  1  0
 25 26  1  0
 26 27  2  0
 27 28  1  0
 28 29  2  0
 29 30  1  0
 29 31  1  0
 31 32  2  0
 32 33  1  0
 33 34  1  0
 24  7  1  0
 32 26  1  0
 21 15  1  0
  1 35  1  0
  1 36  1  0
  1 37  1  0
  2 38  1  0
  2 39  1  0
  3 40  1  0
  4 41  1  0
  4 42  1  0
  5 43  1  0
  5 44  1  0
  6 45  1  0
  8 46  1  0
 16 47  1  0
 17 48  1  0
 20 49  1  0
 22 50  1  0
 22 51  1  0
 22 52  1  0
 23 53  1  0
 27 54  1  0
 28 55  1  0
 31 56  1  0
 34 57  1  0
 34 58  1  0
 34 59  1  0
M  CHG  2  14  -1  19  -1
M  END
>  <UniqueID>  (47) 
47

>  <SMILES>  (47) 
CCNCCNc1cc(Cl)c(C(=O)[N-]c2ccc([O-])cc2C)cc1Oc1ccc(Cl)cc1OC

>  <Energy>  (47) 
69.95166432399131

>  <Genealogy>  (47) 
CCNCCNc1cc(Cl)c(C(=O)[N-]c2ccc([O-])cc2C)cc1Oc1ccc(Cl)cc1OC (protonated)
CCNCCNc1cc(Cl)c(C(=O)[N-]c2ccc([O-])cc2C)cc1Oc1ccc(Cl)cc1OC (3D coordinates assigned)
CCNCCNc1cc(Cl)c(C(=O)[N-]c2ccc([O-])cc2C)cc1Oc1ccc(Cl)cc1OC (optimized conformer: 69.95166432399131 kcal/mol)

>  <smiles>  (47) 
CCNCCNc1cc(Cl)c(C(=O)Nc2ccc(O)cc2C)cc1Oc1ccc(Cl)cc1OC

>  <score_type>  (47) 
oracle

>  <origin>  (47) 
adg

>  <m_score__min__energy>  (47) 
-11.960000000000001

>  <m_primary>  (47) 
energy

$$$$
47:0
     RDKit          3D

 38 40  0  0  0  0  0  0  0  0999 V2000
   56.2800   31.4490   44.8380 O   0  0  0  0  0  0  0  0  0  0  0  0
   57.3790   32.0680   44.8650 C   0  0  0  0  0  0  0  0  0  0  0  0
   57.3820   33.5640   44.7580 C   0  0  0  0  0  0  0  0  0  0  0  0
   58.7030   34.0840   44.9080 O   0  0  0  0  0  0  0  0  0  0  0  0
   59.4510   34.0650   46.0980 C   0  0  0  0  0  0  0  0  0  0  0  0
   60.8340   33.8740   46.0060 C   0  0  0  0  0  0  0  0  0  0  0  0
   61.6230   33.8270   47.1590 C   0  0  0  0  0  0  0  0  0  0  0  0
   61.0380   33.9740   48.4260 C   0  0  0  0  0  0  0  0  0  0  0  0
   61.8640   33.9200   49.6480 C   0  0  0  0  0  0  0  0  0  0  0  0
   63.1610   34.2790   49.7090 N   0  0  0  0  0  0  0  0  0  0  0  0
   63.5400   34.0880   50.9630 N   0  0  0  0  0  0  0  0  0  0  0  0
   62.4640   33.6200   51.6220 C   0  0  0  0  0  0  0  0  0  0  0  0
   61.4330   33.5150   50.8180 O   0  0  0  0  0  0  0  0  0  0  0  0
   59.6520   34.1760   48.5200 C   0  0  0  0  0  0  0  0  0  0  0  0
   58.8640   34.2230   47.3670 C   0  0  0  0  0  0  0  0  0  0  0  0
   58.6160   31.3500   44.9970 N   0  0  0  0  0  0  0  0  0  0  0  0
   58.6840   29.9180   45.1070 C   0  0  0  0  0  0  0  0  0  0  0  0
   58.0900   29.1160   44.1170 C   0  0  0  0  0  0  0  0  0  0  0  0
   58.1840   27.7260   44.1780 C   0  0  0  0  0  0  0  0  0  0  0  0
   58.8810   27.1190   45.2210 C   0  0  0  0  0  0  0  0  0  0  0  0
   59.4840   27.8990   46.2100 C   0  0  0  0  0  0  0  0  0  0  0  0
   59.3860   29.3050   46.1770 C   0  0  0  0  0  0  0  0  0  0  0  0
   60.0390   30.1370   47.2620 C   0  0  0  0  0  0  0  0  0  0  0  0
   61.0960   30.8820   46.7670 F   0  0  0  0  0  0  0  0  0  0  0  0
   59.1060   31.0030   47.8020 F   0  0  0  0  0  0  0  0  0  0  0  0
   60.5300   29.3150   48.2590 F   0  0  0  0  0  0  0  0  0  0  0  0
   56.9904   33.8551   43.7721 H   0  0  0  0  0  0  0  0  0  0  0  0
   56.7502   33.9744   45.5595 H   0  0  0  0  0  0  0  0  0  0  0  0
   61.3043   33.7599   45.0182 H   0  0  0  0  0  0  0  0  0  0  0  0
   62.7089   33.6739   47.0726 H   0  0  0  0  0  0  0  0  0  0  0  0
   62.4509   33.3605   52.6909 H   0  0  0  0  0  0  0  0  0  0  0  0
   59.1833   34.2981   49.5076 H   0  0  0  0  0  0  0  0  0  0  0  0
   57.7792   34.3843   47.4518 H   0  0  0  0  0  0  0  0  0  0  0  0
   59.4970   31.9000   45.1090 H   0  0  0  0  0  0  0  0  0  0  0  0
   57.5459   29.5893   43.2864 H   0  0  0  0  0  0  0  0  0  0  0  0
   57.7077   27.1083   43.4024 H   0  0  0  0  0  0  0  0  0  0  0  0
   58.9564   26.0225   45.2654 H   0  0  0  0  0  0  0  0  0  0  0  0
   60.0413   27.4112   47.0233 H   0  0  0  0  0  0  0  0  0  0  0  0
  1  2  2  0
  2  3  1  0
  3  4  1  0
  4  5  1  0
  5  6  2  0
  6  7  1  0
  7  8  2  0
  8  9  1  0
  9 10  2  0
 10 11  1  0
 11 12  2  0
 12 13  1  0
  8 14  1  0
 14 15  2  0
  2 16  1  0
 16 17  1  0
 17 18  2  0
 18 19  1  0
 19 20  2  0
 20 21  1  0
 21 22  2  0
 22 23  1  0
 23 24  1  0
 23 25  1  0
 23 26  1  0
 15  5  1  0
 22 17  1  0
 13  9  1  0
  3 27  1  0
  3 28  1  0
  6 29  1  0
  7 30  1  0
 12 31  1  0
 14 32  1  0
 15 33  1  0
 16 34  1  0
 18 35  1  0
 19 36  1  0
 20 37  1  0
 21 38  1  0
M  END
>  <UniqueID>  (48) 
48

>  <SMILES>  (48) 
O=C(COc1ccc(-c2nnco2)cc1)Nc1ccccc1C(F)(F)F

>  <Energy>  (48) 
79.39944047102126

>  <Genealogy>  (48) 
O=C(COc1ccc(-c2nnco2)cc1)Nc1ccccc1C(F)(F)F (3D coordinates assigned)
O=C(COc1ccc(-c2nnco2)cc1)Nc1ccccc1C(F)(F)F (optimized conformer: 79.39944047102126 kcal/mol)

>  <smiles>  (48) 
O=C(COc1ccc(-c2nnco2)cc1)Nc1ccccc1C(F)(F)F

>  <score_type>  (48) 
oracle

>  <origin>  (48) 
adg

>  <m_score__min__energy>  (48) 
-6.9199999999999999

>  <m_primary>  (48) 
energy

$$$$
