0:0
     RDKit          3D

 31 32  0  0  0  0  0  0  0  0999 V2000
   58.4000   33.2420   43.4530 O   0  0  0  0  0  0  0  0  0  0  0  0
   57.5680   32.3380   43.7360 C   0  0  0  0  0  0  0  0  0  0  0  0
   57.2660   31.2710   42.7300 C   0  0  0  0  0  0  0  0  0  0  0  0
   56.1530   30.0120   43.4430 S   0  0  0  0  0  0  0  0  0  0  0  0
   57.3630   29.3870   44.6060 C   0  0  0  0  0  0  0  0  0  0  0  0
   58.3800   28.5980   44.1690 N   0  0  0  0  0  0  0  0  0  0  0  0
   59.3090   28.1170   45.0360 C   0  0  0  0  0  0  0  0  0  0  0  0
   59.2240   28.4310   46.3920 C   0  0  0  0  0  0  0  0  0  0  0  0
   58.1710   29.2370   46.8220 C   0  0  0  0  0  0  0  0  0  0  0  0
   57.2610   29.6980   45.9250 N   0  0  0  0  0  0  0  0  0  0  0  0
   56.9370   32.3100   45.0240 N   0  0  0  0  0  0  0  0  0  0  0  0
   57.2050   33.3140   46.0520 C   0  0  0  0  0  0  0  0  0  0  0  0
   58.6770   33.3650   46.3580 C   0  0  0  0  0  0  0  0  0  0  0  0
   59.3960   34.5530   46.1530 C   0  0  0  0  0  0  0  0  0  0  0  0
   60.7680   34.6010   46.4180 C   0  0  0  0  0  0  0  0  0  0  0  0
   61.4330   33.4640   46.8850 C   0  0  0  0  0  0  0  0  0  0  0  0
   63.1550   33.5260   47.2140 Cl  0  0  0  0  0  0  0  0  0  0  0  0
   60.7230   32.2740   47.0870 C   0  0  0  0  0  0  0  0  0  0  0  0
   59.3510   32.2240   46.8240 C   0  0  0  0  0  0  0  0  0  0  0  0
   56.7818   31.7269   41.8538 H   0  0  0  0  0  0  0  0  0  0  0  0
   58.2078   30.7853   42.4347 H   0  0  0  0  0  0  0  0  0  0  0  0
   60.1274   27.4805   44.6686 H   0  0  0  0  0  0  0  0  0  0  0  0
   59.9703   28.0516   47.1055 H   0  0  0  0  0  0  0  0  0  0  0  0
   58.0771   29.4993   47.8861 H   0  0  0  0  0  0  0  0  0  0  0  0
   56.2740   31.5340   45.2470 H   0  0  0  0  0  0  0  0  0  0  0  0
   56.8744   34.2995   45.6922 H   0  0  0  0  0  0  0  0  0  0  0  0
   56.6575   33.0451   46.9674 H   0  0  0  0  0  0  0  0  0  0  0  0
   58.8780   35.4498   45.7824 H   0  0  0  0  0  0  0  0  0  0  0  0
   61.3253   35.5359   46.2585 H   0  0  0  0  0  0  0  0  0  0  0  0
   61.2454   31.3778   47.4530 H   0  0  0  0  0  0  0  0  0  0  0  0
   58.7968   31.2872   46.9826 H   0  0  0  0  0  0  0  0  0  0  0  0
  1  2  2  0
  2  3  1  0
  3  4  1  0
  4  5  1  0
  5  6  2  0
  6  7  1  0
  7  8  2  0
  8  9  1  0
  9 10  2  0
  2 11  1  0
 11 12  1  0
 12 13  1  0
 13 14  2  0
 14 15  1  0
 15 16  2  0
 16 17  1  0
 16 18  1  0
 18 19  2  0
 10  5  1  0
 19 13  1  0
  3 20  1  0
  3 21  1  0
  7 22  1  0
  8 23  1  0
  9 24  1  0
 11 25  1  0
 12 26  1  0
 12 27  1  0
 14 28  1  0
 15 29  1  0
 18 30  1  0
 19 31  1  0
M  END
>  <UniqueID>  (1) 
1

>  <SMILES>  (1) 
O=C(CSc1ncccn1)NCc1ccc(Cl)cc1

>  <Energy>  (1) 
24.696071999737264

>  <Genealogy>  (1) 
O=C(CSc1ncccn1)NCc1ccc(Cl)cc1 (3D coordinates assigned)
O=C(CSc1ncccn1)NCc1ccc(Cl)cc1 (optimized conformer: 24.696071999737264 kcal/mol)

>  <smiles>  (1) 
O=C(CSc1ncccn1)NCc1ccc(Cl)cc1

>  <score_type>  (1) 
oracle

>  <origin>  (1) 
adg

>  <m_score__min__energy>  (1) 
-6.7300000000000004

>  <m_primary>  (1) 
energy

$$$$
1:0
     RDKit          3D

 45 49  0  0  0  0  0  0  0  0999 V2000
   62.8870   32.9690   46.9390 O   0  0  0  0  0  0  0  0  0  0  0  0
   62.4790   33.5340   47.9900 C   0  0  0  0  0  0  0  0  0  0  0  0
   61.1740   34.1360   48.0270 N   0  0  0  0  0  0  0  0  0  0  0  0
   60.1330   33.8520   47.0760 C   0  0  0  0  0  0  0  0  0  0  0  0
   59.6110   34.8550   46.2400 C   0  0  0  0  0  0  0  0  0  0  0  0
   58.6150   34.5480   45.3130 C   0  0  0  0  0  0  0  0  0  0  0  0
   58.1370   33.2420   45.1980 C   0  0  0  0  0  0  0  0  0  0  0  0
   58.6600   32.2190   46.0090 C   0  0  0  0  0  0  0  0  0  0  0  0
   58.1610   30.8260   45.8800 C   0  0  0  0  0  0  0  0  0  0  0  0
   58.5190   29.8480   46.8250 C   0  0  0  0  0  0  0  0  0  0  0  0
   58.0500   28.5370   46.7030 C   0  0  0  0  0  0  0  0  0  0  0  0
   57.2120   28.1760   45.6360 C   0  0  0  0  0  0  0  0  0  0  0  0
   56.7140   26.7880   45.5080 C   0  0  0  0  0  0  0  0  0  0  0  0
   57.4190   25.8040   44.8830 N   0  0  0  0  0  0  0  0  0  0  0  0
   56.6100   24.7420   45.0010 C   0  0  0  0  0  0  0  0  0  0  0  0
   56.8290   23.4470   44.5370 C   0  0  0  0  0  0  0  0  0  0  0  0
   55.8280   22.4880   44.7800 C   0  0  0  0  0  0  0  0  0  0  0  0
   54.6490   22.8460   45.4740 C   0  0  0  0  0  0  0  0  0  0  0  0
   54.4630   24.1660   45.9280 C   0  0  0  0  0  0  0  0  0  0  0  0
   55.4760   25.0860   45.6690 C   0  0  0  0  0  0  0  0  0  0  0  0
   55.5130   26.3830   46.0040 N   0  0  0  0  0  0  0  0  0  0  0  0
   56.8520   29.1520   44.6920 C   0  0  0  0  0  0  0  0  0  0  0  0
   57.3220   30.4620   44.8120 C   0  0  0  0  0  0  0  0  0  0  0  0
   59.6650   32.5360   46.9410 C   0  0  0  0  0  0  0  0  0  0  0  0
   63.3770   33.6020   49.1540 C   0  0  0  0  0  0  0  0  0  0  0  0
   64.6030   32.9760   49.2910 C   0  0  0  0  0  0  0  0  0  0  0  0
   65.0680   33.3390   50.5360 C   0  0  0  0  0  0  0  0  0  0  0  0
   64.1040   34.1620   51.0820 C   0  0  0  0  0  0  0  0  0  0  0  0
   63.1110   34.3000   50.2340 O   0  0  0  0  0  0  0  0  0  0  0  0
   61.0020   34.8970   48.7220 H   0  0  0  0  0  0  0  0  0  0  0  0
   59.9893   35.8850   46.3173 H   0  0  0  0  0  0  0  0  0  0  0  0
   58.2041   35.3396   44.6691 H   0  0  0  0  0  0  0  0  0  0  0  0
   57.3465   33.0113   44.4687 H   0  0  0  0  0  0  0  0  0  0  0  0
   59.1735   30.1170   47.6671 H   0  0  0  0  0  0  0  0  0  0  0  0
   58.3397   27.7822   47.4488 H   0  0  0  0  0  0  0  0  0  0  0  0
   57.7518   23.1832   43.9996 H   0  0  0  0  0  0  0  0  0  0  0  0
   55.9634   21.4546   44.4283 H   0  0  0  0  0  0  0  0  0  0  0  0
   53.8728   22.0891   45.6602 H   0  0  0  0  0  0  0  0  0  0  0  0
   53.5506   24.4598   46.4677 H   0  0  0  0  0  0  0  0  0  0  0  0
   56.1950   28.8827   43.8519 H   0  0  0  0  0  0  0  0  0  0  0  0
   57.0332   31.2154   44.0644 H   0  0  0  0  0  0  0  0  0  0  0  0
   60.0896   31.7416   47.5724 H   0  0  0  0  0  0  0  0  0  0  0  0
   65.1023   32.3244   48.5588 H   0  0  0  0  0  0  0  0  0  0  0  0
   66.0169   33.0341   51.0014 H   0  0  0  0  0  0  0  0  0  0  0  0
   64.1591   34.6307   52.0756 H   0  0  0  0  0  0  0  0  0  0  0  0
  1  2  2  0
  2  3  1  0
  3  4  1  0
  4  5  2  0
  5  6  1  0
  6  7  2  0
  7  8  1  0
  8  9  1  0
  9 10  2  0
 10 11  1  0
 11 12  2  0
 12 13  1  0
 13 14  2  0
 14 15  1  0
 15 16  2  0
 16 17  1  0
 17 18  2  0
 18 19  1  0
 19 20  2  0
 20 21  1  0
 12 22  1  0
 22 23  2  0
  8 24  2  0
  2 25  1  0
 25 26  2  0
 26 27  1  0
 27 28  2  0
 28 29  1  0
 24  4  1  0
 29 25  1  0
 23  9  1  0
 21 13  1  0
 20 15  1  0
  3 30  1  0
  5 31  1  0
  6 32  1  0
  7 33  1  0
 10 34  1  0
 11 35  1  0
 16 36  1  0
 17 37  1  0
 18 38  1  0
 19 39  1  0
 22 40  1  0
 23 41  1  0
 24 42  1  0
 26 43  1  0
 27 44  1  0
 28 45  1  0
M  CHG  1  21  -1
M  END
>  <UniqueID>  (2) 
2

>  <SMILES>  (2) 
O=C(Nc1cccc(-c2ccc(-c3nc4ccccc4[n-]3)cc2)c1)c1ccco1

>  <Energy>  (2) 
121.56116154592199

>  <Genealogy>  (2) 
O=C(Nc1cccc(-c2ccc(-c3nc4ccccc4[n-]3)cc2)c1)c1ccco1 (protonated)
O=C(Nc1cccc(-c2ccc(-c3nc4ccccc4[n-]3)cc2)c1)c1ccco1 (3D coordinates assigned)
O=C(Nc1cccc(-c2ccc(-c3nc4ccccc4[n-]3)cc2)c1)c1ccco1 (optimized conformer: 121.56116154592199 kcal/mol)

>  <smiles>  (2) 
O=C(Nc1cccc(-c2ccc(-c3nc4ccccc4[nH]3)cc2)c1)c1ccco1

>  <score_type>  (2) 
oracle

>  <origin>  (2) 
adg

>  <m_score__min__energy>  (2) 
-10.5

>  <m_primary>  (2) 
energy

$$$$
2:0
     RDKit          3D

 51 54  0  0  0  0  0  0  0  0999 V2000
   62.0910   30.1130   50.9230 C   0  0  0  0  0  0  0  0  0  0  0  0
   63.0140   31.1470   50.3480 C   0  0  0  0  0  0  0  0  0  0  0  0
   64.2590   31.3830   50.9440 C   0  0  0  0  0  0  0  0  0  0  0  0
   65.0850   32.3810   50.4310 C   0  0  0  0  0  0  0  0  0  0  0  0
   64.6670   33.1350   49.3350 C   0  0  0  0  0  0  0  0  0  0  0  0
   63.4160   32.8780   48.7560 C   0  0  0  0  0  0  0  0  0  0  0  0
   62.9590   33.6810   47.5990 C   0  0  0  0  0  0  0  0  0  0  0  0
   63.8090   34.0800   46.7580 O   0  0  0  0  0  0  0  0  0  0  0  0
   61.5690   34.0170   47.4150 N   0  0  0  0  0  0  0  0  0  0  0  0
   60.8970   33.6490   46.1650 C   0  0  0  0  0  0  0  0  0  0  0  0
   60.0510   32.3930   46.3760 C   0  0  0  0  0  0  0  0  0  0  0  0
   58.8990   32.6750   47.2430 N   0  0  0  0  0  0  0  0  0  0  0  0
   57.5750   32.9240   46.6660 C   0  0  0  0  0  0  0  0  0  0  0  0
   57.4770   32.3210   45.3010 C   0  0  0  0  0  0  0  0  0  0  0  0
   57.9110   32.9040   44.1260 C   0  0  0  0  0  0  0  0  0  0  0  0
   57.5930   32.0090   43.1260 C   0  0  0  0  0  0  0  0  0  0  0  0
   56.9800   30.9450   43.7580 C   0  0  0  0  0  0  0  0  0  0  0  0
   56.4590   29.7200   43.0860 C   0  0  0  0  0  0  0  0  0  0  0  0
   56.9260   31.1570   45.0510 O   0  0  0  0  0  0  0  0  0  0  0  0
   59.0760   32.7060   48.6680 C   0  0  0  0  0  0  0  0  0  0  0  0
   58.3760   31.7830   49.4600 C   0  0  0  0  0  0  0  0  0  0  0  0
   58.5120   31.7950   50.8490 C   0  0  0  0  0  0  0  0  0  0  0  0
   59.3500   32.7250   51.4600 C   0  0  0  0  0  0  0  0  0  0  0  0
   60.0560   33.6480   50.6840 C   0  0  0  0  0  0  0  0  0  0  0  0
   59.9230   33.6640   49.2840 C   0  0  0  0  0  0  0  0  0  0  0  0
   60.7940   34.6380   48.5040 C   0  0  0  0  0  0  0  0  0  0  0  0
   62.6130   31.9090   49.2890 N   0  0  0  0  0  0  0  0  0  0  0  0
   62.1301   30.1568   52.0214 H   0  0  0  0  0  0  0  0  0  0  0  0
   61.0631   30.3102   50.5845 H   0  0  0  0  0  0  0  0  0  0  0  0
   62.4032   29.1140   50.5845 H   0  0  0  0  0  0  0  0  0  0  0  0
   64.5820   30.7858   51.8095 H   0  0  0  0  0  0  0  0  0  0  0  0
   66.0658   32.5739   50.8901 H   0  0  0  0  0  0  0  0  0  0  0  0
   65.3140   33.9258   48.9275 H   0  0  0  0  0  0  0  0  0  0  0  0
   60.2470   34.4762   45.8437 H   0  0  0  0  0  0  0  0  0  0  0  0
   61.6548   33.4484   45.3933 H   0  0  0  0  0  0  0  0  0  0  0  0
   59.6886   32.0352   45.4010 H   0  0  0  0  0  0  0  0  0  0  0  0
   60.6749   31.6268   46.8595 H   0  0  0  0  0  0  0  0  0  0  0  0
   56.8074   32.4774   47.3151 H   0  0  0  0  0  0  0  0  0  0  0  0
   57.4197   34.0101   46.5872 H   0  0  0  0  0  0  0  0  0  0  0  0
   58.4070   33.8792   44.0118 H   0  0  0  0  0  0  0  0  0  0  0  0
   57.7872   32.1196   42.0490 H   0  0  0  0  0  0  0  0  0  0  0  0
   56.1480   28.9887   43.8466 H   0  0  0  0  0  0  0  0  0  0  0  0
   55.5958   29.9853   42.4579 H   0  0  0  0  0  0  0  0  0  0  0  0
   57.2488   29.2823   42.4579 H   0  0  0  0  0  0  0  0  0  0  0  0
   57.7152   31.0445   48.9825 H   0  0  0  0  0  0  0  0  0  0  0  0
   57.9570   31.0694   51.4618 H   0  0  0  0  0  0  0  0  0  0  0  0
   59.4561   32.7328   52.5548 H   0  0  0  0  0  0  0  0  0  0  0  0
   60.7242   34.3712   51.1743 H   0  0  0  0  0  0  0  0  0  0  0  0
   60.1428   35.4096   48.0674 H   0  0  0  0  0  0  0  0  0  0  0  0
   61.5240   35.0495   49.2165 H   0  0  0  0  0  0  0  0  0  0  0  0
   61.6570   31.7620   48.8960 H   0  0  0  0  0  0  0  0  0  0  0  0
  1  2  1  0
  2  3  2  0
  3  4  1  0
  4  5  2  0
  5  6  1  0
  6  7  1  0
  7  8  2  0
  7  9  1  0
  9 10  1  0
 10 11  1  0
 11 12  1  0
 12 13  1  0
 13 14  1  0
 14 15  2  0
 15 16  1  0
 16 17  2  0
 17 18  1  0
 17 19  1  0
 12 20  1  0
 20 21  2  0
 21 22  1  0
 22 23  2  0
 23 24  1  0
 24 25  2  0
 25 26  1  0
  6 27  2  0
 27  2  1  0
 26  9  1  0
 19 14  1  0
 25 20  1  0
  1 28  1  0
  1 29  1  0
  1 30  1  0
  3 31  1  0
  4 32  1  0
  5 33  1  0
 10 34  1  0
 10 35  1  0
 11 36  1  0
 11 37  1  0
 13 38  1  0
 13 39  1  0
 15 40  1  0
 16 41  1  0
 18 42  1  0
 18 43  1  0
 18 44  1  0
 21 45  1  0
 22 46  1  0
 23 47  1  0
 24 48  1  0
 26 49  1  0
 26 50  1  0
 27 51  1  0
M  CHG  1  27   1
M  END
>  <UniqueID>  (3) 
3

>  <SMILES>  (3) 
Cc1cccc(C(=O)N2CCN(Cc3ccc(C)o3)c3ccccc3C2)[nH+]1

>  <Energy>  (3) 
90.92080508493608

>  <Genealogy>  (3) 
Cc1cccc(C(=O)N2CCN(Cc3ccc(C)o3)c3ccccc3C2)[nH+]1 (protonated)
Cc1cccc(C(=O)N2CCN(Cc3ccc(C)o3)c3ccccc3C2)[nH+]1 (3D coordinates assigned)
Cc1cccc(C(=O)N2CCN(Cc3ccc(C)o3)c3ccccc3C2)[nH+]1 (nonaromatic ring conformer: 90.92080508493608 kcal/mol)

>  <smiles>  (3) 
Cc1cccc(C(=O)N2CCN(Cc3ccc(C)o3)c3ccccc3C2)n1

>  <score_type>  (3) 
oracle

>  <origin>  (3) 
adg

>  <m_score__min__energy>  (3) 
-5.2000000000000002

>  <m_primary>  (3) 
energy

$$$$
3:0
     RDKit          3D

 42 43  0  0  0  0  0  0  0  0999 V2000
   57.7760   32.6530   43.3270 C   0  0  0  0  0  0  0  0  0  0  0  0
   58.1360   32.8880   44.7690 C   0  0  0  0  0  0  0  0  0  0  0  0
   58.2000   34.2060   45.2460 C   0  0  0  0  0  0  0  0  0  0  0  0
   58.4990   34.4620   46.5850 C   0  0  0  0  0  0  0  0  0  0  0  0
   58.7380   33.4070   47.4640 C   0  0  0  0  0  0  0  0  0  0  0  0
   58.6910   32.0810   47.0100 C   0  0  0  0  0  0  0  0  0  0  0  0
   58.9850   30.9530   47.9620 C   0  0  0  0  0  0  0  0  0  0  0  0
   58.4260   31.8170   45.6490 C   0  0  0  0  0  0  0  0  0  0  0  0
   58.4140   30.4570   45.1920 N   0  0  0  0  0  0  0  0  0  0  0  0
   57.2200   29.7200   44.9180 C   0  0  0  0  0  0  0  0  0  0  0  0
   56.1470   30.3200   44.6370 O   0  0  0  0  0  0  0  0  0  0  0  0
   57.2590   28.2240   44.9020 C   0  0  0  0  0  0  0  0  0  0  0  0
   57.0350   27.6880   46.2630 N   0  0  0  0  0  0  0  0  0  0  0  0
   56.6150   26.2630   46.2370 C   0  0  0  0  0  0  0  0  0  0  0  0
   57.7090   25.2540   46.6530 C   0  0  0  0  0  0  0  0  0  0  0  0
   59.0300   25.3050   45.8450 C   0  0  0  0  0  0  0  0  0  0  0  0
   60.0640   26.3280   46.3430 C   0  0  0  0  0  0  0  0  0  0  0  0
   59.5520   27.7860   46.4320 C   0  0  0  0  0  0  0  0  0  0  0  0
   58.1930   27.9850   47.1330 C   0  0  0  0  0  0  0  0  0  0  0  0
   56.8560   32.0525   43.2719 H   0  0  0  0  0  0  0  0  0  0  0  0
   57.6134   33.6195   42.8275 H   0  0  0  0  0  0  0  0  0  0  0  0
   58.5953   32.1153   42.8275 H   0  0  0  0  0  0  0  0  0  0  0  0
   58.0130   35.0444   44.5589 H   0  0  0  0  0  0  0  0  0  0  0  0
   58.5462   35.4994   46.9477 H   0  0  0  0  0  0  0  0  0  0  0  0
   58.9648   33.6157   48.5199 H   0  0  0  0  0  0  0  0  0  0  0  0
   58.8912   31.3130   48.9972 H   0  0  0  0  0  0  0  0  0  0  0  0
   58.2702   30.1343   47.7923 H   0  0  0  0  0  0  0  0  0  0  0  0
   60.0085   30.5873   47.7923 H   0  0  0  0  0  0  0  0  0  0  0  0
   56.4731   27.8480   44.2304 H   0  0  0  0  0  0  0  0  0  0  0  0
   58.2474   27.8964   44.5475 H   0  0  0  0  0  0  0  0  0  0  0  0
   55.7632   26.1454   46.9230 H   0  0  0  0  0  0  0  0  0  0  0  0
   56.3664   26.0340   45.1902 H   0  0  0  0  0  0  0  0  0  0  0  0
   57.9541   25.4412   47.7089 H   0  0  0  0  0  0  0  0  0  0  0  0
   57.2821   24.2595   46.4564 H   0  0  0  0  0  0  0  0  0  0  0  0
   59.4919   24.3075   45.8850 H   0  0  0  0  0  0  0  0  0  0  0  0
   58.7535   25.6213   44.8284 H   0  0  0  0  0  0  0  0  0  0  0  0
   60.3926   26.0200   47.3466 H   0  0  0  0  0  0  0  0  0  0  0  0
   60.8748   26.3320   45.5997 H   0  0  0  0  0  0  0  0  0  0  0  0
   60.3028   28.3732   46.9811 H   0  0  0  0  0  0  0  0  0  0  0  0
   59.3988   28.1099   45.3920 H   0  0  0  0  0  0  0  0  0  0  0  0
   58.1513   27.3200   48.0082 H   0  0  0  0  0  0  0  0  0  0  0  0
   58.1246   29.0463   47.4139 H   0  0  0  0  0  0  0  0  0  0  0  0
  1  2  1  0
  2  3  2  0
  3  4  1  0
  4  5  2  0
  5  6  1  0
  6  7  1  0
  6  8  2  0
  8  9  1  0
  9 10  1  0
 10 11  2  0
 10 12  1  0
 12 13  1  0
 13 14  1  0
 14 15  1  0
 15 16  1  0
 16 17  1  0
 17 18  1  0
 18 19  1  0
  8  2  1  0
 19 13  1  0
  1 20  1  0
  1 21  1  0
  1 22  1  0
  3 23  1  0
  4 24  1  0
  5 25  1  0
  7 26  1  0
  7 27  1  0
  7 28  1  0
 12 29  1  0
 12 30  1  0
 14 31  1  0
 14 32  1  0
 15 33  1  0
 15 34  1  0
 16 35  1  0
 16 36  1  0
 17 37  1  0
 17 38  1  0
 18 39  1  0
 18 40  1  0
 19 41  1  0
 19 42  1  0
M  CHG  1   9  -1
M  END
>  <UniqueID>  (4) 
4

>  <SMILES>  (4) 
Cc1cccc(C)c1[N-]C(=O)CN1CCCCCC1

>  <Energy>  (4) 
60.741088733720055

>  <Genealogy>  (4) 
Cc1cccc(C)c1[N-]C(=O)CN1CCCCCC1 (protonated)
Cc1cccc(C)c1[N-]C(=O)CN1CCCCCC1 (3D coordinates assigned)
Cc1cccc(C)c1[N-]C(=O)CN1CCCCCC1 (nonaromatic ring conformer: 60.741088733720055 kcal/mol)

>  <smiles>  (4) 
Cc1cccc(C)c1NC(=O)CN1CCCCCC1

>  <score_type>  (4) 
oracle

>  <origin>  (4) 
adg

>  <m_score__min__energy>  (4) 
-6.4299999999999997

>  <m_primary>  (4) 
energy

$$$$
4:0
     RDKit          3D

 43 45  0  0  0  0  0  0  0  0999 V2000
   56.2050   24.4550   44.9280 C   0  0  0  0  0  0  0  0  0  0  0  0
   55.1590   25.2570   45.6410 C   0  0  0  0  0  0  0  0  0  0  0  0
   54.0840   24.6960   45.9780 O   0  0  0  0  0  0  0  0  0  0  0  0
   55.3610   26.6340   45.9850 N   0  0  0  0  0  0  0  0  0  0  0  0
   56.6160   27.3280   46.0040 C   0  0  0  0  0  0  0  0  0  0  0  0
   57.7100   26.8510   46.7460 C   0  0  0  0  0  0  0  0  0  0  0  0
   58.9260   27.5380   46.7270 C   0  0  0  0  0  0  0  0  0  0  0  0
   59.0650   28.7110   45.9760 C   0  0  0  0  0  0  0  0  0  0  0  0
   60.3210   29.4040   46.0030 N   0  0  0  0  0  0  0  0  0  0  0  0
   60.7670   30.3240   47.0090 C   0  0  0  0  0  0  0  0  0  0  0  0
   61.8950   30.8680   46.8690 O   0  0  0  0  0  0  0  0  0  0  0  0
   59.9630   30.6360   48.2170 C   0  0  0  0  0  0  0  0  0  0  0  0
   60.0020   29.7310   49.2910 C   0  0  0  0  0  0  0  0  0  0  0  0
   59.2920   29.9880   50.4640 C   0  0  0  0  0  0  0  0  0  0  0  0
   58.5260   31.1470   50.5790 C   0  0  0  0  0  0  0  0  0  0  0  0
   58.4550   32.0460   49.5150 C   0  0  0  0  0  0  0  0  0  0  0  0
   59.1530   31.8000   48.3200 C   0  0  0  0  0  0  0  0  0  0  0  0
   58.9950   32.7660   47.2030 C   0  0  0  0  0  0  0  0  0  0  0  0
   57.9950   32.5110   46.2470 C   0  0  0  0  0  0  0  0  0  0  0  0
   57.7460   33.4200   45.2180 C   0  0  0  0  0  0  0  0  0  0  0  0
   58.4910   34.5920   45.1280 C   0  0  0  0  0  0  0  0  0  0  0  0
   59.5100   34.8480   46.0470 C   0  0  0  0  0  0  0  0  0  0  0  0
   59.7960   33.9360   47.0790 C   0  0  0  0  0  0  0  0  0  0  0  0
   60.9520   34.2170   47.9670 C   0  0  0  0  0  0  0  0  0  0  0  0
   62.1310   34.1870   47.5260 O   0  0  0  0  0  0  0  0  0  0  0  0
   60.7430   34.5620   49.2980 O   0  0  0  0  0  0  0  0  0  0  0  0
   57.9900   29.1550   45.1870 C   0  0  0  0  0  0  0  0  0  0  0  0
   56.7750   28.4630   45.2020 C   0  0  0  0  0  0  0  0  0  0  0  0
   56.8525   23.9585   45.6657 H   0  0  0  0  0  0  0  0  0  0  0  0
   55.7187   23.6961   44.2975 H   0  0  0  0  0  0  0  0  0  0  0  0
   56.8116   25.1216   44.2975 H   0  0  0  0  0  0  0  0  0  0  0  0
   57.6083   25.9333   47.3439 H   0  0  0  0  0  0  0  0  0  0  0  0
   59.7795   27.1549   47.3057 H   0  0  0  0  0  0  0  0  0  0  0  0
   60.5984   28.8106   49.2061 H   0  0  0  0  0  0  0  0  0  0  0  0
   59.3367   29.2745   51.3000 H   0  0  0  0  0  0  0  0  0  0  0  0
   57.9770   31.3527   51.5098 H   0  0  0  0  0  0  0  0  0  0  0  0
   57.8464   32.9571   49.6121 H   0  0  0  0  0  0  0  0  0  0  0  0
   57.4035   31.5858   46.3113 H   0  0  0  0  0  0  0  0  0  0  0  0
   56.9602   33.2100   44.4774 H   0  0  0  0  0  0  0  0  0  0  0  0
   58.2763   35.3186   44.3305 H   0  0  0  0  0  0  0  0  0  0  0  0
   60.0968   35.7746   45.9631 H   0  0  0  0  0  0  0  0  0  0  0  0
   58.1047   30.0489   44.5563 H   0  0  0  0  0  0  0  0  0  0  0  0
   55.9388   28.8134   44.5791 H   0  0  0  0  0  0  0  0  0  0  0  0
  1  2  1  0
  2  3  2  0
  2  4  1  0
  4  5  1  0
  5  6  2  0
  6  7  1  0
  7  8  2  0
  8  9  1  0
  9 10  1  0
 10 11  2  0
 10 12  1  0
 12 13  2  0
 13 14  1  0
 14 15  2  0
 15 16  1  0
 16 17  2  0
 17 18  1  0
 18 19  2  0
 19 20  1  0
 20 21  2  0
 21 22  1  0
 22 23  2  0
 23 24  1  0
 24 25  2  0
 24 26  1  0
  8 27  1  0
 27 28  2  0
 28  5  1  0
 17 12  1  0
 23 18  1  0
  1 29  1  0
  1 30  1  0
  1 31  1  0
  6 32  1  0
  7 33  1  0
 13 34  1  0
 14 35  1  0
 15 36  1  0
 16 37  1  0
 19 38  1  0
 20 39  1  0
 21 40  1  0
 22 41  1  0
 27 42  1  0
 28 43  1  0
M  CHG  3   4  -1   9  -1  26  -1
M  END
>  <UniqueID>  (5) 
5

>  <SMILES>  (5) 
CC(=O)[N-]c1ccc([N-]C(=O)c2ccccc2-c2ccccc2C(=O)[O-])cc1

>  <Energy>  (5) 
66.00184443880443

>  <Genealogy>  (5) 
CC(=O)[N-]c1ccc([N-]C(=O)c2ccccc2-c2ccccc2C(=O)[O-])cc1 (protonated)
CC(=O)[N-]c1ccc([N-]C(=O)c2ccccc2-c2ccccc2C(=O)[O-])cc1 (3D coordinates assigned)
CC(=O)[N-]c1ccc([N-]C(=O)c2ccccc2-c2ccccc2C(=O)[O-])cc1 (optimized conformer: 66.00184443880443 kcal/mol)

>  <smiles>  (5) 
CC(=O)Nc1ccc(NC(=O)c2ccccc2-c2ccccc2C(=O)O)cc1

>  <score_type>  (5) 
oracle

>  <origin>  (5) 
adg

>  <m_score__min__energy>  (5) 
-12.619999999999999

>  <m_primary>  (5) 
energy

$$$$
5:0
     RDKit          3D

 35 37  0  0  0  0  0  0  0  0999 V2000
   56.1490   27.4450   45.9900 O   0  0  0  0  0  0  0  0  0  0  0  0
   56.7030   28.2210   45.1690 C   0  0  0  0  0  0  0  0  0  0  0  0
   57.8300   27.6980   44.3220 C   0  0  0  0  0  0  0  0  0  0  0  0
   59.3150   28.7400   44.5140 S   0  0  0  0  0  0  0  0  0  0  0  0
   59.6810   28.1740   46.1810 C   0  0  0  0  0  0  0  0  0  0  0  0
   59.7520   26.8690   46.5080 N   0  0  0  0  0  0  0  0  0  0  0  0
   59.9360   26.9170   47.8450 C   0  0  0  0  0  0  0  0  0  0  0  0
   59.9700   28.1770   48.3170 N   0  0  0  0  0  0  0  0  0  0  0  0
   59.8200   28.9640   47.2670 N   0  0  0  0  0  0  0  0  0  0  0  0
   59.7760   30.3990   47.3460 C   0  0  0  0  0  0  0  0  0  0  0  0
   58.5930   31.0690   47.6960 C   0  0  0  0  0  0  0  0  0  0  0  0
   58.5700   32.4640   47.7740 C   0  0  0  0  0  0  0  0  0  0  0  0
   59.7190   33.2070   47.4910 C   0  0  0  0  0  0  0  0  0  0  0  0
   59.6510   34.9610   47.6040 Cl  0  0  0  0  0  0  0  0  0  0  0  0
   60.9010   32.5460   47.1150 C   0  0  0  0  0  0  0  0  0  0  0  0
   62.3680   33.4410   46.7420 Cl  0  0  0  0  0  0  0  0  0  0  0  0
   60.9210   31.1490   47.0350 C   0  0  0  0  0  0  0  0  0  0  0  0
   56.1590   29.5350   44.9860 N   0  0  0  0  0  0  0  0  0  0  0  0
   56.7440   30.5920   44.2150 C   0  0  0  0  0  0  0  0  0  0  0  0
   56.7380   30.5620   42.8100 C   0  0  0  0  0  0  0  0  0  0  0  0
   57.3390   31.5950   42.0830 C   0  0  0  0  0  0  0  0  0  0  0  0
   57.9640   32.6510   42.7520 C   0  0  0  0  0  0  0  0  0  0  0  0
   57.9990   32.6690   44.1500 C   0  0  0  0  0  0  0  0  0  0  0  0
   57.4020   31.6360   44.8780 C   0  0  0  0  0  0  0  0  0  0  0  0
   58.0676   26.6695   44.6315 H   0  0  0  0  0  0  0  0  0  0  0  0
   57.5185   27.7157   43.2672 H   0  0  0  0  0  0  0  0  0  0  0  0
   60.0460   26.0245   48.4786 H   0  0  0  0  0  0  0  0  0  0  0  0
   57.6803   30.4934   47.9097 H   0  0  0  0  0  0  0  0  0  0  0  0
   57.6417   32.9803   48.0599 H   0  0  0  0  0  0  0  0  0  0  0  0
   61.8424   30.6340   46.7256 H   0  0  0  0  0  0  0  0  0  0  0  0
   56.2598   29.7246   42.2809 H   0  0  0  0  0  0  0  0  0  0  0  0
   57.3197   31.5761   40.9833 H   0  0  0  0  0  0  0  0  0  0  0  0
   58.4281   33.4675   42.1793 H   0  0  0  0  0  0  0  0  0  0  0  0
   58.4966   33.4965   44.6769 H   0  0  0  0  0  0  0  0  0  0  0  0
   57.4491   31.6428   45.9770 H   0  0  0  0  0  0  0  0  0  0  0  0
  1  2  2  0
  2  3  1  0
  3  4  1  0
  4  5  1  0
  5  6  2  0
  6  7  1  0
  7  8  2  0
  8  9  1  0
  9 10  1  0
 10 11  2  0
 11 12  1  0
 12 13  2  0
 13 14  1  0
 13 15  1  0
 15 16  1  0
 15 17  2  0
  2 18  1  0
 18 19  1  0
 19 20  2  0
 20 21  1  0
 21 22  2  0
 22 23  1  0
 23 24  2  0
  9  5  1  0
 17 10  1  0
 24 19  1  0
  3 25  1  0
  3 26  1  0
  7 27  1  0
 11 28  1  0
 12 29  1  0
 17 30  1  0
 20 31  1  0
 21 32  1  0
 22 33  1  0
 23 34  1  0
 24 35  1  0
M  CHG  1  18  -1
M  END
>  <UniqueID>  (6) 
6

>  <SMILES>  (6) 
O=C(CSc1ncnn1-c1ccc(Cl)c(Cl)c1)[N-]c1ccccc1

>  <Energy>  (6) 
74.19309305106208

>  <Genealogy>  (6) 
O=C(CSc1ncnn1-c1ccc(Cl)c(Cl)c1)[N-]c1ccccc1 (protonated)
O=C(CSc1ncnn1-c1ccc(Cl)c(Cl)c1)[N-]c1ccccc1 (3D coordinates assigned)
O=C(CSc1ncnn1-c1ccc(Cl)c(Cl)c1)[N-]c1ccccc1 (optimized conformer: 74.19309305106208 kcal/mol)

>  <smiles>  (6) 
O=C(CSc1ncnn1-c1ccc(Cl)c(Cl)c1)Nc1ccccc1

>  <score_type>  (6) 
oracle

>  <origin>  (6) 
adg

>  <m_score__min__energy>  (6) 
-10.49

>  <m_primary>  (6) 
energy

$$$$
6:0
     RDKit          3D

 39 41  0  0  0  0  0  0  0  0999 V2000
   59.1910   26.8302   43.9051 H   0  0  0  0  0  0  0  0  0  0  0  0
   59.1670   27.6290   44.6610 C   0  0  0  0  0  0  0  0  0  0  0  0
   60.0660   28.6960   44.5800 C   0  0  0  0  0  0  0  0  0  0  0  0
   60.8020   28.7335   43.7633 H   0  0  0  0  0  0  0  0  0  0  0  0
   60.0310   29.7160   45.5360 C   0  0  0  0  0  0  0  0  0  0  0  0
   60.7474   30.5484   45.4732 H   0  0  0  0  0  0  0  0  0  0  0  0
   59.0900   29.6850   46.5730 C   0  0  0  0  0  0  0  0  0  0  0  0
   59.0980   30.7240   47.5160 O   0  0  0  0  0  0  0  0  0  0  0  0
   59.4910   32.0460   47.2650 C   0  0  0  0  0  0  0  0  0  0  0  0
   58.5950   32.9610   47.0170 N   0  0  0  0  0  0  0  0  0  0  0  0
   58.2030   33.6190   45.4560 S   0  0  0  0  0  0  0  0  0  0  0  0
   59.4020   34.3350   44.9000 O   0  0  0  0  0  0  0  0  0  0  0  0
   57.0820   34.6070   45.6110 O   0  0  0  0  0  0  0  0  0  0  0  0
   57.6710   32.3420   44.3640 C   0  0  0  0  0  0  0  0  0  0  0  0
   57.8580   32.4900   42.9830 C   0  0  0  0  0  0  0  0  0  0  0  0
   58.3721   33.3798   42.5906 H   0  0  0  0  0  0  0  0  0  0  0  0
   57.3920   31.5080   42.1030 C   0  0  0  0  0  0  0  0  0  0  0  0
   57.5386   31.6272   41.0193 H   0  0  0  0  0  0  0  0  0  0  0  0
   56.7400   30.3750   42.5990 C   0  0  0  0  0  0  0  0  0  0  0  0
   56.3719   29.6047   41.9054 H   0  0  0  0  0  0  0  0  0  0  0  0
   56.5560   30.2210   43.9750 C   0  0  0  0  0  0  0  0  0  0  0  0
   56.0437   29.3289   44.3644 H   0  0  0  0  0  0  0  0  0  0  0  0
   57.0230   31.2010   44.8590 C   0  0  0  0  0  0  0  0  0  0  0  0
   56.8816   31.0760   45.9427 H   0  0  0  0  0  0  0  0  0  0  0  0
   60.9360   32.3290   47.2190 C   0  0  0  0  0  0  0  0  0  0  0  0
   61.4090   33.5700   46.7660 C   0  0  0  0  0  0  0  0  0  0  0  0
   60.6968   34.3478   46.4535 H   0  0  0  0  0  0  0  0  0  0  0  0
   62.7830   33.8200   46.7110 C   0  0  0  0  0  0  0  0  0  0  0  0
   63.1510   34.7901   46.3456 H   0  0  0  0  0  0  0  0  0  0  0  0
   63.6900   32.8380   47.1200 C   0  0  0  0  0  0  0  0  0  0  0  0
   64.7715   33.0322   47.0678 H   0  0  0  0  0  0  0  0  0  0  0  0
   63.2230   31.6100   47.5950 C   0  0  0  0  0  0  0  0  0  0  0  0
   63.9373   30.8402   47.9223 H   0  0  0  0  0  0  0  0  0  0  0  0
   61.8490   31.3580   47.6550 C   0  0  0  0  0  0  0  0  0  0  0  0
   61.4836   30.3965   48.0448 H   0  0  0  0  0  0  0  0  0  0  0  0
   58.2000   28.5970   46.6610 C   0  0  0  0  0  0  0  0  0  0  0  0
   57.4733   28.5486   47.4853 H   0  0  0  0  0  0  0  0  0  0  0  0
   58.2370   27.5780   45.7040 C   0  0  0  0  0  0  0  0  0  0  0  0
   57.5335   26.7351   45.7718 H   0  0  0  0  0  0  0  0  0  0  0  0
  1  2  1  0
  2  3  2  0
  3  4  1  0
  3  5  1  0
  5  6  1  0
  5  7  2  0
  7  8  1  0
  8  9  1  0
  9 10  2  0
 10 11  1  0
 11 12  2  0
 11 13  2  0
 11 14  1  0
 14 15  2  0
 15 16  1  0
 15 17  1  0
 17 18  1  0
 17 19  2  0
 19 20  1  0
 19 21  1  0
 21 22  1  0
 21 23  2  0
 23 24  1  0
  9 25  1  0
 25 26  2  0
 26 27  1  0
 26 28  1  0
 28 29  1  0
 28 30  2  0
 30 31  1  0
 30 32  1  0
 32 33  1  0
 32 34  2  0
 34 35  1  0
  7 36  1  0
 36 37  1  0
 36 38  2  0
 38 39  1  0
 38  2  1  0
 23 14  1  0
 34 25  1  0
M  END
>  <UniqueID>  (7) 
7

>  <SMILES>  (7) 
O=S(=O)(/N=C(/Oc1ccccc1)c1ccccc1)c1ccccc1

>  <Energy>  (7) 
54.32217060580759

>  <Genealogy>  (7) 
O=S(=O)(/N=C(/Oc1ccccc1)c1ccccc1)c1ccccc1 (cis-trans isomerization)
O=S(=O)(/N=C(/Oc1ccccc1)c1ccccc1)c1ccccc1 (3D coordinates assigned)
O=S(=O)(/N=C(/Oc1ccccc1)c1ccccc1)c1ccccc1 (optimized conformer: 54.32217060580759 kcal/mol)

>  <smiles>  (7) 
O=S(=O)(N=C(Oc1ccccc1)c1ccccc1)c1ccccc1

>  <score_type>  (7) 
oracle

>  <origin>  (7) 
adg

>  <m_score__min__energy>  (7) 
-8.3200000000000003

>  <m_primary>  (7) 
energy

$$$$
7:0
     RDKit          3D

 30 32  0  0  0  0  0  0  0  0999 V2000
   57.3890   31.6350   42.2310 C   0  0  0  0  0  0  0  0  0  0  0  0
   56.8910   30.3100   42.3670 O   0  0  0  0  0  0  0  0  0  0  0  0
   56.3550   29.8240   43.5650 C   0  0  0  0  0  0  0  0  0  0  0  0
   55.1040   29.7090   43.6980 O   0  0  0  0  0  0  0  0  0  0  0  0
   57.2630   29.4140   44.6600 C   0  0  0  0  0  0  0  0  0  0  0  0
   57.2730   28.1290   45.0670 C   0  0  0  0  0  0  0  0  0  0  0  0
   58.2820   27.6350   46.0570 C   0  0  0  0  0  0  0  0  0  0  0  0
   59.9160   28.2340   45.5310 S   0  0  0  0  0  0  0  0  0  0  0  0
   59.4300   29.9650   45.7150 C   0  0  0  0  0  0  0  0  0  0  0  0
   58.2300   30.3940   45.2550 C   0  0  0  0  0  0  0  0  0  0  0  0
   57.8180   31.8080   45.4890 C   0  0  0  0  0  0  0  0  0  0  0  0
   56.6380   32.1750   45.2380 O   0  0  0  0  0  0  0  0  0  0  0  0
   58.7730   32.7760   46.0770 C   0  0  0  0  0  0  0  0  0  0  0  0
   58.4420   34.1370   46.2010 C   0  0  0  0  0  0  0  0  0  0  0  0
   59.3480   35.0330   46.7750 C   0  0  0  0  0  0  0  0  0  0  0  0
   60.5870   34.5800   47.2300 C   0  0  0  0  0  0  0  0  0  0  0  0
   60.9260   33.2300   47.1130 C   0  0  0  0  0  0  0  0  0  0  0  0
   60.0220   32.3200   46.5360 C   0  0  0  0  0  0  0  0  0  0  0  0
   60.3600   30.8860   46.4040 C   0  0  0  0  0  0  0  0  0  0  0  0
   61.4460   30.4460   46.8660 O   0  0  0  0  0  0  0  0  0  0  0  0
   57.5523   32.0695   43.2283 H   0  0  0  0  0  0  0  0  0  0  0  0
   58.3407   31.6142   41.6798 H   0  0  0  0  0  0  0  0  0  0  0  0
   56.6592   32.2462   41.6798 H   0  0  0  0  0  0  0  0  0  0  0  0
   56.5255   27.4298   44.6641 H   0  0  0  0  0  0  0  0  0  0  0  0
   58.0454   28.0240   47.0583 H   0  0  0  0  0  0  0  0  0  0  0  0
   58.2714   26.5359   46.1006 H   0  0  0  0  0  0  0  0  0  0  0  0
   57.4659   34.4979   45.8447 H   0  0  0  0  0  0  0  0  0  0  0  0
   59.0841   36.0968   46.8683 H   0  0  0  0  0  0  0  0  0  0  0  0
   61.2981   35.2874   47.6817 H   0  0  0  0  0  0  0  0  0  0  0  0
   61.9036   32.8773   47.4735 H   0  0  0  0  0  0  0  0  0  0  0  0
  1  2  1  0
  2  3  1  0
  3  4  2  0
  3  5  1  0
  5  6  2  0
  6  7  1  0
  7  8  1  0
  8  9  1  0
  9 10  2  0
 10 11  1  0
 11 12  2  0
 11 13  1  0
 13 14  2  0
 14 15  1  0
 15 16  2  0
 16 17  1  0
 17 18  2  0
 18 19  1  0
 19 20  2  0
 10  5  1  0
 18 13  1  0
 19  9  1  0
  1 21  1  0
  1 22  1  0
  1 23  1  0
  6 24  1  0
  7 25  1  0
  7 26  1  0
 14 27  1  0
 15 28  1  0
 16 29  1  0
 17 30  1  0
M  END
>  <UniqueID>  (8) 
8

>  <SMILES>  (8) 
COC(=O)C1=CCSC2=C1C(=O)c1ccccc1C2=O

>  <Energy>  (8) 
42.07850983831271

>  <Genealogy>  (8) 
COC(=O)C1=CCSC2=C1C(=O)c1ccccc1C2=O (3D coordinates assigned)
COC(=O)C1=CCSC2=C1C(=O)c1ccccc1C2=O (nonaromatic ring conformer: 42.07850983831271 kcal/mol)

>  <smiles>  (8) 
COC(=O)C1=CCSC2=C1C(=O)c1ccccc1C2=O

>  <score_type>  (8) 
oracle

>  <origin>  (8) 
adg

>  <m_score__min__energy>  (8) 
-7.5300000000000002

>  <m_primary>  (8) 
energy

$$$$
8:0
     RDKit          3D

 37 39  0  0  0  0  0  0  0  0999 V2000
   59.9100   31.0360   48.4420 O   0  0  0  0  0  0  0  0  0  0  0  0
   60.1890   31.9170   47.5840 C   0  0  0  0  0  0  0  0  0  0  0  0
   59.1080   32.4460   46.7290 C   0  0  0  0  0  0  0  0  0  0  0  0
   58.5710   33.7170   46.9840 C   0  0  0  0  0  0  0  0  0  0  0  0
   57.5360   34.2160   46.1890 C   0  0  0  0  0  0  0  0  0  0  0  0
   57.0210   33.4470   45.1420 C   0  0  0  0  0  0  0  0  0  0  0  0
   57.5350   32.1640   44.8880 C   0  0  0  0  0  0  0  0  0  0  0  0
   57.0270   31.3330   43.8360 N   0  0  0  0  0  0  0  0  0  0  0  0
   56.5250   29.6830   44.0200 S   0  0  0  0  0  0  0  0  0  0  0  0
   56.2780   29.0650   42.6720 O   0  0  0  0  0  0  0  0  0  0  0  0
   55.2720   29.6320   44.8490 O   0  0  0  0  0  0  0  0  0  0  0  0
   57.7930   28.7910   44.8370 C   0  0  0  0  0  0  0  0  0  0  0  0
   59.1290   28.7670   44.4710 C   0  0  0  0  0  0  0  0  0  0  0  0
   59.9080   27.9550   45.3040 C   0  0  0  0  0  0  0  0  0  0  0  0
   59.1840   27.3430   46.3200 C   0  0  0  0  0  0  0  0  0  0  0  0
   57.5730   27.8090   46.1820 S   0  0  0  0  0  0  0  0  0  0  0  0
   58.5710   31.6690   45.6900 C   0  0  0  0  0  0  0  0  0  0  0  0
   61.5450   32.3870   47.4640 N   0  0  0  0  0  0  0  0  0  0  0  0
   62.6760   31.6610   48.0170 C   0  0  0  0  0  0  0  0  0  0  0  0
   63.8350   32.6490   48.0390 C   0  0  0  0  0  0  0  0  0  0  0  0
   63.4160   33.8110   47.1430 C   0  0  0  0  0  0  0  0  0  0  0  0
   61.9000   33.7300   47.0320 C   0  0  0  0  0  0  0  0  0  0  0  0
   58.9663   34.3227   47.8128 H   0  0  0  0  0  0  0  0  0  0  0  0
   57.1254   35.2169   46.3878 H   0  0  0  0  0  0  0  0  0  0  0  0
   56.2108   33.8472   44.5148 H   0  0  0  0  0  0  0  0  0  0  0  0
   59.5350   29.3271   43.6158 H   0  0  0  0  0  0  0  0  0  0  0  0
   60.9904   27.8148   45.1672 H   0  0  0  0  0  0  0  0  0  0  0  0
   59.5947   26.6679   47.0853 H   0  0  0  0  0  0  0  0  0  0  0  0
   58.9684   30.6603   45.5039 H   0  0  0  0  0  0  0  0  0  0  0  0
   62.4479   31.3159   49.0362 H   0  0  0  0  0  0  0  0  0  0  0  0
   62.9159   30.7699   47.4184 H   0  0  0  0  0  0  0  0  0  0  0  0
   64.0155   33.0033   49.0646 H   0  0  0  0  0  0  0  0  0  0  0  0
   64.7670   32.1839   47.6853 H   0  0  0  0  0  0  0  0  0  0  0  0
   63.7156   34.7686   47.5939 H   0  0  0  0  0  0  0  0  0  0  0  0
   63.8960   33.7513   46.1551 H   0  0  0  0  0  0  0  0  0  0  0  0
   61.4271   34.4799   47.6832 H   0  0  0  0  0  0  0  0  0  0  0  0
   61.5567   33.9307   46.0064 H   0  0  0  0  0  0  0  0  0  0  0  0
  1  2  2  0
  2  3  1  0
  3  4  2  0
  4  5  1  0
  5  6  2  0
  6  7  1  0
  7  8  1  0
  8  9  1  0
  9 10  2  0
  9 11  2  0
  9 12  1  0
 12 13  2  0
 13 14  1  0
 14 15  2  0
 15 16  1  0
  7 17  2  0
  2 18  1  0
 18 19  1  0
 19 20  1  0
 20 21  1  0
 21 22  1  0
 17  3  1  0
 22 18  1  0
 16 12  1  0
  4 23  1  0
  5 24  1  0
  6 25  1  0
 13 26  1  0
 14 27  1  0
 15 28  1  0
 17 29  1  0
 19 30  1  0
 19 31  1  0
 20 32  1  0
 20 33  1  0
 21 34  1  0
 21 35  1  0
 22 36  1  0
 22 37  1  0
M  CHG  1   8  -1
M  END
>  <UniqueID>  (9) 
9

>  <SMILES>  (9) 
O=C(c1cccc([N-]S(=O)(=O)c2cccs2)c1)N1CCCC1

>  <Energy>  (9) 
72.64150590539036

>  <Genealogy>  (9) 
O=C(c1cccc([N-]S(=O)(=O)c2cccs2)c1)N1CCCC1 (protonated)
O=C(c1cccc([N-]S(=O)(=O)c2cccs2)c1)N1CCCC1 (3D coordinates assigned)
O=C(c1cccc([N-]S(=O)(=O)c2cccs2)c1)N1CCCC1 (nonaromatic ring conformer: 72.64150590539036 kcal/mol)

>  <smiles>  (9) 
O=C(c1cccc(NS(=O)(=O)c2cccs2)c1)N1CCCC1

>  <score_type>  (9) 
oracle

>  <origin>  (9) 
adg

>  <m_score__min__energy>  (9) 
-9.9600000000000009

>  <m_primary>  (9) 
energy

$$$$
9:0
     RDKit          3D

 32 32  0  0  0  0  0  0  0  0999 V2000
   57.7640   31.9700   42.0900 C   0  0  0  0  0  0  0  0  0  0  0  0
   56.7020   30.8850   42.2280 C   0  0  0  0  0  0  0  0  0  0  0  0
   57.1150   29.8830   43.2060 N   0  0  0  0  0  0  0  0  0  0  0  0
   56.4390   29.7030   44.4580 C   0  0  0  0  0  0  0  0  0  0  0  0
   55.3210   30.2490   44.6560 O   0  0  0  0  0  0  0  0  0  0  0  0
   56.9950   28.8640   45.4770 N   0  0  0  0  0  0  0  0  0  0  0  0
   58.3950   28.7850   45.7950 C   0  0  0  0  0  0  0  0  0  0  0  0
   58.8210   27.7420   46.3610 O   0  0  0  0  0  0  0  0  0  0  0  0
   59.3560   29.9290   45.4990 C   0  0  2  0  0  0  0  0  0  0  0  0
   60.7690   29.6560   46.0360 C   0  0  0  0  0  0  0  0  0  0  0  0
   58.8460   31.2410   46.0630 C   0  0  0  0  0  0  0  0  0  0  0  0
   58.8910   31.5000   47.4470 C   0  0  0  0  0  0  0  0  0  0  0  0
   58.4200   32.7150   47.9540 C   0  0  0  0  0  0  0  0  0  0  0  0
   57.9070   33.6830   47.0880 C   0  0  0  0  0  0  0  0  0  0  0  0
   57.8690   33.4430   45.7130 C   0  0  0  0  0  0  0  0  0  0  0  0
   57.3730   34.3860   44.8740 F   0  0  0  0  0  0  0  0  0  0  0  0
   58.3420   32.2310   45.2000 C   0  0  0  0  0  0  0  0  0  0  0  0
   58.0851   32.2980   43.0896 H   0  0  0  0  0  0  0  0  0  0  0  0
   58.6284   31.5692   41.5404 H   0  0  0  0  0  0  0  0  0  0  0  0
   57.3447   32.8257   41.5404 H   0  0  0  0  0  0  0  0  0  0  0  0
   55.7576   31.3433   42.5568 H   0  0  0  0  0  0  0  0  0  0  0  0
   56.5676   30.3943   41.2527 H   0  0  0  0  0  0  0  0  0  0  0  0
   57.9320   29.2750   42.9760 H   0  0  0  0  0  0  0  0  0  0  0  0
   56.3320   28.3150   46.0700 H   0  0  0  0  0  0  0  0  0  0  0  0
   59.4127   30.0051   44.4031 H   0  0  0  0  0  0  0  0  0  0  0  0
   60.7503   29.6596   47.1358 H   0  0  0  0  0  0  0  0  0  0  0  0
   61.1139   28.6746   45.6784 H   0  0  0  0  0  0  0  0  0  0  0  0
   61.4547   30.4383   45.6784 H   0  0  0  0  0  0  0  0  0  0  0  0
   59.2988   30.7424   48.1324 H   0  0  0  0  0  0  0  0  0  0  0  0
   58.4536   32.9086   49.0363 H   0  0  0  0  0  0  0  0  0  0  0  0
   57.5323   34.6360   47.4897 H   0  0  0  0  0  0  0  0  0  0  0  0
   58.3198   32.0507   44.1151 H   0  0  0  0  0  0  0  0  0  0  0  0
  1  2  1  0
  2  3  1  0
  3  4  1  0
  4  5  2  0
  4  6  1  0
  6  7  1  0
  7  8  2  0
  7  9  1  0
  9 10  1  0
  9 11  1  0
 11 12  2  0
 12 13  1  0
 13 14  2  0
 14 15  1  0
 15 16  1  0
 15 17  2  0
 17 11  1  0
  1 18  1  0
  1 19  1  0
  1 20  1  0
  2 21  1  0
  2 22  1  0
  3 23  1  0
  6 24  1  0
  9 25  1  6
 10 26  1  0
 10 27  1  0
 10 28  1  0
 12 29  1  0
 13 30  1  0
 14 31  1  0
 17 32  1  0
M  END
>  <UniqueID>  (10) 
10

>  <SMILES>  (10) 
CCNC(=O)NC(=O)[C@H](C)c1cccc(F)c1

>  <Energy>  (10) 
27.22038626252206

>  <Genealogy>  (10) 
CCNC(=O)NC(=O)[C@H](C)c1cccc(F)c1 (chirality)
CCNC(=O)NC(=O)[C@H](C)c1cccc(F)c1 (3D coordinates assigned)
CCNC(=O)NC(=O)[C@H](C)c1cccc(F)c1 (optimized conformer: 27.22038626252206 kcal/mol)

>  <smiles>  (10) 
CCNC(=O)NC(=O)C(C)c1cccc(F)c1

>  <score_type>  (10) 
oracle

>  <origin>  (10) 
adg

>  <m_score__min__energy>  (10) 
-6.0199999999999996

>  <m_primary>  (10) 
energy

$$$$
10:0
     RDKit          3D

 60 63  0  0  0  0  0  0  0  0999 V2000
   63.1620   29.7220   51.5490 C   0  0  0  0  0  0  0  0  0  0  0  0
   62.4610   30.1710   50.3950 O   0  0  0  0  0  0  0  0  0  0  0  0
   62.8080   31.3050   49.6400 C   0  0  0  0  0  0  0  0  0  0  0  0
   64.0920   31.8810   49.7230 C   0  0  0  0  0  0  0  0  0  0  0  0
   64.4180   32.9970   48.9510 C   0  0  0  0  0  0  0  0  0  0  0  0
   63.4780   33.5450   48.0820 C   0  0  0  0  0  0  0  0  0  0  0  0
   62.2010   32.9880   47.9900 C   0  0  0  0  0  0  0  0  0  0  0  0
   61.8440   31.8780   48.7770 C   0  0  0  0  0  0  0  0  0  0  0  0
   60.4460   31.2880   48.6630 C   0  0  0  0  0  0  0  0  0  0  0  0
   60.4090   29.8550   48.2580 N   0  0  1  0  0  0  0  0  0  0  0  0
   59.1920   29.1780   48.7670 C   0  0  0  0  0  0  0  0  0  0  0  0
   58.9830   27.7690   48.1960 C   0  0  0  0  0  0  0  0  0  0  0  0
   58.2480   27.7910   46.9790 O   0  0  0  0  0  0  0  0  0  0  0  0
   58.2240   28.8880   46.1080 C   0  0  0  0  0  0  0  0  0  0  0  0
   57.1040   29.0340   45.2840 C   0  0  0  0  0  0  0  0  0  0  0  0
   56.9790   30.1340   44.4380 C   0  0  0  0  0  0  0  0  0  0  0  0
   57.9720   31.1230   44.4080 C   0  0  0  0  0  0  0  0  0  0  0  0
   57.8280   32.3360   43.5110 C   0  0  0  0  0  0  0  0  0  0  0  0
   57.9420   33.6270   44.2250 N   0  0  0  0  0  0  0  0  0  0  0  0
   59.3340   33.9990   44.5620 C   0  0  0  0  0  0  0  0  0  0  0  0
   59.3620   35.1800   45.5410 C   0  0  0  0  0  0  0  0  0  0  0  0
   58.6650   34.8690   46.8160 N   0  0  0  0  0  0  0  0  0  0  0  0
   59.6230   34.5650   47.8890 C   0  0  0  0  0  0  0  0  0  0  0  0
   57.6600   33.7870   46.7030 C   0  0  0  0  0  0  0  0  0  0  0  0
   56.9730   33.8080   45.3320 C   0  0  0  0  0  0  0  0  0  0  0  0
   59.1260   30.9510   45.1880 C   0  0  0  0  0  0  0  0  0  0  0  0
   59.2800   29.8320   46.0280 C   0  0  0  0  0  0  0  0  0  0  0  0
   60.5860   29.6740   46.7930 C   0  0  0  0  0  0  0  0  0  0  0  0
   62.6344   30.0599   52.4531 H   0  0  0  0  0  0  0  0  0  0  0  0
   63.2123   28.6232   51.5430 H   0  0  0  0  0  0  0  0  0  0  0  0
   64.1812   30.1358   51.5430 H   0  0  0  0  0  0  0  0  0  0  0  0
   64.8422   31.4478   50.4010 H   0  0  0  0  0  0  0  0  0  0  0  0
   65.4197   33.4447   49.0292 H   0  0  0  0  0  0  0  0  0  0  0  0
   63.7419   34.4180   47.4671 H   0  0  0  0  0  0  0  0  0  0  0  0
   61.4667   33.4215   47.2951 H   0  0  0  0  0  0  0  0  0  0  0  0
   59.9536   31.3806   49.6422 H   0  0  0  0  0  0  0  0  0  0  0  0
   59.9342   31.8501   47.8679 H   0  0  0  0  0  0  0  0  0  0  0  0
   61.2310   29.4240   48.7470 H   0  0  0  0  0  0  0  0  0  0  0  0
   59.2701   29.1007   49.8615 H   0  0  0  0  0  0  0  0  0  0  0  0
   58.3310   29.7840   48.4484 H   0  0  0  0  0  0  0  0  0  0  0  0
   59.9660   27.3122   48.0090 H   0  0  0  0  0  0  0  0  0  0  0  0
   58.4069   27.1868   48.9303 H   0  0  0  0  0  0  0  0  0  0  0  0
   56.3118   28.2711   45.3038 H   0  0  0  0  0  0  0  0  0  0  0  0
   56.0954   30.2270   43.7895 H   0  0  0  0  0  0  0  0  0  0  0  0
   58.6146   32.2943   42.7432 H   0  0  0  0  0  0  0  0  0  0  0  0
   56.8160   32.2971   43.0816 H   0  0  0  0  0  0  0  0  0  0  0  0
   59.8359   33.1360   45.0239 H   0  0  0  0  0  0  0  0  0  0  0  0
   59.8527   34.2951   43.6383 H   0  0  0  0  0  0  0  0  0  0  0  0
   60.4097   35.4319   45.7623 H   0  0  0  0  0  0  0  0  0  0  0  0
   58.8388   36.0237   45.0673 H   0  0  0  0  0  0  0  0  0  0  0  0
   59.1405   34.7181   48.8656 H   0  0  0  0  0  0  0  0  0  0  0  0
   59.9510   33.5186   47.8021 H   0  0  0  0  0  0  0  0  0  0  0  0
   60.4943   35.2308   47.8021 H   0  0  0  0  0  0  0  0  0  0  0  0
   58.1606   32.8169   46.8385 H   0  0  0  0  0  0  0  0  0  0  0  0
   56.8947   33.9406   47.4781 H   0  0  0  0  0  0  0  0  0  0  0  0
   56.2326   32.9954   45.2928 H   0  0  0  0  0  0  0  0  0  0  0  0
   56.4921   34.7893   45.2068 H   0  0  0  0  0  0  0  0  0  0  0  0
   59.9255   31.7051   45.1420 H   0  0  0  0  0  0  0  0  0  0  0  0
   60.9848   28.6658   46.6071 H   0  0  0  0  0  0  0  0  0  0  0  0
   61.2784   30.4523   46.4397 H   0  0  0  0  0  0  0  0  0  0  0  0
  1  2  1  0
  2  3  1  0
  3  4  2  0
  4  5  1  0
  5  6  2  0
  6  7  1  0
  7  8  2  0
  8  9  1  0
  9 10  1  0
 10 11  1  0
 11 12  1  0
 12 13  1  0
 13 14  1  0
 14 15  2  0
 15 16  1  0
 16 17  2  0
 17 18  1  0
 18 19  1  0
 19 20  1  0
 20 21  1  0
 21 22  1  0
 22 23  1  0
 22 24  1  0
 24 25  1  0
 17 26  1  0
 26 27  2  0
 27 28  1  0
  8  3  1  0
 28 10  1  0
 27 14  1  0
 25 19  1  0
  1 29  1  0
  1 30  1  0
  1 31  1  0
  4 32  1  0
  5 33  1  0
  6 34  1  0
  7 35  1  0
  9 36  1  0
  9 37  1  0
 10 38  1  1
 11 39  1  0
 11 40  1  0
 12 41  1  0
 12 42  1  0
 15 43  1  0
 16 44  1  0
 18 45  1  0
 18 46  1  0
 20 47  1  0
 20 48  1  0
 21 49  1  0
 21 50  1  0
 23 51  1  0
 23 52  1  0
 23 53  1  0
 24 54  1  0
 24 55  1  0
 25 56  1  0
 25 57  1  0
 26 58  1  0
 28 59  1  0
 28 60  1  0
M  CHG  1  10   1
M  END
>  <UniqueID>  (11) 
11

>  <SMILES>  (11) 
COc1ccccc1C[N@H+]1CCOc2ccc(CN3CCN(C)CC3)cc2C1

>  <Energy>  (11) 
91.2414105854946

>  <Genealogy>  (11) 
COc1ccccc1C[NH+]1CCOc2ccc(CN3CCN(C)CC3)cc2C1 (protonated)
COc1ccccc1C[N@H+]1CCOc2ccc(CN3CCN(C)CC3)cc2C1 (chirality)
COc1ccccc1C[N@H+]1CCOc2ccc(CN3CCN(C)CC3)cc2C1 (3D coordinates assigned)
COc1ccccc1C[N@H+]1CCOc2ccc(CN3CCN(C)CC3)cc2C1 (nonaromatic ring conformer: 91.2414105854946 kcal/mol)

>  <smiles>  (11) 
COc1ccccc1CN1CCOc2ccc(CN3CCN(C)CC3)cc2C1

>  <score_type>  (11) 
oracle

>  <origin>  (11) 
adg

>  <m_score__min__energy>  (11) 
-5.1500000000000004

>  <m_primary>  (11) 
energy

$$$$
11:0
     RDKit          3D

 38 39  0  0  0  0  0  0  0  0999 V2000
   63.2200   33.7170   46.7530 C   0  0  0  0  0  0  0  0  0  0  0  0
   62.8360   32.2950   47.1470 C   0  0  0  0  0  0  0  0  0  0  0  0
   61.4210   32.2290   47.5410 N   0  0  0  0  0  0  0  0  0  0  0  0
   60.7150   33.4600   47.9280 C   0  0  0  0  0  0  0  0  0  0  0  0
   59.5680   33.7150   46.9900 C   0  0  0  0  0  0  0  0  0  0  0  0
   58.2690   33.2910   47.3170 C   0  0  0  0  0  0  0  0  0  0  0  0
   57.2120   33.5110   46.4290 C   0  0  0  0  0  0  0  0  0  0  0  0
   57.4440   34.1480   45.2080 C   0  0  0  0  0  0  0  0  0  0  0  0
   58.7350   34.5610   44.8700 C   0  0  0  0  0  0  0  0  0  0  0  0
   59.7960   34.3420   45.7530 C   0  0  0  0  0  0  0  0  0  0  0  0
   60.7200   30.9620   47.5430 C   0  0  0  0  0  0  0  0  0  0  0  0
   59.8020   30.5360   48.8400 S   0  0  0  0  0  0  0  0  0  0  0  0
   60.7470   30.1020   46.3860 N   0  0  0  0  0  0  0  0  0  0  0  0
   59.3990   29.8120   45.9670 C   0  0  0  0  0  0  0  0  0  0  0  0
   58.7760   28.6110   46.3580 C   0  0  0  0  0  0  0  0  0  0  0  0
   57.4650   28.3340   45.9640 C   0  0  0  0  0  0  0  0  0  0  0  0
   56.7600   29.2500   45.1780 C   0  0  0  0  0  0  0  0  0  0  0  0
   55.4850   28.9830   44.8040 F   0  0  0  0  0  0  0  0  0  0  0  0
   57.3650   30.4480   44.7890 C   0  0  0  0  0  0  0  0  0  0  0  0
   58.6780   30.7310   45.1820 C   0  0  0  0  0  0  0  0  0  0  0  0
   63.3822   34.3177   47.6601 H   0  0  0  0  0  0  0  0  0  0  0  0
   64.1445   33.6955   46.1573 H   0  0  0  0  0  0  0  0  0  0  0  0
   62.4103   34.1638   46.1573 H   0  0  0  0  0  0  0  0  0  0  0  0
   63.0040   31.6252   46.2908 H   0  0  0  0  0  0  0  0  0  0  0  0
   63.4558   31.9852   48.0013 H   0  0  0  0  0  0  0  0  0  0  0  0
   60.3298   33.3516   48.9526 H   0  0  0  0  0  0  0  0  0  0  0  0
   61.4152   34.3070   47.8788 H   0  0  0  0  0  0  0  0  0  0  0  0
   58.0830   32.7840   48.2753 H   0  0  0  0  0  0  0  0  0  0  0  0
   56.1960   33.1819   46.6924 H   0  0  0  0  0  0  0  0  0  0  0  0
   56.6102   34.3245   44.5125 H   0  0  0  0  0  0  0  0  0  0  0  0
   58.9169   35.0598   43.9066 H   0  0  0  0  0  0  0  0  0  0  0  0
   60.8124   34.6613   45.4790 H   0  0  0  0  0  0  0  0  0  0  0  0
   61.2370   29.2050   46.6140 H   0  0  0  0  0  0  0  0  0  0  0  0
   61.2900   30.5470   45.6140 H   0  0  0  0  0  0  0  0  0  0  0  0
   59.3253   27.8867   46.9775 H   0  0  0  0  0  0  0  0  0  0  0  0
   56.9863   27.3930   46.2729 H   0  0  0  0  0  0  0  0  0  0  0  0
   56.8084   31.1697   44.1730 H   0  0  0  0  0  0  0  0  0  0  0  0
   59.1490   31.6767   44.8757 H   0  0  0  0  0  0  0  0  0  0  0  0
  1  2  1  0
  2  3  1  0
  3  4  1  0
  4  5  1  0
  5  6  2  0
  6  7  1  0
  7  8  2  0
  8  9  1  0
  9 10  2  0
  3 11  1  0
 11 12  2  0
 11 13  1  0
 13 14  1  0
 14 15  2  0
 15 16  1  0
 16 17  2  0
 17 18  1  0
 17 19  1  0
 19 20  2  0
 10  5  1  0
 20 14  1  0
  1 21  1  0
  1 22  1  0
  1 23  1  0
  2 24  1  0
  2 25  1  0
  4 26  1  0
  4 27  1  0
  6 28  1  0
  7 29  1  0
  8 30  1  0
  9 31  1  0
 10 32  1  0
 13 33  1  0
 13 34  1  0
 15 35  1  0
 16 36  1  0
 19 37  1  0
 20 38  1  0
M  CHG  1  13   1
M  END
>  <UniqueID>  (12) 
12

>  <SMILES>  (12) 
CCN(Cc1ccccc1)C(=S)[NH2+]c1ccc(F)cc1

>  <Energy>  (12) 
33.28569792796477

>  <Genealogy>  (12) 
CCN(Cc1ccccc1)C(=S)[NH2+]c1ccc(F)cc1 (protonated)
CCN(Cc1ccccc1)C(=S)[NH2+]c1ccc(F)cc1 (3D coordinates assigned)
CCN(Cc1ccccc1)C(=S)[NH2+]c1ccc(F)cc1 (optimized conformer: 33.28569792796477 kcal/mol)

>  <smiles>  (12) 
CCN(Cc1ccccc1)C(=S)Nc1ccc(F)cc1

>  <score_type>  (12) 
oracle

>  <origin>  (12) 
adg

>  <m_score__min__energy>  (12) 
-5.7400000000000002

>  <m_primary>  (12) 
energy

$$$$
12:0
     RDKit          3D

 59 62  0  0  0  0  0  0  0  0999 V2000
   62.7910   33.6020   47.8680 C   0  0  0  0  0  0  0  0  0  0  0  0
   61.4830   33.2130   48.2750 O   0  0  0  0  0  0  0  0  0  0  0  0
   60.8150   32.0720   47.8070 C   0  0  0  0  0  0  0  0  0  0  0  0
   61.4840   31.0190   47.1550 C   0  0  0  0  0  0  0  0  0  0  0  0
   60.7730   29.9030   46.7040 C   0  0  0  0  0  0  0  0  0  0  0  0
   59.3810   29.8280   46.8810 C   0  0  0  0  0  0  0  0  0  0  0  0
   58.6170   28.6490   46.4210 C   0  0  0  0  0  0  0  0  0  0  0  0
   58.5450   27.5130   47.1490 N   0  0  0  0  0  0  0  0  0  0  0  0
   57.8360   26.6640   46.3790 C   0  0  0  0  0  0  0  0  0  0  0  0
   57.5220   25.2810   46.7740 C   0  0  0  0  0  0  0  0  0  0  0  0
   58.4250   24.4040   46.7000 O   0  0  0  0  0  0  0  0  0  0  0  0
   56.2130   24.9210   47.2420 N   0  0  0  0  0  0  0  0  0  0  0  0
   55.7970   23.5300   47.4130 C   0  0  0  0  0  0  0  0  0  0  0  0
   54.6470   23.1790   46.4580 C   0  0  0  0  0  0  0  0  0  0  0  0
   55.1520   22.6750   45.1630 N   0  0  0  0  0  0  0  0  0  0  0  0
   56.1680   21.6150   45.3490 C   0  0  0  0  0  0  0  0  0  0  0  0
   56.9120   21.3170   44.0320 C   0  0  0  0  0  0  0  0  0  0  0  0
   56.2040   21.8400   42.9280 O   0  0  0  0  0  0  0  0  0  0  0  0
   56.1960   23.2560   42.9940 C   0  0  0  0  0  0  0  0  0  0  0  0
   55.7150   23.7780   44.3640 C   0  0  0  0  0  0  0  0  0  0  0  0
   57.4900   27.2870   45.1970 C   0  0  0  0  0  0  0  0  0  0  0  0
   57.9770   28.5410   45.2290 N   0  0  0  0  0  0  0  0  0  0  0  0
   57.7370   29.5510   44.2350 C   0  0  0  0  0  0  0  0  0  0  0  0
   56.7730   29.3540   43.2320 C   0  0  0  0  0  0  0  0  0  0  0  0
   56.5480   30.3370   42.2650 C   0  0  0  0  0  0  0  0  0  0  0  0
   57.2820   31.5320   42.2850 C   0  0  0  0  0  0  0  0  0  0  0  0
   57.0680   32.5700   41.2240 C   0  0  0  0  0  0  0  0  0  0  0  0
   58.2700   31.7160   43.2660 C   0  0  0  0  0  0  0  0  0  0  0  0
   58.4940   30.7330   44.2340 C   0  0  0  0  0  0  0  0  0  0  0  0
   58.7200   30.8690   47.5510 C   0  0  0  0  0  0  0  0  0  0  0  0
   59.4320   31.9840   48.0030 C   0  0  0  0  0  0  0  0  0  0  0  0
   63.4119   33.7867   48.7570 H   0  0  0  0  0  0  0  0  0  0  0  0
   63.2418   32.7990   47.2663 H   0  0  0  0  0  0  0  0  0  0  0  0
   62.7297   34.5208   47.2663 H   0  0  0  0  0  0  0  0  0  0  0  0
   62.5716   31.0745   46.9996 H   0  0  0  0  0  0  0  0  0  0  0  0
   61.3063   29.0788   46.2077 H   0  0  0  0  0  0  0  0  0  0  0  0
   55.5270   25.6680   47.4900 H   0  0  0  0  0  0  0  0  0  0  0  0
   56.6522   22.8704   47.2042 H   0  0  0  0  0  0  0  0  0  0  0  0
   55.4484   23.3927   48.4472 H   0  0  0  0  0  0  0  0  0  0  0  0
   54.0202   22.4040   46.9232 H   0  0  0  0  0  0  0  0  0  0  0  0
   54.0646   24.0928   46.2690 H   0  0  0  0  0  0  0  0  0  0  0  0
   56.8956   21.9445   46.1053 H   0  0  0  0  0  0  0  0  0  0  0  0
   55.6572   20.6971   45.6753 H   0  0  0  0  0  0  0  0  0  0  0  0
   57.9110   21.7758   44.0702 H   0  0  0  0  0  0  0  0  0  0  0  0
   56.9963   20.2267   43.9130 H   0  0  0  0  0  0  0  0  0  0  0  0
   57.2170   23.6238   42.8144 H   0  0  0  0  0  0  0  0  0  0  0  0
   55.4951   23.6235   42.2300 H   0  0  0  0  0  0  0  0  0  0  0  0
   56.5662   24.2191   44.9034 H   0  0  0  0  0  0  0  0  0  0  0  0
   54.9357   24.5376   44.2038 H   0  0  0  0  0  0  0  0  0  0  0  0
   56.9166   26.8372   44.3731 H   0  0  0  0  0  0  0  0  0  0  0  0
   56.1920   28.4203   43.2079 H   0  0  0  0  0  0  0  0  0  0  0  0
   55.7912   30.1729   41.4838 H   0  0  0  0  0  0  0  0  0  0  0  0
   56.8675   33.5424   41.6975 H   0  0  0  0  0  0  0  0  0  0  0  0
   57.9694   32.6458   40.5981 H   0  0  0  0  0  0  0  0  0  0  0  0
   56.2101   32.2831   40.5981 H   0  0  0  0  0  0  0  0  0  0  0  0
   58.8702   32.6378   43.2726 H   0  0  0  0  0  0  0  0  0  0  0  0
   59.2684   30.8866   44.9999 H   0  0  0  0  0  0  0  0  0  0  0  0
   57.6351   30.8073   47.7216 H   0  0  0  0  0  0  0  0  0  0  0  0
   58.9009   32.7988   48.5169 H   0  0  0  0  0  0  0  0  0  0  0  0
  1  2  1  0
  2  3  1  0
  3  4  2  0
  4  5  1  0
  5  6  2  0
  6  7  1  0
  7  8  2  0
  8  9  1  0
  9 10  1  0
 10 11  2  0
 10 12  1  0
 12 13  1  0
 13 14  1  0
 14 15  1  0
 15 16  1  0
 16 17  1  0
 17 18  1  0
 18 19  1  0
 19 20  1  0
  9 21  2  0
 21 22  1  0
 22 23  1  0
 23 24  2  0
 24 25  1  0
 25 26  2  0
 26 27  1  0
 26 28  1  0
 28 29  2  0
  6 30  1  0
 30 31  2  0
 31  3  1  0
 22  7  1  0
 29 23  1  0
 20 15  1  0
  1 32  1  0
  1 33  1  0
  1 34  1  0
  4 35  1  0
  5 36  1  0
 12 37  1  0
 13 38  1  0
 13 39  1  0
 14 40  1  0
 14 41  1  0
 16 42  1  0
 16 43  1  0
 17 44  1  0
 17 45  1  0
 19 46  1  0
 19 47  1  0
 20 48  1  0
 20 49  1  0
 21 50  1  0
 24 51  1  0
 25 52  1  0
 27 53  1  0
 27 54  1  0
 27 55  1  0
 28 56  1  0
 29 57  1  0
 30 58  1  0
 31 59  1  0
M  END
>  <UniqueID>  (13) 
13

>  <SMILES>  (13) 
COc1ccc(-c2nc(C(=O)NCCN3CCOCC3)cn2-c2ccc(C)cc2)cc1

>  <Energy>  (13) 
103.89929286990404

>  <Genealogy>  (13) 
COc1ccc(-c2nc(C(=O)NCCN3CCOCC3)cn2-c2ccc(C)cc2)cc1 (3D coordinates assigned)
COc1ccc(-c2nc(C(=O)NCCN3CCOCC3)cn2-c2ccc(C)cc2)cc1 (nonaromatic ring conformer: 103.89929286990404 kcal/mol)

>  <smiles>  (13) 
COc1ccc(-c2nc(C(=O)NCCN3CCOCC3)cn2-c2ccc(C)cc2)cc1

>  <score_type>  (13) 
oracle

>  <origin>  (13) 
adg

>  <m_score__min__energy>  (13) 
-7.8899999999999997

>  <m_primary>  (13) 
energy

$$$$
13:0
     RDKit          3D

 59 62  0  0  0  0  0  0  0  0999 V2000
   56.5940   23.6190   43.2790 C   0  0  0  0  0  0  0  0  0  0  0  0
   57.0020   23.4870   44.7420 C   0  0  0  0  0  0  0  0  0  0  0  0
   58.1450   24.3920   45.0160 N   0  0  0  0  0  0  0  0  0  0  0  0
   59.3030   23.6570   45.5840 C   0  0  0  0  0  0  0  0  0  0  0  0
   59.6220   22.3350   44.8730 C   0  0  0  0  0  0  0  0  0  0  0  0
   57.7490   25.6400   45.7240 C   0  0  0  0  0  0  0  0  0  0  0  0
   57.4500   26.8340   44.7770 C   0  0  2  0  0  0  0  0  0  0  0  0
   58.6970   27.3320   43.9920 C   0  0  0  0  0  0  0  0  0  0  0  0
   59.1310   28.7410   44.4060 C   0  0  0  0  0  0  0  0  0  0  0  0
   57.9900   29.7650   44.1990 C   0  0  2  0  0  0  0  0  0  0  0  0
   58.3050   31.0640   44.9060 C   0  0  0  0  0  0  0  0  0  0  0  0
   57.4920   32.2030   44.7590 C   0  0  0  0  0  0  0  0  0  0  0  0
   57.8050   33.3440   45.4260 N   0  0  0  0  0  0  0  0  0  0  0  0
   58.8940   33.4080   46.2350 C   0  0  0  0  0  0  0  0  0  0  0  0
   59.2120   34.5780   46.9220 C   0  0  0  0  0  0  0  0  0  0  0  0
   60.3360   34.6080   47.7480 C   0  0  0  0  0  0  0  0  0  0  0  0
   61.1390   33.4610   47.8820 C   0  0  0  0  0  0  0  0  0  0  0  0
   62.3410   33.4840   48.7520 C   0  0  0  0  0  0  0  0  0  0  0  0
   62.2770   34.0450   50.0400 C   0  0  0  0  0  0  0  0  0  0  0  0
   63.4090   34.0680   50.8600 C   0  0  0  0  0  0  0  0  0  0  0  0
   64.6160   33.5340   50.4040 C   0  0  0  0  0  0  0  0  0  0  0  0
   64.6940   32.9770   49.1260 C   0  0  0  0  0  0  0  0  0  0  0  0
   63.5650   32.9510   48.3010 C   0  0  0  0  0  0  0  0  0  0  0  0
   60.8060   32.3230   47.1960 N   0  0  0  0  0  0  0  0  0  0  0  0
   59.7120   32.2760   46.3870 C   0  0  0  0  0  0  0  0  0  0  0  0
   59.3940   31.1340   45.7200 N   0  0  0  0  0  0  0  0  0  0  0  0
   56.5860   29.2170   44.5800 C   0  0  0  0  0  0  0  0  0  0  0  0
   56.6520   27.9650   45.4650 C   0  0  0  0  0  0  0  0  0  0  0  0
   55.5490   23.9571   43.2188 H   0  0  0  0  0  0  0  0  0  0  0  0
   57.2458   24.3521   42.7813 H   0  0  0  0  0  0  0  0  0  0  0  0
   56.6929   22.6430   42.7813 H   0  0  0  0  0  0  0  0  0  0  0  0
   56.1536   23.7612   45.3862 H   0  0  0  0  0  0  0  0  0  0  0  0
   57.2968   22.4478   44.9499 H   0  0  0  0  0  0  0  0  0  0  0  0
   60.1888   24.3059   45.5184 H   0  0  0  0  0  0  0  0  0  0  0  0
   59.0364   23.4012   46.6201 H   0  0  0  0  0  0  0  0  0  0  0  0
   59.8109   21.5520   45.6222 H   0  0  0  0  0  0  0  0  0  0  0  0
   58.7688   22.0420   44.2436 H   0  0  0  0  0  0  0  0  0  0  0  0
   60.5150   22.4633   44.2436 H   0  0  0  0  0  0  0  0  0  0  0  0
   56.8444   25.4311   46.3140 H   0  0  0  0  0  0  0  0  0  0  0  0
   58.6034   25.9360   46.3505 H   0  0  0  0  0  0  0  0  0  0  0  0
   56.7775   26.4358   44.0029 H   0  0  0  0  0  0  0  0  0  0  0  0
   58.4577   27.3385   42.9184 H   0  0  0  0  0  0  0  0  0  0  0  0
   59.5279   26.6479   44.2189 H   0  0  0  0  0  0  0  0  0  0  0  0
   59.9971   29.0421   43.7983 H   0  0  0  0  0  0  0  0  0  0  0  0
   59.3919   28.7237   45.4745 H   0  0  0  0  0  0  0  0  0  0  0  0
   57.9355   29.9633   43.1184 H   0  0  0  0  0  0  0  0  0  0  0  0
   56.6069   32.1695   44.1068 H   0  0  0  0  0  0  0  0  0  0  0  0
   58.5808   35.4723   46.8137 H   0  0  0  0  0  0  0  0  0  0  0  0
   60.5939   35.5276   48.2938 H   0  0  0  0  0  0  0  0  0  0  0  0
   61.3296   34.4686   50.4048 H   0  0  0  0  0  0  0  0  0  0  0  0
   63.3488   34.5077   51.8665 H   0  0  0  0  0  0  0  0  0  0  0  0
   65.5051   33.5521   51.0514 H   0  0  0  0  0  0  0  0  0  0  0  0
   65.6456   32.5577   48.7673 H   0  0  0  0  0  0  0  0  0  0  0  0
   63.6329   32.5121   47.2946 H   0  0  0  0  0  0  0  0  0  0  0  0
   61.3840   31.4590   47.3060 H   0  0  0  0  0  0  0  0  0  0  0  0
   56.0452   28.9651   43.6558 H   0  0  0  0  0  0  0  0  0  0  0  0
   56.0716   30.0006   45.1556 H   0  0  0  0  0  0  0  0  0  0  0  0
   55.6293   27.6123   45.6641 H   0  0  0  0  0  0  0  0  0  0  0  0
   57.1615   28.2289   46.4035 H   0  0  0  0  0  0  0  0  0  0  0  0
  1  2  1  0
  2  3  1  0
  3  4  1  0
  4  5  1  0
  3  6  1  0
  6  7  1  0
  7  8  1  0
  8  9  1  0
  9 10  1  0
 10 11  1  0
 11 12  2  0
 12 13  1  0
 13 14  2  0
 14 15  1  0
 15 16  2  0
 16 17  1  0
 17 18  1  0
 18 19  2  0
 19 20  1  0
 20 21  2  0
 21 22  1  0
 22 23  2  0
 17 24  2  0
 24 25  1  0
 25 26  2  0
 10 27  1  0
 27 28  1  0
 28  7  1  0
 26 11  1  0
 25 14  1  0
 23 18  1  0
  1 29  1  0
  1 30  1  0
  1 31  1  0
  2 32  1  0
  2 33  1  0
  4 34  1  0
  4 35  1  0
  5 36  1  0
  5 37  1  0
  5 38  1  0
  6 39  1  0
  6 40  1  0
  7 41  1  6
  8 42  1  0
  8 43  1  0
  9 44  1  0
  9 45  1  0
 10 46  1  6
 12 47  1  0
 15 48  1  0
 16 49  1  0
 19 50  1  0
 20 51  1  0
 21 52  1  0
 22 53  1  0
 23 54  1  0
 24 55  1  0
 27 56  1  0
 27 57  1  0
 28 58  1  0
 28 59  1  0
M  CHG  1  24   1
M  END
>  <UniqueID>  (14) 
14

>  <SMILES>  (14) 
CCN(CC)CC1CCC(c2cnc3ccc(-c4ccccc4)[nH+]c3n2)CC1

>  <Energy>  (14) 
82.07962313605951

>  <Genealogy>  (14) 
CCN(CC)CC1CCC(c2cnc3ccc(-c4ccccc4)[nH+]c3n2)CC1 (protonated)
CCN(CC)CC1CCC(c2cnc3ccc(-c4ccccc4)[nH+]c3n2)CC1 (3D coordinates assigned)
CCN(CC)CC1CCC(c2cnc3ccc(-c4ccccc4)[nH+]c3n2)CC1 (nonaromatic ring conformer: 82.07962313605951 kcal/mol)

>  <smiles>  (14) 
CCN(CC)CC1CCC(c2cnc3ccc(-c4ccccc4)nc3n2)CC1

>  <score_type>  (14) 
oracle

>  <origin>  (14) 
adg

>  <m_score__min__energy>  (14) 
-7.5099999999999998

>  <m_primary>  (14) 
energy

$$$$
14:0
     RDKit          3D

 35 37  0  0  0  0  0  0  0  0999 V2000
   55.8700   29.7600   43.3600 C   0  0  0  0  0  0  0  0  0  0  0  0
   57.0060   29.9680   44.3030 C   0  0  0  0  0  0  0  0  0  0  0  0
   58.1760   29.2340   44.3260 C   0  0  0  0  0  0  0  0  0  0  0  0
   58.9220   29.7550   45.3620 C   0  0  0  0  0  0  0  0  0  0  0  0
   58.1580   30.7750   45.9000 C   0  0  0  0  0  0  0  0  0  0  0  0
   58.5430   31.6370   47.0670 C   0  0  0  0  0  0  0  0  0  0  0  0
   57.6330   32.7900   47.2390 N   0  0  0  0  0  0  0  0  0  0  0  0
   58.1200   34.0950   46.7400 C   0  0  2  0  0  0  0  0  0  0  0  0
   58.1400   34.2140   45.1860 C   0  0  0  0  0  0  0  0  0  0  0  0
   59.6270   34.2400   44.7440 C   0  0  0  0  0  0  0  0  0  0  0  0
   60.3380   34.4430   46.0250 C   0  0  0  0  0  0  0  0  0  0  0  0
   61.5910   34.0970   46.3600 N   0  0  0  0  0  0  0  0  0  0  0  0
   61.5960   33.8420   47.6640 N   0  0  0  0  0  0  0  0  0  0  0  0
   62.7200   33.2370   48.3680 C   0  0  0  0  0  0  0  0  0  0  0  0
   60.3370   33.9500   48.1490 C   0  0  0  0  0  0  0  0  0  0  0  0
   59.5360   34.3540   47.1010 C   0  0  0  0  0  0  0  0  0  0  0  0
   57.0190   30.8730   45.2540 O   0  0  0  0  0  0  0  0  0  0  0  0
   54.9454   29.5907   43.9314 H   0  0  0  0  0  0  0  0  0  0  0  0
   55.7515   30.6514   42.7264 H   0  0  0  0  0  0  0  0  0  0  0  0
   56.0750   28.8845   42.7264 H   0  0  0  0  0  0  0  0  0  0  0  0
   58.4545   28.4063   43.6572 H   0  0  0  0  0  0  0  0  0  0  0  0
   59.9187   29.4273   45.6924 H   0  0  0  0  0  0  0  0  0  0  0  0
   58.5166   31.0263   47.9815 H   0  0  0  0  0  0  0  0  0  0  0  0
   59.5520   32.0310   46.8753 H   0  0  0  0  0  0  0  0  0  0  0  0
   56.6920   32.5950   46.8250 H   0  0  0  0  0  0  0  0  0  0  0  0
   57.4108   34.7968   47.2031 H   0  0  0  0  0  0  0  0  0  0  0  0
   57.6286   33.3504   44.7358 H   0  0  0  0  0  0  0  0  0  0  0  0
   57.6206   35.1268   44.8588 H   0  0  0  0  0  0  0  0  0  0  0  0
   59.9186   33.2893   44.2737 H   0  0  0  0  0  0  0  0  0  0  0  0
   59.8478   35.0125   43.9926 H   0  0  0  0  0  0  0  0  0  0  0  0
   62.3790   33.8940   45.7050 H   0  0  0  0  0  0  0  0  0  0  0  0
   62.5617   33.3222   49.4532 H   0  0  0  0  0  0  0  0  0  0  0  0
   62.7975   32.1753   48.0910 H   0  0  0  0  0  0  0  0  0  0  0  0
   63.6489   33.7570   48.0910 H   0  0  0  0  0  0  0  0  0  0  0  0
   60.0141   33.7532   49.1819 H   0  0  0  0  0  0  0  0  0  0  0  0
  1  2  1  0
  2  3  2  0
  3  4  1  0
  4  5  2  0
  5  6  1  0
  6  7  1  0
  7  8  1  0
  8  9  1  0
  9 10  1  0
 10 11  1  0
 11 12  2  0
 12 13  1  0
 13 14  1  0
 13 15  1  0
 15 16  2  0
  5 17  1  0
 17  2  1  0
 16  8  1  0
 16 11  1  0
  1 18  1  0
  1 19  1  0
  1 20  1  0
  3 21  1  0
  4 22  1  0
  6 23  1  0
  6 24  1  0
  7 25  1  0
  8 26  1  1
  9 27  1  0
  9 28  1  0
 10 29  1  0
 10 30  1  0
 12 31  1  0
 14 32  1  0
 14 33  1  0
 14 34  1  0
 15 35  1  0
M  CHG  1  12   1
M  END
>  <UniqueID>  (15) 
15

>  <SMILES>  (15) 
Cc1ccc(CN[C@@H]2CCc3[nH+]n(C)cc32)o1

>  <Energy>  (15) 
117.35221330125073

>  <Genealogy>  (15) 
Cc1ccc(CNC2CCc3[nH+]n(C)cc32)o1 (protonated)
Cc1ccc(CN[C@@H]2CCc3[nH+]n(C)cc32)o1 (chirality)
Cc1ccc(CN[C@@H]2CCc3[nH+]n(C)cc32)o1 (3D coordinates assigned)
Cc1ccc(CN[C@@H]2CCc3[nH+]n(C)cc32)o1 (nonaromatic ring conformer: 117.35221330125073 kcal/mol)

>  <smiles>  (15) 
Cc1ccc(CNC2CCc3nn(C)cc32)o1

>  <score_type>  (15) 
oracle

>  <origin>  (15) 
adg

>  <m_score__min__energy>  (15) 
-5.3600000000000003

>  <m_primary>  (15) 
energy

$$$$
15:0
     RDKit          3D

 32 33  0  0  0  0  0  0  0  0999 V2000
   57.0250   31.2260   42.2290 C   0  0  0  0  0  0  0  0  0  0  0  0
   56.9200   30.9100   43.6590 N   0  0  0  0  0  0  0  0  0  0  0  0
   55.8110   30.0670   44.1190 C   0  0  0  0  0  0  0  0  0  0  0  0
   57.8990   31.4230   44.6030 C   0  0  0  0  0  0  0  0  0  0  0  0
   58.6790   30.5470   45.3850 C   0  0  0  0  0  0  0  0  0  0  0  0
   59.6210   31.0420   46.2910 C   0  0  0  0  0  0  0  0  0  0  0  0
   59.8090   32.4240   46.4450 C   0  0  0  0  0  0  0  0  0  0  0  0
   60.8100   32.9490   47.4090 C   0  0  0  0  0  0  0  0  0  0  0  0
   60.4040   33.6210   48.5750 C   0  0  0  0  0  0  0  0  0  0  0  0
   61.3280   34.0980   49.4520 N   0  0  0  0  0  0  0  0  0  0  0  0
   62.6620   33.9480   49.2370 C   0  0  0  0  0  0  0  0  0  0  0  0
   63.1200   33.2880   48.0910 C   0  0  0  0  0  0  0  0  0  0  0  0
   64.5210   33.1290   47.8570 N   0  0  0  0  0  0  0  0  0  0  0  0
   62.1860   32.7880   47.1760 C   0  0  0  0  0  0  0  0  0  0  0  0
   59.0340   33.3030   45.6700 C   0  0  0  0  0  0  0  0  0  0  0  0
   58.0940   32.8100   44.7620 C   0  0  0  0  0  0  0  0  0  0  0  0
   57.3697   32.2634   42.1071 H   0  0  0  0  0  0  0  0  0  0  0  0
   57.7443   30.5424   41.7543 H   0  0  0  0  0  0  0  0  0  0  0  0
   56.0396   31.1089   41.7543 H   0  0  0  0  0  0  0  0  0  0  0  0
   55.7927   30.0531   45.2188 H   0  0  0  0  0  0  0  0  0  0  0  0
   54.8609   30.4729   43.7416 H   0  0  0  0  0  0  0  0  0  0  0  0
   55.9479   29.0429   43.7416 H   0  0  0  0  0  0  0  0  0  0  0  0
   58.5445   29.4602   45.2808 H   0  0  0  0  0  0  0  0  0  0  0  0
   60.2212   30.3410   46.8896 H   0  0  0  0  0  0  0  0  0  0  0  0
   59.3324   33.7620   48.7795 H   0  0  0  0  0  0  0  0  0  0  0  0
   61.0040   34.5910   50.3150 H   0  0  0  0  0  0  0  0  0  0  0  0
   63.3833   34.3464   49.9657 H   0  0  0  0  0  0  0  0  0  0  0  0
   65.1950   33.0790   48.6550 H   0  0  0  0  0  0  0  0  0  0  0  0
   64.8960   33.0610   46.8850 H   0  0  0  0  0  0  0  0  0  0  0  0
   62.5309   32.2669   46.2708 H   0  0  0  0  0  0  0  0  0  0  0  0
   59.1687   34.3892   45.7793 H   0  0  0  0  0  0  0  0  0  0  0  0
   57.4977   33.5138   44.1628 H   0  0  0  0  0  0  0  0  0  0  0  0
  1  2  1  0
  2  3  1  0
  2  4  1  0
  4  5  2  0
  5  6  1  0
  6  7  2  0
  7  8  1  0
  8  9  2  0
  9 10  1  0
 10 11  2  0
 11 12  1  0
 12 13  1  0
 12 14  2  0
  7 15  1  0
 15 16  2  0
 16  4  1  0
 14  8  1  0
  1 17  1  0
  1 18  1  0
  1 19  1  0
  3 20  1  0
  3 21  1  0
  3 22  1  0
  5 23  1  0
  6 24  1  0
  9 25  1  0
 10 26  1  0
 11 27  1  0
 13 28  1  0
 13 29  1  0
 14 30  1  0
 15 31  1  0
 16 32  1  0
M  CHG  1  10   1
M  END
>  <UniqueID>  (16) 
16

>  <SMILES>  (16) 
CN(C)c1ccc(-c2c[nH+]cc(N)c2)cc1

>  <Energy>  (16) 
37.8872483699519

>  <Genealogy>  (16) 
CN(C)c1ccc(-c2c[nH+]cc(N)c2)cc1 (protonated)
CN(C)c1ccc(-c2c[nH+]cc(N)c2)cc1 (3D coordinates assigned)
CN(C)c1ccc(-c2c[nH+]cc(N)c2)cc1 (optimized conformer: 37.8872483699519 kcal/mol)

>  <smiles>  (16) 
CN(C)c1ccc(-c2cncc(N)c2)cc1

>  <score_type>  (16) 
oracle

>  <origin>  (16) 
adg

>  <m_score__min__energy>  (16) 
-4.46

>  <m_primary>  (16) 
energy

$$$$
16:0
     RDKit          3D

 59 63  0  0  0  0  0  0  0  0999 V2000
   58.3490   26.0520   47.7790 H   0  0  0  0  0  0  0  0  0  0  0  0
   57.6220   26.1790   47.0400 N   0  0  0  0  0  0  0  0  0  0  0  0
   57.4170   27.3190   46.4550 C   0  0  0  0  0  0  0  0  0  0  0  0
   56.4280   27.4460   45.5260 N   0  0  0  0  0  0  0  0  0  0  0  0
   55.8330   26.6260   45.2770 H   0  0  0  0  0  0  0  0  0  0  0  0
   56.2040   28.6190   44.9220 N   0  0  0  0  0  0  0  0  0  0  0  0
   56.9360   29.7340   45.1920 C   0  0  0  0  0  0  0  0  0  0  0  0
   56.6600   30.8190   44.5250 N   0  0  0  0  0  0  0  0  0  0  0  0
   57.4160   31.4730   43.4630 C   0  0  0  0  0  0  0  0  0  0  0  0
   58.4275   31.0432   43.4167 H   0  0  0  0  0  0  0  0  0  0  0  0
   56.9030   31.3169   42.5025 H   0  0  0  0  0  0  0  0  0  0  0  0
   57.5140   32.9740   43.7460 C   0  0  0  0  0  0  0  0  0  0  0  0
   58.1334   33.4390   42.9649 H   0  0  0  0  0  0  0  0  0  0  0  0
   56.4906   33.3773   43.7500 H   0  0  0  0  0  0  0  0  0  0  0  0
   58.1270   33.2780   45.0920 C   0  0  0  0  0  0  0  0  0  0  0  0
   57.3770   33.1300   46.2680 C   0  0  0  0  0  0  0  0  0  0  0  0
   56.3599   32.7140   46.2187 H   0  0  0  0  0  0  0  0  0  0  0  0
   57.9140   33.5080   47.5030 C   0  0  0  0  0  0  0  0  0  0  0  0
   57.3269   33.3617   48.4217 H   0  0  0  0  0  0  0  0  0  0  0  0
   59.1930   34.0710   47.5780 C   0  0  0  0  0  0  0  0  0  0  0  0
   59.6280   34.5420   48.8280 O   0  0  0  0  0  0  0  0  0  0  0  0
   60.2250   33.7540   49.8590 C   0  0  0  0  0  0  0  0  0  0  0  0
   60.2129   32.6969   49.5549 H   0  0  0  0  0  0  0  0  0  0  0  0
   61.2572   34.1029   50.0099 H   0  0  0  0  0  0  0  0  0  0  0  0
   59.4660   33.9020   51.1800 C   0  0  0  0  0  0  0  0  0  0  0  0
   60.1941   34.0075   51.9978 H   0  0  0  0  0  0  0  0  0  0  0  0
   58.8214   34.7901   51.1033 H   0  0  0  0  0  0  0  0  0  0  0  0
   58.5860   32.7120   51.4630 C   0  0  0  0  0  0  0  0  0  0  0  0
   57.7070   32.7300   52.5580 C   0  0  0  0  0  0  0  0  0  0  0  0
   57.6781   33.6050   53.2240 H   0  0  0  0  0  0  0  0  0  0  0  0
   56.8680   31.6380   52.8040 C   0  0  0  0  0  0  0  0  0  0  0  0
   56.1808   31.6556   53.6628 H   0  0  0  0  0  0  0  0  0  0  0  0
   56.9020   30.5250   51.9600 C   0  0  0  0  0  0  0  0  0  0  0  0
   56.2452   29.6652   52.1586 H   0  0  0  0  0  0  0  0  0  0  0  0
   57.7680   30.5020   50.8650 C   0  0  0  0  0  0  0  0  0  0  0  0
   57.7907   29.6259   50.2002 H   0  0  0  0  0  0  0  0  0  0  0  0
   58.6070   31.5930   50.6130 C   0  0  0  0  0  0  0  0  0  0  0  0
   59.2850   31.5748   49.7470 H   0  0  0  0  0  0  0  0  0  0  0  0
   59.9740   34.1590   46.4110 C   0  0  0  0  0  0  0  0  0  0  0  0
   61.0050   34.5384   46.4671 H   0  0  0  0  0  0  0  0  0  0  0  0
   59.4400   33.7640   45.1780 C   0  0  0  0  0  0  0  0  0  0  0  0
   60.0556   33.8355   44.2692 H   0  0  0  0  0  0  0  0  0  0  0  0
   57.9560   29.6040   46.1620 C   0  0  0  0  0  0  0  0  0  0  0  0
   58.8690   30.5060   46.6910 C   0  0  0  0  0  0  0  0  0  0  0  0
   58.9791   31.5740   46.4517 H   0  0  0  0  0  0  0  0  0  0  0  0
   59.6150   29.7500   47.5950 C   0  0  0  0  0  0  0  0  0  0  0  0
   60.7540   30.2170   48.4230 C   0  0  0  0  0  0  0  0  0  0  0  0
   60.9990   29.6810   49.7020 C   0  0  0  0  0  0  0  0  0  0  0  0
   60.3419   28.8944   50.1013 H   0  0  0  0  0  0  0  0  0  0  0  0
   62.0750   30.1450   50.4670 C   0  0  0  0  0  0  0  0  0  0  0  0
   62.2615   29.7208   51.4646 H   0  0  0  0  0  0  0  0  0  0  0  0
   62.9130   31.1450   49.9680 C   0  0  0  0  0  0  0  0  0  0  0  0
   63.7569   31.5085   50.5728 H   0  0  0  0  0  0  0  0  0  0  0  0
   62.6790   31.6820   48.7030 C   0  0  0  0  0  0  0  0  0  0  0  0
   63.3406   32.4676   48.3091 H   0  0  0  0  0  0  0  0  0  0  0  0
   61.6050   31.2240   47.9340 C   0  0  0  0  0  0  0  0  0  0  0  0
   61.4242   31.6549   46.9382 H   0  0  0  0  0  0  0  0  0  0  0  0
   59.1610   28.4780   47.6120 N   0  0  0  0  0  0  0  0  0  0  0  0
   58.1630   28.4130   46.7470 N   0  0  0  0  0  0  0  0  0  0  0  0
  1  2  1  0
  2  3  2  0
  3  4  1  0
  4  5  1  0
  4  6  1  0
  6  7  1  0
  7  8  2  0
  8  9  1  0
  9 10  1  0
  9 11  1  0
  9 12  1  0
 12 13  1  0
 12 14  1  0
 12 15  1  0
 15 16  2  0
 16 17  1  0
 16 18  1  0
 18 19  1  0
 18 20  2  0
 20 21  1  0
 21 22  1  0
 22 23  1  0
 22 24  1  0
 22 25  1  0
 25 26  1  0
 25 27  1  0
 25 28  1  0
 28 29  2  0
 29 30  1  0
 29 31  1  0
 31 32  1  0
 31 33  2  0
 33 34  1  0
 33 35  1  0
 35 36  1  0
 35 37  2  0
 37 38  1  0
 20 39  1  0
 39 40  1  0
 39 41  2  0
 41 42  1  0
  7 43  1  0
 43 44  2  0
 44 45  1  0
 44 46  1  0
 46 47  1  0
 47 48  2  0
 48 49  1  0
 48 50  1  0
 50 51  1  0
 50 52  2  0
 52 53  1  0
 52 54  1  0
 54 55  1  0
 54 56  2  0
 56 57  1  0
 46 58  2  0
 58 59  1  0
 59  3  1  0
 41 15  1  0
 59 43  1  0
 37 28  1  0
 56 47  1  0
M  CHG  1   6  -1
M  END
>  <UniqueID>  (17) 
17

>  <SMILES>  (17) 
[H]/N=c1/[nH][n-]/c(=N/CCc2ccc(OCCc3ccccc3)cc2)c2cc(-c3ccccc3)nn12

>  <Energy>  (17) 
107.8937081850158

>  <Genealogy>  (17) 
N=c1[nH][n-]c(=NCCc2ccc(OCCc3ccccc3)cc2)c2cc(-c3ccccc3)nn12 (protonated)
[H]/N=c1/[nH][n-]/c(=N/CCc2ccc(OCCc3ccccc3)cc2)c2cc(-c3ccccc3)nn12 (cis-trans isomerization)
[H]/N=c1/[nH][n-]/c(=N/CCc2ccc(OCCc3ccccc3)cc2)c2cc(-c3ccccc3)nn12 (3D coordinates assigned)
[H]/N=c1/[nH][n-]/c(=N/CCc2ccc(OCCc3ccccc3)cc2)c2cc(-c3ccccc3)nn12 (optimized conformer: 107.8937081850158 kcal/mol)

>  <smiles>  (17) 
N=c1[nH][nH]c(=NCCc2ccc(OCCc3ccccc3)cc2)c2cc(-c3ccccc3)nn12

>  <score_type>  (17) 
oracle

>  <origin>  (17) 
adg

>  <m_score__min__energy>  (17) 
-10.449999999999999

>  <m_primary>  (17) 
energy

$$$$
17:0
     RDKit          3D

 33 35  0  0  0  0  0  0  0  0999 V2000
   63.7570   33.1660   46.8880 C   0  0  0  0  0  0  0  0  0  0  0  0
   63.7480   32.6230   48.3150 C   0  0  0  0  0  0  0  0  0  0  0  0
   62.3880   32.8070   49.0000 C   0  0  0  0  0  0  0  0  0  0  0  0
   61.2940   32.7820   48.0220 N   0  0  0  0  0  0  0  0  0  0  0  0
   61.0790   31.6420   47.3400 N   0  0  0  0  0  0  0  0  0  0  0  0
   60.0950   31.5250   46.4390 N   0  0  0  0  0  0  0  0  0  0  0  0
   59.3060   32.5990   46.2010 C   0  0  0  0  0  0  0  0  0  0  0  0
   59.4630   33.7490   46.8890 C   0  0  0  0  0  0  0  0  0  0  0  0
   58.4370   34.5720   46.4770 C   0  0  0  0  0  0  0  0  0  0  0  0
   57.6940   33.8960   45.5640 N   0  0  0  0  0  0  0  0  0  0  0  0
   58.2330   32.6920   45.3920 N   0  0  0  0  0  0  0  0  0  0  0  0
   57.7090   31.7090   44.4860 C   0  0  0  0  0  0  0  0  0  0  0  0
   57.2940   30.4580   44.9740 C   0  0  0  0  0  0  0  0  0  0  0  0
   56.7600   29.5030   44.1040 C   0  0  0  0  0  0  0  0  0  0  0  0
   56.6230   29.7930   42.7440 C   0  0  0  0  0  0  0  0  0  0  0  0
   57.0120   31.0420   42.2530 C   0  0  0  0  0  0  0  0  0  0  0  0
   57.5470   32.0000   43.1200 C   0  0  0  0  0  0  0  0  0  0  0  0
   60.4750   33.8700   47.8250 C   0  0  0  0  0  0  0  0  0  0  0  0
   60.6250   34.9400   48.4740 O   0  0  0  0  0  0  0  0  0  0  0  0
   63.7752   34.2655   46.9142 H   0  0  0  0  0  0  0  0  0  0  0  0
   64.6492   32.7969   46.3609 H   0  0  0  0  0  0  0  0  0  0  0  0
   62.8531   32.8267   46.3609 H   0  0  0  0  0  0  0  0  0  0  0  0
   63.9872   31.5497   48.2865 H   0  0  0  0  0  0  0  0  0  0  0  0
   64.4949   33.1862   48.8938 H   0  0  0  0  0  0  0  0  0  0  0  0
   62.2390   31.9942   49.7261 H   0  0  0  0  0  0  0  0  0  0  0  0
   62.3816   33.7841   49.5052 H   0  0  0  0  0  0  0  0  0  0  0  0
   59.9420   30.6120   45.9600 H   0  0  0  0  0  0  0  0  0  0  0  0
   58.2524   35.5983   46.8272 H   0  0  0  0  0  0  0  0  0  0  0  0
   57.3899   30.2293   46.0457 H   0  0  0  0  0  0  0  0  0  0  0  0
   56.4472   28.5218   44.4906 H   0  0  0  0  0  0  0  0  0  0  0  0
   56.2088   29.0379   42.0597 H   0  0  0  0  0  0  0  0  0  0  0  0
   56.8973   31.2719   41.1834 H   0  0  0  0  0  0  0  0  0  0  0  0
   57.8425   32.9858   42.7315 H   0  0  0  0  0  0  0  0  0  0  0  0
  1  2  1  0
  2  3  1  0
  3  4  1  0
  4  5  1  0
  5  6  2  0
  6  7  1  0
  7  8  2  0
  8  9  1  0
  9 10  2  0
 10 11  1  0
 11 12  1  0
 12 13  2  0
 13 14  1  0
 14 15  2  0
 15 16  1  0
 16 17  2  0
  8 18  1  0
 18 19  2  0
 18  4  1  0
 11  7  1  0
 17 12  1  0
  1 20  1  0
  1 21  1  0
  1 22  1  0
  2 23  1  0
  2 24  1  0
  3 25  1  0
  3 26  1  0
  6 27  1  0
  9 28  1  0
 13 29  1  0
 14 30  1  0
 15 31  1  0
 16 32  1  0
 17 33  1  0
M  CHG  1   6   1
M  END
>  <UniqueID>  (18) 
18

>  <SMILES>  (18) 
CCCn1n[nH+]c2c(cnn2-c2ccccc2)c1=O

>  <Energy>  (18) 
79.06567155733698

>  <Genealogy>  (18) 
CCCn1n[nH+]c2c(cnn2-c2ccccc2)c1=O (protonated)
CCCn1n[nH+]c2c(cnn2-c2ccccc2)c1=O (3D coordinates assigned)
CCCn1n[nH+]c2c(cnn2-c2ccccc2)c1=O (optimized conformer: 79.06567155733698 kcal/mol)

>  <smiles>  (18) 
CCCn1nnc2c(cnn2-c2ccccc2)c1=O

>  <score_type>  (18) 
oracle

>  <origin>  (18) 
adg

>  <m_score__min__energy>  (18) 
-5.4800000000000004

>  <m_primary>  (18) 
energy

$$$$
18:0
     RDKit          3D

 26 28  0  0  0  0  0  0  0  0999 V2000
   54.5385   30.6115   44.1296 H   0  0  0  0  0  0  0  0  0  0  0  0
   55.5050   30.2220   44.4820 C   0  0  0  0  0  0  0  0  0  0  0  0
   56.5540   31.0860   44.4840 N   0  0  0  0  0  0  0  0  0  0  0  0
   57.8650   31.0380   44.8400 C   0  0  0  0  0  0  0  0  0  0  0  0
   58.5400   32.1420   44.6580 N   0  0  0  0  0  0  0  0  0  0  0  0
   58.9900   33.0930   45.6360 C   0  0  0  0  0  0  0  0  0  0  0  0
   59.2820   34.4210   45.2780 C   0  0  0  0  0  0  0  0  0  0  0  0
   59.2116   34.7337   44.2257 H   0  0  0  0  0  0  0  0  0  0  0  0
   59.6620   35.3460   46.2570 C   0  0  0  0  0  0  0  0  0  0  0  0
   59.9095   36.3789   45.9710 H   0  0  0  0  0  0  0  0  0  0  0  0
   59.7270   34.9580   47.5970 C   0  0  0  0  0  0  0  0  0  0  0  0
   60.0326   35.6837   48.3651 H   0  0  0  0  0  0  0  0  0  0  0  0
   59.4040   33.6480   47.9630 C   0  0  0  0  0  0  0  0  0  0  0  0
   59.4480   33.3461   49.0198 H   0  0  0  0  0  0  0  0  0  0  0  0
   59.0250   32.7210   46.9870 C   0  0  0  0  0  0  0  0  0  0  0  0
   58.7534   31.6963   47.2805 H   0  0  0  0  0  0  0  0  0  0  0  0
   58.4860   29.9150   45.4200 C   0  0  0  0  0  0  0  0  0  0  0  0
   59.5348   30.0331   45.7300 H   0  0  0  0  0  0  0  0  0  0  0  0
   57.9070   28.6790   45.6380 C   0  0  0  0  0  0  0  0  0  0  0  0
   58.5500   27.5850   46.1810 C   0  0  0  0  0  0  0  0  0  0  0  0
   59.5952   27.5442   46.5213 H   0  0  0  0  0  0  0  0  0  0  0  0
   57.6340   26.5500   46.2170 C   0  0  0  0  0  0  0  0  0  0  0  0
   57.8562   25.5419   46.5969 H   0  0  0  0  0  0  0  0  0  0  0  0
   56.4340   26.9280   45.7290 N   0  0  0  0  0  0  0  0  0  0  0  0
   56.5670   28.2160   45.3680 C   0  0  0  0  0  0  0  0  0  0  0  0
   55.5390   28.9280   44.8730 N   0  0  0  0  0  0  0  0  0  0  0  0
  1  2  1  0
  2  3  2  0
  3  4  1  0
  4  5  2  0
  5  6  1  0
  6  7  2  0
  7  8  1  0
  7  9  1  0
  9 10  1  0
  9 11  2  0
 11 12  1  0
 11 13  1  0
 13 14  1  0
 13 15  2  0
 15 16  1  0
  4 17  1  0
 17 18  1  0
 17 19  2  0
 19 20  1  0
 20 21  1  0
 20 22  2  0
 22 23  1  0
 22 24  1  0
 24 25  2  0
 25 26  1  0
 26  2  1  0
 15  6  1  0
 25 19  1  0
M  CHG  1  26  -1
M  END
>  <UniqueID>  (19) 
19

>  <SMILES>  (19) 
c1ccc(/N=c2\cc3ccnc-3[n-]cn2)cc1

>  <Energy>  (19) 
80.55510748148109

>  <Genealogy>  (19) 
c1ccc(N=c2cc3ccnc-3[n-]cn2)cc1 (protonated)
c1ccc(/N=c2\cc3ccnc-3[n-]cn2)cc1 (cis-trans isomerization)
c1ccc(/N=c2\cc3ccnc-3[n-]cn2)cc1 (3D coordinates assigned)
c1ccc(/N=c2\cc3ccnc-3[n-]cn2)cc1 (optimized conformer: 80.55510748148109 kcal/mol)

>  <smiles>  (19) 
c1ccc(N=c2cc3ccnc-3[nH]cn2)cc1

>  <score_type>  (19) 
oracle

>  <origin>  (19) 
adg

>  <m_score__min__energy>  (19) 
-8.4600000000000009

>  <m_primary>  (19) 
energy

$$$$
19:0
     RDKit          3D

 47 50  0  0  0  0  0  0  0  0999 V2000
   64.7430   33.5890   50.6860 C   0  0  0  0  0  0  0  0  0  0  0  0
   63.8700   32.6830   50.0210 O   0  0  0  0  0  0  0  0  0  0  0  0
   62.4930   32.8420   49.7640 C   0  0  0  0  0  0  0  0  0  0  0  0
   61.6530   32.6300   50.8160 N   0  0  0  0  0  0  0  0  0  0  0  0
   60.2980   32.7420   50.7180 C   0  0  0  0  0  0  0  0  0  0  0  0
   59.4370   32.4930   51.9030 C   0  0  0  0  0  0  0  0  0  0  0  0
   59.7190   33.1190   53.1310 C   0  0  0  0  0  0  0  0  0  0  0  0
   58.9080   32.8860   54.2470 C   0  0  0  0  0  0  0  0  0  0  0  0
   57.8110   32.0300   54.1490 C   0  0  0  0  0  0  0  0  0  0  0  0
   57.5200   31.4030   52.9350 C   0  0  0  0  0  0  0  0  0  0  0  0
   58.3270   31.6310   51.8160 C   0  0  0  0  0  0  0  0  0  0  0  0
   59.7250   33.0810   49.4900 C   0  0  0  0  0  0  0  0  0  0  0  0
   60.5370   33.3080   48.3750 C   0  0  0  0  0  0  0  0  0  0  0  0
   59.8830   33.6550   47.0870 C   0  0  0  0  0  0  0  0  0  0  0  0
   59.9590   34.9610   46.5800 C   0  0  0  0  0  0  0  0  0  0  0  0
   59.3590   35.2770   45.3590 C   0  0  0  0  0  0  0  0  0  0  0  0
   58.6860   34.2940   44.6300 C   0  0  0  0  0  0  0  0  0  0  0  0
   58.6070   32.9760   45.1160 C   0  0  0  0  0  0  0  0  0  0  0  0
   57.8950   31.9280   44.3400 C   0  0  0  0  0  0  0  0  0  0  0  0
   57.6650   32.0920   42.9610 C   0  0  0  0  0  0  0  0  0  0  0  0
   56.9940   31.1030   42.2330 C   0  0  0  0  0  0  0  0  0  0  0  0
   56.5460   29.9450   42.8720 C   0  0  0  0  0  0  0  0  0  0  0  0
   56.7700   29.7720   44.2400 C   0  0  0  0  0  0  0  0  0  0  0  0
   57.4400   30.7560   44.9720 C   0  0  0  0  0  0  0  0  0  0  0  0
   59.2150   32.6650   46.3470 C   0  0  0  0  0  0  0  0  0  0  0  0
   61.9410   33.2080   48.5030 C   0  0  0  0  0  0  0  0  0  0  0  0
   62.7710   33.5540   47.3700 C   0  0  0  0  0  0  0  0  0  0  0  0
   63.4340   33.8180   46.4580 N   0  0  0  0  0  0  0  0  0  0  0  0
   64.6317   33.4735   51.7742 H   0  0  0  0  0  0  0  0  0  0  0  0
   65.7828   33.3737   50.3989 H   0  0  0  0  0  0  0  0  0  0  0  0
   64.4893   34.6201   50.3989 H   0  0  0  0  0  0  0  0  0  0  0  0
   62.0810   32.3910   51.7390 H   0  0  0  0  0  0  0  0  0  0  0  0
   60.5823   33.7957   53.2142 H   0  0  0  0  0  0  0  0  0  0  0  0
   59.1359   33.3788   55.2036 H   0  0  0  0  0  0  0  0  0  0  0  0
   57.1749   31.8486   55.0279 H   0  0  0  0  0  0  0  0  0  0  0  0
   56.6543   30.7286   52.8592 H   0  0  0  0  0  0  0  0  0  0  0  0
   58.0934   31.1343   50.8627 H   0  0  0  0  0  0  0  0  0  0  0  0
   58.6323   33.1695   49.4002 H   0  0  0  0  0  0  0  0  0  0  0  0
   60.4929   35.7386   47.1460 H   0  0  0  0  0  0  0  0  0  0  0  0
   59.4167   36.3043   44.9699 H   0  0  0  0  0  0  0  0  0  0  0  0
   58.2148   34.5518   43.6700 H   0  0  0  0  0  0  0  0  0  0  0  0
   58.0147   33.0027   42.4527 H   0  0  0  0  0  0  0  0  0  0  0  0
   56.8191   31.2380   41.1554 H   0  0  0  0  0  0  0  0  0  0  0  0
   56.0171   29.1695   42.2985 H   0  0  0  0  0  0  0  0  0  0  0  0
   56.4181   28.8589   44.7423 H   0  0  0  0  0  0  0  0  0  0  0  0
   57.6128   30.6135   46.0490 H   0  0  0  0  0  0  0  0  0  0  0  0
   59.1666   31.6363   46.7335 H   0  0  0  0  0  0  0  0  0  0  0  0
  1  2  1  0
  2  3  1  0
  3  4  2  0
  4  5  1  0
  5  6  1  0
  6  7  2  0
  7  8  1  0
  8  9  2  0
  9 10  1  0
 10 11  2  0
  5 12  2  0
 12 13  1  0
 13 14  1  0
 14 15  2  0
 15 16  1  0
 16 17  2  0
 17 18  1  0
 18 19  1  0
 19 20  2  0
 20 21  1  0
 21 22  2  0
 22 23  1  0
 23 24  2  0
 18 25  2  0
 13 26  2  0
 26 27  1  0
 27 28  3  0
 26  3  1  0
 11  6  1  0
 25 14  1  0
 24 19  1  0
  1 29  1  0
  1 30  1  0
  1 31  1  0
  4 32  1  0
  7 33  1  0
  8 34  1  0
  9 35  1  0
 10 36  1  0
 11 37  1  0
 12 38  1  0
 15 39  1  0
 16 40  1  0
 17 41  1  0
 20 42  1  0
 21 43  1  0
 22 44  1  0
 23 45  1  0
 24 46  1  0
 25 47  1  0
M  CHG  1   4   1
M  END
>  <UniqueID>  (20) 
20

>  <SMILES>  (20) 
COc1[nH+]c(-c2ccccc2)cc(-c2cccc(-c3ccccc3)c2)c1C#N

>  <Energy>  (20) 
74.75698586276904

>  <Genealogy>  (20) 
COc1[nH+]c(-c2ccccc2)cc(-c2cccc(-c3ccccc3)c2)c1C#N (protonated)
COc1[nH+]c(-c2ccccc2)cc(-c2cccc(-c3ccccc3)c2)c1C#N (3D coordinates assigned)
COc1[nH+]c(-c2ccccc2)cc(-c2cccc(-c3ccccc3)c2)c1C#N (optimized conformer: 74.75698586276904 kcal/mol)

>  <smiles>  (20) 
COc1nc(-c2ccccc2)cc(-c2cccc(-c3ccccc3)c2)c1C#N

>  <score_type>  (20) 
oracle

>  <origin>  (20) 
adg

>  <m_score__min__energy>  (20) 
-7.4500000000000002

>  <m_primary>  (20) 
energy

$$$$
20:0
     RDKit          3D

 45 47  0  0  0  0  0  0  0  0999 V2000
   56.4780   20.7430   44.0490 C   0  0  0  0  0  0  0  0  0  0  0  0
   56.5690   22.1930   44.3960 C   0  0  0  0  0  0  0  0  0  0  0  0
   57.3860   23.1180   43.7510 C   0  0  0  0  0  0  0  0  0  0  0  0
   57.1980   24.2960   44.4430 C   0  0  0  0  0  0  0  0  0  0  0  0
   57.7510   25.5580   44.2460 C   0  0  0  0  0  0  0  0  0  0  0  0
   57.3770   26.5960   45.1340 C   0  0  0  0  0  0  0  0  0  0  0  0
   57.8870   27.9320   44.9770 N   0  0  0  0  0  0  0  0  0  0  0  0
   57.0870   29.1150   45.1390 C   0  0  0  0  0  0  0  0  0  0  0  0
   55.8340   29.0450   45.0140 O   0  0  0  0  0  0  0  0  0  0  0  0
   57.7220   30.4310   45.4020 C   0  0  0  0  0  0  0  0  0  0  0  0
   57.3880   31.5450   44.6180 C   0  0  0  0  0  0  0  0  0  0  0  0
   57.9750   32.7910   44.8590 C   0  0  0  0  0  0  0  0  0  0  0  0
   58.9130   32.9640   45.9030 C   0  0  0  0  0  0  0  0  0  0  0  0
   59.5840   34.3190   46.2060 C   0  0  0  0  0  0  0  0  0  0  0  0
   61.1130   34.1240   46.3090 C   0  0  0  0  0  0  0  0  0  0  0  0
   59.1020   34.9520   47.5330 C   0  0  0  0  0  0  0  0  0  0  0  0
   59.2700   35.3170   45.0700 C   0  0  0  0  0  0  0  0  0  0  0  0
   59.2290   31.8360   46.6920 C   0  0  0  0  0  0  0  0  0  0  0  0
   58.6420   30.5930   46.4470 C   0  0  0  0  0  0  0  0  0  0  0  0
   56.4420   26.3280   46.1660 C   0  0  0  0  0  0  0  0  0  0  0  0
   55.9050   25.0400   46.3380 C   0  0  0  0  0  0  0  0  0  0  0  0
   56.3090   24.0430   45.4530 C   0  0  0  0  0  0  0  0  0  0  0  0
   55.9210   22.7570   45.4410 N   0  0  0  0  0  0  0  0  0  0  0  0
   56.4406   20.1466   44.9725 H   0  0  0  0  0  0  0  0  0  0  0  0
   55.5668   20.5635   43.4595 H   0  0  0  0  0  0  0  0  0  0  0  0
   57.3596   20.4510   43.4595 H   0  0  0  0  0  0  0  0  0  0  0  0
   58.0376   22.9468   42.8814 H   0  0  0  0  0  0  0  0  0  0  0  0
   58.4582   25.7438   43.4242 H   0  0  0  0  0  0  0  0  0  0  0  0
   58.8610   28.0430   44.6180 H   0  0  0  0  0  0  0  0  0  0  0  0
   56.6558   31.4372   43.8042 H   0  0  0  0  0  0  0  0  0  0  0  0
   57.7031   33.6494   44.2271 H   0  0  0  0  0  0  0  0  0  0  0  0
   61.4073   34.0865   47.3682 H   0  0  0  0  0  0  0  0  0  0  0  0
   61.3966   33.1824   45.8161 H   0  0  0  0  0  0  0  0  0  0  0  0
   61.6238   34.9643   45.8161 H   0  0  0  0  0  0  0  0  0  0  0  0
   59.5266   34.3943   48.3808 H   0  0  0  0  0  0  0  0  0  0  0  0
   59.4329   36.0000   47.5808 H   0  0  0  0  0  0  0  0  0  0  0  0
   58.0038   34.9117   47.5808 H   0  0  0  0  0  0  0  0  0  0  0  0
   58.9665   36.2816   45.5029 H   0  0  0  0  0  0  0  0  0  0  0  0
   60.1667   35.4597   44.4490 H   0  0  0  0  0  0  0  0  0  0  0  0
   58.4532   34.9205   44.4490 H   0  0  0  0  0  0  0  0  0  0  0  0
   59.9513   31.9387   47.5152 H   0  0  0  0  0  0  0  0  0  0  0  0
   58.9041   29.7326   47.0802 H   0  0  0  0  0  0  0  0  0  0  0  0
   56.1325   27.1392   46.8414 H   0  0  0  0  0  0  0  0  0  0  0  0
   55.1890   24.8265   47.1453 H   0  0  0  0  0  0  0  0  0  0  0  0
   55.2610   22.2900   46.1030 H   0  0  0  0  0  0  0  0  0  0  0  0
  1  2  1  0
  2  3  2  0
  3  4  1  0
  4  5  2  0
  5  6  1  0
  6  7  1  0
  7  8  1  0
  8  9  2  0
  8 10  1  0
 10 11  2  0
 11 12  1  0
 12 13  2  0
 13 14  1  0
 14 15  1  0
 14 16  1  0
 14 17  1  0
 13 18  1  0
 18 19  2  0
  6 20  2  0
 20 21  1  0
 21 22  2  0
 22 23  1  0
 23  2  1  0
 22  4  1  0
 19 10  1  0
  1 24  1  0
  1 25  1  0
  1 26  1  0
  3 27  1  0
  5 28  1  0
  7 29  1  0
 11 30  1  0
 12 31  1  0
 15 32  1  0
 15 33  1  0
 15 34  1  0
 16 35  1  0
 16 36  1  0
 16 37  1  0
 17 38  1  0
 17 39  1  0
 17 40  1  0
 18 41  1  0
 19 42  1  0
 20 43  1  0
 21 44  1  0
 23 45  1  0
M  END
>  <UniqueID>  (21) 
21

>  <SMILES>  (21) 
Cc1cc2cc(NC(=O)c3ccc(C(C)(C)C)cc3)ccc2[nH]1

>  <Energy>  (21) 
84.72464109056672

>  <Genealogy>  (21) 
Cc1cc2cc(NC(=O)c3ccc(C(C)(C)C)cc3)ccc2[nH]1 (3D coordinates assigned)
Cc1cc2cc(NC(=O)c3ccc(C(C)(C)C)cc3)ccc2[nH]1 (optimized conformer: 84.72464109056672 kcal/mol)

>  <smiles>  (21) 
Cc1cc2cc(NC(=O)c3ccc(C(C)(C)C)cc3)ccc2[nH]1

>  <score_type>  (21) 
oracle

>  <origin>  (21) 
adg

>  <m_score__min__energy>  (21) 
-7.6699999999999999

>  <m_primary>  (21) 
energy

$$$$
21:0
     RDKit          3D

 54 56  0  0  0  0  0  0  0  0999 V2000
   55.2870   23.3610   45.2000 C   0  0  0  0  0  0  0  0  0  0  0  0
   56.4720   24.2030   45.5670 C   0  0  0  0  0  0  0  0  0  0  0  0
   56.3050   25.3700   46.3310 C   0  0  0  0  0  0  0  0  0  0  0  0
   57.4180   26.1120   46.7440 C   0  0  0  0  0  0  0  0  0  0  0  0
   58.7130   25.6880   46.4080 C   0  0  0  0  0  0  0  0  0  0  0  0
   60.1230   26.6030   46.9580 S   0  0  0  0  0  0  0  0  0  0  0  0
   60.2080   26.5360   48.4570 O   0  0  0  0  0  0  0  0  0  0  0  0
   61.3650   25.9750   46.3930 O   0  0  0  0  0  0  0  0  0  0  0  0
   60.0330   28.2790   46.4610 N   0  0  0  0  0  0  0  0  0  0  0  0
   60.0240   28.3700   44.9840 C   0  0  0  0  0  0  0  0  0  0  0  0
   59.5110   29.7260   44.4910 C   0  0  0  0  0  0  0  0  0  0  0  0
   58.1720   29.9960   45.0340 N   0  0  0  0  0  0  0  0  0  0  0  0
   57.2620   30.8940   44.3650 C   0  0  0  0  0  0  0  0  0  0  0  0
   56.0160   30.7460   44.5140 O   0  0  0  0  0  0  0  0  0  0  0  0
   57.7570   32.0530   43.5370 C   0  0  0  0  0  0  0  0  0  0  0  0
   57.4800   33.3920   44.2330 C   0  0  0  0  0  0  0  0  0  0  0  0
   58.1170   33.4500   45.5970 C   0  0  0  0  0  0  0  0  0  0  0  0
   57.4780   33.0150   46.5920 O   0  0  0  0  0  0  0  0  0  0  0  0
   59.3930   34.0960   45.7670 N   0  0  0  0  0  0  0  0  0  0  0  0
   60.1960   34.0330   46.9630 C   0  0  0  0  0  0  0  0  0  0  0  0
   59.6500   34.2810   48.2380 C   0  0  0  0  0  0  0  0  0  0  0  0
   60.4520   34.1750   49.3820 C   0  0  0  0  0  0  0  0  0  0  0  0
   61.7960   33.8090   49.2670 C   0  0  0  0  0  0  0  0  0  0  0  0
   62.3440   33.5490   48.0080 C   0  0  0  0  0  0  0  0  0  0  0  0
   64.0400   33.0940   47.8670 Cl  0  0  0  0  0  0  0  0  0  0  0  0
   61.5460   33.6550   46.8630 C   0  0  0  0  0  0  0  0  0  0  0  0
   57.7260   29.2670   46.2270 C   0  0  0  0  0  0  0  0  0  0  0  0
   58.9260   28.9930   47.1460 C   0  0  0  0  0  0  0  0  0  0  0  0
   58.8810   24.5150   45.6530 C   0  0  0  0  0  0  0  0  0  0  0  0
   57.7680   23.7780   45.2380 C   0  0  0  0  0  0  0  0  0  0  0  0
   54.7903   23.0080   46.1158 H   0  0  0  0  0  0  0  0  0  0  0  0
   54.5804   23.9607   44.6075 H   0  0  0  0  0  0  0  0  0  0  0  0
   55.6209   22.4965   44.6075 H   0  0  0  0  0  0  0  0  0  0  0  0
   55.2934   25.7029   46.6064 H   0  0  0  0  0  0  0  0  0  0  0  0
   57.2771   27.0299   47.3335 H   0  0  0  0  0  0  0  0  0  0  0  0
   61.0494   28.2233   44.6138 H   0  0  0  0  0  0  0  0  0  0  0  0
   59.3454   27.5931   44.6020 H   0  0  0  0  0  0  0  0  0  0  0  0
   60.2017   30.5162   44.8203 H   0  0  0  0  0  0  0  0  0  0  0  0
   59.4534   29.7076   43.3927 H   0  0  0  0  0  0  0  0  0  0  0  0
   58.8409   31.9465   43.3828 H   0  0  0  0  0  0  0  0  0  0  0  0
   57.2251   32.0449   42.5742 H   0  0  0  0  0  0  0  0  0  0  0  0
   57.8855   34.2064   43.6147 H   0  0  0  0  0  0  0  0  0  0  0  0
   56.3920   33.4971   44.3565 H   0  0  0  0  0  0  0  0  0  0  0  0
   59.7480   34.6760   44.9720 H   0  0  0  0  0  0  0  0  0  0  0  0
   58.5902   34.5589   48.3356 H   0  0  0  0  0  0  0  0  0  0  0  0
   60.0226   34.3805   50.3737 H   0  0  0  0  0  0  0  0  0  0  0  0
   62.4224   33.7256   50.1674 H   0  0  0  0  0  0  0  0  0  0  0  0
   61.9797   33.4403   45.8752 H   0  0  0  0  0  0  0  0  0  0  0  0
   56.9821   29.8708   46.7674 H   0  0  0  0  0  0  0  0  0  0  0  0
   57.2753   28.3110   45.9221 H   0  0  0  0  0  0  0  0  0  0  0  0
   59.3078   29.9547   47.5194 H   0  0  0  0  0  0  0  0  0  0  0  0
   58.5731   28.3452   47.9620 H   0  0  0  0  0  0  0  0  0  0  0  0
   59.8929   24.1751   45.3873 H   0  0  0  0  0  0  0  0  0  0  0  0
   57.9092   22.8592   44.6499 H   0  0  0  0  0  0  0  0  0  0  0  0
  1  2  1  0
  2  3  2  0
  3  4  1  0
  4  5  2  0
  5  6  1  0
  6  7  2  0
  6  8  2  0
  6  9  1  0
  9 10  1  0
 10 11  1  0
 11 12  1  0
 12 13  1  0
 13 14  2  0
 13 15  1  0
 15 16  1  0
 16 17  1  0
 17 18  2  0
 17 19  1  0
 19 20  1  0
 20 21  2  0
 21 22  1  0
 22 23  2  0
 23 24  1  0
 24 25  1  0
 24 26  2  0
 12 27  1  0
 27 28  1  0
  5 29  1  0
 29 30  2  0
 30  2  1  0
 28  9  1  0
 26 20  1  0
  1 31  1  0
  1 32  1  0
  1 33  1  0
  3 34  1  0
  4 35  1  0
 10 36  1  0
 10 37  1  0
 11 38  1  0
 11 39  1  0
 15 40  1  0
 15 41  1  0
 16 42  1  0
 16 43  1  0
 19 44  1  0
 21 45  1  0
 22 46  1  0
 23 47  1  0
 26 48  1  0
 27 49  1  0
 27 50  1  0
 28 51  1  0
 28 52  1  0
 29 53  1  0
 30 54  1  0
M  END
>  <UniqueID>  (22) 
22

>  <SMILES>  (22) 
Cc1ccc(S(=O)(=O)N2CCN(C(=O)CCC(=O)Nc3cccc(Cl)c3)CC2)cc1

>  <Energy>  (22) 
57.750834760590465

>  <Genealogy>  (22) 
Cc1ccc(S(=O)(=O)N2CCN(C(=O)CCC(=O)Nc3cccc(Cl)c3)CC2)cc1 (3D coordinates assigned)
Cc1ccc(S(=O)(=O)N2CCN(C(=O)CCC(=O)Nc3cccc(Cl)c3)CC2)cc1 (nonaromatic ring conformer: 57.750834760590465 kcal/mol)

>  <smiles>  (22) 
Cc1ccc(S(=O)(=O)N2CCN(C(=O)CCC(=O)Nc3cccc(Cl)c3)CC2)cc1

>  <score_type>  (22) 
oracle

>  <origin>  (22) 
adg

>  <m_score__min__energy>  (22) 
-9.2100000000000009

>  <m_primary>  (22) 
energy

$$$$
22:0
     RDKit          3D

 16 17  0  0  1  0  0  0  0  0999 V2000
   58.5250   34.6390   47.0470 N   0  0  0  0  0  0  0  0  0  0  0  0
   58.4690   34.0870   46.0220 C   0  0  0  0  0  0  0  0  0  0  0  0
   58.3980   33.4130   44.8140 N   0  0  0  0  0  0  0  0  0  0  0  0
   58.1350   32.0180   44.7460 C   0  0  0  0  0  0  0  0  0  0  0  0
   57.6600   31.3310   45.7390 N   0  0  0  0  0  0  0  0  0  0  0  0
   57.4490   29.9530   45.3520 C   0  0  2  0  0  0  0  0  0  0  0  0
   58.5440   29.7920   44.3020 C   0  0  0  0  0  0  0  0  0  0  0  0
   58.3350   31.1190   43.6020 C   0  0  1  0  0  0  0  0  0  0  0  0
   56.6340   30.7640   43.0020 S   0  0  0  0  0  0  0  0  0  0  0  0
   56.1870   29.8610   44.5220 C   0  0  0  0  0  0  0  0  0  0  0  0
   55.1420   29.3280   44.7860 O   0  0  0  0  0  0  0  0  0  0  0  0
   58.5440   33.9490   43.9200 H   0  0  0  0  0  0  0  0  0  0  0  0
   57.4229   29.2603   46.2061 H   0  0  0  0  0  0  0  0  0  0  0  0
   59.5452   29.7066   44.7494 H   0  0  0  0  0  0  0  0  0  0  0  0
   58.4897   28.8920   43.6719 H   0  0  0  0  0  0  0  0  0  0  0  0
   59.0723   31.4839   42.8718 H   0  0  0  0  0  0  0  0  0  0  0  0
  1  2  3  0
  2  3  1  0
  3  4  1  0
  4  5  2  0
  5  6  1  0
  6  7  1  0
  7  8  1  0
  8  9  1  0
  9 10  1  0
 10 11  2  0
  8  4  1  0
 10  6  1  0
  3 12  1  0
  6 13  1  1
  7 14  1  0
  7 15  1  0
  8 16  1  6
M  END
>  <smiles>  (23) 
N#CNC1=NC2CC1SC2=O

>  <score_type>  (23) 
oracle

>  <origin>  (23) 
adg

>  <m_score__min__energy>  (23) 
-5.0800000000000001

>  <m_primary>  (23) 
energy

$$$$
23:0
     RDKit          3D

 61 64  0  0  0  0  0  0  0  0999 V2000
   59.9890   36.1430   45.6740 C   0  0  0  0  0  0  0  0  0  0  0  0
   59.2360   35.2540   46.4920 O   0  0  0  0  0  0  0  0  0  0  0  0
   58.7700   33.9980   46.0770 C   0  0  0  0  0  0  0  0  0  0  0  0
   58.2420   33.0560   46.9760 C   0  0  0  0  0  0  0  0  0  0  0  0
   57.7840   31.8220   46.5130 C   0  0  0  0  0  0  0  0  0  0  0  0
   57.8370   31.5030   45.1470 C   0  0  0  0  0  0  0  0  0  0  0  0
   57.3170   30.1930   44.6930 C   0  0  0  0  0  0  0  0  0  0  0  0
   56.3840   29.6400   45.3390 O   0  0  0  0  0  0  0  0  0  0  0  0
   57.8310   29.5720   43.5050 N   0  0  0  0  0  0  0  0  0  0  0  0
   57.4000   28.2470   43.0590 C   0  0  0  0  0  0  0  0  0  0  0  0
   58.5070   27.2110   43.2800 C   0  0  0  0  0  0  0  0  0  0  0  0
   58.6870   26.9240   44.7050 N   0  0  0  0  0  0  0  0  0  0  0  0
   59.6610   27.4300   45.4980 C   0  0  0  0  0  0  0  0  0  0  0  0
   59.5370   26.9240   46.7840 C   0  0  0  0  0  0  0  0  0  0  0  0
   60.5710   27.3340   48.1910 S   0  0  0  0  0  0  0  0  0  0  0  0
   59.4790   28.6670   48.8060 C   0  0  0  0  0  0  0  0  0  0  0  0
   60.0890   30.0280   48.5530 C   0  0  0  0  0  0  0  0  0  0  0  0
   60.9620   30.1700   47.4580 C   0  0  0  0  0  0  0  0  0  0  0  0
   61.5960   31.3860   47.2040 C   0  0  0  0  0  0  0  0  0  0  0  0
   61.3630   32.4820   48.0320 C   0  0  0  0  0  0  0  0  0  0  0  0
   60.4870   32.3700   49.1110 C   0  0  0  0  0  0  0  0  0  0  0  0
   59.8360   31.1540   49.3840 C   0  0  0  0  0  0  0  0  0  0  0  0
   58.8760   31.0900   50.5430 C   0  0  0  0  0  0  0  0  0  0  0  0
   58.4540   26.0710   46.7600 C   0  0  0  0  0  0  0  0  0  0  0  0
   57.8750   25.2960   47.7640 C   0  0  0  0  0  0  0  0  0  0  0  0
   56.7380   24.5380   47.4340 C   0  0  0  0  0  0  0  0  0  0  0  0
   56.2170   24.5650   46.1220 C   0  0  0  0  0  0  0  0  0  0  0  0
   56.8260   25.3510   45.1280 C   0  0  0  0  0  0  0  0  0  0  0  0
   57.9540   26.0970   45.4820 C   0  0  0  0  0  0  0  0  0  0  0  0
   58.3950   32.4310   44.2390 C   0  0  0  0  0  0  0  0  0  0  0  0
   58.5150   32.0780   42.8830 O   0  0  0  0  0  0  0  0  0  0  0  0
   57.4980   32.2690   41.9050 C   0  0  0  0  0  0  0  0  0  0  0  0
   58.8440   33.6780   44.7170 C   0  0  0  0  0  0  0  0  0  0  0  0
   60.5681   36.8267   46.3121 H   0  0  0  0  0  0  0  0  0  0  0  0
   60.6757   35.5641   45.0389 H   0  0  0  0  0  0  0  0  0  0  0  0
   59.3050   36.7251   45.0389 H   0  0  0  0  0  0  0  0  0  0  0  0
   58.1895   33.2923   48.0490 H   0  0  0  0  0  0  0  0  0  0  0  0
   57.3767   31.0907   47.2266 H   0  0  0  0  0  0  0  0  0  0  0  0
   58.3600   30.1700   42.8310 H   0  0  0  0  0  0  0  0  0  0  0  0
   56.5074   27.9478   43.6280 H   0  0  0  0  0  0  0  0  0  0  0  0
   57.1712   28.2943   41.9841 H   0  0  0  0  0  0  0  0  0  0  0  0
   58.2375   26.2810   42.7579 H   0  0  0  0  0  0  0  0  0  0  0  0
   59.4493   27.6185   42.8850 H   0  0  0  0  0  0  0  0  0  0  0  0
   60.4366   28.1381   45.1708 H   0  0  0  0  0  0  0  0  0  0  0  0
   58.5100   28.6054   48.2890 H   0  0  0  0  0  0  0  0  0  0  0  0
   59.3462   28.5387   49.8904 H   0  0  0  0  0  0  0  0  0  0  0  0
   61.1463   29.3119   46.7949 H   0  0  0  0  0  0  0  0  0  0  0  0
   62.2811   31.4799   46.3485 H   0  0  0  0  0  0  0  0  0  0  0  0
   61.8710   33.4374   47.8342 H   0  0  0  0  0  0  0  0  0  0  0  0
   60.3033   33.2423   49.7555 H   0  0  0  0  0  0  0  0  0  0  0  0
   59.4385   31.1275   51.4875 H   0  0  0  0  0  0  0  0  0  0  0  0
   58.1845   31.9440   50.4939 H   0  0  0  0  0  0  0  0  0  0  0  0
   58.3040   30.1517   50.4939 H   0  0  0  0  0  0  0  0  0  0  0  0
   58.2941   25.2783   48.7809 H   0  0  0  0  0  0  0  0  0  0  0  0
   56.2512   23.9200   48.2028 H   0  0  0  0  0  0  0  0  0  0  0  0
   55.3276   23.9664   45.8756 H   0  0  0  0  0  0  0  0  0  0  0  0
   56.4271   25.3781   44.1032 H   0  0  0  0  0  0  0  0  0  0  0  0
   56.5360   32.4497   42.4069 H   0  0  0  0  0  0  0  0  0  0  0  0
   57.7519   33.1352   41.2763 H   0  0  0  0  0  0  0  0  0  0  0  0
   57.4204   31.3697   41.2763 H   0  0  0  0  0  0  0  0  0  0  0  0
   59.2592   34.4113   44.0100 H   0  0  0  0  0  0  0  0  0  0  0  0
  1  2  1  0
  2  3  1  0
  3  4  2  0
  4  5  1  0
  5  6  2  0
  6  7  1  0
  7  8  2  0
  7  9  1  0
  9 10  1  0
 10 11  1  0
 11 12  1  0
 12 13  1  0
 13 14  2  0
 14 15  1  0
 15 16  1  0
 16 17  1  0
 17 18  2  0
 18 19  1  0
 19 20  2  0
 20 21  1  0
 21 22  2  0
 22 23  1  0
 14 24  1  0
 24 25  2  0
 25 26  1  0
 26 27  2  0
 27 28  1  0
 28 29  2  0
  6 30  1  0
 30 31  1  0
 31 32  1  0
 30 33  2  0
 33  3  1  0
 29 12  1  0
 22 17  1  0
 29 24  1  0
  1 34  1  0
  1 35  1  0
  1 36  1  0
  4 37  1  0
  5 38  1  0
  9 39  1  0
 10 40  1  0
 10 41  1  0
 11 42  1  0
 11 43  1  0
 13 44  1  0
 16 45  1  0
 16 46  1  0
 18 47  1  0
 19 48  1  0
 20 49  1  0
 21 50  1  0
 23 51  1  0
 23 52  1  0
 23 53  1  0
 25 54  1  0
 26 55  1  0
 27 56  1  0
 28 57  1  0
 32 58  1  0
 32 59  1  0
 32 60  1  0
 33 61  1  0
M  END
>  <UniqueID>  (24) 
23

>  <SMILES>  (24) 
COc1ccc(C(=O)NCCn2cc(SCc3ccccc3C)c3ccccc32)c(OC)c1

>  <Energy>  (24) 
91.71988007430137

>  <Genealogy>  (24) 
COc1ccc(C(=O)NCCn2cc(SCc3ccccc3C)c3ccccc32)c(OC)c1 (3D coordinates assigned)
COc1ccc(C(=O)NCCn2cc(SCc3ccccc3C)c3ccccc32)c(OC)c1 (optimized conformer: 91.71988007430137 kcal/mol)

>  <smiles>  (24) 
COc1ccc(C(=O)NCCn2cc(SCc3ccccc3C)c3ccccc32)c(OC)c1

>  <score_type>  (24) 
oracle

>  <origin>  (24) 
adg

>  <m_score__min__energy>  (24) 
-8.6400000000000006

>  <m_primary>  (24) 
energy

$$$$
24:0
     RDKit          3D

 43 45  0  0  0  0  0  0  0  0999 V2000
   58.1430   27.1780   43.3780 C   0  0  0  0  0  0  0  0  0  0  0  0
   57.7670   27.8770   44.6800 C   0  0  0  0  0  0  0  0  0  0  0  0
   58.1510   29.2950   44.6430 N   0  0  0  0  0  0  0  0  0  0  0  0
   59.5580   29.6480   44.8810 C   0  0  0  0  0  0  0  0  0  0  0  0
   60.2510   28.5990   45.7440 C   0  0  0  0  0  0  0  0  0  0  0  0
   57.1220   30.3040   44.4990 C   0  0  0  0  0  0  0  0  0  0  0  0
   55.9310   30.0240   44.8080 O   0  0  0  0  0  0  0  0  0  0  0  0
   57.4050   31.6780   43.9570 C   0  0  0  0  0  0  0  0  0  0  0  0
   57.0350   32.9460   45.2220 S   0  0  0  0  0  0  0  0  0  0  0  0
   58.6830   32.9260   45.9180 C   0  0  0  0  0  0  0  0  0  0  0  0
   59.6010   33.8730   45.5320 N   0  0  0  0  0  0  0  0  0  0  0  0
   60.8250   33.9200   46.0730 N   0  0  0  0  0  0  0  0  0  0  0  0
   61.1420   33.0080   47.0180 C   0  0  0  0  0  0  0  0  0  0  0  0
   62.2760   32.8330   47.7740 C   0  0  0  0  0  0  0  0  0  0  0  0
   63.4850   33.5210   47.8220 C   0  0  0  0  0  0  0  0  0  0  0  0
   64.4450   33.0820   48.7520 C   0  0  0  0  0  0  0  0  0  0  0  0
   64.1770   31.9830   49.6010 C   0  0  0  0  0  0  0  0  0  0  0  0
   62.9430   31.3090   49.5320 C   0  0  0  0  0  0  0  0  0  0  0  0
   62.0010   31.7560   48.6040 C   0  0  0  0  0  0  0  0  0  0  0  0
   60.7540   31.2670   48.3800 N   0  0  0  0  0  0  0  0  0  0  0  0
   60.0930   30.1620   49.0700 C   0  0  0  0  0  0  0  0  0  0  0  0
   60.2490   32.0550   47.4060 C   0  0  0  0  0  0  0  0  0  0  0  0
   59.0100   31.9980   46.8670 N   0  0  0  0  0  0  0  0  0  0  0  0
   58.6529   26.2301   43.6047 H   0  0  0  0  0  0  0  0  0  0  0  0
   57.2327   26.9744   42.7950 H   0  0  0  0  0  0  0  0  0  0  0  0
   58.8146   27.8253   42.7950 H   0  0  0  0  0  0  0  0  0  0  0  0
   56.6796   27.8020   44.8282 H   0  0  0  0  0  0  0  0  0  0  0  0
   58.3019   27.3892   45.5083 H   0  0  0  0  0  0  0  0  0  0  0  0
   60.0787   29.7186   43.9146 H   0  0  0  0  0  0  0  0  0  0  0  0
   59.5907   30.6117   45.4104 H   0  0  0  0  0  0  0  0  0  0  0  0
   60.0941   28.8365   46.8065 H   0  0  0  0  0  0  0  0  0  0  0  0
   59.8300   27.6069   45.5240 H   0  0  0  0  0  0  0  0  0  0  0  0
   61.3288   28.5970   45.5240 H   0  0  0  0  0  0  0  0  0  0  0  0
   58.4660   31.7455   43.6746 H   0  0  0  0  0  0  0  0  0  0  0  0
   56.7695   31.8539   43.0765 H   0  0  0  0  0  0  0  0  0  0  0  0
   61.5060   34.6540   45.7760 H   0  0  0  0  0  0  0  0  0  0  0  0
   63.6824   34.3755   47.1580 H   0  0  0  0  0  0  0  0  0  0  0  0
   65.4138   33.5987   48.8195 H   0  0  0  0  0  0  0  0  0  0  0  0
   64.9395   31.6520   50.3215 H   0  0  0  0  0  0  0  0  0  0  0  0
   62.7273   30.4547   50.1905 H   0  0  0  0  0  0  0  0  0  0  0  0
   60.1786   30.3050   50.1573 H   0  0  0  0  0  0  0  0  0  0  0  0
   59.0306   30.1355   48.7861 H   0  0  0  0  0  0  0  0  0  0  0  0
   60.5721   29.2134   48.7861 H   0  0  0  0  0  0  0  0  0  0  0  0
  1  2  1  0
  2  3  1  0
  3  4  1  0
  4  5  1  0
  3  6  1  0
  6  7  2  0
  6  8  1  0
  8  9  1  0
  9 10  1  0
 10 11  2  0
 11 12  1  0
 12 13  2  0
 13 14  1  0
 14 15  2  0
 15 16  1  0
 16 17  2  0
 17 18  1  0
 18 19  2  0
 19 20  1  0
 20 21  1  0
 20 22  1  0
 22 23  2  0
 23 10  1  0
 22 13  1  0
 19 14  1  0
  1 24  1  0
  1 25  1  0
  1 26  1  0
  2 27  1  0
  2 28  1  0
  4 29  1  0
  4 30  1  0
  5 31  1  0
  5 32  1  0
  5 33  1  0
  8 34  1  0
  8 35  1  0
 12 36  1  0
 15 37  1  0
 16 38  1  0
 17 39  1  0
 18 40  1  0
 21 41  1  0
 21 42  1  0
 21 43  1  0
M  CHG  1  12   1
M  END
>  <UniqueID>  (25) 
24

>  <SMILES>  (25) 
CCN(CC)C(=O)CSc1n[nH+]c2c3ccccc3n(C)c2n1

>  <Energy>  (25) 
79.02868571386315

>  <Genealogy>  (25) 
CCN(CC)C(=O)CSc1n[nH+]c2c3ccccc3n(C)c2n1 (protonated)
CCN(CC)C(=O)CSc1n[nH+]c2c3ccccc3n(C)c2n1 (3D coordinates assigned)
CCN(CC)C(=O)CSc1n[nH+]c2c3ccccc3n(C)c2n1 (optimized conformer: 79.02868571386315 kcal/mol)

>  <smiles>  (25) 
CCN(CC)C(=O)CSc1nnc2c3ccccc3n(C)c2n1

>  <score_type>  (25) 
oracle

>  <origin>  (25) 
adg

>  <m_score__min__energy>  (25) 
-6.4000000000000004

>  <m_primary>  (25) 
energy

$$$$
25:0
     RDKit          3D

 45 49  0  0  0  0  0  0  0  0999 V2000
   51.7983   21.7700   46.8357 H   0  0  0  0  0  0  0  0  0  0  0  0
   52.5780   22.1770   46.1750 C   0  0  0  0  0  0  0  0  0  0  0  0
   53.8860   21.8800   46.2860 N   0  0  0  0  0  0  0  0  0  0  0  0
   54.4240   22.5860   45.2710 C   0  0  0  0  0  0  0  0  0  0  0  0
   55.8820   22.6520   45.0050 C   0  0  0  0  0  0  0  0  0  0  0  0
   56.4440   21.6580   44.1840 C   0  0  0  0  0  0  0  0  0  0  0  0
   55.7912   20.9038   43.7203 H   0  0  0  0  0  0  0  0  0  0  0  0
   57.8190   21.6160   43.9500 C   0  0  0  0  0  0  0  0  0  0  0  0
   58.2414   20.8280   43.3092 H   0  0  0  0  0  0  0  0  0  0  0  0
   58.6590   22.5670   44.5240 C   0  0  0  0  0  0  0  0  0  0  0  0
   59.7441   22.5174   44.3504 H   0  0  0  0  0  0  0  0  0  0  0  0
   58.1260   23.5840   45.3200 C   0  0  0  0  0  0  0  0  0  0  0  0
   58.9540   24.5210   45.8500 N   0  0  0  0  0  0  0  0  0  0  0  0
   58.4740   25.5480   46.5960 C   0  0  0  0  0  0  0  0  0  0  0  0
   59.3100   26.4040   47.1050 N   0  0  0  0  0  0  0  0  0  0  0  0
   59.2920   27.8330   46.9400 C   0  0  0  0  0  0  0  0  0  0  0  0
   58.5710   28.6750   47.8060 C   0  0  0  0  0  0  0  0  0  0  0  0
   58.0212   28.2447   48.6561 H   0  0  0  0  0  0  0  0  0  0  0  0
   58.5500   30.0570   47.5910 C   0  0  0  0  0  0  0  0  0  0  0  0
   57.9997   30.7096   48.2848 H   0  0  0  0  0  0  0  0  0  0  0  0
   59.2270   30.6170   46.4950 C   0  0  0  0  0  0  0  0  0  0  0  0
   59.2090   32.0840   46.2770 C   0  0  0  0  0  0  0  0  0  0  0  0
   60.2820   32.8680   46.7320 C   0  0  0  0  0  0  0  0  0  0  0  0
   61.1232   32.3911   47.2563 H   0  0  0  0  0  0  0  0  0  0  0  0
   60.2880   34.2110   46.5290 N   0  0  0  0  0  0  0  0  0  0  0  0
   59.2690   34.8410   45.8910 C   0  0  0  0  0  0  0  0  0  0  0  0
   59.3059   35.9300   45.7402 H   0  0  0  0  0  0  0  0  0  0  0  0
   58.1750   34.1110   45.4260 C   0  0  0  0  0  0  0  0  0  0  0  0
   57.3500   34.6221   44.9082 H   0  0  0  0  0  0  0  0  0  0  0  0
   58.1310   32.7180   45.6220 C   0  0  0  0  0  0  0  0  0  0  0  0
   57.0340   31.9480   45.2030 O   0  0  0  0  0  0  0  0  0  0  0  0
   57.0110   31.1460   44.0270 C   0  0  0  0  0  0  0  0  0  0  0  0
   56.9805   30.0831   44.3086 H   0  0  0  0  0  0  0  0  0  0  0  0
   56.1196   31.3934   43.4319 H   0  0  0  0  0  0  0  0  0  0  0  0
   57.9151   31.3419   43.4319 H   0  0  0  0  0  0  0  0  0  0  0  0
   59.9270   29.7710   45.6190 C   0  0  0  0  0  0  0  0  0  0  0  0
   60.4625   30.1976   44.7581 H   0  0  0  0  0  0  0  0  0  0  0  0
   59.9470   28.3900   45.8350 C   0  0  0  0  0  0  0  0  0  0  0  0
   60.4818   27.7355   45.1310 H   0  0  0  0  0  0  0  0  0  0  0  0
   57.1360   25.6440   46.8220 N   0  0  0  0  0  0  0  0  0  0  0  0
   56.2630   24.7350   46.3200 C   0  0  0  0  0  0  0  0  0  0  0  0
   55.1850   24.8492   46.5066 H   0  0  0  0  0  0  0  0  0  0  0  0
   56.7320   23.6460   45.5610 C   0  0  0  0  0  0  0  0  0  0  0  0
   53.4980   23.2930   44.5980 N   0  0  0  0  0  0  0  0  0  0  0  0
   52.3340   23.0290   45.1630 N   0  0  0  0  0  0  0  0  0  0  0  0
  1  2  1  0
  2  3  2  0
  3  4  1  0
  4  5  1  0
  5  6  2  0
  6  7  1  0
  6  8  1  0
  8  9  1  0
  8 10  2  0
 10 11  1  0
 10 12  1  0
 12 13  2  0
 13 14  1  0
 14 15  2  0
 15 16  1  0
 16 17  2  0
 17 18  1  0
 17 19  1  0
 19 20  1  0
 19 21  2  0
 21 22  1  0
 22 23  2  0
 23 24  1  0
 23 25  1  0
 25 26  2  0
 26 27  1  0
 26 28  1  0
 28 29  1  0
 28 30  2  0
 30 31  1  0
 31 32  1  0
 32 33  1  0
 32 34  1  0
 32 35  1  0
 21 36  1  0
 36 37  1  0
 36 38  2  0
 38 39  1  0
 14 40  1  0
 40 41  1  0
 41 42  1  0
 41 43  2  0
  4 44  2  0
 44 45  1  0
 45  2  1  0
 43  5  1  0
 43 12  1  0
 38 16  1  0
 30 22  1  0
M  CHG  2  40  -1  45  -1
M  END
>  <UniqueID>  (26) 
25

>  <SMILES>  (26) 
COc1ccncc1-c1ccc(/N=c2/nc3cccc(-c4nc[n-]n4)c3c[n-]2)cc1

>  <Energy>  (26) 
107.07783426092163

>  <Genealogy>  (26) 
COc1ccncc1-c1ccc(N=c2nc3cccc(-c4nc[n-]n4)c3c[n-]2)cc1 (protonated)
COc1ccncc1-c1ccc(/N=c2/nc3cccc(-c4nc[n-]n4)c3c[n-]2)cc1 (cis-trans isomerization)
COc1ccncc1-c1ccc(/N=c2/nc3cccc(-c4nc[n-]n4)c3c[n-]2)cc1 (3D coordinates assigned)
COc1ccncc1-c1ccc(/N=c2/nc3cccc(-c4nc[n-]n4)c3c[n-]2)cc1 (optimized conformer: 107.07783426092163 kcal/mol)

>  <smiles>  (26) 
COc1ccncc1-c1ccc(N=c2nc3cccc(-c4nc[nH]n4)c3c[nH]2)cc1

>  <score_type>  (26) 
oracle

>  <origin>  (26) 
adg

>  <m_score__min__energy>  (26) 
-11.130000000000001

>  <m_primary>  (26) 
energy

$$$$
26:0
     RDKit          3D

 35 36  0  0  1  0  0  0  0  0999 V2000
   55.8920   22.6040   42.8120 N   0  0  0  0  0  0  0  0  0  0  0  0
   56.1550   24.8050   45.5130 C   0  0  0  0  0  0  0  0  0  0  0  0
   57.4890   22.7500   44.5090 C   0  0  0  0  0  0  0  0  0  0  0  0
   57.9570   23.3590   45.6360 C   0  0  0  0  0  0  0  0  0  0  0  0
   57.2640   24.4020   46.1310 N   0  0  0  0  0  0  0  0  0  0  0  0
   57.7070   25.0840   47.3140 C   0  0  0  0  0  0  0  0  0  0  0  0
   58.8650   25.9750   47.0680 C   0  0  0  0  0  0  0  0  0  0  0  0
   58.9390   27.2120   47.5280 C   0  0  0  0  0  0  0  0  0  0  0  0
   58.5690   28.4310   46.8110 C   0  0  0  0  0  0  0  0  0  0  0  0
   57.4160   28.3570   45.9750 N   0  0  0  0  0  0  0  0  0  0  0  0
   57.3090   29.3380   44.9210 C   0  0  0  0  0  0  0  0  0  0  0  0
   57.8220   30.6160   45.0720 C   0  0  0  0  0  0  0  0  0  0  0  0
   57.7350   31.5740   44.0830 C   0  0  0  0  0  0  0  0  0  0  0  0
   57.1090   31.2310   42.9000 C   0  0  0  0  0  0  0  0  0  0  0  0
   56.5820   29.9710   42.7000 C   0  0  0  0  0  0  0  0  0  0  0  0
   56.6970   29.0570   43.7210 C   0  0  0  0  0  0  0  0  0  0  0  0
   56.3320   23.1860   43.8820 C   0  0  0  0  0  0  0  0  0  0  0  0
   55.4960   25.7900   45.9750 O   0  0  0  0  0  0  0  0  0  0  0  0
   55.6530   24.2380   44.4010 N   0  0  0  0  0  0  0  0  0  0  0  0
   56.3400   22.9160   41.9250 H   0  0  0  0  0  0  0  0  0  0  0  0
   58.0405   21.8959   44.0892 H   0  0  0  0  0  0  0  0  0  0  0  0
   58.8761   23.0075   46.1275 H   0  0  0  0  0  0  0  0  0  0  0  0
   56.8748   25.6896   47.7021 H   0  0  0  0  0  0  0  0  0  0  0  0
   58.0280   24.3180   48.0352 H   0  0  0  0  0  0  0  0  0  0  0  0
   59.7051   25.5877   46.4728 H   0  0  0  0  0  0  0  0  0  0  0  0
   59.3170   27.3367   48.5535 H   0  0  0  0  0  0  0  0  0  0  0  0
   58.3881   29.2163   47.5597 H   0  0  0  0  0  0  0  0  0  0  0  0
   59.4084   28.6314   46.1289 H   0  0  0  0  0  0  0  0  0  0  0  0
   56.6370   27.6720   46.0380 H   0  0  0  0  0  0  0  0  0  0  0  0
   58.3185   30.8774   46.0181 H   0  0  0  0  0  0  0  0  0  0  0  0
   58.1517   32.5811   44.2319 H   0  0  0  0  0  0  0  0  0  0  0  0
   57.0287   31.9800   42.0984 H   0  0  0  0  0  0  0  0  0  0  0  0
   56.0861   29.7065   41.7544 H   0  0  0  0  0  0  0  0  0  0  0  0
   56.2788   28.0507   43.5709 H   0  0  0  0  0  0  0  0  0  0  0  0
   54.7770   24.5960   43.9570 H   0  0  0  0  0  0  0  0  0  0  0  0
  1  2  2  3
  2  3  1  0
  3  4  2  0
  4  5  1  0
  5  6  1  0
  6  7  1  0
  7  8  2  0
  8  9  1  0
  9 10  1  0
 10 11  1  0
 11 12  2  0
 12 13  1  0
 13 14  2  0
 14 15  1  0
 15 16  2  0
  5 17  1  0
 17 18  2  0
 17 19  1  0
 19  2  1  0
 16 11  1  0
  1 20  1  0
  3 21  1  0
  4 22  1  0
  6 23  1  0
  6 24  1  0
  7 25  1  0
  8 26  1  0
  9 27  1  0
  9 28  1  0
 10 29  1  0
 12 30  1  0
 13 31  1  0
 14 32  1  0
 15 33  1  0
 16 34  1  0
 19 35  1  0
M  END
>  <smiles>  (27) 
N=c1ccn(CC=CCNc2ccccc2)c(=O)[nH]1

>  <score_type>  (27) 
oracle

>  <origin>  (27) 
adg

>  <m_score__min__energy>  (27) 
-6.8399999999999999

>  <m_primary>  (27) 
energy

$$$$
27:0
     RDKit          3D

 38 40  0  0  0  0  0  0  0  0999 V2000
   60.7230   27.6790   49.4730 C   0  0  0  0  0  0  0  0  0  0  0  0
   60.6020   26.8800   48.3000 O   0  0  0  0  0  0  0  0  0  0  0  0
   59.7880   27.2020   47.2040 C   0  0  0  0  0  0  0  0  0  0  0  0
   58.4160   26.8950   47.1650 C   0  0  0  0  0  0  0  0  0  0  0  0
   57.6480   27.2390   46.0500 C   0  0  0  0  0  0  0  0  0  0  0  0
   58.2290   27.8970   44.9560 C   0  0  0  0  0  0  0  0  0  0  0  0
   57.4060   28.2430   43.8270 N   0  0  0  0  0  0  0  0  0  0  0  0
   56.4810   29.7070   43.7150 S   0  0  0  0  0  0  0  0  0  0  0  0
   56.2110   30.0080   42.2670 O   0  0  0  0  0  0  0  0  0  0  0  0
   55.1700   29.5210   44.4280 O   0  0  0  0  0  0  0  0  0  0  0  0
   57.3560   31.0320   44.4760 C   0  0  0  0  0  0  0  0  0  0  0  0
   57.6360   32.2050   43.7350 C   0  0  0  0  0  0  0  0  0  0  0  0
   58.3180   33.2810   44.3300 C   0  0  0  0  0  0  0  0  0  0  0  0
   58.7090   33.1500   45.6640 C   0  0  0  0  0  0  0  0  0  0  0  0
   58.4430   32.0130   46.3800 C   0  0  0  0  0  0  0  0  0  0  0  0
   58.9490   32.1910   47.6500 C   0  0  0  0  0  0  0  0  0  0  0  0
   59.5140   33.4620   47.6450 C   0  0  0  0  0  0  0  0  0  0  0  0
   59.3640   34.0420   46.4300 N   0  0  0  0  0  0  0  0  0  0  0  0
   59.8220   35.3730   46.0410 C   0  0  0  0  0  0  0  0  0  0  0  0
   57.7690   30.9300   45.8210 C   0  0  0  0  0  0  0  0  0  0  0  0
   59.6040   28.1960   44.9950 C   0  0  0  0  0  0  0  0  0  0  0  0
   60.3700   27.8520   46.1110 C   0  0  0  0  0  0  0  0  0  0  0  0
   60.6263   27.0403   50.3633 H   0  0  0  0  0  0  0  0  0  0  0  0
   61.7061   28.1724   49.4808 H   0  0  0  0  0  0  0  0  0  0  0  0
   59.9301   28.4414   49.4808 H   0  0  0  0  0  0  0  0  0  0  0  0
   57.9455   26.3816   48.0165 H   0  0  0  0  0  0  0  0  0  0  0  0
   56.5764   26.9913   46.0297 H   0  0  0  0  0  0  0  0  0  0  0  0
   57.2850   27.5480   43.0570 H   0  0  0  0  0  0  0  0  0  0  0  0
   57.3173   32.2754   42.6845 H   0  0  0  0  0  0  0  0  0  0  0  0
   58.5367   34.1974   43.7623 H   0  0  0  0  0  0  0  0  0  0  0  0
   58.9135   31.4797   48.4883 H   0  0  0  0  0  0  0  0  0  0  0  0
   60.0125   33.9303   48.5065 H   0  0  0  0  0  0  0  0  0  0  0  0
   60.0269   35.9684   46.9430 H   0  0  0  0  0  0  0  0  0  0  0  0
   60.7413   35.2843   45.4435 H   0  0  0  0  0  0  0  0  0  0  0  0
   59.0428   35.8688   45.4435 H   0  0  0  0  0  0  0  0  0  0  0  0
   57.5651   30.0235   46.4098 H   0  0  0  0  0  0  0  0  0  0  0  0
   60.0778   28.7034   44.1417 H   0  0  0  0  0  0  0  0  0  0  0  0
   61.4427   28.0949   46.1305 H   0  0  0  0  0  0  0  0  0  0  0  0
  1  2  1  0
  2  3  1  0
  3  4  2  0
  4  5  1  0
  5  6  2  0
  6  7  1  0
  7  8  1  0
  8  9  2  0
  8 10  2  0
  8 11  1  0
 11 12  2  0
 12 13  1  0
 13 14  2  0
 14 15  1  0
 15 16  1  0
 16 17  2  0
 17 18  1  0
 18 19  1  0
 15 20  2  0
  6 21  1  0
 21 22  2  0
 22  3  1  0
 20 11  1  0
 18 14  1  0
  1 23  1  0
  1 24  1  0
  1 25  1  0
  4 26  1  0
  5 27  1  0
  7 28  1  0
 12 29  1  0
 13 30  1  0
 16 31  1  0
 17 32  1  0
 19 33  1  0
 19 34  1  0
 19 35  1  0
 20 36  1  0
 21 37  1  0
 22 38  1  0
M  END
>  <UniqueID>  (28) 
26

>  <SMILES>  (28) 
COc1ccc(NS(=O)(=O)c2ccc3c(ccn3C)c2)cc1

>  <Energy>  (28) 
74.74053071415467

>  <Genealogy>  (28) 
COc1ccc(NS(=O)(=O)c2ccc3c(ccn3C)c2)cc1 (3D coordinates assigned)
COc1ccc(NS(=O)(=O)c2ccc3c(ccn3C)c2)cc1 (optimized conformer: 74.74053071415467 kcal/mol)

>  <smiles>  (28) 
COc1ccc(NS(=O)(=O)c2ccc3c(ccn3C)c2)cc1

>  <score_type>  (28) 
oracle

>  <origin>  (28) 
adg

>  <m_score__min__energy>  (28) 
-8.0999999999999996

>  <m_primary>  (28) 
energy

$$$$
28:0
     RDKit          3D

 40 42  0  0  0  0  0  0  0  0999 V2000
   59.2910   35.6390   44.8870 C   0  0  0  0  0  0  0  0  0  0  0  0
   58.3370   34.6400   45.2360 O   0  0  0  0  0  0  0  0  0  0  0  0
   58.6350   33.2790   45.4080 C   0  0  0  0  0  0  0  0  0  0  0  0
   57.9870   32.2730   44.6690 C   0  0  0  0  0  0  0  0  0  0  0  0
   58.3120   30.9210   44.8540 C   0  0  0  0  0  0  0  0  0  0  0  0
   59.2780   30.5660   45.8220 C   0  0  0  0  0  0  0  0  0  0  0  0
   59.9280   31.5710   46.5500 C   0  0  0  0  0  0  0  0  0  0  0  0
   59.6120   32.9270   46.3510 C   0  0  0  0  0  0  0  0  0  0  0  0
   60.2450   33.9540   47.0690 O   0  0  0  0  0  0  0  0  0  0  0  0
   59.6990   34.5900   48.2200 C   0  0  0  0  0  0  0  0  0  0  0  0
   59.6820   29.1280   46.0480 C   0  0  0  0  0  0  0  0  0  0  0  0
   58.7870   28.2010   45.3520 N   0  0  0  0  0  0  0  0  0  0  0  0
   58.4360   26.9460   45.9480 C   0  0  0  0  0  0  0  0  0  0  0  0
   57.1830   26.3850   46.0860 C   0  0  0  0  0  0  0  0  0  0  0  0
   55.9240   27.0150   45.8320 N   0  0  0  0  0  0  0  0  0  0  0  0
   55.8920   28.1600   45.3370 O   0  0  0  0  0  0  0  0  0  0  0  0
   54.7470   26.3240   45.9990 O   0  0  0  0  0  0  0  0  0  0  0  0
   57.3080   25.1340   46.5740 N   0  0  0  0  0  0  0  0  0  0  0  0
   58.5850   24.9110   46.7220 O   0  0  0  0  0  0  0  0  0  0  0  0
   59.3000   25.9540   46.3570 C   0  0  0  0  0  0  0  0  0  0  0  0
   60.7900   26.0130   46.3800 C   0  0  0  0  0  0  0  0  0  0  0  0
   58.3000   28.5470   44.0190 C   0  0  0  0  0  0  0  0  0  0  0  0
   57.5460   29.8740   44.0830 C   0  0  0  0  0  0  0  0  0  0  0  0
   59.7120   36.0798   45.8027 H   0  0  0  0  0  0  0  0  0  0  0  0
   60.0983   35.1840   44.2944 H   0  0  0  0  0  0  0  0  0  0  0  0
   58.7992   36.4245   44.2944 H   0  0  0  0  0  0  0  0  0  0  0  0
   57.2150   32.5501   43.9361 H   0  0  0  0  0  0  0  0  0  0  0  0
   60.6963   31.2958   47.2876 H   0  0  0  0  0  0  0  0  0  0  0  0
   60.1045   34.1177   49.1269 H   0  0  0  0  0  0  0  0  0  0  0  0
   59.9668   35.6569   48.2111 H   0  0  0  0  0  0  0  0  0  0  0  0
   58.6039   34.4868   48.2111 H   0  0  0  0  0  0  0  0  0  0  0  0
   60.7067   28.9823   45.6755 H   0  0  0  0  0  0  0  0  0  0  0  0
   59.6227   28.9193   47.1264 H   0  0  0  0  0  0  0  0  0  0  0  0
   61.1403   26.0269   47.4226 H   0  0  0  0  0  0  0  0  0  0  0  0
   61.1999   25.1304   45.8672 H   0  0  0  0  0  0  0  0  0  0  0  0
   61.1288   26.9253   45.8672 H   0  0  0  0  0  0  0  0  0  0  0  0
   59.1523   28.6420   43.3301 H   0  0  0  0  0  0  0  0  0  0  0  0
   57.6243   27.7575   43.6582 H   0  0  0  0  0  0  0  0  0  0  0  0
   57.3795   30.2380   43.0584 H   0  0  0  0  0  0  0  0  0  0  0  0
   56.5921   29.6989   44.6021 H   0  0  0  0  0  0  0  0  0  0  0  0
  1  2  1  0
  2  3  1  0
  3  4  2  0
  4  5  1  0
  5  6  2  0
  6  7  1  0
  7  8  2  0
  8  9  1  0
  9 10  1  0
  6 11  1  0
 11 12  1  0
 12 13  1  0
 13 14  1  0
 14 15  1  0
 15 16  2  0
 15 17  1  0
 14 18  2  0
 18 19  1  0
 19 20  1  0
 20 21  1  0
 12 22  1  0
 22 23  1  0
  8  3  1  0
 20 13  2  0
 23  5  1  0
  1 24  1  0
  1 25  1  0
  1 26  1  0
  4 27  1  0
  7 28  1  0
 10 29  1  0
 10 30  1  0
 10 31  1  0
 11 32  1  0
 11 33  1  0
 21 34  1  0
 21 35  1  0
 21 36  1  0
 22 37  1  0
 22 38  1  0
 23 39  1  0
 23 40  1  0
M  CHG  2  15   1  17  -1
M  END
>  <UniqueID>  (29) 
27

>  <SMILES>  (29) 
COc1cc2c(cc1OC)CN(c1c([N+](=O)[O-])noc1C)CC2

>  <Energy>  (29) 
79.25793756366642

>  <Genealogy>  (29) 
COc1cc2c(cc1OC)CN(c1c([N+](=O)[O-])noc1C)CC2 (3D coordinates assigned)
COc1cc2c(cc1OC)CN(c1c([N+](=O)[O-])noc1C)CC2 (nonaromatic ring conformer: 79.25793756366642 kcal/mol)

>  <smiles>  (29) 
COc1cc2c(cc1OC)CN(c1c([N+](=O)[O-])noc1C)CC2

>  <score_type>  (29) 
oracle

>  <origin>  (29) 
adg

>  <m_score__min__energy>  (29) 
-7.3099999999999996

>  <m_primary>  (29) 
energy

$$$$
29:0
     RDKit          3D

 40 41  0  0  0  0  0  0  0  0999 V2000
   56.5780   27.0080   45.6710 C   0  0  0  0  0  0  0  0  0  0  0  0
   55.9150   28.2000   45.2620 O   0  0  0  0  0  0  0  0  0  0  0  0
   56.5390   29.2730   44.6060 C   0  0  0  0  0  0  0  0  0  0  0  0
   56.0770   29.7610   43.3680 C   0  0  0  0  0  0  0  0  0  0  0  0
   56.7340   30.8200   42.7400 C   0  0  0  0  0  0  0  0  0  0  0  0
   57.8500   31.4040   43.3390 C   0  0  0  0  0  0  0  0  0  0  0  0
   58.3160   30.9300   44.5660 C   0  0  0  0  0  0  0  0  0  0  0  0
   57.6680   29.8550   45.2070 C   0  0  0  0  0  0  0  0  0  0  0  0
   58.0950   29.3360   46.4410 O   0  0  0  0  0  0  0  0  0  0  0  0
   58.9250   29.9960   47.4000 C   0  0  0  0  0  0  0  0  0  0  0  0
   60.2700   30.3920   46.7830 C   0  0  0  0  0  0  0  0  0  0  0  0
   60.9240   31.5300   47.5260 C   0  0  0  0  0  0  0  0  0  0  0  0
   62.0790   31.3430   47.9990 O   0  0  0  0  0  0  0  0  0  0  0  0
   60.2540   32.7900   47.7590 N   0  0  0  0  0  0  0  0  0  0  0  0
   60.6580   33.6090   48.9070 C   0  0  0  0  0  0  0  0  0  0  0  0
   59.3120   33.3340   46.8170 C   0  0  0  0  0  0  0  0  0  0  0  0
   57.9340   33.1050   46.9750 C   0  0  0  0  0  0  0  0  0  0  0  0
   57.0220   33.6400   46.0600 C   0  0  0  0  0  0  0  0  0  0  0  0
   57.4780   34.3960   44.9760 C   0  0  0  0  0  0  0  0  0  0  0  0
   58.8480   34.6090   44.8000 C   0  0  0  0  0  0  0  0  0  0  0  0
   59.7640   34.0710   45.7120 C   0  0  0  0  0  0  0  0  0  0  0  0
   56.6039   26.9614   46.7697 H   0  0  0  0  0  0  0  0  0  0  0  0
   56.0362   26.1343   45.2796 H   0  0  0  0  0  0  0  0  0  0  0  0
   57.6060   27.0075   45.2796 H   0  0  0  0  0  0  0  0  0  0  0  0
   55.1948   29.3055   42.8944 H   0  0  0  0  0  0  0  0  0  0  0  0
   56.3713   31.1946   41.7714 H   0  0  0  0  0  0  0  0  0  0  0  0
   58.3642   32.2404   42.8429 H   0  0  0  0  0  0  0  0  0  0  0  0
   59.1939   31.3979   45.0355 H   0  0  0  0  0  0  0  0  0  0  0  0
   58.4124   30.9016   47.7565 H   0  0  0  0  0  0  0  0  0  0  0  0
   59.1128   29.3050   48.2350 H   0  0  0  0  0  0  0  0  0  0  0  0
   60.9412   29.5208   46.8072 H   0  0  0  0  0  0  0  0  0  0  0  0
   60.0836   30.7248   45.7513 H   0  0  0  0  0  0  0  0  0  0  0  0
   60.3999   33.0858   49.8396 H   0  0  0  0  0  0  0  0  0  0  0  0
   61.7440   33.7803   48.8711 H   0  0  0  0  0  0  0  0  0  0  0  0
   60.1330   34.5750   48.8711 H   0  0  0  0  0  0  0  0  0  0  0  0
   57.5720   32.5029   47.8214 H   0  0  0  0  0  0  0  0  0  0  0  0
   55.9441   33.4658   46.1933 H   0  0  0  0  0  0  0  0  0  0  0  0
   56.7587   34.8231   44.2618 H   0  0  0  0  0  0  0  0  0  0  0  0
   59.2069   35.1998   43.9443 H   0  0  0  0  0  0  0  0  0  0  0  0
   60.8425   34.2268   45.5616 H   0  0  0  0  0  0  0  0  0  0  0  0
  1  2  1  0
  2  3  1  0
  3  4  2  0
  4  5  1  0
  5  6  2  0
  6  7  1  0
  7  8  2  0
  8  9  1  0
  9 10  1  0
 10 11  1  0
 11 12  1  0
 12 13  2  0
 12 14  1  0
 14 15  1  0
 14 16  1  0
 16 17  2  0
 17 18  1  0
 18 19  2  0
 19 20  1  0
 20 21  2  0
  8  3  1  0
 21 16  1  0
  1 22  1  0
  1 23  1  0
  1 24  1  0
  4 25  1  0
  5 26  1  0
  6 27  1  0
  7 28  1  0
 10 29  1  0
 10 30  1  0
 11 31  1  0
 11 32  1  0
 15 33  1  0
 15 34  1  0
 15 35  1  0
 17 36  1  0
 18 37  1  0
 19 38  1  0
 20 39  1  0
 21 40  1  0
M  END
>  <UniqueID>  (30) 
28

>  <SMILES>  (30) 
COc1ccccc1OCCC(=O)N(C)c1ccccc1

>  <Energy>  (30) 
41.91072278125386

>  <Genealogy>  (30) 
COc1ccccc1OCCC(=O)N(C)c1ccccc1 (3D coordinates assigned)
COc1ccccc1OCCC(=O)N(C)c1ccccc1 (optimized conformer: 41.91072278125386 kcal/mol)

>  <smiles>  (30) 
COc1ccccc1OCCC(=O)N(C)c1ccccc1

>  <score_type>  (30) 
oracle

>  <origin>  (30) 
adg

>  <m_score__min__energy>  (30) 
-7.5199999999999996

>  <m_primary>  (30) 
energy

$$$$
30:0
     RDKit          3D

 42 44  0  0  0  0  0  0  0  0999 V2000
   64.1030   33.3990   51.8300 C   0  0  0  0  0  0  0  0  0  0  0  0
   63.6150   33.3150   50.4520 N   0  0  0  0  0  0  0  0  0  0  0  0
   62.1660   33.2610   50.2090 C   0  0  0  0  0  0  0  0  0  0  0  0
   61.7850   33.5080   48.7680 C   0  0  0  0  0  0  0  0  0  0  0  0
   60.4430   33.7770   48.4510 C   0  0  0  0  0  0  0  0  0  0  0  0
   60.0440   33.9630   47.1230 C   0  0  0  0  0  0  0  0  0  0  0  0
   58.6600   34.2160   46.8420 N   0  0  0  0  0  0  0  0  0  0  0  0
   57.9330   33.7540   45.6980 C   0  0  0  0  0  0  0  0  0  0  0  0
   57.4750   34.5990   44.8850 O   0  0  0  0  0  0  0  0  0  0  0  0
   57.7680   32.3200   45.4110 C   0  0  0  0  0  0  0  0  0  0  0  0
   58.7500   31.4100   45.5520 N   0  0  0  0  0  0  0  0  0  0  0  0
   58.1210   30.2730   45.1780 C   0  0  0  0  0  0  0  0  0  0  0  0
   58.7600   28.8990   45.2320 C   0  0  0  0  0  0  0  0  0  0  0  0
   60.2800   29.0120   45.0020 C   0  0  0  0  0  0  0  0  0  0  0  0
   58.5120   28.2530   46.6100 C   0  0  0  0  0  0  0  0  0  0  0  0
   58.1370   28.0200   44.1340 C   0  0  0  0  0  0  0  0  0  0  0  0
   56.8260   30.4870   44.8670 N   0  0  0  0  0  0  0  0  0  0  0  0
   56.6500   31.7640   45.0160 O   0  0  0  0  0  0  0  0  0  0  0  0
   60.9880   33.8190   46.0930 C   0  0  0  0  0  0  0  0  0  0  0  0
   62.3210   33.5390   46.3960 C   0  0  0  0  0  0  0  0  0  0  0  0
   62.7280   33.3850   47.7290 C   0  0  0  0  0  0  0  0  0  0  0  0
   64.0990   33.1140   48.0300 N   0  0  0  0  0  0  0  0  0  0  0  0
   64.5540   33.1180   49.3810 C   0  0  0  0  0  0  0  0  0  0  0  0
   65.7810   32.9640   49.6240 O   0  0  0  0  0  0  0  0  0  0  0  0
   63.2633   33.2545   52.5258 H   0  0  0  0  0  0  0  0  0  0  0  0
   64.8585   32.6177   51.9997 H   0  0  0  0  0  0  0  0  0  0  0  0
   64.5538   34.3879   51.9997 H   0  0  0  0  0  0  0  0  0  0  0  0
   61.8016   32.2645   50.4992 H   0  0  0  0  0  0  0  0  0  0  0  0
   61.7086   34.0638   50.8059 H   0  0  0  0  0  0  0  0  0  0  0  0
   59.6969   33.8422   49.2567 H   0  0  0  0  0  0  0  0  0  0  0  0
   60.7959   29.0504   45.9728 H   0  0  0  0  0  0  0  0  0  0  0  0
   60.6310   28.1375   44.4345 H   0  0  0  0  0  0  0  0  0  0  0  0
   60.4978   29.9288   44.4345 H   0  0  0  0  0  0  0  0  0  0  0  0
   58.7852   28.9646   47.4031 H   0  0  0  0  0  0  0  0  0  0  0  0
   57.4485   27.9887   46.7050 H   0  0  0  0  0  0  0  0  0  0  0  0
   59.1254   27.3449   46.7050 H   0  0  0  0  0  0  0  0  0  0  0  0
   57.5605   27.2065   44.5986 H   0  0  0  0  0  0  0  0  0  0  0  0
   57.4698   28.6318   43.5091 H   0  0  0  0  0  0  0  0  0  0  0  0
   58.9353   27.5931   43.5091 H   0  0  0  0  0  0  0  0  0  0  0  0
   60.6754   33.9273   45.0439 H   0  0  0  0  0  0  0  0  0  0  0  0
   63.0568   33.4385   45.5845 H   0  0  0  0  0  0  0  0  0  0  0  0
   64.7890   32.9720   47.2570 H   0  0  0  0  0  0  0  0  0  0  0  0
  1  2  1  0
  2  3  1  0
  3  4  1  0
  4  5  2  0
  5  6  1  0
  6  7  1  0
  7  8  1  0
  8  9  2  0
  8 10  1  0
 10 11  2  0
 11 12  1  0
 12 13  1  0
 13 14  1  0
 13 15  1  0
 13 16  1  0
 12 17  2  0
 17 18  1  0
  6 19  2  0
 19 20  1  0
 20 21  2  0
 21 22  1  0
 22 23  1  0
 23 24  2  0
 23  2  1  0
 21  4  1  0
 18 10  1  0
  1 25  1  0
  1 26  1  0
  1 27  1  0
  3 28  1  0
  3 29  1  0
  5 30  1  0
 14 31  1  0
 14 32  1  0
 14 33  1  0
 15 34  1  0
 15 35  1  0
 15 36  1  0
 16 37  1  0
 16 38  1  0
 16 39  1  0
 19 40  1  0
 20 41  1  0
 22 42  1  0
M  CHG  1   7  -1
M  END
>  <UniqueID>  (31) 
29

>  <SMILES>  (31) 
CN1Cc2cc([N-]C(=O)c3nc(C(C)(C)C)no3)ccc2NC1=O

>  <Energy>  (31) 
75.41101909957418

>  <Genealogy>  (31) 
CN1Cc2cc([N-]C(=O)c3nc(C(C)(C)C)no3)ccc2NC1=O (protonated)
CN1Cc2cc([N-]C(=O)c3nc(C(C)(C)C)no3)ccc2NC1=O (3D coordinates assigned)
CN1Cc2cc([N-]C(=O)c3nc(C(C)(C)C)no3)ccc2NC1=O (nonaromatic ring conformer: 75.41101909957418 kcal/mol)

>  <smiles>  (31) 
CN1Cc2cc(NC(=O)c3nc(C(C)(C)C)no3)ccc2NC1=O

>  <score_type>  (31) 
oracle

>  <origin>  (31) 
adg

>  <m_score__min__energy>  (31) 
-9.4700000000000006

>  <m_primary>  (31) 
energy

$$$$
31:0
     RDKit          3D

 24 25  0  0  0  0  0  0  0  0999 V2000
   57.7650   26.1000   44.8560 C   0  0  0  0  0  0  0  0  0  0  0  0
   56.6470   27.0180   45.9580 S   0  0  0  0  0  0  0  0  0  0  0  0
   57.0070   28.5990   45.1950 C   0  0  0  0  0  0  0  0  0  0  0  0
   58.2930   28.8890   44.7360 C   0  0  0  0  0  0  0  0  0  0  0  0
   58.5390   30.1280   44.1480 C   0  0  0  0  0  0  0  0  0  0  0  0
   57.4930   31.0450   44.0340 C   0  0  0  0  0  0  0  0  0  0  0  0
   57.7680   32.6510   43.2950 S   0  0  0  0  0  0  0  0  0  0  0  0
   58.2850   33.3730   44.8490 C   0  0  0  0  0  0  0  0  0  0  0  0
   59.2310   34.4030   44.8700 C   0  0  0  0  0  0  0  0  0  0  0  0
   59.6130   34.9530   46.0950 C   0  0  0  0  0  0  0  0  0  0  0  0
   59.0510   34.4710   47.2790 C   0  0  0  0  0  0  0  0  0  0  0  0
   58.1100   33.4390   47.2170 C   0  0  0  0  0  0  0  0  0  0  0  0
   57.7510   32.9160   46.0140 N   0  0  0  0  0  0  0  0  0  0  0  0
   56.2580   30.7110   44.4910 N   0  0  0  0  0  0  0  0  0  0  0  0
   56.0220   29.5240   45.0540 N   0  0  0  0  0  0  0  0  0  0  0  0
   58.4761   25.5161   45.4588 H   0  0  0  0  0  0  0  0  0  0  0  0
   57.1776   25.4202   44.2213 H   0  0  0  0  0  0  0  0  0  0  0  0
   58.3175   26.8084   44.2213 H   0  0  0  0  0  0  0  0  0  0  0  0
   59.1011   28.1495   44.8371 H   0  0  0  0  0  0  0  0  0  0  0  0
   59.5440   30.3800   43.7786 H   0  0  0  0  0  0  0  0  0  0  0  0
   59.6689   34.7754   43.9322 H   0  0  0  0  0  0  0  0  0  0  0  0
   60.3551   35.7643   46.1275 H   0  0  0  0  0  0  0  0  0  0  0  0
   59.3452   34.8983   48.2490 H   0  0  0  0  0  0  0  0  0  0  0  0
   57.6596   33.0497   48.1420 H   0  0  0  0  0  0  0  0  0  0  0  0
  1  2  1  0
  2  3  1  0
  3  4  2  0
  4  5  1  0
  5  6  2  0
  6  7  1  0
  7  8  1  0
  8  9  2  0
  9 10  1  0
 10 11  2  0
 11 12  1  0
 12 13  2  0
  6 14  1  0
 14 15  2  0
 15  3  1  0
 13  8  1  0
  1 16  1  0
  1 17  1  0
  1 18  1  0
  4 19  1  0
  5 20  1  0
  9 21  1  0
 10 22  1  0
 11 23  1  0
 12 24  1  0
M  END
>  <UniqueID>  (32) 
30

>  <SMILES>  (32) 
CSc1ccc(Sc2ccccn2)nn1

>  <Energy>  (32) 
18.19730216696843

>  <Genealogy>  (32) 
CSc1ccc(Sc2ccccn2)nn1 (3D coordinates assigned)
CSc1ccc(Sc2ccccn2)nn1 (optimized conformer: 18.19730216696843 kcal/mol)

>  <smiles>  (32) 
CSc1ccc(Sc2ccccn2)nn1

>  <score_type>  (32) 
oracle

>  <origin>  (32) 
adg

>  <m_score__min__energy>  (32) 
-6.96

>  <m_primary>  (32) 
energy

$$$$
32:0
     RDKit          3D

 40 42  0  0  0  0  0  0  0  0999 V2000
   63.3830   33.8500   46.2880 C   0  0  0  0  0  0  0  0  0  0  0  0
   63.3700   34.0000   47.8060 C   0  0  0  0  0  0  0  0  0  0  0  0
   62.0960   33.5100   48.3610 N   0  0  0  0  0  0  0  0  0  0  0  0
   61.0750   33.2260   47.5000 C   0  0  0  0  0  0  0  0  0  0  0  0
   59.8540   32.7220   47.9600 C   0  0  0  0  0  0  0  0  0  0  0  0
   58.8200   32.3840   46.9580 C   0  0  0  0  0  0  0  0  0  0  0  0
   57.7550   33.0590   46.9260 O   0  0  0  0  0  0  0  0  0  0  0  0
   59.0370   31.3100   46.0260 N   0  0  0  0  0  0  0  0  0  0  0  0
   58.1000   30.9260   45.0080 C   0  0  0  0  0  0  0  0  0  0  0  0
   58.0060   31.6300   43.7930 C   0  0  0  0  0  0  0  0  0  0  0  0
   57.1010   31.2190   42.8090 C   0  0  0  0  0  0  0  0  0  0  0  0
   56.2960   30.0970   43.0210 C   0  0  0  0  0  0  0  0  0  0  0  0
   56.4000   29.3780   44.2150 C   0  0  0  0  0  0  0  0  0  0  0  0
   57.3040   29.7860   45.2010 C   0  0  0  0  0  0  0  0  0  0  0  0
   59.6640   32.5380   49.3480 C   0  0  0  0  0  0  0  0  0  0  0  0
   58.4270   32.1200   49.8850 C   0  0  0  0  0  0  0  0  0  0  0  0
   58.2640   31.9240   51.2660 C   0  0  0  0  0  0  0  0  0  0  0  0
   56.9980   31.4850   51.7960 N   0  0  0  0  0  0  0  0  0  0  0  0
   56.2440   32.2850   52.3870 O   0  0  0  0  0  0  0  0  0  0  0  0
   56.6020   30.1730   51.6650 O   0  0  0  0  0  0  0  0  0  0  0  0
   59.3500   32.1670   52.1210 C   0  0  0  0  0  0  0  0  0  0  0  0
   60.5700   32.6100   51.6110 C   0  0  0  0  0  0  0  0  0  0  0  0
   60.7380   32.8110   50.2290 C   0  0  0  0  0  0  0  0  0  0  0  0
   61.9570   33.2900   49.7070 C   0  0  0  0  0  0  0  0  0  0  0  0
   62.9250   33.5210   50.4870 O   0  0  0  0  0  0  0  0  0  0  0  0
   63.4752   32.7858   46.0255 H   0  0  0  0  0  0  0  0  0  0  0  0
   62.4468   34.2505   45.8719 H   0  0  0  0  0  0  0  0  0  0  0  0
   64.2364   34.4056   45.8719 H   0  0  0  0  0  0  0  0  0  0  0  0
   64.1994   33.4182   48.2346 H   0  0  0  0  0  0  0  0  0  0  0  0
   63.4832   35.0643   48.0598 H   0  0  0  0  0  0  0  0  0  0  0  0
   61.2156   33.3971   46.4225 H   0  0  0  0  0  0  0  0  0  0  0  0
   59.8860   30.7140   46.1530 H   0  0  0  0  0  0  0  0  0  0  0  0
   58.6466   32.5066   43.6166 H   0  0  0  0  0  0  0  0  0  0  0  0
   57.0229   31.7803   41.8662 H   0  0  0  0  0  0  0  0  0  0  0  0
   55.5804   29.7795   42.2483 H   0  0  0  0  0  0  0  0  0  0  0  0
   55.7706   28.4909   44.3792 H   0  0  0  0  0  0  0  0  0  0  0  0
   57.3918   29.2098   46.1339 H   0  0  0  0  0  0  0  0  0  0  0  0
   57.5763   31.9448   49.2101 H   0  0  0  0  0  0  0  0  0  0  0  0
   59.2379   32.0066   53.2034 H   0  0  0  0  0  0  0  0  0  0  0  0
   61.4087   32.8040   52.2958 H   0  0  0  0  0  0  0  0  0  0  0  0
  1  2  1  0
  2  3  1  0
  3  4  1  0
  4  5  2  0
  5  6  1  0
  6  7  2  0
  6  8  1  0
  8  9  1  0
  9 10  2  0
 10 11  1  0
 11 12  2  0
 12 13  1  0
 13 14  2  0
  5 15  1  0
 15 16  2  0
 16 17  1  0
 17 18  1  0
 18 19  2  0
 18 20  1  0
 17 21  2  0
 21 22  1  0
 22 23  2  0
 23 24  1  0
 24 25  2  0
 24  3  1  0
 14  9  1  0
 23 15  1  0
  1 26  1  0
  1 27  1  0
  1 28  1  0
  2 29  1  0
  2 30  1  0
  4 31  1  0
  8 32  1  0
 10 33  1  0
 11 34  1  0
 12 35  1  0
 13 36  1  0
 14 37  1  0
 16 38  1  0
 21 39  1  0
 22 40  1  0
M  CHG  2  18   1  20  -1
M  END
>  <UniqueID>  (33) 
31

>  <SMILES>  (33) 
CCn1cc(C(=O)Nc2ccccc2)c2cc([N+](=O)[O-])ccc2c1=O

>  <Energy>  (33) 
59.09749657750044

>  <Genealogy>  (33) 
CCn1cc(C(=O)Nc2ccccc2)c2cc([N+](=O)[O-])ccc2c1=O (3D coordinates assigned)
CCn1cc(C(=O)Nc2ccccc2)c2cc([N+](=O)[O-])ccc2c1=O (optimized conformer: 59.09749657750044 kcal/mol)

>  <smiles>  (33) 
CCn1cc(C(=O)Nc2ccccc2)c2cc([N+](=O)[O-])ccc2c1=O

>  <score_type>  (33) 
oracle

>  <origin>  (33) 
adg

>  <m_score__min__energy>  (33) 
-7.29

>  <m_primary>  (33) 
energy

$$$$
33:0
     RDKit          3D

 39 40  0  0  0  0  0  0  0  0999 V2000
   58.3186   29.4876   47.7490 H   0  0  0  0  0  0  0  0  0  0  0  0
   58.6620   29.6910   46.7240 C   0  0  0  0  0  0  0  0  0  0  0  0
   59.3200   28.7300   46.0640 C   0  0  0  0  0  0  0  0  0  0  0  0
   60.3671   28.5312   46.3363 H   0  0  0  0  0  0  0  0  0  0  0  0
   58.7100   27.9250   44.9900 C   0  0  0  0  0  0  0  0  0  0  0  0
   58.4220   26.6490   45.1370 O   0  0  0  0  0  0  0  0  0  0  0  0
   57.8920   26.2440   44.0060 C   0  0  0  0  0  0  0  0  0  0  0  0
   57.3920   24.8560   43.7480 C   0  0  0  0  0  0  0  0  0  0  0  0
   56.6154   24.8961   42.9700 H   0  0  0  0  0  0  0  0  0  0  0  0
   58.2440   24.2401   43.4244 H   0  0  0  0  0  0  0  0  0  0  0  0
   56.7940   24.2180   45.0180 C   0  0  0  0  0  0  0  0  0  0  0  0
   56.1961   23.3487   44.7066 H   0  0  0  0  0  0  0  0  0  0  0  0
   55.8620   25.1920   45.7550 C   0  0  0  0  0  0  0  0  0  0  0  0
   55.9835   25.0650   46.8409 H   0  0  0  0  0  0  0  0  0  0  0  0
   56.1165   26.2251   45.4759 H   0  0  0  0  0  0  0  0  0  0  0  0
   54.8187   24.9832   45.4759 H   0  0  0  0  0  0  0  0  0  0  0  0
   57.9160   23.7550   45.9550 C   0  0  0  0  0  0  0  0  0  0  0  0
   57.5985   23.8860   47.0000 H   0  0  0  0  0  0  0  0  0  0  0  0
   58.1346   22.6932   45.7686 H   0  0  0  0  0  0  0  0  0  0  0  0
   58.8198   24.3536   45.7686 H   0  0  0  0  0  0  0  0  0  0  0  0
   57.8460   27.3110   43.1350 C   0  0  0  0  0  0  0  0  0  0  0  0
   57.4523   27.2927   42.1080 H   0  0  0  0  0  0  0  0  0  0  0  0
   58.3680   28.3780   43.7640 N   0  0  0  0  0  0  0  0  0  0  0  0
   58.4640   29.3400   43.3720 H   0  0  0  0  0  0  0  0  0  0  0  0
   58.3780   31.0170   46.1290 C   0  0  0  0  0  0  0  0  0  0  0  0
   59.1420   32.1130   46.5620 C   0  0  0  0  0  0  0  0  0  0  0  0
   59.9266   31.9652   47.3186 H   0  0  0  0  0  0  0  0  0  0  0  0
   58.9150   33.3890   46.0410 C   0  0  0  0  0  0  0  0  0  0  0  0
   59.9510   34.8700   46.6570 Br  0  0  0  0  0  0  0  0  0  0  0  0
   57.9310   33.5810   45.0710 C   0  0  0  0  0  0  0  0  0  0  0  0
   57.7461   34.5881   44.6690 H   0  0  0  0  0  0  0  0  0  0  0  0
   57.1800   32.4980   44.6090 C   0  0  0  0  0  0  0  0  0  0  0  0
   56.4085   32.6568   43.8412 H   0  0  0  0  0  0  0  0  0  0  0  0
   57.4030   31.2030   45.1190 C   0  0  0  0  0  0  0  0  0  0  0  0
   56.7010   30.0900   44.6250 O   0  0  0  0  0  0  0  0  0  0  0  0
   55.9010   30.0940   43.4480 C   0  0  0  0  0  0  0  0  0  0  0  0
   54.8372   30.0993   43.7277 H   0  0  0  0  0  0  0  0  0  0  0  0
   56.1282   30.9910   42.8533 H   0  0  0  0  0  0  0  0  0  0  0  0
   56.1192   29.1948   42.8533 H   0  0  0  0  0  0  0  0  0  0  0  0
  1  2  1  0
  2  3  2  0
  3  4  1  0
  3  5  1  0
  5  6  1  0
  6  7  1  0
  7  8  1  0
  8  9  1  0
  8 10  1  0
  8 11  1  0
 11 12  1  0
 11 13  1  0
 13 14  1  0
 13 15  1  0
 13 16  1  0
 11 17  1  0
 17 18  1  0
 17 19  1  0
 17 20  1  0
  7 21  2  0
 21 22  1  0
 21 23  1  0
 23 24  1  0
  2 25  1  0
 25 26  2  0
 26 27  1  0
 26 28  1  0
 28 29  1  0
 28 30  2  0
 30 31  1  0
 30 32  1  0
 32 33  1  0
 32 34  2  0
 34 35  1  0
 35 36  1  0
 36 37  1  0
 36 38  1  0
 36 39  1  0
 23  5  2  0
 34 25  1  0
M  CHG  1  23   1
M  END
>  <UniqueID>  (34) 
32

>  <SMILES>  (34) 
COc1ccc(Br)cc1/C=C/c1[nH+]cc(CC(C)C)o1

>  <Energy>  (34) 
66.26797245022061

>  <Genealogy>  (34) 
COc1ccc(Br)cc1C=Cc1[nH+]cc(CC(C)C)o1 (protonated)
COc1ccc(Br)cc1/C=C/c1[nH+]cc(CC(C)C)o1 (cis-trans isomerization)
COc1ccc(Br)cc1/C=C/c1[nH+]cc(CC(C)C)o1 (3D coordinates assigned)
COc1ccc(Br)cc1/C=C/c1[nH+]cc(CC(C)C)o1 (optimized conformer: 66.26797245022061 kcal/mol)

>  <smiles>  (34) 
COc1ccc(Br)cc1C=Cc1ncc(CC(C)C)o1

>  <score_type>  (34) 
oracle

>  <origin>  (34) 
adg

>  <m_score__min__energy>  (34) 
-6.1699999999999999

>  <m_primary>  (34) 
energy

$$$$
34:0
     RDKit          3D

 40 41  0  0  0  0  0  0  0  0999 V2000
   60.6190   27.3420   46.1160 C   0  0  0  0  0  0  0  0  0  0  0  0
   61.0040   28.6210   44.8810 S   0  0  0  0  0  0  0  0  0  0  0  0
   59.3030   29.1930   44.7670 C   0  0  0  0  0  0  0  0  0  0  0  0
   58.9710   30.4820   45.1790 C   0  0  0  0  0  0  0  0  0  0  0  0
   57.6820   30.9290   45.1010 N   0  0  0  0  0  0  0  0  0  0  0  0
   57.3730   32.3040   45.5220 C   0  0  0  0  0  0  0  0  0  0  0  0
   58.1320   33.3110   44.6330 C   0  0  0  0  0  0  0  0  0  0  0  0
   59.1850   34.0720   45.3420 N   0  0  0  0  0  0  0  0  0  0  0  0
   59.2690   35.4720   44.8910 C   0  0  0  0  0  0  0  0  0  0  0  0
   59.0750   33.9710   46.8120 C   0  0  0  0  0  0  0  0  0  0  0  0
   60.4370   33.7770   47.4230 C   0  0  0  0  0  0  0  0  0  0  0  0
   61.5630   33.5790   46.6080 C   0  0  0  0  0  0  0  0  0  0  0  0
   62.8200   33.3770   47.1830 C   0  0  0  0  0  0  0  0  0  0  0  0
   62.9670   33.3630   48.5740 C   0  0  0  0  0  0  0  0  0  0  0  0
   64.5650   33.1030   49.2610 Cl  0  0  0  0  0  0  0  0  0  0  0  0
   61.8430   33.5520   49.3970 C   0  0  0  0  0  0  0  0  0  0  0  0
   61.9810   33.5340   51.1490 Cl  0  0  0  0  0  0  0  0  0  0  0  0
   60.5840   33.7550   48.8180 C   0  0  0  0  0  0  0  0  0  0  0  0
   56.7090   30.1100   44.5830 C   0  0  0  0  0  0  0  0  0  0  0  0
   55.5190   30.5160   44.4770 O   0  0  0  0  0  0  0  0  0  0  0  0
   57.0210   28.8490   44.1730 N   0  0  0  0  0  0  0  0  0  0  0  0
   58.2920   28.3770   44.2560 C   0  0  0  0  0  0  0  0  0  0  0  0
   58.5530   27.2060   43.8690 O   0  0  0  0  0  0  0  0  0  0  0  0
   60.7443   27.7584   47.1264 H   0  0  0  0  0  0  0  0  0  0  0  0
   59.5799   27.0060   45.9842 H   0  0  0  0  0  0  0  0  0  0  0  0
   61.3000   26.4882   45.9842 H   0  0  0  0  0  0  0  0  0  0  0  0
   59.7547   31.1468   45.5712 H   0  0  0  0  0  0  0  0  0  0  0  0
   56.2910   32.4791   45.4288 H   0  0  0  0  0  0  0  0  0  0  0  0
   57.6841   32.4399   46.5683 H   0  0  0  0  0  0  0  0  0  0  0  0
   58.6032   32.7564   43.8082 H   0  0  0  0  0  0  0  0  0  0  0  0
   57.3915   34.0457   44.2839 H   0  0  0  0  0  0  0  0  0  0  0  0
   59.3089   36.1373   45.7661 H   0  0  0  0  0  0  0  0  0  0  0  0
   60.1769   35.6082   44.2851 H   0  0  0  0  0  0  0  0  0  0  0  0
   58.3839   35.7158   44.2851 H   0  0  0  0  0  0  0  0  0  0  0  0
   58.6277   34.8950   47.2073 H   0  0  0  0  0  0  0  0  0  0  0  0
   58.4414   33.1085   47.0661 H   0  0  0  0  0  0  0  0  0  0  0  0
   61.4550   33.5829   45.5133 H   0  0  0  0  0  0  0  0  0  0  0  0
   63.6989   33.2282   46.5385 H   0  0  0  0  0  0  0  0  0  0  0  0
   59.7038   33.8983   49.4619 H   0  0  0  0  0  0  0  0  0  0  0  0
   56.2690   28.2340   43.7850 H   0  0  0  0  0  0  0  0  0  0  0  0
  1  2  1  0
  2  3  1  0
  3  4  2  0
  4  5  1  0
  5  6  1  0
  6  7  1  0
  7  8  1  0
  8  9  1  0
  8 10  1  0
 10 11  1  0
 11 12  2  0
 12 13  1  0
 13 14  2  0
 14 15  1  0
 14 16  1  0
 16 17  1  0
 16 18  2  0
  5 19  1  0
 19 20  2  0
 19 21  1  0
 21 22  1  0
 22 23  2  0
 22  3  1  0
 18 11  1  0
  1 24  1  0
  1 25  1  0
  1 26  1  0
  4 27  1  0
  6 28  1  0
  6 29  1  0
  7 30  1  0
  7 31  1  0
  9 32  1  0
  9 33  1  0
  9 34  1  0
 10 35  1  0
 10 36  1  0
 12 37  1  0
 13 38  1  0
 18 39  1  0
 21 40  1  0
M  END
>  <UniqueID>  (35) 
33

>  <SMILES>  (35) 
CSc1cn(CCN(C)Cc2ccc(Cl)c(Cl)c2)c(=O)[nH]c1=O

>  <Energy>  (35) 
41.01979578853329

>  <Genealogy>  (35) 
CSc1cn(CCN(C)Cc2ccc(Cl)c(Cl)c2)c(=O)[nH]c1=O (3D coordinates assigned)
CSc1cn(CCN(C)Cc2ccc(Cl)c(Cl)c2)c(=O)[nH]c1=O (optimized conformer: 41.01979578853329 kcal/mol)

>  <smiles>  (35) 
CSc1cn(CCN(C)Cc2ccc(Cl)c(Cl)c2)c(=O)[nH]c1=O

>  <score_type>  (35) 
oracle

>  <origin>  (35) 
adg

>  <m_score__min__energy>  (35) 
-8.3399999999999999

>  <m_primary>  (35) 
energy

$$$$
35:0
     RDKit          3D

 29 28  0  0  0  0  0  0  0  0999 V2000
   57.7720   25.9040   43.9530 C   0  0  0  0  0  0  0  0  0  0  0  0
   58.4300   27.1520   43.9590 O   0  0  0  0  0  0  0  0  0  0  0  0
   59.1180   27.3430   45.1810 C   0  0  0  0  0  0  0  0  0  0  0  0
   59.1550   28.8290   45.5570 C   0  0  0  0  0  0  0  0  0  0  0  0
   58.3260   29.6210   44.6370 N   0  0  0  0  0  0  0  0  0  0  0  0
   58.5750   31.0620   44.7880 C   0  0  0  0  0  0  0  0  0  0  0  0
   57.5760   31.8670   43.9460 C   0  0  0  0  0  0  0  0  0  0  0  0
   57.2590   31.2030   42.5880 C   0  0  0  0  0  0  0  0  0  0  0  0
   56.2190   30.0720   42.6820 C   0  0  0  0  0  0  0  0  0  0  0  0
   56.8390   28.7560   42.8440 N   0  0  0  0  0  0  0  0  0  0  0  0
   57.5989   25.5758   44.9885 H   0  0  0  0  0  0  0  0  0  0  0  0
   56.8075   26.0005   43.4329 H   0  0  0  0  0  0  0  0  0  0  0  0
   58.3965   25.1627   43.4329 H   0  0  0  0  0  0  0  0  0  0  0  0
   58.6043   26.7823   45.9758 H   0  0  0  0  0  0  0  0  0  0  0  0
   60.1507   26.9823   45.0650 H   0  0  0  0  0  0  0  0  0  0  0  0
   58.7742   28.9513   46.5817 H   0  0  0  0  0  0  0  0  0  0  0  0
   60.1940   29.1840   45.4898 H   0  0  0  0  0  0  0  0  0  0  0  0
   58.5890   29.3560   43.6580 H   0  0  0  0  0  0  0  0  0  0  0  0
   58.4643   31.3403   45.8464 H   0  0  0  0  0  0  0  0  0  0  0  0
   59.5953   31.2865   44.4436 H   0  0  0  0  0  0  0  0  0  0  0  0
   56.6395   31.9675   44.5142 H   0  0  0  0  0  0  0  0  0  0  0  0
   58.0352   32.8441   43.7354 H   0  0  0  0  0  0  0  0  0  0  0  0
   56.8728   31.9745   41.9056 H   0  0  0  0  0  0  0  0  0  0  0  0
   58.1938   30.7517   42.2239 H   0  0  0  0  0  0  0  0  0  0  0  0
   55.5659   30.2636   43.5461 H   0  0  0  0  0  0  0  0  0  0  0  0
   55.6495   30.0609   41.7410 H   0  0  0  0  0  0  0  0  0  0  0  0
   56.3940   28.0870   42.1760 H   0  0  0  0  0  0  0  0  0  0  0  0
   57.8630   28.8050   42.6390 H   0  0  0  0  0  0  0  0  0  0  0  0
   56.6800   28.4020   43.8150 H   0  0  0  0  0  0  0  0  0  0  0  0
  1  2  1  0
  2  3  1  0
  3  4  1  0
  4  5  1  0
  5  6  1  0
  6  7  1  0
  7  8  1  0
  8  9  1  0
  9 10  1  0
  1 11  1  0
  1 12  1  0
  1 13  1  0
  3 14  1  0
  3 15  1  0
  4 16  1  0
  4 17  1  0
  5 18  1  0
  6 19  1  0
  6 20  1  0
  7 21  1  0
  7 22  1  0
  8 23  1  0
  8 24  1  0
  9 25  1  0
  9 26  1  0
 10 27  1  0
 10 28  1  0
 10 29  1  0
M  CHG  1  10   1
M  END
>  <UniqueID>  (36) 
34

>  <SMILES>  (36) 
COCCNCCCC[NH3+]

>  <Energy>  (36) 
19.867688250618382

>  <Genealogy>  (36) 
COCCNCCCC[NH3+] (protonated)
COCCNCCCC[NH3+] (3D coordinates assigned)
COCCNCCCC[NH3+] (optimized conformer: 19.867688250618382 kcal/mol)

>  <smiles>  (36) 
COCCNCCCCN

>  <score_type>  (36) 
oracle

>  <origin>  (36) 
adg

>  <m_score__min__energy>  (36) 
-2.2999999999999998

>  <m_primary>  (36) 
energy

$$$$
36:0
     RDKit          3D

 41 43  0  0  0  0  0  0  0  0999 V2000
   55.1580   29.3530   44.8900 O   0  0  0  0  0  0  0  0  0  0  0  0
   56.2250   29.8670   44.4550 C   0  0  0  0  0  0  0  0  0  0  0  0
   57.1830   29.0310   43.6710 C   0  0  0  0  0  0  0  0  0  0  0  0
   57.8420   28.0380   44.5730 C   0  0  0  0  0  0  0  0  0  0  0  0
   59.2090   27.8180   44.6800 C   0  0  0  0  0  0  0  0  0  0  0  0
   59.5400   26.8850   45.6690 C   0  0  0  0  0  0  0  0  0  0  0  0
   58.4400   26.3820   46.3520 C   0  0  0  0  0  0  0  0  0  0  0  0
   57.0550   27.1000   45.7260 S   0  0  0  0  0  0  0  0  0  0  0  0
   56.5330   31.2430   44.7070 N   0  0  0  0  0  0  0  0  0  0  0  0
   57.6000   31.7360   45.5300 C   0  0  0  0  0  0  0  0  0  0  0  0
   58.2330   30.8500   46.4070 C   0  0  0  0  0  0  0  0  0  0  0  0
   59.2940   31.2690   47.2430 C   0  0  0  0  0  0  0  0  0  0  0  0
   59.9240   30.3450   48.1860 N   0  0  0  0  0  0  0  0  0  0  0  0
   60.8040   30.8800   49.2470 C   0  0  0  0  0  0  0  0  0  0  0  0
   61.4620   29.7950   50.1020 C   0  0  0  0  0  0  0  0  0  0  0  0
   60.5650   28.7400   50.3510 O   0  0  0  0  0  0  0  0  0  0  0  0
   60.3460   28.0500   49.1450 C   0  0  0  0  0  0  0  0  0  0  0  0
   59.5620   28.9110   48.1490 C   0  0  0  0  0  0  0  0  0  0  0  0
   59.7250   32.6110   47.1300 C   0  0  0  0  0  0  0  0  0  0  0  0
   59.1340   33.4970   46.2140 C   0  0  0  0  0  0  0  0  0  0  0  0
   59.5980   34.9320   46.1410 C   0  0  0  0  0  0  0  0  0  0  0  0
   59.2770   35.4840   44.9130 F   0  0  0  0  0  0  0  0  0  0  0  0
   60.9690   34.9740   46.3090 F   0  0  0  0  0  0  0  0  0  0  0  0
   59.0010   35.6980   47.1270 F   0  0  0  0  0  0  0  0  0  0  0  0
   58.0580   33.0560   45.4310 C   0  0  0  0  0  0  0  0  0  0  0  0
   56.6386   28.4986   42.8772 H   0  0  0  0  0  0  0  0  0  0  0  0
   57.9496   29.6800   43.2226 H   0  0  0  0  0  0  0  0  0  0  0  0
   59.9555   28.3255   44.0514 H   0  0  0  0  0  0  0  0  0  0  0  0
   60.5741   26.5787   45.8852 H   0  0  0  0  0  0  0  0  0  0  0  0
   58.4701   25.6404   47.1639 H   0  0  0  0  0  0  0  0  0  0  0  0
   57.8981   29.8030   46.4477 H   0  0  0  0  0  0  0  0  0  0  0  0
   61.5966   31.4775   48.7729 H   0  0  0  0  0  0  0  0  0  0  0  0
   60.1721   31.4804   49.9180 H   0  0  0  0  0  0  0  0  0  0  0  0
   62.3417   29.4022   49.5712 H   0  0  0  0  0  0  0  0  0  0  0  0
   61.7600   30.2377   51.0639 H   0  0  0  0  0  0  0  0  0  0  0  0
   61.3172   27.7837   48.7024 H   0  0  0  0  0  0  0  0  0  0  0  0
   59.7582   27.1460   49.3625 H   0  0  0  0  0  0  0  0  0  0  0  0
   59.7545   28.5307   47.1350 H   0  0  0  0  0  0  0  0  0  0  0  0
   58.5009   28.8408   48.4303 H   0  0  0  0  0  0  0  0  0  0  0  0
   60.5416   32.9693   47.7740 H   0  0  0  0  0  0  0  0  0  0  0  0
   57.5695   33.7521   44.7333 H   0  0  0  0  0  0  0  0  0  0  0  0
  1  2  2  0
  2  3  1  0
  3  4  1  0
  4  5  2  0
  5  6  1  0
  6  7  2  0
  7  8  1  0
  2  9  1  0
  9 10  1  0
 10 11  2  0
 11 12  1  0
 12 13  1  0
 13 14  1  0
 14 15  1  0
 15 16  1  0
 16 17  1  0
 17 18  1  0
 12 19  2  0
 19 20  1  0
 20 21  1  0
 21 22  1  0
 21 23  1  0
 21 24  1  0
 20 25  2  0
  8  4  1  0
 25 10  1  0
 18 13  1  0
  3 26  1  0
  3 27  1  0
  5 28  1  0
  6 29  1  0
  7 30  1  0
 11 31  1  0
 14 32  1  0
 14 33  1  0
 15 34  1  0
 15 35  1  0
 17 36  1  0
 17 37  1  0
 18 38  1  0
 18 39  1  0
 19 40  1  0
 25 41  1  0
M  CHG  1   9  -1
M  END
>  <UniqueID>  (37) 
35

>  <SMILES>  (37) 
O=C(Cc1cccs1)[N-]c1cc(N2CCOCC2)cc(C(F)(F)F)c1

>  <Energy>  (37) 
77.40553297244678

>  <Genealogy>  (37) 
O=C(Cc1cccs1)[N-]c1cc(N2CCOCC2)cc(C(F)(F)F)c1 (protonated)
O=C(Cc1cccs1)[N-]c1cc(N2CCOCC2)cc(C(F)(F)F)c1 (3D coordinates assigned)
O=C(Cc1cccs1)[N-]c1cc(N2CCOCC2)cc(C(F)(F)F)c1 (nonaromatic ring conformer: 77.40553297244678 kcal/mol)

>  <smiles>  (37) 
O=C(Cc1cccs1)Nc1cc(N2CCOCC2)cc(C(F)(F)F)c1

>  <score_type>  (37) 
oracle

>  <origin>  (37) 
adg

>  <m_score__min__energy>  (37) 
-9.1600000000000001

>  <m_primary>  (37) 
energy

$$$$
37:0
     RDKit          3D

 31 33  0  0  0  0  0  0  0  0999 V2000
   56.1210   25.6220   46.7880 O   0  0  0  0  0  0  0  0  0  0  0  0
   56.6530   26.5080   46.0670 C   0  0  0  0  0  0  0  0  0  0  0  0
   58.0850   26.3750   45.6710 C   0  0  0  0  0  0  0  0  0  0  0  0
   59.1230   26.6290   47.0930 Cl  0  0  0  0  0  0  0  0  0  0  0  0
   55.8990   27.6390   45.6120 N   0  0  0  0  0  0  0  0  0  0  0  0
   56.4250   28.9240   45.2480 C   0  0  0  0  0  0  0  0  0  0  0  0
   55.8630   29.5930   44.1510 C   0  0  0  0  0  0  0  0  0  0  0  0
   56.3570   30.8370   43.7510 C   0  0  0  0  0  0  0  0  0  0  0  0
   57.4290   31.4200   44.4370 C   0  0  0  0  0  0  0  0  0  0  0  0
   58.0580   33.0190   43.9280 S   0  0  0  0  0  0  0  0  0  0  0  0
   58.8580   33.2950   45.5040 C   0  0  0  0  0  0  0  0  0  0  0  0
   60.2040   33.3150   45.6590 N   0  0  0  0  0  0  0  0  0  0  0  0
   60.5340   33.5310   46.9570 C   0  0  0  0  0  0  0  0  0  0  0  0
   61.8430   33.6020   47.4370 C   0  0  0  0  0  0  0  0  0  0  0  0
   62.0470   33.8280   48.8090 C   0  0  0  0  0  0  0  0  0  0  0  0
   60.9480   33.9790   49.6800 C   0  0  0  0  0  0  0  0  0  0  0  0
   59.6370   33.9050   49.1860 C   0  0  0  0  0  0  0  0  0  0  0  0
   59.4610   33.6800   47.8230 C   0  0  0  0  0  0  0  0  0  0  0  0
   58.0280   33.5420   46.9580 S   0  0  0  0  0  0  0  0  0  0  0  0
   58.0150   30.7460   45.5140 C   0  0  0  0  0  0  0  0  0  0  0  0
   57.5200   29.5010   45.9160 C   0  0  0  0  0  0  0  0  0  0  0  0
   58.2605   25.3680   45.2647 H   0  0  0  0  0  0  0  0  0  0  0  0
   58.3238   27.1276   44.9051 H   0  0  0  0  0  0  0  0  0  0  0  0
   55.0273   29.1350   43.6016 H   0  0  0  0  0  0  0  0  0  0  0  0
   55.9030   31.3591   42.8958 H   0  0  0  0  0  0  0  0  0  0  0  0
   62.6978   33.4834   46.7549 H   0  0  0  0  0  0  0  0  0  0  0  0
   63.0710   33.8875   49.2064 H   0  0  0  0  0  0  0  0  0  0  0  0
   61.1197   34.1557   50.7521 H   0  0  0  0  0  0  0  0  0  0  0  0
   58.7726   34.0214   49.8563 H   0  0  0  0  0  0  0  0  0  0  0  0
   58.8665   31.1959   46.0455 H   0  0  0  0  0  0  0  0  0  0  0  0
   57.9891   28.9710   46.7581 H   0  0  0  0  0  0  0  0  0  0  0  0
  1  2  2  0
  2  3  1  0
  3  4  1  0
  2  5  1  0
  5  6  1  0
  6  7  2  0
  7  8  1  0
  8  9  2  0
  9 10  1  0
 10 11  1  0
 11 12  2  0
 12 13  1  0
 13 14  2  0
 14 15  1  0
 15 16  2  0
 16 17  1  0
 17 18  2  0
 18 19  1  0
  9 20  1  0
 20 21  2  0
 21  6  1  0
 19 11  1  0
 18 13  1  0
  3 22  1  0
  3 23  1  0
  7 24  1  0
  8 25  1  0
 14 26  1  0
 15 27  1  0
 16 28  1  0
 17 29  1  0
 20 30  1  0
 21 31  1  0
M  CHG  1   5  -1
M  END
>  <UniqueID>  (38) 
36

>  <SMILES>  (38) 
O=C(CCl)[N-]c1ccc(Sc2nc3ccccc3s2)cc1

>  <Energy>  (38) 
65.21526406138156

>  <Genealogy>  (38) 
O=C(CCl)[N-]c1ccc(Sc2nc3ccccc3s2)cc1 (protonated)
O=C(CCl)[N-]c1ccc(Sc2nc3ccccc3s2)cc1 (3D coordinates assigned)
O=C(CCl)[N-]c1ccc(Sc2nc3ccccc3s2)cc1 (optimized conformer: 65.21526406138156 kcal/mol)

>  <smiles>  (38) 
O=C(CCl)Nc1ccc(Sc2nc3ccccc3s2)cc1

>  <score_type>  (38) 
oracle

>  <origin>  (38) 
adg

>  <m_score__min__energy>  (38) 
-9.7100000000000009

>  <m_primary>  (38) 
energy

$$$$
38:0
     RDKit          3D

 27 28  0  0  0  0  0  0  0  0999 V2000
   59.6600   33.7330   48.7640 C   0  0  0  0  0  0  0  0  0  0  0  0
   58.8290   32.8100   48.0680 O   0  0  0  0  0  0  0  0  0  0  0  0
   58.6310   32.8120   46.6790 C   0  0  0  0  0  0  0  0  0  0  0  0
   59.0560   33.8730   45.8610 C   0  0  0  0  0  0  0  0  0  0  0  0
   58.8440   33.8290   44.4850 C   0  0  0  0  0  0  0  0  0  0  0  0
   58.2020   32.7300   43.8980 C   0  0  0  0  0  0  0  0  0  0  0  0
   58.0070   32.6980   42.5120 C   0  0  0  0  0  0  0  0  0  0  0  0
   57.3830   31.6050   41.9160 C   0  0  0  0  0  0  0  0  0  0  0  0
   56.9380   30.5390   42.6950 C   0  0  0  0  0  0  0  0  0  0  0  0
   57.0980   30.5470   44.0920 C   0  0  0  0  0  0  0  0  0  0  0  0
   56.6010   29.3470   44.8670 C   0  0  0  0  0  0  0  0  0  0  0  0
   55.1440   29.3720   44.9560 N   0  0  0  0  0  0  0  0  0  0  0  0
   57.7560   31.6500   44.7080 C   0  0  0  0  0  0  0  0  0  0  0  0
   57.9880   31.7120   46.1000 C   0  0  0  0  0  0  0  0  0  0  0  0
   59.5348   33.5939   49.8480 H   0  0  0  0  0  0  0  0  0  0  0  0
   60.7111   33.5582   48.4909 H   0  0  0  0  0  0  0  0  0  0  0  0
   59.3762   34.7601   48.4909 H   0  0  0  0  0  0  0  0  0  0  0  0
   59.5586   34.7425   46.3097 H   0  0  0  0  0  0  0  0  0  0  0  0
   59.1832   34.6636   43.8539 H   0  0  0  0  0  0  0  0  0  0  0  0
   58.3481   33.5396   41.8913 H   0  0  0  0  0  0  0  0  0  0  0  0
   57.2408   31.5831   40.8254 H   0  0  0  0  0  0  0  0  0  0  0  0
   56.4543   29.6783   42.2100 H   0  0  0  0  0  0  0  0  0  0  0  0
   56.9179   28.4268   44.3544 H   0  0  0  0  0  0  0  0  0  0  0  0
   57.0230   29.3758   45.8824 H   0  0  0  0  0  0  0  0  0  0  0  0
   54.7890   30.1770   44.3910 H   0  0  0  0  0  0  0  0  0  0  0  0
   54.7820   28.5050   44.4960 H   0  0  0  0  0  0  0  0  0  0  0  0
   57.6574   30.8809   46.7403 H   0  0  0  0  0  0  0  0  0  0  0  0
  1  2  1  0
  2  3  1  0
  3  4  2  0
  4  5  1  0
  5  6  2  0
  6  7  1  0
  7  8  2  0
  8  9  1  0
  9 10  2  0
 10 11  1  0
 11 12  1  0
 10 13  1  0
 13 14  2  0
 14  3  1  0
 13  6  1  0
  1 15  1  0
  1 16  1  0
  1 17  1  0
  4 18  1  0
  5 19  1  0
  7 20  1  0
  8 21  1  0
  9 22  1  0
 11 23  1  0
 11 24  1  0
 12 25  1  0
 12 26  1  0
 14 27  1  0
M  END
>  <UniqueID>  (39) 
37

>  <SMILES>  (39) 
COc1ccc2cccc(CN)c2c1

>  <Energy>  (39) 
31.185130134257594

>  <Genealogy>  (39) 
COc1ccc2cccc(CN)c2c1 (3D coordinates assigned)
COc1ccc2cccc(CN)c2c1 (optimized conformer: 31.185130134257594 kcal/mol)

>  <smiles>  (39) 
COc1ccc2cccc(CN)c2c1

>  <score_type>  (39) 
oracle

>  <origin>  (39) 
adg

>  <m_score__min__energy>  (39) 
-6.29

>  <m_primary>  (39) 
energy

$$$$
39:0
     RDKit          3D

 55 57  0  0  0  0  0  0  0  0999 V2000
   60.1810   28.3760   44.8640 C   0  0  0  0  0  0  0  0  0  0  0  0
   58.9480   27.4780   44.9490 C   0  0  0  0  0  0  0  0  0  0  0  0
   57.8100   27.9710   44.0480 C   0  0  0  0  0  0  0  0  0  0  0  0
   57.9550   29.3970   43.7570 N   0  0  0  0  0  0  0  0  0  0  0  0
   57.1450   30.4070   44.3780 C   0  0  0  0  0  0  0  0  0  0  0  0
   56.2780   30.0920   45.2380 O   0  0  0  0  0  0  0  0  0  0  0  0
   57.3010   31.8480   43.9860 C   0  0  0  0  0  0  0  0  0  0  0  0
   58.3430   32.5080   44.7990 N   0  0  0  0  0  0  0  0  0  0  0  0
   57.7670   33.5800   45.6520 C   0  0  0  0  0  0  0  0  0  0  0  0
   57.6410   33.1530   47.1220 C   0  0  0  0  0  0  0  0  0  0  0  0
   58.9670   32.8270   47.7000 N   0  0  0  0  0  0  0  0  0  0  0  0
   58.8470   32.0330   48.9390 C   0  0  0  0  0  0  0  0  0  0  0  0
   59.3050   30.6140   48.7290 C   0  0  0  0  0  0  0  0  0  0  0  0
   58.5370   29.6890   48.1140 N   0  0  0  0  0  0  0  0  0  0  0  0
   59.2780   28.5630   48.1550 C   0  0  0  0  0  0  0  0  0  0  0  0
   60.4710   28.8170   48.7930 C   0  0  0  0  0  0  0  0  0  0  0  0
   60.4870   30.1110   49.1550 N   0  0  0  0  0  0  0  0  0  0  0  0
   61.5500   30.7830   49.9070 C   0  0  0  0  0  0  0  0  0  0  0  0
   62.2110   31.8510   49.0710 C   0  0  0  0  0  0  0  0  0  0  0  0
   62.1700   33.1970   49.4760 C   0  0  0  0  0  0  0  0  0  0  0  0
   62.7880   34.1860   48.7020 C   0  0  0  0  0  0  0  0  0  0  0  0
   63.4340   33.8420   47.5110 C   0  0  0  0  0  0  0  0  0  0  0  0
   63.4580   32.5100   47.0900 C   0  0  0  0  0  0  0  0  0  0  0  0
   62.8460   31.5180   47.8630 C   0  0  0  0  0  0  0  0  0  0  0  0
   59.8880   32.1850   46.7280 C   0  0  0  0  0  0  0  0  0  0  0  0
   59.1380   31.5170   45.5670 C   0  0  0  0  0  0  0  0  0  0  0  0
   60.5236   28.6255   45.8791 H   0  0  0  0  0  0  0  0  0  0  0  0
   60.9824   27.8485   44.3259 H   0  0  0  0  0  0  0  0  0  0  0  0
   59.9249   29.3005   44.3259 H   0  0  0  0  0  0  0  0  0  0  0  0
   59.2289   26.4603   44.6402 H   0  0  0  0  0  0  0  0  0  0  0  0
   58.5880   27.4958   45.9883 H   0  0  0  0  0  0  0  0  0  0  0  0
   57.8282   27.4071   43.1037 H   0  0  0  0  0  0  0  0  0  0  0  0
   56.8549   27.8144   44.5707 H   0  0  0  0  0  0  0  0  0  0  0  0
   58.7150   29.6880   43.1010 H   0  0  0  0  0  0  0  0  0  0  0  0
   57.5841   31.9034   42.9245 H   0  0  0  0  0  0  0  0  0  0  0  0
   56.3443   32.3633   44.1571 H   0  0  0  0  0  0  0  0  0  0  0  0
   58.4181   34.4648   45.5955 H   0  0  0  0  0  0  0  0  0  0  0  0
   56.7560   33.7997   45.2783 H   0  0  0  0  0  0  0  0  0  0  0  0
   57.1909   33.9754   47.6974 H   0  0  0  0  0  0  0  0  0  0  0  0
   57.0085   32.2544   47.1712 H   0  0  0  0  0  0  0  0  0  0  0  0
   59.4650   32.4963   49.7222 H   0  0  0  0  0  0  0  0  0  0  0  0
   57.7883   32.0144   49.2370 H   0  0  0  0  0  0  0  0  0  0  0  0
   58.9752   27.5897   47.7415 H   0  0  0  0  0  0  0  0  0  0  0  0
   61.2731   28.0866   48.9751 H   0  0  0  0  0  0  0  0  0  0  0  0
   61.1172   31.2462   50.8059 H   0  0  0  0  0  0  0  0  0  0  0  0
   62.3083   30.0364   50.1855 H   0  0  0  0  0  0  0  0  0  0  0  0
   61.6501   33.4738   50.4050 H   0  0  0  0  0  0  0  0  0  0  0  0
   62.7653   35.2353   49.0313 H   0  0  0  0  0  0  0  0  0  0  0  0
   63.9231   34.6194   46.9057 H   0  0  0  0  0  0  0  0  0  0  0  0
   63.9593   32.2409   46.1486 H   0  0  0  0  0  0  0  0  0  0  0  0
   62.8620   30.4719   47.5234 H   0  0  0  0  0  0  0  0  0  0  0  0
   60.5613   32.9526   46.3189 H   0  0  0  0  0  0  0  0  0  0  0  0
   60.4473   31.4023   47.2614 H   0  0  0  0  0  0  0  0  0  0  0  0
   59.8678   31.0436   44.8938 H   0  0  0  0  0  0  0  0  0  0  0  0
   58.4499   30.7666   45.9834 H   0  0  0  0  0  0  0  0  0  0  0  0
  1  2  1  0
  2  3  1  0
  3  4  1  0
  4  5  1  0
  5  6  2  0
  5  7  1  0
  7  8  1  0
  8  9  1  0
  9 10  1  0
 10 11  1  0
 11 12  1  0
 12 13  1  0
 13 14  2  0
 14 15  1  0
 15 16  2  0
 16 17  1  0
 17 18  1  0
 18 19  1  0
 19 20  2  0
 20 21  1  0
 21 22  2  0
 22 23  1  0
 23 24  2  0
 11 25  1  0
 25 26  1  0
 26  8  1  0
 17 13  1  0
 24 19  1  0
  1 27  1  0
  1 28  1  0
  1 29  1  0
  2 30  1  0
  2 31  1  0
  3 32  1  0
  3 33  1  0
  4 34  1  0
  7 35  1  0
  7 36  1  0
  9 37  1  0
  9 38  1  0
 10 39  1  0
 10 40  1  0
 12 41  1  0
 12 42  1  0
 15 43  1  0
 16 44  1  0
 18 45  1  0
 18 46  1  0
 20 47  1  0
 21 48  1  0
 22 49  1  0
 23 50  1  0
 24 51  1  0
 25 52  1  0
 25 53  1  0
 26 54  1  0
 26 55  1  0
M  END
>  <UniqueID>  (40) 
38

>  <SMILES>  (40) 
CCCNC(=O)CN1CCN(Cc2nccn2Cc2ccccc2)CC1

>  <Energy>  (40) 
86.50937931002818

>  <Genealogy>  (40) 
CCCNC(=O)CN1CCN(Cc2nccn2Cc2ccccc2)CC1 (3D coordinates assigned)
CCCNC(=O)CN1CCN(Cc2nccn2Cc2ccccc2)CC1 (nonaromatic ring conformer: 86.50937931002818 kcal/mol)

>  <smiles>  (40) 
CCCNC(=O)CN1CCN(Cc2nccn2Cc2ccccc2)CC1

>  <score_type>  (40) 
oracle

>  <origin>  (40) 
adg

>  <m_score__min__energy>  (40) 
-8.7300000000000004

>  <m_primary>  (40) 
energy

$$$$
40:0
     RDKit          3D

 60 62  0  0  0  0  0  0  0  0999 V2000
   57.0420   29.0070   43.4350 C   0  0  0  0  0  0  0  0  0  0  0  0
   56.3780   29.7380   44.5630 C   0  0  0  0  0  0  0  0  0  0  0  0
   55.1980   29.4290   44.8720 O   0  0  0  0  0  0  0  0  0  0  0  0
   57.0180   30.8080   45.2790 N   0  0  0  0  0  0  0  0  0  0  0  0
   57.4020   32.1360   44.7800 C   0  0  2  0  0  0  0  0  0  0  0  0
   57.5740   32.1000   43.2510 C   0  0  0  0  0  0  0  0  0  0  0  0
   58.6090   32.7130   45.5150 C   0  0  0  0  0  0  0  0  0  0  0  0
   59.5760   31.8540   46.0710 C   0  0  0  0  0  0  0  0  0  0  0  0
   60.7050   32.3690   46.7150 C   0  0  0  0  0  0  0  0  0  0  0  0
   60.9090   33.7490   46.7990 C   0  0  0  0  0  0  0  0  0  0  0  0
   62.0520   34.2120   47.4720 O   0  0  0  0  0  0  0  0  0  0  0  0
   62.2910   34.0740   48.8760 C   0  0  2  0  0  0  0  0  0  0  0  0
   63.1100   32.8090   49.1290 C   0  0  0  0  0  0  0  0  0  0  0  0
   62.1130   31.7330   49.5390 C   0  0  0  0  0  0  0  0  0  0  0  0
   60.8940   32.4350   49.9090 N   0  0  0  0  0  0  0  0  0  0  0  0
   59.7250   31.7850   50.4620 C   0  0  0  0  0  0  0  0  0  0  0  0
   59.8350   30.5870   51.1900 C   0  0  0  0  0  0  0  0  0  0  0  0
   58.7040   29.9840   51.7370 C   0  0  0  0  0  0  0  0  0  0  0  0
   57.4430   30.5730   51.5470 C   0  0  0  0  0  0  0  0  0  0  0  0
   56.2710   30.0120   52.0740 O   0  0  0  0  0  0  0  0  0  0  0  0
   55.1130   30.7580   52.4480 C   0  0  0  0  0  0  0  0  0  0  0  0
   53.8660   30.1660   51.7780 C   0  0  0  0  0  0  0  0  0  0  0  0
   52.8940   31.2680   51.3350 C   0  0  0  0  0  0  0  0  0  0  0  0
   53.1640   29.1890   52.7280 C   0  0  0  0  0  0  0  0  0  0  0  0
   57.3480   31.7250   50.8290 N   0  0  0  0  0  0  0  0  0  0  0  0
   58.4400   32.3360   50.2950 C   0  0  0  0  0  0  0  0  0  0  0  0
   60.9760   33.8620   49.6290 C   0  0  0  0  0  0  0  0  0  0  0  0
   59.9770   34.6140   46.2010 C   0  0  0  0  0  0  0  0  0  0  0  0
   58.8500   34.1040   45.5500 C   0  0  0  0  0  0  0  0  0  0  0  0
   57.7290   28.2506   43.8423 H   0  0  0  0  0  0  0  0  0  0  0  0
   56.2773   28.5131   42.8175 H   0  0  0  0  0  0  0  0  0  0  0  0
   57.6069   29.7209   42.8175 H   0  0  0  0  0  0  0  0  0  0  0  0
   56.5833   32.8369   45.0001 H   0  0  0  0  0  0  0  0  0  0  0  0
   58.6234   31.8803   43.0051 H   0  0  0  0  0  0  0  0  0  0  0  0
   56.9267   31.3179   42.8275 H   0  0  0  0  0  0  0  0  0  0  0  0
   57.2948   33.0761   42.8275 H   0  0  0  0  0  0  0  0  0  0  0  0
   59.4416   30.7647   45.9978 H   0  0  0  0  0  0  0  0  0  0  0  0
   61.4396   31.6816   47.1597 H   0  0  0  0  0  0  0  0  0  0  0  0
   62.8049   34.9856   49.2150 H   0  0  0  0  0  0  0  0  0  0  0  0
   63.6404   32.5085   48.2134 H   0  0  0  0  0  0  0  0  0  0  0  0
   63.8683   32.9714   49.9092 H   0  0  0  0  0  0  0  0  0  0  0  0
   61.9205   31.0502   48.6983 H   0  0  0  0  0  0  0  0  0  0  0  0
   62.4963   31.1253   50.3720 H   0  0  0  0  0  0  0  0  0  0  0  0
   60.8221   30.1219   51.3289 H   0  0  0  0  0  0  0  0  0  0  0  0
   58.7982   29.0523   52.3141 H   0  0  0  0  0  0  0  0  0  0  0  0
   54.9922   30.7190   53.5407 H   0  0  0  0  0  0  0  0  0  0  0  0
   55.2359   31.8014   52.1223 H   0  0  0  0  0  0  0  0  0  0  0  0
   54.1918   29.6204   50.8801 H   0  0  0  0  0  0  0  0  0  0  0  0
   52.4638   31.7558   52.2221 H   0  0  0  0  0  0  0  0  0  0  0  0
   53.4344   32.0131   50.7327 H   0  0  0  0  0  0  0  0  0  0  0  0
   52.0872   30.8249   50.7327 H   0  0  0  0  0  0  0  0  0  0  0  0
   53.3711   29.4773   53.7692 H   0  0  0  0  0  0  0  0  0  0  0  0
   52.0792   29.2184   52.5483 H   0  0  0  0  0  0  0  0  0  0  0  0
   53.5380   28.1702   52.5483 H   0  0  0  0  0  0  0  0  0  0  0  0
   56.4100   32.1600   50.6870 H   0  0  0  0  0  0  0  0  0  0  0  0
   58.3178   33.2700   49.7270 H   0  0  0  0  0  0  0  0  0  0  0  0
   60.1253   34.1782   49.0074 H   0  0  0  0  0  0  0  0  0  0  0  0
   60.9441   34.4548   50.5550 H   0  0  0  0  0  0  0  0  0  0  0  0
   60.1356   35.7016   46.2455 H   0  0  0  0  0  0  0  0  0  0  0  0
   58.1448   34.7921   45.0608 H   0  0  0  0  0  0  0  0  0  0  0  0
  1  2  1  0
  2  3  2  0
  2  4  1  0
  4  5  1  0
  5  6  1  0
  5  7  1  0
  7  8  2  0
  8  9  1  0
  9 10  2  0
 10 11  1  0
 11 12  1  0
 12 13  1  0
 13 14  1  0
 14 15  1  0
 15 16  1  0
 16 17  2  0
 17 18  1  0
 18 19  2  0
 19 20  1  0
 20 21  1  0
 21 22  1  0
 22 23  1  0
 22 24  1  0
 19 25  1  0
 25 26  2  0
 15 27  1  0
 10 28  1  0
 28 29  2  0
 29  7  1  0
 27 12  1  0
 26 16  1  0
  1 30  1  0
  1 31  1  0
  1 32  1  0
  5 33  1  6
  6 34  1  0
  6 35  1  0
  6 36  1  0
  8 37  1  0
  9 38  1  0
 12 39  1  1
 13 40  1  0
 13 41  1  0
 14 42  1  0
 14 43  1  0
 17 44  1  0
 18 45  1  0
 21 46  1  0
 21 47  1  0
 22 48  1  0
 23 49  1  0
 23 50  1  0
 23 51  1  0
 24 52  1  0
 24 53  1  0
 24 54  1  0
 25 55  1  0
 26 56  1  0
 27 57  1  0
 27 58  1  0
 28 59  1  0
 29 60  1  0
M  CHG  2   4  -1  25   1
M  END
>  <UniqueID>  (41) 
39

>  <SMILES>  (41) 
CC(=O)[N-][C@H](C)c1ccc(O[C@@H]2CCN(c3ccc(OCC(C)C)[nH+]c3)C2)cc1

>  <Energy>  (41) 
57.58590014407089

>  <Genealogy>  (41) 
CC(=O)[N-]C(C)c1ccc(OC2CCN(c3ccc(OCC(C)C)[nH+]c3)C2)cc1 (protonated)
CC(=O)[N-][C@H](C)c1ccc(O[C@@H]2CCN(c3ccc(OCC(C)C)[nH+]c3)C2)cc1 (chirality)
CC(=O)[N-][C@H](C)c1ccc(O[C@@H]2CCN(c3ccc(OCC(C)C)[nH+]c3)C2)cc1 (3D coordinates assigned)
CC(=O)[N-][C@H](C)c1ccc(O[C@@H]2CCN(c3ccc(OCC(C)C)[nH+]c3)C2)cc1 (nonaromatic ring conformer: 57.58590014407089 kcal/mol)

>  <smiles>  (41) 
CC(=O)NC(C)c1ccc(OC2CCN(c3ccc(OCC(C)C)nc3)C2)cc1

>  <score_type>  (41) 
oracle

>  <origin>  (41) 
adg

>  <m_score__min__energy>  (41) 
-9.7899999999999991

>  <m_primary>  (41) 
energy

$$$$
41:0
     RDKit          3D

 33 35  0  0  0  0  0  0  0  0999 V2000
   55.3000   29.3930   44.8200 N   0  0  0  0  0  0  0  0  0  0  0  0
   56.6590   29.4350   44.2950 C   0  0  0  0  0  0  0  0  0  0  0  0
   57.3730   30.6450   44.8220 C   0  0  0  0  0  0  0  0  0  0  0  0
   56.7030   31.7760   45.1730 N   0  0  0  0  0  0  0  0  0  0  0  0
   57.6750   32.5650   45.6630 C   0  0  0  0  0  0  0  0  0  0  0  0
   57.5590   33.8450   46.1900 C   0  0  0  0  0  0  0  0  0  0  0  0
   58.7330   34.4530   46.6720 C   0  0  0  0  0  0  0  0  0  0  0  0
   59.9610   33.7550   46.6110 C   0  0  0  0  0  0  0  0  0  0  0  0
   60.0190   32.4920   46.0850 N   0  0  0  0  0  0  0  0  0  0  0  0
   58.8740   31.9250   45.6170 C   0  0  0  0  0  0  0  0  0  0  0  0
   58.7120   30.7020   45.0840 N   0  0  0  0  0  0  0  0  0  0  0  0
   59.7180   29.6500   44.9040 C   0  0  0  0  0  0  0  0  0  0  0  0
   59.8110   28.7920   46.1370 C   0  0  0  0  0  0  0  0  0  0  0  0
   59.5680   29.3390   47.4080 C   0  0  0  0  0  0  0  0  0  0  0  0
   59.6690   28.5390   48.5510 C   0  0  0  0  0  0  0  0  0  0  0  0
   60.0080   27.1890   48.4330 C   0  0  0  0  0  0  0  0  0  0  0  0
   60.2450   26.6350   47.1720 C   0  0  0  0  0  0  0  0  0  0  0  0
   60.1460   27.4320   46.0280 C   0  0  0  0  0  0  0  0  0  0  0  0
   55.2380   30.0900   45.5980 H   0  0  0  0  0  0  0  0  0  0  0  0
   55.1410   28.4520   45.2480 H   0  0  0  0  0  0  0  0  0  0  0  0
   57.1986   28.5285   44.6067 H   0  0  0  0  0  0  0  0  0  0  0  0
   56.6215   29.4863   43.1968 H   0  0  0  0  0  0  0  0  0  0  0  0
   56.5890   34.3623   46.2290 H   0  0  0  0  0  0  0  0  0  0  0  0
   58.6954   35.4678   47.0948 H   0  0  0  0  0  0  0  0  0  0  0  0
   60.8778   34.2306   46.9894 H   0  0  0  0  0  0  0  0  0  0  0  0
   60.9330   31.9900   46.0550 H   0  0  0  0  0  0  0  0  0  0  0  0
   59.4352   29.0218   44.0465 H   0  0  0  0  0  0  0  0  0  0  0  0
   60.6959   30.1204   44.7238 H   0  0  0  0  0  0  0  0  0  0  0  0
   59.2972   30.4008   47.5047 H   0  0  0  0  0  0  0  0  0  0  0  0
   59.4812   28.9735   49.5440 H   0  0  0  0  0  0  0  0  0  0  0  0
   60.0884   26.5617   49.3330 H   0  0  0  0  0  0  0  0  0  0  0  0
   60.5096   25.5713   47.0797 H   0  0  0  0  0  0  0  0  0  0  0  0
   60.3314   26.9920   45.0370 H   0  0  0  0  0  0  0  0  0  0  0  0
  1  2  1  0
  2  3  1  0
  3  4  2  0
  4  5  1  0
  5  6  2  0
  6  7  1  0
  7  8  2  0
  8  9  1  0
  9 10  2  0
 10 11  1  0
 11 12  1  0
 12 13  1  0
 13 14  2  0
 14 15  1  0
 15 16  2  0
 16 17  1  0
 17 18  2  0
 11  3  1  0
 18 13  1  0
 10  5  1  0
  1 19  1  0
  1 20  1  0
  2 21  1  0
  2 22  1  0
  6 23  1  0
  7 24  1  0
  8 25  1  0
  9 26  1  0
 12 27  1  0
 12 28  1  0
 14 29  1  0
 15 30  1  0
 16 31  1  0
 17 32  1  0
 18 33  1  0
M  CHG  1   9   1
M  END
>  <UniqueID>  (42) 
40

>  <SMILES>  (42) 
NCc1nc2ccc[nH+]c2n1Cc1ccccc1

>  <Energy>  (42) 
70.62740173535767

>  <Genealogy>  (42) 
NCc1nc2ccc[nH+]c2n1Cc1ccccc1 (protonated)
NCc1nc2ccc[nH+]c2n1Cc1ccccc1 (3D coordinates assigned)
NCc1nc2ccc[nH+]c2n1Cc1ccccc1 (optimized conformer: 70.62740173535767 kcal/mol)

>  <smiles>  (42) 
NCc1nc2cccnc2n1Cc1ccccc1

>  <score_type>  (42) 
oracle

>  <origin>  (42) 
adg

>  <m_score__min__energy>  (42) 
-5.6200000000000001

>  <m_primary>  (42) 
energy

$$$$
42:0
     RDKit          3D

 36 37  0  0  0  0  0  0  0  0999 V2000
   63.0330   33.4530   46.9650 C   0  0  0  0  0  0  0  0  0  0  0  0
   61.9040   33.4630   47.3830 C   0  0  0  0  0  0  0  0  0  0  0  0
   60.5290   33.4770   47.8930 C   0  0  0  0  0  0  0  0  0  0  0  0
   59.5800   33.3970   46.7760 N   0  0  0  0  0  0  0  0  0  0  0  0
   59.2550   34.4010   45.9310 C   0  0  0  0  0  0  0  0  0  0  0  0
   59.7860   35.8000   46.0150 C   0  0  0  0  0  0  0  0  0  0  0  0
   58.3420   33.9640   44.9920 C   0  0  0  0  0  0  0  0  0  0  0  0
   58.1100   32.6260   45.2600 C   0  0  0  0  0  0  0  0  0  0  0  0
   57.1840   31.7470   44.5110 C   0  0  0  0  0  0  0  0  0  0  0  0
   55.9750   31.6590   44.8570 O   0  0  0  0  0  0  0  0  0  0  0  0
   57.6560   30.9600   43.3220 C   0  0  0  0  0  0  0  0  0  0  0  0
   57.0470   29.6700   43.3010 O   0  0  0  0  0  0  0  0  0  0  0  0
   56.7000   28.9650   44.4590 C   0  0  0  0  0  0  0  0  0  0  0  0
   55.5140   28.9840   44.8880 O   0  0  0  0  0  0  0  0  0  0  0  0
   57.7310   28.2010   45.1800 C   0  0  0  0  0  0  0  0  0  0  0  0
   59.1030   28.3030   44.8920 C   0  0  0  0  0  0  0  0  0  0  0  0
   59.9000   27.5020   45.6960 C   0  0  0  0  0  0  0  0  0  0  0  0
   58.9010   26.6740   46.7640 S   0  0  0  0  0  0  0  0  0  0  0  0
   57.4480   27.3190   46.2200 C   0  0  0  0  0  0  0  0  0  0  0  0
   58.9060   32.2970   46.3550 C   0  0  0  0  0  0  0  0  0  0  0  0
   58.9990   30.9380   46.9900 C   0  0  0  0  0  0  0  0  0  0  0  0
   64.0645   33.4439   46.5831 H   0  0  0  0  0  0  0  0  0  0  0  0
   60.3792   32.6160   48.5610 H   0  0  0  0  0  0  0  0  0  0  0  0
   60.3580   34.4120   48.4467 H   0  0  0  0  0  0  0  0  0  0  0  0
   59.8953   36.0879   47.0710 H   0  0  0  0  0  0  0  0  0  0  0  0
   60.7659   35.8507   45.5178 H   0  0  0  0  0  0  0  0  0  0  0  0
   59.0865   36.4881   45.5178 H   0  0  0  0  0  0  0  0  0  0  0  0
   57.8879   34.5621   44.1882 H   0  0  0  0  0  0  0  0  0  0  0  0
   57.3900   31.5006   42.4017 H   0  0  0  0  0  0  0  0  0  0  0  0
   58.7470   30.8365   43.3883 H   0  0  0  0  0  0  0  0  0  0  0  0
   59.5061   28.9560   44.1039 H   0  0  0  0  0  0  0  0  0  0  0  0
   60.9959   27.4224   45.6437 H   0  0  0  0  0  0  0  0  0  0  0  0
   56.4486   27.0856   46.6158 H   0  0  0  0  0  0  0  0  0  0  0  0
   58.9918   31.0436   48.0849 H   0  0  0  0  0  0  0  0  0  0  0  0
   58.1406   30.3265   46.6749 H   0  0  0  0  0  0  0  0  0  0  0  0
   59.9327   30.4492   46.6749 H   0  0  0  0  0  0  0  0  0  0  0  0
  1  2  3  0
  2  3  1  0
  3  4  1  0
  4  5  1  0
  5  6  1  0
  5  7  2  0
  7  8  1  0
  8  9  1  0
  9 10  2  0
  9 11  1  0
 11 12  1  0
 12 13  1  0
 13 14  2  0
 13 15  1  0
 15 16  1  0
 16 17  2  0
 17 18  1  0
 18 19  1  0
  8 20  2  0
 20 21  1  0
 20  4  1  0
 19 15  2  0
  1 22  1  0
  3 23  1  0
  3 24  1  0
  6 25  1  0
  6 26  1  0
  6 27  1  0
  7 28  1  0
 11 29  1  0
 11 30  1  0
 16 31  1  0
 17 32  1  0
 19 33  1  0
 21 34  1  0
 21 35  1  0
 21 36  1  0
M  END
>  <UniqueID>  (43) 
41

>  <SMILES>  (43) 
C#CCn1c(C)cc(C(=O)COC(=O)c2ccsc2)c1C

>  <Energy>  (43) 
81.22323934597877

>  <Genealogy>  (43) 
C#CCn1c(C)cc(C(=O)COC(=O)c2ccsc2)c1C (3D coordinates assigned)
C#CCn1c(C)cc(C(=O)COC(=O)c2ccsc2)c1C (optimized conformer: 81.22323934597877 kcal/mol)

>  <smiles>  (43) 
C#CCn1c(C)cc(C(=O)COC(=O)c2ccsc2)c1C

>  <score_type>  (43) 
oracle

>  <origin>  (43) 
adg

>  <m_score__min__energy>  (43) 
-7.0499999999999998

>  <m_primary>  (43) 
energy

$$$$
43:0
     RDKit          3D

 27 28  0  0  0  0  0  0  0  0999 V2000
   58.4420   27.2320   43.1640 C   0  0  0  0  0  0  0  0  0  0  0  0
   58.7920   28.0430   44.3260 N   0  0  0  0  0  0  0  0  0  0  0  0
   60.0170   28.5270   44.6090 C   0  0  0  0  0  0  0  0  0  0  0  0
   59.9760   29.2490   45.7860 C   0  0  0  0  0  0  0  0  0  0  0  0
   58.6710   29.1990   46.2380 C   0  0  0  0  0  0  0  0  0  0  0  0
   57.9670   28.4500   45.3140 C   0  0  0  0  0  0  0  0  0  0  0  0
   56.5350   28.1100   45.4050 C   0  0  0  0  0  0  0  0  0  0  0  0
   56.1960   27.0180   45.9290 O   0  0  0  0  0  0  0  0  0  0  0  0
   55.5140   28.9750   44.8880 N   0  0  0  0  0  0  0  0  0  0  0  0
   55.5940   29.7170   43.6320 C   0  0  0  0  0  0  0  0  0  0  0  0
   56.5750   30.8480   43.7540 C   0  0  0  0  0  0  0  0  0  0  0  0
   57.2870   31.3180   42.6390 C   0  0  0  0  0  0  0  0  0  0  0  0
   58.1460   32.3600   42.7840 N   0  0  0  0  0  0  0  0  0  0  0  0
   58.3330   32.9570   43.9910 C   0  0  0  0  0  0  0  0  0  0  0  0
   57.6310   32.4880   45.1040 C   0  0  0  0  0  0  0  0  0  0  0  0
   56.7690   31.4480   44.9600 N   0  0  0  0  0  0  0  0  0  0  0  0
   58.0269   26.2702   43.4997 H   0  0  0  0  0  0  0  0  0  0  0  0
   57.6930   27.7632   42.5583 H   0  0  0  0  0  0  0  0  0  0  0  0
   59.3423   27.0514   42.5583 H   0  0  0  0  0  0  0  0  0  0  0  0
   60.9158   28.3706   43.9945 H   0  0  0  0  0  0  0  0  0  0  0  0
   60.8190   29.7641   46.2698 H   0  0  0  0  0  0  0  0  0  0  0  0
   58.2718   29.6632   47.1518 H   0  0  0  0  0  0  0  0  0  0  0  0
   55.9209   29.0385   42.8303 H   0  0  0  0  0  0  0  0  0  0  0  0
   54.6015   30.1290   43.3970 H   0  0  0  0  0  0  0  0  0  0  0  0
   57.1501   30.8457   41.6550 H   0  0  0  0  0  0  0  0  0  0  0  0
   59.0307   33.8016   44.0903 H   0  0  0  0  0  0  0  0  0  0  0  0
   57.7750   32.9568   46.0886 H   0  0  0  0  0  0  0  0  0  0  0  0
  1  2  1  0
  2  3  1  0
  3  4  2  0
  4  5  1  0
  5  6  2  0
  6  7  1  0
  7  8  2  0
  7  9  1  0
  9 10  1  0
 10 11  1  0
 11 12  2  0
 12 13  1  0
 13 14  2  0
 14 15  1  0
 15 16  2  0
  6  2  1  0
 16 11  1  0
  1 17  1  0
  1 18  1  0
  1 19  1  0
  3 20  1  0
  4 21  1  0
  5 22  1  0
 10 23  1  0
 10 24  1  0
 12 25  1  0
 14 26  1  0
 15 27  1  0
M  CHG  1   9  -1
M  END
>  <UniqueID>  (44) 
42

>  <SMILES>  (44) 
Cn1cccc1C(=O)[N-]Cc1cnccn1

>  <Energy>  (44) 
55.8690047848022

>  <Genealogy>  (44) 
Cn1cccc1C(=O)[N-]Cc1cnccn1 (protonated)
Cn1cccc1C(=O)[N-]Cc1cnccn1 (3D coordinates assigned)
Cn1cccc1C(=O)[N-]Cc1cnccn1 (optimized conformer: 55.8690047848022 kcal/mol)

>  <smiles>  (44) 
Cn1cccc1C(=O)NCc1cnccn1

>  <score_type>  (44) 
oracle

>  <origin>  (44) 
adg

>  <m_score__min__energy>  (44) 
-8.0299999999999994

>  <m_primary>  (44) 
energy

$$$$
44:0
     RDKit          3D

 29 30  0  0  0  0  0  0  0  0999 V2000
   55.9490   24.3910   46.6790 C   0  0  0  0  0  0  0  0  0  0  0  0
   55.1670   25.3110   45.7480 C   0  0  0  0  0  0  0  0  0  0  0  0
   55.5170   26.7060   45.9910 N   0  0  0  0  0  0  0  0  0  0  0  0
   56.8370   27.2390   45.8220 C   0  0  0  0  0  0  0  0  0  0  0  0
   57.8300   26.4620   45.8770 O   0  0  0  0  0  0  0  0  0  0  0  0
   57.0270   28.6930   45.5680 C   0  0  0  0  0  0  0  0  0  0  0  0
   56.1100   29.3790   44.7520 C   0  0  0  0  0  0  0  0  0  0  0  0
   56.2630   30.7040   44.4970 N   0  0  0  0  0  0  0  0  0  0  0  0
   57.2950   31.4220   45.0080 C   0  0  0  0  0  0  0  0  0  0  0  0
   57.4090   32.7840   44.7090 C   0  0  0  0  0  0  0  0  0  0  0  0
   58.4690   33.5300   45.2270 C   0  0  0  0  0  0  0  0  0  0  0  0
   59.4280   32.9230   46.0510 C   0  0  0  0  0  0  0  0  0  0  0  0
   60.5690   33.7170   46.6150 C   0  0  0  0  0  0  0  0  0  0  0  0
   59.3150   31.5570   46.3550 C   0  0  0  0  0  0  0  0  0  0  0  0
   58.2500   30.7940   45.8360 C   0  0  0  0  0  0  0  0  0  0  0  0
   58.1100   29.4200   46.1170 C   0  0  0  0  0  0  0  0  0  0  0  0
   58.9560   28.8430   46.8560 O   0  0  0  0  0  0  0  0  0  0  0  0
   55.7269   24.6523   47.7242 H   0  0  0  0  0  0  0  0  0  0  0  0
   55.6578   23.3468   46.4922 H   0  0  0  0  0  0  0  0  0  0  0  0
   57.0265   24.5102   46.4922 H   0  0  0  0  0  0  0  0  0  0  0  0
   55.4038   25.0554   44.7046 H   0  0  0  0  0  0  0  0  0  0  0  0
   54.0919   25.1770   45.9382 H   0  0  0  0  0  0  0  0  0  0  0  0
   55.2589   28.8360   44.3152 H   0  0  0  0  0  0  0  0  0  0  0  0
   56.6612   33.2683   44.0639 H   0  0  0  0  0  0  0  0  0  0  0  0
   58.5527   34.6003   44.9875 H   0  0  0  0  0  0  0  0  0  0  0  0
   60.5278   33.6884   47.7139 H   0  0  0  0  0  0  0  0  0  0  0  0
   61.5209   33.2852   46.2724 H   0  0  0  0  0  0  0  0  0  0  0  0
   60.4949   34.7596   46.2724 H   0  0  0  0  0  0  0  0  0  0  0  0
   60.0637   31.0786   47.0035 H   0  0  0  0  0  0  0  0  0  0  0  0
  1  2  1  0
  2  3  1  0
  3  4  1  0
  4  5  2  0
  4  6  1  0
  6  7  2  0
  7  8  1  0
  8  9  1  0
  9 10  2  0
 10 11  1  0
 11 12  2  0
 12 13  1  0
 12 14  1  0
 14 15  2  0
 15 16  1  0
 16 17  2  0
 16  6  1  0
 15  9  1  0
  1 18  1  0
  1 19  1  0
  1 20  1  0
  2 21  1  0
  2 22  1  0
  7 23  1  0
 10 24  1  0
 11 25  1  0
 13 26  1  0
 13 27  1  0
 13 28  1  0
 14 29  1  0
M  CHG  2   3  -1   8  -1
M  END
>  <UniqueID>  (45) 
43

>  <SMILES>  (45) 
CC[N-]C(=O)c1c[n-]c2ccc(C)cc2c1=O

>  <Energy>  (45) 
31.63816556084417

>  <Genealogy>  (45) 
CC[N-]C(=O)c1c[n-]c2ccc(C)cc2c1=O (protonated)
CC[N-]C(=O)c1c[n-]c2ccc(C)cc2c1=O (3D coordinates assigned)
CC[N-]C(=O)c1c[n-]c2ccc(C)cc2c1=O (optimized conformer: 31.63816556084417 kcal/mol)

>  <smiles>  (45) 
CCNC(=O)c1c[nH]c2ccc(C)cc2c1=O

>  <score_type>  (45) 
oracle

>  <origin>  (45) 
adg

>  <m_score__min__energy>  (45) 
-9.5199999999999996

>  <m_primary>  (45) 
energy

$$$$
45:0
     RDKit          3D

 17 18  0  0  0  0  0  0  0  0999 V2000
   60.9850   26.6960   45.9720 F   0  0  0  0  0  0  0  0  0  0  0  0
   60.0280   27.1010   46.8850 C   0  0  0  0  0  0  0  0  0  0  0  0
   60.6620   27.5920   48.0130 F   0  0  0  0  0  0  0  0  0  0  0  0
   59.2680   26.0070   47.2570 F   0  0  0  0  0  0  0  0  0  0  0  0
   59.1610   28.1600   46.2560 C   0  0  0  0  0  0  0  0  0  0  0  0
   59.6420   29.4940   46.1230 C   0  0  0  0  0  0  0  0  0  0  0  0
   58.8260   30.5070   45.5800 C   0  0  0  0  0  0  0  0  0  0  0  0
   57.5380   30.1530   45.1990 C   0  0  0  0  0  0  0  0  0  0  0  0
   56.5690   30.9230   44.6730 N   0  0  0  0  0  0  0  0  0  0  0  0
   55.5230   30.1150   44.5030 N   0  0  0  0  0  0  0  0  0  0  0  0
   55.8000   28.8770   44.9040 N   0  0  0  0  0  0  0  0  0  0  0  0
   57.0640   28.8900   45.3420 C   0  0  0  0  0  0  0  0  0  0  0  0
   57.8300   27.8580   45.8730 C   0  0  0  0  0  0  0  0  0  0  0  0
   60.6642   29.7371   46.4485 H   0  0  0  0  0  0  0  0  0  0  0  0
   59.1945   31.5368   45.4627 H   0  0  0  0  0  0  0  0  0  0  0  0
   55.1390   28.0700   44.8720 H   0  0  0  0  0  0  0  0  0  0  0  0
   57.4183   26.8448   45.9915 H   0  0  0  0  0  0  0  0  0  0  0  0
  1  2  1  0
  2  3  1  0
  2  4  1  0
  2  5  1  0
  5  6  1  0
  6  7  2  0
  7  8  1  0
  8  9  2  0
  9 10  1  0
 10 11  1  0
 11 12  2  0
 12 13  1  0
 13  5  2  0
 12  8  1  0
  6 14  1  0
  7 15  1  0
 11 16  1  0
 13 17  1  0
M  CHG  2  10  -1  11   1
M  END
>  <UniqueID>  (46) 
44

>  <SMILES>  (46) 
FC(F)(F)c1ccc2n[n-][nH+]c2c1

>  <Energy>  (46) 
61.895100367155955

>  <Genealogy>  (46) 
FC(F)(F)c1ccc2n[n-][nH+]c2c1 (protonated)
FC(F)(F)c1ccc2n[n-][nH+]c2c1 (3D coordinates assigned)
FC(F)(F)c1ccc2n[n-][nH+]c2c1 (optimized conformer: 61.895100367155955 kcal/mol)

>  <smiles>  (46) 
FC(F)(F)c1ccc2n[nH]nc2c1

>  <score_type>  (46) 
oracle

>  <origin>  (46) 
adg

>  <m_score__min__energy>  (46) 
-5.6299999999999999

>  <m_primary>  (46) 
energy

$$$$
46:0
     RDKit          3D

 56 59  0  0  0  0  0  0  0  0999 V2000
   62.2760   34.1350   49.0840 C   0  0  0  0  0  0  0  0  0  0  0  0
   61.8640   33.6840   47.7980 O   0  0  0  0  0  0  0  0  0  0  0  0
   61.2210   32.4610   47.5500 C   0  0  0  0  0  0  0  0  0  0  0  0
   61.8000   31.2300   47.9110 C   0  0  0  0  0  0  0  0  0  0  0  0
   61.1340   30.0300   47.6540 C   0  0  0  0  0  0  0  0  0  0  0  0
   59.8780   30.0300   47.0280 C   0  0  0  0  0  0  0  0  0  0  0  0
   59.1860   28.7870   46.7710 N   0  0  0  0  0  0  0  0  0  0  0  0
   57.8880   28.8120   46.0800 C   0  0  0  0  0  0  0  0  0  0  0  0
   57.4930   27.4260   45.5630 C   0  0  0  0  0  0  0  0  0  0  0  0
   57.6300   26.4300   46.6350 N   0  0  0  0  0  0  0  0  0  0  0  0
   56.6590   25.3750   46.7950 C   0  0  0  0  0  0  0  0  0  0  0  0
   56.7720   24.5640   47.7560 O   0  0  0  0  0  0  0  0  0  0  0  0
   55.5400   25.2800   45.9030 N   0  0  0  0  0  0  0  0  0  0  0  0
   54.5000   24.2910   45.9380 C   0  0  0  0  0  0  0  0  0  0  0  0
   54.6670   23.1700   46.7630 C   0  0  0  0  0  0  0  0  0  0  0  0
   53.6780   22.1840   46.8280 C   0  0  0  0  0  0  0  0  0  0  0  0
   52.5030   22.3210   46.0800 C   0  0  0  0  0  0  0  0  0  0  0  0
   51.2640   21.0820   46.1590 Cl  0  0  0  0  0  0  0  0  0  0  0  0
   52.3140   23.4510   45.2800 C   0  0  0  0  0  0  0  0  0  0  0  0
   53.3040   24.4380   45.2110 C   0  0  0  0  0  0  0  0  0  0  0  0
   58.8080   26.4600   47.5160 C   0  0  0  0  0  0  0  0  0  0  0  0
   59.8380   27.5020   47.0620 C   0  0  0  0  0  0  0  0  0  0  0  0
   59.2970   31.2590   46.6690 C   0  0  0  0  0  0  0  0  0  0  0  0
   59.9610   32.4680   46.9240 C   0  0  0  0  0  0  0  0  0  0  0  0
   59.2140   34.0000   46.4660 S   0  0  0  0  0  0  0  0  0  0  0  0
   60.1320   34.7220   45.5210 O   0  0  0  0  0  0  0  0  0  0  0  0
   58.9740   34.8470   47.6850 O   0  0  0  0  0  0  0  0  0  0  0  0
   57.6940   33.6680   45.6900 N   0  0  0  0  0  0  0  0  0  0  0  0
   57.4720   32.7750   44.7700 C   0  0  0  0  0  0  0  0  0  0  0  0
   58.0510   32.8460   43.4860 C   0  0  0  0  0  0  0  0  0  0  0  0
   57.7690   31.8480   42.5500 C   0  0  0  0  0  0  0  0  0  0  0  0
   56.9200   30.7940   42.8890 C   0  0  0  0  0  0  0  0  0  0  0  0
   56.6410   29.8210   41.9870 F   0  0  0  0  0  0  0  0  0  0  0  0
   56.3630   30.7520   44.1670 C   0  0  0  0  0  0  0  0  0  0  0  0
   56.6470   31.7320   45.0660 N   0  0  0  0  0  0  0  0  0  0  0  0
   61.7503   33.5595   49.8602 H   0  0  0  0  0  0  0  0  0  0  0  0
   63.3611   33.9912   49.1927 H   0  0  0  0  0  0  0  0  0  0  0  0
   62.0349   35.2027   49.1927 H   0  0  0  0  0  0  0  0  0  0  0  0
   62.7854   31.2131   48.3997 H   0  0  0  0  0  0  0  0  0  0  0  0
   61.5980   29.0760   47.9448 H   0  0  0  0  0  0  0  0  0  0  0  0
   57.1174   29.1632   46.7821 H   0  0  0  0  0  0  0  0  0  0  0  0
   57.9731   29.4879   45.2163 H   0  0  0  0  0  0  0  0  0  0  0  0
   56.4482   27.4498   45.2196 H   0  0  0  0  0  0  0  0  0  0  0  0
   58.1547   27.1506   44.7285 H   0  0  0  0  0  0  0  0  0  0  0  0
   55.5827   23.0654   47.3635 H   0  0  0  0  0  0  0  0  0  0  0  0
   53.8233   21.3005   47.4670 H   0  0  0  0  0  0  0  0  0  0  0  0
   51.3846   23.5652   44.7028 H   0  0  0  0  0  0  0  0  0  0  0  0
   53.1469   25.3304   44.5873 H   0  0  0  0  0  0  0  0  0  0  0  0
   58.4815   26.7049   48.5375 H   0  0  0  0  0  0  0  0  0  0  0  0
   59.2863   25.4702   47.4780 H   0  0  0  0  0  0  0  0  0  0  0  0
   60.5806   27.6469   47.8604 H   0  0  0  0  0  0  0  0  0  0  0  0
   60.3271   27.1390   46.1460 H   0  0  0  0  0  0  0  0  0  0  0  0
   58.3105   31.2726   46.1826 H   0  0  0  0  0  0  0  0  0  0  0  0
   58.7188   33.6799   43.2238 H   0  0  0  0  0  0  0  0  0  0  0  0
   58.2162   31.8931   41.5460 H   0  0  0  0  0  0  0  0  0  0  0  0
   55.6935   29.9256   44.4479 H   0  0  0  0  0  0  0  0  0  0  0  0
  1  2  1  0
  2  3  1  0
  3  4  2  0
  4  5  1  0
  5  6  2  0
  6  7  1  0
  7  8  1  0
  8  9  1  0
  9 10  1  0
 10 11  1  0
 11 12  2  0
 11 13  1  0
 13 14  1  0
 14 15  2  0
 15 16  1  0
 16 17  2  0
 17 18  1  0
 17 19  1  0
 19 20  2  0
 10 21  1  0
 21 22  1  0
  6 23  1  0
 23 24  2  0
 24 25  1  0
 25 26  2  0
 25 27  2  0
 25 28  1  0
 28 29  2  3
 29 30  1  0
 30 31  2  0
 31 32  1  0
 32 33  1  0
 32 34  2  0
 34 35  1  0
 24  3  1  0
 35 29  1  0
 22  7  1  0
 20 14  1  0
  1 36  1  0
  1 37  1  0
  1 38  1  0
  4 39  1  0
  5 40  1  0
  8 41  1  0
  8 42  1  0
  9 43  1  0
  9 44  1  0
 15 45  1  0
 16 46  1  0
 19 47  1  0
 20 48  1  0
 21 49  1  0
 21 50  1  0
 22 51  1  0
 22 52  1  0
 23 53  1  0
 30 54  1  0
 31 55  1  0
 34 56  1  0
M  CHG  2  13  -1  35  -1
M  END
>  <UniqueID>  (47) 
45

>  <SMILES>  (47) 
COc1ccc(N2CCN(C(=O)[N-]c3ccc(Cl)cc3)CC2)cc1S(=O)(=O)N=c1ccc(F)c[n-]1

>  <Energy>  (47) 
73.31404469027247

>  <Genealogy>  (47) 
COc1ccc(N2CCN(C(=O)[N-]c3ccc(Cl)cc3)CC2)cc1S(=O)(=O)N=c1ccc(F)c[n-]1 (protonated)
COc1ccc(N2CCN(C(=O)[N-]c3ccc(Cl)cc3)CC2)cc1S(=O)(=O)N=c1ccc(F)c[n-]1 (3D coordinates assigned)
COc1ccc(N2CCN(C(=O)[N-]c3ccc(Cl)cc3)CC2)cc1S(=O)(=O)N=c1ccc(F)c[n-]1 (nonaromatic ring conformer: 73.31404469027247 kcal/mol)

>  <smiles>  (47) 
COc1ccc(N2CCN(C(=O)Nc3ccc(Cl)cc3)CC2)cc1S(=O)(=O)N=c1ccc(F)c[nH]1

>  <score_type>  (47) 
oracle

>  <origin>  (47) 
adg

>  <m_score__min__energy>  (47) 
-11.82

>  <m_primary>  (47) 
energy

$$$$
