0:0
     RDKit          3D

 58 62  0  0  0  0  0  0  0  0999 V2000
   57.1190   32.4300   40.7900 C   0  0  0  0  0  0  0  0  0  0  0  0
   58.1320   32.3570   41.9340 C   0  0  0  0  0  0  0  0  0  0  0  0
   57.6160   31.7080   43.1630 N   0  0  0  0  0  0  0  0  0  0  0  0
   57.3390   32.6170   44.3000 C   0  0  0  0  0  0  0  0  0  0  0  0
   58.3570   33.7560   44.4730 C   0  0  0  0  0  0  0  0  0  0  0  0
   56.6410   30.6190   42.9400 C   0  0  0  0  0  0  0  0  0  0  0  0
   56.9460   29.4230   43.8470 C   0  0  0  0  0  0  0  0  0  0  0  0
   56.8650   29.8060   45.2560 N   0  0  0  0  0  0  0  0  0  0  0  0
   57.7790   29.2410   46.2060 C   0  0  0  0  0  0  0  0  0  0  0  0
   58.6960   30.0610   46.8520 C   0  0  0  0  0  0  0  0  0  0  0  0
   59.5530   29.5410   47.8050 C   0  0  0  0  0  0  0  0  0  0  0  0
   59.5190   28.2300   48.1960 N   0  0  0  0  0  0  0  0  0  0  0  0
   60.3450   27.7810   49.3300 C   0  0  0  0  0  0  0  0  0  0  0  0
   58.6900   27.3600   47.5090 C   0  0  0  0  0  0  0  0  0  0  0  0
   58.7080   25.9670   47.7560 C   0  0  0  0  0  0  0  0  0  0  0  0
   57.8710   25.1010   47.0510 C   0  0  0  0  0  0  0  0  0  0  0  0
   57.0120   25.5950   46.0740 C   0  0  0  0  0  0  0  0  0  0  0  0
   56.9800   26.9580   45.7930 C   0  0  0  0  0  0  0  0  0  0  0  0
   57.7980   27.8570   46.5010 C   0  0  0  0  0  0  0  0  0  0  0  0
   60.4030   30.6280   48.2650 C   0  0  0  0  0  0  0  0  0  0  0  0
   61.7260   30.6100   48.5490 N   0  0  0  0  0  0  0  0  0  0  0  0
   62.1840   31.7970   48.0990 C   0  0  0  0  0  0  0  0  0  0  0  0
   63.5160   32.2060   48.0290 C   0  0  0  0  0  0  0  0  0  0  0  0
   63.8050   33.3980   47.3400 C   0  0  0  0  0  0  0  0  0  0  0  0
   62.7770   34.1260   46.7040 C   0  0  0  0  0  0  0  0  0  0  0  0
   61.4450   33.6760   46.7570 C   0  0  0  0  0  0  0  0  0  0  0  0
   61.1810   32.5240   47.4930 C   0  0  0  0  0  0  0  0  0  0  0  0
   60.0330   31.7730   47.6140 C   0  0  0  0  0  0  0  0  0  0  0  0
   58.9150   31.5400   46.6470 C   0  0  0  0  0  0  0  0  0  0  0  0
   56.1027   32.5032   41.2043 H   0  0  0  0  0  0  0  0  0  0  0  0
   57.3275   33.3154   40.1715 H   0  0  0  0  0  0  0  0  0  0  0  0
   57.1984   31.5238   40.1715 H   0  0  0  0  0  0  0  0  0  0  0  0
   59.0063   31.7881   41.5847 H   0  0  0  0  0  0  0  0  0  0  0  0
   58.3784   33.3944   42.2043 H   0  0  0  0  0  0  0  0  0  0  0  0
   56.3461   33.0649   44.1469 H   0  0  0  0  0  0  0  0  0  0  0  0
   57.4005   32.0036   45.2110 H   0  0  0  0  0  0  0  0  0  0  0  0
   58.5220   33.9406   45.5448 H   0  0  0  0  0  0  0  0  0  0  0  0
   59.3083   33.4726   43.9990 H   0  0  0  0  0  0  0  0  0  0  0  0
   57.9690   34.6697   43.9990 H   0  0  0  0  0  0  0  0  0  0  0  0
   55.6291   30.9900   43.1601 H   0  0  0  0  0  0  0  0  0  0  0  0
   56.7092   30.2933   41.8915 H   0  0  0  0  0  0  0  0  0  0  0  0
   56.2165   28.6241   43.6479 H   0  0  0  0  0  0  0  0  0  0  0  0
   57.9665   29.0711   43.6353 H   0  0  0  0  0  0  0  0  0  0  0  0
   55.9260   30.0900   45.6150 H   0  0  0  0  0  0  0  0  0  0  0  0
   59.8491   28.0505   50.2742 H   0  0  0  0  0  0  0  0  0  0  0  0
   60.4724   26.6895   49.2813 H   0  0  0  0  0  0  0  0  0  0  0  0
   61.3303   28.2677   49.2813 H   0  0  0  0  0  0  0  0  0  0  0  0
   59.3922   25.5604   48.5153 H   0  0  0  0  0  0  0  0  0  0  0  0
   57.8904   24.0229   47.2686 H   0  0  0  0  0  0  0  0  0  0  0  0
   56.3560   24.9060   45.5218 H   0  0  0  0  0  0  0  0  0  0  0  0
   56.3077   27.3361   45.0088 H   0  0  0  0  0  0  0  0  0  0  0  0
   62.3080   29.7920   48.8350 H   0  0  0  0  0  0  0  0  0  0  0  0
   64.3159   31.6144   48.4983 H   0  0  0  0  0  0  0  0  0  0  0  0
   64.8409   33.7656   47.2967 H   0  0  0  0  0  0  0  0  0  0  0  0
   63.0189   35.0525   46.1626 H   0  0  0  0  0  0  0  0  0  0  0  0
   60.6406   34.2153   46.2354 H   0  0  0  0  0  0  0  0  0  0  0  0
   58.0209   32.1252   46.9079 H   0  0  0  0  0  0  0  0  0  0  0  0
   59.1296   31.8375   45.6099 H   0  0  0  0  0  0  0  0  0  0  0  0
  1  2  1  0
  2  3  1  0
  3  4  1  0
  4  5  1  0
  3  6  1  0
  6  7  1  0
  7  8  1  0
  8  9  1  0
  9 10  2  0
 10 11  1  0
 11 12  2  0
 12 13  1  0
 12 14  1  0
 14 15  2  0
 15 16  1  0
 16 17  2  0
 17 18  1  0
 18 19  2  0
 11 20  1  0
 20 21  1  0
 21 22  1  0
 22 23  2  0
 23 24  1  0
 24 25  2  0
 25 26  1  0
 26 27  2  0
 27 28  1  0
 28 29  1  0
 19  9  1  0
 28 20  2  0
 29 10  1  0
 19 14  1  0
 27 22  1  0
  1 30  1  0
  1 31  1  0
  1 32  1  0
  2 33  1  0
  2 34  1  0
  4 35  1  0
  4 36  1  0
  5 37  1  0
  5 38  1  0
  5 39  1  0
  6 40  1  0
  6 41  1  0
  7 42  1  0
  7 43  1  0
  8 44  1  0
 13 45  1  0
 13 46  1  0
 13 47  1  0
 15 48  1  0
 16 49  1  0
 17 50  1  0
 18 51  1  0
 21 52  1  0
 23 53  1  0
 24 54  1  0
 25 55  1  0
 26 56  1  0
 29 57  1  0
 29 58  1  0
M  CHG  1  12   1
M  END
>  <UniqueID>  (1) 
1

>  <SMILES>  (1) 
CCN(CC)CCNc1c2c([n+](C)c3ccccc13)-c1[nH]c3ccccc3c1C2

>  <Energy>  (1) 
155.56104630673795

>  <Genealogy>  (1) 
CCN(CC)CCNc1c2c([n+](C)c3ccccc13)-c1[nH]c3ccccc3c1C2 (3D coordinates assigned)
CCN(CC)CCNc1c2c([n+](C)c3ccccc13)-c1[nH]c3ccccc3c1C2 (nonaromatic ring conformer: 155.56104630673795 kcal/mol)

>  <smiles>  (1) 
CCN(CC)CCNc1c2c([n+](C)c3ccccc13)-c1[nH]c3ccccc3c1C2

>  <score_type>  (1) 
oracle

>  <origin>  (1) 
adg

>  <m_score__min__energy>  (1) 
-7.0599999999999996

>  <m_primary>  (1) 
energy

$$$$
1:0
     RDKit          3D

 47 49  0  0  0  0  0  0  0  0999 V2000
   56.2700   25.7790   46.0080 C   0  0  0  0  0  0  0  0  0  0  0  0
   56.5480   27.1740   46.0110 O   0  0  0  0  0  0  0  0  0  0  0  0
   57.8340   27.7340   45.9210 C   0  0  0  0  0  0  0  0  0  0  0  0
   58.7090   27.7500   47.0260 C   0  0  0  0  0  0  0  0  0  0  0  0
   59.9810   28.3150   46.9130 C   0  0  0  0  0  0  0  0  0  0  0  0
   60.3950   28.8670   45.7030 C   0  0  0  0  0  0  0  0  0  0  0  0
   59.5410   28.8600   44.6000 C   0  0  0  0  0  0  0  0  0  0  0  0
   58.2530   28.2940   44.6930 C   0  0  0  0  0  0  0  0  0  0  0  0
   57.3620   28.2790   43.5580 N   0  0  0  0  0  0  0  0  0  0  0  0
   56.8980   29.4960   42.8870 C   0  0  0  0  0  0  0  0  0  0  0  0
   57.0040   30.6810   43.8000 C   0  0  0  0  0  0  0  0  0  0  0  0
   56.7740   30.6200   45.1270 N   0  0  0  0  0  0  0  0  0  0  0  0
   57.0240   31.8250   45.6190 N   0  0  0  0  0  0  0  0  0  0  0  0
   57.3970   32.6010   44.5850 C   0  0  0  0  0  0  0  0  0  0  0  0
   57.8640   34.3270   44.7540 S   0  0  0  0  0  0  0  0  0  0  0  0
   59.5790   34.0040   45.3080 C   0  0  0  0  0  0  0  0  0  0  0  0
   59.6560   33.3440   46.6940 C   0  0  0  0  0  0  0  0  0  0  0  0
   61.0650   33.0240   47.1340 C   0  0  0  0  0  0  0  0  0  0  0  0
   61.3330   31.8840   47.9140 C   0  0  0  0  0  0  0  0  0  0  0  0
   62.6390   31.5940   48.3180 C   0  0  0  0  0  0  0  0  0  0  0  0
   63.6930   32.4240   47.9250 C   0  0  0  0  0  0  0  0  0  0  0  0
   63.4440   33.5350   47.1180 C   0  0  0  0  0  0  0  0  0  0  0  0
   62.1370   33.8320   46.7160 C   0  0  0  0  0  0  0  0  0  0  0  0
   57.3970   31.9150   43.4250 N   0  0  0  0  0  0  0  0  0  0  0  0
   57.9570   32.3280   42.1390 C   0  0  0  0  0  0  0  0  0  0  0  0
   56.1979   25.4173   47.0443 H   0  0  0  0  0  0  0  0  0  0  0  0
   55.3177   25.5960   45.4887 H   0  0  0  0  0  0  0  0  0  0  0  0
   57.0794   25.2449   45.4887 H   0  0  0  0  0  0  0  0  0  0  0  0
   58.3877   27.3145   47.9837 H   0  0  0  0  0  0  0  0  0  0  0  0
   60.6570   28.3242   47.7807 H   0  0  0  0  0  0  0  0  0  0  0  0
   61.3983   29.3097   45.6170 H   0  0  0  0  0  0  0  0  0  0  0  0
   59.8755   29.3001   43.6490 H   0  0  0  0  0  0  0  0  0  0  0  0
   57.0190   27.3580   43.2010 H   0  0  0  0  0  0  0  0  0  0  0  0
   57.5149   29.6728   41.9936 H   0  0  0  0  0  0  0  0  0  0  0  0
   55.8435   29.3623   42.6039 H   0  0  0  0  0  0  0  0  0  0  0  0
   60.0626   33.3390   44.5773 H   0  0  0  0  0  0  0  0  0  0  0  0
   60.0863   34.9772   45.3819 H   0  0  0  0  0  0  0  0  0  0  0  0
   59.2087   34.0280   47.4302 H   0  0  0  0  0  0  0  0  0  0  0  0
   59.1143   32.3890   46.6270 H   0  0  0  0  0  0  0  0  0  0  0  0
   60.5092   31.2168   48.2077 H   0  0  0  0  0  0  0  0  0  0  0  0
   62.8377   30.7125   48.9453 H   0  0  0  0  0  0  0  0  0  0  0  0
   64.7193   32.2012   48.2521 H   0  0  0  0  0  0  0  0  0  0  0  0
   64.2766   34.1784   46.7974 H   0  0  0  0  0  0  0  0  0  0  0  0
   61.9474   34.7018   46.0699 H   0  0  0  0  0  0  0  0  0  0  0  0
   58.8315   32.9730   42.3100 H   0  0  0  0  0  0  0  0  0  0  0  0
   58.2635   31.4380   41.5697 H   0  0  0  0  0  0  0  0  0  0  0  0
   57.1973   32.8837   41.5697 H   0  0  0  0  0  0  0  0  0  0  0  0
  1  2  1  0
  2  3  1  0
  3  4  2  0
  4  5  1  0
  5  6  2  0
  6  7  1  0
  7  8  2  0
  8  9  1  0
  9 10  1  0
 10 11  1  0
 11 12  2  0
 12 13  1  0
 13 14  2  0
 14 15  1  0
 15 16  1  0
 16 17  1  0
 17 18  1  0
 18 19  2  0
 19 20  1  0
 20 21  2  0
 21 22  1  0
 22 23  2  0
 14 24  1  0
 24 25  1  0
  8  3  1  0
 24 11  1  0
 23 18  1  0
  1 26  1  0
  1 27  1  0
  1 28  1  0
  4 29  1  0
  5 30  1  0
  6 31  1  0
  7 32  1  0
  9 33  1  0
 10 34  1  0
 10 35  1  0
 16 36  1  0
 16 37  1  0
 17 38  1  0
 17 39  1  0
 19 40  1  0
 20 41  1  0
 21 42  1  0
 22 43  1  0
 23 44  1  0
 25 45  1  0
 25 46  1  0
 25 47  1  0
M  END
>  <UniqueID>  (2) 
2

>  <SMILES>  (2) 
COc1ccccc1NCc1nnc(SCCc2ccccc2)n1C

>  <Energy>  (2) 
76.12000908168716

>  <Genealogy>  (2) 
COc1ccccc1NCc1nnc(SCCc2ccccc2)n1C (3D coordinates assigned)
COc1ccccc1NCc1nnc(SCCc2ccccc2)n1C (optimized conformer: 76.12000908168716 kcal/mol)

>  <smiles>  (2) 
COc1ccccc1NCc1nnc(SCCc2ccccc2)n1C

>  <score_type>  (2) 
oracle

>  <origin>  (2) 
adg

>  <m_score__min__energy>  (2) 
-8.9100000000000001

>  <m_primary>  (2) 
energy

$$$$
2:0
     RDKit          3D

 55 57  0  0  0  0  0  0  0  0999 V2000
   57.3600   26.4610   46.7580 C   0  0  0  0  0  0  0  0  0  0  0  0
   58.6390   26.9500   46.0560 C   0  0  0  0  0  0  0  0  0  0  0  0
   58.4110   27.7010   44.7900 N   0  0  0  0  0  0  0  0  0  0  0  0
   59.4890   28.6630   44.4530 C   0  0  0  0  0  0  0  0  0  0  0  0
   60.8210   28.3120   45.1150 C   0  0  0  0  0  0  0  0  0  0  0  0
   57.0880   28.3660   44.7240 C   0  0  0  0  0  0  0  0  0  0  0  0
   56.9470   29.3190   43.5230 C   0  0  0  0  0  0  0  0  0  0  0  0
   56.2930   30.6570   43.8820 C   0  0  0  0  0  0  0  0  0  0  0  0
   56.6910   31.0690   45.1940 O   0  0  0  0  0  0  0  0  0  0  0  0
   57.7730   31.9070   45.5170 C   0  0  0  0  0  0  0  0  0  0  0  0
   57.9300   33.2190   45.0180 C   0  0  0  0  0  0  0  0  0  0  0  0
   59.0570   33.9750   45.4140 C   0  0  0  0  0  0  0  0  0  0  0  0
   59.2650   35.3550   44.8690 C   0  0  0  0  0  0  0  0  0  0  0  0
   59.9930   33.4280   46.2490 N   0  0  0  0  0  0  0  0  0  0  0  0
   59.8000   32.1690   46.7170 C   0  0  0  0  0  0  0  0  0  0  0  0
   60.6080   31.4180   47.5460 C   0  0  0  0  0  0  0  0  0  0  0  0
   61.8740   31.8170   48.1960 C   0  0  0  0  0  0  0  0  0  0  0  0
   62.7940   32.6370   47.5220 C   0  0  0  0  0  0  0  0  0  0  0  0
   63.9910   33.0080   48.1400 C   0  0  0  0  0  0  0  0  0  0  0  0
   64.2810   32.5650   49.4350 C   0  0  0  0  0  0  0  0  0  0  0  0
   65.7830   33.0340   50.2080 Cl  0  0  0  0  0  0  0  0  0  0  0  0
   63.3710   31.7460   50.1100 C   0  0  0  0  0  0  0  0  0  0  0  0
   62.1740   31.3730   49.4950 C   0  0  0  0  0  0  0  0  0  0  0  0
   59.9290   30.2000   47.6380 C   0  0  0  0  0  0  0  0  0  0  0  0
   60.3610   28.9910   48.4040 C   0  0  0  0  0  0  0  0  0  0  0  0
   58.7950   30.2390   46.8950 N   0  0  0  0  0  0  0  0  0  0  0  0
   58.7380   31.4410   46.3500 N   0  0  0  0  0  0  0  0  0  0  0  0
   57.4972   26.5134   47.8482 H   0  0  0  0  0  0  0  0  0  0  0  0
   56.5135   27.0989   46.4638 H   0  0  0  0  0  0  0  0  0  0  0  0
   57.1550   25.4211   46.4638 H   0  0  0  0  0  0  0  0  0  0  0  0
   59.1801   27.6086   46.7514 H   0  0  0  0  0  0  0  0  0  0  0  0
   59.2050   26.0475   45.7819 H   0  0  0  0  0  0  0  0  0  0  0  0
   59.6286   28.6670   43.3619 H   0  0  0  0  0  0  0  0  0  0  0  0
   59.1819   29.6506   44.8275 H   0  0  0  0  0  0  0  0  0  0  0  0
   60.7062   28.3423   46.2086 H   0  0  0  0  0  0  0  0  0  0  0  0
   61.1289   27.3021   44.8065 H   0  0  0  0  0  0  0  0  0  0  0  0
   61.5866   29.0390   44.8065 H   0  0  0  0  0  0  0  0  0  0  0  0
   56.3108   27.5913   44.6486 H   0  0  0  0  0  0  0  0  0  0  0  0
   56.9809   28.9716   45.6360 H   0  0  0  0  0  0  0  0  0  0  0  0
   57.9495   29.5187   43.1167 H   0  0  0  0  0  0  0  0  0  0  0  0
   56.2927   28.8238   42.7904 H   0  0  0  0  0  0  0  0  0  0  0  0
   56.6032   31.4197   43.1526 H   0  0  0  0  0  0  0  0  0  0  0  0
   55.1997   30.5376   43.8610 H   0  0  0  0  0  0  0  0  0  0  0  0
   57.1854   33.6467   44.3305 H   0  0  0  0  0  0  0  0  0  0  0  0
   59.3721   36.0658   45.7017 H   0  0  0  0  0  0  0  0  0  0  0  0
   60.1759   35.3724   44.2526 H   0  0  0  0  0  0  0  0  0  0  0  0
   58.3997   35.6401   44.2526 H   0  0  0  0  0  0  0  0  0  0  0  0
   60.8480   33.9680   46.5100 H   0  0  0  0  0  0  0  0  0  0  0  0
   62.5713   32.9884   46.5037 H   0  0  0  0  0  0  0  0  0  0  0  0
   64.7074   33.6502   47.6068 H   0  0  0  0  0  0  0  0  0  0  0  0
   63.5983   31.3948   51.1273 H   0  0  0  0  0  0  0  0  0  0  0  0
   61.4619   30.7279   50.0305 H   0  0  0  0  0  0  0  0  0  0  0  0
   60.2882   29.1949   49.4825 H   0  0  0  0  0  0  0  0  0  0  0  0
   59.7106   28.1421   48.1466 H   0  0  0  0  0  0  0  0  0  0  0  0
   61.4021   28.7465   48.1466 H   0  0  0  0  0  0  0  0  0  0  0  0
  1  2  1  0
  2  3  1  0
  3  4  1  0
  4  5  1  0
  3  6  1  0
  6  7  1  0
  7  8  1  0
  8  9  1  0
  9 10  1  0
 10 11  2  0
 11 12  1  0
 12 13  1  0
 12 14  2  0
 14 15  1  0
 15 16  2  0
 16 17  1  0
 17 18  2  0
 18 19  1  0
 19 20  2  0
 20 21  1  0
 20 22  1  0
 22 23  2  0
 16 24  1  0
 24 25  1  0
 24 26  2  0
 26 27  1  0
 27 10  1  0
 27 15  1  0
 23 17  1  0
  1 28  1  0
  1 29  1  0
  1 30  1  0
  2 31  1  0
  2 32  1  0
  4 33  1  0
  4 34  1  0
  5 35  1  0
  5 36  1  0
  5 37  1  0
  6 38  1  0
  6 39  1  0
  7 40  1  0
  7 41  1  0
  8 42  1  0
  8 43  1  0
 11 44  1  0
 13 45  1  0
 13 46  1  0
 13 47  1  0
 14 48  1  0
 18 49  1  0
 19 50  1  0
 22 51  1  0
 23 52  1  0
 25 53  1  0
 25 54  1  0
 25 55  1  0
M  CHG  1  14   1
M  END
>  <UniqueID>  (3) 
3

>  <SMILES>  (3) 
CCN(CC)CCCOc1cc(C)[nH+]c2c(-c3ccc(Cl)cc3)c(C)nn12

>  <Energy>  (3) 
97.66060633940963

>  <Genealogy>  (3) 
CCN(CC)CCCOc1cc(C)[nH+]c2c(-c3ccc(Cl)cc3)c(C)nn12 (protonated)
CCN(CC)CCCOc1cc(C)[nH+]c2c(-c3ccc(Cl)cc3)c(C)nn12 (3D coordinates assigned)
CCN(CC)CCCOc1cc(C)[nH+]c2c(-c3ccc(Cl)cc3)c(C)nn12 (optimized conformer: 97.66060633940963 kcal/mol)

>  <smiles>  (3) 
CCN(CC)CCCOc1cc(C)nc2c(-c3ccc(Cl)cc3)c(C)nn12

>  <score_type>  (3) 
oracle

>  <origin>  (3) 
adg

>  <m_score__min__energy>  (3) 
-6.5

>  <m_primary>  (3) 
energy

$$$$
3:0
     RDKit          3D

 47 48  0  0  0  0  0  0  0  0999 V2000
   60.7190   28.0280   49.9850 C   0  0  0  0  0  0  0  0  0  0  0  0
   60.0730   27.9600   48.6650 N   0  0  0  0  0  0  0  0  0  0  0  0
   60.6350   26.8350   47.8980 C   0  0  0  0  0  0  0  0  0  0  0  0
   60.2380   29.2350   47.9340 C   0  0  0  0  0  0  0  0  0  0  0  0
   58.9030   29.9950   47.8420 C   0  0  0  0  0  0  0  0  0  0  0  0
   59.0400   31.5100   48.0910 C   0  0  0  0  0  0  0  0  0  0  0  0
   59.6320   32.3020   46.9110 C   0  0  0  0  0  0  0  0  0  0  0  0
   58.7730   33.5150   46.4910 C   0  0  0  0  0  0  0  0  0  0  0  0
   57.3720   33.1000   46.0230 C   0  0  0  0  0  0  0  0  0  0  0  0
   57.3560   32.5510   44.5920 C   0  0  0  0  0  0  0  0  0  0  0  0
   56.7560   31.2540   44.5380 O   0  0  0  0  0  0  0  0  0  0  0  0
   57.4050   30.0210   44.7150 C   0  0  0  0  0  0  0  0  0  0  0  0
   58.7850   29.8350   44.4860 C   0  0  0  0  0  0  0  0  0  0  0  0
   59.3710   28.5810   44.6760 C   0  0  0  0  0  0  0  0  0  0  0  0
   58.5990   27.4980   45.1020 C   0  0  0  0  0  0  0  0  0  0  0  0
   59.1690   26.3100   45.2800 O   0  0  0  0  0  0  0  0  0  0  0  0
   58.4870   25.2420   45.6840 C   0  0  0  0  0  0  0  0  0  0  0  0
   57.1170   25.3310   45.9440 C   0  0  0  0  0  0  0  0  0  0  0  0
   56.4740   26.5580   45.7710 C   0  0  0  0  0  0  0  0  0  0  0  0
   55.2370   26.6490   46.0020 O   0  0  0  0  0  0  0  0  0  0  0  0
   57.2170   27.6700   45.3420 C   0  0  0  0  0  0  0  0  0  0  0  0
   56.6330   28.9340   45.1480 C   0  0  0  0  0  0  0  0  0  0  0  0
   59.9546   27.9475   50.7719 H   0  0  0  0  0  0  0  0  0  0  0  0
   61.4367   27.2004   50.0850 H   0  0  0  0  0  0  0  0  0  0  0  0
   61.2487   28.9869   50.0850 H   0  0  0  0  0  0  0  0  0  0  0  0
   61.0162   26.0719   48.5925 H   0  0  0  0  0  0  0  0  0  0  0  0
   59.8508   26.3951   47.2644 H   0  0  0  0  0  0  0  0  0  0  0  0
   61.4577   27.1979   47.2644 H   0  0  0  0  0  0  0  0  0  0  0  0
   60.9722   29.8604   48.4629 H   0  0  0  0  0  0  0  0  0  0  0  0
   60.5851   29.0119   46.9143 H   0  0  0  0  0  0  0  0  0  0  0  0
   58.4848   29.8439   46.8359 H   0  0  0  0  0  0  0  0  0  0  0  0
   58.2480   29.5953   48.6302 H   0  0  0  0  0  0  0  0  0  0  0  0
   58.0402   31.9139   48.3082 H   0  0  0  0  0  0  0  0  0  0  0  0
   59.7433   31.6261   48.9288 H   0  0  0  0  0  0  0  0  0  0  0  0
   60.6292   32.6650   47.2005 H   0  0  0  0  0  0  0  0  0  0  0  0
   59.6708   31.6190   46.0496 H   0  0  0  0  0  0  0  0  0  0  0  0
   58.6725   34.1927   47.3516 H   0  0  0  0  0  0  0  0  0  0  0  0
   59.2774   34.0098   45.6480 H   0  0  0  0  0  0  0  0  0  0  0  0
   56.9923   32.3216   46.7012 H   0  0  0  0  0  0  0  0  0  0  0  0
   56.7407   34.0007   46.0366 H   0  0  0  0  0  0  0  0  0  0  0  0
   56.7829   33.2375   43.9516 H   0  0  0  0  0  0  0  0  0  0  0  0
   58.3953   32.4668   44.2416 H   0  0  0  0  0  0  0  0  0  0  0  0
   59.4033   30.6827   44.1558 H   0  0  0  0  0  0  0  0  0  0  0  0
   60.4465   28.4460   44.4890 H   0  0  0  0  0  0  0  0  0  0  0  0
   59.0057   24.2808   45.8145 H   0  0  0  0  0  0  0  0  0  0  0  0
   56.5538   24.4478   46.2798 H   0  0  0  0  0  0  0  0  0  0  0  0
   55.5583   29.0716   45.3381 H   0  0  0  0  0  0  0  0  0  0  0  0
  1  2  1  0
  2  3  1  0
  2  4  1  0
  4  5  1  0
  5  6  1  0
  6  7  1  0
  7  8  1  0
  8  9  1  0
  9 10  1  0
 10 11  1  0
 11 12  1  0
 12 13  2  0
 13 14  1  0
 14 15  2  0
 15 16  1  0
 16 17  1  0
 17 18  2  0
 18 19  1  0
 19 20  2  0
 19 21  1  0
 21 22  2  0
 22 12  1  0
 21 15  1  0
  1 23  1  0
  1 24  1  0
  1 25  1  0
  3 26  1  0
  3 27  1  0
  3 28  1  0
  4 29  1  0
  4 30  1  0
  5 31  1  0
  5 32  1  0
  6 33  1  0
  6 34  1  0
  7 35  1  0
  7 36  1  0
  8 37  1  0
  8 38  1  0
  9 39  1  0
  9 40  1  0
 10 41  1  0
 10 42  1  0
 13 43  1  0
 14 44  1  0
 17 45  1  0
 18 46  1  0
 22 47  1  0
M  END
>  <UniqueID>  (4) 
4

>  <SMILES>  (4) 
CN(C)CCCCCCCOc1ccc2occc(=O)c2c1

>  <Energy>  (4) 
48.43553417049214

>  <Genealogy>  (4) 
CN(C)CCCCCCCOc1ccc2occc(=O)c2c1 (3D coordinates assigned)
CN(C)CCCCCCCOc1ccc2occc(=O)c2c1 (optimized conformer: 48.43553417049214 kcal/mol)

>  <smiles>  (4) 
CN(C)CCCCCCCOc1ccc2occc(=O)c2c1

>  <score_type>  (4) 
oracle

>  <origin>  (4) 
adg

>  <m_score__min__energy>  (4) 
-7.1500000000000004

>  <m_primary>  (4) 
energy

$$$$
4:0
     RDKit          3D

 52 54  0  0  0  0  0  0  0  0999 V2000
   60.3270   28.2470   45.1370 C   0  0  0  0  0  0  0  0  0  0  0  0
   60.0820   27.0470   46.0640 C   0  0  0  0  0  0  0  0  0  0  0  0
   58.6530   26.7450   46.3210 N   0  0  0  0  0  0  0  0  0  0  0  0
   58.1170   25.7470   45.3790 C   0  0  0  0  0  0  0  0  0  0  0  0
   57.7720   27.9320   46.3810 C   0  0  0  0  0  0  0  0  0  0  0  0
   57.1040   28.2280   45.0350 C   0  0  0  0  0  0  0  0  0  0  0  0
   55.9180   28.9690   45.2440 O   0  0  0  0  0  0  0  0  0  0  0  0
   55.5550   29.6840   44.0770 C   0  0  0  0  0  0  0  0  0  0  0  0
   56.3570   30.9840   43.9870 C   0  0  0  0  0  0  0  0  0  0  0  0
   57.0410   31.2500   45.2140 O   0  0  0  0  0  0  0  0  0  0  0  0
   57.9520   32.3010   45.4430 C   0  0  0  0  0  0  0  0  0  0  0  0
   57.7980   33.5560   44.8300 C   0  0  0  0  0  0  0  0  0  0  0  0
   58.7200   34.5680   45.0570 C   0  0  0  0  0  0  0  0  0  0  0  0
   59.8080   34.3580   45.9010 C   0  0  0  0  0  0  0  0  0  0  0  0
   59.9980   33.1130   46.5480 C   0  0  0  0  0  0  0  0  0  0  0  0
   59.0490   32.0860   46.3110 C   0  0  0  0  0  0  0  0  0  0  0  0
   59.2170   30.8410   46.9300 C   0  0  0  0  0  0  0  0  0  0  0  0
   60.2700   30.5890   47.7590 N   0  0  0  0  0  0  0  0  0  0  0  0
   60.3610   29.2460   48.3620 C   0  0  0  0  0  0  0  0  0  0  0  0
   61.2120   31.5610   48.0180 C   0  0  0  0  0  0  0  0  0  0  0  0
   62.3080   31.3040   48.8790 C   0  0  0  0  0  0  0  0  0  0  0  0
   63.2610   32.2820   49.1420 C   0  0  0  0  0  0  0  0  0  0  0  0
   63.1520   33.5360   48.5580 C   0  0  0  0  0  0  0  0  0  0  0  0
   62.0870   33.8240   47.7070 C   0  0  0  0  0  0  0  0  0  0  0  0
   61.0970   32.8510   47.4160 C   0  0  0  0  0  0  0  0  0  0  0  0
   60.5107   29.1467   45.7426 H   0  0  0  0  0  0  0  0  0  0  0  0
   61.2029   28.0472   44.5022 H   0  0  0  0  0  0  0  0  0  0  0  0
   59.4429   28.4065   44.5022 H   0  0  0  0  0  0  0  0  0  0  0  0
   60.5427   26.1597   45.6052 H   0  0  0  0  0  0  0  0  0  0  0  0
   60.5241   27.3098   47.0364 H   0  0  0  0  0  0  0  0  0  0  0  0
   57.6699   24.9145   45.9420 H   0  0  0  0  0  0  0  0  0  0  0  0
   57.3492   26.2157   44.7459 H   0  0  0  0  0  0  0  0  0  0  0  0
   58.9317   25.3657   44.7459 H   0  0  0  0  0  0  0  0  0  0  0  0
   56.9892   27.7540   47.1330 H   0  0  0  0  0  0  0  0  0  0  0  0
   58.3937   28.7998   46.6464 H   0  0  0  0  0  0  0  0  0  0  0  0
   57.7927   28.8103   44.4053 H   0  0  0  0  0  0  0  0  0  0  0  0
   56.8577   27.2800   44.5344 H   0  0  0  0  0  0  0  0  0  0  0  0
   55.7637   29.0656   43.1916 H   0  0  0  0  0  0  0  0  0  0  0  0
   54.4825   29.9245   44.1207 H   0  0  0  0  0  0  0  0  0  0  0  0
   57.0946   30.8962   43.1757 H   0  0  0  0  0  0  0  0  0  0  0  0
   55.6610   31.8120   43.7871 H   0  0  0  0  0  0  0  0  0  0  0  0
   56.9405   33.7376   44.1654 H   0  0  0  0  0  0  0  0  0  0  0  0
   58.5906   35.5440   44.5664 H   0  0  0  0  0  0  0  0  0  0  0  0
   60.5300   35.1711   46.0673 H   0  0  0  0  0  0  0  0  0  0  0  0
   58.4804   30.0458   46.7426 H   0  0  0  0  0  0  0  0  0  0  0  0
   60.3550   29.3352   49.4584 H   0  0  0  0  0  0  0  0  0  0  0  0
   59.5019   28.6399   48.0387 H   0  0  0  0  0  0  0  0  0  0  0  0
   61.2940   28.7613   48.0387 H   0  0  0  0  0  0  0  0  0  0  0  0
   62.4066   30.3136   49.3474 H   0  0  0  0  0  0  0  0  0  0  0  0
   64.1030   32.0610   49.8144 H   0  0  0  0  0  0  0  0  0  0  0  0
   63.9093   34.3057   48.7677 H   0  0  0  0  0  0  0  0  0  0  0  0
   62.0128   34.8232   47.2530 H   0  0  0  0  0  0  0  0  0  0  0  0
  1  2  1  0
  2  3  1  0
  3  4  1  0
  3  5  1  0
  5  6  1  0
  6  7  1  0
  7  8  1  0
  8  9  1  0
  9 10  1  0
 10 11  1  0
 11 12  2  0
 12 13  1  0
 13 14  2  0
 14 15  1  0
 15 16  2  0
 16 17  1  0
 17 18  2  0
 18 19  1  0
 18 20  1  0
 20 21  2  0
 21 22  1  0
 22 23  2  0
 23 24  1  0
 24 25  2  0
 16 11  1  0
 25 20  1  0
 25 15  1  0
  1 26  1  0
  1 27  1  0
  1 28  1  0
  2 29  1  0
  2 30  1  0
  4 31  1  0
  4 32  1  0
  4 33  1  0
  5 34  1  0
  5 35  1  0
  6 36  1  0
  6 37  1  0
  8 38  1  0
  8 39  1  0
  9 40  1  0
  9 41  1  0
 12 42  1  0
 13 43  1  0
 14 44  1  0
 17 45  1  0
 19 46  1  0
 19 47  1  0
 19 48  1  0
 21 49  1  0
 22 50  1  0
 23 51  1  0
 24 52  1  0
M  CHG  1  18   1
M  END
>  <UniqueID>  (5) 
5

>  <SMILES>  (5) 
CCN(C)CCOCCOc1cccc2c1c[n+](C)c1ccccc21

>  <Energy>  (5) 
71.1979861731526

>  <Genealogy>  (5) 
CCN(C)CCOCCOc1cccc2c1c[n+](C)c1ccccc21 (3D coordinates assigned)
CCN(C)CCOCCOc1cccc2c1c[n+](C)c1ccccc21 (optimized conformer: 71.1979861731526 kcal/mol)

>  <smiles>  (5) 
CCN(C)CCOCCOc1cccc2c1c[n+](C)c1ccccc21

>  <score_type>  (5) 
oracle

>  <origin>  (5) 
adg

>  <m_score__min__energy>  (5) 
-6.3799999999999999

>  <m_primary>  (5) 
energy

$$$$
5:0
     RDKit          3D

 59 61  0  0  0  0  0  0  0  0999 V2000
   58.0350   25.8430   46.5740 C   0  0  0  0  0  0  0  0  0  0  0  0
   56.6020   26.3230   46.3840 C   0  0  0  0  0  0  0  0  0  0  0  0
   56.5800   27.4960   45.5920 O   0  0  0  0  0  0  0  0  0  0  0  0
   57.6220   27.4680   44.6390 C   0  0  0  0  0  0  0  0  0  0  0  0
   57.3890   28.5640   43.6020 C   0  0  0  0  0  0  0  0  0  0  0  0
   56.3120   29.3890   44.0000 O   0  0  0  0  0  0  0  0  0  0  0  0
   56.6360   30.7560   43.8310 C   0  0  0  0  0  0  0  0  0  0  0  0
   57.7600   31.1500   44.8010 C   0  0  0  0  0  0  0  0  0  0  0  0
   57.7900   30.3370   46.0340 N   0  0  0  0  0  0  0  0  0  0  0  0
   59.1130   29.7590   46.3560 C   0  0  0  0  0  0  0  0  0  0  0  0
   59.0510   29.0140   47.7160 C   0  0  0  0  0  0  0  0  0  0  0  0
   59.5870   29.8850   48.8540 C   0  0  0  0  0  0  0  0  0  0  0  0
   61.0260   30.1670   48.6550 N   0  0  0  0  0  0  0  0  0  0  0  0
   61.5060   31.1850   49.6140 C   0  0  0  0  0  0  0  0  0  0  0  0
   62.1410   32.3900   48.8870 C   0  0  0  0  0  0  0  0  0  0  0  0
   61.3530   33.6290   49.0190 N   0  0  0  0  0  0  0  0  0  0  0  0
   60.2350   33.6650   48.1050 C   0  0  0  0  0  0  0  0  0  0  0  0
   58.9910   33.0710   48.4680 C   0  0  0  0  0  0  0  0  0  0  0  0
   57.8720   33.1670   47.6200 C   0  0  0  0  0  0  0  0  0  0  0  0
   58.0360   33.8520   46.4230 C   0  0  0  0  0  0  0  0  0  0  0  0
   57.1350   34.1040   45.4650 N   0  0  0  0  0  0  0  0  0  0  0  0
   57.8010   34.7880   44.5680 O   0  0  0  0  0  0  0  0  0  0  0  0
   59.0590   34.9990   44.8710 N   0  0  0  0  0  0  0  0  0  0  0  0
   59.2160   34.4030   46.0600 C   0  0  0  0  0  0  0  0  0  0  0  0
   60.3510   34.3320   46.8590 C   0  0  0  0  0  0  0  0  0  0  0  0
   61.4020   30.4700   47.2460 C   0  0  0  0  0  0  0  0  0  0  0  0
   60.2050   30.8590   46.3670 C   0  0  0  0  0  0  0  0  0  0  0  0
   58.2573   25.7685   47.6487 H   0  0  0  0  0  0  0  0  0  0  0  0
   58.1560   24.8553   46.1052 H   0  0  0  0  0  0  0  0  0  0  0  0
   58.7266   26.5585   46.1052 H   0  0  0  0  0  0  0  0  0  0  0  0
   56.0185   25.5360   45.8838 H   0  0  0  0  0  0  0  0  0  0  0  0
   56.1650   26.5465   47.3684 H   0  0  0  0  0  0  0  0  0  0  0  0
   58.5850   27.6379   45.1428 H   0  0  0  0  0  0  0  0  0  0  0  0
   57.6384   26.4875   44.1406 H   0  0  0  0  0  0  0  0  0  0  0  0
   58.2991   29.1745   43.5072 H   0  0  0  0  0  0  0  0  0  0  0  0
   57.1477   28.0988   42.6349 H   0  0  0  0  0  0  0  0  0  0  0  0
   56.9700   30.9267   42.7969 H   0  0  0  0  0  0  0  0  0  0  0  0
   55.7461   31.3679   44.0398 H   0  0  0  0  0  0  0  0  0  0  0  0
   58.7233   31.0319   44.2832 H   0  0  0  0  0  0  0  0  0  0  0  0
   57.5730   32.1904   45.1054 H   0  0  0  0  0  0  0  0  0  0  0  0
   57.0840   29.5700   45.9340 H   0  0  0  0  0  0  0  0  0  0  0  0
   59.3824   29.0319   45.5757 H   0  0  0  0  0  0  0  0  0  0  0  0
   58.0056   28.7476   47.9309 H   0  0  0  0  0  0  0  0  0  0  0  0
   59.6768   28.1121   47.6458 H   0  0  0  0  0  0  0  0  0  0  0  0
   59.0315   30.8342   48.8763 H   0  0  0  0  0  0  0  0  0  0  0  0
   59.4572   29.3482   49.8053 H   0  0  0  0  0  0  0  0  0  0  0  0
   60.6559   31.5380   50.2163 H   0  0  0  0  0  0  0  0  0  0  0  0
   62.2730   30.7234   50.2533 H   0  0  0  0  0  0  0  0  0  0  0  0
   63.1415   32.5654   49.3091 H   0  0  0  0  0  0  0  0  0  0  0  0
   62.1821   32.1412   47.8163 H   0  0  0  0  0  0  0  0  0  0  0  0
   61.9750   34.4580   48.8790 H   0  0  0  0  0  0  0  0  0  0  0  0
   60.9800   33.6830   49.9960 H   0  0  0  0  0  0  0  0  0  0  0  0
   58.9047   32.5311   49.4225 H   0  0  0  0  0  0  0  0  0  0  0  0
   56.9062   32.7175   47.8942 H   0  0  0  0  0  0  0  0  0  0  0  0
   61.3041   34.7768   46.5367 H   0  0  0  0  0  0  0  0  0  0  0  0
   62.1191   31.3041   47.2479 H   0  0  0  0  0  0  0  0  0  0  0  0
   61.8337   29.5523   46.8200 H   0  0  0  0  0  0  0  0  0  0  0  0
   59.7672   31.7906   46.7548 H   0  0  0  0  0  0  0  0  0  0  0  0
   60.5674   30.9893   45.3366 H   0  0  0  0  0  0  0  0  0  0  0  0
  1  2  1  0
  2  3  1  0
  3  4  1  0
  4  5  1  0
  5  6  1  0
  6  7  1  0
  7  8  1  0
  8  9  1  0
  9 10  1  0
 10 11  1  0
 11 12  1  0
 12 13  1  0
 13 14  1  0
 14 15  1  0
 15 16  1  0
 16 17  1  0
 17 18  1  0
 18 19  2  0
 19 20  1  0
 20 21  2  0
 21 22  1  0
 22 23  1  0
 23 24  2  0
 24 25  1  0
 13 26  1  0
 26 27  1  0
 27 10  1  0
 25 17  2  0
 24 20  1  0
  1 28  1  0
  1 29  1  0
  1 30  1  0
  2 31  1  0
  2 32  1  0
  4 33  1  0
  4 34  1  0
  5 35  1  0
  5 36  1  0
  7 37  1  0
  7 38  1  0
  8 39  1  0
  8 40  1  0
  9 41  1  0
 10 42  1  0
 11 43  1  0
 11 44  1  0
 12 45  1  0
 12 46  1  0
 14 47  1  0
 14 48  1  0
 15 49  1  0
 15 50  1  0
 16 51  1  0
 16 52  1  0
 18 53  1  0
 19 54  1  0
 25 55  1  0
 26 56  1  0
 26 57  1  0
 27 58  1  0
 27 59  1  0
M  CHG  1  16   1
M  END
>  <UniqueID>  (6) 
6

>  <SMILES>  (6) 
CCOCCOCCNC1CCN(CC[NH2+]c2ccc3nonc3c2)CC1

>  <Energy>  (6) 
109.49396871303799

>  <Genealogy>  (6) 
CCOCCOCCNC1CCN(CC[NH2+]c2ccc3nonc3c2)CC1 (protonated)
CCOCCOCCNC1CCN(CC[NH2+]c2ccc3nonc3c2)CC1 (3D coordinates assigned)
CCOCCOCCNC1CCN(CC[NH2+]c2ccc3nonc3c2)CC1 (nonaromatic ring conformer: 109.49396871303799 kcal/mol)

>  <smiles>  (6) 
CCOCCOCCNC1CCN(CCNc2ccc3nonc3c2)CC1

>  <score_type>  (6) 
oracle

>  <origin>  (6) 
adg

>  <m_score__min__energy>  (6) 
-6.3300000000000001

>  <m_primary>  (6) 
energy

$$$$
6:0
     RDKit          3D

 47 48  0  0  0  0  0  0  0  0999 V2000
   59.4370   28.9830   44.7740 C   0  0  0  0  0  0  0  0  0  0  0  0
   58.8770   27.6780   44.2040 C   0  0  0  0  0  0  0  0  0  0  0  0
   57.4000   27.7160   44.0760 N   0  0  0  0  0  0  0  0  0  0  0  0
   56.8010   28.9170   44.6870 C   0  0  0  0  0  0  0  0  0  0  0  0
   56.3620   29.9620   43.6370 C   0  0  2  0  0  0  0  0  0  0  0  0
   56.5280   29.4370   42.3440 O   0  0  0  0  0  0  0  0  0  0  0  0
   57.2030   31.2430   43.7530 C   0  0  0  0  0  0  0  0  0  0  0  0
   56.9120   31.9510   44.9590 O   0  0  0  0  0  0  0  0  0  0  0  0
   57.8610   32.4260   45.8810 C   0  0  0  0  0  0  0  0  0  0  0  0
   57.8600   33.7870   46.1780 C   0  0  0  0  0  0  0  0  0  0  0  0
   58.7780   34.3160   47.0820 C   0  0  0  0  0  0  0  0  0  0  0  0
   59.7230   33.4950   47.7240 C   0  0  0  0  0  0  0  0  0  0  0  0
   59.7540   32.1050   47.4080 C   0  0  0  0  0  0  0  0  0  0  0  0
   58.7990   31.5900   46.5100 C   0  0  0  0  0  0  0  0  0  0  0  0
   60.6820   31.0930   48.0560 C   0  0  0  0  0  0  0  0  0  0  0  0
   62.1620   31.4720   48.0490 C   0  0  0  0  0  0  0  0  0  0  0  0
   62.4160   32.8460   47.4070 C   0  0  0  0  0  0  0  0  0  0  0  0
   62.1250   34.0020   48.2820 N   0  0  0  0  0  0  0  0  0  0  0  0
   63.0710   34.1770   49.3950 C   0  0  0  0  0  0  0  0  0  0  0  0
   60.7110   34.1800   48.6580 C   0  0  0  0  0  0  0  0  0  0  0  0
   59.4188   28.9407   45.8730 H   0  0  0  0  0  0  0  0  0  0  0  0
   60.4727   29.1190   44.4294 H   0  0  0  0  0  0  0  0  0  0  0  0
   58.8220   29.8274   44.4294 H   0  0  0  0  0  0  0  0  0  0  0  0
   59.3153   27.5079   43.2096 H   0  0  0  0  0  0  0  0  0  0  0  0
   59.1370   26.8651   44.8979 H   0  0  0  0  0  0  0  0  0  0  0  0
   57.1620   27.7370   43.0570 H   0  0  0  0  0  0  0  0  0  0  0  0
   56.9490   26.8560   44.4650 H   0  0  0  0  0  0  0  0  0  0  0  0
   55.9199   28.6129   45.2711 H   0  0  0  0  0  0  0  0  0  0  0  0
   57.5674   29.3849   45.3224 H   0  0  0  0  0  0  0  0  0  0  0  0
   55.3046   30.2030   43.8207 H   0  0  0  0  0  0  0  0  0  0  0  0
   57.3390   29.8580   41.9560 H   0  0  0  0  0  0  0  0  0  0  0  0
   58.2693   30.9728   43.7452 H   0  0  0  0  0  0  0  0  0  0  0  0
   56.9589   31.8953   42.9016 H   0  0  0  0  0  0  0  0  0  0  0  0
   57.1276   34.4499   45.6942 H   0  0  0  0  0  0  0  0  0  0  0  0
   58.7639   35.3945   47.2978 H   0  0  0  0  0  0  0  0  0  0  0  0
   58.7872   30.5110   46.2966 H   0  0  0  0  0  0  0  0  0  0  0  0
   60.3683   30.9644   49.1024 H   0  0  0  0  0  0  0  0  0  0  0  0
   60.5987   30.1741   47.4571 H   0  0  0  0  0  0  0  0  0  0  0  0
   62.5249   31.4954   49.0872 H   0  0  0  0  0  0  0  0  0  0  0  0
   62.6964   30.7198   47.4501 H   0  0  0  0  0  0  0  0  0  0  0  0
   63.4751   32.8964   47.1141 H   0  0  0  0  0  0  0  0  0  0  0  0
   61.7259   32.9217   46.5537 H   0  0  0  0  0  0  0  0  0  0  0  0
   62.5353   34.0779   50.3506 H   0  0  0  0  0  0  0  0  0  0  0  0
   63.8559   33.4088   49.3333 H   0  0  0  0  0  0  0  0  0  0  0  0
   63.5292   35.1751   49.3333 H   0  0  0  0  0  0  0  0  0  0  0  0
   60.5694   33.7709   49.6692 H   0  0  0  0  0  0  0  0  0  0  0  0
   60.5032   35.2586   48.6000 H   0  0  0  0  0  0  0  0  0  0  0  0
  1  2  1  0
  2  3  1  0
  3  4  1  0
  4  5  1  0
  5  6  1  0
  5  7  1  0
  7  8  1  0
  8  9  1  0
  9 10  2  0
 10 11  1  0
 11 12  2  0
 12 13  1  0
 13 14  2  0
 13 15  1  0
 15 16  1  0
 16 17  1  0
 17 18  1  0
 18 19  1  0
 18 20  1  0
 14  9  1  0
 20 12  1  0
  1 21  1  0
  1 22  1  0
  1 23  1  0
  2 24  1  0
  2 25  1  0
  3 26  1  0
  3 27  1  0
  4 28  1  0
  4 29  1  0
  5 30  1  1
  6 31  1  0
  7 32  1  0
  7 33  1  0
 10 34  1  0
 11 35  1  0
 14 36  1  0
 15 37  1  0
 15 38  1  0
 16 39  1  0
 16 40  1  0
 17 41  1  0
 17 42  1  0
 19 43  1  0
 19 44  1  0
 19 45  1  0
 20 46  1  0
 20 47  1  0
M  CHG  1   3   1
M  END
>  <UniqueID>  (7) 
7

>  <SMILES>  (7) 
CC[NH2+]C[C@H](O)COc1ccc2c(c1)CCCN(C)C2

>  <Energy>  (7) 
59.38571311195794

>  <Genealogy>  (7) 
CC[NH2+]CC(O)COc1ccc2c(c1)CCCN(C)C2 (protonated)
CC[NH2+]C[C@H](O)COc1ccc2c(c1)CCCN(C)C2 (chirality)
CC[NH2+]C[C@H](O)COc1ccc2c(c1)CCCN(C)C2 (3D coordinates assigned)
CC[NH2+]C[C@H](O)COc1ccc2c(c1)CCCN(C)C2 (nonaromatic ring conformer: 59.38571311195794 kcal/mol)

>  <smiles>  (7) 
CCNCC(O)COc1ccc2c(c1)CCCN(C)C2

>  <score_type>  (7) 
oracle

>  <origin>  (7) 
adg

>  <m_score__min__energy>  (7) 
-4.1900000000000004

>  <m_primary>  (7) 
energy

$$$$
7:0
     RDKit          3D

 48 49  0  0  0  0  0  0  0  0999 V2000
   55.9840   25.9160   45.9540 C   0  0  0  0  0  0  0  0  0  0  0  0
   56.7600   27.1990   45.6870 C   0  0  0  0  0  0  0  0  0  0  0  0
   55.8840   28.2320   45.2360 O   0  0  0  0  0  0  0  0  0  0  0  0
   56.3180   29.3570   44.5250 C   0  0  0  0  0  0  0  0  0  0  0  0
   55.6390   30.4210   44.5160 O   0  0  0  0  0  0  0  0  0  0  0  0
   57.6100   29.2900   43.7680 C   0  0  0  0  0  0  0  0  0  0  0  0
   58.7080   30.1380   44.4240 C   0  0  0  0  0  0  0  0  0  0  0  0
   59.0730   29.6480   45.8280 C   0  0  0  0  0  0  0  0  0  0  0  0
   58.6370   30.6090   46.7830 O   0  0  0  0  0  0  0  0  0  0  0  0
   59.1280   31.9180   46.9030 C   0  0  0  0  0  0  0  0  0  0  0  0
   60.2250   32.2940   47.7290 C   0  0  0  0  0  0  0  0  0  0  0  0
   60.8270   31.3430   48.5630 O   0  0  0  0  0  0  0  0  0  0  0  0
   60.5720   31.2620   49.9680 C   0  0  0  0  0  0  0  0  0  0  0  0
   59.1490   31.7150   50.2820 C   0  0  0  0  0  0  0  0  0  0  0  0
   60.7100   33.6350   47.7080 C   0  0  0  0  0  0  0  0  0  0  0  0
   61.8590   33.9450   48.4570 O   0  0  0  0  0  0  0  0  0  0  0  0
   63.1730   33.4360   48.2220 C   0  0  0  0  0  0  0  0  0  0  0  0
   63.5090   33.4720   46.7340 C   0  0  0  0  0  0  0  0  0  0  0  0
   60.0420   34.6130   46.9320 C   0  0  0  0  0  0  0  0  0  0  0  0
   58.9420   34.2190   46.1850 C   0  0  0  0  0  0  0  0  0  0  0  0
   58.2030   34.9640   45.3990 O   0  0  0  0  0  0  0  0  0  0  0  0
   57.2790   34.1890   44.8640 C   0  0  0  0  0  0  0  0  0  0  0  0
   57.4220   32.8830   45.3210 C   0  0  0  0  0  0  0  0  0  0  0  0
   58.5020   32.9280   46.1750 C   0  0  0  0  0  0  0  0  0  0  0  0
   55.8913   25.7627   47.0393 H   0  0  0  0  0  0  0  0  0  0  0  0
   54.9816   25.9941   45.5078 H   0  0  0  0  0  0  0  0  0  0  0  0
   56.5186   25.0645   45.5078 H   0  0  0  0  0  0  0  0  0  0  0  0
   57.2531   27.5230   46.6154 H   0  0  0  0  0  0  0  0  0  0  0  0
   57.5095   27.0038   44.9059 H   0  0  0  0  0  0  0  0  0  0  0  0
   57.9453   28.2430   43.7305 H   0  0  0  0  0  0  0  0  0  0  0  0
   57.4321   29.6885   42.7583 H   0  0  0  0  0  0  0  0  0  0  0  0
   59.6078   30.0985   43.7924 H   0  0  0  0  0  0  0  0  0  0  0  0
   58.3231   31.1640   44.5196 H   0  0  0  0  0  0  0  0  0  0  0  0
   58.5788   28.6847   46.0223 H   0  0  0  0  0  0  0  0  0  0  0  0
   60.1625   29.5170   45.9039 H   0  0  0  0  0  0  0  0  0  0  0  0
   60.7017   30.2212   50.2996 H   0  0  0  0  0  0  0  0  0  0  0  0
   61.2784   31.9199   50.4954 H   0  0  0  0  0  0  0  0  0  0  0  0
   59.0104   31.7591   51.3723 H   0  0  0  0  0  0  0  0  0  0  0  0
   58.9779   32.7120   49.8500 H   0  0  0  0  0  0  0  0  0  0  0  0
   58.4330   31.0004   49.8500 H   0  0  0  0  0  0  0  0  0  0  0  0
   63.9015   34.0504   48.7713 H   0  0  0  0  0  0  0  0  0  0  0  0
   63.2145   32.3927   48.5681 H   0  0  0  0  0  0  0  0  0  0  0  0
   64.5953   33.5884   46.6061 H   0  0  0  0  0  0  0  0  0  0  0  0
   63.1826   32.5337   46.2616 H   0  0  0  0  0  0  0  0  0  0  0  0
   62.9913   34.3198   46.2616 H   0  0  0  0  0  0  0  0  0  0  0  0
   60.3864   35.6576   46.9219 H   0  0  0  0  0  0  0  0  0  0  0  0
   56.5063   34.5271   44.1578 H   0  0  0  0  0  0  0  0  0  0  0  0
   56.8087   32.0083   45.0587 H   0  0  0  0  0  0  0  0  0  0  0  0
  1  2  1  0
  2  3  1  0
  3  4  1  0
  4  5  2  0
  4  6  1  0
  6  7  1  0
  7  8  1  0
  8  9  1  0
  9 10  1  0
 10 11  2  0
 11 12  1  0
 12 13  1  0
 13 14  1  0
 11 15  1  0
 15 16  1  0
 16 17  1  0
 17 18  1  0
 15 19  2  0
 19 20  1  0
 20 21  1  0
 21 22  1  0
 22 23  2  0
 23 24  1  0
 24 10  1  0
 24 20  2  0
  1 25  1  0
  1 26  1  0
  1 27  1  0
  2 28  1  0
  2 29  1  0
  6 30  1  0
  6 31  1  0
  7 32  1  0
  7 33  1  0
  8 34  1  0
  8 35  1  0
 13 36  1  0
 13 37  1  0
 14 38  1  0
 14 39  1  0
 14 40  1  0
 17 41  1  0
 17 42  1  0
 18 43  1  0
 18 44  1  0
 18 45  1  0
 19 46  1  0
 22 47  1  0
 23 48  1  0
M  END
>  <UniqueID>  (8) 
8

>  <SMILES>  (8) 
CCOC(=O)CCCOc1c(OCC)c(OCC)cc2occc12

>  <Energy>  (8) 
73.354365329644

>  <Genealogy>  (8) 
CCOC(=O)CCCOc1c(OCC)c(OCC)cc2occc12 (3D coordinates assigned)
CCOC(=O)CCCOc1c(OCC)c(OCC)cc2occc12 (optimized conformer: 73.354365329644 kcal/mol)

>  <smiles>  (8) 
CCOC(=O)CCCOc1c(OCC)c(OCC)cc2occc12

>  <score_type>  (8) 
oracle

>  <origin>  (8) 
adg

>  <m_score__min__energy>  (8) 
-6.0999999999999996

>  <m_primary>  (8) 
energy

$$$$
8:0
     RDKit          3D

 81 85  0  0  0  0  0  0  0  0999 V2000
   63.3790   33.8500   46.4720 C   0  0  0  0  0  0  0  0  0  0  0  0
   63.7960   33.7610   47.9360 C   0  0  0  0  0  0  0  0  0  0  0  0
   63.5450   32.4110   48.4660 N   0  0  0  0  0  0  0  0  0  0  0  0
   62.5720   32.4450   49.5660 C   0  0  0  0  0  0  0  0  0  0  0  0
   61.1640   32.1560   49.0350 C   0  0  0  0  0  0  0  0  0  0  0  0
   61.2200   31.6080   47.6790 N   0  0  0  0  0  0  0  0  0  0  0  0
   60.0560   31.5470   46.8430 C   0  0  0  0  0  0  0  0  0  0  0  0
   59.5620   32.6860   46.1690 C   0  0  0  0  0  0  0  0  0  0  0  0
   60.1110   33.9610   46.4150 C   0  0  0  0  0  0  0  0  0  0  0  0
   59.6100   35.0870   45.7690 C   0  0  0  0  0  0  0  0  0  0  0  0
   58.5440   34.9700   44.8820 C   0  0  0  0  0  0  0  0  0  0  0  0
   57.9700   33.7240   44.6280 C   0  0  0  0  0  0  0  0  0  0  0  0
   58.4670   32.5510   45.2480 C   0  0  0  0  0  0  0  0  0  0  0  0
   57.9140   31.3040   44.9960 N   0  0  0  0  0  0  0  0  0  0  0  0
   56.8650   31.1220   43.9760 C   0  0  0  0  0  0  0  0  0  0  0  0
   58.3510   30.2360   45.7390 C   0  0  0  0  0  0  0  0  0  0  0  0
   57.8690   28.9670   45.6960 N   0  0  0  0  0  0  0  0  0  0  0  0
   58.6200   28.2760   46.5770 C   0  0  0  0  0  0  0  0  0  0  0  0
   58.5150   26.9210   46.8790 C   0  0  0  0  0  0  0  0  0  0  0  0
   59.3920   26.3840   47.8380 C   0  0  0  0  0  0  0  0  0  0  0  0
   60.3420   27.2130   48.4950 C   0  0  0  0  0  0  0  0  0  0  0  0
   61.2130   26.7210   49.4780 O   0  0  0  0  0  0  0  0  0  0  0  0
   60.8090   26.3110   50.7840 C   0  0  0  0  0  0  0  0  0  0  0  0
   61.2610   27.3760   51.8090 C   0  0  0  0  0  0  0  0  0  0  0  0
   61.8550   26.8570   53.0920 N   0  0  2  0  0  0  0  0  0  0  0  0
   60.7610   26.7990   54.1140 C   0  0  0  0  0  0  0  0  0  0  0  0
   62.9000   27.8690   53.5260 C   0  0  0  0  0  0  0  0  0  0  0  0
   64.0810   28.1650   52.5600 C   0  0  0  0  0  0  0  0  0  0  0  0
   65.3150   27.3400   52.7510 N   0  0  0  0  0  0  0  0  0  0  0  0
   66.1380   27.8900   53.8580 C   0  0  0  0  0  0  0  0  0  0  0  0
   66.1180   27.4420   51.5040 C   0  0  0  0  0  0  0  0  0  0  0  0
   65.0330   25.9000   53.0230 C   0  0  0  0  0  0  0  0  0  0  0  0
   63.8250   25.3790   52.2890 C   0  0  0  0  0  0  0  0  0  0  0  0
   63.9910   24.8870   51.1850 O   0  0  0  0  0  0  0  0  0  0  0  0
   62.4040   25.4830   52.8110 C   0  0  0  0  0  0  0  0  0  0  0  0
   60.4210   28.5790   48.1650 C   0  0  0  0  0  0  0  0  0  0  0  0
   59.5580   29.0790   47.1870 C   0  0  0  0  0  0  0  0  0  0  0  0
   59.3860   30.3430   46.6450 C   0  0  0  0  0  0  0  0  0  0  0  0
   62.3049   34.0792   46.4100 H   0  0  0  0  0  0  0  0  0  0  0  0
   63.9531   34.6458   45.9750 H   0  0  0  0  0  0  0  0  0  0  0  0
   63.5782   32.8891   45.9750 H   0  0  0  0  0  0  0  0  0  0  0  0
   64.8689   33.9887   48.0206 H   0  0  0  0  0  0  0  0  0  0  0  0
   63.2059   34.4850   48.5170 H   0  0  0  0  0  0  0  0  0  0  0  0
   64.4490   32.0570   48.8580 H   0  0  0  0  0  0  0  0  0  0  0  0
   62.8418   31.6845   50.3136 H   0  0  0  0  0  0  0  0  0  0  0  0
   62.5845   33.4441   50.0260 H   0  0  0  0  0  0  0  0  0  0  0  0
   60.6714   31.4289   49.6973 H   0  0  0  0  0  0  0  0  0  0  0  0
   60.5972   33.0984   49.0103 H   0  0  0  0  0  0  0  0  0  0  0  0
   62.1330   31.2710   47.2980 H   0  0  0  0  0  0  0  0  0  0  0  0
   60.9443   34.0668   47.1252 H   0  0  0  0  0  0  0  0  0  0  0  0
   60.0582   36.0732   45.9601 H   0  0  0  0  0  0  0  0  0  0  0  0
   58.1515   35.8655   44.3780 H   0  0  0  0  0  0  0  0  0  0  0  0
   57.1184   33.6512   43.9356 H   0  0  0  0  0  0  0  0  0  0  0  0
   55.8972   30.9541   44.4712 H   0  0  0  0  0  0  0  0  0  0  0  0
   56.8040   32.0230   43.3479 H   0  0  0  0  0  0  0  0  0  0  0  0
   57.1111   30.2531   43.3479 H   0  0  0  0  0  0  0  0  0  0  0  0
   57.0750   28.5800   45.1410 H   0  0  0  0  0  0  0  0  0  0  0  0
   57.7662   26.2876   46.3809 H   0  0  0  0  0  0  0  0  0  0  0  0
   59.3426   25.3126   48.0822 H   0  0  0  0  0  0  0  0  0  0  0  0
   59.7142   26.2095   50.8163 H   0  0  0  0  0  0  0  0  0  0  0  0
   61.2691   25.3421   51.0279 H   0  0  0  0  0  0  0  0  0  0  0  0
   62.0165   28.0103   51.3223 H   0  0  0  0  0  0  0  0  0  0  0  0
   60.3440   27.9072   52.1039 H   0  0  0  0  0  0  0  0  0  0  0  0
   61.1997   26.8223   55.1225 H   0  0  0  0  0  0  0  0  0  0  0  0
   60.0925   27.6630   53.9849 H   0  0  0  0  0  0  0  0  0  0  0  0
   60.1876   25.8692   53.9849 H   0  0  0  0  0  0  0  0  0  0  0  0
   62.3781   28.8207   53.7044 H   0  0  0  0  0  0  0  0  0  0  0  0
   63.3755   27.4100   54.4053 H   0  0  0  0  0  0  0  0  0  0  0  0
   63.7234   28.0007   51.5328 H   0  0  0  0  0  0  0  0  0  0  0  0
   64.3837   29.2005   52.7746 H   0  0  0  0  0  0  0  0  0  0  0  0
   65.6984   27.5962   54.8226 H   0  0  0  0  0  0  0  0  0  0  0  0
   67.1616   27.4938   53.7857 H   0  0  0  0  0  0  0  0  0  0  0  0
   66.1636   28.9873   53.7857 H   0  0  0  0  0  0  0  0  0  0  0  0
   67.1790   27.5768   51.7611 H   0  0  0  0  0  0  0  0  0  0  0  0
   65.9977   26.5214   50.9141 H   0  0  0  0  0  0  0  0  0  0  0  0
   65.7714   28.3033   50.9141 H   0  0  0  0  0  0  0  0  0  0  0  0
   65.9089   25.3091   52.7170 H   0  0  0  0  0  0  0  0  0  0  0  0
   64.8248   25.8070   54.0991 H   0  0  0  0  0  0  0  0  0  0  0  0
   61.7459   25.0136   52.0650 H   0  0  0  0  0  0  0  0  0  0  0  0
   62.4350   24.9920   53.7948 H   0  0  0  0  0  0  0  0  0  0  0  0
   61.1458   29.2377   48.6658 H   0  0  0  0  0  0  0  0  0  0  0  0
  1  2  1  0
  2  3  1  0
  3  4  1  0
  4  5  1  0
  5  6  1  0
  6  7  1  0
  7  8  2  0
  8  9  1  0
  9 10  2  0
 10 11  1  0
 11 12  2  0
 12 13  1  0
 13 14  2  0
 14 15  1  0
 14 16  1  0
 16 17  1  0
 17 18  1  0
 18 19  2  0
 19 20  1  0
 20 21  2  0
 21 22  1  0
 22 23  1  0
 23 24  1  0
 25 24  1  6
 25 26  1  0
 25 27  1  0
 27 28  1  0
 28 29  1  0
 29 30  1  0
 29 31  1  0
 29 32  1  0
 32 33  1  0
 33 34  2  0
 33 35  1  0
 21 36  1  0
 36 37  2  0
 37 38  1  0
 38  7  1  0
 13  8  1  0
 38 16  2  0
 37 18  1  0
 35 25  1  0
  1 39  1  0
  1 40  1  0
  1 41  1  0
  2 42  1  0
  2 43  1  0
  3 44  1  0
  4 45  1  0
  4 46  1  0
  5 47  1  0
  5 48  1  0
  6 49  1  0
  9 50  1  0
 10 51  1  0
 11 52  1  0
 12 53  1  0
 15 54  1  0
 15 55  1  0
 15 56  1  0
 17 57  1  0
 19 58  1  0
 20 59  1  0
 23 60  1  0
 23 61  1  0
 24 62  1  0
 24 63  1  0
 26 64  1  0
 26 65  1  0
 26 66  1  0
 27 67  1  0
 27 68  1  0
 28 69  1  0
 28 70  1  0
 30 71  1  0
 30 72  1  0
 30 73  1  0
 31 74  1  0
 31 75  1  0
 31 76  1  0
 32 77  1  0
 32 78  1  0
 35 79  1  0
 35 80  1  0
 36 81  1  0
M  CHG  3  14   1  25   1  29   1
M  END
>  <UniqueID>  (9) 
9

>  <SMILES>  (9) 
CCNCCNc1c2ccccc2[n+](C)c2[nH]c3ccc(OCC[N@+]4(C)CC[N+](C)(C)CC(=O)C4)cc3c12

>  <Energy>  (9) 
179.63624928926873

>  <Genealogy>  (9) 
CCNCCNc1c2ccccc2[n+](C)c2[nH]c3ccc(OCC[N@+]4(C)CC[N+](C)(C)CC(=O)C4)cc3c12 (chirality)
CCNCCNc1c2ccccc2[n+](C)c2[nH]c3ccc(OCC[N@+]4(C)CC[N+](C)(C)CC(=O)C4)cc3c12 (3D coordinates assigned)
CCNCCNc1c2ccccc2[n+](C)c2[nH]c3ccc(OCC[N@+]4(C)CC[N+](C)(C)CC(=O)C4)cc3c12 (nonaromatic ring conformer: 179.63624928926873 kcal/mol)

>  <smiles>  (9) 
CCNCCNc1c2ccccc2[n+](C)c2[nH]c3ccc(OCC[N+]4(C)CC[N+](C)(C)CC(=O)C4)cc3c12

>  <score_type>  (9) 
oracle

>  <origin>  (9) 
adg

>  <m_score__min__energy>  (9) 
-2.4399999999999999

>  <m_primary>  (9) 
energy

$$$$
9:0
     RDKit          3D

 68 71  0  0  0  0  0  0  0  0999 V2000
   55.5810   29.7440   43.7490 C   0  0  0  0  0  0  0  0  0  0  0  0
   56.6470   30.8200   43.5560 C   0  0  0  0  0  0  0  0  0  0  0  0
   57.9900   30.2250   43.4980 N   0  0  0  0  0  0  0  0  0  0  0  0
   58.4870   29.9580   44.8400 C   0  0  0  0  0  0  0  0  0  0  0  0
   58.5560   28.6270   45.3350 C   0  0  0  0  0  0  0  0  0  0  0  0
   58.0310   27.5320   44.6020 C   0  0  0  0  0  0  0  0  0  0  0  0
   58.1920   26.2230   45.0510 C   0  0  0  0  0  0  0  0  0  0  0  0
   58.8740   25.9720   46.2340 C   0  0  0  0  0  0  0  0  0  0  0  0
   59.3560   27.0290   47.0000 C   0  0  0  0  0  0  0  0  0  0  0  0
   59.1610   28.3770   46.5990 C   0  0  0  0  0  0  0  0  0  0  0  0
   59.5600   29.4270   47.4020 N   0  0  0  0  0  0  0  0  0  0  0  0
   59.9040   29.1810   48.8220 C   0  0  0  0  0  0  0  0  0  0  0  0
   59.5850   30.7130   46.9040 C   0  0  0  0  0  0  0  0  0  0  0  0
   60.2300   31.7610   47.6080 C   0  0  0  0  0  0  0  0  0  0  0  0
   60.1780   33.0820   47.1680 C   0  0  0  0  0  0  0  0  0  0  0  0
   60.8530   34.0570   47.9160 O   0  0  0  0  0  0  0  0  0  0  0  0
   60.7940   34.1840   49.3340 C   0  0  0  0  0  0  0  0  0  0  0  0
   62.2200   34.3270   49.9160 C   0  0  0  0  0  0  0  0  0  0  0  0
   62.8640   33.0770   50.4460 N   0  0  0  0  0  0  0  0  0  0  0  0
   61.8140   32.1160   50.8850 C   0  0  0  0  0  0  0  0  0  0  0  0
   63.7250   32.4080   49.4170 C   0  0  0  0  0  0  0  0  0  0  0  0
   65.1530   32.9820   49.3930 C   0  0  0  0  0  0  0  0  0  0  0  0
   65.8800   32.7290   50.6790 N   0  0  0  0  0  0  0  0  0  0  0  0
   66.6650   31.4750   50.5670 C   0  0  0  0  0  0  0  0  0  0  0  0
   66.8310   33.8420   50.9240 C   0  0  0  0  0  0  0  0  0  0  0  0
   64.9390   32.6080   51.8380 C   0  0  0  0  0  0  0  0  0  0  0  0
   63.6730   33.4690   51.6540 C   0  0  0  0  0  0  0  0  0  0  0  0
   59.4640   33.3860   46.0060 C   0  0  0  0  0  0  0  0  0  0  0  0
   58.8730   32.3690   45.2590 C   0  0  0  0  0  0  0  0  0  0  0  0
   58.9750   31.0140   45.6550 C   0  0  0  0  0  0  0  0  0  0  0  0
   55.4173   29.5787   44.8241 H   0  0  0  0  0  0  0  0  0  0  0  0
   54.6408   30.0712   43.2810 H   0  0  0  0  0  0  0  0  0  0  0  0
   55.9169   28.8069   43.2810 H   0  0  0  0  0  0  0  0  0  0  0  0
   56.4504   31.3570   42.6164 H   0  0  0  0  0  0  0  0  0  0  0  0
   56.6062   31.5117   44.4103 H   0  0  0  0  0  0  0  0  0  0  0  0
   58.6440   30.8470   42.9700 H   0  0  0  0  0  0  0  0  0  0  0  0
   57.9800   29.3560   42.9210 H   0  0  0  0  0  0  0  0  0  0  0  0
   57.4880   27.7194   43.6639 H   0  0  0  0  0  0  0  0  0  0  0  0
   57.7783   25.3873   44.4675 H   0  0  0  0  0  0  0  0  0  0  0  0
   59.0336   24.9356   46.5664 H   0  0  0  0  0  0  0  0  0  0  0  0
   59.8980   26.8163   47.9333 H   0  0  0  0  0  0  0  0  0  0  0  0
   59.1806   29.6983   49.4694 H   0  0  0  0  0  0  0  0  0  0  0  0
   59.8709   28.1005   49.0254 H   0  0  0  0  0  0  0  0  0  0  0  0
   60.9158   29.5616   49.0254 H   0  0  0  0  0  0  0  0  0  0  0  0
   60.7868   31.5248   48.5268 H   0  0  0  0  0  0  0  0  0  0  0  0
   60.2038   35.0748   49.5950 H   0  0  0  0  0  0  0  0  0  0  0  0
   60.3220   33.2846   49.7561 H   0  0  0  0  0  0  0  0  0  0  0  0
   62.8667   34.7222   49.1188 H   0  0  0  0  0  0  0  0  0  0  0  0
   62.1096   34.9865   50.7894 H   0  0  0  0  0  0  0  0  0  0  0  0
   61.7810   32.0858   51.9841 H   0  0  0  0  0  0  0  0  0  0  0  0
   60.8364   32.4388   50.4975 H   0  0  0  0  0  0  0  0  0  0  0  0
   62.0492   31.1137   50.4975 H   0  0  0  0  0  0  0  0  0  0  0  0
   63.7788   31.3331   49.6445 H   0  0  0  0  0  0  0  0  0  0  0  0
   63.2725   32.5857   48.4302 H   0  0  0  0  0  0  0  0  0  0  0  0
   65.7115   32.5113   48.5705 H   0  0  0  0  0  0  0  0  0  0  0  0
   65.0800   34.0704   49.2517 H   0  0  0  0  0  0  0  0  0  0  0  0
   66.9005   31.0987   51.5735 H   0  0  0  0  0  0  0  0  0  0  0  0
   66.0769   30.7217   50.0223 H   0  0  0  0  0  0  0  0  0  0  0  0
   67.5995   31.6748   50.0223 H   0  0  0  0  0  0  0  0  0  0  0  0
   66.9547   33.9868   52.0074 H   0  0  0  0  0  0  0  0  0  0  0  0
   67.8044   33.5986   50.4731 H   0  0  0  0  0  0  0  0  0  0  0  0
   66.4387   34.7655   50.4731 H   0  0  0  0  0  0  0  0  0  0  0  0
   64.6389   31.5548   51.9420 H   0  0  0  0  0  0  0  0  0  0  0  0
   65.4628   32.9661   52.7365 H   0  0  0  0  0  0  0  0  0  0  0  0
   63.0422   33.3600   52.5485 H   0  0  0  0  0  0  0  0  0  0  0  0
   64.0012   34.5085   51.5064 H   0  0  0  0  0  0  0  0  0  0  0  0
   59.3681   34.4321   45.6797 H   0  0  0  0  0  0  0  0  0  0  0  0
   58.3170   32.6239   44.3447 H   0  0  0  0  0  0  0  0  0  0  0  0
  1  2  1  0
  2  3  1  0
  3  4  1  0
  4  5  2  0
  5  6  1  0
  6  7  2  0
  7  8  1  0
  8  9  2  0
  9 10  1  0
 10 11  2  0
 11 12  1  0
 11 13  1  0
 13 14  2  0
 14 15  1  0
 15 16  1  0
 16 17  1  0
 17 18  1  0
 18 19  1  0
 19 20  1  0
 19 21  1  0
 21 22  1  0
 22 23  1  0
 23 24  1  0
 23 25  1  0
 23 26  1  0
 26 27  1  0
 15 28  2  0
 28 29  1  0
 29 30  2  0
 30  4  1  0
 10  5  1  0
 30 13  1  0
 27 19  1  0
  1 31  1  0
  1 32  1  0
  1 33  1  0
  2 34  1  0
  2 35  1  0
  3 36  1  0
  3 37  1  0
  6 38  1  0
  7 39  1  0
  8 40  1  0
  9 41  1  0
 12 42  1  0
 12 43  1  0
 12 44  1  0
 14 45  1  0
 17 46  1  0
 17 47  1  0
 18 48  1  0
 18 49  1  0
 20 50  1  0
 20 51  1  0
 20 52  1  0
 21 53  1  0
 21 54  1  0
 22 55  1  0
 22 56  1  0
 24 57  1  0
 24 58  1  0
 24 59  1  0
 25 60  1  0
 25 61  1  0
 25 62  1  0
 26 63  1  0
 26 64  1  0
 27 65  1  0
 27 66  1  0
 28 67  1  0
 29 68  1  0
M  CHG  4   3   1  11   1  19   1  23   1
M  END
>  <UniqueID>  (10) 
10

>  <SMILES>  (10) 
CC[NH2+]c1c2ccccc2[n+](C)c2cc(OCC[N+]3(C)CC[N+](C)(C)CC3)ccc12

>  <Energy>  (10) 
123.98878505149733

>  <Genealogy>  (10) 
CC[NH2+]c1c2ccccc2[n+](C)c2cc(OCC[N+]3(C)CC[N+](C)(C)CC3)ccc12 (protonated)
CC[NH2+]c1c2ccccc2[n+](C)c2cc(OCC[N+]3(C)CC[N+](C)(C)CC3)ccc12 (3D coordinates assigned)
CC[NH2+]c1c2ccccc2[n+](C)c2cc(OCC[N+]3(C)CC[N+](C)(C)CC3)ccc12 (nonaromatic ring conformer: 123.98878505149733 kcal/mol)

>  <smiles>  (10) 
CCNc1c2ccccc2[n+](C)c2cc(OCC[N+]3(C)CC[N+](C)(C)CC3)ccc12

>  <score_type>  (10) 
oracle

>  <origin>  (10) 
adg

>  <m_score__min__energy>  (10) 
-2.7400000000000002

>  <m_primary>  (10) 
energy

$$$$
10:0
     RDKit          3D

 49 51  0  0  0  0  0  0  0  0999 V2000
   64.6770   31.6430   50.4880 C   0  0  0  0  0  0  0  0  0  0  0  0
   65.2940   32.8060   49.7130 C   0  0  0  0  0  0  0  0  0  0  0  0
   64.5110   33.1040   48.5020 N   0  0  0  0  0  0  0  0  0  0  0  0
   63.3960   32.1510   48.3110 C   0  0  0  0  0  0  0  0  0  0  0  0
   62.0200   32.7060   48.7470 C   0  0  2  0  0  0  0  0  0  0  0  0
   60.8470   32.1400   47.9360 C   0  0  0  0  0  0  0  0  0  0  0  0
   60.0500   33.3790   47.5120 C   0  0  0  0  0  0  0  0  0  0  0  0
   58.5230   33.2280   47.7840 C   0  0  0  0  0  0  0  0  0  0  0  0
   57.7970   32.7090   46.5390 C   0  0  0  0  0  0  0  0  0  0  0  0
   57.8690   33.6830   45.4210 N   0  0  0  0  0  0  0  0  0  0  0  0
   57.5930   33.0140   44.1330 C   0  0  0  0  0  0  0  0  0  0  0  0
   57.5190   31.5260   44.3190 C   0  0  0  0  0  0  0  0  0  0  0  0
   58.6860   30.7480   44.3130 C   0  0  0  0  0  0  0  0  0  0  0  0
   58.5890   29.3680   44.5000 C   0  0  0  0  0  0  0  0  0  0  0  0
   57.3380   28.7780   44.6880 C   0  0  0  0  0  0  0  0  0  0  0  0
   56.1960   29.5830   44.6870 C   0  0  0  0  0  0  0  0  0  0  0  0
   56.3100   30.9270   44.5040 N   0  0  0  0  0  0  0  0  0  0  0  0
   59.1310   34.4730   45.3850 C   0  0  0  0  0  0  0  0  0  0  0  0
   60.3160   33.7220   46.0090 C   0  0  0  0  0  0  0  0  0  0  0  0
   60.6540   34.4550   48.4200 C   0  0  0  0  0  0  0  0  0  0  0  0
   61.9930   34.1110   48.6670 O   0  0  0  0  0  0  0  0  0  0  0  0
   64.7755   31.8286   51.5677 H   0  0  0  0  0  0  0  0  0  0  0  0
   63.6122   31.5524   50.2271 H   0  0  0  0  0  0  0  0  0  0  0  0
   65.1990   30.7106   50.2271 H   0  0  0  0  0  0  0  0  0  0  0  0
   65.3146   33.6975   50.3571 H   0  0  0  0  0  0  0  0  0  0  0  0
   66.3143   32.5261   49.4120 H   0  0  0  0  0  0  0  0  0  0  0  0
   64.1630   34.0870   48.5380 H   0  0  0  0  0  0  0  0  0  0  0  0
   65.1500   33.0260   47.6750 H   0  0  0  0  0  0  0  0  0  0  0  0
   63.3422   31.8892   47.2440 H   0  0  0  0  0  0  0  0  0  0  0  0
   63.6066   31.2792   48.9479 H   0  0  0  0  0  0  0  0  0  0  0  0
   61.8924   32.3808   49.7901 H   0  0  0  0  0  0  0  0  0  0  0  0
   61.2109   31.5901   47.0555 H   0  0  0  0  0  0  0  0  0  0  0  0
   60.2409   31.4266   48.5137 H   0  0  0  0  0  0  0  0  0  0  0  0
   58.3725   32.5186   48.6111 H   0  0  0  0  0  0  0  0  0  0  0  0
   58.1125   34.2144   48.0458 H   0  0  0  0  0  0  0  0  0  0  0  0
   58.2633   31.7649   46.2210 H   0  0  0  0  0  0  0  0  0  0  0  0
   56.7383   32.5562   46.7957 H   0  0  0  0  0  0  0  0  0  0  0  0
   56.6342   33.3772   43.7345 H   0  0  0  0  0  0  0  0  0  0  0  0
   58.4073   33.2448   43.4304 H   0  0  0  0  0  0  0  0  0  0  0  0
   59.6679   31.2205   44.1624 H   0  0  0  0  0  0  0  0  0  0  0  0
   59.4967   28.7467   44.4992 H   0  0  0  0  0  0  0  0  0  0  0  0
   57.2522   27.6913   44.8353 H   0  0  0  0  0  0  0  0  0  0  0  0
   55.2043   29.1304   44.8342 H   0  0  0  0  0  0  0  0  0  0  0  0
   59.3725   34.7035   44.3369 H   0  0  0  0  0  0  0  0  0  0  0  0
   58.9685   35.3874   45.9745 H   0  0  0  0  0  0  0  0  0  0  0  0
   60.4798   32.7873   45.4526 H   0  0  0  0  0  0  0  0  0  0  0  0
   61.2028   34.3705   45.9547 H   0  0  0  0  0  0  0  0  0  0  0  0
   60.6058   35.4345   47.9217 H   0  0  0  0  0  0  0  0  0  0  0  0
   60.0942   34.5168   49.3649 H   0  0  0  0  0  0  0  0  0  0  0  0
  1  2  1  0
  2  3  1  0
  3  4  1  0
  4  5  1  0
  5  6  1  0
  6  7  1  0
  7  8  1  0
  8  9  1  0
  9 10  1  0
 10 11  1  0
 11 12  1  0
 12 13  2  0
 13 14  1  0
 14 15  2  0
 15 16  1  0
 16 17  2  0
 10 18  1  0
 18 19  1  0
  7 20  1  0
 20 21  1  0
 21  5  1  0
 19  7  1  0
 17 12  1  0
  1 22  1  0
  1 23  1  0
  1 24  1  0
  2 25  1  0
  2 26  1  0
  3 27  1  0
  3 28  1  0
  4 29  1  0
  4 30  1  0
  5 31  1  1
  6 32  1  0
  6 33  1  0
  8 34  1  0
  8 35  1  0
  9 36  1  0
  9 37  1  0
 11 38  1  0
 11 39  1  0
 13 40  1  0
 14 41  1  0
 15 42  1  0
 16 43  1  0
 18 44  1  0
 18 45  1  0
 19 46  1  0
 19 47  1  0
 20 48  1  0
 20 49  1  0
M  CHG  1   3   1
M  END
>  <UniqueID>  (11) 
11

>  <SMILES>  (11) 
CC[NH2+]C[C@@H]1CC2(CCN(Cc3ccccn3)CC2)CO1

>  <Energy>  (11) 
60.56481246623285

>  <Genealogy>  (11) 
CC[NH2+]CC1CC2(CCN(Cc3ccccn3)CC2)CO1 (protonated)
CC[NH2+]C[C@@H]1CC2(CCN(Cc3ccccn3)CC2)CO1 (chirality)
CC[NH2+]C[C@@H]1CC2(CCN(Cc3ccccn3)CC2)CO1 (3D coordinates assigned)
CC[NH2+]C[C@@H]1CC2(CCN(Cc3ccccn3)CC2)CO1 (nonaromatic ring conformer: 60.56481246623285 kcal/mol)

>  <smiles>  (11) 
CCNCC1CC2(CCN(Cc3ccccn3)CC2)CO1

>  <score_type>  (11) 
oracle

>  <origin>  (11) 
adg

>  <m_score__min__energy>  (11) 
-6.1399999999999997

>  <m_primary>  (11) 
energy

$$$$
12:0
     RDKit          3D

 42 44  0  0  0  0  0  0  0  0999 V2000
   62.3910   33.8550   46.3120 C   0  0  0  0  0  0  0  0  0  0  0  0
   63.7690   33.3220   46.7220 C   0  0  0  0  0  0  0  0  0  0  0  0
   63.7110   32.4630   47.9300 N   0  0  0  0  0  0  0  0  0  0  0  0
   62.4610   31.6530   47.9590 C   0  0  0  0  0  0  0  0  0  0  0  0
   62.0690   31.2550   49.3900 C   0  0  0  0  0  0  0  0  0  0  0  0
   61.8090   32.4400   50.2490 N   0  0  0  0  0  0  0  0  0  0  0  0
   60.3600   32.7130   50.3680 C   0  0  0  0  0  0  0  0  0  0  0  0
   59.7720   33.1010   49.0320 C   0  0  0  0  0  0  0  0  0  0  0  0
   59.2460   32.1640   48.2260 C   0  0  0  0  0  0  0  0  0  0  0  0
   58.6940   32.5250   46.9100 C   0  0  0  0  0  0  0  0  0  0  0  0
   58.2110   31.5460   46.0300 C   0  0  0  0  0  0  0  0  0  0  0  0
   57.6440   31.9270   44.8060 C   0  0  0  0  0  0  0  0  0  0  0  0
   57.0410   30.7050   43.7020 Cl  0  0  0  0  0  0  0  0  0  0  0  0
   57.5520   33.2830   44.4680 C   0  0  0  0  0  0  0  0  0  0  0  0
   58.0290   34.2590   45.3500 C   0  0  0  0  0  0  0  0  0  0  0  0
   58.6070   33.8790   46.5650 C   0  0  0  0  0  0  0  0  0  0  0  0
   59.0800   34.8460   47.4560 O   0  0  0  0  0  0  0  0  0  0  0  0
   59.9590   34.5220   48.5380 C   0  0  0  0  0  0  0  0  0  0  0  0
   62.5540   33.6480   49.8160 C   0  0  0  0  0  0  0  0  0  0  0  0
   63.8940   33.2780   49.1640 C   0  0  0  0  0  0  0  0  0  0  0  0
   61.8028   34.0825   47.2133 H   0  0  0  0  0  0  0  0  0  0  0  0
   62.5148   34.7701   45.7143 H   0  0  0  0  0  0  0  0  0  0  0  0
   61.8668   33.0948   45.7143 H   0  0  0  0  0  0  0  0  0  0  0  0
   64.1808   32.7324   45.8897 H   0  0  0  0  0  0  0  0  0  0  0  0
   64.4047   34.1879   46.9586 H   0  0  0  0  0  0  0  0  0  0  0  0
   64.5210   31.8000   47.8830 H   0  0  0  0  0  0  0  0  0  0  0  0
   61.6444   32.2434   47.5178 H   0  0  0  0  0  0  0  0  0  0  0  0
   62.6388   30.7313   47.3856 H   0  0  0  0  0  0  0  0  0  0  0  0
   61.1583   30.6393   49.3500 H   0  0  0  0  0  0  0  0  0  0  0  0
   62.9094   30.6968   49.8284 H   0  0  0  0  0  0  0  0  0  0  0  0
   59.8524   31.8091   50.7358 H   0  0  0  0  0  0  0  0  0  0  0  0
   60.2166   33.5475   51.0702 H   0  0  0  0  0  0  0  0  0  0  0  0
   59.2275   31.1140   48.5534 H   0  0  0  0  0  0  0  0  0  0  0  0
   58.2769   30.4816   46.2995 H   0  0  0  0  0  0  0  0  0  0  0  0
   57.1044   33.5810   43.5084 H   0  0  0  0  0  0  0  0  0  0  0  0
   57.9493   35.3243   45.0876 H   0  0  0  0  0  0  0  0  0  0  0  0
   60.9978   34.6432   48.1971 H   0  0  0  0  0  0  0  0  0  0  0  0
   59.7258   35.1995   49.3726 H   0  0  0  0  0  0  0  0  0  0  0  0
   61.9435   34.2030   49.0885 H   0  0  0  0  0  0  0  0  0  0  0  0
   62.7601   34.2636   50.7040 H   0  0  0  0  0  0  0  0  0  0  0  0
   64.4284   34.2031   48.9020 H   0  0  0  0  0  0  0  0  0  0  0  0
   64.4669   32.6766   49.8852 H   0  0  0  0  0  0  0  0  0  0  0  0
  1  2  1  0
  2  3  1  0
  3  4  1  0
  4  5  1  0
  5  6  1  0
  6  7  1  0
  7  8  1  0
  8  9  2  0
  9 10  1  0
 10 11  2  0
 11 12  1  0
 12 13  1  0
 12 14  2  0
 14 15  1  0
 15 16  2  0
 16 17  1  0
 17 18  1  0
  6 19  1  0
 19 20  1  0
 20  3  1  0
 18  8  1  0
 16 10  1  0
  1 21  1  0
  1 22  1  0
  1 23  1  0
  2 24  1  0
  2 25  1  0
  3 26  1  0
  4 27  1  0
  4 28  1  0
  5 29  1  0
  5 30  1  0
  7 31  1  0
  7 32  1  0
  9 33  1  0
 11 34  1  0
 14 35  1  0
 15 36  1  0
 18 37  1  0
 18 38  1  0
 19 39  1  0
 19 40  1  0
 20 41  1  0
 20 42  1  0
M  CHG  1   3   1
M  END
>  <UniqueID>  (12) 
12

>  <SMILES>  (12) 
CC[NH+]1CCN(CC2=Cc3cc(Cl)ccc3OC2)CC1

>  <Energy>  (12) 
57.0733326388956

>  <Genealogy>  (12) 
CC[NH+]1CCN(CC2=Cc3cc(Cl)ccc3OC2)CC1 (protonated)
CC[NH+]1CCN(CC2=Cc3cc(Cl)ccc3OC2)CC1 (3D coordinates assigned)
CC[NH+]1CCN(CC2=Cc3cc(Cl)ccc3OC2)CC1 (nonaromatic ring conformer: 57.0733326388956 kcal/mol)

>  <smiles>  (12) 
CC[N+]1CCN(CC2=Cc3cc(Cl)ccc3OC2)CC1

>  <score_type>  (12) 
oracle

>  <origin>  (12) 
adg

>  <m_score__min__energy>  (12) 
-6.1799999999999997

>  <m_primary>  (12) 
energy

$$$$
13:0
     RDKit          3D

 33 34  0  0  0  0  0  0  0  0999 V2000
   56.2730   30.8480   45.2380 H   0  0  0  0  0  0  0  0  0  0  0  0
   55.8110   29.9710   45.1640 O   0  0  0  0  0  0  0  0  0  0  0  0
   56.6250   29.1540   44.3670 C   0  0  0  0  0  0  0  0  0  0  0  0
   56.0987   28.2104   44.1603 H   0  0  0  0  0  0  0  0  0  0  0  0
   57.5639   28.9552   44.9046 H   0  0  0  0  0  0  0  0  0  0  0  0
   56.9500   29.8470   43.0470 C   0  0  0  0  0  0  0  0  0  0  0  0
   56.3879   29.3670   42.2323 H   0  0  0  0  0  0  0  0  0  0  0  0
   58.0282   29.7656   42.8448 H   0  0  0  0  0  0  0  0  0  0  0  0
   56.5870   31.2100   43.1310 O   0  0  0  0  0  0  0  0  0  0  0  0
   57.7330   32.0400   43.0770 C   0  0  0  0  0  0  0  0  0  0  0  0
   57.8491   32.4357   42.0572 H   0  0  0  0  0  0  0  0  0  0  0  0
   58.6205   31.4503   43.3502 H   0  0  0  0  0  0  0  0  0  0  0  0
   57.5800   33.2010   44.0560 C   0  0  0  0  0  0  0  0  0  0  0  0
   56.7431   33.8394   43.7367 H   0  0  0  0  0  0  0  0  0  0  0  0
   58.5106   33.7874   44.0706 H   0  0  0  0  0  0  0  0  0  0  0  0
   57.3140   32.6890   45.3960 N   0  0  0  0  0  0  0  0  0  0  0  0
   58.1860   32.0370   46.1010 C   0  0  0  0  0  0  0  0  0  0  0  0
   58.0150   30.7780   46.5710 N   0  0  0  0  0  0  0  0  0  0  0  0
   59.1180   30.4540   47.2390 N   0  0  0  0  0  0  0  0  0  0  0  0
   59.3270   29.1690   47.8950 C   0  0  0  0  0  0  0  0  0  0  0  0
   59.3046   29.3064   48.9862 H   0  0  0  0  0  0  0  0  0  0  0  0
   58.5305   28.4713   47.5969 H   0  0  0  0  0  0  0  0  0  0  0  0
   60.3035   28.7597   47.5969 H   0  0  0  0  0  0  0  0  0  0  0  0
   59.9800   31.4900   47.1940 C   0  0  0  0  0  0  0  0  0  0  0  0
   61.2570   31.5980   47.7480 C   0  0  0  0  0  0  0  0  0  0  0  0
   61.7004   30.7710   48.3219 H   0  0  0  0  0  0  0  0  0  0  0  0
   61.9580   32.8040   47.5460 C   0  0  0  0  0  0  0  0  0  0  0  0
   63.7090   33.0150   48.2760 Br  0  0  0  0  0  0  0  0  0  0  0  0
   61.3720   33.8580   46.8040 C   0  0  0  0  0  0  0  0  0  0  0  0
   61.9292   34.7945   46.6538 H   0  0  0  0  0  0  0  0  0  0  0  0
   60.0830   33.7180   46.2570 C   0  0  0  0  0  0  0  0  0  0  0  0
   59.6168   34.5282   45.6771 H   0  0  0  0  0  0  0  0  0  0  0  0
   59.4210   32.5130   46.4790 C   0  0  0  0  0  0  0  0  0  0  0  0
  1  2  1  0
  2  3  1  0
  3  4  1  0
  3  5  1  0
  3  6  1  0
  6  7  1  0
  6  8  1  0
  6  9  1  0
  9 10  1  0
 10 11  1  0
 10 12  1  0
 10 13  1  0
 13 14  1  0
 13 15  1  0
 13 16  1  0
 16 17  2  0
 17 18  1  0
 18 19  1  0
 19 20  1  0
 20 21  1  0
 20 22  1  0
 20 23  1  0
 19 24  1  0
 24 25  2  0
 25 26  1  0
 25 27  1  0
 27 28  1  0
 27 29  2  0
 29 30  1  0
 29 31  1  0
 31 32  1  0
 31 33  2  0
 33 17  1  0
 33 24  1  0
M  CHG  1  18  -1
M  END
>  <UniqueID>  (13) 
13

>  <SMILES>  (13) 
Cn1[n-]/c(=N\CCOCCO)c2ccc(Br)cc21

>  <Energy>  (13) 
68.34762770006803

>  <Genealogy>  (13) 
Cn1[n-]c(=NCCOCCO)c2ccc(Br)cc21 (protonated)
Cn1[n-]/c(=N\CCOCCO)c2ccc(Br)cc21 (cis-trans isomerization)
Cn1[n-]/c(=N\CCOCCO)c2ccc(Br)cc21 (3D coordinates assigned)
Cn1[n-]/c(=N\CCOCCO)c2ccc(Br)cc21 (optimized conformer: 68.34762770006803 kcal/mol)

>  <smiles>  (13) 
Cn1[nH]c(=NCCOCCO)c2ccc(Br)cc21

>  <score_type>  (13) 
oracle

>  <origin>  (13) 
adg

>  <m_score__min__energy>  (13) 
-8.7799999999999994

>  <m_primary>  (13) 
energy

$$$$
14:0
     RDKit          3D

 59 62  0  0  0  0  0  0  0  0999 V2000
   59.6160   33.5900   50.7360 C   0  0  0  0  0  0  0  0  0  0  0  0
   59.2830   33.4490   49.2560 C   0  0  0  0  0  0  0  0  0  0  0  0
   59.7420   34.6360   48.5260 N   0  0  0  0  0  0  0  0  0  0  0  0
   58.9530   34.8560   47.3040 C   0  0  0  0  0  0  0  0  0  0  0  0
   59.6880   34.3220   46.0680 C   0  0  0  0  0  0  0  0  0  0  0  0
   60.0620   32.9140   46.2460 N   0  0  0  0  0  0  0  0  0  0  0  0
   61.2250   32.4150   46.7500 C   0  0  0  0  0  0  0  0  0  0  0  0
   62.4340   33.2420   47.0870 C   0  0  0  0  0  0  0  0  0  0  0  0
   62.4940   33.4890   48.5280 N   0  0  0  0  0  0  0  0  0  0  0  0
   63.3880   32.7700   49.4000 C   0  0  0  0  0  0  0  0  0  0  0  0
   64.7030   33.2330   49.5870 C   0  0  0  0  0  0  0  0  0  0  0  0
   65.6050   32.5240   50.3790 C   0  0  0  0  0  0  0  0  0  0  0  0
   65.2170   31.3410   51.0020 C   0  0  0  0  0  0  0  0  0  0  0  0
   63.9100   30.8590   50.8490 C   0  0  0  0  0  0  0  0  0  0  0  0
   63.5220   29.6740   51.4920 C   0  0  0  0  0  0  0  0  0  0  0  0
   62.2160   29.2000   51.3660 C   0  0  0  0  0  0  0  0  0  0  0  0
   61.2860   29.9080   50.6060 C   0  0  0  0  0  0  0  0  0  0  0  0
   61.6560   31.0880   49.9560 C   0  0  0  0  0  0  0  0  0  0  0  0
   62.9770   31.5750   50.0500 C   0  0  0  0  0  0  0  0  0  0  0  0
   61.2260   31.0610   46.8110 N   0  0  0  0  0  0  0  0  0  0  0  0
   60.0180   30.7060   46.3470 C   0  0  0  0  0  0  0  0  0  0  0  0
   59.5040   29.4230   46.1940 C   0  0  0  0  0  0  0  0  0  0  0  0
   58.2000   29.2890   45.6580 C   0  0  0  0  0  0  0  0  0  0  0  0
   57.6020   28.0320   45.4720 O   0  0  0  0  0  0  0  0  0  0  0  0
   58.0080   27.0870   44.4870 C   0  0  0  0  0  0  0  0  0  0  0  0
   57.4620   30.4430   45.2880 C   0  0  0  0  0  0  0  0  0  0  0  0
   56.1800   30.2660   44.7450 O   0  0  0  0  0  0  0  0  0  0  0  0
   55.9200   29.8260   43.4160 C   0  0  0  0  0  0  0  0  0  0  0  0
   58.0250   31.7320   45.4650 C   0  0  0  0  0  0  0  0  0  0  0  0
   59.3100   31.8190   46.0030 C   0  0  0  0  0  0  0  0  0  0  0  0
   58.7684   33.2311   51.3383 H   0  0  0  0  0  0  0  0  0  0  0  0
   60.5102   32.9933   50.9691 H   0  0  0  0  0  0  0  0  0  0  0  0
   59.8098   34.6474   50.9691 H   0  0  0  0  0  0  0  0  0  0  0  0
   59.7838   32.5565   48.8528 H   0  0  0  0  0  0  0  0  0  0  0  0
   58.1939   33.3494   49.1375 H   0  0  0  0  0  0  0  0  0  0  0  0
   59.6010   35.4650   49.1500 H   0  0  0  0  0  0  0  0  0  0  0  0
   57.9884   34.3361   47.4008 H   0  0  0  0  0  0  0  0  0  0  0  0
   58.7985   35.9378   47.1781 H   0  0  0  0  0  0  0  0  0  0  0  0
   59.0295   34.4112   45.1914 H   0  0  0  0  0  0  0  0  0  0  0  0
   60.6047   34.9125   45.9230 H   0  0  0  0  0  0  0  0  0  0  0  0
   63.3407   32.7042   46.7728 H   0  0  0  0  0  0  0  0  0  0  0  0
   62.3665   34.2057   46.5610 H   0  0  0  0  0  0  0  0  0  0  0  0
   61.8050   34.1550   48.9460 H   0  0  0  0  0  0  0  0  0  0  0  0
   65.0238   34.1667   49.1020 H   0  0  0  0  0  0  0  0  0  0  0  0
   66.6295   32.9016   50.5125 H   0  0  0  0  0  0  0  0  0  0  0  0
   65.9387   30.7827   51.6164 H   0  0  0  0  0  0  0  0  0  0  0  0
   64.2508   29.1161   52.0982 H   0  0  0  0  0  0  0  0  0  0  0  0
   61.9196   28.2666   51.8669 H   0  0  0  0  0  0  0  0  0  0  0  0
   60.2548   29.5353   50.5176 H   0  0  0  0  0  0  0  0  0  0  0  0
   60.9112   31.6421   49.3659 H   0  0  0  0  0  0  0  0  0  0  0  0
   61.9990   30.4330   47.1290 H   0  0  0  0  0  0  0  0  0  0  0  0
   60.0924   28.5389   46.4806 H   0  0  0  0  0  0  0  0  0  0  0  0
   58.3957   26.1846   44.9824 H   0  0  0  0  0  0  0  0  0  0  0  0
   57.1457   26.8187   43.8589 H   0  0  0  0  0  0  0  0  0  0  0  0
   58.7962   27.5278   43.8589 H   0  0  0  0  0  0  0  0  0  0  0  0
   55.3606   28.8793   43.4460 H   0  0  0  0  0  0  0  0  0  0  0  0
   55.3260   30.5863   42.8876 H   0  0  0  0  0  0  0  0  0  0  0  0
   56.8725   29.6725   42.8876 H   0  0  0  0  0  0  0  0  0  0  0  0
   57.4655   32.6372   45.1865 H   0  0  0  0  0  0  0  0  0  0  0  0
  1  2  1  0
  2  3  1  0
  3  4  1  0
  4  5  1  0
  5  6  1  0
  6  7  1  0
  7  8  1  0
  8  9  1  0
  9 10  1  0
 10 11  2  0
 11 12  1  0
 12 13  2  0
 13 14  1  0
 14 15  2  0
 15 16  1  0
 16 17  2  0
 17 18  1  0
 18 19  2  0
  7 20  2  0
 20 21  1  0
 21 22  2  0
 22 23  1  0
 23 24  1  0
 24 25  1  0
 23 26  2  0
 26 27  1  0
 27 28  1  0
 26 29  1  0
 29 30  2  0
 30  6  1  0
 19 10  1  0
 30 21  1  0
 19 14  1  0
  1 31  1  0
  1 32  1  0
  1 33  1  0
  2 34  1  0
  2 35  1  0
  3 36  1  0
  4 37  1  0
  4 38  1  0
  5 39  1  0
  5 40  1  0
  8 41  1  0
  8 42  1  0
  9 43  1  0
 11 44  1  0
 12 45  1  0
 13 46  1  0
 15 47  1  0
 16 48  1  0
 17 49  1  0
 18 50  1  0
 20 51  1  0
 22 52  1  0
 25 53  1  0
 25 54  1  0
 25 55  1  0
 28 56  1  0
 28 57  1  0
 28 58  1  0
 29 59  1  0
M  CHG  1  20   1
M  END
>  <UniqueID>  (14) 
14

>  <SMILES>  (14) 
CCNCCn1c(CNc2cccc3ccccc23)[nH+]c2cc(OC)c(OC)cc21

>  <Energy>  (14) 
98.94075420599148

>  <Genealogy>  (14) 
CCNCCn1c(CNc2cccc3ccccc23)[nH+]c2cc(OC)c(OC)cc21 (protonated)
CCNCCn1c(CNc2cccc3ccccc23)[nH+]c2cc(OC)c(OC)cc21 (3D coordinates assigned)
CCNCCn1c(CNc2cccc3ccccc23)[nH+]c2cc(OC)c(OC)cc21 (optimized conformer: 98.94075420599148 kcal/mol)

>  <smiles>  (14) 
CCNCCn1c(CNc2cccc3ccccc23)nc2cc(OC)c(OC)cc21

>  <score_type>  (14) 
oracle

>  <origin>  (14) 
adg

>  <m_score__min__energy>  (14) 
-6.4199999999999999

>  <m_primary>  (14) 
energy

$$$$
15:0
     RDKit          3D

 37 39  0  0  0  0  0  0  0  0999 V2000
   60.0460   33.8390   49.9530 C   0  0  0  0  0  0  0  0  0  0  0  0
   61.5430   34.0300   49.7190 C   0  0  0  0  0  0  0  0  0  0  0  0
   61.9470   33.5070   48.3940 N   0  0  0  0  0  0  0  0  0  0  0  0
   63.3230   33.8030   47.9360 C   0  0  0  0  0  0  0  0  0  0  0  0
   63.4000   33.8380   46.4110 C   0  0  0  0  0  0  0  0  0  0  0  0
   61.1530   32.7720   47.6340 C   0  0  0  0  0  0  0  0  0  0  0  0
   61.2330   31.3630   47.5840 C   0  0  0  0  0  0  0  0  0  0  0  0
   60.3640   30.6500   46.7610 C   0  0  0  0  0  0  0  0  0  0  0  0
   59.4100   31.3240   45.9800 C   0  0  0  0  0  0  0  0  0  0  0  0
   59.3870   32.7360   46.0790 C   0  0  0  0  0  0  0  0  0  0  0  0
   58.4730   33.4830   45.3380 C   0  0  0  0  0  0  0  0  0  0  0  0
   57.5670   32.8530   44.4910 C   0  0  0  0  0  0  0  0  0  0  0  0
   57.5610   31.4590   44.3690 C   0  0  0  0  0  0  0  0  0  0  0  0
   56.6370   30.8440   43.5090 C   0  0  0  0  0  0  0  0  0  0  0  0
   56.6150   29.4570   43.3720 C   0  0  0  0  0  0  0  0  0  0  0  0
   57.5100   28.6710   44.0930 C   0  0  0  0  0  0  0  0  0  0  0  0
   58.4370   29.2640   44.9550 C   0  0  0  0  0  0  0  0  0  0  0  0
   58.4840   30.6690   45.1130 C   0  0  0  0  0  0  0  0  0  0  0  0
   60.2360   33.3760   46.8770 O   0  0  0  0  0  0  0  0  0  0  0  0
   59.8442   33.8133   51.0340 H   0  0  0  0  0  0  0  0  0  0  0  0
   59.4941   34.6740   49.4968 H   0  0  0  0  0  0  0  0  0  0  0  0
   59.7214   32.8922   49.4968 H   0  0  0  0  0  0  0  0  0  0  0  0
   61.7803   35.1029   49.7692 H   0  0  0  0  0  0  0  0  0  0  0  0
   62.0912   33.4757   50.4951 H   0  0  0  0  0  0  0  0  0  0  0  0
   63.6313   34.7812   48.3337 H   0  0  0  0  0  0  0  0  0  0  0  0
   63.9909   33.0089   48.3012 H   0  0  0  0  0  0  0  0  0  0  0  0
   64.3612   34.2749   46.1023 H   0  0  0  0  0  0  0  0  0  0  0  0
   63.3188   32.8145   46.0162 H   0  0  0  0  0  0  0  0  0  0  0  0
   62.5755   34.4498   46.0162 H   0  0  0  0  0  0  0  0  0  0  0  0
   61.9787   30.8304   48.1926 H   0  0  0  0  0  0  0  0  0  0  0  0
   60.4251   29.5524   46.7223 H   0  0  0  0  0  0  0  0  0  0  0  0
   58.4680   34.5797   45.4236 H   0  0  0  0  0  0  0  0  0  0  0  0
   56.8502   33.4549   43.9131 H   0  0  0  0  0  0  0  0  0  0  0  0
   55.9259   31.4607   42.9397 H   0  0  0  0  0  0  0  0  0  0  0  0
   55.8901   28.9831   42.6938 H   0  0  0  0  0  0  0  0  0  0  0  0
   57.4875   27.5767   43.9836 H   0  0  0  0  0  0  0  0  0  0  0  0
   59.1386   28.6303   45.5174 H   0  0  0  0  0  0  0  0  0  0  0  0
  1  2  1  0
  2  3  1  0
  3  4  1  0
  4  5  1  0
  3  6  2  3
  6  7  1  0
  7  8  2  0
  8  9  1  0
  9 10  2  0
 10 11  1  0
 11 12  2  0
 12 13  1  0
 13 14  2  0
 14 15  1  0
 15 16  2  0
 16 17  1  0
 17 18  2  0
 10 19  1  0
 19  6  1  0
 18  9  1  0
 18 13  1  0
  1 20  1  0
  1 21  1  0
  1 22  1  0
  2 23  1  0
  2 24  1  0
  4 25  1  0
  4 26  1  0
  5 27  1  0
  5 28  1  0
  5 29  1  0
  7 30  1  0
  8 31  1  0
 11 32  1  0
 12 33  1  0
 14 34  1  0
 15 35  1  0
 16 36  1  0
 17 37  1  0
M  CHG  1   3   1
M  END
>  <UniqueID>  (15) 
15

>  <SMILES>  (15) 
CC[N+](CC)=c1ccc2c(ccc3ccccc32)o1

>  <Energy>  (15) 
51.128271388241544

>  <Genealogy>  (15) 
CC[N+](CC)=c1ccc2c(ccc3ccccc32)o1 (3D coordinates assigned)
CC[N+](CC)=c1ccc2c(ccc3ccccc32)o1 (optimized conformer: 51.128271388241544 kcal/mol)

>  <smiles>  (15) 
CC[N+](CC)=c1ccc2c(ccc3ccccc32)o1

>  <score_type>  (15) 
oracle

>  <origin>  (15) 
adg

>  <m_score__min__energy>  (15) 
-5.1200000000000001

>  <m_primary>  (15) 
energy

$$$$
16:0
     RDKit          3D

 37 39  0  0  0  0  0  0  0  0999 V2000
   58.6960   28.1610   46.1160 C   0  0  0  0  0  0  0  0  0  0  0  0
   57.2460   27.9910   45.6920 C   0  0  0  0  0  0  0  0  0  0  0  0
   56.6400   29.2550   45.6160 O   0  0  0  0  0  0  0  0  0  0  0  0
   56.0470   29.3330   44.3940 N   0  0  0  0  0  0  0  0  0  0  0  0
   56.9640   30.0150   43.4770 C   0  0  0  0  0  0  0  0  0  0  0  0
   57.0190   31.5400   43.6920 C   0  0  0  0  0  0  0  0  0  0  0  0
   56.9090   31.8820   45.0770 O   0  0  0  0  0  0  0  0  0  0  0  0
   57.9490   32.3220   45.9130 C   0  0  0  0  0  0  0  0  0  0  0  0
   57.8550   33.4980   46.7120 C   0  0  0  0  0  0  0  0  0  0  0  0
   58.9410   33.9200   47.5010 C   0  0  0  0  0  0  0  0  0  0  0  0
   60.0960   33.1460   47.4770 C   0  0  0  0  0  0  0  0  0  0  0  0
   60.1940   31.9980   46.7230 C   0  0  0  0  0  0  0  0  0  0  0  0
   59.1340   31.5570   45.9370 C   0  0  0  0  0  0  0  0  0  0  0  0
   61.3790   31.4360   46.8590 O   0  0  0  0  0  0  0  0  0  0  0  0
   62.0600   32.2000   47.6910 C   0  0  0  0  0  0  0  0  0  0  0  0
   63.3660   32.0110   48.1380 C   0  0  0  0  0  0  0  0  0  0  0  0
   63.9000   32.9600   49.0310 C   0  0  0  0  0  0  0  0  0  0  0  0
   63.1250   34.0650   49.4530 C   0  0  0  0  0  0  0  0  0  0  0  0
   61.8080   34.2340   48.9880 C   0  0  0  0  0  0  0  0  0  0  0  0
   61.3090   33.2780   48.1060 C   0  0  0  0  0  0  0  0  0  0  0  0
   58.7584   28.1683   47.2142 H   0  0  0  0  0  0  0  0  0  0  0  0
   59.2939   27.3268   45.7203 H   0  0  0  0  0  0  0  0  0  0  0  0
   59.0848   29.1109   45.7203 H   0  0  0  0  0  0  0  0  0  0  0  0
   57.2047   27.5026   44.7072 H   0  0  0  0  0  0  0  0  0  0  0  0
   56.7149   27.3682   46.4269 H   0  0  0  0  0  0  0  0  0  0  0  0
   55.8760   28.3580   44.0500 H   0  0  0  0  0  0  0  0  0  0  0  0
   57.9741   29.6050   43.6243 H   0  0  0  0  0  0  0  0  0  0  0  0
   56.5916   29.8432   42.4563 H   0  0  0  0  0  0  0  0  0  0  0  0
   57.9760   31.9205   43.3055 H   0  0  0  0  0  0  0  0  0  0  0  0
   56.1709   31.9931   43.1578 H   0  0  0  0  0  0  0  0  0  0  0  0
   56.9231   34.0825   46.7120 H   0  0  0  0  0  0  0  0  0  0  0  0
   58.8785   34.8303   48.1153 H   0  0  0  0  0  0  0  0  0  0  0  0
   59.2181   30.6322   45.3473 H   0  0  0  0  0  0  0  0  0  0  0  0
   63.9610   31.1481   47.8041 H   0  0  0  0  0  0  0  0  0  0  0  0
   64.9282   32.8408   49.4032 H   0  0  0  0  0  0  0  0  0  0  0  0
   63.5555   34.7985   50.1506 H   0  0  0  0  0  0  0  0  0  0  0  0
   61.1951   35.0892   49.3089 H   0  0  0  0  0  0  0  0  0  0  0  0
  1  2  1  0
  2  3  1  0
  3  4  1  0
  4  5  1  0
  5  6  1  0
  6  7  1  0
  7  8  1  0
  8  9  2  0
  9 10  1  0
 10 11  2  0
 11 12  1  0
 12 13  2  0
 12 14  1  0
 14 15  1  0
 15 16  2  0
 16 17  1  0
 17 18  2  0
 18 19  1  0
 19 20  2  0
 13  8  1  0
 20 15  1  0
 20 11  1  0
  1 21  1  0
  1 22  1  0
  1 23  1  0
  2 24  1  0
  2 25  1  0
  4 26  1  0
  5 27  1  0
  5 28  1  0
  6 29  1  0
  6 30  1  0
  9 31  1  0
 10 32  1  0
 13 33  1  0
 16 34  1  0
 17 35  1  0
 18 36  1  0
 19 37  1  0
M  END
>  <UniqueID>  (16) 
16

>  <SMILES>  (16) 
CCONCCOc1ccc2c(c1)oc1ccccc12

>  <Energy>  (16) 
76.11102566789438

>  <Genealogy>  (16) 
CCONCCOc1ccc2c(c1)oc1ccccc12 (3D coordinates assigned)
CCONCCOc1ccc2c(c1)oc1ccccc12 (optimized conformer: 76.11102566789438 kcal/mol)

>  <smiles>  (16) 
CCONCCOc1ccc2c(c1)oc1ccccc12

>  <score_type>  (16) 
oracle

>  <origin>  (16) 
adg

>  <m_score__min__energy>  (16) 
-7.21

>  <m_primary>  (16) 
energy

$$$$
17:0
     RDKit          3D

 52 54  0  0  0  0  0  0  0  0999 V2000
   56.2820   29.7650   43.0310 C   0  0  0  0  0  0  0  0  0  0  0  0
   56.6610   30.9230   43.9420 C   0  0  0  0  0  0  0  0  0  0  0  0
   56.9580   30.4220   45.2280 O   0  0  0  0  0  0  0  0  0  0  0  0
   57.9370   29.4030   45.1510 C   0  0  0  0  0  0  0  0  0  0  0  0
   59.3390   29.9920   45.3290 C   0  0  0  0  0  0  0  0  0  0  0  0
   59.6280   30.1700   46.7020 O   0  0  0  0  0  0  0  0  0  0  0  0
   58.9060   29.2440   47.4880 C   0  0  0  0  0  0  0  0  0  0  0  0
   59.5260   29.1700   48.8780 C   0  0  0  0  0  0  0  0  0  0  0  0
   58.7220   29.8840   49.8010 O   0  0  0  0  0  0  0  0  0  0  0  0
   59.4790   30.2690   50.9290 C   0  0  0  0  0  0  0  0  0  0  0  0
   59.6290   31.7880   50.9500 C   0  0  0  0  0  0  0  0  0  0  0  0
   60.2350   32.2670   49.7030 N   0  0  0  0  0  0  0  0  0  0  0  0
   59.5970   32.6730   48.5750 C   0  0  0  0  0  0  0  0  0  0  0  0
   58.2180   32.6880   48.3400 C   0  0  0  0  0  0  0  0  0  0  0  0
   57.7580   33.1600   47.1010 C   0  0  0  0  0  0  0  0  0  0  0  0
   58.6690   33.6080   46.1240 C   0  0  0  0  0  0  0  0  0  0  0  0
   58.0720   34.1950   44.5830 Cl  0  0  0  0  0  0  0  0  0  0  0  0
   60.0530   33.5950   46.3770 C   0  0  0  0  0  0  0  0  0  0  0  0
   60.4950   33.1200   47.6180 C   0  0  0  0  0  0  0  0  0  0  0  0
   61.7570   32.9950   48.1950 C   0  0  0  0  0  0  0  0  0  0  0  0
   61.5500   32.4830   49.4620 C   0  0  0  0  0  0  0  0  0  0  0  0
   62.6210   32.2650   50.3270 C   0  0  0  0  0  0  0  0  0  0  0  0
   63.9050   32.5710   49.8640 C   0  0  0  0  0  0  0  0  0  0  0  0
   64.0830   33.0840   48.5640 C   0  0  0  0  0  0  0  0  0  0  0  0
   63.0110   33.2990   47.7310 N   0  0  0  0  0  0  0  0  0  0  0  0
   63.2430   33.8380   46.3890 C   0  0  0  0  0  0  0  0  0  0  0  0
   55.9975   28.8957   43.6420 H   0  0  0  0  0  0  0  0  0  0  0  0
   55.4337   30.0604   42.3961 H   0  0  0  0  0  0  0  0  0  0  0  0
   57.1408   29.5016   42.3961 H   0  0  0  0  0  0  0  0  0  0  0  0
   57.5434   31.4383   43.5348 H   0  0  0  0  0  0  0  0  0  0  0  0
   55.8235   31.6334   44.0057 H   0  0  0  0  0  0  0  0  0  0  0  0
   57.7521   28.6627   45.9433 H   0  0  0  0  0  0  0  0  0  0  0  0
   57.8751   28.9241   44.1627 H   0  0  0  0  0  0  0  0  0  0  0  0
   60.0786   29.3070   44.8887 H   0  0  0  0  0  0  0  0  0  0  0  0
   59.3823   30.9691   44.8255 H   0  0  0  0  0  0  0  0  0  0  0  0
   57.8586   29.5699   47.5700 H   0  0  0  0  0  0  0  0  0  0  0  0
   58.9437   28.2516   47.0150 H   0  0  0  0  0  0  0  0  0  0  0  0
   59.5951   28.1179   49.1915 H   0  0  0  0  0  0  0  0  0  0  0  0
   60.5313   29.6157   48.8514 H   0  0  0  0  0  0  0  0  0  0  0  0
   58.9659   29.9390   51.8444 H   0  0  0  0  0  0  0  0  0  0  0  0
   60.4745   29.8040   50.8772 H   0  0  0  0  0  0  0  0  0  0  0  0
   58.6365   32.2471   51.0687 H   0  0  0  0  0  0  0  0  0  0  0  0
   60.2819   32.0671   51.7902 H   0  0  0  0  0  0  0  0  0  0  0  0
   57.5117   32.3385   49.1074 H   0  0  0  0  0  0  0  0  0  0  0  0
   56.6784   33.1803   46.8911 H   0  0  0  0  0  0  0  0  0  0  0  0
   60.7687   33.9485   45.6202 H   0  0  0  0  0  0  0  0  0  0  0  0
   62.4619   31.8658   51.3396 H   0  0  0  0  0  0  0  0  0  0  0  0
   64.7767   32.4109   50.5156 H   0  0  0  0  0  0  0  0  0  0  0  0
   65.0979   33.3166   48.2093 H   0  0  0  0  0  0  0  0  0  0  0  0
   63.6768   34.8457   46.4685 H   0  0  0  0  0  0  0  0  0  0  0  0
   63.9382   33.1814   45.8453 H   0  0  0  0  0  0  0  0  0  0  0  0
   62.2883   33.8916   45.8453 H   0  0  0  0  0  0  0  0  0  0  0  0
  1  2  1  0
  2  3  1  0
  3  4  1  0
  4  5  1  0
  5  6  1  0
  6  7  1  0
  7  8  1  0
  8  9  1  0
  9 10  1  0
 10 11  1  0
 11 12  1  0
 12 13  1  0
 13 14  2  0
 14 15  1  0
 15 16  2  0
 16 17  1  0
 16 18  1  0
 18 19  2  0
 19 20  1  0
 20 21  2  0
 21 22  1  0
 22 23  2  0
 23 24  1  0
 24 25  2  0
 25 26  1  0
 21 12  1  0
 19 13  1  0
 25 20  1  0
  1 27  1  0
  1 28  1  0
  1 29  1  0
  2 30  1  0
  2 31  1  0
  4 32  1  0
  4 33  1  0
  5 34  1  0
  5 35  1  0
  7 36  1  0
  7 37  1  0
  8 38  1  0
  8 39  1  0
 10 40  1  0
 10 41  1  0
 11 42  1  0
 11 43  1  0
 14 44  1  0
 15 45  1  0
 18 46  1  0
 22 47  1  0
 23 48  1  0
 24 49  1  0
 26 50  1  0
 26 51  1  0
 26 52  1  0
M  CHG  1  25   1
M  END
>  <UniqueID>  (17) 
17

>  <SMILES>  (17) 
CCOCCOCCOCCn1c2ccc(Cl)cc2c2c1ccc[n+]2C

>  <Energy>  (17) 
96.67236382138178

>  <Genealogy>  (17) 
CCOCCOCCOCCn1c2ccc(Cl)cc2c2c1ccc[n+]2C (3D coordinates assigned)
CCOCCOCCOCCn1c2ccc(Cl)cc2c2c1ccc[n+]2C (optimized conformer: 96.67236382138178 kcal/mol)

>  <smiles>  (17) 
CCOCCOCCOCCn1c2ccc(Cl)cc2c2c1ccc[n+]2C

>  <score_type>  (17) 
oracle

>  <origin>  (17) 
adg

>  <m_score__min__energy>  (17) 
-5.8099999999999996

>  <m_primary>  (17) 
energy

$$$$
18:0
     RDKit          3D

 52 53  0  0  0  0  0  0  0  0999 V2000
   63.7390   33.1990   48.7770 C   0  0  0  0  0  0  0  0  0  0  0  0
   62.8040   33.8340   47.7380 C   0  0  0  0  0  0  0  0  0  0  0  0
   63.4190   33.8170   46.3330 C   0  0  0  0  0  0  0  0  0  0  0  0
   61.4480   33.2460   47.7380 N   0  0  0  0  0  0  0  0  0  0  0  0
   60.3740   34.0670   47.1330 C   0  0  1  0  0  0  0  0  0  0  0  0
   60.0910   33.6510   45.6560 C   0  0  0  0  0  0  0  0  0  0  0  0
   58.6110   33.8060   45.2890 C   0  0  0  0  0  0  0  0  0  0  0  0
   57.7070   32.8900   46.1580 C   0  0  1  0  0  0  0  0  0  0  0  0
   57.6020   31.5470   45.5510 N   0  0  0  0  0  0  0  0  0  0  0  0
   56.6430   31.5300   44.4360 C   0  0  0  0  0  0  0  0  0  0  0  0
   56.7110   30.1880   43.7070 C   0  0  0  0  0  0  0  0  0  0  0  0
   58.0800   29.6580   43.7640 N   0  0  0  0  0  0  0  0  0  0  0  0
   58.2230   28.6180   44.7940 C   0  0  0  0  0  0  0  0  0  0  0  0
   59.0760   29.0790   45.9530 C   0  0  0  0  0  0  0  0  0  0  0  0
   58.5840   29.0170   47.2670 C   0  0  0  0  0  0  0  0  0  0  0  0
   59.3660   29.4680   48.3350 C   0  0  0  0  0  0  0  0  0  0  0  0
   60.6430   29.9870   48.0980 C   0  0  0  0  0  0  0  0  0  0  0  0
   61.4010   30.4240   49.1340 F   0  0  0  0  0  0  0  0  0  0  0  0
   61.1380   30.0560   46.7920 C   0  0  0  0  0  0  0  0  0  0  0  0
   60.3570   29.6070   45.7220 C   0  0  0  0  0  0  0  0  0  0  0  0
   58.2320   32.7810   47.6190 C   0  0  0  0  0  0  0  0  0  0  0  0
   59.1050   33.9750   48.0180 C   0  0  1  0  0  0  0  0  0  0  0  0
   59.4510   33.8750   49.3560 F   0  0  0  0  0  0  0  0  0  0  0  0
   63.3817   33.4417   49.7886 H   0  0  0  0  0  0  0  0  0  0  0  0
   63.7480   32.1072   48.6434 H   0  0  0  0  0  0  0  0  0  0  0  0
   64.7572   33.5932   48.6434 H   0  0  0  0  0  0  0  0  0  0  0  0
   62.6859   34.8841   48.0435 H   0  0  0  0  0  0  0  0  0  0  0  0
   64.5157   33.7867   46.4131 H   0  0  0  0  0  0  0  0  0  0  0  0
   63.0664   32.9283   45.7891 H   0  0  0  0  0  0  0  0  0  0  0  0
   63.1160   34.7239   45.7891 H   0  0  0  0  0  0  0  0  0  0  0  0
   61.4790   32.2810   47.3330 H   0  0  0  0  0  0  0  0  0  0  0  0
   60.7018   35.1163   47.0938 H   0  0  0  0  0  0  0  0  0  0  0  0
   60.6910   34.2856   44.9872 H   0  0  0  0  0  0  0  0  0  0  0  0
   60.3592   32.5900   45.5447 H   0  0  0  0  0  0  0  0  0  0  0  0
   58.3125   34.8532   45.4446 H   0  0  0  0  0  0  0  0  0  0  0  0
   58.4855   33.5138   44.2360 H   0  0  0  0  0  0  0  0  0  0  0  0
   56.7077   33.3483   46.1953 H   0  0  0  0  0  0  0  0  0  0  0  0
   58.5320   31.2870   45.1470 H   0  0  0  0  0  0  0  0  0  0  0  0
   55.6262   31.6803   44.8279 H   0  0  0  0  0  0  0  0  0  0  0  0
   56.8948   32.3363   43.7314 H   0  0  0  0  0  0  0  0  0  0  0  0
   56.0238   29.4763   44.1879 H   0  0  0  0  0  0  0  0  0  0  0  0
   56.4212   30.3314   42.6556 H   0  0  0  0  0  0  0  0  0  0  0  0
   58.7400   30.4430   43.9730 H   0  0  0  0  0  0  0  0  0  0  0  0
   57.2244   28.3534   45.1718 H   0  0  0  0  0  0  0  0  0  0  0  0
   58.7182   27.7507   44.3330 H   0  0  0  0  0  0  0  0  0  0  0  0
   57.5791   28.6119   47.4569 H   0  0  0  0  0  0  0  0  0  0  0  0
   58.9765   29.4145   49.3623 H   0  0  0  0  0  0  0  0  0  0  0  0
   62.1425   30.4638   46.6060 H   0  0  0  0  0  0  0  0  0  0  0  0
   60.7475   29.6676   44.6955 H   0  0  0  0  0  0  0  0  0  0  0  0
   57.3703   32.7303   48.3009 H   0  0  0  0  0  0  0  0  0  0  0  0
   58.8530   31.8754   47.6849 H   0  0  0  0  0  0  0  0  0  0  0  0
   58.5250   34.8965   47.8619 H   0  0  0  0  0  0  0  0  0  0  0  0
  1  2  1  0
  2  3  1  0
  2  4  1  0
  4  5  1  0
  5  6  1  0
  6  7  1  0
  7  8  1  0
  8  9  1  0
  9 10  1  0
 10 11  1  0
 11 12  1  0
 12 13  1  0
 13 14  1  0
 14 15  2  0
 15 16  1  0
 16 17  2  0
 17 18  1  0
 17 19  1  0
 19 20  2  0
  8 21  1  0
 21 22  1  0
 22 23  1  0
 22  5  1  0
 20 14  1  0
  1 24  1  0
  1 25  1  0
  1 26  1  0
  2 27  1  0
  3 28  1  0
  3 29  1  0
  3 30  1  0
  4 31  1  0
  5 32  1  6
  6 33  1  0
  6 34  1  0
  7 35  1  0
  7 36  1  0
  8 37  1  1
  9 38  1  0
 10 39  1  0
 10 40  1  0
 11 41  1  0
 11 42  1  0
 12 43  1  0
 13 44  1  0
 13 45  1  0
 15 46  1  0
 16 47  1  0
 19 48  1  0
 20 49  1  0
 21 50  1  0
 21 51  1  0
 22 52  1  1
M  END
>  <UniqueID>  (18) 
18

>  <SMILES>  (18) 
CC(C)N[C@H]1CC[C@@H](NCCNCc2ccc(F)cc2)CC1F

>  <Energy>  (18) 
53.810507962796535

>  <Genealogy>  (18) 
CC(C)N[C@H]1CC[C@@H](NCCNCc2ccc(F)cc2)CC1F (chirality)
CC(C)N[C@H]1CC[C@@H](NCCNCc2ccc(F)cc2)CC1F (3D coordinates assigned)
CC(C)N[C@H]1CC[C@@H](NCCNCc2ccc(F)cc2)CC1F (nonaromatic ring conformer: 53.810507962796535 kcal/mol)

>  <smiles>  (18) 
CC(C)NC1CCC(NCCNCc2ccc(F)cc2)CC1F

>  <score_type>  (18) 
oracle

>  <origin>  (18) 
adg

>  <m_score__min__energy>  (18) 
-7.0700000000000003

>  <m_primary>  (18) 
energy

$$$$
19:0
     RDKit          3D

 48 50  0  0  0  0  0  0  0  0999 V2000
   60.0150   28.2090   44.9670 C   0  0  0  0  0  0  0  0  0  0  0  0
   58.9380   27.1220   44.9210 C   0  0  0  0  0  0  0  0  0  0  0  0
   57.7230   27.5680   44.2210 N   0  0  0  0  0  0  0  0  0  0  0  0
   57.0090   28.9560   44.9950 S   0  0  0  0  0  0  0  0  0  0  0  0
   55.5190   28.7580   45.0480 O   0  0  0  0  0  0  0  0  0  0  0  0
   57.5430   29.0850   46.3950 O   0  0  0  0  0  0  0  0  0  0  0  0
   57.3570   30.4410   44.0860 C   0  0  0  0  0  0  0  0  0  0  0  0
   56.9940   30.4940   42.7290 C   0  0  0  0  0  0  0  0  0  0  0  0
   57.2660   31.6240   41.9590 C   0  0  0  0  0  0  0  0  0  0  0  0
   57.9010   32.7250   42.5270 C   0  0  0  0  0  0  0  0  0  0  0  0
   58.2600   32.7110   43.8810 C   0  0  0  0  0  0  0  0  0  0  0  0
   58.8890   33.8300   44.4460 C   0  0  0  0  0  0  0  0  0  0  0  0
   59.2440   33.8330   45.7940 C   0  0  0  0  0  0  0  0  0  0  0  0
   58.9760   32.7280   46.6040 C   0  0  0  0  0  0  0  0  0  0  0  0
   59.3560   32.7990   47.9550 O   0  0  0  0  0  0  0  0  0  0  0  0
   60.6920   32.7090   48.4570 C   0  0  0  0  0  0  0  0  0  0  0  0
   61.1640   34.1110   48.8820 C   0  0  0  0  0  0  0  0  0  0  0  0
   62.7000   34.2260   48.9450 C   0  0  0  0  0  0  0  0  0  0  0  0
   63.3140   32.8940   49.1050 N   0  0  0  0  0  0  0  0  0  0  0  0
   64.7540   33.0200   49.3770 C   0  0  0  0  0  0  0  0  0  0  0  0
   63.0920   32.0620   47.8990 C   0  0  0  0  0  0  0  0  0  0  0  0
   61.6380   32.1420   47.3850 C   0  0  0  0  0  0  0  0  0  0  0  0
   58.3350   31.6040   46.0480 C   0  0  0  0  0  0  0  0  0  0  0  0
   57.9820   31.5700   44.6810 C   0  0  0  0  0  0  0  0  0  0  0  0
   60.2510   28.4472   46.0146 H   0  0  0  0  0  0  0  0  0  0  0  0
   60.9219   27.8483   44.4597 H   0  0  0  0  0  0  0  0  0  0  0  0
   59.6459   29.1126   44.4597 H   0  0  0  0  0  0  0  0  0  0  0  0
   59.3445   26.2433   44.3988 H   0  0  0  0  0  0  0  0  0  0  0  0
   58.6595   26.8806   45.9574 H   0  0  0  0  0  0  0  0  0  0  0  0
   57.0100   26.8020   44.1940 H   0  0  0  0  0  0  0  0  0  0  0  0
   56.4886   29.6324   42.2685 H   0  0  0  0  0  0  0  0  0  0  0  0
   56.9775   31.6457   40.8977 H   0  0  0  0  0  0  0  0  0  0  0  0
   58.1216   33.6089   41.9105 H   0  0  0  0  0  0  0  0  0  0  0  0
   59.1034   34.7101   43.8220 H   0  0  0  0  0  0  0  0  0  0  0  0
   59.7405   34.7153   46.2240 H   0  0  0  0  0  0  0  0  0  0  0  0
   60.7060   32.0304   49.3226 H   0  0  0  0  0  0  0  0  0  0  0  0
   60.7853   34.8453   48.1558 H   0  0  0  0  0  0  0  0  0  0  0  0
   60.7741   34.3015   49.8928 H   0  0  0  0  0  0  0  0  0  0  0  0
   63.0668   34.6838   48.0145 H   0  0  0  0  0  0  0  0  0  0  0  0
   62.9740   34.8491   49.8091 H   0  0  0  0  0  0  0  0  0  0  0  0
   64.9219   33.0347   50.4640 H   0  0  0  0  0  0  0  0  0  0  0  0
   65.2868   32.1650   48.9352 H   0  0  0  0  0  0  0  0  0  0  0  0
   65.1302   33.9545   48.9352 H   0  0  0  0  0  0  0  0  0  0  0  0
   63.7673   32.4079   47.1025 H   0  0  0  0  0  0  0  0  0  0  0  0
   63.2926   31.0158   48.1731 H   0  0  0  0  0  0  0  0  0  0  0  0
   61.6071   32.7943   46.4998 H   0  0  0  0  0  0  0  0  0  0  0  0
   61.3043   31.1245   47.1333 H   0  0  0  0  0  0  0  0  0  0  0  0
   58.1058   30.7394   46.6882 H   0  0  0  0  0  0  0  0  0  0  0  0
  1  2  1  0
  2  3  1  0
  3  4  1  0
  4  5  2  0
  4  6  2  0
  4  7  1  0
  7  8  2  0
  8  9  1  0
  9 10  2  0
 10 11  1  0
 11 12  2  0
 12 13  1  0
 13 14  2  0
 14 15  1  0
 15 16  1  0
 16 17  1  0
 17 18  1  0
 18 19  1  0
 19 20  1  0
 19 21  1  0
 21 22  1  0
 14 23  1  0
 23 24  2  0
 24  7  1  0
 24 11  1  0
 22 16  1  0
  1 25  1  0
  1 26  1  0
  1 27  1  0
  2 28  1  0
  2 29  1  0
  3 30  1  0
  8 31  1  0
  9 32  1  0
 10 33  1  0
 12 34  1  0
 13 35  1  0
 16 36  1  0
 17 37  1  0
 17 38  1  0
 18 39  1  0
 18 40  1  0
 20 41  1  0
 20 42  1  0
 20 43  1  0
 21 44  1  0
 21 45  1  0
 22 46  1  0
 22 47  1  0
 23 48  1  0
M  END
>  <UniqueID>  (19) 
19

>  <SMILES>  (19) 
CCNS(=O)(=O)c1cccc2ccc(OC3CCN(C)CC3)cc12

>  <Energy>  (19) 
58.17058541060079

>  <Genealogy>  (19) 
CCNS(=O)(=O)c1cccc2ccc(OC3CCN(C)CC3)cc12 (3D coordinates assigned)
CCNS(=O)(=O)c1cccc2ccc(OC3CCN(C)CC3)cc12 (nonaromatic ring conformer: 58.17058541060079 kcal/mol)

>  <smiles>  (19) 
CCNS(=O)(=O)c1cccc2ccc(OC3CCN(C)CC3)cc12

>  <score_type>  (19) 
oracle

>  <origin>  (19) 
adg

>  <m_score__min__energy>  (19) 
-9.5700000000000003

>  <m_primary>  (19) 
energy

$$$$
20:0
     RDKit          3D

 40 42  0  0  0  0  0  0  0  0999 V2000
   64.0700   33.1340   48.5730 C   0  0  0  0  0  0  0  0  0  0  0  0
   62.6860   33.5410   48.1640 C   0  0  0  0  0  0  0  0  0  0  0  0
   62.3160   33.5270   46.8100 C   0  0  0  0  0  0  0  0  0  0  0  0
   61.0140   33.8660   46.4320 C   0  0  0  0  0  0  0  0  0  0  0  0
   60.0590   34.2060   47.4020 C   0  0  0  0  0  0  0  0  0  0  0  0
   58.6510   34.5480   46.9900 C   0  0  0  0  0  0  0  0  0  0  0  0
   57.7950   33.3170   46.6190 C   0  0  0  0  0  0  0  0  0  0  0  0
   57.5870   32.9830   45.1170 C   0  0  1  0  0  0  0  0  0  0  0  0
   58.5500   33.6550   44.1560 C   0  0  0  0  0  0  0  0  0  0  0  0
   58.5160   32.9440   42.9430 O   0  0  0  0  0  0  0  0  0  0  0  0
   58.1280   31.6180   43.2430 C   0  0  2  0  0  0  0  0  0  0  0  0
   57.0150   31.1810   42.2850 C   0  0  0  0  0  0  0  0  0  0  0  0
   56.4550   29.8100   42.6930 C   0  0  0  0  0  0  0  0  0  0  0  0
   56.3880   29.6550   44.2240 C   0  0  0  0  0  0  0  0  0  0  0  0
   56.3930   30.9130   44.8680 O   0  0  0  0  0  0  0  0  0  0  0  0
   57.6630   31.5300   44.7120 C   0  0  2  0  0  0  0  0  0  0  0  0
   60.4290   34.2140   48.7570 C   0  0  0  0  0  0  0  0  0  0  0  0
   61.7300   33.8740   49.1350 C   0  0  0  0  0  0  0  0  0  0  0  0
   64.1370   33.1143   49.6708 H   0  0  0  0  0  0  0  0  0  0  0  0
   64.2907   32.1329   48.1741 H   0  0  0  0  0  0  0  0  0  0  0  0
   64.7975   33.8562   48.1741 H   0  0  0  0  0  0  0  0  0  0  0  0
   63.0539   33.2481   46.0434 H   0  0  0  0  0  0  0  0  0  0  0  0
   60.7362   33.8663   45.3676 H   0  0  0  0  0  0  0  0  0  0  0  0
   58.1625   35.0715   47.8251 H   0  0  0  0  0  0  0  0  0  0  0  0
   58.7234   35.1724   46.0873 H   0  0  0  0  0  0  0  0  0  0  0  0
   58.2693   32.4400   47.0837 H   0  0  0  0  0  0  0  0  0  0  0  0
   56.7875   33.5719   46.9795 H   0  0  0  0  0  0  0  0  0  0  0  0
   56.5587   33.3648   45.0343 H   0  0  0  0  0  0  0  0  0  0  0  0
   58.2428   34.6976   43.9869 H   0  0  0  0  0  0  0  0  0  0  0  0
   59.5685   33.6556   44.5716 H   0  0  0  0  0  0  0  0  0  0  0  0
   58.9848   30.9405   43.1129 H   0  0  0  0  0  0  0  0  0  0  0  0
   56.2044   31.9242   42.3101 H   0  0  0  0  0  0  0  0  0  0  0  0
   57.4317   31.1051   41.2698 H   0  0  0  0  0  0  0  0  0  0  0  0
   55.4417   29.7012   42.2789 H   0  0  0  0  0  0  0  0  0  0  0  0
   57.1273   29.0337   42.2987 H   0  0  0  0  0  0  0  0  0  0  0  0
   55.4644   29.1199   44.4899 H   0  0  0  0  0  0  0  0  0  0  0  0
   57.2730   29.0918   44.5551 H   0  0  0  0  0  0  0  0  0  0  0  0
   58.3422   30.9124   45.3181 H   0  0  0  0  0  0  0  0  0  0  0  0
   59.6905   34.4894   49.5243 H   0  0  0  0  0  0  0  0  0  0  0  0
   62.0063   33.8673   50.1997 H   0  0  0  0  0  0  0  0  0  0  0  0
  1  2  1  0
  2  3  2  0
  3  4  1  0
  4  5  2  0
  5  6  1  0
  6  7  1  0
  7  8  1  0
  8  9  1  0
  9 10  1  0
 10 11  1  0
 11 12  1  0
 12 13  1  0
 13 14  1  0
 14 15  1  0
 15 16  1  0
  5 17  1  0
 17 18  2  0
 18  2  1  0
 16  8  1  0
 16 11  1  0
  1 19  1  0
  1 20  1  0
  1 21  1  0
  3 22  1  0
  4 23  1  0
  6 24  1  0
  6 25  1  0
  7 26  1  0
  7 27  1  0
  8 28  1  6
  9 29  1  0
  9 30  1  0
 11 31  1  1
 12 32  1  0
 12 33  1  0
 13 34  1  0
 13 35  1  0
 14 36  1  0
 14 37  1  0
 16 38  1  1
 17 39  1  0
 18 40  1  0
M  END
>  <UniqueID>  (20) 
20

>  <SMILES>  (20) 
Cc1ccc(CC[C@H]2CO[C@@H]3CCCOC23)cc1

>  <Energy>  (20) 
47.313301554648454

>  <Genealogy>  (20) 
Cc1ccc(CC[C@H]2CO[C@@H]3CCCOC23)cc1 (chirality)
Cc1ccc(CC[C@H]2CO[C@@H]3CCCOC23)cc1 (3D coordinates assigned)
Cc1ccc(CC[C@H]2CO[C@@H]3CCCOC23)cc1 (nonaromatic ring conformer: 47.313301554648454 kcal/mol)

>  <smiles>  (20) 
Cc1ccc(CCC2COC3CCCOC23)cc1

>  <score_type>  (20) 
oracle

>  <origin>  (20) 
adg

>  <m_score__min__energy>  (20) 
-8.0700000000000003

>  <m_primary>  (20) 
energy

$$$$
21:0
     RDKit          3D

 78 81  0  0  0  0  0  0  0  0999 V2000
   62.5900   33.4780   46.9850 C   0  0  0  0  0  0  0  0  0  0  0  0
   61.2610   34.2180   46.8400 C   0  0  0  0  0  0  0  0  0  0  0  0
   60.2450   33.7100   47.7900 N   0  0  0  0  0  0  0  0  0  0  0  0
   60.4980   34.2230   49.1520 C   0  0  0  0  0  0  0  0  0  0  0  0
   58.8810   34.0840   47.3460 C   0  0  0  0  0  0  0  0  0  0  0  0
   58.2950   32.9880   46.4480 C   0  0  0  0  0  0  0  0  0  0  0  0
   59.3310   32.0440   46.0250 N   0  0  0  0  0  0  0  0  0  0  0  0
   59.0460   30.6560   45.7710 C   0  0  0  0  0  0  0  0  0  0  0  0
   59.5130   29.6700   46.6570 C   0  0  0  0  0  0  0  0  0  0  0  0
   60.3040   30.0160   47.7710 C   0  0  0  0  0  0  0  0  0  0  0  0
   60.7090   29.0480   48.6860 C   0  0  0  0  0  0  0  0  0  0  0  0
   60.3220   27.7190   48.5310 C   0  0  0  0  0  0  0  0  0  0  0  0
   60.7410   26.7940   49.5010 O   0  0  0  0  0  0  0  0  0  0  0  0
   61.1110   27.1030   50.8460 C   0  0  0  0  0  0  0  0  0  0  0  0
   61.6770   25.8470   51.5530 C   0  0  0  0  0  0  0  0  0  0  0  0
   62.5460   26.1200   52.7450 N   0  0  0  0  0  0  0  0  0  0  0  0
   61.7930   25.8110   53.9900 C   0  0  0  0  0  0  0  0  0  0  0  0
   62.8790   27.5860   52.7570 C   0  0  0  0  0  0  0  0  0  0  0  0
   64.1960   27.8970   52.0180 C   0  0  0  0  0  0  0  0  0  0  0  0
   65.3750   27.2460   52.6730 N   0  0  0  0  0  0  0  0  0  0  0  0
   65.9650   28.1720   53.6700 C   0  0  0  0  0  0  0  0  0  0  0  0
   66.4070   26.9690   51.6430 C   0  0  0  0  0  0  0  0  0  0  0  0
   64.9960   25.9690   53.3590 C   0  0  0  0  0  0  0  0  0  0  0  0
   63.7910   25.2830   52.6870 C   0  0  0  0  0  0  0  0  0  0  0  0
   59.5350   27.3590   47.4230 C   0  0  0  0  0  0  0  0  0  0  0  0
   59.1640   28.3120   46.4400 C   0  0  0  0  0  0  0  0  0  0  0  0
   58.4670   27.9470   45.3030 N   0  0  0  0  0  0  0  0  0  0  0  0
   58.3770   26.5230   44.9140 C   0  0  0  0  0  0  0  0  0  0  0  0
   57.9100   28.9150   44.4910 C   0  0  0  0  0  0  0  0  0  0  0  0
   57.0260   28.5870   43.4900 N   0  0  0  0  0  0  0  0  0  0  0  0
   56.5400   29.5120   42.6200 C   0  0  0  0  0  0  0  0  0  0  0  0
   56.9260   30.8420   42.7220 C   0  0  0  0  0  0  0  0  0  0  0  0
   57.7760   31.2290   43.7520 C   0  0  0  0  0  0  0  0  0  0  0  0
   58.2450   30.2800   44.6800 C   0  0  0  0  0  0  0  0  0  0  0  0
   62.8229   33.3483   48.0522 H   0  0  0  0  0  0  0  0  0  0  0  0
   62.5150   32.4918   46.5036 H   0  0  0  0  0  0  0  0  0  0  0  0
   63.3888   34.0612   46.5036 H   0  0  0  0  0  0  0  0  0  0  0  0
   61.4260   35.2883   47.0330 H   0  0  0  0  0  0  0  0  0  0  0  0
   60.8873   34.0548   45.8184 H   0  0  0  0  0  0  0  0  0  0  0  0
   60.1379   33.4928   49.8916 H   0  0  0  0  0  0  0  0  0  0  0  0
   61.5778   34.3819   49.2893 H   0  0  0  0  0  0  0  0  0  0  0  0
   59.9668   35.1764   49.2893 H   0  0  0  0  0  0  0  0  0  0  0  0
   58.2356   34.2149   48.2271 H   0  0  0  0  0  0  0  0  0  0  0  0
   58.9350   35.0232   46.7758 H   0  0  0  0  0  0  0  0  0  0  0  0
   57.5187   32.4435   47.0056 H   0  0  0  0  0  0  0  0  0  0  0  0
   57.8669   33.4617   45.5523 H   0  0  0  0  0  0  0  0  0  0  0  0
   60.3240   32.3650   45.9930 H   0  0  0  0  0  0  0  0  0  0  0  0
   60.6050   31.0636   47.9193 H   0  0  0  0  0  0  0  0  0  0  0  0
   61.3406   29.3355   49.5395 H   0  0  0  0  0  0  0  0  0  0  0  0
   61.8781   27.8913   50.8387 H   0  0  0  0  0  0  0  0  0  0  0  0
   60.2196   27.4475   51.3908 H   0  0  0  0  0  0  0  0  0  0  0  0
   60.8276   25.2321   51.8852 H   0  0  0  0  0  0  0  0  0  0  0  0
   62.3210   25.3464   50.8150 H   0  0  0  0  0  0  0  0  0  0  0  0
   62.4104   26.0644   54.8644 H   0  0  0  0  0  0  0  0  0  0  0  0
   60.8649   26.4010   54.0132 H   0  0  0  0  0  0  0  0  0  0  0  0
   61.5468   24.7392   54.0132 H   0  0  0  0  0  0  0  0  0  0  0  0
   62.0618   28.1376   52.2693 H   0  0  0  0  0  0  0  0  0  0  0  0
   63.0033   27.8925   53.8061 H   0  0  0  0  0  0  0  0  0  0  0  0
   64.1176   27.5310   50.9836 H   0  0  0  0  0  0  0  0  0  0  0  0
   64.3512   28.9857   52.0446 H   0  0  0  0  0  0  0  0  0  0  0  0
   65.7362   27.8130   54.6843 H   0  0  0  0  0  0  0  0  0  0  0  0
   67.0556   28.2123   53.5326 H   0  0  0  0  0  0  0  0  0  0  0  0
   65.5407   29.1775   53.5326 H   0  0  0  0  0  0  0  0  0  0  0  0
   67.3571   26.7140   52.1352 H   0  0  0  0  0  0  0  0  0  0  0  0
   66.0816   26.1264   51.0152 H   0  0  0  0  0  0  0  0  0  0  0  0
   66.5472   27.8613   51.0152 H   0  0  0  0  0  0  0  0  0  0  0  0
   65.8554   25.2830   53.3306 H   0  0  0  0  0  0  0  0  0  0  0  0
   64.7124   26.2126   54.3935 H   0  0  0  0  0  0  0  0  0  0  0  0
   64.0377   25.0906   51.6324 H   0  0  0  0  0  0  0  0  0  0  0  0
   63.5912   24.3492   53.2329 H   0  0  0  0  0  0  0  0  0  0  0  0
   59.2000   26.3167   47.3162 H   0  0  0  0  0  0  0  0  0  0  0  0
   58.3375   25.8977   45.8181 H   0  0  0  0  0  0  0  0  0  0  0  0
   57.4669   26.3627   44.3173 H   0  0  0  0  0  0  0  0  0  0  0  0
   59.2596   26.2494   44.3173 H   0  0  0  0  0  0  0  0  0  0  0  0
   56.6550   27.6180   43.3820 H   0  0  0  0  0  0  0  0  0  0  0  0
   55.8374   29.2052   41.8312 H   0  0  0  0  0  0  0  0  0  0  0  0
   56.5626   31.5827   41.9945 H   0  0  0  0  0  0  0  0  0  0  0  0
   58.0834   32.2813   43.8421 H   0  0  0  0  0  0  0  0  0  0  0  0
  1  2  1  0
  2  3  1  0
  3  4  1  0
  3  5  1  0
  5  6  1  0
  6  7  1  0
  7  8  1  0
  8  9  2  0
  9 10  1  0
 10 11  2  0
 11 12  1  0
 12 13  1  0
 13 14  1  0
 14 15  1  0
 15 16  1  0
 16 17  1  0
 16 18  1  0
 18 19  1  0
 19 20  1  0
 20 21  1  0
 20 22  1  0
 20 23  1  0
 23 24  1  0
 12 25  2  0
 25 26  1  0
 26 27  2  0
 27 28  1  0
 27 29  1  0
 29 30  2  0
 30 31  1  0
 31 32  2  0
 32 33  1  0
 33 34  2  0
 34  8  1  0
 26  9  1  0
 34 29  1  0
 24 16  1  0
  1 35  1  0
  1 36  1  0
  1 37  1  0
  2 38  1  0
  2 39  1  0
  4 40  1  0
  4 41  1  0
  4 42  1  0
  5 43  1  0
  5 44  1  0
  6 45  1  0
  6 46  1  0
  7 47  1  0
 10 48  1  0
 11 49  1  0
 14 50  1  0
 14 51  1  0
 15 52  1  0
 15 53  1  0
 17 54  1  0
 17 55  1  0
 17 56  1  0
 18 57  1  0
 18 58  1  0
 19 59  1  0
 19 60  1  0
 21 61  1  0
 21 62  1  0
 21 63  1  0
 22 64  1  0
 22 65  1  0
 22 66  1  0
 23 67  1  0
 23 68  1  0
 24 69  1  0
 24 70  1  0
 25 71  1  0
 28 72  1  0
 28 73  1  0
 28 74  1  0
 30 75  1  0
 31 76  1  0
 32 77  1  0
 33 78  1  0
M  CHG  4  16   1  20   1  27   1  30   1
M  END
>  <UniqueID>  (21) 
21

>  <SMILES>  (21) 
CCN(C)CCNc1c2ccc(OCC[N+]3(C)CC[N+](C)(C)CC3)cc2[n+](C)c2[nH+]cccc12

>  <Energy>  (21) 
127.79606935059672

>  <Genealogy>  (21) 
CCN(C)CCNc1c2ccc(OCC[N+]3(C)CC[N+](C)(C)CC3)cc2[n+](C)c2[nH+]cccc12 (protonated)
CCN(C)CCNc1c2ccc(OCC[N+]3(C)CC[N+](C)(C)CC3)cc2[n+](C)c2[nH+]cccc12 (3D coordinates assigned)
CCN(C)CCNc1c2ccc(OCC[N+]3(C)CC[N+](C)(C)CC3)cc2[n+](C)c2[nH+]cccc12 (nonaromatic ring conformer: 127.79606935059672 kcal/mol)

>  <smiles>  (21) 
CCN(C)CCNc1c2ccc(OCC[N+]3(C)CC[N+](C)(C)CC3)cc2[n+](C)c2ncccc12

>  <score_type>  (21) 
oracle

>  <origin>  (21) 
adg

>  <m_score__min__energy>  (21) 
-2.4399999999999999

>  <m_primary>  (21) 
energy

$$$$
22:0
     RDKit          3D

 47 49  0  0  0  0  0  0  0  0999 V2000
   56.6350   30.3490   42.5290 C   0  0  0  0  0  0  0  0  0  0  0  0
   57.3740   30.4140   43.8330 C   0  0  0  0  0  0  0  0  0  0  0  0
   57.7260   29.3340   44.6330 C   0  0  0  0  0  0  0  0  0  0  0  0
   57.4370   27.9490   44.3840 N   0  0  0  0  0  0  0  0  0  0  0  0
   58.3410   27.0820   43.6280 C   0  0  0  0  0  0  0  0  0  0  0  0
   57.7360   25.6850   43.3880 C   0  0  0  0  0  0  0  0  0  0  0  0
   57.4950   24.8990   44.6190 N   0  0  0  0  0  0  0  0  0  0  0  0
   57.8660   25.5710   45.8840 C   0  0  0  0  0  0  0  0  0  0  0  0
   56.6510   25.8360   46.7850 C   0  0  0  0  0  0  0  0  0  0  0  0
   55.5130   26.0990   45.9980 O   0  0  0  0  0  0  0  0  0  0  0  0
   55.0850   24.9070   45.3690 C   0  0  0  0  0  0  0  0  0  0  0  0
   56.2280   24.1400   44.6600 C   0  0  0  0  0  0  0  0  0  0  0  0
   58.4180   29.8890   45.6920 C   0  0  0  0  0  0  0  0  0  0  0  0
   58.9110   29.2640   46.6700 O   0  0  0  0  0  0  0  0  0  0  0  0
   58.4870   31.2260   45.5330 N   0  0  0  0  0  0  0  0  0  0  0  0
   59.1010   32.1500   46.4490 C   0  0  0  0  0  0  0  0  0  0  0  0
   58.3540   33.2050   46.9980 C   0  0  0  0  0  0  0  0  0  0  0  0
   58.9550   34.1100   47.8770 C   0  0  0  0  0  0  0  0  0  0  0  0
   60.3060   33.9730   48.2100 C   0  0  0  0  0  0  0  0  0  0  0  0
   61.0580   32.9310   47.6610 C   0  0  0  0  0  0  0  0  0  0  0  0
   60.4600   32.0230   46.7810 C   0  0  0  0  0  0  0  0  0  0  0  0
   57.8750   31.5450   44.3930 N   0  0  0  0  0  0  0  0  0  0  0  0
   57.7760   32.8950   43.8330 C   0  0  0  0  0  0  0  0  0  0  0  0
   55.5564   30.2541   42.7231 H   0  0  0  0  0  0  0  0  0  0  0  0
   56.8247   31.2673   41.9539 H   0  0  0  0  0  0  0  0  0  0  0  0
   56.9821   29.4779   41.9539 H   0  0  0  0  0  0  0  0  0  0  0  0
   56.5390   27.5600   44.7460 H   0  0  0  0  0  0  0  0  0  0  0  0
   58.5506   27.5500   42.6549 H   0  0  0  0  0  0  0  0  0  0  0  0
   59.2620   26.9566   44.2162 H   0  0  0  0  0  0  0  0  0  0  0  0
   56.7750   25.8118   42.8681 H   0  0  0  0  0  0  0  0  0  0  0  0
   58.4743   25.1223   42.7979 H   0  0  0  0  0  0  0  0  0  0  0  0
   58.5766   24.9316   46.4283 H   0  0  0  0  0  0  0  0  0  0  0  0
   58.3123   26.5434   45.6286 H   0  0  0  0  0  0  0  0  0  0  0  0
   56.4633   24.9519   47.4120 H   0  0  0  0  0  0  0  0  0  0  0  0
   56.8583   26.7090   47.4213 H   0  0  0  0  0  0  0  0  0  0  0  0
   54.6448   24.2487   46.1325 H   0  0  0  0  0  0  0  0  0  0  0  0
   54.3570   25.1920   44.5952 H   0  0  0  0  0  0  0  0  0  0  0  0
   56.4023   23.1960   45.1971 H   0  0  0  0  0  0  0  0  0  0  0  0
   55.9134   23.9691   43.6199 H   0  0  0  0  0  0  0  0  0  0  0  0
   57.2920   33.3194   46.7351 H   0  0  0  0  0  0  0  0  0  0  0  0
   58.3641   34.9317   48.3077 H   0  0  0  0  0  0  0  0  0  0  0  0
   60.7767   34.6851   48.9038 H   0  0  0  0  0  0  0  0  0  0  0  0
   62.1215   32.8247   47.9212 H   0  0  0  0  0  0  0  0  0  0  0  0
   61.0561   31.2065   46.3474 H   0  0  0  0  0  0  0  0  0  0  0  0
   57.7222   33.6283   44.6512 H   0  0  0  0  0  0  0  0  0  0  0  0
   58.6615   33.1009   43.2137 H   0  0  0  0  0  0  0  0  0  0  0  0
   56.8700   32.9695   43.2137 H   0  0  0  0  0  0  0  0  0  0  0  0
  1  2  1  0
  2  3  2  0
  3  4  1  0
  4  5  1  0
  5  6  1  0
  6  7  1  0
  7  8  1  0
  8  9  1  0
  9 10  1  0
 10 11  1  0
 11 12  1  0
  3 13  1  0
 13 14  2  0
 13 15  1  0
 15 16  1  0
 16 17  2  0
 17 18  1  0
 18 19  2  0
 19 20  1  0
 20 21  2  0
 15 22  1  0
 22 23  1  0
 22  2  1  0
 12  7  1  0
 21 16  1  0
  1 24  1  0
  1 25  1  0
  1 26  1  0
  4 27  1  0
  5 28  1  0
  5 29  1  0
  6 30  1  0
  6 31  1  0
  8 32  1  0
  8 33  1  0
  9 34  1  0
  9 35  1  0
 11 36  1  0
 11 37  1  0
 12 38  1  0
 12 39  1  0
 17 40  1  0
 18 41  1  0
 19 42  1  0
 20 43  1  0
 21 44  1  0
 23 45  1  0
 23 46  1  0
 23 47  1  0
M  END
>  <UniqueID>  (22) 
22

>  <SMILES>  (22) 
Cc1c(NCCN2CCOCC2)c(=O)n(-c2ccccc2)n1C

>  <Energy>  (22) 
103.01893985972602

>  <Genealogy>  (22) 
Cc1c(NCCN2CCOCC2)c(=O)n(-c2ccccc2)n1C (3D coordinates assigned)
Cc1c(NCCN2CCOCC2)c(=O)n(-c2ccccc2)n1C (nonaromatic ring conformer: 103.01893985972602 kcal/mol)

>  <smiles>  (22) 
Cc1c(NCCN2CCOCC2)c(=O)n(-c2ccccc2)n1C

>  <score_type>  (22) 
oracle

>  <origin>  (22) 
adg

>  <m_score__min__energy>  (22) 
-7.8300000000000001

>  <m_primary>  (22) 
energy

$$$$
23:0
     RDKit          3D

 43 44  0  0  0  0  0  0  0  0999 V2000
   58.0550   33.1480   46.6030 C   0  0  0  0  0  0  0  0  0  0  0  0
   57.3860   33.1590   45.2300 C   0  0  0  0  0  0  0  0  0  0  0  0
   58.4470   33.1840   44.1250 C   0  0  0  0  0  0  0  0  0  0  0  0
   56.5730   31.9900   45.1090 O   0  0  0  0  0  0  0  0  0  0  0  0
   57.0110   30.7240   44.6850 C   0  0  0  0  0  0  0  0  0  0  0  0
   57.9020   29.9320   45.4370 C   0  0  0  0  0  0  0  0  0  0  0  0
   58.2960   28.6750   44.9680 C   0  0  0  0  0  0  0  0  0  0  0  0
   57.8100   28.1900   43.7450 C   0  0  0  0  0  0  0  0  0  0  0  0
   58.1830   26.8040   43.2800 C   0  0  0  0  0  0  0  0  0  0  0  0
   57.3950   25.7970   44.0030 N   0  0  0  0  0  0  0  0  0  0  0  0
   58.2410   24.9470   44.8550 C   0  0  0  0  0  0  0  0  0  0  0  0
   58.8260   25.7910   45.9860 C   0  0  0  0  0  0  0  0  0  0  0  0
   57.8760   25.5620   47.5310 S   0  0  0  0  0  0  0  0  0  0  0  0
   56.3220   25.2140   46.6970 C   0  0  0  0  0  0  0  0  0  0  0  0
   55.5310   26.1640   46.1640 N   0  0  0  0  0  0  0  0  0  0  0  0
   54.4940   25.5390   45.6210 N   0  0  0  0  0  0  0  0  0  0  0  0
   54.6710   24.2200   45.8290 C   0  0  0  0  0  0  0  0  0  0  0  0
   55.8050   23.9860   46.5110 N   0  0  0  0  0  0  0  0  0  0  0  0
   56.3880   22.6950   46.8540 C   0  0  0  0  0  0  0  0  0  0  0  0
   56.9330   28.9840   42.9900 C   0  0  0  0  0  0  0  0  0  0  0  0
   56.5410   30.2400   43.4590 C   0  0  0  0  0  0  0  0  0  0  0  0
   57.2834   33.1607   47.3869 H   0  0  0  0  0  0  0  0  0  0  0  0
   58.6669   32.2397   46.7055 H   0  0  0  0  0  0  0  0  0  0  0  0
   58.6965   34.0357   46.7055 H   0  0  0  0  0  0  0  0  0  0  0  0
   56.7615   34.0586   45.1265 H   0  0  0  0  0  0  0  0  0  0  0  0
   59.4487   33.2076   44.5789 H   0  0  0  0  0  0  0  0  0  0  0  0
   58.3482   32.2833   43.5014 H   0  0  0  0  0  0  0  0  0  0  0  0
   58.3059   34.0791   43.5014 H   0  0  0  0  0  0  0  0  0  0  0  0
   58.2891   30.3043   46.3970 H   0  0  0  0  0  0  0  0  0  0  0  0
   58.9911   28.0630   45.5616 H   0  0  0  0  0  0  0  0  0  0  0  0
   57.9830   26.7164   42.2019 H   0  0  0  0  0  0  0  0  0  0  0  0
   59.2515   26.6342   43.4789 H   0  0  0  0  0  0  0  0  0  0  0  0
   56.7110   26.2970   44.6180 H   0  0  0  0  0  0  0  0  0  0  0  0
   57.6350   24.1329   45.2794 H   0  0  0  0  0  0  0  0  0  0  0  0
   59.0569   24.5185   44.2544 H   0  0  0  0  0  0  0  0  0  0  0  0
   59.8699   25.4895   46.1573 H   0  0  0  0  0  0  0  0  0  0  0  0
   58.7743   26.8508   45.6960 H   0  0  0  0  0  0  0  0  0  0  0  0
   53.9784   23.4374   45.4858 H   0  0  0  0  0  0  0  0  0  0  0  0
   56.4342   22.5927   47.9483 H   0  0  0  0  0  0  0  0  0  0  0  0
   55.7663   21.8893   46.4363 H   0  0  0  0  0  0  0  0  0  0  0  0
   57.4034   22.6286   46.4363 H   0  0  0  0  0  0  0  0  0  0  0  0
   56.5530   28.6160   42.0256 H   0  0  0  0  0  0  0  0  0  0  0  0
   55.8553   30.8554   42.8580 H   0  0  0  0  0  0  0  0  0  0  0  0
  1  2  1  0
  2  3  1  0
  2  4  1  0
  4  5  1  0
  5  6  2  0
  6  7  1  0
  7  8  2  0
  8  9  1  0
  9 10  1  0
 10 11  1  0
 11 12  1  0
 12 13  1  0
 13 14  1  0
 14 15  2  0
 15 16  1  0
 16 17  2  0
 17 18  1  0
 18 19  1  0
  8 20  1  0
 20 21  2  0
 21  5  1  0
 18 14  1  0
  1 22  1  0
  1 23  1  0
  1 24  1  0
  2 25  1  0
  3 26  1  0
  3 27  1  0
  3 28  1  0
  6 29  1  0
  7 30  1  0
  9 31  1  0
  9 32  1  0
 10 33  1  0
 11 34  1  0
 11 35  1  0
 12 36  1  0
 12 37  1  0
 17 38  1  0
 19 39  1  0
 19 40  1  0
 19 41  1  0
 20 42  1  0
 21 43  1  0
M  END
>  <UniqueID>  (23) 
23

>  <SMILES>  (23) 
CC(C)Oc1ccc(CNCCSc2nncn2C)cc1

>  <Energy>  (23) 
63.901360215446466

>  <Genealogy>  (23) 
CC(C)Oc1ccc(CNCCSc2nncn2C)cc1 (3D coordinates assigned)
CC(C)Oc1ccc(CNCCSc2nncn2C)cc1 (optimized conformer: 63.901360215446466 kcal/mol)

>  <smiles>  (23) 
CC(C)Oc1ccc(CNCCSc2nncn2C)cc1

>  <score_type>  (23) 
oracle

>  <origin>  (23) 
adg

>  <m_score__min__energy>  (23) 
-7.0300000000000002

>  <m_primary>  (23) 
energy

$$$$
