0:0
     RDKit          3D

 71 74  0  0  0  0  0  0  0  0999 V2000
   58.8200   34.5360   45.0560 C   0  0  0  0  0  0  0  0  0  0  0  0
   58.8260   34.4580   46.5790 C   0  0  0  0  0  0  0  0  0  0  0  0
   60.0200   35.0180   47.0960 O   0  0  0  0  0  0  0  0  0  0  0  0
   60.2260   34.6050   48.4340 C   0  0  0  0  0  0  0  0  0  0  0  0
   61.4910   33.7770   48.5620 C   0  0  0  0  0  0  0  0  0  0  0  0
   62.2160   33.4090   47.4090 C   0  0  0  0  0  0  0  0  0  0  0  0
   63.3830   32.6470   47.5100 C   0  0  0  0  0  0  0  0  0  0  0  0
   64.0590   32.2920   46.3890 F   0  0  0  0  0  0  0  0  0  0  0  0
   63.8530   32.2520   48.7590 C   0  0  0  0  0  0  0  0  0  0  0  0
   63.1730   32.6350   49.9160 C   0  0  0  0  0  0  0  0  0  0  0  0
   62.0060   33.4160   49.8380 C   0  0  0  0  0  0  0  0  0  0  0  0
   61.3340   33.8210   51.1330 C   0  0  0  0  0  0  0  0  0  0  0  0
   59.8840   33.3260   51.1810 C   0  0  0  0  0  0  0  0  0  0  0  0
   59.8300   31.9140   50.9660 O   0  0  0  0  0  0  0  0  0  0  0  0
   59.5170   31.2890   49.7470 C   0  0  0  0  0  0  0  0  0  0  0  0
   58.7840   31.9370   48.7210 C   0  0  0  0  0  0  0  0  0  0  0  0
   58.5130   31.2770   47.5110 C   0  0  0  0  0  0  0  0  0  0  0  0
   58.9770   29.9680   47.3430 C   0  0  0  0  0  0  0  0  0  0  0  0
   59.6700   29.3340   48.3420 C   0  0  0  0  0  0  0  0  0  0  0  0
   59.9500   29.9670   49.5520 C   0  0  0  0  0  0  0  0  0  0  0  0
   60.0570   27.9650   47.9200 C   0  0  0  0  0  0  0  0  0  0  0  0
   59.4500   27.8930   46.5380 C   0  0  0  0  0  0  0  0  0  0  0  0
   59.6860   26.7040   45.6350 C   0  0  0  0  0  0  0  0  0  0  0  0
   58.6450   25.5830   45.8110 C   0  0  0  0  0  0  0  0  0  0  0  0
   57.2780   25.9020   45.1830 C   0  0  0  0  0  0  0  0  0  0  0  0
   56.1740   25.9050   46.1950 C   0  0  0  0  0  0  0  0  0  0  0  0
   56.2710   25.2100   47.2410 O   0  0  0  0  0  0  0  0  0  0  0  0
   55.0400   26.6820   45.9950 O   0  0  0  0  0  0  0  0  0  0  0  0
   58.8630   29.0640   46.1980 C   0  0  0  0  0  0  0  0  0  0  0  0
   58.2360   29.4520   44.8660 C   0  0  0  0  0  0  0  0  0  0  0  0
   56.7420   29.0360   44.7610 C   0  0  0  0  0  0  0  0  0  0  0  0
   55.8880   30.0490   43.9790 C   0  0  0  0  0  0  0  0  0  0  0  0
   56.6420   30.5630   42.7480 C   0  0  0  0  0  0  0  0  0  0  0  0
   57.9570   31.2860   43.1160 C   0  0  0  0  0  0  0  0  0  0  0  0
   58.4850   30.9350   44.5210 C   0  0  0  0  0  0  0  0  0  0  0  0
   58.7391   35.5874   44.7430 H   0  0  0  0  0  0  0  0  0  0  0  0
   59.7538   34.1073   44.6632 H   0  0  0  0  0  0  0  0  0  0  0  0
   57.9628   33.9695   44.6632 H   0  0  0  0  0  0  0  0  0  0  0  0
   57.9635   35.0147   46.9741 H   0  0  0  0  0  0  0  0  0  0  0  0
   58.7652   33.4026   46.8831 H   0  0  0  0  0  0  0  0  0  0  0  0
   60.3126   35.4946   49.0752 H   0  0  0  0  0  0  0  0  0  0  0  0
   59.3709   33.9864   48.7441 H   0  0  0  0  0  0  0  0  0  0  0  0
   61.8582   33.7258   46.4182 H   0  0  0  0  0  0  0  0  0  0  0  0
   64.7619   31.6370   48.8344 H   0  0  0  0  0  0  0  0  0  0  0  0
   63.5539   32.3226   50.8995 H   0  0  0  0  0  0  0  0  0  0  0  0
   61.8899   33.3870   51.9772 H   0  0  0  0  0  0  0  0  0  0  0  0
   61.3304   34.9192   51.1960 H   0  0  0  0  0  0  0  0  0  0  0  0
   59.4544   33.5589   52.1665 H   0  0  0  0  0  0  0  0  0  0  0  0
   59.3099   33.8288   50.3888 H   0  0  0  0  0  0  0  0  0  0  0  0
   58.4245   32.9653   48.8738 H   0  0  0  0  0  0  0  0  0  0  0  0
   57.9476   31.7791   46.7121 H   0  0  0  0  0  0  0  0  0  0  0  0
   60.5023   29.4386   50.3431 H   0  0  0  0  0  0  0  0  0  0  0  0
   61.1503   27.8492   47.8852 H   0  0  0  0  0  0  0  0  0  0  0  0
   59.7155   27.1721   48.6017 H   0  0  0  0  0  0  0  0  0  0  0  0
   59.6540   27.0481   44.5907 H   0  0  0  0  0  0  0  0  0  0  0  0
   60.6651   26.2817   45.9052 H   0  0  0  0  0  0  0  0  0  0  0  0
   59.0373   24.6685   45.3421 H   0  0  0  0  0  0  0  0  0  0  0  0
   58.4813   25.4644   46.8923 H   0  0  0  0  0  0  0  0  0  0  0  0
   57.3283   26.8946   44.7116 H   0  0  0  0  0  0  0  0  0  0  0  0
   57.0556   25.1173   44.4449 H   0  0  0  0  0  0  0  0  0  0  0  0
   58.7521   28.8683   44.0895 H   0  0  0  0  0  0  0  0  0  0  0  0
   56.6844   28.0625   44.2520 H   0  0  0  0  0  0  0  0  0  0  0  0
   56.3413   28.9894   45.7844 H   0  0  0  0  0  0  0  0  0  0  0  0
   54.9575   29.5608   43.6538 H   0  0  0  0  0  0  0  0  0  0  0  0
   55.6641   30.9022   44.6362 H   0  0  0  0  0  0  0  0  0  0  0  0
   56.8800   29.7080   42.0981 H   0  0  0  0  0  0  0  0  0  0  0  0
   55.9927   31.2907   42.2393 H   0  0  0  0  0  0  0  0  0  0  0  0
   58.7239   31.0091   42.3776 H   0  0  0  0  0  0  0  0  0  0  0  0
   57.7422   32.3648   43.1136 H   0  0  0  0  0  0  0  0  0  0  0  0
   59.5664   31.1331   44.5559 H   0  0  0  0  0  0  0  0  0  0  0  0
   57.9488   31.5542   45.2552 H   0  0  0  0  0  0  0  0  0  0  0  0
  1  2  1  0
  2  3  1  0
  3  4  1  0
  4  5  1  0
  5  6  2  0
  6  7  1  0
  7  8  1  0
  7  9  2  0
  9 10  1  0
 10 11  2  0
 11 12  1  0
 12 13  1  0
 13 14  1  0
 14 15  1  0
 15 16  2  0
 16 17  1  0
 17 18  2  0
 18 19  1  0
 19 20  2  0
 19 21  1  0
 21 22  1  0
 22 23  1  0
 23 24  1  0
 24 25  1  0
 25 26  1  0
 26 27  2  0
 26 28  1  0
 22 29  2  0
 29 30  1  0
 30 31  1  0
 31 32  1  0
 32 33  1  0
 33 34  1  0
 34 35  1  0
 11  5  1  0
 20 15  1  0
 35 30  1  0
 29 18  1  0
  1 36  1  0
  1 37  1  0
  1 38  1  0
  2 39  1  0
  2 40  1  0
  4 41  1  0
  4 42  1  0
  6 43  1  0
  9 44  1  0
 10 45  1  0
 12 46  1  0
 12 47  1  0
 13 48  1  0
 13 49  1  0
 16 50  1  0
 17 51  1  0
 20 52  1  0
 21 53  1  0
 21 54  1  0
 23 55  1  0
 23 56  1  0
 24 57  1  0
 24 58  1  0
 25 59  1  0
 25 60  1  0
 30 61  1  0
 31 62  1  0
 31 63  1  0
 32 64  1  0
 32 65  1  0
 33 66  1  0
 33 67  1  0
 34 68  1  0
 34 69  1  0
 35 70  1  0
 35 71  1  0
M  CHG  1  28  -1
M  END
>  <UniqueID>  (1) 
1

>  <SMILES>  (1) 
CCOCc1cc(F)ccc1CCOc1ccc2c(c1)CC(CCCC(=O)[O-])=C2C1CCCCC1

>  <Energy>  (1) 
92.25151026713412

>  <Genealogy>  (1) 
CCOCc1cc(F)ccc1CCOc1ccc2c(c1)CC(CCCC(=O)[O-])=C2C1CCCCC1 (protonated)
CCOCc1cc(F)ccc1CCOc1ccc2c(c1)CC(CCCC(=O)[O-])=C2C1CCCCC1 (3D coordinates assigned)
CCOCc1cc(F)ccc1CCOc1ccc2c(c1)CC(CCCC(=O)[O-])=C2C1CCCCC1 (nonaromatic ring conformer: 92.25151026713412 kcal/mol)

>  <smiles>  (1) 
CCOCc1cc(F)ccc1CCOc1ccc2c(c1)CC(CCCC(=O)O)=C2C1CCCCC1

>  <score_type>  (1) 
oracle

>  <origin>  (1) 
adg

>  <m_score__min__energy>  (1) 
-12.869999999999999

>  <m_primary>  (1) 
energy

$$$$
1:0
     RDKit          3D

 47 48  0  0  0  0  0  0  0  0999 V2000
   58.4570   32.3030   49.0360 C   0  0  0  0  0  0  0  0  0  0  0  0
   59.9770   32.4930   48.9830 C   0  0  0  0  0  0  0  0  0  0  0  0
   60.3930   33.4260   47.8920 N   0  0  0  0  0  0  0  0  0  0  0  0
   61.8130   33.8460   48.0070 C   0  0  0  0  0  0  0  0  0  0  0  0
   62.6450   33.4580   46.7810 C   0  0  0  0  0  0  0  0  0  0  0  0
   59.4930   34.6060   47.8070 C   0  0  0  0  0  0  0  0  0  0  0  0
   59.6520   35.4390   46.5080 C   0  0  0  0  0  0  0  0  0  0  0  0
   59.4650   34.5910   45.2420 C   0  0  0  0  0  0  0  0  0  0  0  0
   58.6780   33.3880   45.5480 N   0  0  0  0  0  0  0  0  0  0  0  0
   58.1050   32.7980   44.3310 C   0  0  0  0  0  0  0  0  0  0  0  0
   57.7700   31.3520   44.5800 C   0  0  0  0  0  0  0  0  0  0  0  0
   56.6210   30.7890   43.9980 C   0  0  0  0  0  0  0  0  0  0  0  0
   56.2860   29.4530   44.2400 C   0  0  0  0  0  0  0  0  0  0  0  0
   57.0800   28.6710   45.0840 C   0  0  0  0  0  0  0  0  0  0  0  0
   58.2060   29.2310   45.6950 C   0  0  0  0  0  0  0  0  0  0  0  0
   58.5640   30.5620   45.4330 C   0  0  0  0  0  0  0  0  0  0  0  0
   59.7170   31.0780   46.0360 O   0  0  0  0  0  0  0  0  0  0  0  0
   60.6720   30.2210   46.6650 C   0  0  0  0  0  0  0  0  0  0  0  0
   59.9570   29.0960   47.4210 C   0  0  0  0  0  0  0  0  0  0  0  0
   58.9850   28.4750   46.5770 O   0  0  0  0  0  0  0  0  0  0  0  0
   58.1290   32.2620   50.0851 H   0  0  0  0  0  0  0  0  0  0  0  0
   57.9642   33.1465   48.5304 H   0  0  0  0  0  0  0  0  0  0  0  0
   58.1870   31.3641   48.5304 H   0  0  0  0  0  0  0  0  0  0  0  0
   60.3165   32.9011   49.9464 H   0  0  0  0  0  0  0  0  0  0  0  0
   60.4324   31.5125   48.7799 H   0  0  0  0  0  0  0  0  0  0  0  0
   60.2920   32.9430   46.9660 H   0  0  0  0  0  0  0  0  0  0  0  0
   61.8483   34.9391   48.1247 H   0  0  0  0  0  0  0  0  0  0  0  0
   62.2430   33.3292   48.8776 H   0  0  0  0  0  0  0  0  0  0  0  0
   63.5965   33.0143   47.1091 H   0  0  0  0  0  0  0  0  0  0  0  0
   62.0884   32.7266   46.1767 H   0  0  0  0  0  0  0  0  0  0  0  0
   62.8476   34.3545   46.1767 H   0  0  0  0  0  0  0  0  0  0  0  0
   58.4534   34.2509   47.8633 H   0  0  0  0  0  0  0  0  0  0  0  0
   59.7644   35.2694   48.6414 H   0  0  0  0  0  0  0  0  0  0  0  0
   58.9004   36.2422   46.5093 H   0  0  0  0  0  0  0  0  0  0  0  0
   60.6747   35.8437   46.4924 H   0  0  0  0  0  0  0  0  0  0  0  0
   58.9385   35.1857   44.4809 H   0  0  0  0  0  0  0  0  0  0  0  0
   60.4526   34.2872   44.8646 H   0  0  0  0  0  0  0  0  0  0  0  0
   59.3260   32.6790   45.9670 H   0  0  0  0  0  0  0  0  0  0  0  0
   57.1903   33.3434   44.0555 H   0  0  0  0  0  0  0  0  0  0  0  0
   58.8362   32.8677   43.5122 H   0  0  0  0  0  0  0  0  0  0  0  0
   55.9810   31.4035   43.3478 H   0  0  0  0  0  0  0  0  0  0  0  0
   55.3952   29.0162   43.7649 H   0  0  0  0  0  0  0  0  0  0  0  0
   56.8196   27.6180   45.2669 H   0  0  0  0  0  0  0  0  0  0  0  0
   61.3281   29.7835   45.8981 H   0  0  0  0  0  0  0  0  0  0  0  0
   61.2679   30.8100   47.3778 H   0  0  0  0  0  0  0  0  0  0  0  0
   60.6954   28.3451   47.7386 H   0  0  0  0  0  0  0  0  0  0  0  0
   59.4505   29.5198   48.3007 H   0  0  0  0  0  0  0  0  0  0  0  0
  1  2  1  0
  2  3  1  0
  3  4  1  0
  4  5  1  0
  3  6  1  0
  6  7  1  0
  7  8  1  0
  8  9  1  0
  9 10  1  0
 10 11  1  0
 11 12  2  0
 12 13  1  0
 13 14  2  0
 14 15  1  0
 15 16  2  0
 16 17  1  0
 17 18  1  0
 18 19  1  0
 19 20  1  0
 16 11  1  0
 20 15  1  0
  1 21  1  0
  1 22  1  0
  1 23  1  0
  2 24  1  0
  2 25  1  0
  3 26  1  0
  4 27  1  0
  4 28  1  0
  5 29  1  0
  5 30  1  0
  5 31  1  0
  6 32  1  0
  6 33  1  0
  7 34  1  0
  7 35  1  0
  8 36  1  0
  8 37  1  0
  9 38  1  0
 10 39  1  0
 10 40  1  0
 12 41  1  0
 13 42  1  0
 14 43  1  0
 18 44  1  0
 18 45  1  0
 19 46  1  0
 19 47  1  0
M  CHG  1   3   1
M  END
>  <UniqueID>  (2) 
2

>  <SMILES>  (2) 
CC[NH+](CC)CCCNCc1cccc2c1OCCO2

>  <Energy>  (2) 
48.782309363418406

>  <Genealogy>  (2) 
CC[NH+](CC)CCCNCc1cccc2c1OCCO2 (protonated)
CC[NH+](CC)CCCNCc1cccc2c1OCCO2 (3D coordinates assigned)
CC[NH+](CC)CCCNCc1cccc2c1OCCO2 (nonaromatic ring conformer: 48.782309363418406 kcal/mol)

>  <smiles>  (2) 
CCN(CC)CCCNCc1cccc2c1OCCO2

>  <score_type>  (2) 
oracle

>  <origin>  (2) 
adg

>  <m_score__min__energy>  (2) 
-3.6299999999999999

>  <m_primary>  (2) 
energy

$$$$
2:0
     RDKit          3D

 29 31  0  0  0  0  0  0  0  0999 V2000
   56.2670   29.3350   42.4710 C   0  0  0  0  0  0  0  0  0  0  0  0
   56.7840   30.2060   43.5650 C   0  0  0  0  0  0  0  0  0  0  0  0
   56.4140   30.0820   44.8530 N   0  0  0  0  0  0  0  0  0  0  0  0
   57.0250   31.0490   45.4670 O   0  0  0  0  0  0  0  0  0  0  0  0
   57.7330   31.7400   44.6090 C   0  0  0  0  0  0  0  0  0  0  0  0
   58.5410   32.9570   44.9810 C   0  0  1  0  0  0  0  0  0  0  0  0
   57.6830   34.0920   45.6200 C   0  0  0  0  0  0  0  0  0  0  0  0
   58.2560   34.5270   46.9180 N   0  0  0  0  0  0  0  0  0  0  0  0
   59.6470   35.0030   46.7120 C   0  0  0  0  0  0  0  0  0  0  0  0
   60.5480   33.8780   46.1360 C   0  0  0  0  0  0  0  0  0  0  0  0
   59.7030   32.6030   45.9420 C   0  0  0  0  0  0  0  0  0  0  0  0
   59.1340   32.2180   47.3240 C   0  0  0  0  0  0  0  0  0  0  0  0
   58.2590   33.3800   47.8580 C   0  0  0  0  0  0  0  0  0  0  0  0
   57.6080   31.2530   43.3580 N   0  0  0  0  0  0  0  0  0  0  0  0
   55.7514   28.4664   42.9065 H   0  0  0  0  0  0  0  0  0  0  0  0
   55.5617   29.9064   41.8497 H   0  0  0  0  0  0  0  0  0  0  0  0
   57.1064   28.9896   41.8497 H   0  0  0  0  0  0  0  0  0  0  0  0
   58.9487   33.3310   44.0303 H   0  0  0  0  0  0  0  0  0  0  0  0
   57.6547   34.9511   44.9336 H   0  0  0  0  0  0  0  0  0  0  0  0
   56.6683   33.7060   45.7973 H   0  0  0  0  0  0  0  0  0  0  0  0
   59.6360   35.8487   46.0087 H   0  0  0  0  0  0  0  0  0  0  0  0
   60.0562   35.3118   47.6852 H   0  0  0  0  0  0  0  0  0  0  0  0
   60.9611   34.1967   45.1676 H   0  0  0  0  0  0  0  0  0  0  0  0
   61.3740   33.6722   46.8327 H   0  0  0  0  0  0  0  0  0  0  0  0
   60.2921   31.7712   45.5284 H   0  0  0  0  0  0  0  0  0  0  0  0
   58.5209   31.3097   47.2291 H   0  0  0  0  0  0  0  0  0  0  0  0
   59.9612   32.0274   48.0236 H   0  0  0  0  0  0  0  0  0  0  0  0
   57.2275   33.0211   47.9890 H   0  0  0  0  0  0  0  0  0  0  0  0
   58.6777   33.7179   48.8174 H   0  0  0  0  0  0  0  0  0  0  0  0
  1  2  1  0
  2  3  2  0
  3  4  1  0
  4  5  1  0
  5  6  1  0
  6  7  1  0
  7  8  1  0
  8  9  1  0
  9 10  1  0
 10 11  1  0
 11 12  1  0
 12 13  1  0
  5 14  2  0
 14  2  1  0
 11  6  1  0
 13  8  1  0
  1 15  1  0
  1 16  1  0
  1 17  1  0
  6 18  1  6
  7 19  1  0
  7 20  1  0
  9 21  1  0
  9 22  1  0
 10 23  1  0
 10 24  1  0
 11 25  1  0
 12 26  1  0
 12 27  1  0
 13 28  1  0
 13 29  1  0
M  END
>  <UniqueID>  (3) 
3

>  <SMILES>  (3) 
Cc1noc([C@H]2CN3CCC2CC3)n1

>  <Energy>  (3) 
75.1685731612049

>  <Genealogy>  (3) 
Cc1noc([C@H]2CN3CCC2CC3)n1 (chirality)
Cc1noc([C@H]2CN3CCC2CC3)n1 (3D coordinates assigned)
Cc1noc([C@H]2CN3CCC2CC3)n1 (nonaromatic ring conformer: 75.1685731612049 kcal/mol)

>  <smiles>  (3) 
Cc1noc(C2CN3CCC2CC3)n1

>  <score_type>  (3) 
oracle

>  <origin>  (3) 
adg

>  <m_score__min__energy>  (3) 
-6.4900000000000002

>  <m_primary>  (3) 
energy

$$$$
3:0
     RDKit          3D

 44 46  0  0  0  0  0  0  0  0999 V2000
   63.6850   33.3400   46.7430 C   0  0  0  0  0  0  0  0  0  0  0  0
   63.2850   32.6900   48.0760 C   0  0  0  0  0  0  0  0  0  0  0  0
   61.8550   32.8550   48.4420 N   0  0  0  0  0  0  0  0  0  0  0  0
   61.5820   34.1940   48.9910 C   0  0  0  0  0  0  0  0  0  0  0  0
   61.3190   31.8080   49.3400 C   0  0  0  0  0  0  0  0  0  0  0  0
   60.4680   30.7740   48.5760 C   0  0  0  0  0  0  0  0  0  0  0  0
   60.9280   30.5890   47.1880 N   0  0  0  0  0  0  0  0  0  0  0  0
   59.8270   30.6340   46.2460 C   0  0  0  0  0  0  0  0  0  0  0  0
   59.1330   31.8320   45.9100 C   0  0  0  0  0  0  0  0  0  0  0  0
   59.4630   33.0670   46.5110 C   0  0  0  0  0  0  0  0  0  0  0  0
   58.7800   34.2330   46.1700 C   0  0  0  0  0  0  0  0  0  0  0  0
   57.7580   34.1980   45.2300 C   0  0  0  0  0  0  0  0  0  0  0  0
   57.4040   32.9970   44.6190 C   0  0  0  0  0  0  0  0  0  0  0  0
   58.0710   31.7900   44.9370 C   0  0  0  0  0  0  0  0  0  0  0  0
   57.7200   30.5920   44.3290 N   0  0  0  0  0  0  0  0  0  0  0  0
   56.6340   30.5310   43.3330 C   0  0  0  0  0  0  0  0  0  0  0  0
   58.4150   29.4660   44.6760 C   0  0  0  0  0  0  0  0  0  0  0  0
   58.2960   28.1610   44.2280 C   0  0  0  0  0  0  0  0  0  0  0  0
   59.2680   27.4580   44.9270 C   0  0  0  0  0  0  0  0  0  0  0  0
   59.9250   28.2670   45.7340 O   0  0  0  0  0  0  0  0  0  0  0  0
   59.4260   29.4710   45.5940 C   0  0  0  0  0  0  0  0  0  0  0  0
   64.2522   34.2617   46.9401 H   0  0  0  0  0  0  0  0  0  0  0  0
   64.3096   32.6412   46.1671 H   0  0  0  0  0  0  0  0  0  0  0  0
   62.7797   33.5826   46.1671 H   0  0  0  0  0  0  0  0  0  0  0  0
   63.4999   31.6132   48.0103 H   0  0  0  0  0  0  0  0  0  0  0  0
   63.8669   33.2003   48.8577 H   0  0  0  0  0  0  0  0  0  0  0  0
   61.5913   34.1486   50.0900 H   0  0  0  0  0  0  0  0  0  0  0  0
   62.3555   34.8962   48.6465 H   0  0  0  0  0  0  0  0  0  0  0  0
   60.5954   34.5374   48.6465 H   0  0  0  0  0  0  0  0  0  0  0  0
   62.1602   31.2890   49.8226 H   0  0  0  0  0  0  0  0  0  0  0  0
   60.6735   32.2963   50.0849 H   0  0  0  0  0  0  0  0  0  0  0  0
   60.5283   29.8090   49.1005 H   0  0  0  0  0  0  0  0  0  0  0  0
   59.4340   31.1478   48.5415 H   0  0  0  0  0  0  0  0  0  0  0  0
   61.4340   29.6790   47.1020 H   0  0  0  0  0  0  0  0  0  0  0  0
   61.6400   31.3220   46.9570 H   0  0  0  0  0  0  0  0  0  0  0  0
   60.2695   33.1090   47.2578 H   0  0  0  0  0  0  0  0  0  0  0  0
   59.0517   35.1859   46.6477 H   0  0  0  0  0  0  0  0  0  0  0  0
   57.2252   35.1236   44.9665 H   0  0  0  0  0  0  0  0  0  0  0  0
   56.5922   32.9867   43.8768 H   0  0  0  0  0  0  0  0  0  0  0  0
   55.6647   30.4766   43.8503 H   0  0  0  0  0  0  0  0  0  0  0  0
   56.6633   31.4322   42.7029 H   0  0  0  0  0  0  0  0  0  0  0  0
   56.7640   29.6387   42.7029 H   0  0  0  0  0  0  0  0  0  0  0  0
   57.5881   27.7684   43.4832 H   0  0  0  0  0  0  0  0  0  0  0  0
   59.4620   26.3803   44.8223 H   0  0  0  0  0  0  0  0  0  0  0  0
  1  2  1  0
  2  3  1  0
  3  4  1  0
  3  5  1  0
  5  6  1  0
  6  7  1  0
  7  8  1  0
  8  9  2  0
  9 10  1  0
 10 11  2  0
 11 12  1  0
 12 13  2  0
 13 14  1  0
 14 15  2  0
 15 16  1  0
 15 17  1  0
 17 18  1  0
 18 19  2  0
 19 20  1  0
 20 21  1  0
 21  8  1  0
 14  9  1  0
 21 17  2  0
  1 22  1  0
  1 23  1  0
  1 24  1  0
  2 25  1  0
  2 26  1  0
  4 27  1  0
  4 28  1  0
  4 29  1  0
  5 30  1  0
  5 31  1  0
  6 32  1  0
  6 33  1  0
  7 34  1  0
  7 35  1  0
 10 36  1  0
 11 37  1  0
 12 38  1  0
 13 39  1  0
 16 40  1  0
 16 41  1  0
 16 42  1  0
 18 43  1  0
 19 44  1  0
M  CHG  2   7   1  15   1
M  END
>  <UniqueID>  (4) 
4

>  <SMILES>  (4) 
CCN(C)CC[NH2+]c1c2ccccc2[n+](C)c2ccoc12

>  <Energy>  (4) 
93.35887990581436

>  <Genealogy>  (4) 
CCN(C)CC[NH2+]c1c2ccccc2[n+](C)c2ccoc12 (protonated)
CCN(C)CC[NH2+]c1c2ccccc2[n+](C)c2ccoc12 (3D coordinates assigned)
CCN(C)CC[NH2+]c1c2ccccc2[n+](C)c2ccoc12 (optimized conformer: 93.35887990581436 kcal/mol)

>  <smiles>  (4) 
CCN(C)CCNc1c2ccccc2[n+](C)c2ccoc12

>  <score_type>  (4) 
oracle

>  <origin>  (4) 
adg

>  <m_score__min__energy>  (4) 
-3.1099999999999999

>  <m_primary>  (4) 
energy

$$$$
4:0
     RDKit          3D

 54 56  0  0  0  0  0  0  0  0999 V2000
   57.6543   33.7718   43.2858 H   0  0  0  0  0  0  0  0  0  0  0  0
   57.8630   32.9530   43.9900 C   0  0  0  0  0  0  0  0  0  0  0  0
   57.6760   31.7000   43.5510 C   0  0  0  0  0  0  0  0  0  0  0  0
   58.4495   31.2733   42.8955 H   0  0  0  0  0  0  0  0  0  0  0  0
   56.4880   30.8260   43.8840 C   0  0  0  0  0  0  0  0  0  0  0  0
   56.4024   30.0370   43.1223 H   0  0  0  0  0  0  0  0  0  0  0  0
   55.5906   31.4620   43.8990 H   0  0  0  0  0  0  0  0  0  0  0  0
   56.6230   30.1970   45.2070 N   0  0  0  0  0  0  0  0  0  0  0  0
   55.6720   30.0630   45.6250 H   0  0  0  0  0  0  0  0  0  0  0  0
   57.2910   28.8920   45.1290 C   0  0  0  0  0  0  0  0  0  0  0  0
   57.2640   28.5302   44.0906 H   0  0  0  0  0  0  0  0  0  0  0  0
   56.7701   28.1794   45.7854 H   0  0  0  0  0  0  0  0  0  0  0  0
   58.7410   29.0220   45.5810 C   0  0  0  0  0  0  0  0  0  0  0  0
   58.7835   29.0258   46.6802 H   0  0  0  0  0  0  0  0  0  0  0  0
   59.3231   28.1724   45.1945 H   0  0  0  0  0  0  0  0  0  0  0  0
   59.1627   29.9616   45.1945 H   0  0  0  0  0  0  0  0  0  0  0  0
   58.3270   33.3230   45.3440 C   0  0  0  0  0  0  0  0  0  0  0  0
   57.7500   32.6990   46.4580 C   0  0  0  0  0  0  0  0  0  0  0  0
   56.9411   31.9671   46.3161 H   0  0  0  0  0  0  0  0  0  0  0  0
   58.1950   33.0000   47.7480 C   0  0  0  0  0  0  0  0  0  0  0  0
   57.7225   32.5180   48.6166 H   0  0  0  0  0  0  0  0  0  0  0  0
   59.2460   33.9180   47.9410 C   0  0  0  0  0  0  0  0  0  0  0  0
   59.7310   34.2630   49.2140 O   0  0  0  0  0  0  0  0  0  0  0  0
   59.3570   33.6380   50.4420 C   0  0  0  0  0  0  0  0  0  0  0  0
   58.5603   34.2272   50.9197 H   0  0  0  0  0  0  0  0  0  0  0  0
   59.0004   32.6197   50.2278 H   0  0  0  0  0  0  0  0  0  0  0  0
   60.5600   33.5520   51.3920 C   0  0  0  0  0  0  0  0  0  0  0  0
   60.9169   34.5715   51.6000 H   0  0  0  0  0  0  0  0  0  0  0  0
   60.2231   33.0423   52.3067 H   0  0  0  0  0  0  0  0  0  0  0  0
   61.7280   32.7310   50.8070 C   0  0  0  0  0  0  0  0  0  0  0  0
   62.6421   32.9710   51.3698 H   0  0  0  0  0  0  0  0  0  0  0  0
   61.4604   31.6677   50.8948 H   0  0  0  0  0  0  0  0  0  0  0  0
   61.9690   33.0120   49.3710 N   0  0  1  0  0  0  0  0  0  0  0  0
   61.2710   33.7170   49.0400 H   0  0  0  0  0  0  0  0  0  0  0  0
   63.3460   33.5200   49.1380 C   0  0  2  0  0  0  0  0  0  0  0  0
   63.6571   34.1834   49.9585 H   0  0  0  0  0  0  0  0  0  0  0  0
   63.3990   34.1820   47.7450 C   0  0  0  0  0  0  0  0  0  0  0  0
   64.3423   34.7284   47.5980 H   0  0  0  0  0  0  0  0  0  0  0  0
   62.6097   34.9301   47.5797 H   0  0  0  0  0  0  0  0  0  0  0  0
   63.3060   32.9660   46.8080 C   0  0  0  0  0  0  0  0  0  0  0  0
   64.1820   32.9071   46.1453 H   0  0  0  0  0  0  0  0  0  0  0  0
   62.4366   32.9972   46.1348 H   0  0  0  0  0  0  0  0  0  0  0  0
   63.2750   31.7860   47.7940 C   0  0  1  0  0  0  0  0  0  0  0  0
   63.5035   30.8274   47.3053 H   0  0  0  0  0  0  0  0  0  0  0  0
   64.1760   32.2780   48.8940 C   0  0  0  0  0  0  0  0  0  0  0  0
   65.1990   32.4972   48.5543 H   0  0  0  0  0  0  0  0  0  0  0  0
   64.3856   31.6094   49.7420 H   0  0  0  0  0  0  0  0  0  0  0  0
   61.9200   31.7980   48.5190 C   0  0  0  0  0  0  0  0  0  0  0  0
   61.7999   30.8946   49.1350 H   0  0  0  0  0  0  0  0  0  0  0  0
   61.0704   31.8096   47.8204 H   0  0  0  0  0  0  0  0  0  0  0  0
   59.8360   34.5200   46.8250 C   0  0  0  0  0  0  0  0  0  0  0  0
   60.6575   35.2382   46.9641 H   0  0  0  0  0  0  0  0  0  0  0  0
   59.3920   34.2180   45.5350 C   0  0  0  0  0  0  0  0  0  0  0  0
   59.8789   34.6834   44.6653 H   0  0  0  0  0  0  0  0  0  0  0  0
  1  2  1  0
  2  3  2  0
  3  4  1  0
  3  5  1  0
  5  6  1  0
  5  7  1  0
  5  8  1  0
  8  9  1  0
  8 10  1  0
 10 11  1  0
 10 12  1  0
 10 13  1  0
 13 14  1  0
 13 15  1  0
 13 16  1  0
  2 17  1  0
 17 18  2  0
 18 19  1  0
 18 20  1  0
 20 21  1  0
 20 22  2  0
 22 23  1  0
 23 24  1  0
 24 25  1  0
 24 26  1  0
 24 27  1  0
 27 28  1  0
 27 29  1  0
 27 30  1  0
 30 31  1  0
 30 32  1  0
 30 33  1  0
 33 34  1  6
 33 35  1  0
 35 36  1  1
 35 37  1  0
 37 38  1  0
 37 39  1  0
 37 40  1  0
 40 41  1  0
 40 42  1  0
 40 43  1  0
 43 44  1  6
 43 45  1  0
 45 46  1  0
 45 47  1  0
 43 48  1  0
 48 49  1  0
 48 50  1  0
 22 51  1  0
 51 52  1  0
 51 53  2  0
 53 54  1  0
 53 17  1  0
 48 33  1  0
 45 35  1  0
M  CHG  1  33   1
M  END
>  <UniqueID>  (5) 
5

>  <SMILES>  (5) 
CCNC/C=C\c1ccc(OCCC[N@@H+]2C[C@H]3CCC2C3)cc1

>  <Energy>  (5) 
84.62469938210705

>  <Genealogy>  (5) 
CCNCC=Cc1ccc(OCCC[NH+]2CC3CCC2C3)cc1 (protonated)
CCNCC=Cc1ccc(OCCC[N@@H+]2C[C@H]3CCC2C3)cc1 (chirality)
CCNC/C=C\c1ccc(OCCC[N@@H+]2C[C@H]3CCC2C3)cc1 (cis-trans isomerization)
CCNC/C=C\c1ccc(OCCC[N@@H+]2C[C@H]3CCC2C3)cc1 (3D coordinates assigned)
CCNC/C=C\c1ccc(OCCC[N@@H+]2C[C@H]3CCC2C3)cc1 (nonaromatic ring conformer: 84.62469938210705 kcal/mol)

>  <smiles>  (5) 
CCNCC=Cc1ccc(OCCCN2CC3CCC2C3)cc1

>  <score_type>  (5) 
oracle

>  <origin>  (5) 
adg

>  <m_score__min__energy>  (5) 
-6.0199999999999996

>  <m_primary>  (5) 
energy

$$$$
5:0
     RDKit          3D

 70 72  0  0  0  0  0  0  0  0999 V2000
   62.6930   34.5930   50.3680 C   0  0  0  0  0  0  0  0  0  0  0  0
   62.0480   34.2220   49.0250 C   0  0  0  0  0  0  0  0  0  0  0  0
   62.3760   32.8560   48.5570 N   0  0  0  0  0  0  0  0  0  0  0  0
   62.6250   32.8110   47.1050 C   0  0  0  0  0  0  0  0  0  0  0  0
   63.4700   32.2300   49.3310 C   0  0  0  0  0  0  0  0  0  0  0  0
   62.9550   31.0020   50.0790 C   0  0  0  0  0  0  0  0  0  0  0  0
   61.5510   30.9310   49.9420 O   0  0  0  0  0  0  0  0  0  0  0  0
   61.1190   29.5840   49.9330 C   0  0  0  0  0  0  0  0  0  0  0  0
   60.4150   29.2690   48.6090 C   0  0  0  0  0  0  0  0  0  0  0  0
   60.7930   30.2430   47.5690 N   0  0  0  0  0  0  0  0  0  0  0  0
   59.6620   30.5680   46.7100 C   0  0  0  0  0  0  0  0  0  0  0  0
   59.0740   29.5780   45.8890 C   0  0  0  0  0  0  0  0  0  0  0  0
   59.1630   28.2050   46.2090 C   0  0  0  0  0  0  0  0  0  0  0  0
   58.5640   27.2440   45.3980 C   0  0  0  0  0  0  0  0  0  0  0  0
   57.8540   27.6300   44.2670 C   0  0  0  0  0  0  0  0  0  0  0  0
   57.7530   28.9790   43.9310 C   0  0  0  0  0  0  0  0  0  0  0  0
   58.3780   29.9780   44.7200 C   0  0  0  0  0  0  0  0  0  0  0  0
   58.3310   31.3120   44.3740 N   0  0  0  0  0  0  0  0  0  0  0  0
   57.9600   31.7070   42.9980 C   0  0  0  0  0  0  0  0  0  0  0  0
   58.6010   32.2740   45.3290 C   0  0  0  0  0  0  0  0  0  0  0  0
   58.2680   33.6340   45.1170 C   0  0  0  0  0  0  0  0  0  0  0  0
   58.4930   34.5880   46.0990 C   0  0  0  0  0  0  0  0  0  0  0  0
   58.9680   34.2120   47.3450 C   0  0  0  0  0  0  0  0  0  0  0  0
   59.2770   32.8690   47.6230 C   0  0  0  0  0  0  0  0  0  0  0  0
   59.4550   32.4560   48.9980 N   0  0  0  0  0  0  0  0  0  0  0  0
   58.4730   31.7000   49.7830 C   0  0  0  0  0  0  0  0  0  0  0  0
   58.6010   31.9920   51.2840 C   0  0  0  0  0  0  0  0  0  0  0  0
   59.6070   33.0450   51.5520 N   0  0  0  0  0  0  0  0  0  0  0  0
   58.9580   34.2080   52.1800 C   0  0  0  0  0  0  0  0  0  0  0  0
   60.6760   32.5440   52.4330 C   0  0  0  0  0  0  0  0  0  0  0  0
   59.1970   31.9040   46.5700 C   0  0  0  0  0  0  0  0  0  0  0  0
   62.0607   34.2293   51.1913 H   0  0  0  0  0  0  0  0  0  0  0  0
   63.6880   34.1292   50.4374 H   0  0  0  0  0  0  0  0  0  0  0  0
   62.7924   35.6863   50.4374 H   0  0  0  0  0  0  0  0  0  0  0  0
   60.9559   34.2979   49.1330 H   0  0  0  0  0  0  0  0  0  0  0  0
   62.4487   34.9203   48.2755 H   0  0  0  0  0  0  0  0  0  0  0  0
   63.6924   32.6181   46.9218 H   0  0  0  0  0  0  0  0  0  0  0  0
   62.0245   32.0068   46.6548 H   0  0  0  0  0  0  0  0  0  0  0  0
   62.3440   33.7745   46.6548 H   0  0  0  0  0  0  0  0  0  0  0  0
   64.2729   31.9257   48.6434 H   0  0  0  0  0  0  0  0  0  0  0  0
   63.8542   32.9582   50.0605 H   0  0  0  0  0  0  0  0  0  0  0  0
   63.4124   30.0951   49.6567 H   0  0  0  0  0  0  0  0  0  0  0  0
   63.2194   31.0796   51.1439 H   0  0  0  0  0  0  0  0  0  0  0  0
   61.9893   28.9214   50.0496 H   0  0  0  0  0  0  0  0  0  0  0  0
   60.4153   29.4246   50.7633 H   0  0  0  0  0  0  0  0  0  0  0  0
   60.7025   28.2598   48.2792 H   0  0  0  0  0  0  0  0  0  0  0  0
   59.3278   29.3259   48.7662 H   0  0  0  0  0  0  0  0  0  0  0  0
   61.5520   29.7780   47.0310 H   0  0  0  0  0  0  0  0  0  0  0  0
   61.1880   31.1130   47.9920 H   0  0  0  0  0  0  0  0  0  0  0  0
   59.7118   27.8911   47.1092 H   0  0  0  0  0  0  0  0  0  0  0  0
   58.6530   26.1777   45.6530 H   0  0  0  0  0  0  0  0  0  0  0  0
   57.3709   26.8694   43.6360 H   0  0  0  0  0  0  0  0  0  0  0  0
   57.1794   29.2734   43.0397 H   0  0  0  0  0  0  0  0  0  0  0  0
   57.2074   32.5083   43.0369 H   0  0  0  0  0  0  0  0  0  0  0  0
   58.8530   32.0681   42.4668 H   0  0  0  0  0  0  0  0  0  0  0  0
   57.5437   30.8384   42.4668 H   0  0  0  0  0  0  0  0  0  0  0  0
   57.8237   33.9390   44.1581 H   0  0  0  0  0  0  0  0  0  0  0  0
   58.2931   35.6487   45.8871 H   0  0  0  0  0  0  0  0  0  0  0  0
   59.1051   34.9738   48.1265 H   0  0  0  0  0  0  0  0  0  0  0  0
   60.3780   32.6300   49.4550 H   0  0  0  0  0  0  0  0  0  0  0  0
   57.4616   31.9770   49.4508 H   0  0  0  0  0  0  0  0  0  0  0  0
   58.6597   30.6275   49.6249 H   0  0  0  0  0  0  0  0  0  0  0  0
   57.6252   32.3252   51.6671 H   0  0  0  0  0  0  0  0  0  0  0  0
   58.9271   31.0696   51.7868 H   0  0  0  0  0  0  0  0  0  0  0  0
   59.0119   34.1114   53.2744 H   0  0  0  0  0  0  0  0  0  0  0  0
   59.4729   35.1284   51.8674 H   0  0  0  0  0  0  0  0  0  0  0  0
   57.9043   34.2531   51.8674 H   0  0  0  0  0  0  0  0  0  0  0  0
   60.3804   32.6825   53.4835 H   0  0  0  0  0  0  0  0  0  0  0  0
   60.8418   31.4744   52.2367 H   0  0  0  0  0  0  0  0  0  0  0  0
   61.6041   33.1009   52.2367 H   0  0  0  0  0  0  0  0  0  0  0  0
  1  2  1  0
  2  3  1  0
  3  4  1  0
  3  5  1  0
  5  6  1  0
  6  7  1  0
  7  8  1  0
  8  9  1  0
  9 10  1  0
 10 11  1  0
 11 12  2  0
 12 13  1  0
 13 14  2  0
 14 15  1  0
 15 16  2  0
 16 17  1  0
 17 18  2  0
 18 19  1  0
 18 20  1  0
 20 21  2  0
 21 22  1  0
 22 23  2  0
 23 24  1  0
 24 25  1  0
 25 26  1  0
 26 27  1  0
 27 28  1  0
 28 29  1  0
 28 30  1  0
 24 31  2  0
 31 11  1  0
 17 12  1  0
 31 20  1  0
  1 32  1  0
  1 33  1  0
  1 34  1  0
  2 35  1  0
  2 36  1  0
  4 37  1  0
  4 38  1  0
  4 39  1  0
  5 40  1  0
  5 41  1  0
  6 42  1  0
  6 43  1  0
  8 44  1  0
  8 45  1  0
  9 46  1  0
  9 47  1  0
 10 48  1  0
 10 49  1  0
 13 50  1  0
 14 51  1  0
 15 52  1  0
 16 53  1  0
 19 54  1  0
 19 55  1  0
 19 56  1  0
 21 57  1  0
 22 58  1  0
 23 59  1  0
 25 60  1  0
 26 61  1  0
 26 62  1  0
 27 63  1  0
 27 64  1  0
 29 65  1  0
 29 66  1  0
 29 67  1  0
 30 68  1  0
 30 69  1  0
 30 70  1  0
M  CHG  2  10   1  18   1
M  END
>  <UniqueID>  (6) 
6

>  <SMILES>  (6) 
CCN(C)CCOCC[NH2+]c1c2ccccc2[n+](C)c2cccc(NCCN(C)C)c12

>  <Energy>  (6) 
108.69526280367619

>  <Genealogy>  (6) 
CCN(C)CCOCC[NH2+]c1c2ccccc2[n+](C)c2cccc(NCCN(C)C)c12 (protonated)
CCN(C)CCOCC[NH2+]c1c2ccccc2[n+](C)c2cccc(NCCN(C)C)c12 (3D coordinates assigned)
CCN(C)CCOCC[NH2+]c1c2ccccc2[n+](C)c2cccc(NCCN(C)C)c12 (optimized conformer: 108.69526280367619 kcal/mol)

>  <smiles>  (6) 
CCN(C)CCOCCNc1c2ccccc2[n+](C)c2cccc(NCCN(C)C)c12

>  <score_type>  (6) 
oracle

>  <origin>  (6) 
adg

>  <m_score__min__energy>  (6) 
-4.1900000000000004

>  <m_primary>  (6) 
energy

$$$$
6:0
     RDKit          3D

 86 89  0  0  0  0  0  0  0  0999 V2000
   57.0340   21.2230   43.0770 C   0  0  0  0  0  0  0  0  0  0  0  0
   56.6280   22.6890   42.9950 C   0  0  0  0  0  0  0  0  0  0  0  0
   57.0950   23.4270   44.1910 N   0  0  0  0  0  0  0  0  0  0  0  0
   58.3580   22.8780   44.7190 C   0  0  0  0  0  0  0  0  0  0  0  0
   56.0520   23.5300   45.2370 C   0  0  0  0  0  0  0  0  0  0  0  0
   55.4490   24.9440   45.3890 C   0  0  0  0  0  0  0  0  0  0  0  0
   55.7710   25.4950   46.6560 O   0  0  0  0  0  0  0  0  0  0  0  0
   57.0780   25.1240   47.0640 C   0  0  0  0  0  0  0  0  0  0  0  0
   57.9490   26.3670   47.3140 C   0  0  0  0  0  0  0  0  0  0  0  0
   58.2200   27.1120   46.1380 O   0  0  0  0  0  0  0  0  0  0  0  0
   59.5970   27.4180   45.9780 C   0  0  0  0  0  0  0  0  0  0  0  0
   60.0420   28.7050   46.6990 C   0  0  0  0  0  0  0  0  0  0  0  0
   58.8870   29.4720   47.1750 N   0  0  0  0  0  0  0  0  0  0  0  0
   58.6680   30.8220   46.7390 C   0  0  0  0  0  0  0  0  0  0  0  0
   58.2340   31.0610   45.4250 C   0  0  0  0  0  0  0  0  0  0  0  0
   57.7180   30.0180   44.6290 C   0  0  0  0  0  0  0  0  0  0  0  0
   57.2260   30.2720   43.3510 C   0  0  0  0  0  0  0  0  0  0  0  0
   57.2400   31.5660   42.8450 C   0  0  0  0  0  0  0  0  0  0  0  0
   57.7730   32.6080   43.6040 C   0  0  0  0  0  0  0  0  0  0  0  0
   58.3120   32.3720   44.8940 C   0  0  0  0  0  0  0  0  0  0  0  0
   58.9160   33.3720   45.6280 N   0  0  0  0  0  0  0  0  0  0  0  0
   59.3400   34.6230   44.9580 C   0  0  0  0  0  0  0  0  0  0  0  0
   59.1390   33.1990   46.9820 C   0  0  0  0  0  0  0  0  0  0  0  0
   59.5180   34.2840   47.8100 C   0  0  0  0  0  0  0  0  0  0  0  0
   59.7520   34.1040   49.1680 C   0  0  0  0  0  0  0  0  0  0  0  0
   59.5610   32.8640   49.7550 C   0  0  0  0  0  0  0  0  0  0  0  0
   59.1410   31.7660   48.9890 C   0  0  0  0  0  0  0  0  0  0  0  0
   58.7180   30.5700   49.6690 N   0  0  0  0  0  0  0  0  0  0  0  0
   59.6410   29.6870   50.3860 C   0  0  0  0  0  0  0  0  0  0  0  0
   60.9740   29.6030   49.6400 C   0  0  0  0  0  0  0  0  0  0  0  0
   62.0610   30.4880   50.2880 C   0  0  0  0  0  0  0  0  0  0  0  0
   62.5020   31.6090   49.4280 N   0  0  0  0  0  0  0  0  0  0  0  0
   62.3330   31.3100   47.9840 C   0  0  0  0  0  0  0  0  0  0  0  0
   63.2180   32.1880   47.0770 C   0  0  0  0  0  0  0  0  0  0  0  0
   63.4340   33.5680   47.7000 C   0  0  0  0  0  0  0  0  0  0  0  0
   64.1020   33.4660   49.0840 C   0  0  0  0  0  0  0  0  0  0  0  0
   63.8440   32.1160   49.7720 C   0  0  0  0  0  0  0  0  0  0  0  0
   58.9790   31.9130   47.5790 C   0  0  0  0  0  0  0  0  0  0  0  0
   57.1168   20.9239   44.1323 H   0  0  0  0  0  0  0  0  0  0  0  0
   56.2736   20.6035   42.5789 H   0  0  0  0  0  0  0  0  0  0  0  0
   58.0047   21.0830   42.5789 H   0  0  0  0  0  0  0  0  0  0  0  0
   57.0749   23.1381   42.0958 H   0  0  0  0  0  0  0  0  0  0  0  0
   55.5308   22.7509   42.9462 H   0  0  0  0  0  0  0  0  0  0  0  0
   58.3315   22.8895   45.8186 H   0  0  0  0  0  0  0  0  0  0  0  0
   58.4842   21.8438   44.3661 H   0  0  0  0  0  0  0  0  0  0  0  0
   59.2003   23.4912   44.3661 H   0  0  0  0  0  0  0  0  0  0  0  0
   55.2393   22.8332   44.9843 H   0  0  0  0  0  0  0  0  0  0  0  0
   56.5373   23.2875   46.1939 H   0  0  0  0  0  0  0  0  0  0  0  0
   55.8525   25.5950   44.5995 H   0  0  0  0  0  0  0  0  0  0  0  0
   54.3547   24.8719   45.3035 H   0  0  0  0  0  0  0  0  0  0  0  0
   57.0125   24.5376   47.9923 H   0  0  0  0  0  0  0  0  0  0  0  0
   57.5395   24.5268   46.2638 H   0  0  0  0  0  0  0  0  0  0  0  0
   57.4266   27.0207   48.0280 H   0  0  0  0  0  0  0  0  0  0  0  0
   58.9150   26.0130   47.7034 H   0  0  0  0  0  0  0  0  0  0  0  0
   60.1861   26.5781   46.3748 H   0  0  0  0  0  0  0  0  0  0  0  0
   59.7632   27.5822   44.9031 H   0  0  0  0  0  0  0  0  0  0  0  0
   60.6725   28.4349   47.5590 H   0  0  0  0  0  0  0  0  0  0  0  0
   60.6037   29.3270   45.9866 H   0  0  0  0  0  0  0  0  0  0  0  0
   58.1440   29.0050   47.7380 H   0  0  0  0  0  0  0  0  0  0  0  0
   57.7038   28.9908   45.0222 H   0  0  0  0  0  0  0  0  0  0  0  0
   56.8262   29.4478   42.7420 H   0  0  0  0  0  0  0  0  0  0  0  0
   56.8302   31.7690   41.8446 H   0  0  0  0  0  0  0  0  0  0  0  0
   57.7752   33.6292   43.1951 H   0  0  0  0  0  0  0  0  0  0  0  0
   59.5956   35.3770   45.7170 H   0  0  0  0  0  0  0  0  0  0  0  0
   60.2203   34.4222   44.3297 H   0  0  0  0  0  0  0  0  0  0  0  0
   58.5191   34.9988   44.3297 H   0  0  0  0  0  0  0  0  0  0  0  0
   59.6290   35.2863   47.3706 H   0  0  0  0  0  0  0  0  0  0  0  0
   60.0912   34.9521   49.7809 H   0  0  0  0  0  0  0  0  0  0  0  0
   59.7405   32.7387   50.8330 H   0  0  0  0  0  0  0  0  0  0  0  0
   57.6990   30.4800   49.8850 H   0  0  0  0  0  0  0  0  0  0  0  0
   59.8141   30.0850   51.3967 H   0  0  0  0  0  0  0  0  0  0  0  0
   59.2003   28.6812   50.4504 H   0  0  0  0  0  0  0  0  0  0  0  0
   61.3179   28.5582   49.6455 H   0  0  0  0  0  0  0  0  0  0  0  0
   60.8107   29.9649   48.6142 H   0  0  0  0  0  0  0  0  0  0  0  0
   61.6586   30.9045   51.2232 H   0  0  0  0  0  0  0  0  0  0  0  0
   62.9389   29.8477   50.4592 H   0  0  0  0  0  0  0  0  0  0  0  0
   62.5934   30.2552   47.8121 H   0  0  0  0  0  0  0  0  0  0  0  0
   61.2853   31.5230   47.7254 H   0  0  0  0  0  0  0  0  0  0  0  0
   64.1930   31.6974   46.9405 H   0  0  0  0  0  0  0  0  0  0  0  0
   62.7136   32.3139   46.1076 H   0  0  0  0  0  0  0  0  0  0  0  0
   64.0779   34.1630   47.0356 H   0  0  0  0  0  0  0  0  0  0  0  0
   62.4516   34.0466   47.8261 H   0  0  0  0  0  0  0  0  0  0  0  0
   65.1873   33.5959   48.9608 H   0  0  0  0  0  0  0  0  0  0  0  0
   63.6667   34.2505   49.7204 H   0  0  0  0  0  0  0  0  0  0  0  0
   64.6011   31.3902   49.4405 H   0  0  0  0  0  0  0  0  0  0  0  0
   63.9034   32.2549   50.8616 H   0  0  0  0  0  0  0  0  0  0  0  0
  1  2  1  0
  2  3  1  0
  3  4  1  0
  3  5  1  0
  5  6  1  0
  6  7  1  0
  7  8  1  0
  8  9  1  0
  9 10  1  0
 10 11  1  0
 11 12  1  0
 12 13  1  0
 13 14  1  0
 14 15  2  0
 15 16  1  0
 16 17  2  0
 17 18  1  0
 18 19  2  0
 19 20  1  0
 20 21  2  0
 21 22  1  0
 21 23  1  0
 23 24  2  0
 24 25  1  0
 25 26  2  0
 26 27  1  0
 27 28  1  0
 28 29  1  0
 29 30  1  0
 30 31  1  0
 31 32  1  0
 32 33  1  0
 33 34  1  0
 34 35  1  0
 35 36  1  0
 36 37  1  0
 27 38  2  0
 38 14  1  0
 20 15  1  0
 38 23  1  0
 37 32  1  0
  1 39  1  0
  1 40  1  0
  1 41  1  0
  2 42  1  0
  2 43  1  0
  4 44  1  0
  4 45  1  0
  4 46  1  0
  5 47  1  0
  5 48  1  0
  6 49  1  0
  6 50  1  0
  8 51  1  0
  8 52  1  0
  9 53  1  0
  9 54  1  0
 11 55  1  0
 11 56  1  0
 12 57  1  0
 12 58  1  0
 13 59  1  0
 16 60  1  0
 17 61  1  0
 18 62  1  0
 19 63  1  0
 22 64  1  0
 22 65  1  0
 22 66  1  0
 24 67  1  0
 25 68  1  0
 26 69  1  0
 28 70  1  0
 29 71  1  0
 29 72  1  0
 30 73  1  0
 30 74  1  0
 31 75  1  0
 31 76  1  0
 33 77  1  0
 33 78  1  0
 34 79  1  0
 34 80  1  0
 35 81  1  0
 35 82  1  0
 36 83  1  0
 36 84  1  0
 37 85  1  0
 37 86  1  0
M  CHG  1  21   1
M  END
>  <UniqueID>  (7) 
7

>  <SMILES>  (7) 
CCN(C)CCOCCOCCNc1c2ccccc2[n+](C)c2cccc(NCCCN3CCCCC3)c12

>  <Energy>  (7) 
128.94034977480987

>  <Genealogy>  (7) 
CCN(C)CCOCCOCCNc1c2ccccc2[n+](C)c2cccc(NCCCN3CCCCC3)c12 (3D coordinates assigned)
CCN(C)CCOCCOCCNc1c2ccccc2[n+](C)c2cccc(NCCCN3CCCCC3)c12 (nonaromatic ring conformer: 128.94034977480987 kcal/mol)

>  <smiles>  (7) 
CCN(C)CCOCCOCCNc1c2ccccc2[n+](C)c2cccc(NCCCN3CCCCC3)c12

>  <score_type>  (7) 
oracle

>  <origin>  (7) 
adg

>  <m_score__min__energy>  (7) 
-6.6500000000000004

>  <m_primary>  (7) 
energy

$$$$
7:0
     RDKit          3D

 56 58  0  0  0  0  0  0  0  0999 V2000
   62.4700   33.8290   46.7050 C   0  0  0  0  0  0  0  0  0  0  0  0
   62.4880   32.9000   47.8510 N   0  0  0  0  0  0  0  0  0  0  0  0
   63.3170   33.4730   48.9220 C   0  0  0  0  0  0  0  0  0  0  0  0
   63.0070   31.5750   47.4490 C   0  0  0  0  0  0  0  0  0  0  0  0
   61.8750   30.7130   46.8600 C   0  0  0  0  0  0  0  0  0  0  0  0
   60.6080   30.8760   47.5970 N   0  0  0  0  0  0  0  0  0  0  0  0
   59.4520   30.8940   46.7010 C   0  0  0  0  0  0  0  0  0  0  0  0
   58.9720   29.6820   46.1340 C   0  0  0  0  0  0  0  0  0  0  0  0
   58.1120   29.7430   45.0120 C   0  0  0  0  0  0  0  0  0  0  0  0
   57.9180   30.9380   44.3630 N   0  0  0  0  0  0  0  0  0  0  0  0
   57.3920   30.9460   42.9800 C   0  0  0  0  0  0  0  0  0  0  0  0
   58.1710   32.1250   45.0200 C   0  0  0  0  0  0  0  0  0  0  0  0
   57.7280   33.3580   44.4870 C   0  0  0  0  0  0  0  0  0  0  0  0
   57.9300   34.5520   45.1640 C   0  0  0  0  0  0  0  0  0  0  0  0
   58.5240   34.5470   46.4130 C   0  0  0  0  0  0  0  0  0  0  0  0
   58.9670   33.3510   46.9940 C   0  0  0  0  0  0  0  0  0  0  0  0
   59.3520   33.3920   48.3810 N   0  0  0  0  0  0  0  0  0  0  0  0
   60.0170   34.5810   48.9190 C   0  0  0  0  0  0  0  0  0  0  0  0
   58.6580   32.5090   49.3230 C   0  0  0  0  0  0  0  0  0  0  0  0
   58.8660   32.1220   46.2650 C   0  0  0  0  0  0  0  0  0  0  0  0
   57.4450   28.4780   44.5040 C   0  0  0  0  0  0  0  0  0  0  0  0
   57.2790   27.4450   45.6140 C   0  0  0  0  0  0  0  0  0  0  0  0
   58.6520   27.1000   46.1760 C   0  0  0  0  0  0  0  0  0  0  0  0
   59.3620   28.3390   46.7470 C   0  0  0  0  0  0  0  0  0  0  0  0
   62.4499   34.8653   47.0733 H   0  0  0  0  0  0  0  0  0  0  0  0
   63.3713   33.6746   46.0936 H   0  0  0  0  0  0  0  0  0  0  0  0
   61.5754   33.6398   46.0936 H   0  0  0  0  0  0  0  0  0  0  0  0
   62.9024   33.1864   49.8997 H   0  0  0  0  0  0  0  0  0  0  0  0
   64.3450   33.0918   48.8337 H   0  0  0  0  0  0  0  0  0  0  0  0
   63.3237   34.5694   48.8337 H   0  0  0  0  0  0  0  0  0  0  0  0
   63.7933   31.7080   46.6914 H   0  0  0  0  0  0  0  0  0  0  0  0
   63.4183   31.0684   48.3346 H   0  0  0  0  0  0  0  0  0  0  0  0
   61.7152   31.0065   45.8120 H   0  0  0  0  0  0  0  0  0  0  0  0
   62.1780   29.6585   46.9394 H   0  0  0  0  0  0  0  0  0  0  0  0
   60.5690   30.1130   48.3040 H   0  0  0  0  0  0  0  0  0  0  0  0
   60.6440   31.7320   48.1840 H   0  0  0  0  0  0  0  0  0  0  0  0
   56.2924   30.9627   43.0060 H   0  0  0  0  0  0  0  0  0  0  0  0
   57.7599   31.8387   42.4529 H   0  0  0  0  0  0  0  0  0  0  0  0
   57.7326   30.0426   42.4529 H   0  0  0  0  0  0  0  0  0  0  0  0
   57.2125   33.3705   43.5153 H   0  0  0  0  0  0  0  0  0  0  0  0
   57.6177   35.5028   44.7074 H   0  0  0  0  0  0  0  0  0  0  0  0
   58.6504   35.4943   46.9576 H   0  0  0  0  0  0  0  0  0  0  0  0
   59.9975   34.5462   50.0183 H   0  0  0  0  0  0  0  0  0  0  0  0
   61.0603   34.6065   48.5714 H   0  0  0  0  0  0  0  0  0  0  0  0
   59.4926   35.4833   48.5714 H   0  0  0  0  0  0  0  0  0  0  0  0
   58.8962   32.8121   50.3532 H   0  0  0  0  0  0  0  0  0  0  0  0
   57.5723   32.5811   49.1613 H   0  0  0  0  0  0  0  0  0  0  0  0
   58.9846   31.4711   49.1613 H   0  0  0  0  0  0  0  0  0  0  0  0
   56.4530   28.7339   44.1034 H   0  0  0  0  0  0  0  0  0  0  0  0
   58.0845   28.0425   43.7221 H   0  0  0  0  0  0  0  0  0  0  0  0
   56.6466   27.8597   46.4128 H   0  0  0  0  0  0  0  0  0  0  0  0
   56.8024   26.5389   45.2117 H   0  0  0  0  0  0  0  0  0  0  0  0
   58.5322   26.3568   46.9781 H   0  0  0  0  0  0  0  0  0  0  0  0
   59.2670   26.7004   45.3562 H   0  0  0  0  0  0  0  0  0  0  0  0
   59.1423   28.3852   47.8238 H   0  0  0  0  0  0  0  0  0  0  0  0
   60.4271   28.2044   46.5074 H   0  0  0  0  0  0  0  0  0  0  0  0
  1  2  1  0
  2  3  1  0
  2  4  1  0
  4  5  1  0
  5  6  1  0
  6  7  1  0
  7  8  2  0
  8  9  1  0
  9 10  2  0
 10 11  1  0
 10 12  1  0
 12 13  2  0
 13 14  1  0
 14 15  2  0
 15 16  1  0
 16 17  1  0
 17 18  1  0
 17 19  1  0
 16 20  2  0
  9 21  1  0
 21 22  1  0
 22 23  1  0
 23 24  1  0
 20  7  1  0
 24  8  1  0
 20 12  1  0
  1 25  1  0
  1 26  1  0
  1 27  1  0
  3 28  1  0
  3 29  1  0
  3 30  1  0
  4 31  1  0
  4 32  1  0
  5 33  1  0
  5 34  1  0
  6 35  1  0
  6 36  1  0
 11 37  1  0
 11 38  1  0
 11 39  1  0
 13 40  1  0
 14 41  1  0
 15 42  1  0
 18 43  1  0
 18 44  1  0
 18 45  1  0
 19 46  1  0
 19 47  1  0
 19 48  1  0
 21 49  1  0
 21 50  1  0
 22 51  1  0
 22 52  1  0
 23 53  1  0
 23 54  1  0
 24 55  1  0
 24 56  1  0
M  CHG  2   6   1  10   1
M  END
>  <UniqueID>  (8) 
8

>  <SMILES>  (8) 
CN(C)CC[NH2+]c1c2c([n+](C)c3cccc(N(C)C)c13)CCCC2

>  <Energy>  (8) 
92.15636664424052

>  <Genealogy>  (8) 
CN(C)CC[NH2+]c1c2c([n+](C)c3cccc(N(C)C)c13)CCCC2 (protonated)
CN(C)CC[NH2+]c1c2c([n+](C)c3cccc(N(C)C)c13)CCCC2 (3D coordinates assigned)
CN(C)CC[NH2+]c1c2c([n+](C)c3cccc(N(C)C)c13)CCCC2 (nonaromatic ring conformer: 92.15636664424052 kcal/mol)

>  <smiles>  (8) 
CN(C)CCNc1c2c([n+](C)c3cccc(N(C)C)c13)CCCC2

>  <score_type>  (8) 
oracle

>  <origin>  (8) 
adg

>  <m_score__min__energy>  (8) 
-3.9700000000000002

>  <m_primary>  (8) 
energy

$$$$
8:0
     RDKit          3D

 53 56  0  0  0  0  0  0  0  0999 V2000
   66.2860   32.6860   50.1270 C   0  0  0  0  0  0  0  0  0  0  0  0
   64.8130   32.4590   49.7690 C   0  0  0  0  0  0  0  0  0  0  0  0
   64.5170   32.7930   48.3640 N   0  0  0  0  0  0  0  0  0  0  0  0
   63.3270   33.6520   48.2380 C   0  0  0  0  0  0  0  0  0  0  0  0
   62.4090   33.1760   47.1040 C   0  0  0  0  0  0  0  0  0  0  0  0
   61.2760   32.4130   47.6230 N   0  0  0  0  0  0  0  0  0  0  0  0
   60.2130   32.0140   46.7470 C   0  0  0  0  0  0  0  0  0  0  0  0
   59.5300   32.9720   45.9990 C   0  0  0  0  0  0  0  0  0  0  0  0
   58.4900   32.6180   45.1840 C   0  0  0  0  0  0  0  0  0  0  0  0
   58.0900   31.3140   45.0400 N   0  0  0  0  0  0  0  0  0  0  0  0
   56.8500   31.0330   44.2960 C   0  0  0  0  0  0  0  0  0  0  0  0
   58.8310   30.3160   45.6540 C   0  0  0  0  0  0  0  0  0  0  0  0
   59.8250   30.6640   46.6120 C   0  0  0  0  0  0  0  0  0  0  0  0
   60.4430   29.5840   47.4770 C   0  0  0  0  0  0  0  0  0  0  0  0
   59.4390   28.4550   47.7450 C   0  0  0  0  0  0  0  0  0  0  0  0
   58.8940   27.9390   46.4410 C   0  0  0  0  0  0  0  0  0  0  0  0
   58.6990   26.5640   46.2430 C   0  0  0  0  0  0  0  0  0  0  0  0
   58.2960   26.0870   44.9960 C   0  0  0  0  0  0  0  0  0  0  0  0
   58.1120   26.9750   43.9350 C   0  0  0  0  0  0  0  0  0  0  0  0
   58.2900   28.3470   44.1290 C   0  0  0  0  0  0  0  0  0  0  0  0
   58.6090   28.8540   45.4030 C   0  0  0  0  0  0  0  0  0  0  0  0
   57.8790   33.8110   44.5340 C   0  0  0  0  0  0  0  0  0  0  0  0
   58.8180   34.9670   44.9130 C   0  0  0  0  0  0  0  0  0  0  0  0
   59.7750   34.4360   45.9920 C   0  0  0  0  0  0  0  0  0  0  0  0
   66.3990   32.7034   51.2210 H   0  0  0  0  0  0  0  0  0  0  0  0
   66.8949   31.8711   49.7084 H   0  0  0  0  0  0  0  0  0  0  0  0
   66.6213   33.6464   49.7084 H   0  0  0  0  0  0  0  0  0  0  0  0
   64.5673   31.4004   49.9395 H   0  0  0  0  0  0  0  0  0  0  0  0
   64.2078   33.1215   50.4053 H   0  0  0  0  0  0  0  0  0  0  0  0
   64.3380   31.8950   47.8570 H   0  0  0  0  0  0  0  0  0  0  0  0
   65.3460   33.2590   47.9240 H   0  0  0  0  0  0  0  0  0  0  0  0
   62.7674   33.6290   49.1847 H   0  0  0  0  0  0  0  0  0  0  0  0
   63.6613   34.6740   48.0063 H   0  0  0  0  0  0  0  0  0  0  0  0
   62.0306   34.0524   46.5575 H   0  0  0  0  0  0  0  0  0  0  0  0
   62.9910   32.5230   46.4370 H   0  0  0  0  0  0  0  0  0  0  0  0
   61.0320   32.5570   48.6300 H   0  0  0  0  0  0  0  0  0  0  0  0
   56.0305   30.8473   45.0059 H   0  0  0  0  0  0  0  0  0  0  0  0
   56.5983   31.8969   43.6633 H   0  0  0  0  0  0  0  0  0  0  0  0
   56.9953   30.1450   43.6633 H   0  0  0  0  0  0  0  0  0  0  0  0
   61.3221   29.1693   46.9620 H   0  0  0  0  0  0  0  0  0  0  0  0
   60.7357   30.0294   48.4392 H   0  0  0  0  0  0  0  0  0  0  0  0
   59.9435   27.6366   48.2796 H   0  0  0  0  0  0  0  0  0  0  0  0
   58.6113   28.8422   48.3574 H   0  0  0  0  0  0  0  0  0  0  0  0
   58.8642   25.8609   47.0727 H   0  0  0  0  0  0  0  0  0  0  0  0
   58.1231   25.0107   44.8486 H   0  0  0  0  0  0  0  0  0  0  0  0
   57.8261   26.5936   42.9436 H   0  0  0  0  0  0  0  0  0  0  0  0
   58.1800   29.0368   43.2793 H   0  0  0  0  0  0  0  0  0  0  0  0
   57.8384   33.6829   43.4422 H   0  0  0  0  0  0  0  0  0  0  0  0
   56.8429   33.9848   44.8599 H   0  0  0  0  0  0  0  0  0  0  0  0
   59.3880   35.2948   44.0312 H   0  0  0  0  0  0  0  0  0  0  0  0
   58.2465   35.8295   45.2864 H   0  0  0  0  0  0  0  0  0  0  0  0
   60.8205   34.6564   45.7304 H   0  0  0  0  0  0  0  0  0  0  0  0
   59.6040   34.8990   46.9751 H   0  0  0  0  0  0  0  0  0  0  0  0
  1  2  1  0
  2  3  1  0
  3  4  1  0
  4  5  1  0
  5  6  1  0
  6  7  1  0
  7  8  2  0
  8  9  1  0
  9 10  2  0
 10 11  1  0
 10 12  1  0
 12 13  2  0
 13 14  1  0
 14 15  1  0
 15 16  1  0
 16 17  2  0
 17 18  1  0
 18 19  2  0
 19 20  1  0
 20 21  2  0
  9 22  1  0
 22 23  1  0
 23 24  1  0
 13  7  1  0
 21 16  1  0
 24  8  1  0
 21 12  1  0
  1 25  1  0
  1 26  1  0
  1 27  1  0
  2 28  1  0
  2 29  1  0
  3 30  1  0
  3 31  1  0
  4 32  1  0
  4 33  1  0
  5 34  1  0
  5 35  1  0
  6 36  1  0
 11 37  1  0
 11 38  1  0
 11 39  1  0
 14 40  1  0
 14 41  1  0
 15 42  1  0
 15 43  1  0
 17 44  1  0
 18 45  1  0
 19 46  1  0
 20 47  1  0
 22 48  1  0
 22 49  1  0
 23 50  1  0
 23 51  1  0
 24 52  1  0
 24 53  1  0
M  CHG  2   3   1  10   1
M  END
>  <UniqueID>  (9) 
9

>  <SMILES>  (9) 
CC[NH2+]CCNc1c2c([n+](C)c3c1CCc1ccccc1-3)CCC2

>  <Energy>  (9) 
78.85001461124126

>  <Genealogy>  (9) 
CC[NH2+]CCNc1c2c([n+](C)c3c1CCc1ccccc1-3)CCC2 (protonated)
CC[NH2+]CCNc1c2c([n+](C)c3c1CCc1ccccc1-3)CCC2 (3D coordinates assigned)
CC[NH2+]CCNc1c2c([n+](C)c3c1CCc1ccccc1-3)CCC2 (nonaromatic ring conformer: 78.85001461124126 kcal/mol)

>  <smiles>  (9) 
CCNCCNc1c2c([n+](C)c3c1CCc1ccccc1-3)CCC2

>  <score_type>  (9) 
oracle

>  <origin>  (9) 
adg

>  <m_score__min__energy>  (9) 
-5.4000000000000004

>  <m_primary>  (9) 
energy

$$$$
9:0
     RDKit          3D

 56 58  0  0  0  0  0  0  0  0999 V2000
   59.4000   35.0420   46.9740 C   0  0  0  0  0  0  0  0  0  0  0  0
   58.7910   34.5200   45.9070 C   0  0  0  0  0  0  0  0  0  0  0  0
   57.4490   33.8540   46.0150 C   0  0  0  0  0  0  0  0  0  0  0  0
   57.5580   32.4370   45.6380 N   0  0  0  0  0  0  0  0  0  0  0  0
   57.5880   32.2870   44.1750 C   0  0  0  0  0  0  0  0  0  0  0  0
   57.0180   30.9190   43.7450 C   0  0  0  0  0  0  0  0  0  0  0  0
   57.6010   29.7450   44.5530 C   0  0  0  0  0  0  0  0  0  0  0  0
   57.4030   29.8850   46.0070 N   0  0  0  0  0  0  0  0  0  0  0  0
   58.3620   29.0790   46.7830 C   0  0  0  0  0  0  0  0  0  0  0  0
   59.5430   29.9150   47.3140 C   0  0  0  0  0  0  0  0  0  0  0  0
   59.2880   31.3710   47.3610 N   0  0  0  0  0  0  0  0  0  0  0  0
   59.9920   32.0480   48.4470 C   0  0  0  0  0  0  0  0  0  0  0  0
   59.3880   32.2260   49.7290 C   0  0  0  0  0  0  0  0  0  0  0  0
   58.0960   31.7250   50.0440 C   0  0  0  0  0  0  0  0  0  0  0  0
   57.5100   31.9560   51.2860 C   0  0  0  0  0  0  0  0  0  0  0  0
   58.1640   32.7210   52.2350 C   0  0  0  0  0  0  0  0  0  0  0  0
   59.4390   33.2040   51.9740 C   0  0  0  0  0  0  0  0  0  0  0  0
   60.1030   32.9240   50.7470 C   0  0  0  0  0  0  0  0  0  0  0  0
   61.4020   33.3310   50.5380 N   0  0  0  0  0  0  0  0  0  0  0  0
   62.2270   33.7750   51.6890 C   0  0  0  0  0  0  0  0  0  0  0  0
   61.9460   33.3000   49.2730 C   0  0  0  0  0  0  0  0  0  0  0  0
   63.1640   33.9690   48.9810 C   0  0  0  0  0  0  0  0  0  0  0  0
   63.7720   33.8500   47.7360 C   0  0  0  0  0  0  0  0  0  0  0  0
   63.1830   33.0760   46.7490 C   0  0  0  0  0  0  0  0  0  0  0  0
   61.9590   32.4580   46.9830 C   0  0  0  0  0  0  0  0  0  0  0  0
   61.2880   32.5980   48.2260 C   0  0  0  0  0  0  0  0  0  0  0  0
   60.3828   35.5239   46.8653 H   0  0  0  0  0  0  0  0  0  0  0  0
   58.9190   34.9902   47.9619 H   0  0  0  0  0  0  0  0  0  0  0  0
   59.2837   34.5790   44.9253 H   0  0  0  0  0  0  0  0  0  0  0  0
   57.0880   33.9283   47.0514 H   0  0  0  0  0  0  0  0  0  0  0  0
   56.7424   34.3544   45.3366 H   0  0  0  0  0  0  0  0  0  0  0  0
   56.6940   31.9570   45.9830 H   0  0  0  0  0  0  0  0  0  0  0  0
   56.9853   33.0865   43.7194 H   0  0  0  0  0  0  0  0  0  0  0  0
   58.6333   32.3513   43.8386 H   0  0  0  0  0  0  0  0  0  0  0  0
   55.9271   30.9338   43.8852 H   0  0  0  0  0  0  0  0  0  0  0  0
   57.2939   30.7633   42.6916 H   0  0  0  0  0  0  0  0  0  0  0  0
   57.1133   28.8164   44.2217 H   0  0  0  0  0  0  0  0  0  0  0  0
   58.6857   29.7300   44.3710 H   0  0  0  0  0  0  0  0  0  0  0  0
   56.4300   29.5520   46.2070 H   0  0  0  0  0  0  0  0  0  0  0  0
   57.8350   28.6304   47.6380 H   0  0  0  0  0  0  0  0  0  0  0  0
   58.7722   28.3102   46.1117 H   0  0  0  0  0  0  0  0  0  0  0  0
   59.7756   29.5733   48.3334 H   0  0  0  0  0  0  0  0  0  0  0  0
   60.3756   29.7645   46.6110 H   0  0  0  0  0  0  0  0  0  0  0  0
   58.2620   31.5280   47.4730 H   0  0  0  0  0  0  0  0  0  0  0  0
   59.4630   31.7810   46.4230 H   0  0  0  0  0  0  0  0  0  0  0  0
   57.5467   31.1419   49.2902 H   0  0  0  0  0  0  0  0  0  0  0  0
   56.5225   31.5282   51.5135 H   0  0  0  0  0  0  0  0  0  0  0  0
   57.6749   32.9461   53.1942 H   0  0  0  0  0  0  0  0  0  0  0  0
   59.9475   33.8170   52.7328 H   0  0  0  0  0  0  0  0  0  0  0  0
   61.7226   33.5035   52.6281 H   0  0  0  0  0  0  0  0  0  0  0  0
   63.2106   33.2844   51.6460 H   0  0  0  0  0  0  0  0  0  0  0  0
   62.3593   34.8662   51.6460 H   0  0  0  0  0  0  0  0  0  0  0  0
   63.6356   34.5932   49.7543 H   0  0  0  0  0  0  0  0  0  0  0  0
   64.7202   34.3701   47.5348 H   0  0  0  0  0  0  0  0  0  0  0  0
   63.6846   32.9500   45.7781 H   0  0  0  0  0  0  0  0  0  0  0  0
   61.5021   31.8488   46.1892 H   0  0  0  0  0  0  0  0  0  0  0  0
  1  2  2  0
  2  3  1  0
  3  4  1  0
  4  5  1  0
  5  6  1  0
  6  7  1  0
  7  8  1  0
  8  9  1  0
  9 10  1  0
 10 11  1  0
 11 12  1  0
 12 13  2  0
 13 14  1  0
 14 15  2  0
 15 16  1  0
 16 17  2  0
 17 18  1  0
 18 19  2  0
 19 20  1  0
 19 21  1  0
 21 22  2  0
 22 23  1  0
 23 24  2  0
 24 25  1  0
 25 26  2  0
 26 12  1  0
 18 13  1  0
 26 21  1  0
  1 27  1  0
  1 28  1  0
  2 29  1  0
  3 30  1  0
  3 31  1  0
  4 32  1  0
  5 33  1  0
  5 34  1  0
  6 35  1  0
  6 36  1  0
  7 37  1  0
  7 38  1  0
  8 39  1  0
  9 40  1  0
  9 41  1  0
 10 42  1  0
 10 43  1  0
 11 44  1  0
 11 45  1  0
 14 46  1  0
 15 47  1  0
 16 48  1  0
 17 49  1  0
 20 50  1  0
 20 51  1  0
 20 52  1  0
 22 53  1  0
 23 54  1  0
 24 55  1  0
 25 56  1  0
M  CHG  2  11   1  19   1
M  END
>  <UniqueID>  (10) 
10

>  <SMILES>  (10) 
C=CCNCCCNCC[NH2+]c1c2ccccc2[n+](C)c2ccccc12

>  <Energy>  (10) 
83.3756815148279

>  <Genealogy>  (10) 
C=CCNCCCNCC[NH2+]c1c2ccccc2[n+](C)c2ccccc12 (protonated)
C=CCNCCCNCC[NH2+]c1c2ccccc2[n+](C)c2ccccc12 (3D coordinates assigned)
C=CCNCCCNCC[NH2+]c1c2ccccc2[n+](C)c2ccccc12 (optimized conformer: 83.3756815148279 kcal/mol)

>  <smiles>  (10) 
C=CCNCCCNCCNc1c2ccccc2[n+](C)c2ccccc12

>  <score_type>  (10) 
oracle

>  <origin>  (10) 
adg

>  <m_score__min__energy>  (10) 
-4.2300000000000004

>  <m_primary>  (10) 
energy

$$$$
10:0
     RDKit          3D

 43 44  0  0  0  0  0  0  0  0999 V2000
   56.5750   30.3980   42.8040 C   0  0  0  0  0  0  0  0  0  0  0  0
   55.8830   29.8400   44.0520 C   0  0  0  0  0  0  0  0  0  0  0  0
   56.8340   29.5590   45.1410 N   0  0  0  0  0  0  0  0  0  0  0  0
   56.9210   28.1270   45.4630 C   0  0  0  0  0  0  0  0  0  0  0  0
   58.1230   27.4980   44.7490 C   0  0  0  0  0  0  0  0  0  0  0  0
   59.4240   28.2280   45.1100 C   0  0  0  0  0  0  0  0  0  0  0  0
   59.5030   28.5510   46.6090 C   0  0  0  0  0  0  0  0  0  0  0  0
   58.8260   29.8130   46.9220 N   0  0  0  0  0  0  0  0  0  0  0  0
   59.4600   31.1080   46.8790 C   0  0  0  0  0  0  0  0  0  0  0  0
   60.7540   31.3010   47.3980 C   0  0  0  0  0  0  0  0  0  0  0  0
   61.3720   32.5560   47.3600 C   0  0  0  0  0  0  0  0  0  0  0  0
   62.6640   32.6740   47.8950 O   0  0  0  0  0  0  0  0  0  0  0  0
   63.8070   33.0900   47.1550 C   0  0  0  0  0  0  0  0  0  0  0  0
   60.6890   33.6460   46.7930 C   0  0  0  0  0  0  0  0  0  0  0  0
   59.4000   33.4760   46.2730 C   0  0  0  0  0  0  0  0  0  0  0  0
   58.7070   34.5520   45.7020 C   0  0  0  0  0  0  0  0  0  0  0  0
   57.4260   34.3580   45.1820 C   0  0  0  0  0  0  0  0  0  0  0  0
   56.8490   33.0890   45.2390 C   0  0  0  0  0  0  0  0  0  0  0  0
   57.5300   32.0530   45.7970 N   0  0  0  0  0  0  0  0  0  0  0  0
   58.7800   32.2070   46.3170 C   0  0  0  0  0  0  0  0  0  0  0  0
   57.3982   31.0618   43.1070 H   0  0  0  0  0  0  0  0  0  0  0  0
   56.9756   29.5673   42.2045 H   0  0  0  0  0  0  0  0  0  0  0  0
   55.8480   30.9656   42.2045 H   0  0  0  0  0  0  0  0  0  0  0  0
   55.1466   30.5760   44.4068 H   0  0  0  0  0  0  0  0  0  0  0  0
   55.4012   28.8912   43.7733 H   0  0  0  0  0  0  0  0  0  0  0  0
   56.5530   30.0890   46.0000 H   0  0  0  0  0  0  0  0  0  0  0  0
   57.0389   28.0051   46.5498 H   0  0  0  0  0  0  0  0  0  0  0  0
   56.0008   27.6262   45.1276 H   0  0  0  0  0  0  0  0  0  0  0  0
   58.2077   26.4432   45.0493 H   0  0  0  0  0  0  0  0  0  0  0  0
   57.9663   27.5794   43.6633 H   0  0  0  0  0  0  0  0  0  0  0  0
   60.2773   27.5890   44.8386 H   0  0  0  0  0  0  0  0  0  0  0  0
   59.4470   29.1776   44.5552 H   0  0  0  0  0  0  0  0  0  0  0  0
   59.0247   27.7385   47.1756 H   0  0  0  0  0  0  0  0  0  0  0  0
   60.5630   28.6495   46.8859 H   0  0  0  0  0  0  0  0  0  0  0  0
   57.8010   29.7580   47.1190 H   0  0  0  0  0  0  0  0  0  0  0  0
   61.2898   30.4491   47.8420 H   0  0  0  0  0  0  0  0  0  0  0  0
   64.6079   33.3815   47.8504 H   0  0  0  0  0  0  0  0  0  0  0  0
   64.1553   32.2610   46.5214 H   0  0  0  0  0  0  0  0  0  0  0  0
   63.5409   33.9489   46.5214 H   0  0  0  0  0  0  0  0  0  0  0  0
   61.1685   34.6354   46.7577 H   0  0  0  0  0  0  0  0  0  0  0  0
   59.1718   35.5482   45.6636 H   0  0  0  0  0  0  0  0  0  0  0  0
   56.8767   35.1978   44.7315 H   0  0  0  0  0  0  0  0  0  0  0  0
   55.8404   32.9263   44.8314 H   0  0  0  0  0  0  0  0  0  0  0  0
  1  2  1  0
  2  3  1  0
  3  4  1  0
  4  5  1  0
  5  6  1  0
  6  7  1  0
  7  8  1  0
  8  9  1  0
  9 10  2  0
 10 11  1  0
 11 12  1  0
 12 13  1  0
 11 14  2  0
 14 15  1  0
 15 16  2  0
 16 17  1  0
 17 18  2  0
 18 19  1  0
 19 20  2  0
 20  9  1  0
 20 15  1  0
  1 21  1  0
  1 22  1  0
  1 23  1  0
  2 24  1  0
  2 25  1  0
  3 26  1  0
  4 27  1  0
  4 28  1  0
  5 29  1  0
  5 30  1  0
  6 31  1  0
  6 32  1  0
  7 33  1  0
  7 34  1  0
  8 35  1  0
 10 36  1  0
 13 37  1  0
 13 38  1  0
 13 39  1  0
 14 40  1  0
 16 41  1  0
 17 42  1  0
 18 43  1  0
M  END
>  <UniqueID>  (11) 
11

>  <SMILES>  (11) 
CCNCCCCNc1cc(OC)cc2cccnc12

>  <Energy>  (11) 
38.741397186440345

>  <Genealogy>  (11) 
CCNCCCCNc1cc(OC)cc2cccnc12 (3D coordinates assigned)
CCNCCCCNc1cc(OC)cc2cccnc12 (optimized conformer: 38.741397186440345 kcal/mol)

>  <smiles>  (11) 
CCNCCCCNc1cc(OC)cc2cccnc12

>  <score_type>  (11) 
oracle

>  <origin>  (11) 
adg

>  <m_score__min__energy>  (11) 
-6.1799999999999997

>  <m_primary>  (11) 
energy

$$$$
11:0
     RDKit          3D

 51 52  0  0  0  0  0  0  0  0999 V2000
   59.4220   30.0060   47.8510 C   0  0  0  0  0  0  0  0  0  0  0  0
   60.1900   30.9320   48.7840 C   0  0  0  0  0  0  0  0  0  0  0  0
   59.9450   30.5300   50.1800 N   0  0  0  0  0  0  0  0  0  0  0  0
   58.5420   30.1720   50.4310 C   0  0  0  0  0  0  0  0  0  0  0  0
   57.7410   31.3980   50.8750 C   0  0  0  0  0  0  0  0  0  0  0  0
   58.5510   32.5510   50.7590 O   0  0  0  0  0  0  0  0  0  0  0  0
   58.6680   33.2030   52.0100 C   0  0  0  0  0  0  0  0  0  0  0  0
   60.0760   33.7770   52.1950 C   0  0  0  0  0  0  0  0  0  0  0  0
   61.0540   33.0030   51.4120 N   0  0  0  0  0  0  0  0  0  0  0  0
   62.2200   33.7970   50.9860 C   0  0  0  0  0  0  0  0  0  0  0  0
   62.4810   33.6940   49.4880 C   0  0  0  0  0  0  0  0  0  0  0  0
   63.7600   33.3030   49.0600 C   0  0  0  0  0  0  0  0  0  0  0  0
   64.0250   33.1170   47.7440 N   0  0  0  0  0  0  0  0  0  0  0  0
   63.0790   33.2950   46.7910 C   0  0  0  0  0  0  0  0  0  0  0  0
   61.7870   33.7010   47.1420 C   0  0  0  0  0  0  0  0  0  0  0  0
   61.4900   33.9680   48.5050 C   0  0  0  0  0  0  0  0  0  0  0  0
   60.1150   34.4780   48.9050 C   0  0  0  0  0  0  0  0  0  0  0  0
   59.2830   34.9640   47.7200 C   0  0  0  0  0  0  0  0  0  0  0  0
   59.4200   34.0100   46.6220 N   0  0  0  0  0  0  0  0  0  0  0  0
   58.3680   33.0880   46.2590 C   0  0  0  0  0  0  0  0  0  0  0  0
   58.3460   32.4060   44.9250 C   0  0  0  0  0  0  0  0  0  0  0  0
   57.4500   32.8280   47.0840 O   0  0  0  0  0  0  0  0  0  0  0  0
   60.7620   33.8910   46.0480 C   0  0  0  0  0  0  0  0  0  0  0  0
   58.8313   29.2938   48.4458 H   0  0  0  0  0  0  0  0  0  0  0  0
   58.7486   30.6009   47.2165 H   0  0  0  0  0  0  0  0  0  0  0  0
   60.1312   29.4542   47.2165 H   0  0  0  0  0  0  0  0  0  0  0  0
   61.2659   30.8638   48.5655 H   0  0  0  0  0  0  0  0  0  0  0  0
   59.8523   31.9682   48.6345 H   0  0  0  0  0  0  0  0  0  0  0  0
   60.1890   31.3340   50.8050 H   0  0  0  0  0  0  0  0  0  0  0  0
   58.1017   29.7684   49.5073 H   0  0  0  0  0  0  0  0  0  0  0  0
   58.5075   29.4186   51.2317 H   0  0  0  0  0  0  0  0  0  0  0  0
   56.8520   31.5074   50.2364 H   0  0  0  0  0  0  0  0  0  0  0  0
   57.4246   31.2730   51.9211 H   0  0  0  0  0  0  0  0  0  0  0  0
   57.9353   34.0220   52.0597 H   0  0  0  0  0  0  0  0  0  0  0  0
   58.4783   32.4704   52.8083 H   0  0  0  0  0  0  0  0  0  0  0  0
   60.0879   34.8236   51.8566 H   0  0  0  0  0  0  0  0  0  0  0  0
   60.3469   33.7203   53.2596 H   0  0  0  0  0  0  0  0  0  0  0  0
   60.5820   32.5900   50.5740 H   0  0  0  0  0  0  0  0  0  0  0  0
   62.0406   34.8519   51.2410 H   0  0  0  0  0  0  0  0  0  0  0  0
   63.1033   33.3993   51.5071 H   0  0  0  0  0  0  0  0  0  0  0  0
   64.5566   33.1457   49.8021 H   0  0  0  0  0  0  0  0  0  0  0  0
   63.3283   33.1192   45.7341 H   0  0  0  0  0  0  0  0  0  0  0  0
   59.5708   33.6616   49.4023 H   0  0  0  0  0  0  0  0  0  0  0  0
   60.2681   35.3399   49.5711 H   0  0  0  0  0  0  0  0  0  0  0  0
   58.2261   35.0368   48.0161 H   0  0  0  0  0  0  0  0  0  0  0  0
   59.6359   35.9550   47.3986 H   0  0  0  0  0  0  0  0  0  0  0  0
   58.3108   31.3163   45.0708 H   0  0  0  0  0  0  0  0  0  0  0  0
   57.4578   32.7295   44.3624 H   0  0  0  0  0  0  0  0  0  0  0  0
   59.2532   32.6716   44.3624 H   0  0  0  0  0  0  0  0  0  0  0  0
   60.7908   33.0254   45.3698 H   0  0  0  0  0  0  0  0  0  0  0  0
   60.9968   34.8122   45.4947 H   0  0  0  0  0  0  0  0  0  0  0  0
  1  2  1  0
  2  3  1  0
  3  4  1  0
  4  5  1  0
  5  6  1  0
  6  7  1  0
  7  8  1  0
  8  9  1  0
  9 10  1  0
 10 11  1  0
 11 12  2  0
 12 13  1  0
 13 14  2  0
 14 15  1  0
 15 16  2  0
 16 17  1  0
 17 18  1  0
 18 19  1  0
 19 20  1  0
 20 21  1  0
 20 22  2  0
 19 23  1  0
 16 11  1  0
 23 15  1  0
  1 24  1  0
  1 25  1  0
  1 26  1  0
  2 27  1  0
  2 28  1  0
  3 29  1  0
  4 30  1  0
  4 31  1  0
  5 32  1  0
  5 33  1  0
  7 34  1  0
  7 35  1  0
  8 36  1  0
  8 37  1  0
  9 38  1  0
 10 39  1  0
 10 40  1  0
 12 41  1  0
 14 42  1  0
 17 43  1  0
 17 44  1  0
 18 45  1  0
 18 46  1  0
 21 47  1  0
 21 48  1  0
 21 49  1  0
 23 50  1  0
 23 51  1  0
M  END
>  <UniqueID>  (12) 
12

>  <SMILES>  (12) 
CCNCCOCCNCc1cncc2c1CCN(C(C)=O)C2

>  <Energy>  (12) 
51.6432882974398

>  <Genealogy>  (12) 
CCNCCOCCNCc1cncc2c1CCN(C(C)=O)C2 (3D coordinates assigned)
CCNCCOCCNCc1cncc2c1CCN(C(C)=O)C2 (nonaromatic ring conformer: 51.6432882974398 kcal/mol)

>  <smiles>  (12) 
CCNCCOCCNCc1cncc2c1CCN(C(C)=O)C2

>  <score_type>  (12) 
oracle

>  <origin>  (12) 
adg

>  <m_score__min__energy>  (12) 
-5.7599999999999998

>  <m_primary>  (12) 
energy

$$$$
12:0
     RDKit          3D

 39 40  0  0  0  0  0  0  0  0999 V2000
   59.5904   30.3036   49.2078 H   0  0  0  0  0  0  0  0  0  0  0  0
   59.5340   29.7620   48.2520 C   0  0  0  0  0  0  0  0  0  0  0  0
   58.5260   28.8140   48.0450 C   0  0  0  0  0  0  0  0  0  0  0  0
   57.7957   28.6095   48.8418 H   0  0  0  0  0  0  0  0  0  0  0  0
   58.4410   28.1210   46.8240 C   0  0  0  0  0  0  0  0  0  0  0  0
   57.4110   27.1370   46.6030 N   0  0  0  0  0  0  0  0  0  0  0  0
   57.3820   25.8660   47.0500 C   0  0  0  0  0  0  0  0  0  0  0  0
   58.1710   25.4062   47.6632 H   0  0  0  0  0  0  0  0  0  0  0  0
   56.2630   25.2300   46.6500 N   0  0  0  0  0  0  0  0  0  0  0  0
   55.5580   26.0890   45.9290 N   0  0  0  0  0  0  0  0  0  0  0  0
   56.2610   27.2380   45.9070 C   0  0  0  0  0  0  0  0  0  0  0  0
   55.9010   28.2990   45.2490 N   0  0  0  0  0  0  0  0  0  0  0  0
   56.6890   28.9190   44.1860 C   0  0  0  0  0  0  0  0  0  0  0  0
   56.7850   28.2119   43.3489 H   0  0  0  0  0  0  0  0  0  0  0  0
   57.6811   29.1754   44.5861 H   0  0  0  0  0  0  0  0  0  0  0  0
   56.0170   30.1960   43.6880 C   0  0  0  0  0  0  0  0  0  0  0  0
   54.9243   30.0833   43.7446 H   0  0  0  0  0  0  0  0  0  0  0  0
   56.3082   30.3850   42.6442 H   0  0  0  0  0  0  0  0  0  0  0  0
   56.4230   31.2780   44.4980 O   0  0  0  0  0  0  0  0  0  0  0  0
   57.6970   31.7500   44.0980 C   0  0  0  0  0  0  0  0  0  0  0  0
   57.5779   32.4343   43.2450 H   0  0  0  0  0  0  0  0  0  0  0  0
   58.3205   30.8904   43.8109 H   0  0  0  0  0  0  0  0  0  0  0  0
   58.3780   32.4920   45.2460 C   0  0  0  0  0  0  0  0  0  0  0  0
   58.2519   33.5761   45.1084 H   0  0  0  0  0  0  0  0  0  0  0  0
   59.4503   32.2471   45.2571 H   0  0  0  0  0  0  0  0  0  0  0  0
   57.7920   32.1010   46.4700 O   0  0  0  0  0  0  0  0  0  0  0  0
   58.0710   33.0720   47.4560 C   0  0  0  0  0  0  0  0  0  0  0  0
   58.6584   32.6155   48.2663 H   0  0  0  0  0  0  0  0  0  0  0  0
   57.1287   33.4634   47.8669 H   0  0  0  0  0  0  0  0  0  0  0  0
   58.8660   34.2070   46.8280 C   0  0  0  0  0  0  0  0  0  0  0  0
   59.3032   34.8312   47.6213 H   0  0  0  0  0  0  0  0  0  0  0  0
   59.6704   33.7900   46.2043 H   0  0  0  0  0  0  0  0  0  0  0  0
   58.1992   34.8205   46.2043 H   0  0  0  0  0  0  0  0  0  0  0  0
   59.3940   28.3820   45.8230 C   0  0  0  0  0  0  0  0  0  0  0  0
   59.3484   27.8365   44.8689 H   0  0  0  0  0  0  0  0  0  0  0  0
   60.3990   29.3310   46.0340 C   0  0  0  0  0  0  0  0  0  0  0  0
   61.1364   29.5343   45.2434 H   0  0  0  0  0  0  0  0  0  0  0  0
   60.4690   30.0220   47.2470 C   0  0  0  0  0  0  0  0  0  0  0  0
   61.8440   31.3170   47.5330 Br  0  0  0  0  0  0  0  0  0  0  0  0
  1  2  1  0
  2  3  2  0
  3  4  1  0
  3  5  1  0
  5  6  1  0
  6  7  1  0
  7  8  1  0
  7  9  2  0
  9 10  1  0
 10 11  1  0
 11 12  2  0
 12 13  1  0
 13 14  1  0
 13 15  1  0
 13 16  1  0
 16 17  1  0
 16 18  1  0
 16 19  1  0
 19 20  1  0
 20 21  1  0
 20 22  1  0
 20 23  1  0
 23 24  1  0
 23 25  1  0
 23 26  1  0
 26 27  1  0
 27 28  1  0
 27 29  1  0
 27 30  1  0
 30 31  1  0
 30 32  1  0
 30 33  1  0
  5 34  2  0
 34 35  1  0
 34 36  1  0
 36 37  1  0
 36 38  2  0
 38 39  1  0
 38  2  1  0
 11  6  1  0
M  CHG  1  10  -1
M  END
>  <UniqueID>  (13) 
13

>  <SMILES>  (13) 
CCOCCOCC/N=c1\[n-]ncn1-c1ccc(Br)cc1

>  <Energy>  (13) 
73.88397877911997

>  <Genealogy>  (13) 
CCOCCOCCN=c1[n-]ncn1-c1ccc(Br)cc1 (protonated)
CCOCCOCC/N=c1\[n-]ncn1-c1ccc(Br)cc1 (cis-trans isomerization)
CCOCCOCC/N=c1\[n-]ncn1-c1ccc(Br)cc1 (3D coordinates assigned)
CCOCCOCC/N=c1\[n-]ncn1-c1ccc(Br)cc1 (optimized conformer: 73.88397877911997 kcal/mol)

>  <smiles>  (13) 
CCOCCOCCN=c1[nH]ncn1-c1ccc(Br)cc1

>  <score_type>  (13) 
oracle

>  <origin>  (13) 
adg

>  <m_score__min__energy>  (13) 
-8.3699999999999992

>  <m_primary>  (13) 
energy

$$$$
13:0
     RDKit          3D

 54 56  0  0  0  0  0  0  0  0999 V2000
   56.9930   31.7150   51.9940 C   0  0  0  0  0  0  0  0  0  0  0  0
   57.8440   30.7060   51.2290 C   0  0  0  0  0  0  0  0  0  0  0  0
   58.8560   31.4150   50.4290 N   0  0  0  0  0  0  0  0  0  0  0  0
   58.9670   32.8300   50.8260 C   0  0  0  0  0  0  0  0  0  0  0  0
   60.4230   33.3030   50.7210 C   0  0  0  0  0  0  0  0  0  0  0  0
   61.2470   32.2740   50.1940 O   0  0  0  0  0  0  0  0  0  0  0  0
   62.3650   32.8180   49.5220 C   0  0  0  0  0  0  0  0  0  0  0  0
   62.3960   32.2650   48.0900 C   0  0  0  0  0  0  0  0  0  0  0  0
   61.6250   30.9400   47.9370 C   0  0  0  0  0  0  0  0  0  0  0  0
   60.1680   31.1120   48.1310 N   0  0  0  0  0  0  0  0  0  0  0  0
   59.4710   31.1640   46.8560 C   0  0  0  0  0  0  0  0  0  0  0  0
   59.3060   32.4280   46.2120 C   0  0  0  0  0  0  0  0  0  0  0  0
   59.9100   33.6130   46.7170 C   0  0  0  0  0  0  0  0  0  0  0  0
   59.6920   34.8510   46.1200 C   0  0  0  0  0  0  0  0  0  0  0  0
   58.8660   34.9530   45.0130 C   0  0  0  0  0  0  0  0  0  0  0  0
   58.2780   33.8120   44.4780 C   0  0  0  0  0  0  0  0  0  0  0  0
   58.5070   32.5270   45.0400 C   0  0  0  0  0  0  0  0  0  0  0  0
   57.9380   31.4010   44.4940 N   0  0  0  0  0  0  0  0  0  0  0  0
   57.3670   31.4480   43.1270 C   0  0  0  0  0  0  0  0  0  0  0  0
   57.9240   30.2160   45.1980 C   0  0  0  0  0  0  0  0  0  0  0  0
   57.0230   29.1880   44.8360 C   0  0  0  0  0  0  0  0  0  0  0  0
   57.0450   27.9550   45.4660 C   0  0  0  0  0  0  0  0  0  0  0  0
   58.0010   27.6890   46.4270 C   0  0  0  0  0  0  0  0  0  0  0  0
   58.9020   28.6750   46.8370 C   0  0  0  0  0  0  0  0  0  0  0  0
   60.3120   27.9430   47.9290 Br  0  0  0  0  0  0  0  0  0  0  0  0
   58.7980   30.0150   46.3140 C   0  0  0  0  0  0  0  0  0  0  0  0
   57.1237   31.5600   53.0751 H   0  0  0  0  0  0  0  0  0  0  0  0
   57.3074   32.7353   51.7292 H   0  0  0  0  0  0  0  0  0  0  0  0
   55.9343   31.5772   51.7292 H   0  0  0  0  0  0  0  0  0  0  0  0
   58.3458   30.0357   51.9424 H   0  0  0  0  0  0  0  0  0  0  0  0
   57.1982   30.1177   50.5605 H   0  0  0  0  0  0  0  0  0  0  0  0
   59.7800   30.9440   50.5890 H   0  0  0  0  0  0  0  0  0  0  0  0
   58.3383   33.4427   50.1632 H   0  0  0  0  0  0  0  0  0  0  0  0
   58.6322   32.9352   51.8685 H   0  0  0  0  0  0  0  0  0  0  0  0
   60.4712   34.1796   50.0582 H   0  0  0  0  0  0  0  0  0  0  0  0
   60.7835   33.5653   51.7266 H   0  0  0  0  0  0  0  0  0  0  0  0
   62.2822   33.9145   49.4936 H   0  0  0  0  0  0  0  0  0  0  0  0
   63.2899   32.5428   50.0500 H   0  0  0  0  0  0  0  0  0  0  0  0
   61.9476   33.0107   47.4170 H   0  0  0  0  0  0  0  0  0  0  0  0
   63.4478   32.0633   47.8390 H   0  0  0  0  0  0  0  0  0  0  0  0
   61.8028   30.5419   46.9271 H   0  0  0  0  0  0  0  0  0  0  0  0
   61.9881   30.2482   48.7113 H   0  0  0  0  0  0  0  0  0  0  0  0
   59.7640   30.3810   48.7460 H   0  0  0  0  0  0  0  0  0  0  0  0
   59.9740   31.9820   48.6770 H   0  0  0  0  0  0  0  0  0  0  0  0
   60.5640   33.5492   47.5992 H   0  0  0  0  0  0  0  0  0  0  0  0
   60.1766   35.7502   46.5281 H   0  0  0  0  0  0  0  0  0  0  0  0
   58.6752   35.9358   44.5573 H   0  0  0  0  0  0  0  0  0  0  0  0
   57.6213   33.9062   43.6006 H   0  0  0  0  0  0  0  0  0  0  0  0
   56.2725   31.5381   43.1897 H   0  0  0  0  0  0  0  0  0  0  0  0
   57.7761   32.3155   42.5884 H   0  0  0  0  0  0  0  0  0  0  0  0
   57.6287   30.5253   42.5884 H   0  0  0  0  0  0  0  0  0  0  0  0
   56.2893   29.3716   44.0373 H   0  0  0  0  0  0  0  0  0  0  0  0
   56.3020   27.1882   45.2015 H   0  0  0  0  0  0  0  0  0  0  0  0
   58.0537   26.6862   46.8760 H   0  0  0  0  0  0  0  0  0  0  0  0
  1  2  1  0
  2  3  1  0
  3  4  1  0
  4  5  1  0
  5  6  1  0
  6  7  1  0
  7  8  1  0
  8  9  1  0
  9 10  1  0
 10 11  1  0
 11 12  2  0
 12 13  1  0
 13 14  2  0
 14 15  1  0
 15 16  2  0
 16 17  1  0
 17 18  2  0
 18 19  1  0
 18 20  1  0
 20 21  2  0
 21 22  1  0
 22 23  2  0
 23 24  1  0
 24 25  1  0
 24 26  2  0
 26 11  1  0
 17 12  1  0
 26 20  1  0
  1 27  1  0
  1 28  1  0
  1 29  1  0
  2 30  1  0
  2 31  1  0
  3 32  1  0
  4 33  1  0
  4 34  1  0
  5 35  1  0
  5 36  1  0
  7 37  1  0
  7 38  1  0
  8 39  1  0
  8 40  1  0
  9 41  1  0
  9 42  1  0
 10 43  1  0
 10 44  1  0
 13 45  1  0
 14 46  1  0
 15 47  1  0
 16 48  1  0
 19 49  1  0
 19 50  1  0
 19 51  1  0
 21 52  1  0
 22 53  1  0
 23 54  1  0
M  CHG  2  10   1  18   1
M  END
>  <UniqueID>  (14) 
14

>  <SMILES>  (14) 
CCNCCOCCC[NH2+]c1c2ccccc2[n+](C)c2cccc(Br)c12

>  <Energy>  (14) 
92.3333508614278

>  <Genealogy>  (14) 
CCNCCOCCC[NH2+]c1c2ccccc2[n+](C)c2cccc(Br)c12 (protonated)
CCNCCOCCC[NH2+]c1c2ccccc2[n+](C)c2cccc(Br)c12 (3D coordinates assigned)
CCNCCOCCC[NH2+]c1c2ccccc2[n+](C)c2cccc(Br)c12 (optimized conformer: 92.3333508614278 kcal/mol)

>  <smiles>  (14) 
CCNCCOCCCNc1c2ccccc2[n+](C)c2cccc(Br)c12

>  <score_type>  (14) 
oracle

>  <origin>  (14) 
adg

>  <m_score__min__energy>  (14) 
-3.3999999999999999

>  <m_primary>  (14) 
energy

$$$$
14:0
     RDKit          3D

 55 57  0  0  0  0  0  0  0  0999 V2000
   57.5070   25.0220   44.5120 C   0  0  0  0  0  0  0  0  0  0  0  0
   58.1800   26.3960   44.6320 C   0  0  0  0  0  0  0  0  0  0  0  0
   58.1500   27.1360   43.2890 C   0  0  0  0  0  0  0  0  0  0  0  0
   57.5840   27.2420   45.7830 C   0  0  0  0  0  0  0  0  0  0  0  0
   58.5010   28.3400   46.2710 C   0  0  0  0  0  0  0  0  0  0  0  0
   59.0280   29.2800   45.3710 C   0  0  0  0  0  0  0  0  0  0  0  0
   59.8680   30.3010   45.8240 C   0  0  0  0  0  0  0  0  0  0  0  0
   60.1960   30.3960   47.1850 C   0  0  0  0  0  0  0  0  0  0  0  0
   61.1190   31.4870   47.6770 C   0  0  0  0  0  0  0  0  0  0  0  0
   60.3980   32.5250   48.4630 N   0  0  0  0  0  0  0  0  0  0  0  0
   58.9270   32.3020   48.4470 C   0  0  0  0  0  0  0  0  0  0  0  0
   58.2010   33.0590   47.3130 C   0  0  0  0  0  0  0  0  0  0  0  0
   59.1280   33.3210   46.2000 N   0  0  0  0  0  0  0  0  0  0  0  0
   58.4220   33.8580   45.0200 C   0  0  0  0  0  0  0  0  0  0  0  0
   57.8180   32.7350   44.2190 C   0  0  0  0  0  0  0  0  0  0  0  0
   58.0760   32.6380   42.8420 C   0  0  0  0  0  0  0  0  0  0  0  0
   57.5360   31.5880   42.0960 C   0  0  0  0  0  0  0  0  0  0  0  0
   56.7350   30.6250   42.7190 C   0  0  0  0  0  0  0  0  0  0  0  0
   56.4760   30.7120   44.0900 C   0  0  0  0  0  0  0  0  0  0  0  0
   55.7030   29.7760   44.6940 F   0  0  0  0  0  0  0  0  0  0  0  0
   57.0160   31.7630   44.8390 C   0  0  0  0  0  0  0  0  0  0  0  0
   60.2020   34.2420   46.6280 C   0  0  0  0  0  0  0  0  0  0  0  0
   60.7260   33.9070   48.0430 C   0  0  0  0  0  0  0  0  0  0  0  0
   59.6760   29.4530   48.0860 C   0  0  0  0  0  0  0  0  0  0  0  0
   58.8350   28.4320   47.6320 C   0  0  0  0  0  0  0  0  0  0  0  0
   57.3105   24.6209   45.5172 H   0  0  0  0  0  0  0  0  0  0  0  0
   56.5575   25.1252   43.9664 H   0  0  0  0  0  0  0  0  0  0  0  0
   58.1706   24.3351   43.9664 H   0  0  0  0  0  0  0  0  0  0  0  0
   59.2349   26.2286   44.8950 H   0  0  0  0  0  0  0  0  0  0  0  0
   58.1060   28.2203   43.4687 H   0  0  0  0  0  0  0  0  0  0  0  0
   59.0586   26.8956   42.7175 H   0  0  0  0  0  0  0  0  0  0  0  0
   57.2638   26.8228   42.7175 H   0  0  0  0  0  0  0  0  0  0  0  0
   56.6503   27.7023   45.4276 H   0  0  0  0  0  0  0  0  0  0  0  0
   57.4211   26.5602   46.6307 H   0  0  0  0  0  0  0  0  0  0  0  0
   58.7780   29.2124   44.3019 H   0  0  0  0  0  0  0  0  0  0  0  0
   60.2738   31.0333   45.1105 H   0  0  0  0  0  0  0  0  0  0  0  0
   61.8930   31.0347   48.3145 H   0  0  0  0  0  0  0  0  0  0  0  0
   61.5597   31.9774   46.7965 H   0  0  0  0  0  0  0  0  0  0  0  0
   60.7060   32.4260   49.4600 H   0  0  0  0  0  0  0  0  0  0  0  0
   58.7395   31.2253   48.3225 H   0  0  0  0  0  0  0  0  0  0  0  0
   58.5311   32.6873   49.3982 H   0  0  0  0  0  0  0  0  0  0  0  0
   57.3605   32.4495   46.9497 H   0  0  0  0  0  0  0  0  0  0  0  0
   57.8294   34.0180   47.7031 H   0  0  0  0  0  0  0  0  0  0  0  0
   57.6234   34.5374   45.3526 H   0  0  0  0  0  0  0  0  0  0  0  0
   59.1402   34.4025   44.3894 H   0  0  0  0  0  0  0  0  0  0  0  0
   58.7063   33.3925   42.3486 H   0  0  0  0  0  0  0  0  0  0  0  0
   57.7407   31.5181   41.0175 H   0  0  0  0  0  0  0  0  0  0  0  0
   56.3090   29.7994   42.1301 H   0  0  0  0  0  0  0  0  0  0  0  0
   56.8116   31.8283   45.9179 H   0  0  0  0  0  0  0  0  0  0  0  0
   61.0362   34.1699   45.9146 H   0  0  0  0  0  0  0  0  0  0  0  0
   59.7852   35.2597   46.6534 H   0  0  0  0  0  0  0  0  0  0  0  0
   61.8194   34.0267   48.0506 H   0  0  0  0  0  0  0  0  0  0  0  0
   60.2361   34.5934   48.7493 H   0  0  0  0  0  0  0  0  0  0  0  0
   59.9313   29.5176   49.1540 H   0  0  0  0  0  0  0  0  0  0  0  0
   58.4329   27.6970   48.3448 H   0  0  0  0  0  0  0  0  0  0  0  0
  1  2  1  0
  2  3  1  0
  2  4  1  0
  4  5  1  0
  5  6  2  0
  6  7  1  0
  7  8  2  0
  8  9  1  0
  9 10  1  0
 10 11  1  0
 11 12  1  0
 12 13  1  0
 13 14  1  0
 14 15  1  0
 15 16  2  0
 16 17  1  0
 17 18  2  0
 18 19  1  0
 19 20  1  0
 19 21  2  0
 13 22  1  0
 22 23  1  0
  8 24  1  0
 24 25  2  0
 25  5  1  0
 23 10  1  0
 21 15  1  0
  1 26  1  0
  1 27  1  0
  1 28  1  0
  2 29  1  0
  3 30  1  0
  3 31  1  0
  3 32  1  0
  4 33  1  0
  4 34  1  0
  6 35  1  0
  7 36  1  0
  9 37  1  0
  9 38  1  0
 10 39  1  0
 11 40  1  0
 11 41  1  0
 12 42  1  0
 12 43  1  0
 14 44  1  0
 14 45  1  0
 16 46  1  0
 17 47  1  0
 18 48  1  0
 21 49  1  0
 22 50  1  0
 22 51  1  0
 23 52  1  0
 23 53  1  0
 24 54  1  0
 25 55  1  0
M  CHG  1  10   1
M  END
>  <UniqueID>  (15) 
15

>  <SMILES>  (15) 
CC(C)Cc1ccc(C[NH+]2CCN(Cc3cccc(F)c3)CC2)cc1

>  <Energy>  (15) 
62.02233364781094

>  <Genealogy>  (15) 
CC(C)Cc1ccc(C[NH+]2CCN(Cc3cccc(F)c3)CC2)cc1 (protonated)
CC(C)Cc1ccc(C[NH+]2CCN(Cc3cccc(F)c3)CC2)cc1 (3D coordinates assigned)
CC(C)Cc1ccc(C[NH+]2CCN(Cc3cccc(F)c3)CC2)cc1 (nonaromatic ring conformer: 62.02233364781094 kcal/mol)

>  <smiles>  (15) 
CC(C)Cc1ccc(CN2CCN(Cc3cccc(F)c3)CC2)cc1

>  <score_type>  (15) 
oracle

>  <origin>  (15) 
adg

>  <m_score__min__energy>  (15) 
-6.7999999999999998

>  <m_primary>  (15) 
energy

$$$$
15:0
     RDKit          3D

 49 51  0  0  0  0  0  0  0  0999 V2000
   55.0680   25.2030   45.6250 C   0  0  0  0  0  0  0  0  0  0  0  0
   55.3620   26.5570   45.9490 O   0  0  0  0  0  0  0  0  0  0  0  0
   56.6450   27.1230   45.9030 C   0  0  0  0  0  0  0  0  0  0  0  0
   57.7260   26.3490   46.3350 C   0  0  0  0  0  0  0  0  0  0  0  0
   59.0230   26.8680   46.3080 C   0  0  0  0  0  0  0  0  0  0  0  0
   59.2510   28.1670   45.8490 C   0  0  0  0  0  0  0  0  0  0  0  0
   58.1770   28.9670   45.4140 C   0  0  0  0  0  0  0  0  0  0  0  0
   58.3730   30.3110   44.9300 N   0  0  0  0  0  0  0  0  0  0  0  0
   57.5290   30.9690   43.9320 C   0  0  0  0  0  0  0  0  0  0  0  0
   58.0500   32.3770   43.6300 C   0  0  0  0  0  0  0  0  0  0  0  0
   58.6850   32.9400   44.8260 N   0  0  0  0  0  0  0  0  0  0  0  0
   57.7060   33.0730   45.9120 C   0  0  0  0  0  0  0  0  0  0  0  0
   58.1390   34.1640   46.8960 C   0  0  0  0  0  0  0  0  0  0  0  0
   59.6030   34.0520   47.2260 C   0  0  0  0  0  0  0  0  0  0  0  0
   60.5630   34.0700   46.2660 N   0  0  0  0  0  0  0  0  0  0  0  0
   61.7060   33.8340   46.9300 C   0  0  0  0  0  0  0  0  0  0  0  0
   62.9920   33.7150   46.4110 C   0  0  0  0  0  0  0  0  0  0  0  0
   64.0340   33.4220   47.3100 C   0  0  0  0  0  0  0  0  0  0  0  0
   63.7640   33.2490   48.6870 C   0  0  0  0  0  0  0  0  0  0  0  0
   62.4490   33.3700   49.1770 C   0  0  0  0  0  0  0  0  0  0  0  0
   61.4400   33.6740   48.2610 C   0  0  0  0  0  0  0  0  0  0  0  0
   60.1160   33.8210   48.4700 N   0  0  0  0  0  0  0  0  0  0  0  0
   59.4020   33.6170   49.7310 C   0  0  0  0  0  0  0  0  0  0  0  0
   56.8770   28.4340   45.4400 C   0  0  0  0  0  0  0  0  0  0  0  0
   54.9421   24.6233   46.5514 H   0  0  0  0  0  0  0  0  0  0  0  0
   54.1396   25.1601   45.0366 H   0  0  0  0  0  0  0  0  0  0  0  0
   55.8950   24.7789   45.0366 H   0  0  0  0  0  0  0  0  0  0  0  0
   57.5545   25.3250   46.6984 H   0  0  0  0  0  0  0  0  0  0  0  0
   59.8674   26.2512   46.6495 H   0  0  0  0  0  0  0  0  0  0  0  0
   60.2753   28.5675   45.8271 H   0  0  0  0  0  0  0  0  0  0  0  0
   59.1720   30.8650   45.3140 H   0  0  0  0  0  0  0  0  0  0  0  0
   57.5341   30.3752   43.0060 H   0  0  0  0  0  0  0  0  0  0  0  0
   56.5058   31.0467   44.3283 H   0  0  0  0  0  0  0  0  0  0  0  0
   58.7870   32.3264   42.8150 H   0  0  0  0  0  0  0  0  0  0  0  0
   57.2083   33.0186   43.3301 H   0  0  0  0  0  0  0  0  0  0  0  0
   59.4220   32.2670   45.1440 H   0  0  0  0  0  0  0  0  0  0  0  0
   56.7270   33.3379   45.4860 H   0  0  0  0  0  0  0  0  0  0  0  0
   57.6399   32.1157   46.4497 H   0  0  0  0  0  0  0  0  0  0  0  0
   57.9474   35.1492   46.4459 H   0  0  0  0  0  0  0  0  0  0  0  0
   57.5630   34.0424   47.8252 H   0  0  0  0  0  0  0  0  0  0  0  0
   60.4370   34.1970   45.2370 H   0  0  0  0  0  0  0  0  0  0  0  0
   63.1868   33.8454   45.3363 H   0  0  0  0  0  0  0  0  0  0  0  0
   65.0652   33.3269   46.9391 H   0  0  0  0  0  0  0  0  0  0  0  0
   64.5863   33.0184   49.3802 H   0  0  0  0  0  0  0  0  0  0  0  0
   62.2246   33.2298   50.2447 H   0  0  0  0  0  0  0  0  0  0  0  0
   60.0824   33.8114   50.5732 H   0  0  0  0  0  0  0  0  0  0  0  0
   58.5467   34.3067   49.7838 H   0  0  0  0  0  0  0  0  0  0  0  0
   59.0402   32.5795   49.7838 H   0  0  0  0  0  0  0  0  0  0  0  0
   56.0310   29.0467   45.0952 H   0  0  0  0  0  0  0  0  0  0  0  0
  1  2  1  0
  2  3  1  0
  3  4  2  0
  4  5  1  0
  5  6  2  0
  6  7  1  0
  7  8  1  0
  8  9  1  0
  9 10  1  0
 10 11  1  0
 11 12  1  0
 12 13  1  0
 13 14  1  0
 14 15  2  0
 15 16  1  0
 16 17  2  0
 17 18  1  0
 18 19  2  0
 19 20  1  0
 20 21  2  0
 21 22  1  0
 22 23  1  0
  7 24  2  0
 24  3  1  0
 22 14  1  0
 21 16  1  0
  1 25  1  0
  1 26  1  0
  1 27  1  0
  4 28  1  0
  5 29  1  0
  6 30  1  0
  8 31  1  0
  9 32  1  0
  9 33  1  0
 10 34  1  0
 10 35  1  0
 11 36  1  0
 12 37  1  0
 12 38  1  0
 13 39  1  0
 13 40  1  0
 15 41  1  0
 17 42  1  0
 18 43  1  0
 19 44  1  0
 20 45  1  0
 23 46  1  0
 23 47  1  0
 23 48  1  0
 24 49  1  0
M  CHG  1  15   1
M  END
>  <UniqueID>  (16) 
16

>  <SMILES>  (16) 
COc1cccc(NCCNCCc2[nH+]c3ccccc3n2C)c1

>  <Energy>  (16) 
81.85054376740743

>  <Genealogy>  (16) 
COc1cccc(NCCNCCc2[nH+]c3ccccc3n2C)c1 (protonated)
COc1cccc(NCCNCCc2[nH+]c3ccccc3n2C)c1 (3D coordinates assigned)
COc1cccc(NCCNCCc2[nH+]c3ccccc3n2C)c1 (optimized conformer: 81.85054376740743 kcal/mol)

>  <smiles>  (16) 
COc1cccc(NCCNCCc2nc3ccccc3n2C)c1

>  <score_type>  (16) 
oracle

>  <origin>  (16) 
adg

>  <m_score__min__energy>  (16) 
-6.2800000000000002

>  <m_primary>  (16) 
energy

$$$$
16:0
     RDKit          3D

 52 55  0  0  0  0  0  0  0  0999 V2000
   54.3640   30.8350   51.6910 C   0  0  0  0  0  0  0  0  0  0  0  0
   55.8020   30.4300   51.9940 C   0  0  0  0  0  0  0  0  0  0  0  0
   56.5830   31.5850   52.6360 C   0  0  0  0  0  0  0  0  0  0  0  0
   57.6160   32.1060   51.7260 N   0  0  0  0  0  0  0  0  0  0  0  0
   58.6370   32.9100   52.4230 C   0  0  0  0  0  0  0  0  0  0  0  0
   60.0320   32.3660   52.0880 C   0  0  0  0  0  0  0  0  0  0  0  0
   60.0910   31.6020   50.8200 N   0  0  0  0  0  0  0  0  0  0  0  0
   60.9830   32.2040   49.8280 C   0  0  0  0  0  0  0  0  0  0  0  0
   62.3930   32.1420   50.0580 C   0  0  0  0  0  0  0  0  0  0  0  0
   62.9530   31.5300   51.2150 C   0  0  0  0  0  0  0  0  0  0  0  0
   64.3270   31.5040   51.4290 C   0  0  0  0  0  0  0  0  0  0  0  0
   65.1860   32.0660   50.5000 C   0  0  0  0  0  0  0  0  0  0  0  0
   64.6730   32.6500   49.3470 C   0  0  0  0  0  0  0  0  0  0  0  0
   63.2730   32.6980   49.1020 C   0  0  0  0  0  0  0  0  0  0  0  0
   62.7730   33.2460   47.9500 N   0  0  0  0  0  0  0  0  0  0  0  0
   63.6960   33.8520   46.9610 C   0  0  0  0  0  0  0  0  0  0  0  0
   61.4230   33.2180   47.6950 C   0  0  0  0  0  0  0  0  0  0  0  0
   60.9910   33.6360   46.4720 N   0  0  0  0  0  0  0  0  0  0  0  0
   59.6940   33.6940   46.1270 C   0  0  0  0  0  0  0  0  0  0  0  0
   59.3270   34.1200   44.8460 C   0  0  0  0  0  0  0  0  0  0  0  0
   57.9750   34.2140   44.5030 C   0  0  0  0  0  0  0  0  0  0  0  0
   56.9930   33.8890   45.4430 C   0  0  0  0  0  0  0  0  0  0  0  0
   57.3630   33.4670   46.7240 C   0  0  0  0  0  0  0  0  0  0  0  0
   58.7260   33.3610   47.0720 C   0  0  0  0  0  0  0  0  0  0  0  0
   59.1520   32.9480   48.3480 C   0  0  0  0  0  0  0  0  0  0  0  0
   58.2550   32.7850   49.2140 O   0  0  0  0  0  0  0  0  0  0  0  0
   60.5070   32.7820   48.6450 N   0  0  0  0  0  0  0  0  0  0  0  0
   53.8197   30.9883   52.6345 H   0  0  0  0  0  0  0  0  0  0  0  0
   54.3608   31.7690   51.1099 H   0  0  0  0  0  0  0  0  0  0  0  0
   53.8738   30.0400   51.1099 H   0  0  0  0  0  0  0  0  0  0  0  0
   55.7952   29.5742   52.6851 H   0  0  0  0  0  0  0  0  0  0  0  0
   56.2941   30.1619   51.0474 H   0  0  0  0  0  0  0  0  0  0  0  0
   55.8827   32.3961   52.8844 H   0  0  0  0  0  0  0  0  0  0  0  0
   57.0788   31.2063   53.5420 H   0  0  0  0  0  0  0  0  0  0  0  0
   57.1340   32.7190   51.0280 H   0  0  0  0  0  0  0  0  0  0  0  0
   58.5640   33.9580   52.0970 H   0  0  0  0  0  0  0  0  0  0  0  0
   58.4715   32.8517   53.5089 H   0  0  0  0  0  0  0  0  0  0  0  0
   60.7261   33.2160   52.0126 H   0  0  0  0  0  0  0  0  0  0  0  0
   60.3040   31.6682   52.8936 H   0  0  0  0  0  0  0  0  0  0  0  0
   60.4330   30.6400   51.0370 H   0  0  0  0  0  0  0  0  0  0  0  0
   59.1430   31.3590   50.4770 H   0  0  0  0  0  0  0  0  0  0  0  0
   62.2843   31.0676   51.9560 H   0  0  0  0  0  0  0  0  0  0  0  0
   64.7321   31.0359   52.3383 H   0  0  0  0  0  0  0  0  0  0  0  0
   66.2721   32.0506   50.6736 H   0  0  0  0  0  0  0  0  0  0  0  0
   65.3642   33.0837   48.6094 H   0  0  0  0  0  0  0  0  0  0  0  0
   64.5027   34.3817   47.4889 H   0  0  0  0  0  0  0  0  0  0  0  0
   64.1280   33.0612   46.3301 H   0  0  0  0  0  0  0  0  0  0  0  0
   63.1422   34.5628   46.3301 H   0  0  0  0  0  0  0  0  0  0  0  0
   60.1013   34.3807   44.1095 H   0  0  0  0  0  0  0  0  0  0  0  0
   57.6844   34.5434   43.4945 H   0  0  0  0  0  0  0  0  0  0  0  0
   55.9288   33.9652   45.1752 H   0  0  0  0  0  0  0  0  0  0  0  0
   56.5879   33.2167   47.4633 H   0  0  0  0  0  0  0  0  0  0  0  0
  1  2  1  0
  2  3  1  0
  3  4  1  0
  4  5  1  0
  5  6  1  0
  6  7  1  0
  7  8  1  0
  8  9  2  0
  9 10  1  0
 10 11  2  0
 11 12  1  0
 12 13  2  0
 13 14  1  0
 14 15  2  0
 15 16  1  0
 15 17  1  0
 17 18  2  0
 18 19  1  0
 19 20  2  0
 20 21  1  0
 21 22  2  0
 22 23  1  0
 23 24  2  0
 24 25  1  0
 25 26  2  0
 25 27  1  0
 27  8  1  0
 14  9  1  0
 27 17  1  0
 24 19  1  0
  1 28  1  0
  1 29  1  0
  1 30  1  0
  2 31  1  0
  2 32  1  0
  3 33  1  0
  3 34  1  0
  4 35  1  0
  5 36  1  0
  5 37  1  0
  6 38  1  0
  6 39  1  0
  7 40  1  0
  7 41  1  0
 10 42  1  0
 11 43  1  0
 12 44  1  0
 13 45  1  0
 16 46  1  0
 16 47  1  0
 16 48  1  0
 20 49  1  0
 21 50  1  0
 22 51  1  0
 23 52  1  0
M  CHG  2   7   1  15   1
M  END
>  <UniqueID>  (17) 
17

>  <SMILES>  (17) 
CCCNCC[NH2+]c1c2ccccc2[n+](C)c2nc3ccccc3c(=O)n12

>  <Energy>  (17) 
92.90445728652092

>  <Genealogy>  (17) 
CCCNCC[NH2+]c1c2ccccc2[n+](C)c2nc3ccccc3c(=O)n12 (protonated)
CCCNCC[NH2+]c1c2ccccc2[n+](C)c2nc3ccccc3c(=O)n12 (3D coordinates assigned)
CCCNCC[NH2+]c1c2ccccc2[n+](C)c2nc3ccccc3c(=O)n12 (optimized conformer: 92.90445728652092 kcal/mol)

>  <smiles>  (17) 
CCCNCCNc1c2ccccc2[n+](C)c2nc3ccccc3c(=O)n12

>  <score_type>  (17) 
oracle

>  <origin>  (17) 
adg

>  <m_score__min__energy>  (17) 
-4.9299999999999997

>  <m_primary>  (17) 
energy

$$$$
17:0
     RDKit          3D

 61 63  0  0  0  0  0  0  0  0999 V2000
   60.3290   33.8380   50.0630 C   0  0  0  0  0  0  0  0  0  0  0  0
   61.6810   33.6870   49.3680 C   0  0  0  0  0  0  0  0  0  0  0  0
   62.1550   32.2820   49.3890 N   0  0  0  0  0  0  0  0  0  0  0  0
   63.4250   32.0580   48.6520 C   0  0  0  0  0  0  0  0  0  0  0  0
   63.4770   32.7260   47.2700 C   0  0  0  0  0  0  0  0  0  0  0  0
   62.2010   31.7420   50.7680 C   0  0  0  0  0  0  0  0  0  0  0  0
   62.4280   30.2290   50.7380 C   0  0  0  0  0  0  0  0  0  0  0  0
   61.6510   29.6350   49.7160 O   0  0  0  0  0  0  0  0  0  0  0  0
   60.2670   29.6730   50.0230 C   0  0  0  0  0  0  0  0  0  0  0  0
   59.5440   30.6780   49.1180 C   0  0  0  0  0  0  0  0  0  0  0  0
   60.3200   30.9490   47.8950 N   0  0  0  0  0  0  0  0  0  0  0  0
   59.4390   31.1170   46.7520 C   0  0  0  0  0  0  0  0  0  0  0  0
   59.2000   32.4040   46.2030 C   0  0  0  0  0  0  0  0  0  0  0  0
   59.6510   33.5840   46.8450 C   0  0  0  0  0  0  0  0  0  0  0  0
   59.3890   34.8400   46.3050 C   0  0  0  0  0  0  0  0  0  0  0  0
   58.6540   34.9560   45.1350 C   0  0  0  0  0  0  0  0  0  0  0  0
   58.1930   33.8150   44.4840 C   0  0  0  0  0  0  0  0  0  0  0  0
   58.4790   32.5180   44.9820 C   0  0  0  0  0  0  0  0  0  0  0  0
   58.0640   31.3860   44.3130 N   0  0  0  0  0  0  0  0  0  0  0  0
   57.6430   31.4730   42.8960 C   0  0  0  0  0  0  0  0  0  0  0  0
   58.0630   30.1650   44.9560 C   0  0  0  0  0  0  0  0  0  0  0  0
   57.3550   29.0560   44.4280 C   0  0  0  0  0  0  0  0  0  0  0  0
   57.3780   27.8170   45.0640 C   0  0  0  0  0  0  0  0  0  0  0  0
   58.0940   27.6500   46.2420 C   0  0  0  0  0  0  0  0  0  0  0  0
   58.1050   26.0540   47.0660 S   0  0  0  0  0  0  0  0  0  0  0  0
   56.5540   25.5050   46.2900 C   0  0  0  0  0  0  0  0  0  0  0  0
   58.7740   28.7310   46.8040 C   0  0  0  0  0  0  0  0  0  0  0  0
   58.7680   30.0030   46.1800 C   0  0  0  0  0  0  0  0  0  0  0  0
   60.4734   33.8219   51.1534 H   0  0  0  0  0  0  0  0  0  0  0  0
   59.8697   34.7930   49.7680 H   0  0  0  0  0  0  0  0  0  0  0  0
   59.6703   33.0078   49.7680 H   0  0  0  0  0  0  0  0  0  0  0  0
   61.5828   34.0144   48.3225 H   0  0  0  0  0  0  0  0  0  0  0  0
   62.4145   34.3043   49.9074 H   0  0  0  0  0  0  0  0  0  0  0  0
   64.2511   32.4566   49.2591 H   0  0  0  0  0  0  0  0  0  0  0  0
   63.5052   30.9741   48.4824 H   0  0  0  0  0  0  0  0  0  0  0  0
   63.5618   33.8159   47.3925 H   0  0  0  0  0  0  0  0  0  0  0  0
   64.3486   32.3506   46.7138 H   0  0  0  0  0  0  0  0  0  0  0  0
   62.5578   32.4900   46.7138 H   0  0  0  0  0  0  0  0  0  0  0  0
   63.0238   32.2216   51.3184 H   0  0  0  0  0  0  0  0  0  0  0  0
   61.2428   31.9505   51.2663 H   0  0  0  0  0  0  0  0  0  0  0  0
   63.4924   30.0257   50.5489 H   0  0  0  0  0  0  0  0  0  0  0  0
   62.1288   29.8035   51.7073 H   0  0  0  0  0  0  0  0  0  0  0  0
   59.8348   28.6729   49.8712 H   0  0  0  0  0  0  0  0  0  0  0  0
   60.1432   29.9843   51.0708 H   0  0  0  0  0  0  0  0  0  0  0  0
   58.5633   30.2666   48.8368 H   0  0  0  0  0  0  0  0  0  0  0  0
   59.4251   31.6215   49.6709 H   0  0  0  0  0  0  0  0  0  0  0  0
   61.0080   30.1820   47.7180 H   0  0  0  0  0  0  0  0  0  0  0  0
   60.9220   31.7920   48.0240 H   0  0  0  0  0  0  0  0  0  0  0  0
   60.2171   33.5063   47.7849 H   0  0  0  0  0  0  0  0  0  0  0  0
   59.7660   35.7428   46.8078 H   0  0  0  0  0  0  0  0  0  0  0  0
   58.4348   35.9511   44.7205 H   0  0  0  0  0  0  0  0  0  0  0  0
   57.5958   33.9213   43.5663 H   0  0  0  0  0  0  0  0  0  0  0  0
   56.5669   31.6954   42.8462 H   0  0  0  0  0  0  0  0  0  0  0  0
   58.2065   32.2737   42.3946 H   0  0  0  0  0  0  0  0  0  0  0  0
   57.8429   30.5146   42.3946 H   0  0  0  0  0  0  0  0  0  0  0  0
   56.7773   29.1761   43.4997 H   0  0  0  0  0  0  0  0  0  0  0  0
   56.8274   26.9684   44.6319 H   0  0  0  0  0  0  0  0  0  0  0  0
   55.8243   25.2467   47.0716 H   0  0  0  0  0  0  0  0  0  0  0  0
   56.1502   26.3148   45.6646 H   0  0  0  0  0  0  0  0  0  0  0  0
   56.7496   24.6215   45.6646 H   0  0  0  0  0  0  0  0  0  0  0  0
   59.3237   28.5934   47.7468 H   0  0  0  0  0  0  0  0  0  0  0  0
  1  2  1  0
  2  3  1  0
  3  4  1  0
  4  5  1  0
  3  6  1  0
  6  7  1  0
  7  8  1  0
  8  9  1  0
  9 10  1  0
 10 11  1  0
 11 12  1  0
 12 13  2  0
 13 14  1  0
 14 15  2  0
 15 16  1  0
 16 17  2  0
 17 18  1  0
 18 19  2  0
 19 20  1  0
 19 21  1  0
 21 22  2  0
 22 23  1  0
 23 24  2  0
 24 25  1  0
 25 26  1  0
 24 27  1  0
 27 28  2  0
 28 12  1  0
 18 13  1  0
 28 21  1  0
  1 29  1  0
  1 30  1  0
  1 31  1  0
  2 32  1  0
  2 33  1  0
  4 34  1  0
  4 35  1  0
  5 36  1  0
  5 37  1  0
  5 38  1  0
  6 39  1  0
  6 40  1  0
  7 41  1  0
  7 42  1  0
  9 43  1  0
  9 44  1  0
 10 45  1  0
 10 46  1  0
 11 47  1  0
 11 48  1  0
 14 49  1  0
 15 50  1  0
 16 51  1  0
 17 52  1  0
 20 53  1  0
 20 54  1  0
 20 55  1  0
 22 56  1  0
 23 57  1  0
 26 58  1  0
 26 59  1  0
 26 60  1  0
 27 61  1  0
M  CHG  2  11   1  19   1
M  END
>  <UniqueID>  (18) 
18

>  <SMILES>  (18) 
CCN(CC)CCOCC[NH2+]c1c2ccccc2[n+](C)c2ccc(SC)cc12

>  <Energy>  (18) 
86.64283262478463

>  <Genealogy>  (18) 
CCN(CC)CCOCC[NH2+]c1c2ccccc2[n+](C)c2ccc(SC)cc12 (protonated)
CCN(CC)CCOCC[NH2+]c1c2ccccc2[n+](C)c2ccc(SC)cc12 (3D coordinates assigned)
CCN(CC)CCOCC[NH2+]c1c2ccccc2[n+](C)c2ccc(SC)cc12 (optimized conformer: 86.64283262478463 kcal/mol)

>  <smiles>  (18) 
CCN(CC)CCOCCNc1c2ccccc2[n+](C)c2ccc(SC)cc12

>  <score_type>  (18) 
oracle

>  <origin>  (18) 
adg

>  <m_score__min__energy>  (18) 
-4.0099999999999998

>  <m_primary>  (18) 
energy

$$$$
18:0
     RDKit          3D

 52 54  0  0  0  0  0  0  0  0999 V2000
   64.5230   33.0230   49.0730 C   0  0  0  0  0  0  0  0  0  0  0  0
   63.3420   33.0190   48.1910 N   0  0  0  0  0  0  0  0  0  0  0  0
   63.7730   33.1060   46.7880 C   0  0  0  0  0  0  0  0  0  0  0  0
   62.4390   34.1430   48.5160 C   0  0  0  0  0  0  0  0  0  0  0  0
   61.0130   33.6590   48.6860 C   0  0  0  0  0  0  0  0  0  0  0  0
   60.6290   33.1340   49.9310 C   0  0  0  0  0  0  0  0  0  0  0  0
   59.3400   32.6480   50.1320 C   0  0  0  0  0  0  0  0  0  0  0  0
   58.4150   32.6690   49.0930 C   0  0  0  0  0  0  0  0  0  0  0  0
   58.7670   33.1740   47.8330 C   0  0  0  0  0  0  0  0  0  0  0  0
   60.0680   33.7060   47.6240 C   0  0  0  0  0  0  0  0  0  0  0  0
   60.4730   34.2140   46.2490 C   0  0  0  0  0  0  0  0  0  0  0  0
   59.2660   34.5850   45.3910 C   0  0  0  0  0  0  0  0  0  0  0  0
   58.2950   33.4960   45.4430 N   0  0  0  0  0  0  0  0  0  0  0  0
   58.1340   32.6010   44.3270 C   0  0  0  0  0  0  0  0  0  0  0  0
   58.0720   33.0740   43.1580 O   0  0  0  0  0  0  0  0  0  0  0  0
   58.0320   31.1340   44.5200 C   0  0  0  0  0  0  0  0  0  0  0  0
   57.1200   30.3770   43.7710 C   0  0  0  0  0  0  0  0  0  0  0  0
   57.0330   28.9970   43.9530 C   0  0  0  0  0  0  0  0  0  0  0  0
   57.8580   28.3560   44.8780 C   0  0  0  0  0  0  0  0  0  0  0  0
   58.7950   29.0860   45.6360 C   0  0  0  0  0  0  0  0  0  0  0  0
   59.6590   28.4200   46.5930 N   0  0  0  0  0  0  0  0  0  0  0  0
   60.1020   27.0390   46.3630 C   0  0  0  0  0  0  0  0  0  0  0  0
   60.1040   29.1140   47.8080 C   0  0  0  0  0  0  0  0  0  0  0  0
   58.8720   30.4830   45.4410 C   0  0  0  0  0  0  0  0  0  0  0  0
   57.7100   33.1890   46.7520 C   0  0  0  0  0  0  0  0  0  0  0  0
   64.1962   33.0219   50.1233 H   0  0  0  0  0  0  0  0  0  0  0  0
   65.1301   32.1269   48.8769 H   0  0  0  0  0  0  0  0  0  0  0  0
   65.1240   33.9232   48.8769 H   0  0  0  0  0  0  0  0  0  0  0  0
   64.8505   33.3235   46.7483 H   0  0  0  0  0  0  0  0  0  0  0  0
   63.5732   32.1494   46.2830 H   0  0  0  0  0  0  0  0  0  0  0  0
   63.2177   33.9102   46.2830 H   0  0  0  0  0  0  0  0  0  0  0  0
   62.7733   34.6146   49.4519 H   0  0  0  0  0  0  0  0  0  0  0  0
   62.4680   34.8677   47.6890 H   0  0  0  0  0  0  0  0  0  0  0  0
   61.3552   33.1066   50.7567 H   0  0  0  0  0  0  0  0  0  0  0  0
   59.0521   32.2464   51.1148 H   0  0  0  0  0  0  0  0  0  0  0  0
   57.3978   32.2858   49.2615 H   0  0  0  0  0  0  0  0  0  0  0  0
   61.1062   35.1048   46.3732 H   0  0  0  0  0  0  0  0  0  0  0  0
   61.0146   33.4050   45.7369 H   0  0  0  0  0  0  0  0  0  0  0  0
   58.8076   35.5070   45.7779 H   0  0  0  0  0  0  0  0  0  0  0  0
   59.5849   34.7501   44.3513 H   0  0  0  0  0  0  0  0  0  0  0  0
   56.4698   30.8741   43.0361 H   0  0  0  0  0  0  0  0  0  0  0  0
   56.3110   28.4114   43.3649 H   0  0  0  0  0  0  0  0  0  0  0  0
   57.7759   27.2679   45.0171 H   0  0  0  0  0  0  0  0  0  0  0  0
   60.2622   26.5395   47.3299 H   0  0  0  0  0  0  0  0  0  0  0  0
   59.3326   26.4972   45.7934 H   0  0  0  0  0  0  0  0  0  0  0  0
   61.0430   27.0458   45.7934 H   0  0  0  0  0  0  0  0  0  0  0  0
   59.7519   28.5649   48.6937 H   0  0  0  0  0  0  0  0  0  0  0  0
   61.2028   29.1637   47.8203 H   0  0  0  0  0  0  0  0  0  0  0  0
   59.6907   30.1333   47.8203 H   0  0  0  0  0  0  0  0  0  0  0  0
   59.6005   31.0709   46.0187 H   0  0  0  0  0  0  0  0  0  0  0  0
   56.9573   33.9529   46.9967 H   0  0  0  0  0  0  0  0  0  0  0  0
   57.2484   32.1918   46.7021 H   0  0  0  0  0  0  0  0  0  0  0  0
  1  2  1  0
  2  3  1  0
  2  4  1  0
  4  5  1  0
  5  6  2  0
  6  7  1  0
  7  8  2  0
  8  9  1  0
  9 10  2  0
 10 11  1  0
 11 12  1  0
 12 13  1  0
 13 14  1  0
 14 15  2  0
 14 16  1  0
 16 17  2  0
 17 18  1  0
 18 19  2  0
 19 20  1  0
 20 21  1  0
 21 22  1  0
 21 23  1  0
 20 24  2  0
 13 25  1  0
 10  5  1  0
 24 16  1  0
 25  9  1  0
  1 26  1  0
  1 27  1  0
  1 28  1  0
  3 29  1  0
  3 30  1  0
  3 31  1  0
  4 32  1  0
  4 33  1  0
  6 34  1  0
  7 35  1  0
  8 36  1  0
 11 37  1  0
 11 38  1  0
 12 39  1  0
 12 40  1  0
 17 41  1  0
 18 42  1  0
 19 43  1  0
 22 44  1  0
 22 45  1  0
 22 46  1  0
 23 47  1  0
 23 48  1  0
 23 49  1  0
 24 50  1  0
 25 51  1  0
 25 52  1  0
M  END
>  <UniqueID>  (19) 
19

>  <SMILES>  (19) 
CN(C)Cc1cccc2c1CCN(C(=O)c1cccc(N(C)C)c1)C2

>  <Energy>  (19) 
62.91284773051604

>  <Genealogy>  (19) 
CN(C)Cc1cccc2c1CCN(C(=O)c1cccc(N(C)C)c1)C2 (3D coordinates assigned)
CN(C)Cc1cccc2c1CCN(C(=O)c1cccc(N(C)C)c1)C2 (nonaromatic ring conformer: 62.91284773051604 kcal/mol)

>  <smiles>  (19) 
CN(C)Cc1cccc2c1CCN(C(=O)c1cccc(N(C)C)c1)C2

>  <score_type>  (19) 
oracle

>  <origin>  (19) 
adg

>  <m_score__min__energy>  (19) 
-8.1099999999999994

>  <m_primary>  (19) 
energy

$$$$
19:0
     RDKit          3D

 75 78  0  0  0  0  0  0  0  0999 V2000
   64.6030   32.3150   49.6860 C   0  0  0  0  0  0  0  0  0  0  0  0
   63.8170   33.4620   49.0620 C   0  0  0  0  0  0  0  0  0  0  0  0
   62.7370   32.9190   48.2090 N   0  0  0  0  0  0  0  0  0  0  0  0
   62.7830   33.4550   46.8250 C   0  0  0  0  0  0  0  0  0  0  0  0
   61.4950   34.1600   46.3730 C   0  0  0  0  0  0  0  0  0  0  0  0
   62.6270   31.4460   48.3070 C   0  0  0  0  0  0  0  0  0  0  0  0
   61.4240   30.9080   47.5160 C   0  0  0  0  0  0  0  0  0  0  0  0
   60.4890   30.0830   48.4060 C   0  0  0  0  0  0  0  0  0  0  0  0
   59.0810   30.3560   48.0910 N   0  0  0  0  0  0  0  0  0  0  0  0
   58.5750   30.4720   46.7430 C   0  0  0  0  0  0  0  0  0  0  0  0
   58.5450   29.3330   45.9010 C   0  0  0  0  0  0  0  0  0  0  0  0
   59.1060   28.1000   46.3080 C   0  0  0  0  0  0  0  0  0  0  0  0
   59.0590   26.9800   45.4830 C   0  0  0  0  0  0  0  0  0  0  0  0
   58.4900   27.0690   44.2210 C   0  0  0  0  0  0  0  0  0  0  0  0
   57.9760   28.2840   43.7720 C   0  0  0  0  0  0  0  0  0  0  0  0
   57.9900   29.4380   44.5980 C   0  0  0  0  0  0  0  0  0  0  0  0
   57.5310   30.6530   44.1390 N   0  0  0  0  0  0  0  0  0  0  0  0
   56.7150   30.7220   42.9050 C   0  0  0  0  0  0  0  0  0  0  0  0
   57.8360   31.8090   44.8270 C   0  0  0  0  0  0  0  0  0  0  0  0
   57.7530   33.0720   44.1950 C   0  0  0  0  0  0  0  0  0  0  0  0
   57.9960   34.2440   44.8940 C   0  0  0  0  0  0  0  0  0  0  0  0
   58.2790   34.1990   46.2470 C   0  0  0  0  0  0  0  0  0  0  0  0
   58.3900   32.9720   46.9150 C   0  0  0  0  0  0  0  0  0  0  0  0
   58.4920   32.9970   48.3450 N   0  0  0  0  0  0  0  0  0  0  0  0
   59.6480   33.5330   49.0620 C   0  0  0  0  0  0  0  0  0  0  0  0
   59.8100   32.8660   50.4310 C   0  0  0  0  0  0  0  0  0  0  0  0
   58.7740   31.8220   50.6230 N   0  0  0  0  0  0  0  0  0  0  0  0
   57.5250   32.3340   51.2500 C   0  0  0  0  0  0  0  0  0  0  0  0
   57.4020   32.0190   52.7580 C   0  0  0  0  0  0  0  0  0  0  0  0
   58.7730   31.9490   53.4290 C   0  0  0  0  0  0  0  0  0  0  0  0
   59.6710   30.8890   52.7690 C   0  0  0  0  0  0  0  0  0  0  0  0
   59.2940   30.6160   51.3000 C   0  0  0  0  0  0  0  0  0  0  0  0
   58.2610   31.7470   46.1870 C   0  0  0  0  0  0  0  0  0  0  0  0
   64.5521   32.3893   50.7823 H   0  0  0  0  0  0  0  0  0  0  0  0
   64.1712   31.3562   49.3630 H   0  0  0  0  0  0  0  0  0  0  0  0
   65.6530   32.3716   49.3630 H   0  0  0  0  0  0  0  0  0  0  0  0
   63.3780   34.0806   49.8586 H   0  0  0  0  0  0  0  0  0  0  0  0
   64.4927   34.0759   48.4483 H   0  0  0  0  0  0  0  0  0  0  0  0
   63.6102   34.1775   46.7635 H   0  0  0  0  0  0  0  0  0  0  0  0
   62.9175   32.5904   46.1584 H   0  0  0  0  0  0  0  0  0  0  0  0
   60.9199   34.4748   47.2563 H   0  0  0  0  0  0  0  0  0  0  0  0
   61.7527   35.0429   45.7695 H   0  0  0  0  0  0  0  0  0  0  0  0
   60.8902   33.4672   45.7695 H   0  0  0  0  0  0  0  0  0  0  0  0
   63.5466   30.9932   47.9077 H   0  0  0  0  0  0  0  0  0  0  0  0
   62.4839   31.1842   49.3658 H   0  0  0  0  0  0  0  0  0  0  0  0
   60.8627   31.7568   47.0982 H   0  0  0  0  0  0  0  0  0  0  0  0
   61.8020   30.2556   46.7151 H   0  0  0  0  0  0  0  0  0  0  0  0
   60.6920   29.0138   48.2462 H   0  0  0  0  0  0  0  0  0  0  0  0
   60.6719   30.3591   49.4550 H   0  0  0  0  0  0  0  0  0  0  0  0
   58.4240   30.5360   48.8840 H   0  0  0  0  0  0  0  0  0  0  0  0
   59.5879   28.0249   47.2939 H   0  0  0  0  0  0  0  0  0  0  0  0
   59.4737   26.0229   45.8322 H   0  0  0  0  0  0  0  0  0  0  0  0
   58.4445   26.1802   43.5745 H   0  0  0  0  0  0  0  0  0  0  0  0
   57.5518   28.3498   42.7592 H   0  0  0  0  0  0  0  0  0  0  0  0
   55.6519   30.8119   43.1729 H   0  0  0  0  0  0  0  0  0  0  0  0
   57.0192   31.5976   42.3128 H   0  0  0  0  0  0  0  0  0  0  0  0
   56.8678   29.8077   42.3128 H   0  0  0  0  0  0  0  0  0  0  0  0
   57.4905   33.1249   43.1281 H   0  0  0  0  0  0  0  0  0  0  0  0
   57.9637   35.2116   44.3717 H   0  0  0  0  0  0  0  0  0  0  0  0
   58.4185   35.1367   46.8050 H   0  0  0  0  0  0  0  0  0  0  0  0
   57.6680   32.6770   48.8920 H   0  0  0  0  0  0  0  0  0  0  0  0
   60.5548   33.3530   48.4659 H   0  0  0  0  0  0  0  0  0  0  0  0
   59.4923   34.6109   49.2165 H   0  0  0  0  0  0  0  0  0  0  0  0
   60.8063   32.4039   50.4935 H   0  0  0  0  0  0  0  0  0  0  0  0
   59.6976   33.6290   51.2154 H   0  0  0  0  0  0  0  0  0  0  0  0
   57.4964   33.4261   51.1216 H   0  0  0  0  0  0  0  0  0  0  0  0
   56.6873   31.8258   50.7501 H   0  0  0  0  0  0  0  0  0  0  0  0
   56.8076   32.8087   53.2408 H   0  0  0  0  0  0  0  0  0  0  0  0
   56.9138   31.0394   52.8673 H   0  0  0  0  0  0  0  0  0  0  0  0
   59.2611   32.9314   53.3479 H   0  0  0  0  0  0  0  0  0  0  0  0
   58.6272   31.6696   54.4829 H   0  0  0  0  0  0  0  0  0  0  0  0
   60.7130   31.2398   52.8048 H   0  0  0  0  0  0  0  0  0  0  0  0
   59.5367   29.9494   53.3249 H   0  0  0  0  0  0  0  0  0  0  0  0
   60.1888   30.2670   50.7638 H   0  0  0  0  0  0  0  0  0  0  0  0
   58.4995   29.8553   51.2914 H   0  0  0  0  0  0  0  0  0  0  0  0
  1  2  1  0
  2  3  1  0
  3  4  1  0
  4  5  1  0
  3  6  1  0
  6  7  1  0
  7  8  1  0
  8  9  1  0
  9 10  1  0
 10 11  2  0
 11 12  1  0
 12 13  2  0
 13 14  1  0
 14 15  2  0
 15 16  1  0
 16 17  2  0
 17 18  1  0
 17 19  1  0
 19 20  2  0
 20 21  1  0
 21 22  2  0
 22 23  1  0
 23 24  1  0
 24 25  1  0
 25 26  1  0
 26 27  1  0
 27 28  1  0
 28 29  1  0
 29 30  1  0
 30 31  1  0
 31 32  1  0
 23 33  2  0
 33 10  1  0
 16 11  1  0
 33 19  1  0
 32 27  1  0
  1 34  1  0
  1 35  1  0
  1 36  1  0
  2 37  1  0
  2 38  1  0
  4 39  1  0
  4 40  1  0
  5 41  1  0
  5 42  1  0
  5 43  1  0
  6 44  1  0
  6 45  1  0
  7 46  1  0
  7 47  1  0
  8 48  1  0
  8 49  1  0
  9 50  1  0
 12 51  1  0
 13 52  1  0
 14 53  1  0
 15 54  1  0
 18 55  1  0
 18 56  1  0
 18 57  1  0
 20 58  1  0
 21 59  1  0
 22 60  1  0
 24 61  1  0
 25 62  1  0
 25 63  1  0
 26 64  1  0
 26 65  1  0
 28 66  1  0
 28 67  1  0
 29 68  1  0
 29 69  1  0
 30 70  1  0
 30 71  1  0
 31 72  1  0
 31 73  1  0
 32 74  1  0
 32 75  1  0
M  CHG  1  17   1
M  END
>  <UniqueID>  (20) 
20

>  <SMILES>  (20) 
CCN(CC)CCCNc1c2ccccc2[n+](C)c2cccc(NCCN3CCCCC3)c12

>  <Energy>  (20) 
118.54345895693565

>  <Genealogy>  (20) 
CCN(CC)CCCNc1c2ccccc2[n+](C)c2cccc(NCCN3CCCCC3)c12 (3D coordinates assigned)
CCN(CC)CCCNc1c2ccccc2[n+](C)c2cccc(NCCN3CCCCC3)c12 (nonaromatic ring conformer: 118.54345895693565 kcal/mol)

>  <smiles>  (20) 
CCN(CC)CCCNc1c2ccccc2[n+](C)c2cccc(NCCN3CCCCC3)c12

>  <score_type>  (20) 
oracle

>  <origin>  (20) 
adg

>  <m_score__min__energy>  (20) 
-6.5700000000000003

>  <m_primary>  (20) 
energy

$$$$
20:0
     RDKit          3D

 54 56  0  0  0  0  0  0  0  0999 V2000
   57.0210   30.8940   43.1180 C   0  0  0  0  0  0  0  0  0  0  0  0
   55.9230   30.4660   44.0830 C   0  0  0  0  0  0  0  0  0  0  0  0
   56.5140   29.8150   45.2580 N   0  0  0  0  0  0  0  0  0  0  0  0
   57.0280   28.4720   44.9370 C   0  0  0  0  0  0  0  0  0  0  0  0
   57.7320   27.8710   46.1570 C   0  0  0  0  0  0  0  0  0  0  0  0
   58.9520   28.6960   46.5820 C   0  0  0  0  0  0  0  0  0  0  0  0
   58.5450   30.0260   47.0350 N   0  0  0  0  0  0  0  0  0  0  0  0
   59.5070   31.0640   47.2880 C   0  0  0  0  0  0  0  0  0  0  0  0
   59.4370   32.2740   46.5790 C   0  0  0  0  0  0  0  0  0  0  0  0
   58.3790   32.5260   45.6800 C   0  0  0  0  0  0  0  0  0  0  0  0
   58.2910   33.7430   45.0090 C   0  0  0  0  0  0  0  0  0  0  0  0
   59.2460   34.7290   45.2270 C   0  0  0  0  0  0  0  0  0  0  0  0
   60.3100   34.4960   46.0990 C   0  0  0  0  0  0  0  0  0  0  0  0
   60.4490   33.2530   46.7670 C   0  0  0  0  0  0  0  0  0  0  0  0
   61.5260   32.9840   47.5900 N   0  0  0  0  0  0  0  0  0  0  0  0
   62.7230   33.8550   47.5480 C   0  0  0  0  0  0  0  0  0  0  0  0
   61.4960   31.8890   48.4340 C   0  0  0  0  0  0  0  0  0  0  0  0
   62.4340   31.7310   49.4840 C   0  0  0  0  0  0  0  0  0  0  0  0
   62.4210   30.5970   50.3160 C   0  0  0  0  0  0  0  0  0  0  0  0
   63.3580   30.4160   51.3460 O   0  0  0  0  0  0  0  0  0  0  0  0
   64.6970   30.9020   51.3220 C   0  0  0  0  0  0  0  0  0  0  0  0
   61.4490   29.6130   50.1300 C   0  0  0  0  0  0  0  0  0  0  0  0
   61.4690   28.4890   50.9720 O   0  0  0  0  0  0  0  0  0  0  0  0
   61.0750   27.1780   50.5830 C   0  0  0  0  0  0  0  0  0  0  0  0
   60.4820   29.7750   49.1270 C   0  0  0  0  0  0  0  0  0  0  0  0
   60.4950   30.8970   48.2760 C   0  0  0  0  0  0  0  0  0  0  0  0
   57.8975   31.2357   43.6881 H   0  0  0  0  0  0  0  0  0  0  0  0
   57.3054   30.0409   42.4845 H   0  0  0  0  0  0  0  0  0  0  0  0
   56.6530   31.7145   42.4845 H   0  0  0  0  0  0  0  0  0  0  0  0
   55.3547   31.3514   44.4042 H   0  0  0  0  0  0  0  0  0  0  0  0
   55.2526   29.7566   43.5758 H   0  0  0  0  0  0  0  0  0  0  0  0
   55.7650   29.7190   45.9850 H   0  0  0  0  0  0  0  0  0  0  0  0
   56.1900   27.8224   44.6442 H   0  0  0  0  0  0  0  0  0  0  0  0
   57.7481   28.5511   44.1092 H   0  0  0  0  0  0  0  0  0  0  0  0
   57.0200   27.8331   46.9946 H   0  0  0  0  0  0  0  0  0  0  0  0
   58.0815   26.8641   45.8850 H   0  0  0  0  0  0  0  0  0  0  0  0
   59.4700   28.1780   47.4026 H   0  0  0  0  0  0  0  0  0  0  0  0
   59.6224   28.8070   45.7170 H   0  0  0  0  0  0  0  0  0  0  0  0
   57.5270   30.2470   47.1190 H   0  0  0  0  0  0  0  0  0  0  0  0
   57.6157   31.7530   45.5074 H   0  0  0  0  0  0  0  0  0  0  0  0
   57.4648   33.9242   44.3057 H   0  0  0  0  0  0  0  0  0  0  0  0
   59.1627   35.6965   44.7102 H   0  0  0  0  0  0  0  0  0  0  0  0
   61.0527   35.2890   46.2710 H   0  0  0  0  0  0  0  0  0  0  0  0
   63.0431   34.0880   48.5743 H   0  0  0  0  0  0  0  0  0  0  0  0
   63.5359   33.3358   47.0193 H   0  0  0  0  0  0  0  0  0  0  0  0
   62.4790   34.7882   47.0193 H   0  0  0  0  0  0  0  0  0  0  0  0
   63.1894   32.5127   49.6523 H   0  0  0  0  0  0  0  0  0  0  0  0
   65.0580   31.0330   52.3528 H   0  0  0  0  0  0  0  0  0  0  0  0
   65.3398   30.1798   50.7973 H   0  0  0  0  0  0  0  0  0  0  0  0
   64.7270   31.8684   50.7973 H   0  0  0  0  0  0  0  0  0  0  0  0
   60.8919   26.5687   51.4804 H   0  0  0  0  0  0  0  0  0  0  0  0
   60.1541   27.2345   49.9840 H   0  0  0  0  0  0  0  0  0  0  0  0
   61.8744   26.7175   49.9840 H   0  0  0  0  0  0  0  0  0  0  0  0
   59.6994   29.0120   49.0029 H   0  0  0  0  0  0  0  0  0  0  0  0
  1  2  1  0
  2  3  1  0
  3  4  1  0
  4  5  1  0
  5  6  1  0
  6  7  1  0
  7  8  1  0
  8  9  2  0
  9 10  1  0
 10 11  2  0
 11 12  1  0
 12 13  2  0
 13 14  1  0
 14 15  2  0
 15 16  1  0
 15 17  1  0
 17 18  2  0
 18 19  1  0
 19 20  1  0
 20 21  1  0
 19 22  2  0
 22 23  1  0
 23 24  1  0
 22 25  1  0
 25 26  2  0
 26  8  1  0
 14  9  1  0
 26 17  1  0
  1 27  1  0
  1 28  1  0
  1 29  1  0
  2 30  1  0
  2 31  1  0
  3 32  1  0
  4 33  1  0
  4 34  1  0
  5 35  1  0
  5 36  1  0
  6 37  1  0
  6 38  1  0
  7 39  1  0
 10 40  1  0
 11 41  1  0
 12 42  1  0
 13 43  1  0
 16 44  1  0
 16 45  1  0
 16 46  1  0
 18 47  1  0
 21 48  1  0
 21 49  1  0
 21 50  1  0
 24 51  1  0
 24 52  1  0
 24 53  1  0
 25 54  1  0
M  CHG  1  15   1
M  END
>  <UniqueID>  (21) 
21

>  <SMILES>  (21) 
CCNCCCNc1c2ccccc2[n+](C)c2cc(OC)c(OC)cc12

>  <Energy>  (21) 
73.59483098864982

>  <Genealogy>  (21) 
CCNCCCNc1c2ccccc2[n+](C)c2cc(OC)c(OC)cc12 (3D coordinates assigned)
CCNCCCNc1c2ccccc2[n+](C)c2cc(OC)c(OC)cc12 (optimized conformer: 73.59483098864982 kcal/mol)

>  <smiles>  (21) 
CCNCCCNc1c2ccccc2[n+](C)c2cc(OC)c(OC)cc12

>  <score_type>  (21) 
oracle

>  <origin>  (21) 
adg

>  <m_score__min__energy>  (21) 
-5.4199999999999999

>  <m_primary>  (21) 
energy

$$$$
21:0
     RDKit          3D

 85 89  0  0  0  0  0  0  0  0999 V2000
   59.0770   27.1290   45.5520 C   0  0  0  0  0  0  0  0  0  0  0  0
   58.7580   28.5470   45.8310 N   0  0  0  0  0  0  0  0  0  0  0  0
   58.0360   29.2850   44.9070 C   0  0  0  0  0  0  0  0  0  0  0  0
   57.3710   28.6700   43.8120 C   0  0  0  0  0  0  0  0  0  0  0  0
   56.7010   29.4330   42.8590 C   0  0  0  0  0  0  0  0  0  0  0  0
   56.6620   30.8200   42.9690 C   0  0  0  0  0  0  0  0  0  0  0  0
   57.2660   31.4490   44.0520 C   0  0  0  0  0  0  0  0  0  0  0  0
   57.9270   30.6960   45.0470 C   0  0  0  0  0  0  0  0  0  0  0  0
   58.4940   31.3280   46.1670 C   0  0  0  0  0  0  0  0  0  0  0  0
   58.2730   32.7280   46.4030 N   0  0  0  0  0  0  0  0  0  0  0  0
   59.0080   33.7580   45.6640 C   0  0  0  0  0  0  0  0  0  0  0  0
   59.4270   34.9080   46.5950 C   0  0  0  0  0  0  0  0  0  0  0  0
   59.7130   34.4730   48.0590 C   0  0  0  0  0  0  0  0  0  0  0  0
   61.1400   34.3600   48.4650 N   0  0  0  0  0  0  0  0  0  0  0  0
   61.9860   33.7210   47.4370 C   0  0  0  0  0  0  0  0  0  0  0  0
   61.3400   33.7280   49.7820 C   0  0  0  0  0  0  0  0  0  0  0  0
   59.1890   30.5620   47.1180 C   0  0  0  0  0  0  0  0  0  0  0  0
   59.8130   31.1740   48.2230 C   0  0  0  0  0  0  0  0  0  0  0  0
   60.3990   30.4070   49.2220 C   0  0  0  0  0  0  0  0  0  0  0  0
   60.3400   29.0100   49.1630 C   0  0  0  0  0  0  0  0  0  0  0  0
   60.8610   28.2100   50.1870 O   0  0  0  0  0  0  0  0  0  0  0  0
   60.3820   28.2490   51.5300 C   0  0  0  0  0  0  0  0  0  0  0  0
   60.6600   29.6070   52.2040 C   0  0  0  0  0  0  0  0  0  0  0  0
   59.5010   30.2960   52.8580 N   0  0  2  0  0  0  0  0  0  0  0  0
   59.3090   31.6780   52.3490 C   0  0  0  0  0  0  0  0  0  0  0  0
   59.7180   30.3270   54.3270 C   0  0  0  0  0  0  0  0  0  0  0  0
   58.8590   29.2090   54.9110 C   0  0  0  0  0  0  0  0  0  0  0  0
   57.7190   29.0360   53.9850 N   0  0  1  0  0  0  0  0  0  0  0  0
   57.3720   27.6000   53.8580 C   0  0  0  0  0  0  0  0  0  0  0  0
   56.5650   29.8610   54.4540 C   0  0  0  0  0  0  0  0  0  0  0  0
   55.4350   29.9900   53.4440 C   0  0  0  0  0  0  0  0  0  0  0  0
   54.3910   29.0440   53.4360 C   0  0  0  0  0  0  0  0  0  0  0  0
   53.3170   29.1810   52.5540 C   0  0  0  0  0  0  0  0  0  0  0  0
   53.2860   30.2470   51.6470 C   0  0  0  0  0  0  0  0  0  0  0  0
   51.9210   30.4280   50.5540 Cl  0  0  0  0  0  0  0  0  0  0  0  0
   54.3400   31.1660   51.6130 C   0  0  0  0  0  0  0  0  0  0  0  0
   55.4130   31.0410   52.5060 C   0  0  0  0  0  0  0  0  0  0  0  0
   56.4270   31.9460   52.4510 F   0  0  0  0  0  0  0  0  0  0  0  0
   58.2720   29.5460   52.7560 C   0  0  0  0  0  0  0  0  0  0  0  0
   57.7110   29.3680   51.6830 O   0  0  0  0  0  0  0  0  0  0  0  0
   59.7380   28.3920   48.0640 C   0  0  0  0  0  0  0  0  0  0  0  0
   59.2310   29.1500   46.9820 C   0  0  0  0  0  0  0  0  0  0  0  0
   59.1989   26.5869   46.5014 H   0  0  0  0  0  0  0  0  0  0  0  0
   58.2583   26.6759   44.9736 H   0  0  0  0  0  0  0  0  0  0  0  0
   60.0108   27.0702   44.9736 H   0  0  0  0  0  0  0  0  0  0  0  0
   57.3857   27.5743   43.7157 H   0  0  0  0  0  0  0  0  0  0  0  0
   56.1999   28.9369   42.0147 H   0  0  0  0  0  0  0  0  0  0  0  0
   56.1533   31.4186   42.1990 H   0  0  0  0  0  0  0  0  0  0  0  0
   57.2285   32.5453   44.1346 H   0  0  0  0  0  0  0  0  0  0  0  0
   57.6060   33.0150   47.1560 H   0  0  0  0  0  0  0  0  0  0  0  0
   59.9081   33.3087   45.2190 H   0  0  0  0  0  0  0  0  0  0  0  0
   58.3522   34.1626   44.8790 H   0  0  0  0  0  0  0  0  0  0  0  0
   60.3400   35.3664   46.1871 H   0  0  0  0  0  0  0  0  0  0  0  0
   58.5786   35.6071   46.6339 H   0  0  0  0  0  0  0  0  0  0  0  0
   59.2367   35.2096   48.7228 H   0  0  0  0  0  0  0  0  0  0  0  0
   59.3130   33.4512   48.1361 H   0  0  0  0  0  0  0  0  0  0  0  0
   61.4940   35.3440   48.5520 H   0  0  0  0  0  0  0  0  0  0  0  0
   62.7721   33.1272   47.9263 H   0  0  0  0  0  0  0  0  0  0  0  0
   61.3667   33.0632   46.8095 H   0  0  0  0  0  0  0  0  0  0  0  0
   62.4493   34.4966   46.8095 H   0  0  0  0  0  0  0  0  0  0  0  0
   61.1102   34.4540   50.5758 H   0  0  0  0  0  0  0  0  0  0  0  0
   60.6732   32.8583   49.8764 H   0  0  0  0  0  0  0  0  0  0  0  0
   62.3858   33.4002   49.8764 H   0  0  0  0  0  0  0  0  0  0  0  0
   59.8364   32.2714   48.2955 H   0  0  0  0  0  0  0  0  0  0  0  0
   60.9110   30.8992   50.0620 H   0  0  0  0  0  0  0  0  0  0  0  0
   59.2965   28.0708   51.5250 H   0  0  0  0  0  0  0  0  0  0  0  0
   60.9107   27.4719   52.1015 H   0  0  0  0  0  0  0  0  0  0  0  0
   61.4261   29.4428   52.9761 H   0  0  0  0  0  0  0  0  0  0  0  0
   60.9612   30.2749   51.3835 H   0  0  0  0  0  0  0  0  0  0  0  0
   59.2127   32.3712   53.1976 H   0  0  0  0  0  0  0  0  0  0  0  0
   60.1757   31.9668   51.7362 H   0  0  0  0  0  0  0  0  0  0  0  0
   58.3965   31.7196   51.7362 H   0  0  0  0  0  0  0  0  0  0  0  0
   60.7790   30.1527   54.5590 H   0  0  0  0  0  0  0  0  0  0  0  0
   59.4441   31.3044   54.7509 H   0  0  0  0  0  0  0  0  0  0  0  0
   59.4401   28.2775   54.9782 H   0  0  0  0  0  0  0  0  0  0  0  0
   58.5159   29.4567   55.9263 H   0  0  0  0  0  0  0  0  0  0  0  0
   57.2653   27.1586   54.8599 H   0  0  0  0  0  0  0  0  0  0  0  0
   56.4236   27.4990   53.3100 H   0  0  0  0  0  0  0  0  0  0  0  0
   58.1696   27.0771   53.3100 H   0  0  0  0  0  0  0  0  0  0  0  0
   56.1601   29.3993   55.3666 H   0  0  0  0  0  0  0  0  0  0  0  0
   56.9526   30.8764   54.6237 H   0  0  0  0  0  0  0  0  0  0  0  0
   54.4221   28.1910   54.1298 H   0  0  0  0  0  0  0  0  0  0  0  0
   52.4946   28.4507   52.5719 H   0  0  0  0  0  0  0  0  0  0  0  0
   54.3267   31.9891   50.8834 H   0  0  0  0  0  0  0  0  0  0  0  0
   59.6566   27.2953   48.0394 H   0  0  0  0  0  0  0  0  0  0  0  0
  1  2  1  0
  2  3  2  0
  3  4  1  0
  4  5  2  0
  5  6  1  0
  6  7  2  0
  7  8  1  0
  8  9  2  0
  9 10  1  0
 10 11  1  0
 11 12  1  0
 12 13  1  0
 13 14  1  0
 14 15  1  0
 14 16  1  0
  9 17  1  0
 17 18  2  0
 18 19  1  0
 19 20  2  0
 20 21  1  0
 21 22  1  0
 22 23  1  0
 24 23  1  6
 24 25  1  0
 24 26  1  0
 26 27  1  0
 27 28  1  0
 28 29  1  6
 28 30  1  0
 30 31  1  0
 31 32  2  0
 32 33  1  0
 33 34  2  0
 34 35  1  0
 34 36  1  0
 36 37  2  0
 37 38  1  0
 28 39  1  0
 39 40  2  0
 20 41  1  0
 41 42  2  0
 42  2  1  0
  8  3  1  0
 42 17  1  0
 39 24  1  0
 37 31  1  0
  1 43  1  0
  1 44  1  0
  1 45  1  0
  4 46  1  0
  5 47  1  0
  6 48  1  0
  7 49  1  0
 10 50  1  0
 11 51  1  0
 11 52  1  0
 12 53  1  0
 12 54  1  0
 13 55  1  0
 13 56  1  0
 14 57  1  0
 15 58  1  0
 15 59  1  0
 15 60  1  0
 16 61  1  0
 16 62  1  0
 16 63  1  0
 18 64  1  0
 19 65  1  0
 22 66  1  0
 22 67  1  0
 23 68  1  0
 23 69  1  0
 25 70  1  0
 25 71  1  0
 25 72  1  0
 26 73  1  0
 26 74  1  0
 27 75  1  0
 27 76  1  0
 29 77  1  0
 29 78  1  0
 29 79  1  0
 30 80  1  0
 30 81  1  0
 32 82  1  0
 33 83  1  0
 36 84  1  0
 41 85  1  0
M  CHG  4   2   1  14   1  24   1  28   1
M  END
>  <UniqueID>  (22) 
22

>  <SMILES>  (22) 
C[n+]1c2ccccc2c(NCCC[NH+](C)C)c2ccc(OCC[N@+]3(C)CC[N@@+](C)(Cc4ccc(Cl)cc4F)C3=O)cc21

>  <Energy>  (22) 
142.4741275670597

>  <Genealogy>  (22) 
C[n+]1c2ccccc2c(NCCC[NH+](C)C)c2ccc(OCC[N+]3(C)CC[N+](C)(Cc4ccc(Cl)cc4F)C3=O)cc21 (protonated)
C[n+]1c2ccccc2c(NCCC[NH+](C)C)c2ccc(OCC[N@+]3(C)CC[N@@+](C)(Cc4ccc(Cl)cc4F)C3=O)cc21 (chirality)
C[n+]1c2ccccc2c(NCCC[NH+](C)C)c2ccc(OCC[N@+]3(C)CC[N@@+](C)(Cc4ccc(Cl)cc4F)C3=O)cc21 (3D coordinates assigned)
C[n+]1c2ccccc2c(NCCC[NH+](C)C)c2ccc(OCC[N@+]3(C)CC[N@@+](C)(Cc4ccc(Cl)cc4F)C3=O)cc21 (nonaromatic ring conformer: 142.4741275670597 kcal/mol)

>  <smiles>  (22) 
CN(C)CCCNc1c2ccccc2[n+](C)c2cc(OCC[N+]3(C)CC[N+](C)(Cc4ccc(Cl)cc4F)C3=O)ccc12

>  <score_type>  (22) 
oracle

>  <origin>  (22) 
adg

>  <m_score__min__energy>  (22) 
-4.1799999999999997

>  <m_primary>  (22) 
energy

$$$$
22:0
     RDKit          3D

 63 65  0  0  0  0  0  0  0  0999 V2000
   64.1180   32.7200   48.8770 C   0  0  0  0  0  0  0  0  0  0  0  0
   63.5080   32.3420   47.5300 C   0  0  0  0  0  0  0  0  0  0  0  0
   63.0190   33.5880   46.7780 C   0  0  0  0  0  0  0  0  0  0  0  0
   61.5140   33.8390   46.9630 C   0  0  0  0  0  0  0  0  0  0  0  0
   61.1250   34.0480   48.4380 C   0  0  0  0  0  0  0  0  0  0  0  0
   59.6520   34.4320   48.5940 C   0  0  0  0  0  0  0  0  0  0  0  0
   58.5730   32.9500   48.5790 S   0  0  0  0  0  0  0  0  0  0  0  0
   58.4050   32.8850   46.7820 C   0  0  0  0  0  0  0  0  0  0  0  0
   58.2550   34.1190   46.1470 C   0  0  0  0  0  0  0  0  0  0  0  0
   57.9810   34.1890   44.7920 C   0  0  0  0  0  0  0  0  0  0  0  0
   57.7860   33.0280   44.0600 C   0  0  0  0  0  0  0  0  0  0  0  0
   57.8840   31.7510   44.6660 C   0  0  0  0  0  0  0  0  0  0  0  0
   58.3150   31.6760   46.0240 C   0  0  0  0  0  0  0  0  0  0  0  0
   58.6550   30.4040   46.5510 C   0  0  0  0  0  0  0  0  0  0  0  0
   59.3810   30.2900   47.7850 N   0  0  0  0  0  0  0  0  0  0  0  0
   60.8400   30.1370   47.8260 C   0  0  0  0  0  0  0  0  0  0  0  0
   61.3860   30.1370   49.2630 C   0  0  0  0  0  0  0  0  0  0  0  0
   60.5530   30.9530   50.1640 N   0  0  0  0  0  0  0  0  0  0  0  0
   59.6410   30.1250   50.9730 C   0  0  0  0  0  0  0  0  0  0  0  0
   58.2840   30.8030   51.1950 C   0  0  0  0  0  0  0  0  0  0  0  0
   58.4330   29.2470   45.7820 C   0  0  0  0  0  0  0  0  0  0  0  0
   58.6970   27.9660   46.3170 C   0  0  0  0  0  0  0  0  0  0  0  0
   58.5460   26.8240   45.5380 C   0  0  0  0  0  0  0  0  0  0  0  0
   58.1410   26.9340   44.2140 C   0  0  0  0  0  0  0  0  0  0  0  0
   57.8440   28.1850   43.6750 C   0  0  0  0  0  0  0  0  0  0  0  0
   57.9390   29.3640   44.4590 C   0  0  0  0  0  0  0  0  0  0  0  0
   57.5870   30.6010   43.9580 N   0  0  0  0  0  0  0  0  0  0  0  0
   56.8380   30.6910   42.6830 C   0  0  0  0  0  0  0  0  0  0  0  0
   63.4865   32.3287   49.6882 H   0  0  0  0  0  0  0  0  0  0  0  0
   65.1266   32.2884   48.9568 H   0  0  0  0  0  0  0  0  0  0  0  0
   64.1805   33.8153   48.9568 H   0  0  0  0  0  0  0  0  0  0  0  0
   64.2683   31.8302   46.9218 H   0  0  0  0  0  0  0  0  0  0  0  0
   62.6475   31.6803   47.7084 H   0  0  0  0  0  0  0  0  0  0  0  0
   63.5704   34.4635   47.1514 H   0  0  0  0  0  0  0  0  0  0  0  0
   63.1990   33.4213   45.7057 H   0  0  0  0  0  0  0  0  0  0  0  0
   61.2343   34.7380   46.3942 H   0  0  0  0  0  0  0  0  0  0  0  0
   60.9808   32.9475   46.6012 H   0  0  0  0  0  0  0  0  0  0  0  0
   61.3088   33.1141   48.9894 H   0  0  0  0  0  0  0  0  0  0  0  0
   61.7348   34.8722   48.8365 H   0  0  0  0  0  0  0  0  0  0  0  0
   59.5190   34.9626   49.5484 H   0  0  0  0  0  0  0  0  0  0  0  0
   59.3694   35.0762   47.7483 H   0  0  0  0  0  0  0  0  0  0  0  0
   58.3557   35.0463   46.7300 H   0  0  0  0  0  0  0  0  0  0  0  0
   57.9178   35.1682   44.2948 H   0  0  0  0  0  0  0  0  0  0  0  0
   57.5506   33.0995   42.9879 H   0  0  0  0  0  0  0  0  0  0  0  0
   58.8360   30.0820   48.6520 H   0  0  0  0  0  0  0  0  0  0  0  0
   61.1096   29.1852   47.3451 H   0  0  0  0  0  0  0  0  0  0  0  0
   61.2834   30.9937   47.2973 H   0  0  0  0  0  0  0  0  0  0  0  0
   61.4065   29.1025   49.6363 H   0  0  0  0  0  0  0  0  0  0  0  0
   62.3968   30.5705   49.2451 H   0  0  0  0  0  0  0  0  0  0  0  0
   60.0050   31.6620   49.6270 H   0  0  0  0  0  0  0  0  0  0  0  0
   61.1850   31.4700   50.8200 H   0  0  0  0  0  0  0  0  0  0  0  0
   59.4782   29.1683   50.4551 H   0  0  0  0  0  0  0  0  0  0  0  0
   60.1073   29.9738   51.9577 H   0  0  0  0  0  0  0  0  0  0  0  0
   58.0938   30.8980   52.2743 H   0  0  0  0  0  0  0  0  0  0  0  0
   58.2937   31.8022   50.7350 H   0  0  0  0  0  0  0  0  0  0  0  0
   57.4909   30.1953   50.7350 H   0  0  0  0  0  0  0  0  0  0  0  0
   59.0259   27.8710   47.3624 H   0  0  0  0  0  0  0  0  0  0  0  0
   58.7474   25.8329   45.9706 H   0  0  0  0  0  0  0  0  0  0  0  0
   58.0544   26.0325   43.5896 H   0  0  0  0  0  0  0  0  0  0  0  0
   57.5304   28.2594   42.6233 H   0  0  0  0  0  0  0  0  0  0  0  0
   55.7664   30.8198   42.8955 H   0  0  0  0  0  0  0  0  0  0  0  0
   57.2029   31.5518   42.1034 H   0  0  0  0  0  0  0  0  0  0  0  0
   56.9886   29.7683   42.1034 H   0  0  0  0  0  0  0  0  0  0  0  0
  1  2  1  0
  2  3  1  0
  3  4  1  0
  4  5  1  0
  5  6  1  0
  6  7  1  0
  7  8  1  0
  8  9  2  0
  9 10  1  0
 10 11  2  0
 11 12  1  0
 12 13  2  0
 13 14  1  0
 14 15  1  0
 15 16  1  0
 16 17  1  0
 17 18  1  0
 18 19  1  0
 19 20  1  0
 14 21  2  0
 21 22  1  0
 22 23  2  0
 23 24  1  0
 24 25  2  0
 25 26  1  0
 26 27  2  0
 27 28  1  0
 13  8  1  0
 26 21  1  0
 27 12  1  0
  1 29  1  0
  1 30  1  0
  1 31  1  0
  2 32  1  0
  2 33  1  0
  3 34  1  0
  3 35  1  0
  4 36  1  0
  4 37  1  0
  5 38  1  0
  5 39  1  0
  6 40  1  0
  6 41  1  0
  9 42  1  0
 10 43  1  0
 11 44  1  0
 15 45  1  0
 16 46  1  0
 16 47  1  0
 17 48  1  0
 17 49  1  0
 18 50  1  0
 18 51  1  0
 19 52  1  0
 19 53  1  0
 20 54  1  0
 20 55  1  0
 20 56  1  0
 22 57  1  0
 23 58  1  0
 24 59  1  0
 25 60  1  0
 28 61  1  0
 28 62  1  0
 28 63  1  0
M  CHG  2  18   1  27   1
M  END
>  <UniqueID>  (23) 
23

>  <SMILES>  (23) 
CCCCCCSc1cccc2c1c(NCC[NH2+]CC)c1ccccc1[n+]2C

>  <Energy>  (23) 
80.84688638588953

>  <Genealogy>  (23) 
CCCCCCSc1cccc2c1c(NCC[NH2+]CC)c1ccccc1[n+]2C (protonated)
CCCCCCSc1cccc2c1c(NCC[NH2+]CC)c1ccccc1[n+]2C (3D coordinates assigned)
CCCCCCSc1cccc2c1c(NCC[NH2+]CC)c1ccccc1[n+]2C (optimized conformer: 80.84688638588953 kcal/mol)

>  <smiles>  (23) 
CCCCCCSc1cccc2c1c(NCCNCC)c1ccccc1[n+]2C

>  <score_type>  (23) 
oracle

>  <origin>  (23) 
adg

>  <m_score__min__energy>  (23) 
-4.5199999999999996

>  <m_primary>  (23) 
energy

$$$$
