0:0
     RDKit          3D

 43 45  0  0  0  0  0  0  0  0999 V2000
   63.3990   33.9980   46.3590 C   0  0  0  0  0  0  0  0  0  0  0  0
   63.5140   33.7060   47.8600 C   0  0  0  0  0  0  0  0  0  0  0  0
   63.6380   32.2570   48.1590 N   0  0  1  0  0  0  0  0  0  0  0  0
   63.4890   32.0080   49.6090 C   0  0  0  0  0  0  0  0  0  0  0  0
   62.6160   31.5030   47.3880 C   0  0  0  0  0  0  0  0  0  0  0  0
   61.2360   31.4960   48.0700 C   0  0  0  0  0  0  0  0  0  0  0  0
   60.1760   31.5450   47.0610 N   0  0  0  0  0  0  0  0  0  0  0  0
   59.4230   30.4950   46.6550 C   0  0  0  0  0  0  0  0  0  0  0  0
   58.4650   30.9140   45.7380 C   0  0  0  0  0  0  0  0  0  0  0  0
   57.4490   30.0580   45.1050 C   0  0  0  0  0  0  0  0  0  0  0  0
   56.3170   30.5470   44.8440 O   0  0  0  0  0  0  0  0  0  0  0  0
   57.7040   28.6360   44.8110 C   0  0  0  0  0  0  0  0  0  0  0  0
   57.9180   28.0980   43.5460 C   0  0  0  0  0  0  0  0  0  0  0  0
   58.0720   26.7060   43.5540 C   0  0  0  0  0  0  0  0  0  0  0  0
   57.9640   26.1390   44.8170 C   0  0  0  0  0  0  0  0  0  0  0  0
   57.6760   27.3710   45.9240 S   0  0  0  0  0  0  0  0  0  0  0  0
   58.6280   32.2850   45.6230 C   0  0  0  0  0  0  0  0  0  0  0  0
   57.8870   33.2480   44.9320 C   0  0  0  0  0  0  0  0  0  0  0  0
   58.2740   34.5930   45.0580 C   0  0  0  0  0  0  0  0  0  0  0  0
   59.3630   34.9500   45.8790 C   0  0  0  0  0  0  0  0  0  0  0  0
   60.0740   33.9670   46.5890 C   0  0  0  0  0  0  0  0  0  0  0  0
   59.6780   32.6340   46.4380 C   0  0  0  0  0  0  0  0  0  0  0  0
   62.9995   35.0123   46.2123 H   0  0  0  0  0  0  0  0  0  0  0  0
   64.3932   33.9247   45.8940 H   0  0  0  0  0  0  0  0  0  0  0  0
   62.7218   33.2664   45.8940 H   0  0  0  0  0  0  0  0  0  0  0  0
   64.4032   34.2224   48.2509 H   0  0  0  0  0  0  0  0  0  0  0  0
   62.5899   34.0636   48.3376 H   0  0  0  0  0  0  0  0  0  0  0  0
   64.5890   31.9340   47.8580 H   0  0  0  0  0  0  0  0  0  0  0  0
   63.9742   32.8189   50.1720 H   0  0  0  0  0  0  0  0  0  0  0  0
   62.4203   31.9711   49.8668 H   0  0  0  0  0  0  0  0  0  0  0  0
   63.9617   31.0488   49.8668 H   0  0  0  0  0  0  0  0  0  0  0  0
   62.5143   31.9647   46.3948 H   0  0  0  0  0  0  0  0  0  0  0  0
   62.9565   30.4592   47.3212 H   0  0  0  0  0  0  0  0  0  0  0  0
   61.1292   30.5774   48.6657 H   0  0  0  0  0  0  0  0  0  0  0  0
   61.1526   32.3773   48.7230 H   0  0  0  0  0  0  0  0  0  0  0  0
   59.5509   29.4587   47.0011 H   0  0  0  0  0  0  0  0  0  0  0  0
   57.9619   28.7057   42.6302 H   0  0  0  0  0  0  0  0  0  0  0  0
   58.2609   26.1167   42.6446 H   0  0  0  0  0  0  0  0  0  0  0  0
   58.0518   25.0681   45.0526 H   0  0  0  0  0  0  0  0  0  0  0  0
   57.0271   32.9617   44.3086 H   0  0  0  0  0  0  0  0  0  0  0  0
   57.7232   35.3730   44.5120 H   0  0  0  0  0  0  0  0  0  0  0  0
   59.6586   36.0061   45.9647 H   0  0  0  0  0  0  0  0  0  0  0  0
   60.9159   34.2377   47.2432 H   0  0  0  0  0  0  0  0  0  0  0  0
  1  2  1  0
  2  3  1  0
  3  4  1  0
  3  5  1  0
  5  6  1  0
  6  7  1  0
  7  8  1  0
  8  9  2  0
  9 10  1  0
 10 11  2  0
 10 12  1  0
 12 13  2  0
 13 14  1  0
 14 15  2  0
 15 16  1  0
  9 17  1  0
 17 18  2  0
 18 19  1  0
 19 20  2  0
 20 21  1  0
 21 22  2  0
 22  7  1  0
 16 12  1  0
 22 17  1  0
  1 23  1  0
  1 24  1  0
  1 25  1  0
  2 26  1  0
  2 27  1  0
  3 28  1  6
  4 29  1  0
  4 30  1  0
  4 31  1  0
  5 32  1  0
  5 33  1  0
  6 34  1  0
  6 35  1  0
  8 36  1  0
 13 37  1  0
 14 38  1  0
 15 39  1  0
 18 40  1  0
 19 41  1  0
 20 42  1  0
 21 43  1  0
M  CHG  1   3   1
M  END
>  <UniqueID>  (1) 
1

>  <SMILES>  (1) 
CC[N@@H+](C)CCn1cc(C(=O)c2cccs2)c2ccccc21

>  <Energy>  (1) 
108.14059579198404

>  <Genealogy>  (1) 
CC[NH+](C)CCn1cc(C(=O)c2cccs2)c2ccccc21 (protonated)
CC[N@@H+](C)CCn1cc(C(=O)c2cccs2)c2ccccc21 (chirality)
CC[N@@H+](C)CCn1cc(C(=O)c2cccs2)c2ccccc21 (3D coordinates assigned)
CC[N@@H+](C)CCn1cc(C(=O)c2cccs2)c2ccccc21 (optimized conformer: 108.14059579198404 kcal/mol)

>  <smiles>  (1) 
CCN(C)CCn1cc(C(=O)c2cccs2)c2ccccc21

>  <score_type>  (1) 
oracle

>  <origin>  (1) 
adg

>  <m_score__min__energy>  (1) 
-6.75

>  <m_primary>  (1) 
energy

$$$$
1:0
     RDKit          3D

 73 72  0  0  0  0  0  0  0  0999 V2000
   61.2040   28.1690   51.4920 C   0  0  0  0  0  0  0  0  0  0  0  0
   60.1570   29.1090   52.1010 C   0  0  0  0  0  0  0  0  0  0  0  0
   59.2620   29.6900   51.0890 N   0  0  0  0  0  0  0  0  0  0  0  0
   57.9290   29.9880   51.6310 C   0  0  0  0  0  0  0  0  0  0  0  0
   57.6210   31.4840   51.5100 C   0  0  0  0  0  0  0  0  0  0  0  0
   58.7050   32.3750   52.1340 C   0  0  0  0  0  0  0  0  0  0  0  0
   59.7610   32.6860   51.1360 N   0  0  0  0  0  0  0  0  0  0  0  0
   60.9870   33.2250   51.7630 C   0  0  0  0  0  0  0  0  0  0  0  0
   62.1480   32.2040   51.8280 C   0  0  0  0  0  0  0  0  0  0  0  0
   62.6000   31.7870   50.4230 C   0  0  0  0  0  0  0  0  0  0  0  0
   61.6100   30.9120   49.7990 N   0  0  0  0  0  0  0  0  0  0  0  0
   59.2860   33.5160   50.0060 C   0  0  0  0  0  0  0  0  0  0  0  0
   60.4510   34.2450   49.3180 C   0  0  0  0  0  0  0  0  0  0  0  0
   60.5380   33.9040   47.8790 N   0  0  0  0  0  0  0  0  0  0  0  0
   61.9370   33.6410   47.4520 C   0  0  0  0  0  0  0  0  0  0  0  0
   62.0940   32.1880   47.1450 C   0  0  0  0  0  0  0  0  0  0  0  0
   63.2030   31.6190   47.3270 O   0  0  0  0  0  0  0  0  0  0  0  0
   60.9740   31.4460   46.6610 N   0  0  0  0  0  0  0  0  0  0  0  0
   60.7880   30.0300   46.9350 C   0  0  0  0  0  0  0  0  0  0  0  0
   59.7410   29.8520   48.0320 C   0  0  0  0  0  0  0  0  0  0  0  0
   59.3800   31.1500   48.6000 N   0  0  0  0  0  0  0  0  0  0  0  0
   59.9060   34.9570   47.0560 C   0  0  0  0  0  0  0  0  0  0  0  0
   59.2660   34.3540   45.8390 C   0  0  0  0  0  0  0  0  0  0  0  0
   59.0440   35.0820   44.8330 O   0  0  0  0  0  0  0  0  0  0  0  0
   58.9060   32.9650   45.8200 N   0  0  0  0  0  0  0  0  0  0  0  0
   58.1410   32.3720   44.7260 C   0  0  0  0  0  0  0  0  0  0  0  0
   57.3880   31.1730   45.2090 C   0  0  0  0  0  0  0  0  0  0  0  0
   57.7180   30.6240   46.2970 O   0  0  0  0  0  0  0  0  0  0  0  0
   56.2970   30.7000   44.4730 O   0  0  0  0  0  0  0  0  0  0  0  0
   56.4360   29.7910   43.3860 C   0  0  0  0  0  0  0  0  0  0  0  0
   57.4390   28.7070   43.7490 C   0  0  0  0  0  0  0  0  0  0  0  0
   61.7609   27.6690   52.2981 H   0  0  0  0  0  0  0  0  0  0  0  0
   60.7011   27.4135   50.8705 H   0  0  0  0  0  0  0  0  0  0  0  0
   61.9011   28.7501   50.8705 H   0  0  0  0  0  0  0  0  0  0  0  0
   59.5513   28.5414   52.8228 H   0  0  0  0  0  0  0  0  0  0  0  0
   60.6946   29.9375   52.5854 H   0  0  0  0  0  0  0  0  0  0  0  0
   59.6860   30.5710   50.7100 H   0  0  0  0  0  0  0  0  0  0  0  0
   57.1745   29.4168   51.0702 H   0  0  0  0  0  0  0  0  0  0  0  0
   57.9066   29.7057   52.6939 H   0  0  0  0  0  0  0  0  0  0  0  0
   57.5306   31.7376   50.4435 H   0  0  0  0  0  0  0  0  0  0  0  0
   56.6863   31.6717   52.0588 H   0  0  0  0  0  0  0  0  0  0  0  0
   58.2471   33.3131   52.4808 H   0  0  0  0  0  0  0  0  0  0  0  0
   59.1614   31.8404   52.9801 H   0  0  0  0  0  0  0  0  0  0  0  0
   61.3217   34.0960   51.1806 H   0  0  0  0  0  0  0  0  0  0  0  0
   60.7306   33.4893   52.7995 H   0  0  0  0  0  0  0  0  0  0  0  0
   62.9975   32.6601   52.3575 H   0  0  0  0  0  0  0  0  0  0  0  0
   61.7946   31.3084   52.3600 H   0  0  0  0  0  0  0  0  0  0  0  0
   62.7280   32.6867   49.8032 H   0  0  0  0  0  0  0  0  0  0  0  0
   63.5514   31.2412   50.5057 H   0  0  0  0  0  0  0  0  0  0  0  0
   61.5430   31.1860   48.7900 H   0  0  0  0  0  0  0  0  0  0  0  0
   60.6750   31.1190   50.2230 H   0  0  0  0  0  0  0  0  0  0  0  0
   58.7854   32.8680   49.2715 H   0  0  0  0  0  0  0  0  0  0  0  0
   58.5890   34.2706   50.3994 H   0  0  0  0  0  0  0  0  0  0  0  0
   60.3016   35.3301   49.4187 H   0  0  0  0  0  0  0  0  0  0  0  0
   61.3868   33.9290   49.8022 H   0  0  0  0  0  0  0  0  0  0  0  0
   62.1645   34.2332   46.5533 H   0  0  0  0  0  0  0  0  0  0  0  0
   62.6283   33.9240   48.2595 H   0  0  0  0  0  0  0  0  0  0  0  0
   60.4492   29.5218   46.0201 H   0  0  0  0  0  0  0  0  0  0  0  0
   61.7419   29.5946   47.2674 H   0  0  0  0  0  0  0  0  0  0  0  0
   58.8439   29.3799   47.6051 H   0  0  0  0  0  0  0  0  0  0  0  0
   60.1578   29.2156   48.8265 H   0  0  0  0  0  0  0  0  0  0  0  0
   59.4020   31.0540   49.6410 H   0  0  0  0  0  0  0  0  0  0  0  0
   60.1380   31.8310   48.3510 H   0  0  0  0  0  0  0  0  0  0  0  0
   59.1382   35.4716   47.6524 H   0  0  0  0  0  0  0  0  0  0  0  0
   60.6779   35.6727   46.7366 H   0  0  0  0  0  0  0  0  0  0  0  0
   59.1740   32.3570   46.6270 H   0  0  0  0  0  0  0  0  0  0  0  0
   57.4293   33.1148   44.3366 H   0  0  0  0  0  0  0  0  0  0  0  0
   58.8351   32.0621   43.9309 H   0  0  0  0  0  0  0  0  0  0  0  0
   55.4615   29.3294   43.1685 H   0  0  0  0  0  0  0  0  0  0  0  0
   56.7931   30.3354   42.4994 H   0  0  0  0  0  0  0  0  0  0  0  0
   57.5127   28.6273   44.8436 H   0  0  0  0  0  0  0  0  0  0  0  0
   57.1056   27.7448   43.3330 H   0  0  0  0  0  0  0  0  0  0  0  0
   58.4241   28.9648   43.3330 H   0  0  0  0  0  0  0  0  0  0  0  0
  1  2  1  0
  2  3  1  0
  3  4  1  0
  4  5  1  0
  5  6  1  0
  6  7  1  0
  7  8  1  0
  8  9  1  0
  9 10  1  0
 10 11  1  0
  7 12  1  0
 12 13  1  0
 13 14  1  0
 14 15  1  0
 15 16  1  0
 16 17  2  0
 16 18  1  0
 18 19  1  0
 19 20  1  0
 20 21  1  0
 14 22  1  0
 22 23  1  0
 23 24  2  0
 23 25  1  0
 25 26  1  0
 26 27  1  0
 27 28  2  0
 27 29  1  0
 29 30  1  0
 30 31  1  0
  1 32  1  0
  1 33  1  0
  1 34  1  0
  2 35  1  0
  2 36  1  0
  3 37  1  0
  4 38  1  0
  4 39  1  0
  5 40  1  0
  5 41  1  0
  6 42  1  0
  6 43  1  0
  8 44  1  0
  8 45  1  0
  9 46  1  0
  9 47  1  0
 10 48  1  0
 10 49  1  0
 11 50  1  0
 11 51  1  0
 12 52  1  0
 12 53  1  0
 13 54  1  0
 13 55  1  0
 15 56  1  0
 15 57  1  0
 19 58  1  0
 19 59  1  0
 20 60  1  0
 20 61  1  0
 21 62  1  0
 21 63  1  0
 22 64  1  0
 22 65  1  0
 25 66  1  0
 26 67  1  0
 26 68  1  0
 30 69  1  0
 30 70  1  0
 31 71  1  0
 31 72  1  0
 31 73  1  0
M  CHG  1  18  -1
M  END
>  <UniqueID>  (2) 
2

>  <SMILES>  (2) 
CCNCCCN(CCCN)CCN(CC(=O)[N-]CCN)CC(=O)NCC(=O)OCC

>  <Energy>  (2) 
39.524183030642675

>  <Genealogy>  (2) 
CCNCCCN(CCCN)CCN(CC(=O)[N-]CCN)CC(=O)NCC(=O)OCC (protonated)
CCNCCCN(CCCN)CCN(CC(=O)[N-]CCN)CC(=O)NCC(=O)OCC (3D coordinates assigned)
CCNCCCN(CCCN)CCN(CC(=O)[N-]CCN)CC(=O)NCC(=O)OCC (optimized conformer: 39.524183030642675 kcal/mol)

>  <smiles>  (2) 
CCNCCCN(CCCN)CCN(CC(=O)NCCN)CC(=O)NCC(=O)OCC

>  <score_type>  (2) 
oracle

>  <origin>  (2) 
adg

>  <m_score__min__energy>  (2) 
-5.6900000000000004

>  <m_primary>  (2) 
energy

$$$$
2:0
     RDKit          3D

 69 71  0  0  0  0  0  0  0  0999 V2000
   63.3870   33.8370   46.3770 C   0  0  0  0  0  0  0  0  0  0  0  0
   63.3380   32.4970   47.1270 C   0  0  0  0  0  0  0  0  0  0  0  0
   62.8840   32.6170   48.5310 N   0  0  0  0  0  0  0  0  0  0  0  0
   63.5290   31.6280   49.4140 C   0  0  0  0  0  0  0  0  0  0  0  0
   63.0080   33.9950   49.0590 C   0  0  0  0  0  0  0  0  0  0  0  0
   62.0950   34.1880   50.2730 C   0  0  0  0  0  0  0  0  0  0  0  0
   60.9600   33.2580   50.2070 N   0  0  0  0  0  0  0  0  0  0  0  0
   59.7140   33.8940   50.6640 C   0  0  0  0  0  0  0  0  0  0  0  0
   58.9890   33.0050   51.6760 C   0  0  0  0  0  0  0  0  0  0  0  0
   57.9600   32.1920   50.9820 N   0  0  0  0  0  0  0  0  0  0  0  0
   57.3200   31.2550   51.9260 C   0  0  0  0  0  0  0  0  0  0  0  0
   58.5390   31.4780   49.8230 C   0  0  0  0  0  0  0  0  0  0  0  0
   59.6230   30.4750   50.2570 C   0  0  0  0  0  0  0  0  0  0  0  0
   60.3720   29.8540   49.0660 C   0  0  0  0  0  0  0  0  0  0  0  0
   60.8910   30.8780   48.1440 N   0  0  0  0  0  0  0  0  0  0  0  0
   60.0700   30.9500   46.9450 C   0  0  0  0  0  0  0  0  0  0  0  0
   59.4880   32.1790   46.5350 C   0  0  0  0  0  0  0  0  0  0  0  0
   59.7930   33.4020   47.1850 C   0  0  0  0  0  0  0  0  0  0  0  0
   59.1370   34.5810   46.8440 C   0  0  0  0  0  0  0  0  0  0  0  0
   58.1640   34.5740   45.8550 C   0  0  0  0  0  0  0  0  0  0  0  0
   57.8810   33.4000   45.1620 C   0  0  0  0  0  0  0  0  0  0  0  0
   58.5750   32.1940   45.4430 C   0  0  0  0  0  0  0  0  0  0  0  0
   58.3710   31.0570   44.6870 N   0  0  0  0  0  0  0  0  0  0  0  0
   57.6720   31.1550   43.3840 C   0  0  0  0  0  0  0  0  0  0  0  0
   58.8690   29.8400   45.1080 C   0  0  0  0  0  0  0  0  0  0  0  0
   58.4830   28.6260   44.4820 C   0  0  0  0  0  0  0  0  0  0  0  0
   59.0690   27.4130   44.8320 C   0  0  0  0  0  0  0  0  0  0  0  0
   60.0370   27.3690   45.8230 C   0  0  0  0  0  0  0  0  0  0  0  0
   60.3860   28.5290   46.5090 C   0  0  0  0  0  0  0  0  0  0  0  0
   59.7820   29.7760   46.1990 C   0  0  0  0  0  0  0  0  0  0  0  0
   63.4172   34.6627   47.1031 H   0  0  0  0  0  0  0  0  0  0  0  0
   64.2870   33.8710   45.7454 H   0  0  0  0  0  0  0  0  0  0  0  0
   62.4919   33.9367   45.7454 H   0  0  0  0  0  0  0  0  0  0  0  0
   62.6474   31.8263   46.5948 H   0  0  0  0  0  0  0  0  0  0  0  0
   64.3658   32.1059   47.1538 H   0  0  0  0  0  0  0  0  0  0  0  0
   63.3501   31.9023   50.4641 H   0  0  0  0  0  0  0  0  0  0  0  0
   63.1068   30.6313   49.2183 H   0  0  0  0  0  0  0  0  0  0  0  0
   64.6113   31.6126   49.2183 H   0  0  0  0  0  0  0  0  0  0  0  0
   64.0510   34.1756   49.3581 H   0  0  0  0  0  0  0  0  0  0  0  0
   62.7105   34.7052   48.2735 H   0  0  0  0  0  0  0  0  0  0  0  0
   62.6679   33.9974   51.1925 H   0  0  0  0  0  0  0  0  0  0  0  0
   61.7139   35.2199   50.2751 H   0  0  0  0  0  0  0  0  0  0  0  0
   60.8280   32.9930   49.2040 H   0  0  0  0  0  0  0  0  0  0  0  0
   59.9536   34.8576   51.1373 H   0  0  0  0  0  0  0  0  0  0  0  0
   59.0571   34.0467   49.7950 H   0  0  0  0  0  0  0  0  0  0  0  0
   59.7154   32.3374   52.1624 H   0  0  0  0  0  0  0  0  0  0  0  0
   58.5030   33.6375   52.4335 H   0  0  0  0  0  0  0  0  0  0  0  0
   57.5351   31.5699   52.9578 H   0  0  0  0  0  0  0  0  0  0  0  0
   56.2323   31.2550   51.7619 H   0  0  0  0  0  0  0  0  0  0  0  0
   57.7156   30.2418   51.7619 H   0  0  0  0  0  0  0  0  0  0  0  0
   57.7372   30.9336   49.3026 H   0  0  0  0  0  0  0  0  0  0  0  0
   59.0050   32.2215   49.1596 H   0  0  0  0  0  0  0  0  0  0  0  0
   60.3503   30.9980   50.8954 H   0  0  0  0  0  0  0  0  0  0  0  0
   59.1211   29.6574   50.7951 H   0  0  0  0  0  0  0  0  0  0  0  0
   61.2155   29.2602   49.4479 H   0  0  0  0  0  0  0  0  0  0  0  0
   59.6615   29.2254   48.5092 H   0  0  0  0  0  0  0  0  0  0  0  0
   61.8900   30.6830   47.9120 H   0  0  0  0  0  0  0  0  0  0  0  0
   60.9400   31.8140   48.6010 H   0  0  0  0  0  0  0  0  0  0  0  0
   60.5612   33.4190   47.9721 H   0  0  0  0  0  0  0  0  0  0  0  0
   59.3902   35.5194   47.3591 H   0  0  0  0  0  0  0  0  0  0  0  0
   57.6153   35.4974   45.6180 H   0  0  0  0  0  0  0  0  0  0  0  0
   57.1052   33.4072   44.3822 H   0  0  0  0  0  0  0  0  0  0  0  0
   56.5960   31.3059   43.5556 H   0  0  0  0  0  0  0  0  0  0  0  0
   58.0753   32.0054   42.8146 H   0  0  0  0  0  0  0  0  0  0  0  0
   57.8259   30.2265   42.8146 H   0  0  0  0  0  0  0  0  0  0  0  0
   57.7050   28.6442   43.7045 H   0  0  0  0  0  0  0  0  0  0  0  0
   58.7634   26.4879   44.3213 H   0  0  0  0  0  0  0  0  0  0  0  0
   60.5300   26.4166   46.0677 H   0  0  0  0  0  0  0  0  0  0  0  0
   61.1432   28.4786   47.3054 H   0  0  0  0  0  0  0  0  0  0  0  0
  1  2  1  0
  2  3  1  0
  3  4  1  0
  3  5  1  0
  5  6  1  0
  6  7  1  0
  7  8  1  0
  8  9  1  0
  9 10  1  0
 10 11  1  0
 10 12  1  0
 12 13  1  0
 13 14  1  0
 14 15  1  0
 15 16  1  0
 16 17  2  0
 17 18  1  0
 18 19  2  0
 19 20  1  0
 20 21  2  0
 21 22  1  0
 22 23  2  0
 23 24  1  0
 23 25  1  0
 25 26  2  0
 26 27  1  0
 27 28  2  0
 28 29  1  0
 29 30  2  0
 30 16  1  0
 22 17  1  0
 30 25  1  0
  1 31  1  0
  1 32  1  0
  1 33  1  0
  2 34  1  0
  2 35  1  0
  4 36  1  0
  4 37  1  0
  4 38  1  0
  5 39  1  0
  5 40  1  0
  6 41  1  0
  6 42  1  0
  7 43  1  0
  8 44  1  0
  8 45  1  0
  9 46  1  0
  9 47  1  0
 11 48  1  0
 11 49  1  0
 11 50  1  0
 12 51  1  0
 12 52  1  0
 13 53  1  0
 13 54  1  0
 14 55  1  0
 14 56  1  0
 15 57  1  0
 15 58  1  0
 18 59  1  0
 19 60  1  0
 20 61  1  0
 21 62  1  0
 24 63  1  0
 24 64  1  0
 24 65  1  0
 26 66  1  0
 27 67  1  0
 28 68  1  0
 29 69  1  0
M  CHG  2  15   1  23   1
M  END
>  <UniqueID>  (3) 
3

>  <SMILES>  (3) 
CCN(C)CCNCCN(C)CCC[NH2+]c1c2ccccc2[n+](C)c2ccccc12

>  <Energy>  (3) 
93.37895781185809

>  <Genealogy>  (3) 
CCN(C)CCNCCN(C)CCC[NH2+]c1c2ccccc2[n+](C)c2ccccc12 (protonated)
CCN(C)CCNCCN(C)CCC[NH2+]c1c2ccccc2[n+](C)c2ccccc12 (3D coordinates assigned)
CCN(C)CCNCCN(C)CCC[NH2+]c1c2ccccc2[n+](C)c2ccccc12 (optimized conformer: 93.37895781185809 kcal/mol)

>  <smiles>  (3) 
CCN(C)CCNCCN(C)CCCNc1c2ccccc2[n+](C)c2ccccc12

>  <score_type>  (3) 
oracle

>  <origin>  (3) 
adg

>  <m_score__min__energy>  (3) 
-4.0599999999999996

>  <m_primary>  (3) 
energy

$$$$
3:0
     RDKit          3D

 76 80  0  0  0  0  0  0  0  0999 V2000
   62.8950   33.8450   46.3220 C   0  0  0  0  0  0  0  0  0  0  0  0
   63.4130   32.7520   47.2690 C   0  0  0  0  0  0  0  0  0  0  0  0
   64.2620   33.3110   48.3330 N   0  0  0  0  0  0  0  0  0  0  0  0
   63.8900   32.8220   49.6740 C   0  0  0  0  0  0  0  0  0  0  0  0
   63.1140   33.9160   50.4250 C   0  0  0  0  0  0  0  0  0  0  0  0
   61.8110   33.4240   50.9160 N   0  0  0  0  0  0  0  0  0  0  0  0
   61.2600   32.4600   49.9630 C   0  0  0  0  0  0  0  0  0  0  0  0
   61.3640   31.0560   50.1940 C   0  0  0  0  0  0  0  0  0  0  0  0
   62.2000   30.5090   51.2000 C   0  0  0  0  0  0  0  0  0  0  0  0
   62.2310   29.1410   51.4480 C   0  0  0  0  0  0  0  0  0  0  0  0
   61.4460   28.2800   50.7020 C   0  0  0  0  0  0  0  0  0  0  0  0
   60.6430   28.7770   49.6890 C   0  0  0  0  0  0  0  0  0  0  0  0
   60.5720   30.1690   49.4190 C   0  0  0  0  0  0  0  0  0  0  0  0
   59.7350   30.6590   48.4390 N   0  0  0  0  0  0  0  0  0  0  0  0
   58.5710   29.8390   48.0520 C   0  0  0  0  0  0  0  0  0  0  0  0
   59.8580   31.9650   48.0000 C   0  0  0  0  0  0  0  0  0  0  0  0
   60.4980   32.9110   48.8480 C   0  0  0  0  0  0  0  0  0  0  0  0
   60.3320   34.2900   48.5770 C   0  0  0  0  0  0  0  0  0  0  0  0
   59.6260   34.7250   47.4660 C   0  0  0  0  0  0  0  0  0  0  0  0
   59.1390   33.8140   46.5360 C   0  0  0  0  0  0  0  0  0  0  0  0
   58.5070   34.2910   45.3760 C   0  0  0  0  0  0  0  0  0  0  0  0
   58.0830   33.4000   44.3960 C   0  0  0  0  0  0  0  0  0  0  0  0
   58.3380   32.0290   44.5320 C   0  0  0  0  0  0  0  0  0  0  0  0
   57.9440   31.0970   43.5600 O   0  0  0  0  0  0  0  0  0  0  0  0
   56.9210   30.1180   43.7380 C   0  0  0  0  0  0  0  0  0  0  0  0
   57.2560   29.1660   44.9130 C   0  0  0  0  0  0  0  0  0  0  0  0
   58.1850   28.0340   44.5770 N   0  0  0  0  0  0  0  0  0  0  0  0
   57.8530   27.5050   43.2290 C   0  0  0  0  0  0  0  0  0  0  0  0
   59.5850   28.5820   44.5120 C   0  0  0  0  0  0  0  0  0  0  0  0
   60.3400   28.4760   45.8510 C   0  0  0  0  0  0  0  0  0  0  0  0
   60.4930   27.0070   46.2770 C   0  0  0  0  0  0  0  0  0  0  0  0
   59.3470   26.1200   45.7600 C   0  0  0  0  0  0  0  0  0  0  0  0
   58.0580   26.9380   45.5950 C   0  0  0  0  0  0  0  0  0  0  0  0
   58.9960   31.5610   45.6770 C   0  0  0  0  0  0  0  0  0  0  0  0
   59.3060   32.4260   46.7530 C   0  0  0  0  0  0  0  0  0  0  0  0
   62.4976   34.6836   46.9125 H   0  0  0  0  0  0  0  0  0  0  0  0
   63.7199   34.2017   45.6877 H   0  0  0  0  0  0  0  0  0  0  0  0
   62.0966   33.4324   45.6877 H   0  0  0  0  0  0  0  0  0  0  0  0
   62.5536   32.2426   47.7294 H   0  0  0  0  0  0  0  0  0  0  0  0
   64.0198   32.0480   46.6806 H   0  0  0  0  0  0  0  0  0  0  0  0
   65.2680   33.0760   48.1360 H   0  0  0  0  0  0  0  0  0  0  0  0
   63.2579   31.9272   49.5750 H   0  0  0  0  0  0  0  0  0  0  0  0
   64.8010   32.5690   50.2362 H   0  0  0  0  0  0  0  0  0  0  0  0
   63.7139   34.2529   51.2832 H   0  0  0  0  0  0  0  0  0  0  0  0
   62.9258   34.7438   49.7254 H   0  0  0  0  0  0  0  0  0  0  0  0
   61.8960   33.0020   51.8640 H   0  0  0  0  0  0  0  0  0  0  0  0
   61.1800   34.2310   51.1000 H   0  0  0  0  0  0  0  0  0  0  0  0
   62.8364   31.1797   51.7959 H   0  0  0  0  0  0  0  0  0  0  0  0
   62.8819   28.7421   52.2400 H   0  0  0  0  0  0  0  0  0  0  0  0
   61.4597   27.2006   50.9135 H   0  0  0  0  0  0  0  0  0  0  0  0
   60.0482   28.0792   49.0813 H   0  0  0  0  0  0  0  0  0  0  0  0
   58.0594   29.4786   48.9566 H   0  0  0  0  0  0  0  0  0  0  0  0
   57.8757   30.4478   47.4554 H   0  0  0  0  0  0  0  0  0  0  0  0
   58.9102   28.9793   47.4554 H   0  0  0  0  0  0  0  0  0  0  0  0
   60.7716   35.0309   49.2610 H   0  0  0  0  0  0  0  0  0  0  0  0
   59.4496   35.8008   47.3191 H   0  0  0  0  0  0  0  0  0  0  0  0
   58.3471   35.3711   45.2424 H   0  0  0  0  0  0  0  0  0  0  0  0
   57.5458   33.7727   43.5114 H   0  0  0  0  0  0  0  0  0  0  0  0
   55.9693   30.6276   43.9491 H   0  0  0  0  0  0  0  0  0  0  0  0
   56.8452   29.5216   42.8168 H   0  0  0  0  0  0  0  0  0  0  0  0
   57.7217   29.7623   45.7114 H   0  0  0  0  0  0  0  0  0  0  0  0
   56.3040   28.7009   45.2087 H   0  0  0  0  0  0  0  0  0  0  0  0
   57.2708   26.5774   43.3323 H   0  0  0  0  0  0  0  0  0  0  0  0
   57.2604   28.2504   42.6783 H   0  0  0  0  0  0  0  0  0  0  0  0
   58.7819   27.2955   42.6783 H   0  0  0  0  0  0  0  0  0  0  0  0
   60.1451   28.0212   43.7493 H   0  0  0  0  0  0  0  0  0  0  0  0
   59.5070   29.6508   44.2639 H   0  0  0  0  0  0  0  0  0  0  0  0
   61.3380   28.9247   45.7387 H   0  0  0  0  0  0  0  0  0  0  0  0
   59.7652   29.0087   46.6229 H   0  0  0  0  0  0  0  0  0  0  0  0
   61.4437   26.6219   45.8797 H   0  0  0  0  0  0  0  0  0  0  0  0
   60.4705   26.9742   47.3763 H   0  0  0  0  0  0  0  0  0  0  0  0
   59.6313   25.6942   44.7864 H   0  0  0  0  0  0  0  0  0  0  0  0
   59.1649   25.3173   46.4898 H   0  0  0  0  0  0  0  0  0  0  0  0
   57.2504   26.2602   45.2814 H   0  0  0  0  0  0  0  0  0  0  0  0
   57.8430   27.4123   46.5639 H   0  0  0  0  0  0  0  0  0  0  0  0
   59.2773   30.4995   45.7408 H   0  0  0  0  0  0  0  0  0  0  0  0
  1  2  1  0
  2  3  1  0
  3  4  1  0
  4  5  1  0
  5  6  1  0
  6  7  1  0
  7  8  2  0
  8  9  1  0
  9 10  2  0
 10 11  1  0
 11 12  2  0
 12 13  1  0
 13 14  2  0
 14 15  1  0
 14 16  1  0
 16 17  2  0
 17 18  1  0
 18 19  2  0
 19 20  1  0
 20 21  2  0
 21 22  1  0
 22 23  2  0
 23 24  1  0
 24 25  1  0
 25 26  1  0
 26 27  1  0
 27 28  1  0
 27 29  1  0
 29 30  1  0
 30 31  1  0
 31 32  1  0
 32 33  1  0
 23 34  1  0
 34 35  2  0
 17  7  1  0
 35 20  1  0
 13  8  1  0
 35 16  1  0
 33 27  1  0
  1 36  1  0
  1 37  1  0
  1 38  1  0
  2 39  1  0
  2 40  1  0
  3 41  1  0
  4 42  1  0
  4 43  1  0
  5 44  1  0
  5 45  1  0
  6 46  1  0
  6 47  1  0
  9 48  1  0
 10 49  1  0
 11 50  1  0
 12 51  1  0
 15 52  1  0
 15 53  1  0
 15 54  1  0
 18 55  1  0
 19 56  1  0
 21 57  1  0
 22 58  1  0
 25 59  1  0
 25 60  1  0
 26 61  1  0
 26 62  1  0
 28 63  1  0
 28 64  1  0
 28 65  1  0
 29 66  1  0
 29 67  1  0
 30 68  1  0
 30 69  1  0
 31 70  1  0
 31 71  1  0
 32 72  1  0
 32 73  1  0
 33 74  1  0
 33 75  1  0
 34 76  1  0
M  CHG  3   6   1  14   1  27   1
M  END
>  <UniqueID>  (4) 
4

>  <SMILES>  (4) 
CCNCC[NH2+]c1c2ccccc2[n+](C)c2c1ccc1ccc(OCC[N+]3(C)CCCCC3)cc12

>  <Energy>  (4) 
140.83899898390914

>  <Genealogy>  (4) 
CCNCC[NH2+]c1c2ccccc2[n+](C)c2c1ccc1ccc(OCC[N+]3(C)CCCCC3)cc12 (protonated)
CCNCC[NH2+]c1c2ccccc2[n+](C)c2c1ccc1ccc(OCC[N+]3(C)CCCCC3)cc12 (3D coordinates assigned)
CCNCC[NH2+]c1c2ccccc2[n+](C)c2c1ccc1ccc(OCC[N+]3(C)CCCCC3)cc12 (nonaromatic ring conformer: 140.83899898390914 kcal/mol)

>  <smiles>  (4) 
CCNCCNc1c2ccccc2[n+](C)c2c1ccc1ccc(OCC[N+]3(C)CCCCC3)cc12

>  <score_type>  (4) 
oracle

>  <origin>  (4) 
adg

>  <m_score__min__energy>  (4) 
-5.1399999999999997

>  <m_primary>  (4) 
energy

$$$$
4:0
     RDKit          3D

 34 36  0  0  0  0  0  0  0  0999 V2000
   66.1520   32.3700   50.2080 C   0  0  0  0  0  0  0  0  0  0  0  0
   64.7230   32.7640   49.8550 C   0  0  0  0  0  0  0  0  0  0  0  0
   64.6640   33.2370   48.4660 N   0  0  0  0  0  0  0  0  0  0  0  0
   63.3830   33.8980   48.1680 C   0  0  0  0  0  0  0  0  0  0  0  0
   62.3610   32.9330   47.6350 C   0  0  0  0  0  0  0  0  0  0  0  0
   62.4290   31.5490   47.7160 C   0  0  0  0  0  0  0  0  0  0  0  0
   61.3080   30.9070   47.1740 C   0  0  0  0  0  0  0  0  0  0  0  0
   60.3470   31.7850   46.6670 C   0  0  0  0  0  0  0  0  0  0  0  0
   59.0510   31.4220   46.0390 C   0  0  0  0  0  0  0  0  0  0  0  0
   58.2440   32.4030   45.3900 C   0  0  0  0  0  0  0  0  0  0  0  0
   57.0520   32.0600   44.8120 N   0  0  0  0  0  0  0  0  0  0  0  0
   56.6420   30.7720   44.8670 C   0  0  0  0  0  0  0  0  0  0  0  0
   55.5110   30.2690   44.3450 N   0  0  0  0  0  0  0  0  0  0  0  0
   55.5080   28.9660   44.6180 N   0  0  0  0  0  0  0  0  0  0  0  0
   56.6290   28.6590   45.3160 C   0  0  0  0  0  0  0  0  0  0  0  0
   56.9950   27.2830   45.7630 C   0  0  0  0  0  0  0  0  0  0  0  0
   57.3710   29.8050   45.4780 C   0  0  0  0  0  0  0  0  0  0  0  0
   58.5900   30.0840   46.0800 C   0  0  0  0  0  0  0  0  0  0  0  0
   60.9090   33.3600   46.9070 S   0  0  0  0  0  0  0  0  0  0  0  0
   66.2642   32.3391   51.3018 H   0  0  0  0  0  0  0  0  0  0  0  0
   66.3729   31.3774   49.7885 H   0  0  0  0  0  0  0  0  0  0  0  0
   66.8504   33.1091   49.7885 H   0  0  0  0  0  0  0  0  0  0  0  0
   64.0645   31.8906   49.9712 H   0  0  0  0  0  0  0  0  0  0  0  0
   64.3930   33.5702   50.5266 H   0  0  0  0  0  0  0  0  0  0  0  0
   64.7860   32.4210   47.8220 H   0  0  0  0  0  0  0  0  0  0  0  0
   62.9946   34.3522   49.0915 H   0  0  0  0  0  0  0  0  0  0  0  0
   63.5657   34.6597   47.3958 H   0  0  0  0  0  0  0  0  0  0  0  0
   63.2783   31.0101   48.1613 H   0  0  0  0  0  0  0  0  0  0  0  0
   61.1950   29.8131   47.1499 H   0  0  0  0  0  0  0  0  0  0  0  0
   58.5842   33.4484   45.3537 H   0  0  0  0  0  0  0  0  0  0  0  0
   57.0051   27.2451   46.8623 H   0  0  0  0  0  0  0  0  0  0  0  0
   56.2569   26.5640   45.3781 H   0  0  0  0  0  0  0  0  0  0  0  0
   57.9928   27.0257   45.3781 H   0  0  0  0  0  0  0  0  0  0  0  0
   59.1769   29.2940   46.5713 H   0  0  0  0  0  0  0  0  0  0  0  0
  1  2  1  0
  2  3  1  0
  3  4  1  0
  4  5  1  0
  5  6  2  0
  6  7  1  0
  7  8  2  0
  8  9  1  0
  9 10  1  0
 10 11  2  0
 11 12  1  0
 12 13  2  0
 13 14  1  0
 14 15  1  0
 15 16  1  0
 15 17  2  0
 17 18  1  0
  8 19  1  0
 19  5  1  0
 18  9  2  0
 17 12  1  0
  1 20  1  0
  1 21  1  0
  1 22  1  0
  2 23  1  0
  2 24  1  0
  3 25  1  0
  4 26  1  0
  4 27  1  0
  6 28  1  0
  7 29  1  0
 10 30  1  0
 16 31  1  0
 16 32  1  0
 16 33  1  0
 18 34  1  0
M  CHG  1  14  -1
M  END
>  <UniqueID>  (5) 
5

>  <SMILES>  (5) 
CCNCc1ccc(-c2cnc3n[n-]c(C)c3c2)s1

>  <Energy>  (5) 
99.24088835177619

>  <Genealogy>  (5) 
CCNCc1ccc(-c2cnc3n[n-]c(C)c3c2)s1 (protonated)
CCNCc1ccc(-c2cnc3n[n-]c(C)c3c2)s1 (3D coordinates assigned)
CCNCc1ccc(-c2cnc3n[n-]c(C)c3c2)s1 (optimized conformer: 99.24088835177619 kcal/mol)

>  <smiles>  (5) 
CCNCc1ccc(-c2cnc3n[nH]c(C)c3c2)s1

>  <score_type>  (5) 
oracle

>  <origin>  (5) 
adg

>  <m_score__min__energy>  (5) 
-8.7300000000000004

>  <m_primary>  (5) 
energy

$$$$
5:0
     RDKit          3D

 43 44  0  0  0  0  0  0  0  0999 V2000
   56.5350   29.7050   43.3900 C   0  0  0  0  0  0  0  0  0  0  0  0
   57.1840   28.7550   44.3980 C   0  0  0  0  0  0  0  0  0  0  0  0
   57.7850   27.5450   43.6850 C   0  0  0  0  0  0  0  0  0  0  0  0
   56.1910   28.2950   45.3660 N   0  0  0  0  0  0  0  0  0  0  0  0
   56.2170   27.0000   45.9760 C   0  0  0  0  0  0  0  0  0  0  0  0
   55.2020   26.2540   45.9400 O   0  0  0  0  0  0  0  0  0  0  0  0
   57.4700   26.5260   46.6550 C   0  0  0  0  0  0  0  0  0  0  0  0
   58.3500   27.6460   47.0290 N   0  0  0  0  0  0  0  0  0  0  0  0
   59.7270   27.4720   46.5440 C   0  0  0  0  0  0  0  0  0  0  0  0
   60.3510   28.8290   46.2100 C   0  0  0  0  0  0  0  0  0  0  0  0
   59.6510   29.8960   46.9240 N   0  0  0  0  0  0  0  0  0  0  0  0
   60.0510   31.2640   46.7650 C   0  0  0  0  0  0  0  0  0  0  0  0
   61.3410   31.6380   47.1620 C   0  0  0  0  0  0  0  0  0  0  0  0
   61.7600   32.9660   47.0630 C   0  0  0  0  0  0  0  0  0  0  0  0
   63.5160   33.4560   47.6300 Br  0  0  0  0  0  0  0  0  0  0  0  0
   60.8970   33.9380   46.5550 C   0  0  0  0  0  0  0  0  0  0  0  0
   59.6090   33.5850   46.1260 C   0  0  0  0  0  0  0  0  0  0  0  0
   58.7500   34.5590   45.5940 C   0  0  0  0  0  0  0  0  0  0  0  0
   57.4790   34.2050   45.1390 C   0  0  0  0  0  0  0  0  0  0  0  0
   57.0570   32.8760   45.2040 C   0  0  0  0  0  0  0  0  0  0  0  0
   57.8990   31.8940   45.7330 C   0  0  0  0  0  0  0  0  0  0  0  0
   59.1780   32.2350   46.2180 C   0  0  0  0  0  0  0  0  0  0  0  0
   55.9939   30.4970   43.9284 H   0  0  0  0  0  0  0  0  0  0  0  0
   57.3138   30.1572   42.7583 H   0  0  0  0  0  0  0  0  0  0  0  0
   55.8306   29.1439   42.7583 H   0  0  0  0  0  0  0  0  0  0  0  0
   57.9836   29.3018   44.9192 H   0  0  0  0  0  0  0  0  0  0  0  0
   58.1446   26.8211   44.4311 H   0  0  0  0  0  0  0  0  0  0  0  0
   57.0172   27.0718   43.0553 H   0  0  0  0  0  0  0  0  0  0  0  0
   58.6260   27.8709   43.0553 H   0  0  0  0  0  0  0  0  0  0  0  0
   57.1938   25.9719   47.5643 H   0  0  0  0  0  0  0  0  0  0  0  0
   58.0175   25.8835   45.9497 H   0  0  0  0  0  0  0  0  0  0  0  0
   57.9590   28.5340   46.6350 H   0  0  0  0  0  0  0  0  0  0  0  0
   60.3264   26.9797   47.3240 H   0  0  0  0  0  0  0  0  0  0  0  0
   59.7092   26.8540   45.6342 H   0  0  0  0  0  0  0  0  0  0  0  0
   61.4096   28.8256   46.5088 H   0  0  0  0  0  0  0  0  0  0  0  0
   60.2669   29.0061   45.1276 H   0  0  0  0  0  0  0  0  0  0  0  0
   58.6500   29.7180   47.1690 H   0  0  0  0  0  0  0  0  0  0  0  0
   62.0312   30.8774   47.5559 H   0  0  0  0  0  0  0  0  0  0  0  0
   61.2281   34.9850   46.4908 H   0  0  0  0  0  0  0  0  0  0  0  0
   59.0801   35.6067   45.5354 H   0  0  0  0  0  0  0  0  0  0  0  0
   56.8087   34.9745   44.7285 H   0  0  0  0  0  0  0  0  0  0  0  0
   56.0572   32.6004   44.8372 H   0  0  0  0  0  0  0  0  0  0  0  0
   57.5614   30.8478   45.7712 H   0  0  0  0  0  0  0  0  0  0  0  0
  1  2  1  0
  2  3  1  0
  2  4  1  0
  4  5  1  0
  5  6  2  0
  5  7  1  0
  7  8  1  0
  8  9  1  0
  9 10  1  0
 10 11  1  0
 11 12  1  0
 12 13  2  0
 13 14  1  0
 14 15  1  0
 14 16  2  0
 16 17  1  0
 17 18  2  0
 18 19  1  0
 19 20  2  0
 20 21  1  0
 21 22  2  0
 22 12  1  0
 22 17  1  0
  1 23  1  0
  1 24  1  0
  1 25  1  0
  2 26  1  0
  3 27  1  0
  3 28  1  0
  3 29  1  0
  7 30  1  0
  7 31  1  0
  8 32  1  0
  9 33  1  0
  9 34  1  0
 10 35  1  0
 10 36  1  0
 11 37  1  0
 13 38  1  0
 16 39  1  0
 18 40  1  0
 19 41  1  0
 20 42  1  0
 21 43  1  0
M  CHG  1   4  -1
M  END
>  <UniqueID>  (6) 
6

>  <SMILES>  (6) 
CC(C)[N-]C(=O)CNCCNc1cc(Br)cc2ccccc12

>  <Energy>  (6) 
42.54471434814033

>  <Genealogy>  (6) 
CC(C)[N-]C(=O)CNCCNc1cc(Br)cc2ccccc12 (protonated)
CC(C)[N-]C(=O)CNCCNc1cc(Br)cc2ccccc12 (3D coordinates assigned)
CC(C)[N-]C(=O)CNCCNc1cc(Br)cc2ccccc12 (optimized conformer: 42.54471434814033 kcal/mol)

>  <smiles>  (6) 
CC(C)NC(=O)CNCCNc1cc(Br)cc2ccccc12

>  <score_type>  (6) 
oracle

>  <origin>  (6) 
adg

>  <m_score__min__energy>  (6) 
-9.6099999999999994

>  <m_primary>  (6) 
energy

$$$$
6:0
     RDKit          3D

 63 66  0  0  0  0  0  0  0  0999 V2000
   57.9140   26.9400   46.4060 C   0  0  0  0  0  0  0  0  0  0  0  0
   56.6840   27.3920   45.6300 C   0  0  0  0  0  0  0  0  0  0  0  0
   56.7970   28.8180   45.2950 N   0  0  0  0  0  0  0  0  0  0  0  0
   56.7180   29.0320   43.8430 C   0  0  0  0  0  0  0  0  0  0  0  0
   56.4890   30.5150   43.5330 C   0  0  0  0  0  0  0  0  0  0  0  0
   56.4730   31.2820   44.7360 O   0  0  0  0  0  0  0  0  0  0  0  0
   57.6050   31.8150   45.3770 C   0  0  0  0  0  0  0  0  0  0  0  0
   57.7280   33.1940   45.6930 C   0  0  0  0  0  0  0  0  0  0  0  0
   58.8800   33.6810   46.3320 C   0  0  0  0  0  0  0  0  0  0  0  0
   59.8940   32.7770   46.6430 C   0  0  0  0  0  0  0  0  0  0  0  0
   59.7880   31.4340   46.3400 C   0  0  0  0  0  0  0  0  0  0  0  0
   58.6520   30.9330   45.7050 C   0  0  0  0  0  0  0  0  0  0  0  0
   61.0070   30.6730   46.7750 C   0  0  0  0  0  0  0  0  0  0  0  0
   61.8240   31.7830   47.3700 C   0  0  0  0  0  0  0  0  0  0  0  0
   63.0900   31.6900   47.9490 C   0  0  0  0  0  0  0  0  0  0  0  0
   63.7000   32.8660   48.4500 C   0  0  0  0  0  0  0  0  0  0  0  0
   64.9740   32.8650   49.0410 O   0  0  0  0  0  0  0  0  0  0  0  0
   65.2330   32.7710   50.4430 C   0  0  0  0  0  0  0  0  0  0  0  0
   64.5750   31.5160   51.0280 C   0  0  0  0  0  0  0  0  0  0  0  0
   63.1010   31.5930   50.9290 N   0  0  0  0  0  0  0  0  0  0  0  0
   62.5440   32.6630   51.7910 C   0  0  0  0  0  0  0  0  0  0  0  0
   61.3900   33.4630   51.1550 C   0  0  0  0  0  0  0  0  0  0  0  0
   60.0490   32.7200   51.0610 C   0  0  0  0  0  0  0  0  0  0  0  0
   60.1490   31.3250   50.4210 C   0  0  0  0  0  0  0  0  0  0  0  0
   60.9300   30.2650   51.2390 C   0  0  0  0  0  0  0  0  0  0  0  0
   62.4570   30.2530   51.0220 C   0  0  0  0  0  0  0  0  0  0  0  0
   63.0130   34.0960   48.3610 C   0  0  0  0  0  0  0  0  0  0  0  0
   61.7390   34.1700   47.7770 C   0  0  0  0  0  0  0  0  0  0  0  0
   61.1700   32.9950   47.2880 C   0  0  0  0  0  0  0  0  0  0  0  0
   57.7141   27.0134   47.4852 H   0  0  0  0  0  0  0  0  0  0  0  0
   58.1483   25.8970   46.1466 H   0  0  0  0  0  0  0  0  0  0  0  0
   58.7679   27.5831   46.1466 H   0  0  0  0  0  0  0  0  0  0  0  0
   56.6023   26.8054   44.7030 H   0  0  0  0  0  0  0  0  0  0  0  0
   55.7888   27.2367   46.2500 H   0  0  0  0  0  0  0  0  0  0  0  0
   55.9820   29.3090   45.7340 H   0  0  0  0  0  0  0  0  0  0  0  0
   57.6593   28.7055   43.3768 H   0  0  0  0  0  0  0  0  0  0  0  0
   55.8754   28.4495   43.4419 H   0  0  0  0  0  0  0  0  0  0  0  0
   57.2991   30.8780   42.8834 H   0  0  0  0  0  0  0  0  0  0  0  0
   55.5181   30.6263   43.0281 H   0  0  0  0  0  0  0  0  0  0  0  0
   56.9137   33.8870   45.4350 H   0  0  0  0  0  0  0  0  0  0  0  0
   58.9793   34.7480   46.5805 H   0  0  0  0  0  0  0  0  0  0  0  0
   58.5751   29.8626   45.4636 H   0  0  0  0  0  0  0  0  0  0  0  0
   60.7607   29.9043   47.5223 H   0  0  0  0  0  0  0  0  0  0  0  0
   61.5092   30.1137   45.9719 H   0  0  0  0  0  0  0  0  0  0  0  0
   63.6053   30.7204   48.0152 H   0  0  0  0  0  0  0  0  0  0  0  0
   66.3194   32.7203   50.6077 H   0  0  0  0  0  0  0  0  0  0  0  0
   64.8145   33.6574   50.9421 H   0  0  0  0  0  0  0  0  0  0  0  0
   64.9269   30.6338   50.4731 H   0  0  0  0  0  0  0  0  0  0  0  0
   64.8506   31.4394   52.0902 H   0  0  0  0  0  0  0  0  0  0  0  0
   62.1711   32.1992   52.7161 H   0  0  0  0  0  0  0  0  0  0  0  0
   63.3604   33.3790   51.9665 H   0  0  0  0  0  0  0  0  0  0  0  0
   61.2340   34.3707   51.7565 H   0  0  0  0  0  0  0  0  0  0  0  0
   61.6972   33.6678   50.1188 H   0  0  0  0  0  0  0  0  0  0  0  0
   59.6451   32.6057   52.0778 H   0  0  0  0  0  0  0  0  0  0  0  0
   59.3971   33.3219   50.4108 H   0  0  0  0  0  0  0  0  0  0  0  0
   59.1266   30.9487   50.2690 H   0  0  0  0  0  0  0  0  0  0  0  0
   60.7166   31.4626   49.4889 H   0  0  0  0  0  0  0  0  0  0  0  0
   60.7406   30.4531   52.3061 H   0  0  0  0  0  0  0  0  0  0  0  0
   60.5673   29.2867   50.8906 H   0  0  0  0  0  0  0  0  0  0  0  0
   62.9150   29.7144   51.8647 H   0  0  0  0  0  0  0  0  0  0  0  0
   62.6202   29.7707   50.0470 H   0  0  0  0  0  0  0  0  0  0  0  0
   63.4828   35.0093   48.7549 H   0  0  0  0  0  0  0  0  0  0  0  0
   61.2042   35.1287   47.7070 H   0  0  0  0  0  0  0  0  0  0  0  0
  1  2  1  0
  2  3  1  0
  3  4  1  0
  4  5  1  0
  5  6  1  0
  6  7  1  0
  7  8  2  0
  8  9  1  0
  9 10  2  0
 10 11  1  0
 11 12  2  0
 11 13  1  0
 13 14  1  0
 14 15  2  0
 15 16  1  0
 16 17  1  0
 17 18  1  0
 18 19  1  0
 19 20  1  0
 20 21  1  0
 21 22  1  0
 22 23  1  0
 23 24  1  0
 24 25  1  0
 25 26  1  0
 16 27  2  0
 27 28  1  0
 28 29  2  0
 12  7  1  0
 29 14  1  0
 29 10  1  0
 26 20  1  0
  1 30  1  0
  1 31  1  0
  1 32  1  0
  2 33  1  0
  2 34  1  0
  3 35  1  0
  4 36  1  0
  4 37  1  0
  5 38  1  0
  5 39  1  0
  8 40  1  0
  9 41  1  0
 12 42  1  0
 13 43  1  0
 13 44  1  0
 15 45  1  0
 18 46  1  0
 18 47  1  0
 19 48  1  0
 19 49  1  0
 21 50  1  0
 21 51  1  0
 22 52  1  0
 22 53  1  0
 23 54  1  0
 23 55  1  0
 24 56  1  0
 24 57  1  0
 25 58  1  0
 25 59  1  0
 26 60  1  0
 26 61  1  0
 27 62  1  0
 28 63  1  0
M  END
>  <UniqueID>  (7) 
7

>  <SMILES>  (7) 
CCNCCOc1ccc2c(c1)Cc1cc(OCCN3CCCCCC3)ccc1-2

>  <Energy>  (7) 
95.53086001459853

>  <Genealogy>  (7) 
CCNCCOc1ccc2c(c1)Cc1cc(OCCN3CCCCCC3)ccc1-2 (3D coordinates assigned)
CCNCCOc1ccc2c(c1)Cc1cc(OCCN3CCCCCC3)ccc1-2 (nonaromatic ring conformer: 95.53086001459853 kcal/mol)

>  <smiles>  (7) 
CCNCCOc1ccc2c(c1)Cc1cc(OCCN3CCCCCC3)ccc1-2

>  <score_type>  (7) 
oracle

>  <origin>  (7) 
adg

>  <m_score__min__energy>  (7) 
-6.0499999999999998

>  <m_primary>  (7) 
energy

$$$$
7:0
     RDKit          3D

 75 77  0  0  0  0  0  0  0  0999 V2000
   67.5080   28.4200   50.8740 C   0  0  0  0  0  0  0  0  0  0  0  0
   67.1700   29.9010   50.9410 C   0  0  0  0  0  0  0  0  0  0  0  0
   65.8680   30.0650   51.4960 O   0  0  0  0  0  0  0  0  0  0  0  0
   64.9710   31.0830   51.1360 C   0  0  0  0  0  0  0  0  0  0  0  0
   65.3880   32.4150   50.9490 C   0  0  0  0  0  0  0  0  0  0  0  0
   64.4640   33.4030   50.6060 C   0  0  0  0  0  0  0  0  0  0  0  0
   63.1110   33.0810   50.4410 C   0  0  0  0  0  0  0  0  0  0  0  0
   62.1090   34.1630   50.1160 C   0  0  0  0  0  0  0  0  0  0  0  0
   60.8720   33.6250   49.5230 N   0  0  0  0  0  0  0  0  0  0  0  0
   59.6430   34.1970   50.1000 C   0  0  0  0  0  0  0  0  0  0  0  0
   58.9090   33.2020   51.0150 C   0  0  0  0  0  0  0  0  0  0  0  0
   58.3080   31.9920   50.2740 C   0  0  0  0  0  0  0  0  0  0  0  0
   58.2230   30.7000   51.1100 C   0  0  0  0  0  0  0  0  0  0  0  0
   59.5720   30.0050   51.3770 C   0  0  0  0  0  0  0  0  0  0  0  0
   60.0330   29.0120   50.2850 C   0  0  0  0  0  0  0  0  0  0  0  0
   60.9560   29.5870   49.2890 N   0  0  0  0  0  0  0  0  0  0  0  0
   60.6930   29.1040   47.9230 C   0  0  0  0  0  0  0  0  0  0  0  0
   59.9590   30.1540   47.1180 C   0  0  0  0  0  0  0  0  0  0  0  0
   58.8640   29.7630   46.3380 C   0  0  0  0  0  0  0  0  0  0  0  0
   58.1560   30.6880   45.5590 C   0  0  0  0  0  0  0  0  0  0  0  0
   56.9940   30.1980   44.7300 C   0  0  0  0  0  0  0  0  0  0  0  0
   58.5350   32.0530   45.5830 C   0  0  0  0  0  0  0  0  0  0  0  0
   57.8270   33.0300   44.8480 C   0  0  0  0  0  0  0  0  0  0  0  0
   58.1940   34.3740   44.9120 C   0  0  0  0  0  0  0  0  0  0  0  0
   59.2620   34.7720   45.7140 C   0  0  0  0  0  0  0  0  0  0  0  0
   59.9800   33.8260   46.4450 C   0  0  0  0  0  0  0  0  0  0  0  0
   59.6460   32.4590   46.3750 C   0  0  0  0  0  0  0  0  0  0  0  0
   60.3830   31.4970   47.1020 C   0  0  0  0  0  0  0  0  0  0  0  0
   61.5260   31.8630   47.8220 O   0  0  0  0  0  0  0  0  0  0  0  0
   62.7740   32.1060   47.1800 C   0  0  0  0  0  0  0  0  0  0  0  0
   62.6930   31.7530   50.6150 C   0  0  0  0  0  0  0  0  0  0  0  0
   63.6190   30.7500   50.9630 C   0  0  0  0  0  0  0  0  0  0  0  0
   63.2330   29.4130   51.1540 O   0  0  0  0  0  0  0  0  0  0  0  0
   63.3020   28.7230   52.3990 C   0  0  0  0  0  0  0  0  0  0  0  0
   67.5997   28.0183   51.8939 H   0  0  0  0  0  0  0  0  0  0  0  0
   66.7088   27.8853   50.3398 H   0  0  0  0  0  0  0  0  0  0  0  0
   68.4601   28.2850   50.3398 H   0  0  0  0  0  0  0  0  0  0  0  0
   67.9065   30.4172   51.5743 H   0  0  0  0  0  0  0  0  0  0  0  0
   67.1941   30.3294   49.9281 H   0  0  0  0  0  0  0  0  0  0  0  0
   66.4487   32.6783   51.0741 H   0  0  0  0  0  0  0  0  0  0  0  0
   64.8003   34.4407   50.4644 H   0  0  0  0  0  0  0  0  0  0  0  0
   61.8529   34.6970   51.0430 H   0  0  0  0  0  0  0  0  0  0  0  0
   62.5698   34.8351   49.3771 H   0  0  0  0  0  0  0  0  0  0  0  0
   60.8780   33.8230   48.4950 H   0  0  0  0  0  0  0  0  0  0  0  0
   59.9096   35.0876   50.6879 H   0  0  0  0  0  0  0  0  0  0  0  0
   58.9681   34.4508   49.2693 H   0  0  0  0  0  0  0  0  0  0  0  0
   59.6237   32.8288   51.7633 H   0  0  0  0  0  0  0  0  0  0  0  0
   58.0674   33.7476   51.4667 H   0  0  0  0  0  0  0  0  0  0  0  0
   57.2907   32.2587   49.9517 H   0  0  0  0  0  0  0  0  0  0  0  0
   58.9856   31.7744   49.4352 H   0  0  0  0  0  0  0  0  0  0  0  0
   57.7710   30.9513   52.0808 H   0  0  0  0  0  0  0  0  0  0  0  0
   57.6246   29.9911   50.5189 H   0  0  0  0  0  0  0  0  0  0  0  0
   60.3421   30.7844   51.4742 H   0  0  0  0  0  0  0  0  0  0  0  0
   59.4304   29.4079   52.2899 H   0  0  0  0  0  0  0  0  0  0  0  0
   60.5402   28.1696   50.7780 H   0  0  0  0  0  0  0  0  0  0  0  0
   59.1296   28.7071   49.7365 H   0  0  0  0  0  0  0  0  0  0  0  0
   60.9180   30.6300   49.3160 H   0  0  0  0  0  0  0  0  0  0  0  0
   61.9250   29.3030   49.5650 H   0  0  0  0  0  0  0  0  0  0  0  0
   61.6494   28.8743   47.4305 H   0  0  0  0  0  0  0  0  0  0  0  0
   60.0678   28.2008   47.9809 H   0  0  0  0  0  0  0  0  0  0  0  0
   58.5530   28.7079   46.3367 H   0  0  0  0  0  0  0  0  0  0  0  0
   56.1868   29.8576   45.3952 H   0  0  0  0  0  0  0  0  0  0  0  0
   56.6252   31.0172   44.0953 H   0  0  0  0  0  0  0  0  0  0  0  0
   57.3231   29.3621   44.0953 H   0  0  0  0  0  0  0  0  0  0  0  0
   56.9772   32.7274   44.2185 H   0  0  0  0  0  0  0  0  0  0  0  0
   57.6387   35.1223   44.3275 H   0  0  0  0  0  0  0  0  0  0  0  0
   59.5393   35.8350   45.7706 H   0  0  0  0  0  0  0  0  0  0  0  0
   60.8156   34.1503   47.0827 H   0  0  0  0  0  0  0  0  0  0  0  0
   63.5541   32.2579   47.9405 H   0  0  0  0  0  0  0  0  0  0  0  0
   63.0375   31.2423   46.5518 H   0  0  0  0  0  0  0  0  0  0  0  0
   62.6942   33.0055   46.5518 H   0  0  0  0  0  0  0  0  0  0  0  0
   61.6330   31.4928   50.4785 H   0  0  0  0  0  0  0  0  0  0  0  0
   63.2296   29.4470   53.2240 H   0  0  0  0  0  0  0  0  0  0  0  0
   62.4711   28.0053   52.4670 H   0  0  0  0  0  0  0  0  0  0  0  0
   64.2585   28.1841   52.4670 H   0  0  0  0  0  0  0  0  0  0  0  0
  1  2  1  0
  2  3  1  0
  3  4  1  0
  4  5  2  0
  5  6  1  0
  6  7  2  0
  7  8  1  0
  8  9  1  0
  9 10  1  0
 10 11  1  0
 11 12  1  0
 12 13  1  0
 13 14  1  0
 14 15  1  0
 15 16  1  0
 16 17  1  0
 17 18  1  0
 18 19  2  0
 19 20  1  0
 20 21  1  0
 20 22  2  0
 22 23  1  0
 23 24  2  0
 24 25  1  0
 25 26  2  0
 26 27  1  0
 27 28  2  0
 28 29  1  0
 29 30  1  0
  7 31  1  0
 31 32  2  0
 32 33  1  0
 33 34  1  0
 32  4  1  0
 28 18  1  0
 27 22  1  0
  1 35  1  0
  1 36  1  0
  1 37  1  0
  2 38  1  0
  2 39  1  0
  5 40  1  0
  6 41  1  0
  8 42  1  0
  8 43  1  0
  9 44  1  0
 10 45  1  0
 10 46  1  0
 11 47  1  0
 11 48  1  0
 12 49  1  0
 12 50  1  0
 13 51  1  0
 13 52  1  0
 14 53  1  0
 14 54  1  0
 15 55  1  0
 15 56  1  0
 16 57  1  0
 16 58  1  0
 17 59  1  0
 17 60  1  0
 19 61  1  0
 21 62  1  0
 21 63  1  0
 21 64  1  0
 23 65  1  0
 24 66  1  0
 25 67  1  0
 26 68  1  0
 30 69  1  0
 30 70  1  0
 30 71  1  0
 31 72  1  0
 34 73  1  0
 34 74  1  0
 34 75  1  0
M  CHG  1  16   1
M  END
>  <UniqueID>  (8) 
8

>  <SMILES>  (8) 
CCOc1ccc(CNCCCCCC[NH2+]Cc2cc(C)c3ccccc3c2OC)cc1OC

>  <Energy>  (8) 
79.27973214229979

>  <Genealogy>  (8) 
CCOc1ccc(CNCCCCCC[NH2+]Cc2cc(C)c3ccccc3c2OC)cc1OC (protonated)
CCOc1ccc(CNCCCCCC[NH2+]Cc2cc(C)c3ccccc3c2OC)cc1OC (3D coordinates assigned)
CCOc1ccc(CNCCCCCC[NH2+]Cc2cc(C)c3ccccc3c2OC)cc1OC (optimized conformer: 79.27973214229979 kcal/mol)

>  <smiles>  (8) 
CCOc1ccc(CNCCCCCCNCc2cc(C)c3ccccc3c2OC)cc1OC

>  <score_type>  (8) 
oracle

>  <origin>  (8) 
adg

>  <m_score__min__energy>  (8) 
-6.8300000000000001

>  <m_primary>  (8) 
energy

$$$$
8:0
     RDKit          3D

 55 59  0  0  0  0  0  0  0  0999 V2000
   63.4700   31.9740   48.5590 C   0  0  0  0  0  0  0  0  0  0  0  0
   63.0980   31.1410   49.7840 C   0  0  0  0  0  0  0  0  0  0  0  0
   61.6490   31.1630   50.0370 N   0  0  0  0  0  0  0  0  0  0  0  0
   61.0560   29.8460   50.3380 C   0  0  0  0  0  0  0  0  0  0  0  0
   60.3180   29.1840   49.1530 C   0  0  0  0  0  0  0  0  0  0  0  0
   60.7900   29.6780   47.8470 N   0  0  0  0  0  0  0  0  0  0  0  0
   59.7070   29.6660   46.8820 C   0  0  0  0  0  0  0  0  0  0  0  0
   59.2040   30.8670   46.3500 C   0  0  0  0  0  0  0  0  0  0  0  0
   58.3790   30.8500   45.2380 C   0  0  0  0  0  0  0  0  0  0  0  0
   57.9440   29.7020   44.6420 N   0  0  0  0  0  0  0  0  0  0  0  0
   57.1230   29.7740   43.4190 C   0  0  0  0  0  0  0  0  0  0  0  0
   58.2910   28.4930   45.2150 C   0  0  0  0  0  0  0  0  0  0  0  0
   57.7740   27.2720   44.7170 C   0  0  0  0  0  0  0  0  0  0  0  0
   58.1550   26.0520   45.2670 C   0  0  0  0  0  0  0  0  0  0  0  0
   59.0520   26.0110   46.3260 C   0  0  0  0  0  0  0  0  0  0  0  0
   59.5690   27.1900   46.8570 C   0  0  0  0  0  0  0  0  0  0  0  0
   59.1990   28.4490   46.3300 C   0  0  0  0  0  0  0  0  0  0  0  0
   58.1290   32.2370   44.8850 C   0  0  0  0  0  0  0  0  0  0  0  0
   57.0150   32.7770   44.5170 N   0  0  0  0  0  0  0  0  0  0  0  0
   57.0310   34.0920   45.0940 C   0  0  0  0  0  0  0  0  0  0  0  0
   58.0700   34.2690   45.9150 C   0  0  0  0  0  0  0  0  0  0  0  0
   58.8340   33.0380   45.8230 C   0  0  0  0  0  0  0  0  0  0  0  0
   59.4180   32.2890   46.7600 C   0  0  0  0  0  0  0  0  0  0  0  0
   59.6300   32.7860   48.1360 C   0  0  0  0  0  0  0  0  0  0  0  0
   60.6530   33.7110   48.3980 C   0  0  0  0  0  0  0  0  0  0  0  0
   60.8500   34.1930   49.6950 C   0  0  0  0  0  0  0  0  0  0  0  0
   60.0240   33.7620   50.7370 C   0  0  0  0  0  0  0  0  0  0  0  0
   58.9950   32.8520   50.4820 C   0  0  0  0  0  0  0  0  0  0  0  0
   58.7920   32.3680   49.1850 C   0  0  0  0  0  0  0  0  0  0  0  0
   63.8985   32.9335   48.8844 H   0  0  0  0  0  0  0  0  0  0  0  0
   64.2098   31.4280   47.9552 H   0  0  0  0  0  0  0  0  0  0  0  0
   62.5696   32.1605   47.9552 H   0  0  0  0  0  0  0  0  0  0  0  0
   63.4151   30.1009   49.6176 H   0  0  0  0  0  0  0  0  0  0  0  0
   63.6056   31.5725   50.6593 H   0  0  0  0  0  0  0  0  0  0  0  0
   61.4470   31.8270   50.8200 H   0  0  0  0  0  0  0  0  0  0  0  0
   61.8639   29.1716   50.6583 H   0  0  0  0  0  0  0  0  0  0  0  0
   60.2998   30.0169   51.1184 H   0  0  0  0  0  0  0  0  0  0  0  0
   60.4809   28.0971   49.1988 H   0  0  0  0  0  0  0  0  0  0  0  0
   59.2511   29.4372   49.2403 H   0  0  0  0  0  0  0  0  0  0  0  0
   61.1900   30.6380   47.9270 H   0  0  0  0  0  0  0  0  0  0  0  0
   61.5710   29.0650   47.5390 H   0  0  0  0  0  0  0  0  0  0  0  0
   56.0621   29.8670   43.6945 H   0  0  0  0  0  0  0  0  0  0  0  0
   57.4257   30.6490   42.8251 H   0  0  0  0  0  0  0  0  0  0  0  0
   57.2688   28.8596   42.8251 H   0  0  0  0  0  0  0  0  0  0  0  0
   57.0591   27.2885   43.8812 H   0  0  0  0  0  0  0  0  0  0  0  0
   57.7438   25.1160   44.8611 H   0  0  0  0  0  0  0  0  0  0  0  0
   59.3560   25.0417   46.7480 H   0  0  0  0  0  0  0  0  0  0  0  0
   60.2755   27.1412   47.6987 H   0  0  0  0  0  0  0  0  0  0  0  0
   56.2757   34.8637   44.8844 H   0  0  0  0  0  0  0  0  0  0  0  0
   58.2970   35.1543   46.5271 H   0  0  0  0  0  0  0  0  0  0  0  0
   61.3016   34.0575   47.5799 H   0  0  0  0  0  0  0  0  0  0  0  0
   61.6568   34.9131   49.8962 H   0  0  0  0  0  0  0  0  0  0  0  0
   60.1841   34.1393   51.7578 H   0  0  0  0  0  0  0  0  0  0  0  0
   58.3435   32.5156   51.3020 H   0  0  0  0  0  0  0  0  0  0  0  0
   57.9751   31.6589   48.9855 H   0  0  0  0  0  0  0  0  0  0  0  0
  1  2  1  0
  2  3  1  0
  3  4  1  0
  4  5  1  0
  5  6  1  0
  6  7  1  0
  7  8  2  0
  8  9  1  0
  9 10  2  0
 10 11  1  0
 10 12  1  0
 12 13  2  0
 13 14  1  0
 14 15  2  0
 15 16  1  0
 16 17  2  0
  9 18  1  0
 18 19  2  0
 19 20  1  0
 20 21  2  0
 21 22  1  0
 22 23  2  0
 23 24  1  0
 24 25  2  0
 25 26  1  0
 26 27  2  0
 27 28  1  0
 28 29  2  0
 17  7  1  0
 22 18  1  0
 29 24  1  0
 23  8  1  0
 17 12  1  0
  1 30  1  0
  1 31  1  0
  1 32  1  0
  2 33  1  0
  2 34  1  0
  3 35  1  0
  4 36  1  0
  4 37  1  0
  5 38  1  0
  5 39  1  0
  6 40  1  0
  6 41  1  0
 11 42  1  0
 11 43  1  0
 11 44  1  0
 13 45  1  0
 14 46  1  0
 15 47  1  0
 16 48  1  0
 20 49  1  0
 21 50  1  0
 25 51  1  0
 26 52  1  0
 27 53  1  0
 28 54  1  0
 29 55  1  0
M  CHG  2   6   1  10   1
M  END
>  <UniqueID>  (9) 
9

>  <SMILES>  (9) 
CCNCC[NH2+]c1c2c([n+](C)c3ccccc13)C1=NC=CC1=C2c1ccccc1

>  <Energy>  (9) 
158.49701234263358

>  <Genealogy>  (9) 
CCNCC[NH2+]c1c2c([n+](C)c3ccccc13)C1=NC=CC1=C2c1ccccc1 (protonated)
CCNCC[NH2+]c1c2c([n+](C)c3ccccc13)C1=NC=CC1=C2c1ccccc1 (3D coordinates assigned)
CCNCC[NH2+]c1c2c([n+](C)c3ccccc13)C1=NC=CC1=C2c1ccccc1 (nonaromatic ring conformer: 158.49701234263358 kcal/mol)

>  <smiles>  (9) 
CCNCCNc1c2c([n+](C)c3ccccc13)C1=NC=CC1=C2c1ccccc1

>  <score_type>  (9) 
oracle

>  <origin>  (9) 
adg

>  <m_score__min__energy>  (9) 
-5.8300000000000001

>  <m_primary>  (9) 
energy

$$$$
9:0
     RDKit          3D

 55 58  0  0  0  0  0  0  0  0999 V2000
   62.8460   33.8230   46.3570 C   0  0  0  0  0  0  0  0  0  0  0  0
   63.7270   33.8260   47.6080 C   0  0  0  0  0  0  0  0  0  0  0  0
   62.9060   33.8560   48.8390 N   0  0  0  0  0  0  0  0  0  0  0  0
   63.6850   33.4270   50.0310 C   0  0  0  0  0  0  0  0  0  0  0  0
   64.9580   32.7190   49.5820 C   0  0  0  0  0  0  0  0  0  0  0  0
   61.6820   33.0420   48.6650 C   0  0  0  0  0  0  0  0  0  0  0  0
   60.5460   33.5630   49.5560 C   0  0  0  0  0  0  0  0  0  0  0  0
   59.7010   34.5000   48.8160 N   0  0  0  0  0  0  0  0  0  0  0  0
   59.3430   34.3220   47.4310 C   0  0  0  0  0  0  0  0  0  0  0  0
   59.2740   35.3740   46.5120 C   0  0  0  0  0  0  0  0  0  0  0  0
   58.8440   34.7520   45.0090 S   0  0  0  0  0  0  0  0  0  0  0  0
   58.7320   33.1470   45.5010 C   0  0  0  0  0  0  0  0  0  0  0  0
   58.4240   32.0180   44.7240 C   0  0  0  0  0  0  0  0  0  0  0  0
   58.4050   32.1680   43.2200 C   0  0  0  0  0  0  0  0  0  0  0  0
   58.2970   30.7540   45.3950 C   0  0  0  0  0  0  0  0  0  0  0  0
   58.7390   30.6700   46.7490 C   0  0  0  0  0  0  0  0  0  0  0  0
   58.8500   29.4230   47.3600 C   0  0  0  0  0  0  0  0  0  0  0  0
   58.5620   28.2660   46.6420 C   0  0  0  0  0  0  0  0  0  0  0  0
   58.7790   27.0060   47.2220 C   0  0  0  0  0  0  0  0  0  0  0  0
   58.4910   25.8440   46.5040 C   0  0  0  0  0  0  0  0  0  0  0  0
   57.9850   25.9300   45.2090 C   0  0  0  0  0  0  0  0  0  0  0  0
   57.7520   27.1780   44.6260 C   0  0  0  0  0  0  0  0  0  0  0  0
   58.0250   28.3730   45.3360 C   0  0  0  0  0  0  0  0  0  0  0  0
   57.7730   29.6190   44.7920 N   0  0  0  0  0  0  0  0  0  0  0  0
   56.7740   29.7260   43.7100 C   0  0  0  0  0  0  0  0  0  0  0  0
   59.0810   31.8240   47.4780 C   0  0  0  0  0  0  0  0  0  0  0  0
   59.0400   33.0700   46.8500 C   0  0  0  0  0  0  0  0  0  0  0  0
   61.7870   33.8194   46.6544 H   0  0  0  0  0  0  0  0  0  0  0  0
   63.0558   34.7219   45.7586 H   0  0  0  0  0  0  0  0  0  0  0  0
   63.0619   32.9256   45.7586 H   0  0  0  0  0  0  0  0  0  0  0  0
   64.3476   32.9178   47.6123 H   0  0  0  0  0  0  0  0  0  0  0  0
   64.3586   34.7264   47.5878 H   0  0  0  0  0  0  0  0  0  0  0  0
   63.9494   34.3092   50.6325 H   0  0  0  0  0  0  0  0  0  0  0  0
   63.0775   32.7377   50.6358 H   0  0  0  0  0  0  0  0  0  0  0  0
   65.5312   32.4002   50.4651 H   0  0  0  0  0  0  0  0  0  0  0  0
   64.6942   31.8380   48.9785 H   0  0  0  0  0  0  0  0  0  0  0  0
   65.5673   33.4078   48.9785 H   0  0  0  0  0  0  0  0  0  0  0  0
   61.3648   33.0891   47.6128 H   0  0  0  0  0  0  0  0  0  0  0  0
   61.9064   32.0043   48.9528 H   0  0  0  0  0  0  0  0  0  0  0  0
   59.9340   32.7142   49.8951 H   0  0  0  0  0  0  0  0  0  0  0  0
   60.9833   34.0852   50.4197 H   0  0  0  0  0  0  0  0  0  0  0  0
   59.3160   35.3070   49.3520 H   0  0  0  0  0  0  0  0  0  0  0  0
   59.4687   36.4334   46.7351 H   0  0  0  0  0  0  0  0  0  0  0  0
   58.2707   33.2281   42.9589 H   0  0  0  0  0  0  0  0  0  0  0  0
   59.3563   31.8054   42.8033 H   0  0  0  0  0  0  0  0  0  0  0  0
   57.5742   31.5797   42.8033 H   0  0  0  0  0  0  0  0  0  0  0  0
   59.1657   29.3527   48.4114 H   0  0  0  0  0  0  0  0  0  0  0  0
   59.1770   26.9342   48.2449 H   0  0  0  0  0  0  0  0  0  0  0  0
   58.6639   24.8588   46.9616 H   0  0  0  0  0  0  0  0  0  0  0  0
   57.7681   25.0119   44.6433 H   0  0  0  0  0  0  0  0  0  0  0  0
   57.3516   27.2334   43.6030 H   0  0  0  0  0  0  0  0  0  0  0  0
   55.7703   29.8335   44.1470 H   0  0  0  0  0  0  0  0  0  0  0  0
   56.9994   30.6051   43.0885 H   0  0  0  0  0  0  0  0  0  0  0  0
   56.8081   28.8191   43.0885 H   0  0  0  0  0  0  0  0  0  0  0  0
   59.3782   31.7449   48.5341 H   0  0  0  0  0  0  0  0  0  0  0  0
  1  2  1  0
  2  3  1  0
  3  4  1  0
  4  5  1  0
  3  6  1  0
  6  7  1  0
  7  8  1  0
  8  9  1  0
  9 10  2  0
 10 11  1  0
 11 12  1  0
 12 13  2  0
 13 14  1  0
 13 15  1  0
 15 16  2  0
 16 17  1  0
 17 18  2  0
 18 19  1  0
 19 20  2  0
 20 21  1  0
 21 22  2  0
 22 23  1  0
 23 24  2  0
 24 25  1  0
 16 26  1  0
 26 27  2  0
 27  9  1  0
 27 12  1  0
 24 15  1  0
 23 18  1  0
  1 28  1  0
  1 29  1  0
  1 30  1  0
  2 31  1  0
  2 32  1  0
  4 33  1  0
  4 34  1  0
  5 35  1  0
  5 36  1  0
  5 37  1  0
  6 38  1  0
  6 39  1  0
  7 40  1  0
  7 41  1  0
  8 42  1  0
 10 43  1  0
 14 44  1  0
 14 45  1  0
 14 46  1  0
 17 47  1  0
 19 48  1  0
 20 49  1  0
 21 50  1  0
 22 51  1  0
 25 52  1  0
 25 53  1  0
 25 54  1  0
 26 55  1  0
M  CHG  1  24   1
M  END
>  <UniqueID>  (10) 
10

>  <SMILES>  (10) 
CCN(CC)CCNc1csc2c(C)c3c(cc4ccccc4[n+]3C)cc12

>  <Energy>  (10) 
114.94716445575791

>  <Genealogy>  (10) 
CCN(CC)CCNc1csc2c(C)c3c(cc4ccccc4[n+]3C)cc12 (3D coordinates assigned)
CCN(CC)CCNc1csc2c(C)c3c(cc4ccccc4[n+]3C)cc12 (optimized conformer: 114.94716445575791 kcal/mol)

>  <smiles>  (10) 
CCN(CC)CCNc1csc2c(C)c3c(cc4ccccc4[n+]3C)cc12

>  <score_type>  (10) 
oracle

>  <origin>  (10) 
adg

>  <m_score__min__energy>  (10) 
-7.1799999999999997

>  <m_primary>  (10) 
energy

$$$$
10:0
     RDKit          3D

 38 39  0  0  0  0  0  0  0  0999 V2000
   59.4440   34.9470   45.6300 C   0  0  0  0  0  0  0  0  0  0  0  0
   58.1160   34.3280   45.1960 C   0  0  0  0  0  0  0  0  0  0  0  0
   57.6010   33.2840   46.1980 C   0  0  0  0  0  0  0  0  0  0  0  0
   57.7720   31.8800   45.6820 C   0  0  0  0  0  0  0  0  0  0  0  0
   56.8260   31.3870   44.8340 N   0  0  0  0  0  0  0  0  0  0  0  0
   56.9190   30.1750   44.2750 N   0  0  0  0  0  0  0  0  0  0  0  0
   55.8550   29.7300   43.3760 C   0  0  0  0  0  0  0  0  0  0  0  0
   58.0020   29.3780   44.5340 C   0  0  0  0  0  0  0  0  0  0  0  0
   58.0940   28.2380   44.0040 O   0  0  0  0  0  0  0  0  0  0  0  0
   58.9670   29.8460   45.3740 N   0  0  0  0  0  0  0  0  0  0  0  0
   60.1280   29.3010   45.8190 C   0  0  0  0  0  0  0  0  0  0  0  0
   60.7080   27.9720   45.4140 C   0  0  0  0  0  0  0  0  0  0  0  0
   60.3980   26.8780   46.4450 C   0  0  0  0  0  0  0  0  0  0  0  0
   59.0020   27.0170   47.0500 C   0  0  0  0  0  0  0  0  0  0  0  0
   60.7850   30.1310   46.6590 N   0  0  0  0  0  0  0  0  0  0  0  0
   60.0100   31.2330   46.7480 C   0  0  0  0  0  0  0  0  0  0  0  0
   60.3580   32.3710   47.6540 C   0  0  0  0  0  0  0  0  0  0  0  0
   58.8820   31.0580   45.9500 C   0  0  0  0  0  0  0  0  0  0  0  0
   59.4957   34.9711   46.7285 H   0  0  0  0  0  0  0  0  0  0  0  0
   60.2756   34.3437   45.2369 H   0  0  0  0  0  0  0  0  0  0  0  0
   59.5167   35.9718   45.2369 H   0  0  0  0  0  0  0  0  0  0  0  0
   57.3669   35.1282   45.1033 H   0  0  0  0  0  0  0  0  0  0  0  0
   58.2819   33.8177   44.2357 H   0  0  0  0  0  0  0  0  0  0  0  0
   58.1607   33.3878   47.1393 H   0  0  0  0  0  0  0  0  0  0  0  0
   56.5268   33.4618   46.3544 H   0  0  0  0  0  0  0  0  0  0  0  0
   55.0000   29.3724   43.9685 H   0  0  0  0  0  0  0  0  0  0  0  0
   55.5358   30.5700   42.7416 H   0  0  0  0  0  0  0  0  0  0  0  0
   56.2289   28.9128   42.7416 H   0  0  0  0  0  0  0  0  0  0  0  0
   60.2816   27.6781   44.4435 H   0  0  0  0  0  0  0  0  0  0  0  0
   61.8006   28.0810   45.3485 H   0  0  0  0  0  0  0  0  0  0  0  0
   60.4716   25.8979   45.9511 H   0  0  0  0  0  0  0  0  0  0  0  0
   61.1263   26.9766   47.2635 H   0  0  0  0  0  0  0  0  0  0  0  0
   59.0756   27.0097   48.1475 H   0  0  0  0  0  0  0  0  0  0  0  0
   58.5516   27.9644   46.7190 H   0  0  0  0  0  0  0  0  0  0  0  0
   58.3736   26.1770   46.7190 H   0  0  0  0  0  0  0  0  0  0  0  0
   60.2596   32.0492   48.7013 H   0  0  0  0  0  0  0  0  0  0  0  0
   61.3941   32.6877   47.4635 H   0  0  0  0  0  0  0  0  0  0  0  0
   59.6763   33.2130   47.4635 H   0  0  0  0  0  0  0  0  0  0  0  0
  1  2  1  0
  2  3  1  0
  3  4  1  0
  4  5  2  0
  5  6  1  0
  6  7  1  0
  6  8  1  0
  8  9  2  0
  8 10  1  0
 10 11  1  0
 11 12  1  0
 12 13  1  0
 13 14  1  0
 11 15  2  0
 15 16  1  0
 16 17  1  0
 16 18  2  0
 18  4  1  0
 18 10  1  0
  1 19  1  0
  1 20  1  0
  1 21  1  0
  2 22  1  0
  2 23  1  0
  3 24  1  0
  3 25  1  0
  7 26  1  0
  7 27  1  0
  7 28  1  0
 12 29  1  0
 12 30  1  0
 13 31  1  0
 13 32  1  0
 14 33  1  0
 14 34  1  0
 14 35  1  0
 17 36  1  0
 17 37  1  0
 17 38  1  0
M  END
>  <UniqueID>  (11) 
11

>  <SMILES>  (11) 
CCCc1nn(C)c(=O)n2c(CCC)nc(C)c12

>  <Energy>  (11) 
69.05402781440075

>  <Genealogy>  (11) 
CCCc1nn(C)c(=O)n2c(CCC)nc(C)c12 (3D coordinates assigned)
CCCc1nn(C)c(=O)n2c(CCC)nc(C)c12 (optimized conformer: 69.05402781440075 kcal/mol)

>  <smiles>  (11) 
CCCc1nn(C)c(=O)n2c(CCC)nc(C)c12

>  <score_type>  (11) 
oracle

>  <origin>  (11) 
adg

>  <m_score__min__energy>  (11) 
-6.0599999999999996

>  <m_primary>  (11) 
energy

$$$$
11:0
     RDKit          3D

 28 29  0  0  0  0  0  0  0  0999 V2000
   55.9480   26.0060   46.0090 C   0  0  0  0  0  0  0  0  0  0  0  0
   56.7860   27.2160   45.6290 C   0  0  0  0  0  0  0  0  0  0  0  0
   55.9060   28.3170   45.2430 N   0  0  0  0  0  0  0  0  0  0  0  0
   56.6730   29.2860   44.0220 S   0  0  0  0  0  0  0  0  0  0  0  0
   55.6430   29.7460   43.0300 O   0  0  0  0  0  0  0  0  0  0  0  0
   57.7040   28.4600   43.3030 O   0  0  0  0  0  0  0  0  0  0  0  0
   57.4440   30.6920   44.7470 C   0  0  0  0  0  0  0  0  0  0  0  0
   57.3870   32.2400   44.0740 S   0  0  0  0  0  0  0  0  0  0  0  0
   58.3580   32.9460   45.2450 C   0  0  0  0  0  0  0  0  0  0  0  0
   58.7710   34.2740   45.3250 C   0  0  0  0  0  0  0  0  0  0  0  0
   59.6090   34.6470   46.3850 C   0  0  0  0  0  0  0  0  0  0  0  0
   60.0200   33.6920   47.3350 C   0  0  0  0  0  0  0  0  0  0  0  0
   61.0750   34.1720   48.6520 Cl  0  0  0  0  0  0  0  0  0  0  0  0
   59.5920   32.3570   47.2340 C   0  0  0  0  0  0  0  0  0  0  0  0
   58.7470   31.9910   46.1770 C   0  0  0  0  0  0  0  0  0  0  0  0
   58.2220   30.7110   45.9140 C   0  0  0  0  0  0  0  0  0  0  0  0
   58.5310   29.4950   46.7410 C   0  0  0  0  0  0  0  0  0  0  0  0
   55.8935   25.9273   47.1048 H   0  0  0  0  0  0  0  0  0  0  0  0
   54.9337   26.1189   45.5986 H   0  0  0  0  0  0  0  0  0  0  0  0
   56.4104   25.0962   45.5986 H   0  0  0  0  0  0  0  0  0  0  0  0
   57.3997   27.5216   46.4892 H   0  0  0  0  0  0  0  0  0  0  0  0
   57.4412   26.9572   44.7842 H   0  0  0  0  0  0  0  0  0  0  0  0
   58.4477   35.0113   44.5754 H   0  0  0  0  0  0  0  0  0  0  0  0
   59.9470   35.6899   46.4752 H   0  0  0  0  0  0  0  0  0  0  0  0
   59.9155   31.6100   47.9738 H   0  0  0  0  0  0  0  0  0  0  0  0
   58.4658   29.7515   47.8087 H   0  0  0  0  0  0  0  0  0  0  0  0
   57.8062   28.7005   46.5098 H   0  0  0  0  0  0  0  0  0  0  0  0
   59.5472   29.1429   46.5098 H   0  0  0  0  0  0  0  0  0  0  0  0
  1  2  1  0
  2  3  1  0
  3  4  1  0
  4  5  2  0
  4  6  2  0
  4  7  1  0
  7  8  1  0
  8  9  1  0
  9 10  2  0
 10 11  1  0
 11 12  2  0
 12 13  1  0
 12 14  1  0
 14 15  2  0
 15 16  1  0
 16 17  1  0
 16  7  2  0
 15  9  1  0
  1 18  1  0
  1 19  1  0
  1 20  1  0
  2 21  1  0
  2 22  1  0
 10 23  1  0
 11 24  1  0
 14 25  1  0
 17 26  1  0
 17 27  1  0
 17 28  1  0
M  CHG  1   3  -1
M  END
>  <UniqueID>  (12) 
12

>  <SMILES>  (12) 
CC[N-]S(=O)(=O)c1sc2ccc(Cl)cc2c1C

>  <Energy>  (12) 
53.73116444437794

>  <Genealogy>  (12) 
CC[N-]S(=O)(=O)c1sc2ccc(Cl)cc2c1C (protonated)
CC[N-]S(=O)(=O)c1sc2ccc(Cl)cc2c1C (3D coordinates assigned)
CC[N-]S(=O)(=O)c1sc2ccc(Cl)cc2c1C (optimized conformer: 53.73116444437794 kcal/mol)

>  <smiles>  (12) 
CCNS(=O)(=O)c1sc2ccc(Cl)cc2c1C

>  <score_type>  (12) 
oracle

>  <origin>  (12) 
adg

>  <m_score__min__energy>  (12) 
-8.8699999999999992

>  <m_primary>  (12) 
energy

$$$$
12:0
     RDKit          3D

 64 66  0  0  0  0  0  0  0  0999 V2000
   60.6580   29.4440   48.1760 C   0  0  0  0  0  0  0  0  0  0  0  0
   59.9610   28.1150   48.4740 C   0  0  0  0  0  0  0  0  0  0  0  0
   60.7100   26.9090   47.8800 C   0  0  0  0  0  0  0  0  0  0  0  0
   60.3850   26.6410   46.4000 C   0  0  0  0  0  0  0  0  0  0  0  0
   59.0840   27.2050   46.0060 N   0  0  0  0  0  0  0  0  0  0  0  0
   57.8790   26.6220   46.2140 C   0  0  0  0  0  0  0  0  0  0  0  0
   57.6700   25.2450   46.7720 C   0  0  0  0  0  0  0  0  0  0  0  0
   56.8650   27.4200   45.7280 C   0  0  0  0  0  0  0  0  0  0  0  0
   57.4650   28.5570   45.2190 C   0  0  0  0  0  0  0  0  0  0  0  0
   56.7160   29.6870   44.6260 C   0  0  0  0  0  0  0  0  0  0  0  0
   55.4830   29.7950   44.8700 O   0  0  0  0  0  0  0  0  0  0  0  0
   57.3780   30.7160   43.7450 C   0  0  0  0  0  0  0  0  0  0  0  0
   58.1100   31.7100   44.5570 N   0  0  0  0  0  0  0  0  0  0  0  0
   57.8030   33.0890   44.1260 C   0  0  0  0  0  0  0  0  0  0  0  0
   58.7000   34.0930   44.8750 C   0  0  0  0  0  0  0  0  0  0  0  0
   59.3260   33.4790   46.0710 N   0  0  0  0  0  0  0  0  0  0  0  0
   59.9640   34.4990   46.9280 C   0  0  0  0  0  0  0  0  0  0  0  0
   61.2170   33.9560   47.5650 C   0  0  0  0  0  0  0  0  0  0  0  0
   62.2890   33.5130   46.7740 C   0  0  0  0  0  0  0  0  0  0  0  0
   63.4460   33.0110   47.3740 C   0  0  0  0  0  0  0  0  0  0  0  0
   63.5490   32.9310   48.7700 C   0  0  0  0  0  0  0  0  0  0  0  0
   64.7230   32.4000   49.3250 O   0  0  0  0  0  0  0  0  0  0  0  0
   65.5300   33.0670   50.2890 C   0  0  0  0  0  0  0  0  0  0  0  0
   62.4760   33.3790   49.5640 C   0  0  0  0  0  0  0  0  0  0  0  0
   61.3220   33.8900   48.9640 C   0  0  0  0  0  0  0  0  0  0  0  0
   58.3270   32.7130   46.8400 C   0  0  0  0  0  0  0  0  0  0  0  0
   57.7780   31.5480   45.9900 C   0  0  0  0  0  0  0  0  0  0  0  0
   58.8410   28.3830   45.3710 C   0  0  0  0  0  0  0  0  0  0  0  0
   59.9020   29.3350   44.8830 C   0  0  0  0  0  0  0  0  0  0  0  0
   60.9189   29.9414   49.1218 H   0  0  0  0  0  0  0  0  0  0  0  0
   61.5735   29.2559   47.5960 H   0  0  0  0  0  0  0  0  0  0  0  0
   59.9827   30.0902   47.5960 H   0  0  0  0  0  0  0  0  0  0  0  0
   59.8965   27.9876   49.5647 H   0  0  0  0  0  0  0  0  0  0  0  0
   58.9640   28.1498   48.0105 H   0  0  0  0  0  0  0  0  0  0  0  0
   61.7906   27.0941   47.9694 H   0  0  0  0  0  0  0  0  0  0  0  0
   60.3856   26.0221   48.4440 H   0  0  0  0  0  0  0  0  0  0  0  0
   61.1706   27.0936   45.7771 H   0  0  0  0  0  0  0  0  0  0  0  0
   60.3384   25.5514   46.2562 H   0  0  0  0  0  0  0  0  0  0  0  0
   57.6768   25.2898   47.8711 H   0  0  0  0  0  0  0  0  0  0  0  0
   56.7020   24.8526   46.4270 H   0  0  0  0  0  0  0  0  0  0  0  0
   58.4780   24.5830   46.4270 H   0  0  0  0  0  0  0  0  0  0  0  0
   55.7882   27.1957   45.7424 H   0  0  0  0  0  0  0  0  0  0  0  0
   58.0846   30.2114   43.0697 H   0  0  0  0  0  0  0  0  0  0  0  0
   56.6008   31.2371   43.1667 H   0  0  0  0  0  0  0  0  0  0  0  0
   57.9808   33.1796   43.0443 H   0  0  0  0  0  0  0  0  0  0  0  0
   56.7497   33.3099   44.3534 H   0  0  0  0  0  0  0  0  0  0  0  0
   59.4925   34.4397   44.1955 H   0  0  0  0  0  0  0  0  0  0  0  0
   58.0728   34.9331   45.2079 H   0  0  0  0  0  0  0  0  0  0  0  0
   60.2219   35.3750   46.3147 H   0  0  0  0  0  0  0  0  0  0  0  0
   59.2587   34.7821   47.7233 H   0  0  0  0  0  0  0  0  0  0  0  0
   62.2174   33.5615   45.6774 H   0  0  0  0  0  0  0  0  0  0  0  0
   64.2841   32.6753   46.7456 H   0  0  0  0  0  0  0  0  0  0  0  0
   65.1964   32.7913   51.3003 H   0  0  0  0  0  0  0  0  0  0  0  0
   66.5808   32.7703   50.1559 H   0  0  0  0  0  0  0  0  0  0  0  0
   65.4365   34.1549   50.1559 H   0  0  0  0  0  0  0  0  0  0  0  0
   62.5463   33.3266   50.6605 H   0  0  0  0  0  0  0  0  0  0  0  0
   60.4904   34.2429   49.5916 H   0  0  0  0  0  0  0  0  0  0  0  0
   58.7990   32.3093   47.7478 H   0  0  0  0  0  0  0  0  0  0  0  0
   57.4962   33.3802   47.1132 H   0  0  0  0  0  0  0  0  0  0  0  0
   58.2149   30.6058   46.3525 H   0  0  0  0  0  0  0  0  0  0  0  0
   56.6825   31.5391   46.0886 H   0  0  0  0  0  0  0  0  0  0  0  0
   60.4102   29.7910   45.7454 H   0  0  0  0  0  0  0  0  0  0  0  0
   60.6350   28.7860   44.2736 H   0  0  0  0  0  0  0  0  0  0  0  0
   59.4354   30.1230   44.2736 H   0  0  0  0  0  0  0  0  0  0  0  0
  1  2  1  0
  2  3  1  0
  3  4  1  0
  4  5  1  0
  5  6  1  0
  6  7  1  0
  6  8  2  0
  8  9  1  0
  9 10  1  0
 10 11  2  0
 10 12  1  0
 12 13  1  0
 13 14  1  0
 14 15  1  0
 15 16  1  0
 16 17  1  0
 17 18  1  0
 18 19  2  0
 19 20  1  0
 20 21  2  0
 21 22  1  0
 22 23  1  0
 21 24  1  0
 24 25  2  0
 16 26  1  0
 26 27  1  0
  9 28  2  0
 28 29  1  0
 28  5  1  0
 27 13  1  0
 25 18  1  0
  1 30  1  0
  1 31  1  0
  1 32  1  0
  2 33  1  0
  2 34  1  0
  3 35  1  0
  3 36  1  0
  4 37  1  0
  4 38  1  0
  7 39  1  0
  7 40  1  0
  7 41  1  0
  8 42  1  0
 12 43  1  0
 12 44  1  0
 14 45  1  0
 14 46  1  0
 15 47  1  0
 15 48  1  0
 17 49  1  0
 17 50  1  0
 19 51  1  0
 20 52  1  0
 23 53  1  0
 23 54  1  0
 23 55  1  0
 24 56  1  0
 25 57  1  0
 26 58  1  0
 26 59  1  0
 27 60  1  0
 27 61  1  0
 29 62  1  0
 29 63  1  0
 29 64  1  0
M  END
>  <UniqueID>  (13) 
13

>  <SMILES>  (13) 
CCCCn1c(C)cc(C(=O)CN2CCN(Cc3ccc(OC)cc3)CC2)c1C

>  <Energy>  (13) 
95.70137644071067

>  <Genealogy>  (13) 
CCCCn1c(C)cc(C(=O)CN2CCN(Cc3ccc(OC)cc3)CC2)c1C (3D coordinates assigned)
CCCCn1c(C)cc(C(=O)CN2CCN(Cc3ccc(OC)cc3)CC2)c1C (nonaromatic ring conformer: 95.70137644071067 kcal/mol)

>  <smiles>  (13) 
CCCCn1c(C)cc(C(=O)CN2CCN(Cc3ccc(OC)cc3)CC2)c1C

>  <score_type>  (13) 
oracle

>  <origin>  (13) 
adg

>  <m_score__min__energy>  (13) 
-8.8200000000000003

>  <m_primary>  (13) 
energy

$$$$
13:0
     RDKit          3D

 47 48  0  0  0  0  0  0  0  0999 V2000
   58.5090   34.2450   46.7930 C   0  0  0  0  0  0  0  0  0  0  0  0
   57.4980   33.1160   46.9630 C   0  0  0  0  0  0  0  0  0  0  0  0
   57.8660   31.9840   46.1730 O   0  0  0  0  0  0  0  0  0  0  0  0
   57.7240   31.8760   44.7780 C   0  0  0  0  0  0  0  0  0  0  0  0
   58.2090   32.8570   43.8900 C   0  0  0  0  0  0  0  0  0  0  0  0
   58.0380   32.7070   42.5120 C   0  0  0  0  0  0  0  0  0  0  0  0
   57.3920   31.5810   42.0040 C   0  0  0  0  0  0  0  0  0  0  0  0
   56.9090   30.6020   42.8740 C   0  0  0  0  0  0  0  0  0  0  0  0
   57.0600   30.7470   44.2670 C   0  0  0  0  0  0  0  0  0  0  0  0
   56.5740   29.7940   45.1790 O   0  0  0  0  0  0  0  0  0  0  0  0
   57.0020   28.4340   45.2670 C   0  0  0  0  0  0  0  0  0  0  0  0
   58.2010   28.3100   46.2200 C   0  0  0  0  0  0  0  0  0  0  0  0
   58.5410   29.5820   46.8870 N   0  0  0  0  0  0  0  0  0  0  0  0
   59.3260   29.4460   48.1310 C   0  0  0  0  0  0  0  0  0  0  0  0
   59.6120   30.7820   48.8400 C   0  0  0  0  0  0  0  0  0  0  0  0
   60.1490   31.7750   47.9060 N   0  0  0  0  0  0  0  0  0  0  0  0
   61.5120   32.2400   47.9430 C   0  0  0  0  0  0  0  0  0  0  0  0
   62.3950   31.8500   48.9690 C   0  0  0  0  0  0  0  0  0  0  0  0
   63.7080   32.3280   48.9930 C   0  0  0  0  0  0  0  0  0  0  0  0
   64.1530   33.2070   48.0040 C   0  0  0  0  0  0  0  0  0  0  0  0
   63.2830   33.6150   46.9900 C   0  0  0  0  0  0  0  0  0  0  0  0
   63.7180   34.4740   46.0350 F   0  0  0  0  0  0  0  0  0  0  0  0
   61.9670   33.1410   46.9600 C   0  0  0  0  0  0  0  0  0  0  0  0
   61.1400   33.5460   45.9640 F   0  0  0  0  0  0  0  0  0  0  0  0
   58.8292   34.6026   47.7828 H   0  0  0  0  0  0  0  0  0  0  0  0
   59.3826   33.8742   46.2368 H   0  0  0  0  0  0  0  0  0  0  0  0
   58.0444   35.0725   46.2368 H   0  0  0  0  0  0  0  0  0  0  0  0
   57.4616   32.8206   48.0220 H   0  0  0  0  0  0  0  0  0  0  0  0
   56.5115   33.4724   46.6315 H   0  0  0  0  0  0  0  0  0  0  0  0
   58.7247   33.7451   44.2841 H   0  0  0  0  0  0  0  0  0  0  0  0
   58.4142   33.4797   41.8255 H   0  0  0  0  0  0  0  0  0  0  0  0
   57.2629   31.4640   40.9179 H   0  0  0  0  0  0  0  0  0  0  0  0
   56.4069   29.7110   42.4689 H   0  0  0  0  0  0  0  0  0  0  0  0
   56.1734   27.8171   45.6449 H   0  0  0  0  0  0  0  0  0  0  0  0
   57.3042   28.0898   44.2669 H   0  0  0  0  0  0  0  0  0  0  0  0
   57.9603   27.5632   46.9910 H   0  0  0  0  0  0  0  0  0  0  0  0
   59.0713   28.0115   45.6171 H   0  0  0  0  0  0  0  0  0  0  0  0
   57.6510   30.0920   47.0970 H   0  0  0  0  0  0  0  0  0  0  0  0
   59.0830   30.1780   46.2200 H   0  0  0  0  0  0  0  0  0  0  0  0
   58.7672   28.7995   48.8237 H   0  0  0  0  0  0  0  0  0  0  0  0
   60.3003   29.0211   47.8477 H   0  0  0  0  0  0  0  0  0  0  0  0
   58.6763   31.1658   49.2725 H   0  0  0  0  0  0  0  0  0  0  0  0
   60.3599   30.6048   49.6269 H   0  0  0  0  0  0  0  0  0  0  0  0
   59.6170   31.9080   47.0150 H   0  0  0  0  0  0  0  0  0  0  0  0
   62.0487   31.1646   49.7566 H   0  0  0  0  0  0  0  0  0  0  0  0
   64.3927   32.0108   49.7934 H   0  0  0  0  0  0  0  0  0  0  0  0
   65.1883   33.5782   48.0231 H   0  0  0  0  0  0  0  0  0  0  0  0
  1  2  1  0
  2  3  1  0
  3  4  1  0
  4  5  2  0
  5  6  1  0
  6  7  2  0
  7  8  1  0
  8  9  2  0
  9 10  1  0
 10 11  1  0
 11 12  1  0
 12 13  1  0
 13 14  1  0
 14 15  1  0
 15 16  1  0
 16 17  1  0
 17 18  2  0
 18 19  1  0
 19 20  2  0
 20 21  1  0
 21 22  1  0
 21 23  2  0
 23 24  1  0
  9  4  1  0
 23 17  1  0
  1 25  1  0
  1 26  1  0
  1 27  1  0
  2 28  1  0
  2 29  1  0
  5 30  1  0
  6 31  1  0
  7 32  1  0
  8 33  1  0
 11 34  1  0
 11 35  1  0
 12 36  1  0
 12 37  1  0
 13 38  1  0
 13 39  1  0
 14 40  1  0
 14 41  1  0
 15 42  1  0
 15 43  1  0
 16 44  1  0
 18 45  1  0
 19 46  1  0
 20 47  1  0
M  CHG  1  13   1
M  END
>  <UniqueID>  (14) 
14

>  <SMILES>  (14) 
CCOc1ccccc1OCC[NH2+]CCNc1cccc(F)c1F

>  <Energy>  (14) 
46.0446640374276

>  <Genealogy>  (14) 
CCOc1ccccc1OCC[NH2+]CCNc1cccc(F)c1F (protonated)
CCOc1ccccc1OCC[NH2+]CCNc1cccc(F)c1F (3D coordinates assigned)
CCOc1ccccc1OCC[NH2+]CCNc1cccc(F)c1F (optimized conformer: 46.0446640374276 kcal/mol)

>  <smiles>  (14) 
CCOc1ccccc1OCCNCCNc1cccc(F)c1F

>  <score_type>  (14) 
oracle

>  <origin>  (14) 
adg

>  <m_score__min__energy>  (14) 
-3.48

>  <m_primary>  (14) 
energy

$$$$
14:0
     RDKit          3D

 34 35  0  0  0  0  0  0  0  0999 V2000
   60.7630   29.9630   47.5550 C   0  0  0  0  0  0  0  0  0  0  0  0
   60.2440   28.6340   46.9970 C   0  0  0  0  0  0  0  0  0  0  0  0
   58.9430   28.7650   46.3140 N   0  0  0  0  0  0  0  0  0  0  0  0
   58.3910   27.5040   45.7800 C   0  0  0  0  0  0  0  0  0  0  0  0
   56.8610   27.3960   45.9060 C   0  0  0  0  0  0  0  0  0  0  0  0
   56.1910   28.3410   45.0090 N   0  0  0  0  0  0  0  0  0  0  0  0
   56.7360   29.6190   44.6420 C   0  0  0  0  0  0  0  0  0  0  0  0
   56.8030   30.0440   43.3030 C   0  0  0  0  0  0  0  0  0  0  0  0
   57.3240   31.3060   42.9990 C   0  0  0  0  0  0  0  0  0  0  0  0
   57.3830   31.6760   41.7940 O   0  0  0  0  0  0  0  0  0  0  0  0
   57.7690   32.1470   44.0350 C   0  0  0  0  0  0  0  0  0  0  0  0
   58.3020   33.4250   43.7820 C   0  0  0  0  0  0  0  0  0  0  0  0
   58.7250   34.2320   44.8440 C   0  0  0  0  0  0  0  0  0  0  0  0
   58.6200   33.7740   46.1600 C   0  0  0  0  0  0  0  0  0  0  0  0
   58.0910   32.5070   46.4240 C   0  0  0  0  0  0  0  0  0  0  0  0
   57.6670   31.6900   45.3680 C   0  0  0  0  0  0  0  0  0  0  0  0
   57.1560   30.4590   45.6270 N   0  0  0  0  0  0  0  0  0  0  0  0
   60.7498   29.9292   48.6544 H   0  0  0  0  0  0  0  0  0  0  0  0
   61.7925   30.1303   47.2056 H   0  0  0  0  0  0  0  0  0  0  0  0
   60.1193   30.7837   47.2056 H   0  0  0  0  0  0  0  0  0  0  0  0
   60.9798   28.2443   46.2781 H   0  0  0  0  0  0  0  0  0  0  0  0
   60.1017   27.9525   47.8486 H   0  0  0  0  0  0  0  0  0  0  0  0
   58.2580   29.1870   46.9830 H   0  0  0  0  0  0  0  0  0  0  0  0
   59.0480   29.4410   45.5210 H   0  0  0  0  0  0  0  0  0  0  0  0
   58.6577   27.4315   44.7153 H   0  0  0  0  0  0  0  0  0  0  0  0
   58.8212   26.6864   46.3771 H   0  0  0  0  0  0  0  0  0  0  0  0
   56.5503   26.3730   45.6474 H   0  0  0  0  0  0  0  0  0  0  0  0
   56.5774   27.6354   46.9415 H   0  0  0  0  0  0  0  0  0  0  0  0
   55.1590   28.2250   44.8950 H   0  0  0  0  0  0  0  0  0  0  0  0
   56.4466   29.3857   42.4970 H   0  0  0  0  0  0  0  0  0  0  0  0
   58.3861   33.7899   42.7477 H   0  0  0  0  0  0  0  0  0  0  0  0
   59.1414   35.2299   44.6423 H   0  0  0  0  0  0  0  0  0  0  0  0
   58.9546   34.4124   46.9910 H   0  0  0  0  0  0  0  0  0  0  0  0
   58.0077   32.1515   47.4616 H   0  0  0  0  0  0  0  0  0  0  0  0
  1  2  1  0
  2  3  1  0
  3  4  1  0
  4  5  1  0
  5  6  1  0
  6  7  1  0
  7  8  2  0
  8  9  1  0
  9 10  2  0
  9 11  1  0
 11 12  2  0
 12 13  1  0
 13 14  2  0
 14 15  1  0
 15 16  2  0
 16 17  1  0
 17  7  1  0
 16 11  1  0
  1 18  1  0
  1 19  1  0
  1 20  1  0
  2 21  1  0
  2 22  1  0
  3 23  1  0
  3 24  1  0
  4 25  1  0
  4 26  1  0
  5 27  1  0
  5 28  1  0
  6 29  1  0
  8 30  1  0
 12 31  1  0
 13 32  1  0
 14 33  1  0
 15 34  1  0
M  CHG  2   3   1  17  -1
M  END
>  <UniqueID>  (15) 
15

>  <SMILES>  (15) 
CC[NH2+]CCNc1cc(=O)c2ccccc2[n-]1

>  <Energy>  (15) 
38.73199669832164

>  <Genealogy>  (15) 
CC[NH2+]CCNc1cc(=O)c2ccccc2[n-]1 (protonated)
CC[NH2+]CCNc1cc(=O)c2ccccc2[n-]1 (3D coordinates assigned)
CC[NH2+]CCNc1cc(=O)c2ccccc2[n-]1 (optimized conformer: 38.73199669832164 kcal/mol)

>  <smiles>  (15) 
CCNCCNc1cc(=O)c2ccccc2[nH]1

>  <score_type>  (15) 
oracle

>  <origin>  (15) 
adg

>  <m_score__min__energy>  (15) 
-5.9500000000000002

>  <m_primary>  (15) 
energy

$$$$
15:0
     RDKit          3D

 75 78  0  0  0  0  0  0  0  0999 V2000
   57.0390   33.5680   45.6270 C   0  0  0  0  0  0  0  0  0  0  0  0
   58.1210   33.6420   44.5530 C   0  0  0  0  0  0  0  0  0  0  0  0
   59.3880   33.8240   45.1540 O   0  0  0  0  0  0  0  0  0  0  0  0
   59.3970   34.9740   45.9730 C   0  0  0  0  0  0  0  0  0  0  0  0
   59.6570   34.5760   47.4280 C   0  0  0  0  0  0  0  0  0  0  0  0
   59.6900   33.1030   47.5580 N   0  0  0  0  0  0  0  0  0  0  0  0
   58.9100   32.6030   48.7210 C   0  0  0  0  0  0  0  0  0  0  0  0
   59.7900   32.2540   49.9380 C   0  0  0  0  0  0  0  0  0  0  0  0
   60.9260   31.3380   49.6140 N   0  0  0  0  0  0  0  0  0  0  0  0
   60.9240   30.0540   50.3820 C   0  0  0  0  0  0  0  0  0  0  0  0
   59.5540   29.3670   50.6970 C   0  0  1  0  0  0  0  0  0  0  0  0
   58.6810   30.1860   51.6820 C   0  0  0  0  0  0  0  0  0  0  0  0
   57.4020   30.4460   51.1300 O   0  0  0  0  0  0  0  0  0  0  0  0
   56.6260   31.2690   51.9840 C   0  0  0  0  0  0  0  0  0  0  0  0
   57.3920   32.5400   52.3320 C   0  0  0  0  0  0  0  0  0  0  0  0
   58.8360   29.0280   49.4490 N   0  0  0  0  0  0  0  0  0  0  0  0
   59.7300   28.5590   48.3770 C   0  0  0  0  0  0  0  0  0  0  0  0
   59.0760   28.6910   46.9720 C   0  0  1  0  0  0  0  0  0  0  0  0
   58.3850   30.0760   46.7940 C   0  0  0  0  0  0  0  0  0  0  0  0
   57.7760   30.1890   45.3780 C   0  0  2  0  0  0  0  0  0  0  0  0
   56.7310   29.0680   45.1770 C   0  0  0  0  0  0  0  0  0  0  0  0
   57.4120   27.6900   45.3290 C   0  0  1  0  0  0  0  0  0  0  0  0
   58.5300   27.5520   44.2720 C   0  0  0  0  0  0  0  0  0  0  0  0
   59.5740   28.6710   44.4750 C   0  0  1  0  0  0  0  0  0  0  0  0
   58.8940   30.0470   44.3230 C   0  0  0  0  0  0  0  0  0  0  0  0
   60.1850   28.5550   45.8880 C   0  0  0  0  0  0  0  0  0  0  0  0
   58.0220   27.5670   46.7430 C   0  0  0  0  0  0  0  0  0  0  0  0
   61.1750   31.2030   48.1620 C   0  0  0  0  0  0  0  0  0  0  0  0
   61.0730   32.5750   47.4900 C   0  0  0  0  0  0  0  0  0  0  0  0
   57.5071   33.6000   46.6219 H   0  0  0  0  0  0  0  0  0  0  0  0
   56.3538   34.4214   45.5166 H   0  0  0  0  0  0  0  0  0  0  0  0
   56.4763   32.6293   45.5166 H   0  0  0  0  0  0  0  0  0  0  0  0
   58.1237   32.7069   43.9737 H   0  0  0  0  0  0  0  0  0  0  0  0
   57.9116   34.4927   43.8878 H   0  0  0  0  0  0  0  0  0  0  0  0
   60.1903   35.6566   45.6344 H   0  0  0  0  0  0  0  0  0  0  0  0
   58.4203   35.4752   45.9039 H   0  0  0  0  0  0  0  0  0  0  0  0
   60.6234   34.9907   47.7507 H   0  0  0  0  0  0  0  0  0  0  0  0
   58.8477   34.9733   48.0583 H   0  0  0  0  0  0  0  0  0  0  0  0
   58.1917   33.3805   49.0204 H   0  0  0  0  0  0  0  0  0  0  0  0
   58.4083   31.6768   48.4041 H   0  0  0  0  0  0  0  0  0  0  0  0
   60.2026   33.1878   50.3477 H   0  0  0  0  0  0  0  0  0  0  0  0
   59.1477   31.7276   50.6593 H   0  0  0  0  0  0  0  0  0  0  0  0
   61.7760   31.8380   49.9750 H   0  0  0  0  0  0  0  0  0  0  0  0
   61.5231   29.3324   49.8072 H   0  0  0  0  0  0  0  0  0  0  0  0
   61.3147   30.3348   51.3712 H   0  0  0  0  0  0  0  0  0  0  0  0
   59.7748   28.4247   51.2199 H   0  0  0  0  0  0  0  0  0  0  0  0
   58.5611   29.6167   52.6155 H   0  0  0  0  0  0  0  0  0  0  0  0
   59.1803   31.1463   51.8783 H   0  0  0  0  0  0  0  0  0  0  0  0
   55.6885   31.5380   51.4754 H   0  0  0  0  0  0  0  0  0  0  0  0
   56.4070   30.7179   52.9104 H   0  0  0  0  0  0  0  0  0  0  0  0
   57.4540   32.6429   53.4254 H   0  0  0  0  0  0  0  0  0  0  0  0
   58.4066   32.4835   51.9109 H   0  0  0  0  0  0  0  0  0  0  0  0
   56.8681   33.4108   51.9109 H   0  0  0  0  0  0  0  0  0  0  0  0
   58.3780   29.9040   49.1110 H   0  0  0  0  0  0  0  0  0  0  0  0
   60.6525   29.1578   48.3968 H   0  0  0  0  0  0  0  0  0  0  0  0
   59.9423   27.4943   48.5538 H   0  0  0  0  0  0  0  0  0  0  0  0
   59.1287   30.8742   46.9347 H   0  0  0  0  0  0  0  0  0  0  0  0
   57.5824   30.1758   47.5396 H   0  0  0  0  0  0  0  0  0  0  0  0
   57.2893   31.1690   45.2649 H   0  0  0  0  0  0  0  0  0  0  0  0
   56.2941   29.1512   44.1709 H   0  0  0  0  0  0  0  0  0  0  0  0
   55.9381   29.1685   45.9328 H   0  0  0  0  0  0  0  0  0  0  0  0
   56.6665   26.8944   45.1831 H   0  0  0  0  0  0  0  0  0  0  0  0
   58.0946   27.6355   43.2653 H   0  0  0  0  0  0  0  0  0  0  0  0
   59.0180   26.5722   44.3815 H   0  0  0  0  0  0  0  0  0  0  0  0
   60.3681   28.5695   43.7206 H   0  0  0  0  0  0  0  0  0  0  0  0
   58.4603   30.1322   43.3157 H   0  0  0  0  0  0  0  0  0  0  0  0
   59.6396   30.8422   44.4702 H   0  0  0  0  0  0  0  0  0  0  0  0
   60.9285   29.3535   46.0280 H   0  0  0  0  0  0  0  0  0  0  0  0
   60.6642   27.5701   45.9896 H   0  0  0  0  0  0  0  0  0  0  0  0
   57.2228   27.6596   47.4931 H   0  0  0  0  0  0  0  0  0  0  0  0
   58.5140   26.5878   46.8385 H   0  0  0  0  0  0  0  0  0  0  0  0
   62.1821   30.7910   48.0007 H   0  0  0  0  0  0  0  0  0  0  0  0
   60.4246   30.5274   47.7255 H   0  0  0  0  0  0  0  0  0  0  0  0
   61.7502   33.2758   48.0002 H   0  0  0  0  0  0  0  0  0  0  0  0
   61.3530   32.4665   46.4318 H   0  0  0  0  0  0  0  0  0  0  0  0
  1  2  1  0
  2  3  1  0
  3  4  1  0
  4  5  1  0
  5  6  1  0
  6  7  1  0
  7  8  1  0
  8  9  1  0
  9 10  1  0
 10 11  1  0
 11 12  1  0
 12 13  1  0
 13 14  1  0
 14 15  1  0
 11 16  1  0
 16 17  1  0
 18 17  1  1
 18 19  1  0
 19 20  1  0
 20 21  1  0
 21 22  1  0
 22 23  1  0
 23 24  1  0
 24 25  1  0
 24 26  1  0
 22 27  1  0
  9 28  1  0
 28 29  1  0
 29  6  1  0
 26 18  1  0
 27 18  1  0
 25 20  1  0
  1 30  1  0
  1 31  1  0
  1 32  1  0
  2 33  1  0
  2 34  1  0
  4 35  1  0
  4 36  1  0
  5 37  1  0
  5 38  1  0
  7 39  1  0
  7 40  1  0
  8 41  1  0
  8 42  1  0
  9 43  1  0
 10 44  1  0
 10 45  1  0
 11 46  1  1
 12 47  1  0
 12 48  1  0
 14 49  1  0
 14 50  1  0
 15 51  1  0
 15 52  1  0
 15 53  1  0
 16 54  1  0
 17 55  1  0
 17 56  1  0
 19 57  1  0
 19 58  1  0
 20 59  1  1
 21 60  1  0
 21 61  1  0
 22 62  1  6
 23 63  1  0
 23 64  1  0
 24 65  1  6
 25 66  1  0
 25 67  1  0
 26 68  1  0
 26 69  1  0
 27 70  1  0
 27 71  1  0
 28 72  1  0
 28 73  1  0
 29 74  1  0
 29 75  1  0
M  CHG  1   9   1
M  END
>  <UniqueID>  (16) 
16

>  <SMILES>  (16) 
CCOCCN1CC[NH+](C[C@@H](COCC)NCC23CC4CC(CC(C4)C2)C3)CC1

>  <Energy>  (16) 
96.67777369954639

>  <Genealogy>  (16) 
CCOCCN1CC[NH+](CC(COCC)NCC23CC4CC(CC(C4)C2)C3)CC1 (protonated)
CCOCCN1CC[NH+](C[C@@H](COCC)NCC23CC4CC(CC(C4)C2)C3)CC1 (chirality)
CCOCCN1CC[NH+](C[C@@H](COCC)NCC23CC4CC(CC(C4)C2)C3)CC1 (3D coordinates assigned)
CCOCCN1CC[NH+](C[C@@H](COCC)NCC23CC4CC(CC(C4)C2)C3)CC1 (nonaromatic ring conformer: 96.67777369954639 kcal/mol)

>  <smiles>  (16) 
CCOCCN1CCN(CC(COCC)NCC23CC4CC(CC(C4)C2)C3)CC1

>  <score_type>  (16) 
oracle

>  <origin>  (16) 
adg

>  <m_score__min__energy>  (16) 
-6.3899999999999997

>  <m_primary>  (16) 
energy

$$$$
16:0
     RDKit          3D

 43 45  0  0  0  0  0  0  0  0999 V2000
   55.5130   30.0370   44.1550 C   0  0  0  0  0  0  0  0  0  0  0  0
   56.2580   29.7000   42.8600 C   0  0  0  0  0  0  0  0  0  0  0  0
   57.2190   28.6000   43.0390 N   0  0  0  0  0  0  0  0  0  0  0  0
   57.6920   28.4750   44.4270 C   0  0  0  0  0  0  0  0  0  0  0  0
   59.0720   29.1210   44.5970 C   0  0  0  0  0  0  0  0  0  0  0  0
   59.0360   30.2240   45.6160 C   0  0  0  0  0  0  0  0  0  0  0  0
   59.6020   30.1870   46.8850 C   0  0  0  0  0  0  0  0  0  0  0  0
   59.4730   31.3900   47.4940 N   0  0  0  0  0  0  0  0  0  0  0  0
   60.0370   31.7530   48.7950 C   0  0  0  0  0  0  0  0  0  0  0  0
   61.3340   32.4940   48.6090 C   0  0  0  0  0  0  0  0  0  0  0  0
   61.6700   33.5510   49.4720 C   0  0  0  0  0  0  0  0  0  0  0  0
   62.8860   34.2230   49.3240 C   0  0  0  0  0  0  0  0  0  0  0  0
   63.7770   33.8440   48.3150 C   0  0  0  0  0  0  0  0  0  0  0  0
   63.4530   32.7920   47.4540 C   0  0  0  0  0  0  0  0  0  0  0  0
   62.2360   32.1170   47.6000 C   0  0  0  0  0  0  0  0  0  0  0  0
   58.8480   32.1960   46.6080 C   0  0  0  0  0  0  0  0  0  0  0  0
   58.5230   33.5490   46.7520 C   0  0  0  0  0  0  0  0  0  0  0  0
   57.8970   34.1960   45.6710 C   0  0  0  0  0  0  0  0  0  0  0  0
   57.6140   33.4920   44.4810 C   0  0  0  0  0  0  0  0  0  0  0  0
   57.9530   32.1330   44.3610 C   0  0  0  0  0  0  0  0  0  0  0  0
   58.5680   31.5140   45.4490 C   0  0  0  0  0  0  0  0  0  0  0  0
   56.1336   29.7563   45.0187 H   0  0  0  0  0  0  0  0  0  0  0  0
   55.3053   31.1167   44.1882 H   0  0  0  0  0  0  0  0  0  0  0  0
   54.5650   29.4801   44.1882 H   0  0  0  0  0  0  0  0  0  0  0  0
   55.5235   29.4072   42.0952 H   0  0  0  0  0  0  0  0  0  0  0  0
   56.8221   30.5934   42.5539 H   0  0  0  0  0  0  0  0  0  0  0  0
   56.7820   27.6960   42.7420 H   0  0  0  0  0  0  0  0  0  0  0  0
   56.9763   28.9735   45.0973 H   0  0  0  0  0  0  0  0  0  0  0  0
   57.7721   27.4064   44.6752 H   0  0  0  0  0  0  0  0  0  0  0  0
   59.7890   28.3538   44.9245 H   0  0  0  0  0  0  0  0  0  0  0  0
   59.3760   29.5503   43.6309 H   0  0  0  0  0  0  0  0  0  0  0  0
   60.0860   29.3058   47.3313 H   0  0  0  0  0  0  0  0  0  0  0  0
   59.3250   32.3957   49.3335 H   0  0  0  0  0  0  0  0  0  0  0  0
   60.2261   30.8366   49.3733 H   0  0  0  0  0  0  0  0  0  0  0  0
   60.9723   33.8507   50.2678 H   0  0  0  0  0  0  0  0  0  0  0  0
   63.1426   35.0507   50.0016 H   0  0  0  0  0  0  0  0  0  0  0  0
   64.7337   34.3744   48.1989 H   0  0  0  0  0  0  0  0  0  0  0  0
   64.1550   32.4944   46.6611 H   0  0  0  0  0  0  0  0  0  0  0  0
   61.9846   31.2880   46.9221 H   0  0  0  0  0  0  0  0  0  0  0  0
   58.7500   34.0905   47.6822 H   0  0  0  0  0  0  0  0  0  0  0  0
   57.6260   35.2589   45.7539 H   0  0  0  0  0  0  0  0  0  0  0  0
   57.1253   34.0097   43.6425 H   0  0  0  0  0  0  0  0  0  0  0  0
   57.7398   31.5750   43.4374 H   0  0  0  0  0  0  0  0  0  0  0  0
  1  2  1  0
  2  3  1  0
  3  4  1  0
  4  5  1  0
  5  6  1  0
  6  7  2  0
  7  8  1  0
  8  9  1  0
  9 10  1  0
 10 11  2  0
 11 12  1  0
 12 13  2  0
 13 14  1  0
 14 15  2  0
  8 16  1  0
 16 17  2  0
 17 18  1  0
 18 19  2  0
 19 20  1  0
 20 21  2  0
 21  6  1  0
 15 10  1  0
 21 16  1  0
  1 22  1  0
  1 23  1  0
  1 24  1  0
  2 25  1  0
  2 26  1  0
  3 27  1  0
  4 28  1  0
  4 29  1  0
  5 30  1  0
  5 31  1  0
  7 32  1  0
  9 33  1  0
  9 34  1  0
 11 35  1  0
 12 36  1  0
 13 37  1  0
 14 38  1  0
 15 39  1  0
 17 40  1  0
 18 41  1  0
 19 42  1  0
 20 43  1  0
M  END
>  <UniqueID>  (17) 
17

>  <SMILES>  (17) 
CCNCCc1cn(Cc2ccccc2)c2ccccc12

>  <Energy>  (17) 
72.32532064994149

>  <Genealogy>  (17) 
CCNCCc1cn(Cc2ccccc2)c2ccccc12 (3D coordinates assigned)
CCNCCc1cn(Cc2ccccc2)c2ccccc12 (optimized conformer: 72.32532064994149 kcal/mol)

>  <smiles>  (17) 
CCNCCc1cn(Cc2ccccc2)c2ccccc12

>  <score_type>  (17) 
oracle

>  <origin>  (17) 
adg

>  <m_score__min__energy>  (17) 
-7.8499999999999996

>  <m_primary>  (17) 
energy

$$$$
17:0
     RDKit          3D

 44 47  0  0  0  0  0  0  0  0999 V2000
   63.3720   33.8000   46.7910 C   0  0  0  0  0  0  0  0  0  0  0  0
   61.8890   33.6360   46.9450 C   0  0  0  0  0  0  0  0  0  0  0  0
   61.0800   34.2000   46.0040 N   0  0  0  0  0  0  0  0  0  0  0  0
   59.7330   34.0850   46.0870 C   0  0  0  0  0  0  0  0  0  0  0  0
   59.1340   33.3870   47.0950 C   0  0  0  0  0  0  0  0  0  0  0  0
   59.9070   32.7470   48.0770 C   0  0  0  0  0  0  0  0  0  0  0  0
   59.2510   31.8580   49.0680 C   0  0  0  0  0  0  0  0  0  0  0  0
   58.8030   32.3960   50.2820 C   0  0  0  0  0  0  0  0  0  0  0  0
   58.2430   31.5650   51.2530 C   0  0  0  0  0  0  0  0  0  0  0  0
   58.1450   30.1960   51.0060 C   0  0  0  0  0  0  0  0  0  0  0  0
   58.5800   29.6830   49.8260 N   0  0  0  0  0  0  0  0  0  0  0  0
   59.1090   30.4650   48.8470 C   0  0  0  0  0  0  0  0  0  0  0  0
   59.5370   29.8500   47.6610 O   0  0  0  0  0  0  0  0  0  0  0  0
   58.7510   29.7260   46.5070 C   0  0  0  0  0  0  0  0  0  0  0  0
   58.9020   30.6620   45.4770 C   0  0  0  0  0  0  0  0  0  0  0  0
   58.0930   30.5910   44.3390 C   0  0  0  0  0  0  0  0  0  0  0  0
   57.1440   29.5720   44.2160 C   0  0  0  0  0  0  0  0  0  0  0  0
   57.0120   28.6140   45.2250 C   0  0  0  0  0  0  0  0  0  0  0  0
   57.8220   28.6820   46.3640 C   0  0  0  0  0  0  0  0  0  0  0  0
   61.3190   32.9210   48.0370 C   0  0  0  0  0  0  0  0  0  0  0  0
   62.2090   32.3240   49.1050 C   0  0  0  0  0  0  0  0  0  0  0  0
   57.6550   33.3920   46.9450 C   0  0  0  0  0  0  0  0  0  0  0  0
   57.4170   34.0730   45.5830 C   0  0  0  0  0  0  0  0  0  0  0  0
   58.7700   34.6330   45.1100 C   0  0  0  0  0  0  0  0  0  0  0  0
   63.8403   33.8518   47.7850 H   0  0  0  0  0  0  0  0  0  0  0  0
   63.7803   32.9415   46.2375 H   0  0  0  0  0  0  0  0  0  0  0  0
   63.5829   34.7269   46.2375 H   0  0  0  0  0  0  0  0  0  0  0  0
   58.8930   33.4761   50.4699 H   0  0  0  0  0  0  0  0  0  0  0  0
   57.8826   31.9854   52.2035 H   0  0  0  0  0  0  0  0  0  0  0  0
   57.7145   29.5302   51.7685 H   0  0  0  0  0  0  0  0  0  0  0  0
   59.6591   31.4553   45.5633 H   0  0  0  0  0  0  0  0  0  0  0  0
   58.2034   31.3381   43.5392 H   0  0  0  0  0  0  0  0  0  0  0  0
   56.5010   29.5241   43.3248 H   0  0  0  0  0  0  0  0  0  0  0  0
   56.2716   27.8068   45.1238 H   0  0  0  0  0  0  0  0  0  0  0  0
   57.7311   27.9166   47.1488 H   0  0  0  0  0  0  0  0  0  0  0  0
   61.8167   32.5871   50.0984 H   0  0  0  0  0  0  0  0  0  0  0  0
   62.2283   31.2295   48.9965 H   0  0  0  0  0  0  0  0  0  0  0  0
   63.2290   32.7213   48.9965 H   0  0  0  0  0  0  0  0  0  0  0  0
   57.2594   32.3656   46.9427 H   0  0  0  0  0  0  0  0  0  0  0  0
   57.1488   33.9127   47.7713 H   0  0  0  0  0  0  0  0  0  0  0  0
   57.0382   33.3393   44.8562 H   0  0  0  0  0  0  0  0  0  0  0  0
   56.6725   34.8776   45.6742 H   0  0  0  0  0  0  0  0  0  0  0  0
   59.0038   34.2878   44.0921 H   0  0  0  0  0  0  0  0  0  0  0  0
   58.7856   35.7320   45.0646 H   0  0  0  0  0  0  0  0  0  0  0  0
  1  2  1  0
  2  3  2  0
  3  4  1  0
  4  5  2  0
  5  6  1  0
  6  7  1  0
  7  8  2  0
  8  9  1  0
  9 10  2  0
 10 11  1  0
 11 12  2  0
 12 13  1  0
 13 14  1  0
 14 15  2  0
 15 16  1  0
 16 17  2  0
 17 18  1  0
 18 19  2  0
  6 20  2  0
 20 21  1  0
  5 22  1  0
 22 23  1  0
 23 24  1  0
 20  2  1  0
 24  4  1  0
 12  7  1  0
 19 14  1  0
  1 25  1  0
  1 26  1  0
  1 27  1  0
  8 28  1  0
  9 29  1  0
 10 30  1  0
 15 31  1  0
 16 32  1  0
 17 33  1  0
 18 34  1  0
 19 35  1  0
 21 36  1  0
 21 37  1  0
 21 38  1  0
 22 39  1  0
 22 40  1  0
 23 41  1  0
 23 42  1  0
 24 43  1  0
 24 44  1  0
M  END
>  <UniqueID>  (18) 
18

>  <SMILES>  (18) 
Cc1nc2c(c(-c3cccnc3Oc3ccccc3)c1C)CCC2

>  <Energy>  (18) 
69.79954074664019

>  <Genealogy>  (18) 
Cc1nc2c(c(-c3cccnc3Oc3ccccc3)c1C)CCC2 (3D coordinates assigned)
Cc1nc2c(c(-c3cccnc3Oc3ccccc3)c1C)CCC2 (nonaromatic ring conformer: 69.79954074664019 kcal/mol)

>  <smiles>  (18) 
Cc1nc2c(c(-c3cccnc3Oc3ccccc3)c1C)CCC2

>  <score_type>  (18) 
oracle

>  <origin>  (18) 
adg

>  <m_score__min__energy>  (18) 
-7.6900000000000004

>  <m_primary>  (18) 
energy

$$$$
18:0
     RDKit          3D

 33 35  0  0  0  0  0  0  0  0999 V2000
   57.7850   27.5040   44.2730 C   0  0  0  0  0  0  0  0  0  0  0  0
   57.8530   28.8860   44.7330 N   0  0  0  0  0  0  0  0  0  0  0  0
   56.8700   29.8170   44.6850 C   0  0  0  0  0  0  0  0  0  0  0  0
   57.2280   31.0030   45.2460 N   0  0  0  0  0  0  0  0  0  0  0  0
   58.4900   30.7740   45.6590 C   0  0  0  0  0  0  0  0  0  0  0  0
   59.3380   31.6560   46.3230 C   0  0  0  0  0  0  0  0  0  0  0  0
   60.6280   31.1970   46.6830 C   0  0  0  0  0  0  0  0  0  0  0  0
   61.5370   32.0680   47.3840 N   0  0  0  0  0  0  0  0  0  0  0  0
   62.0100   33.3060   46.7500 C   0  0  0  0  0  0  0  0  0  0  0  0
   63.2620   33.8360   47.4630 C   0  0  0  0  0  0  0  0  0  0  0  0
   64.1370   32.7190   47.8500 N   0  0  0  0  0  0  0  0  0  0  0  0
   63.5140   31.8300   48.8560 C   0  0  0  0  0  0  0  0  0  0  0  0
   61.9780   31.7620   48.7500 C   0  0  0  0  0  0  0  0  0  0  0  0
   61.0070   29.8620   46.3740 C   0  0  0  0  0  0  0  0  0  0  0  0
   60.1220   28.9990   45.7030 C   0  0  0  0  0  0  0  0  0  0  0  0
   58.8680   29.5000   45.3590 C   0  0  0  0  0  0  0  0  0  0  0  0
   57.7518   26.8297   45.1415 H   0  0  0  0  0  0  0  0  0  0  0  0
   56.8789   27.3640   43.6653 H   0  0  0  0  0  0  0  0  0  0  0  0
   58.6730   27.2757   43.6653 H   0  0  0  0  0  0  0  0  0  0  0  0
   55.8822   29.6323   44.2375 H   0  0  0  0  0  0  0  0  0  0  0  0
   59.0150   32.6802   46.5611 H   0  0  0  0  0  0  0  0  0  0  0  0
   62.2531   33.1023   45.6967 H   0  0  0  0  0  0  0  0  0  0  0  0
   61.2161   34.0643   46.8184 H   0  0  0  0  0  0  0  0  0  0  0  0
   63.8089   34.5081   46.7854 H   0  0  0  0  0  0  0  0  0  0  0  0
   62.9559   34.3823   48.3674 H   0  0  0  0  0  0  0  0  0  0  0  0
   65.0250   33.1080   48.2440 H   0  0  0  0  0  0  0  0  0  0  0  0
   64.3830   32.1630   46.9970 H   0  0  0  0  0  0  0  0  0  0  0  0
   63.9174   30.8155   48.7214 H   0  0  0  0  0  0  0  0  0  0  0  0
   63.7516   32.2458   49.8463 H   0  0  0  0  0  0  0  0  0  0  0  0
   61.6422   30.7498   49.0194 H   0  0  0  0  0  0  0  0  0  0  0  0
   61.5435   32.5041   49.4359 H   0  0  0  0  0  0  0  0  0  0  0  0
   62.0045   29.4996   46.6632 H   0  0  0  0  0  0  0  0  0  0  0  0
   60.4094   27.9657   45.4586 H   0  0  0  0  0  0  0  0  0  0  0  0
  1  2  1  0
  2  3  1  0
  3  4  2  0
  4  5  1  0
  5  6  2  0
  6  7  1  0
  7  8  1  0
  8  9  1  0
  9 10  1  0
 10 11  1  0
 11 12  1  0
 12 13  1  0
  7 14  2  0
 14 15  1  0
 15 16  2  0
 16  2  1  0
 16  5  1  0
 13  8  1  0
  1 17  1  0
  1 18  1  0
  1 19  1  0
  3 20  1  0
  6 21  1  0
  9 22  1  0
  9 23  1  0
 10 24  1  0
 10 25  1  0
 11 26  1  0
 11 27  1  0
 12 28  1  0
 12 29  1  0
 13 30  1  0
 13 31  1  0
 14 32  1  0
 15 33  1  0
M  CHG  1  11   1
M  END
>  <UniqueID>  (19) 
19

>  <SMILES>  (19) 
Cn1cnc2cc(N3CC[NH2+]CC3)ccc21

>  <Energy>  (19) 
78.83823835696191

>  <Genealogy>  (19) 
Cn1cnc2cc(N3CC[NH2+]CC3)ccc21 (protonated)
Cn1cnc2cc(N3CC[NH2+]CC3)ccc21 (3D coordinates assigned)
Cn1cnc2cc(N3CC[NH2+]CC3)ccc21 (nonaromatic ring conformer: 78.83823835696191 kcal/mol)

>  <smiles>  (19) 
Cn1cnc2cc(N3CCNCC3)ccc21

>  <score_type>  (19) 
oracle

>  <origin>  (19) 
adg

>  <m_score__min__energy>  (19) 
-4.3600000000000003

>  <m_primary>  (19) 
energy

$$$$
19:0
     RDKit          3D

 38 40  0  0  0  0  0  0  0  0999 V2000
   59.2930   35.1170   45.5820 C   0  0  0  0  0  0  0  0  0  0  0  0
   59.3660   34.2180   46.7710 C   0  0  0  0  0  0  0  0  0  0  0  0
   59.5480   34.6510   48.0380 N   0  0  0  0  0  0  0  0  0  0  0  0
   59.5770   33.5140   48.7730 C   0  0  0  0  0  0  0  0  0  0  0  0
   59.7640   33.5020   50.2570 C   0  0  0  0  0  0  0  0  0  0  0  0
   59.4120   32.4060   48.0210 N   0  0  0  0  0  0  0  0  0  0  0  0
   59.3130   32.8400   46.7610 C   0  0  0  0  0  0  0  0  0  0  0  0
   59.0770   31.9110   45.6090 C   0  0  0  0  0  0  0  0  0  0  0  0
   59.4970   30.5310   45.9620 N   0  0  2  0  0  0  0  0  0  0  0  0
   59.0910   29.6010   44.8810 C   0  0  0  0  0  0  0  0  0  0  0  0
   57.5970   29.5650   44.6970 C   0  0  0  0  0  0  0  0  0  0  0  0
   56.8380   30.4880   44.0060 C   0  0  0  0  0  0  0  0  0  0  0  0
   55.5290   30.0720   44.1370 C   0  0  0  0  0  0  0  0  0  0  0  0
   55.4780   28.9750   44.8580 O   0  0  0  0  0  0  0  0  0  0  0  0
   56.7000   28.6420   45.2080 C   0  0  0  0  0  0  0  0  0  0  0  0
   57.0230   27.4560   46.0580 C   0  0  0  0  0  0  0  0  0  0  0  0
   58.9220   30.1170   47.2680 C   0  0  0  0  0  0  0  0  0  0  0  0
   59.4510   31.0010   48.4160 C   0  0  0  0  0  0  0  0  0  0  0  0
   59.2082   36.1614   45.9167 H   0  0  0  0  0  0  0  0  0  0  0  0
   60.2037   34.9988   44.9765 H   0  0  0  0  0  0  0  0  0  0  0  0
   58.4133   34.8534   44.9765 H   0  0  0  0  0  0  0  0  0  0  0  0
   58.7830   33.5650   50.7507 H   0  0  0  0  0  0  0  0  0  0  0  0
   60.2657   32.5698   50.5558 H   0  0  0  0  0  0  0  0  0  0  0  0
   60.3808   34.3624   50.5558 H   0  0  0  0  0  0  0  0  0  0  0  0
   58.0062   31.9107   45.3572 H   0  0  0  0  0  0  0  0  0  0  0  0
   59.6680   32.2543   44.7471 H   0  0  0  0  0  0  0  0  0  0  0  0
   60.5430   30.5230   46.0360 H   0  0  0  0  0  0  0  0  0  0  0  0
   59.5567   29.9268   43.9392 H   0  0  0  0  0  0  0  0  0  0  0  0
   59.4225   28.5902   45.1611 H   0  0  0  0  0  0  0  0  0  0  0  0
   57.2018   31.3727   43.4629 H   0  0  0  0  0  0  0  0  0  0  0  0
   54.6574   30.5831   43.7022 H   0  0  0  0  0  0  0  0  0  0  0  0
   56.9472   27.7341   47.1196 H   0  0  0  0  0  0  0  0  0  0  0  0
   56.3132   26.6444   45.8400 H   0  0  0  0  0  0  0  0  0  0  0  0
   58.0463   27.1165   45.8400 H   0  0  0  0  0  0  0  0  0  0  0  0
   57.8266   30.2061   47.2221 H   0  0  0  0  0  0  0  0  0  0  0  0
   59.2187   29.0762   47.4649 H   0  0  0  0  0  0  0  0  0  0  0  0
   58.8231   30.8553   49.3073 H   0  0  0  0  0  0  0  0  0  0  0  0
   60.4896   30.7174   48.6418 H   0  0  0  0  0  0  0  0  0  0  0  0
  1  2  1  0
  2  3  1  0
  3  4  2  0
  4  5  1  0
  4  6  1  0
  6  7  1  0
  7  8  1  0
  8  9  1  0
  9 10  1  0
 10 11  1  0
 11 12  1  0
 12 13  2  0
 13 14  1  0
 14 15  1  0
 15 16  1  0
  9 17  1  0
 17 18  1  0
  7  2  2  0
 15 11  2  0
 18  6  1  0
  1 19  1  0
  1 20  1  0
  1 21  1  0
  5 22  1  0
  5 23  1  0
  5 24  1  0
  8 25  1  0
  8 26  1  0
  9 27  1  1
 10 28  1  0
 10 29  1  0
 12 30  1  0
 13 31  1  0
 16 32  1  0
 16 33  1  0
 16 34  1  0
 17 35  1  0
 17 36  1  0
 18 37  1  0
 18 38  1  0
M  CHG  1   9   1
M  END
>  <UniqueID>  (20) 
20

>  <SMILES>  (20) 
Cc1nc(C)n2c1C[N@H+](Cc1ccoc1C)CC2

>  <Energy>  (20) 
94.88047010885462

>  <Genealogy>  (20) 
Cc1nc(C)n2c1C[NH+](Cc1ccoc1C)CC2 (protonated)
Cc1nc(C)n2c1C[N@H+](Cc1ccoc1C)CC2 (chirality)
Cc1nc(C)n2c1C[N@H+](Cc1ccoc1C)CC2 (3D coordinates assigned)
Cc1nc(C)n2c1C[N@H+](Cc1ccoc1C)CC2 (nonaromatic ring conformer: 94.88047010885462 kcal/mol)

>  <smiles>  (20) 
Cc1nc(C)n2c1CN(Cc1ccoc1C)CC2

>  <score_type>  (20) 
oracle

>  <origin>  (20) 
adg

>  <m_score__min__energy>  (20) 
-5.0300000000000002

>  <m_primary>  (20) 
energy

$$$$
20:0
     RDKit          3D

 24 23  0  0  0  0  0  0  0  0999 V2000
   60.0070   34.8946   45.6257 H   0  0  0  0  0  0  0  0  0  0  0  0
   59.0100   34.5920   45.2730 C   0  0  0  0  0  0  0  0  0  0  0  0
   58.4861   35.1977   44.5189 H   0  0  0  0  0  0  0  0  0  0  0  0
   58.4360   33.4900   45.7600 C   0  0  0  0  0  0  0  0  0  0  0  0
   58.9714   32.8939   46.5137 H   0  0  0  0  0  0  0  0  0  0  0  0
   57.0750   33.0440   45.3030 C   0  0  0  0  0  0  0  0  0  0  0  0
   56.3263   33.3575   46.0454 H   0  0  0  0  0  0  0  0  0  0  0  0
   56.8671   33.5038   44.3256 H   0  0  0  0  0  0  0  0  0  0  0  0
   57.0190   31.5890   45.1530 N   0  0  0  0  0  0  0  0  0  0  0  0
   56.6900   30.9290   44.0780 C   0  0  0  0  0  0  0  0  0  0  0  0
   55.7320   29.8130   44.2040 C   0  0  0  0  0  0  0  0  0  0  0  0
   54.7740   29.7160   43.3880 O   0  0  0  0  0  0  0  0  0  0  0  0
   55.8820   28.8720   45.2280 O   0  0  0  0  0  0  0  0  0  0  0  0
   57.1240   28.2380   45.5130 C   0  0  0  0  0  0  0  0  0  0  0  0
   57.7775   28.9387   46.0533 H   0  0  0  0  0  0  0  0  0  0  0  0
   56.9464   27.3477   46.1342 H   0  0  0  0  0  0  0  0  0  0  0  0
   57.7930   27.8220   44.2120 C   0  0  0  0  0  0  0  0  0  0  0  0
   58.7076   27.2533   44.4355 H   0  0  0  0  0  0  0  0  0  0  0  0
   57.1033   27.1932   43.6298 H   0  0  0  0  0  0  0  0  0  0  0  0
   58.0519   28.7186   43.6298 H   0  0  0  0  0  0  0  0  0  0  0  0
   57.3160   31.2310   42.7370 C   0  0  0  0  0  0  0  0  0  0  0  0
   58.2973   31.7044   42.8887 H   0  0  0  0  0  0  0  0  0  0  0  0
   57.4436   30.2953   42.1728 H   0  0  0  0  0  0  0  0  0  0  0  0
   56.6631   31.9132   42.1728 H   0  0  0  0  0  0  0  0  0  0  0  0
  1  2  1  0
  2  3  1  0
  2  4  2  0
  4  5  1  0
  4  6  1  0
  6  7  1  0
  6  8  1  0
  6  9  1  0
  9 10  2  0
 10 11  1  0
 11 12  2  0
 11 13  1  0
 13 14  1  0
 14 15  1  0
 14 16  1  0
 14 17  1  0
 17 18  1  0
 17 19  1  0
 17 20  1  0
 10 21  1  0
 21 22  1  0
 21 23  1  0
 21 24  1  0
M  END
>  <UniqueID>  (21) 
21

>  <SMILES>  (21) 
C=CC/N=C(\C)C(=O)OCC

>  <Energy>  (21) 
10.39666741348715

>  <Genealogy>  (21) 
C=CC/N=C(\C)C(=O)OCC (cis-trans isomerization)
C=CC/N=C(\C)C(=O)OCC (3D coordinates assigned)
C=CC/N=C(\C)C(=O)OCC (optimized conformer: 10.39666741348715 kcal/mol)

>  <smiles>  (21) 
C=CCN=C(C)C(=O)OCC

>  <score_type>  (21) 
oracle

>  <origin>  (21) 
adg

>  <m_score__min__energy>  (21) 
-4.4500000000000002

>  <m_primary>  (21) 
energy

$$$$
21:0
     RDKit          3D

 69 72  0  0  0  0  0  0  0  0999 V2000
   57.3690   30.4890   51.5280 C   0  0  0  0  0  0  0  0  0  0  0  0
   58.7160   30.9990   51.2290 N   0  0  0  0  0  0  0  0  0  0  0  0
   59.3150   31.5440   52.4600 C   0  0  0  0  0  0  0  0  0  0  0  0
   59.5610   29.9250   50.6600 C   0  0  0  0  0  0  0  0  0  0  0  0
   59.6200   30.0430   49.1340 C   0  0  0  0  0  0  0  0  0  0  0  0
   58.7750   31.1430   48.6690 N   0  0  0  0  0  0  0  0  0  0  0  0
   58.6530   31.4270   47.2690 C   0  0  0  0  0  0  0  0  0  0  0  0
   58.3530   30.3770   46.3830 C   0  0  0  0  0  0  0  0  0  0  0  0
   58.2090   29.0530   46.8550 C   0  0  0  0  0  0  0  0  0  0  0  0
   57.9510   28.0070   45.9740 C   0  0  0  0  0  0  0  0  0  0  0  0
   57.8510   28.2540   44.6110 C   0  0  0  0  0  0  0  0  0  0  0  0
   57.9880   29.5520   44.1220 C   0  0  0  0  0  0  0  0  0  0  0  0
   58.2120   30.6460   44.9990 C   0  0  0  0  0  0  0  0  0  0  0  0
   58.3140   31.9420   44.5340 N   0  0  0  0  0  0  0  0  0  0  0  0
   57.8790   32.2650   43.1550 C   0  0  0  0  0  0  0  0  0  0  0  0
   58.7940   32.9420   45.3600 C   0  0  0  0  0  0  0  0  0  0  0  0
   59.1860   34.1970   44.8370 C   0  0  0  0  0  0  0  0  0  0  0  0
   59.6010   35.2270   45.6690 C   0  0  0  0  0  0  0  0  0  0  0  0
   59.6430   35.0440   47.0420 C   0  0  0  0  0  0  0  0  0  0  0  0
   59.3100   33.8020   47.6120 C   0  0  0  0  0  0  0  0  0  0  0  0
   59.3450   33.6200   49.0070 O   0  0  0  0  0  0  0  0  0  0  0  0
   60.3480   34.0920   49.9070 C   0  0  0  0  0  0  0  0  0  0  0  0
   61.2520   32.9210   50.3620 C   0  0  0  0  0  0  0  0  0  0  0  0
   62.6180   32.8710   49.7400 N   0  0  0  0  0  0  0  0  0  0  0  0
   63.6620   32.9570   50.7960 C   0  0  0  0  0  0  0  0  0  0  0  0
   62.8040   31.5910   48.9700 C   0  0  0  0  0  0  0  0  0  0  0  0
   62.3960   31.7080   47.4930 C   0  0  0  0  0  0  0  0  0  0  0  0
   63.2700   32.7380   46.7630 C   0  0  0  0  0  0  0  0  0  0  0  0
   63.7430   33.8690   47.6920 C   0  0  0  0  0  0  0  0  0  0  0  0
   62.7530   34.0790   48.8510 C   0  0  0  0  0  0  0  0  0  0  0  0
   58.9190   32.7230   46.7630 C   0  0  0  0  0  0  0  0  0  0  0  0
   57.2304   30.4365   52.6180 H   0  0  0  0  0  0  0  0  0  0  0  0
   56.6167   31.1645   51.0948 H   0  0  0  0  0  0  0  0  0  0  0  0
   57.2527   29.4846   51.0948 H   0  0  0  0  0  0  0  0  0  0  0  0
   58.8232   31.0965   53.3363 H   0  0  0  0  0  0  0  0  0  0  0  0
   60.3889   31.3068   52.4813 H   0  0  0  0  0  0  0  0  0  0  0  0
   59.1800   32.6355   52.4813 H   0  0  0  0  0  0  0  0  0  0  0  0
   60.5785   30.0092   51.0695 H   0  0  0  0  0  0  0  0  0  0  0  0
   59.1257   28.9504   50.9257 H   0  0  0  0  0  0  0  0  0  0  0  0
   60.6592   30.2304   48.8259 H   0  0  0  0  0  0  0  0  0  0  0  0
   59.2551   29.1043   48.6916 H   0  0  0  0  0  0  0  0  0  0  0  0
   58.1890   31.6920   49.3400 H   0  0  0  0  0  0  0  0  0  0  0  0
   58.3019   28.8466   47.9315 H   0  0  0  0  0  0  0  0  0  0  0  0
   57.8262   26.9836   46.3576 H   0  0  0  0  0  0  0  0  0  0  0  0
   57.6631   27.4229   43.9154 H   0  0  0  0  0  0  0  0  0  0  0  0
   57.9215   29.7318   43.0388 H   0  0  0  0  0  0  0  0  0  0  0  0
   56.9964   32.9204   43.1930 H   0  0  0  0  0  0  0  0  0  0  0  0
   58.6943   32.7783   42.6241 H   0  0  0  0  0  0  0  0  0  0  0  0
   57.6234   31.3361   42.6241 H   0  0  0  0  0  0  0  0  0  0  0  0
   59.1613   34.3593   43.7493 H   0  0  0  0  0  0  0  0  0  0  0  0
   59.8982   36.1938   45.2365 H   0  0  0  0  0  0  0  0  0  0  0  0
   59.9400   35.8792   47.6933 H   0  0  0  0  0  0  0  0  0  0  0  0
   60.9631   34.8502   49.4003 H   0  0  0  0  0  0  0  0  0  0  0  0
   59.8601   34.5324   50.7891 H   0  0  0  0  0  0  0  0  0  0  0  0
   61.3799   32.9969   51.4519 H   0  0  0  0  0  0  0  0  0  0  0  0
   60.7406   32.0037   50.0348 H   0  0  0  0  0  0  0  0  0  0  0  0
   63.1856   32.9178   51.7867 H   0  0  0  0  0  0  0  0  0  0  0  0
   64.3600   32.1133   50.6911 H   0  0  0  0  0  0  0  0  0  0  0  0
   64.2125   33.9035   50.6911 H   0  0  0  0  0  0  0  0  0  0  0  0
   63.8652   31.3053   49.0179 H   0  0  0  0  0  0  0  0  0  0  0  0
   62.1511   30.8348   49.4304 H   0  0  0  0  0  0  0  0  0  0  0  0
   62.5136   30.7277   47.0081 H   0  0  0  0  0  0  0  0  0  0  0  0
   61.3479   32.0381   47.4430 H   0  0  0  0  0  0  0  0  0  0  0  0
   64.1526   32.2252   46.3530 H   0  0  0  0  0  0  0  0  0  0  0  0
   62.6608   33.1906   45.9667 H   0  0  0  0  0  0  0  0  0  0  0  0
   64.7291   33.6080   48.1037 H   0  0  0  0  0  0  0  0  0  0  0  0
   63.8037   34.7999   47.1091 H   0  0  0  0  0  0  0  0  0  0  0  0
   63.1027   34.9250   49.4609 H   0  0  0  0  0  0  0  0  0  0  0  0
   61.7650   34.2712   48.4072 H   0  0  0  0  0  0  0  0  0  0  0  0
  1  2  1  0
  2  3  1  0
  2  4  1  0
  4  5  1  0
  5  6  1  0
  6  7  1  0
  7  8  2  0
  8  9  1  0
  9 10  2  0
 10 11  1  0
 11 12  2  0
 12 13  1  0
 13 14  2  0
 14 15  1  0
 14 16  1  0
 16 17  2  0
 17 18  1  0
 18 19  2  0
 19 20  1  0
 20 21  1  0
 21 22  1  0
 22 23  1  0
 23 24  1  0
 24 25  1  0
 24 26  1  0
 26 27  1  0
 27 28  1  0
 28 29  1  0
 29 30  1  0
 20 31  2  0
 31  7  1  0
 13  8  1  0
 31 16  1  0
 30 24  1  0
  1 32  1  0
  1 33  1  0
  1 34  1  0
  3 35  1  0
  3 36  1  0
  3 37  1  0
  4 38  1  0
  4 39  1  0
  5 40  1  0
  5 41  1  0
  6 42  1  0
  9 43  1  0
 10 44  1  0
 11 45  1  0
 12 46  1  0
 15 47  1  0
 15 48  1  0
 15 49  1  0
 17 50  1  0
 18 51  1  0
 19 52  1  0
 22 53  1  0
 22 54  1  0
 23 55  1  0
 23 56  1  0
 25 57  1  0
 25 58  1  0
 25 59  1  0
 26 60  1  0
 26 61  1  0
 27 62  1  0
 27 63  1  0
 28 64  1  0
 28 65  1  0
 29 66  1  0
 29 67  1  0
 30 68  1  0
 30 69  1  0
M  CHG  2  14   1  24   1
M  END
>  <UniqueID>  (22) 
22

>  <SMILES>  (22) 
CN(C)CCNc1c2ccccc2[n+](C)c2cccc(OCC[N+]3(C)CCCCC3)c12

>  <Energy>  (22) 
115.13801183387785

>  <Genealogy>  (22) 
CN(C)CCNc1c2ccccc2[n+](C)c2cccc(OCC[N+]3(C)CCCCC3)c12 (3D coordinates assigned)
CN(C)CCNc1c2ccccc2[n+](C)c2cccc(OCC[N+]3(C)CCCCC3)c12 (nonaromatic ring conformer: 115.13801183387785 kcal/mol)

>  <smiles>  (22) 
CN(C)CCNc1c2ccccc2[n+](C)c2cccc(OCC[N+]3(C)CCCCC3)c12

>  <score_type>  (22) 
oracle

>  <origin>  (22) 
adg

>  <m_score__min__energy>  (22) 
-5.1100000000000003

>  <m_primary>  (22) 
energy

$$$$
22:0
     RDKit          3D

 44 45  0  0  0  0  0  0  0  0999 V2000
   56.6150   30.8610   44.0230 C   0  0  0  0  0  0  0  0  0  0  0  0
   55.8920   29.5440   43.7730 C   0  0  0  0  0  0  0  0  0  0  0  0
   55.8440   28.7570   45.0210 N   0  0  0  0  0  0  0  0  0  0  0  0
   57.1320   28.1790   45.4850 C   0  0  0  0  0  0  0  0  0  0  0  0
   56.7910   26.9300   46.3560 C   0  0  0  0  0  0  0  0  0  0  0  0
   55.5220   26.3080   45.9360 N   0  0  0  0  0  0  0  0  0  0  0  0
   55.5800   24.8360   46.0420 C   0  0  0  0  0  0  0  0  0  0  0  0
   57.0280   24.3520   46.1280 C   0  0  0  0  0  0  0  0  0  0  0  0
   57.5130   24.2330   44.6900 C   0  0  0  0  0  0  0  0  0  0  0  0
   56.2640   24.1000   43.8210 C   0  0  0  0  0  0  0  0  0  0  0  0
   55.0670   24.1830   44.7610 C   0  0  0  0  0  0  0  0  0  0  0  0
   57.9040   29.2150   46.3690 C   0  0  0  0  0  0  0  0  0  0  0  0
   59.2970   28.7230   46.8080 C   0  0  0  0  0  0  0  0  0  0  0  0
   60.0590   27.9580   45.7060 C   0  0  0  0  0  0  0  0  0  0  0  0
   59.4630   28.1830   44.3140 C   0  0  0  0  0  0  0  0  0  0  0  0
   58.0010   27.7100   44.2600 C   0  0  0  0  0  0  0  0  0  0  0  0
   56.7071   31.0288   45.1062 H   0  0  0  0  0  0  0  0  0  0  0  0
   57.6173   30.8205   43.5717 H   0  0  0  0  0  0  0  0  0  0  0  0
   56.0427   31.6849   43.5717 H   0  0  0  0  0  0  0  0  0  0  0  0
   54.8670   29.7491   43.4306 H   0  0  0  0  0  0  0  0  0  0  0  0
   56.4318   28.9730   43.0032 H   0  0  0  0  0  0  0  0  0  0  0  0
   55.1500   27.9830   44.8930 H   0  0  0  0  0  0  0  0  0  0  0  0
   57.6009   26.1924   46.2556 H   0  0  0  0  0  0  0  0  0  0  0  0
   56.6858   27.2566   47.4011 H   0  0  0  0  0  0  0  0  0  0  0  0
   55.3800   26.5670   44.9320 H   0  0  0  0  0  0  0  0  0  0  0  0
   54.9861   24.5738   46.9300 H   0  0  0  0  0  0  0  0  0  0  0  0
   57.6423   25.0784   46.6803 H   0  0  0  0  0  0  0  0  0  0  0  0
   57.1026   23.3924   46.6606 H   0  0  0  0  0  0  0  0  0  0  0  0
   58.0806   25.1311   44.4048 H   0  0  0  0  0  0  0  0  0  0  0  0
   58.1788   23.3663   44.5651 H   0  0  0  0  0  0  0  0  0  0  0  0
   56.2255   24.9164   43.0848 H   0  0  0  0  0  0  0  0  0  0  0  0
   56.2668   23.1503   43.2660 H   0  0  0  0  0  0  0  0  0  0  0  0
   54.2710   24.7955   44.3125 H   0  0  0  0  0  0  0  0  0  0  0  0
   54.6416   23.1881   44.9593 H   0  0  0  0  0  0  0  0  0  0  0  0
   58.0274   30.1432   45.7918 H   0  0  0  0  0  0  0  0  0  0  0  0
   57.3106   29.3707   47.2820 H   0  0  0  0  0  0  0  0  0  0  0  0
   59.8970   29.5965   47.1030 H   0  0  0  0  0  0  0  0  0  0  0  0
   59.1428   28.0202   47.6400 H   0  0  0  0  0  0  0  0  0  0  0  0
   61.1053   28.2976   45.7004 H   0  0  0  0  0  0  0  0  0  0  0  0
   59.9823   26.8842   45.9318 H   0  0  0  0  0  0  0  0  0  0  0  0
   59.5035   29.2557   44.0740 H   0  0  0  0  0  0  0  0  0  0  0  0
   60.0470   27.6035   43.5838 H   0  0  0  0  0  0  0  0  0  0  0  0
   57.5436   28.1037   43.3403 H   0  0  0  0  0  0  0  0  0  0  0  0
   58.0206   26.6105   44.2856 H   0  0  0  0  0  0  0  0  0  0  0  0
  1  2  1  0
  2  3  1  0
  3  4  1  0
  4  5  1  0
  5  6  1  0
  6  7  1  0
  7  8  1  0
  8  9  1  0
  9 10  1  0
 10 11  1  0
  4 12  1  0
 12 13  1  0
 13 14  1  0
 14 15  1  0
 15 16  1  0
 16  4  1  0
 11  7  1  0
  1 17  1  0
  1 18  1  0
  1 19  1  0
  2 20  1  0
  2 21  1  0
  3 22  1  0
  5 23  1  0
  5 24  1  0
  6 25  1  0
  7 26  1  0
  8 27  1  0
  8 28  1  0
  9 29  1  0
  9 30  1  0
 10 31  1  0
 10 32  1  0
 11 33  1  0
 11 34  1  0
 12 35  1  0
 12 36  1  0
 13 37  1  0
 13 38  1  0
 14 39  1  0
 14 40  1  0
 15 41  1  0
 15 42  1  0
 16 43  1  0
 16 44  1  0
M  END
>  <UniqueID>  (23) 
23

>  <SMILES>  (23) 
CCNC1(CNC2CCCC2)CCCCC1

>  <Energy>  (23) 
49.36398756737094

>  <Genealogy>  (23) 
CCNC1(CNC2CCCC2)CCCCC1 (3D coordinates assigned)
CCNC1(CNC2CCCC2)CCCCC1 (nonaromatic ring conformer: 49.36398756737094 kcal/mol)

>  <smiles>  (23) 
CCNC1(CNC2CCCC2)CCCCC1

>  <score_type>  (23) 
oracle

>  <origin>  (23) 
adg

>  <m_score__min__energy>  (23) 
-6.8700000000000001

>  <m_primary>  (23) 
energy

$$$$
23:0
     RDKit          3D

 39 40  0  0  0  0  0  0  0  0999 V2000
   59.9250   27.0710   47.8260 C   0  0  0  0  0  0  0  0  0  0  0  0
   60.6290   27.1240   46.4740 C   0  0  0  0  0  0  0  0  0  0  0  0
   59.7180   27.5190   45.4660 O   0  0  0  0  0  0  0  0  0  0  0  0
   58.6840   26.5640   45.3280 C   0  0  0  0  0  0  0  0  0  0  0  0
   57.3950   27.2680   44.9090 C   0  0  0  0  0  0  0  0  0  0  0  0
   57.6510   28.6660   44.5670 N   0  0  0  0  0  0  0  0  0  0  0  0
   56.6290   29.6720   44.6140 C   0  0  0  0  0  0  0  0  0  0  0  0
   55.4320   29.3540   44.8570 O   0  0  0  0  0  0  0  0  0  0  0  0
   56.9650   31.1080   44.3640 C   0  0  0  0  0  0  0  0  0  0  0  0
   57.3460   31.7210   45.5930 O   0  0  0  0  0  0  0  0  0  0  0  0
   58.6280   31.6480   46.1610 C   0  0  0  0  0  0  0  0  0  0  0  0
   59.0950   30.4770   46.7880 C   0  0  0  0  0  0  0  0  0  0  0  0
   60.3710   30.4360   47.3480 C   0  0  0  0  0  0  0  0  0  0  0  0
   61.2060   31.5580   47.2940 C   0  0  0  0  0  0  0  0  0  0  0  0
   62.4890   31.5080   47.8600 C   0  0  0  0  0  0  0  0  0  0  0  0
   63.3240   32.6270   47.8100 C   0  0  0  0  0  0  0  0  0  0  0  0
   62.8870   33.8000   47.1970 C   0  0  0  0  0  0  0  0  0  0  0  0
   61.6110   33.8650   46.6280 C   0  0  0  0  0  0  0  0  0  0  0  0
   60.7530   32.7470   46.6650 C   0  0  0  0  0  0  0  0  0  0  0  0
   59.4570   32.7820   46.0980 C   0  0  0  0  0  0  0  0  0  0  0  0
   58.7720   34.3560   45.2220 Br  0  0  0  0  0  0  0  0  0  0  0  0
   60.6725   27.1273   48.6311 H   0  0  0  0  0  0  0  0  0  0  0  0
   59.2300   27.9194   47.9110 H   0  0  0  0  0  0  0  0  0  0  0  0
   59.3648   26.1281   47.9110 H   0  0  0  0  0  0  0  0  0  0  0  0
   61.4549   27.8489   46.5222 H   0  0  0  0  0  0  0  0  0  0  0  0
   61.0211   26.1249   46.2331 H   0  0  0  0  0  0  0  0  0  0  0  0
   58.9653   25.8269   44.5615 H   0  0  0  0  0  0  0  0  0  0  0  0
   58.5269   26.0515   46.2886 H   0  0  0  0  0  0  0  0  0  0  0  0
   56.9728   26.7545   44.0326 H   0  0  0  0  0  0  0  0  0  0  0  0
   56.6878   27.2362   45.7510 H   0  0  0  0  0  0  0  0  0  0  0  0
   58.6110   28.9280   44.2460 H   0  0  0  0  0  0  0  0  0  0  0  0
   57.7972   31.1718   43.6475 H   0  0  0  0  0  0  0  0  0  0  0  0
   56.0878   31.6260   43.9490 H   0  0  0  0  0  0  0  0  0  0  0  0
   58.4485   29.5883   46.8363 H   0  0  0  0  0  0  0  0  0  0  0  0
   60.7241   29.5154   47.8357 H   0  0  0  0  0  0  0  0  0  0  0  0
   62.8386   30.5845   48.3448 H   0  0  0  0  0  0  0  0  0  0  0  0
   64.3288   32.5822   48.2555 H   0  0  0  0  0  0  0  0  0  0  0  0
   63.5484   34.6782   47.1606 H   0  0  0  0  0  0  0  0  0  0  0  0
   61.2743   34.7957   46.1479 H   0  0  0  0  0  0  0  0  0  0  0  0
  1  2  1  0
  2  3  1  0
  3  4  1  0
  4  5  1  0
  5  6  1  0
  6  7  1  0
  7  8  2  0
  7  9  1  0
  9 10  1  0
 10 11  1  0
 11 12  2  0
 12 13  1  0
 13 14  2  0
 14 15  1  0
 15 16  2  0
 16 17  1  0
 17 18  2  0
 18 19  1  0
 19 20  2  0
 20 21  1  0
 20 11  1  0
 19 14  1  0
  1 22  1  0
  1 23  1  0
  1 24  1  0
  2 25  1  0
  2 26  1  0
  4 27  1  0
  4 28  1  0
  5 29  1  0
  5 30  1  0
  6 31  1  0
  9 32  1  0
  9 33  1  0
 12 34  1  0
 13 35  1  0
 15 36  1  0
 16 37  1  0
 17 38  1  0
 18 39  1  0
M  END
>  <UniqueID>  (24) 
24

>  <SMILES>  (24) 
CCOCCNC(=O)COc1ccc2ccccc2c1Br

>  <Energy>  (24) 
38.13006821142471

>  <Genealogy>  (24) 
CCOCCNC(=O)COc1ccc2ccccc2c1Br (3D coordinates assigned)
CCOCCNC(=O)COc1ccc2ccccc2c1Br (optimized conformer: 38.13006821142471 kcal/mol)

>  <smiles>  (24) 
CCOCCNC(=O)COc1ccc2ccccc2c1Br

>  <score_type>  (24) 
oracle

>  <origin>  (24) 
adg

>  <m_score__min__energy>  (24) 
-7.3499999999999996

>  <m_primary>  (24) 
energy

$$$$
24:0
     RDKit          3D

 38 39  0  0  0  0  0  0  0  0999 V2000
   62.8100   33.8090   47.8280 C   0  0  0  0  0  0  0  0  0  0  0  0
   61.9460   32.9020   46.9520 C   0  0  0  0  0  0  0  0  0  0  0  0
   60.5090   32.8140   47.4180 C   0  0  0  0  0  0  0  0  0  0  0  0
   60.2340   32.1500   48.4560 O   0  0  0  0  0  0  0  0  0  0  0  0
   59.4480   33.4650   46.6810 N   0  0  0  0  0  0  0  0  0  0  0  0
   59.7690   34.4410   45.6310 C   0  0  0  0  0  0  0  0  0  0  0  0
   58.5080   34.8820   44.8740 C   0  0  0  0  0  0  0  0  0  0  0  0
   57.5790   33.7500   44.6470 N   0  0  0  0  0  0  0  0  0  0  0  0
   58.1500   32.6860   43.7760 C   0  0  0  0  0  0  0  0  0  0  0  0
   57.8710   31.2960   44.3020 C   0  0  0  0  0  0  0  0  0  0  0  0
   58.8160   30.6430   45.1120 C   0  0  0  0  0  0  0  0  0  0  0  0
   58.5540   29.3630   45.6100 C   0  0  0  0  0  0  0  0  0  0  0  0
   57.3510   28.7230   45.3010 C   0  0  0  0  0  0  0  0  0  0  0  0
   56.9950   26.9750   45.9830 Br  0  0  0  0  0  0  0  0  0  0  0  0
   56.4090   29.3620   44.4890 C   0  0  0  0  0  0  0  0  0  0  0  0
   56.6670   30.6420   43.9890 C   0  0  0  0  0  0  0  0  0  0  0  0
   57.0820   33.1830   45.9310 C   0  0  0  0  0  0  0  0  0  0  0  0
   58.0520   33.3410   47.1240 C   0  0  0  0  0  0  0  0  0  0  0  0
   62.6073   33.5962   48.8880 H   0  0  0  0  0  0  0  0  0  0  0  0
   63.8725   33.6223   47.6132 H   0  0  0  0  0  0  0  0  0  0  0  0
   62.5719   34.8612   47.6132 H   0  0  0  0  0  0  0  0  0  0  0  0
   61.9567   33.2952   45.9247 H   0  0  0  0  0  0  0  0  0  0  0  0
   62.3711   31.8892   47.0120 H   0  0  0  0  0  0  0  0  0  0  0  0
   60.2365   35.3232   46.0928 H   0  0  0  0  0  0  0  0  0  0  0  0
   60.4556   33.9665   44.9145 H   0  0  0  0  0  0  0  0  0  0  0  0
   57.9912   35.6544   45.4625 H   0  0  0  0  0  0  0  0  0  0  0  0
   58.8168   35.2731   43.8934 H   0  0  0  0  0  0  0  0  0  0  0  0
   56.7450   34.1410   44.1480 H   0  0  0  0  0  0  0  0  0  0  0  0
   57.7102   32.7782   42.7720 H   0  0  0  0  0  0  0  0  0  0  0  0
   59.2413   32.8222   43.7534 H   0  0  0  0  0  0  0  0  0  0  0  0
   59.7661   31.1412   45.3553 H   0  0  0  0  0  0  0  0  0  0  0  0
   59.2964   28.8589   46.2462 H   0  0  0  0  0  0  0  0  0  0  0  0
   55.4633   28.8568   44.2431 H   0  0  0  0  0  0  0  0  0  0  0  0
   55.9244   31.1394   43.3478 H   0  0  0  0  0  0  0  0  0  0  0  0
   56.1389   33.6883   46.1867 H   0  0  0  0  0  0  0  0  0  0  0  0
   56.9626   32.1017   45.7681 H   0  0  0  0  0  0  0  0  0  0  0  0
   57.7766   34.2434   47.6895 H   0  0  0  0  0  0  0  0  0  0  0  0
   57.9714   32.4409   47.7511 H   0  0  0  0  0  0  0  0  0  0  0  0
  1  2  1  0
  2  3  1  0
  3  4  2  0
  3  5  1  0
  5  6  1  0
  6  7  1  0
  7  8  1  0
  8  9  1  0
  9 10  1  0
 10 11  2  0
 11 12  1  0
 12 13  2  0
 13 14  1  0
 13 15  1  0
 15 16  2  0
  8 17  1  0
 17 18  1  0
 18  5  1  0
 16 10  1  0
  1 19  1  0
  1 20  1  0
  1 21  1  0
  2 22  1  0
  2 23  1  0
  6 24  1  0
  6 25  1  0
  7 26  1  0
  7 27  1  0
  8 28  1  0
  9 29  1  0
  9 30  1  0
 11 31  1  0
 12 32  1  0
 15 33  1  0
 16 34  1  0
 17 35  1  0
 17 36  1  0
 18 37  1  0
 18 38  1  0
M  CHG  1   8   1
M  END
>  <UniqueID>  (25) 
25

>  <SMILES>  (25) 
CCC(=O)N1CC[NH+](Cc2ccc(Br)cc2)CC1

>  <Energy>  (25) 
44.53275345853085

>  <Genealogy>  (25) 
CCC(=O)N1CC[NH+](Cc2ccc(Br)cc2)CC1 (protonated)
CCC(=O)N1CC[NH+](Cc2ccc(Br)cc2)CC1 (3D coordinates assigned)
CCC(=O)N1CC[NH+](Cc2ccc(Br)cc2)CC1 (nonaromatic ring conformer: 44.53275345853085 kcal/mol)

>  <smiles>  (25) 
CCC(=O)N1CCN(Cc2ccc(Br)cc2)CC1

>  <score_type>  (25) 
oracle

>  <origin>  (25) 
adg

>  <m_score__min__energy>  (25) 
-5.1299999999999999

>  <m_primary>  (25) 
energy

$$$$
