0:0
     RDKit          3D

 45 48  0  0  0  0  0  0  0  0999 V2000
   57.3400   30.4030   44.0870 C   0  0  0  0  0  0  0  0  0  0  0  0
   57.2590   29.6250   45.3970 C   0  0  0  0  0  0  0  0  0  0  0  0
   58.5460   28.9870   45.6990 N   0  0  0  0  0  0  0  0  0  0  0  0
   59.1410   28.0060   44.9820 C   0  0  0  0  0  0  0  0  0  0  0  0
   58.6270   27.4560   43.6860 C   0  0  0  0  0  0  0  0  0  0  0  0
   60.3040   27.5930   45.6030 C   0  0  0  0  0  0  0  0  0  0  0  0
   60.4170   28.3400   46.7570 C   0  0  0  0  0  0  0  0  0  0  0  0
   59.3250   29.1890   46.7900 C   0  0  0  0  0  0  0  0  0  0  0  0
   59.0470   30.1700   47.8970 C   0  0  0  0  0  0  0  0  0  0  0  0
   59.5330   31.5040   47.5410 N   0  0  0  0  0  0  0  0  0  0  0  0
   58.8290   32.5350   46.8310 C   0  0  0  0  0  0  0  0  0  0  0  0
   57.5970   32.4520   46.4240 N   0  0  0  0  0  0  0  0  0  0  0  0
   57.0100   33.5460   45.6420 C   0  0  0  0  0  0  0  0  0  0  0  0
   58.0390   34.1450   44.6630 C   0  0  0  0  0  0  0  0  0  0  0  0
   59.3120   34.5920   45.4050 C   0  0  0  0  0  0  0  0  0  0  0  0
   59.6880   33.5830   46.3930 N   0  0  0  0  0  0  0  0  0  0  0  0
   60.9790   33.1530   46.7990 C   0  0  0  0  0  0  0  0  0  0  0  0
   62.2020   33.7870   46.5780 C   0  0  0  0  0  0  0  0  0  0  0  0
   63.3640   33.1630   47.0620 C   0  0  0  0  0  0  0  0  0  0  0  0
   63.2830   31.9310   47.7430 C   0  0  0  0  0  0  0  0  0  0  0  0
   62.0400   31.3080   47.9490 C   0  0  0  0  0  0  0  0  0  0  0  0
   60.8950   31.9450   47.4620 C   0  0  0  0  0  0  0  0  0  0  0  0
   57.4517   31.4756   44.3039 H   0  0  0  0  0  0  0  0  0  0  0  0
   58.2067   30.0541   43.5063 H   0  0  0  0  0  0  0  0  0  0  0  0
   56.4200   30.2402   43.5063 H   0  0  0  0  0  0  0  0  0  0  0  0
   56.9978   30.3158   46.2122 H   0  0  0  0  0  0  0  0  0  0  0  0
   56.4903   28.8443   45.2990 H   0  0  0  0  0  0  0  0  0  0  0  0
   57.8889   26.6662   43.8898 H   0  0  0  0  0  0  0  0  0  0  0  0
   58.1512   28.2623   43.1085 H   0  0  0  0  0  0  0  0  0  0  0  0
   59.4636   27.0358   43.1085 H   0  0  0  0  0  0  0  0  0  0  0  0
   61.0021   26.8209   45.2473 H   0  0  0  0  0  0  0  0  0  0  0  0
   61.2198   28.2736   47.5060 H   0  0  0  0  0  0  0  0  0  0  0  0
   57.9624   30.2164   48.0743 H   0  0  0  0  0  0  0  0  0  0  0  0
   59.5685   29.8347   48.8056 H   0  0  0  0  0  0  0  0  0  0  0  0
   57.0130   31.6180   46.6450 H   0  0  0  0  0  0  0  0  0  0  0  0
   56.1535   33.1592   45.0703 H   0  0  0  0  0  0  0  0  0  0  0  0
   56.6876   34.3365   46.3357 H   0  0  0  0  0  0  0  0  0  0  0  0
   58.3073   33.3854   43.9140 H   0  0  0  0  0  0  0  0  0  0  0  0
   57.5899   35.0238   44.1772 H   0  0  0  0  0  0  0  0  0  0  0  0
   60.1312   34.7182   44.6818 H   0  0  0  0  0  0  0  0  0  0  0  0
   59.1188   35.5468   45.9158 H   0  0  0  0  0  0  0  0  0  0  0  0
   62.2548   34.7458   46.0414 H   0  0  0  0  0  0  0  0  0  0  0  0
   64.3438   33.6389   46.9086 H   0  0  0  0  0  0  0  0  0  0  0  0
   64.2008   31.4532   48.1164 H   0  0  0  0  0  0  0  0  0  0  0  0
   61.9702   30.3463   48.4785 H   0  0  0  0  0  0  0  0  0  0  0  0
  1  2  1  0
  2  3  1  0
  3  4  1  0
  4  5  1  0
  4  6  2  0
  6  7  1  0
  7  8  2  0
  8  9  1  0
  9 10  1  0
 10 11  1  0
 11 12  2  0
 12 13  1  0
 13 14  1  0
 14 15  1  0
 15 16  1  0
 16 17  1  0
 17 18  2  0
 18 19  1  0
 19 20  2  0
 20 21  1  0
 21 22  2  0
  8  3  1  0
 22 10  1  0
 16 11  1  0
 22 17  1  0
  1 23  1  0
  1 24  1  0
  1 25  1  0
  2 26  1  0
  2 27  1  0
  5 28  1  0
  5 29  1  0
  5 30  1  0
  6 31  1  0
  7 32  1  0
  9 33  1  0
  9 34  1  0
 12 35  1  0
 13 36  1  0
 13 37  1  0
 14 38  1  0
 14 39  1  0
 15 40  1  0
 15 41  1  0
 18 42  1  0
 19 43  1  0
 20 44  1  0
 21 45  1  0
M  CHG  1  12   1
M  END
>  <UniqueID>  (1) 
1

>  <SMILES>  (1) 
CCn1c(C)ccc1CN1C2=[NH+]CCCN2c2ccccc21

>  <Energy>  (1) 
102.5441083917033

>  <Genealogy>  (1) 
CCn1c(C)ccc1CN1C2=[NH+]CCCN2c2ccccc21 (protonated)
CCn1c(C)ccc1CN1C2=[NH+]CCCN2c2ccccc21 (3D coordinates assigned)
CCn1c(C)ccc1CN1C2=[NH+]CCCN2c2ccccc21 (nonaromatic ring conformer: 102.5441083917033 kcal/mol)

>  <smiles>  (1) 
CCn1c(C)ccc1CN1C2=NCCCN2c2ccccc21

>  <score_type>  (1) 
oracle

>  <origin>  (1) 
adg

>  <m_score__min__energy>  (1) 
-5.8499999999999996

>  <m_primary>  (1) 
energy

$$$$
1:0
     RDKit          3D

 32 34  0  0  0  0  0  0  0  0999 V2000
   56.3880   29.7750   43.5370 C   0  0  0  0  0  0  0  0  0  0  0  0
   56.5530   30.2460   44.8710 O   0  0  0  0  0  0  0  0  0  0  0  0
   57.4010   31.3010   45.2420 C   0  0  0  0  0  0  0  0  0  0  0  0
   57.0930   32.5900   44.7930 C   0  0  0  0  0  0  0  0  0  0  0  0
   57.9030   33.6770   45.1330 C   0  0  0  0  0  0  0  0  0  0  0  0
   59.0420   33.4840   45.9330 C   0  0  0  0  0  0  0  0  0  0  0  0
   59.8840   34.5420   46.3070 C   0  0  0  0  0  0  0  0  0  0  0  0
   59.6460   35.7250   45.9380 O   0  0  0  0  0  0  0  0  0  0  0  0
   61.0000   34.2810   47.1030 C   0  0  0  0  0  0  0  0  0  0  0  0
   61.2610   32.9610   47.5130 C   0  0  0  0  0  0  0  0  0  0  0  0
   62.4320   32.6220   48.3620 C   0  0  0  0  0  0  0  0  0  0  0  0
   63.6070   33.3870   48.2580 C   0  0  0  0  0  0  0  0  0  0  0  0
   64.7200   33.0940   49.0530 C   0  0  0  0  0  0  0  0  0  0  0  0
   64.6720   32.0410   49.9690 C   0  0  0  0  0  0  0  0  0  0  0  0
   65.7880   31.7590   50.7540 O   0  0  0  0  0  0  0  0  0  0  0  0
   63.5030   31.2790   50.0920 C   0  0  0  0  0  0  0  0  0  0  0  0
   62.3880   31.5680   49.2980 C   0  0  0  0  0  0  0  0  0  0  0  0
   60.4330   31.9850   47.1450 O   0  0  0  0  0  0  0  0  0  0  0  0
   59.3590   32.1870   46.3890 C   0  0  0  0  0  0  0  0  0  0  0  0
   58.5420   31.1040   46.0450 C   0  0  0  0  0  0  0  0  0  0  0  0
   56.0244   28.7370   43.5570 H   0  0  0  0  0  0  0  0  0  0  0  0
   55.6585   30.4090   43.0119 H   0  0  0  0  0  0  0  0  0  0  0  0
   57.3537   29.8152   43.0119 H   0  0  0  0  0  0  0  0  0  0  0  0
   56.2037   32.7495   44.1656 H   0  0  0  0  0  0  0  0  0  0  0  0
   57.6485   34.6851   44.7738 H   0  0  0  0  0  0  0  0  0  0  0  0
   61.6691   35.0995   47.4069 H   0  0  0  0  0  0  0  0  0  0  0  0
   63.6515   34.2235   47.5450 H   0  0  0  0  0  0  0  0  0  0  0  0
   65.6362   33.6951   48.9563 H   0  0  0  0  0  0  0  0  0  0  0  0
   65.7050   31.5840   51.7490 H   0  0  0  0  0  0  0  0  0  0  0  0
   63.4616   30.4510   50.8150 H   0  0  0  0  0  0  0  0  0  0  0  0
   61.4713   30.9694   49.4044 H   0  0  0  0  0  0  0  0  0  0  0  0
   58.7917   30.0944   46.4031 H   0  0  0  0  0  0  0  0  0  0  0  0
  1  2  1  0
  2  3  1  0
  3  4  2  0
  4  5  1  0
  5  6  2  0
  6  7  1  0
  7  8  2  0
  7  9  1  0
  9 10  2  0
 10 11  1  0
 11 12  2  0
 12 13  1  0
 13 14  2  0
 14 15  1  0
 14 16  1  0
 16 17  2  0
 10 18  1  0
 18 19  1  0
 19 20  2  0
 20  3  1  0
 19  6  1  0
 17 11  1  0
  1 21  1  0
  1 22  1  0
  1 23  1  0
  4 24  1  0
  5 25  1  0
  9 26  1  0
 12 27  1  0
 13 28  1  0
 15 29  1  0
 16 30  1  0
 17 31  1  0
 20 32  1  0
M  END
>  <UniqueID>  (2) 
2

>  <SMILES>  (2) 
COc1ccc2c(=O)cc(-c3ccc(O)cc3)oc2c1

>  <Energy>  (2) 
42.49000687925851

>  <Genealogy>  (2) 
COc1ccc2c(=O)cc(-c3ccc(O)cc3)oc2c1 (3D coordinates assigned)
COc1ccc2c(=O)cc(-c3ccc(O)cc3)oc2c1 (optimized conformer: 42.49000687925851 kcal/mol)

>  <smiles>  (2) 
COc1ccc2c(=O)cc(-c3ccc(O)cc3)oc2c1

>  <score_type>  (2) 
oracle

>  <origin>  (2) 
adg

>  <m_score__min__energy>  (2) 
-6.7400000000000002

>  <m_primary>  (2) 
energy

$$$$
2:0
     RDKit          3D

 50 53  0  0  1  0  0  0  0  0999 V2000
   56.9040   34.5580   44.8860 C   0  0  0  0  0  0  0  0  0  0  0  0
   58.2850   34.4710   45.3310 N   0  0  0  0  0  0  0  0  0  0  0  0
   59.3170   35.3850   44.9140 C   0  0  0  0  0  0  0  0  0  0  0  0
   58.5870   33.3990   46.2380 C   0  0  0  0  0  0  0  0  0  0  0  0
   59.2210   33.6870   47.4330 C   0  0  0  0  0  0  0  0  0  0  0  0
   59.5030   32.6310   48.2920 C   0  0  0  0  0  0  0  0  0  0  0  0
   59.1560   31.3300   47.9580 C   0  0  0  0  0  0  0  0  0  0  0  0
   58.5150   31.0680   46.7420 C   0  0  0  0  0  0  0  0  0  0  0  0
   58.1950   29.6660   46.4880 C   0  0  0  0  0  0  0  0  0  0  0  0
   58.8420   28.6670   47.1880 C   0  0  0  0  0  0  0  0  0  0  0  0
   58.5360   27.3810   46.9430 N   0  0  0  0  0  0  0  0  0  0  0  0
   57.6140   26.9850   46.0360 C   0  0  0  0  0  0  0  0  0  0  0  0
   57.3310   25.6070   45.8190 N   0  0  0  0  0  0  0  0  0  0  0  0
   57.0340   25.0140   44.5590 C   0  0  0  0  0  0  0  0  0  0  0  0
   55.7620   24.1760   44.7340 C   0  0  0  0  0  0  0  0  0  0  0  0
   55.1200   24.5040   45.9920 N   0  0  0  0  0  0  0  0  0  0  0  0
   53.9730   23.6380   46.1680 C   0  0  0  0  0  0  0  0  0  0  0  0
   54.4520   22.3990   46.8940 C   0  0  0  0  0  0  0  0  0  0  0  0
   55.9160   22.6800   47.1570 C   0  0  0  0  0  0  0  0  0  0  0  0
   55.9380   24.1860   47.1280 C   0  0  1  0  0  0  0  0  0  0  0  0
   57.3470   24.7240   46.9910 C   0  0  0  0  0  0  0  0  0  0  0  0
   56.9880   27.9620   45.3590 N   0  0  0  0  0  0  0  0  0  0  0  0
   57.2500   29.2780   45.5580 C   0  0  0  0  0  0  0  0  0  0  0  0
   56.6400   30.1590   44.9020 O   0  0  0  0  0  0  0  0  0  0  0  0
   58.2340   32.0920   45.8930 C   0  0  0  0  0  0  0  0  0  0  0  0
   56.2388   34.5999   45.7610 H   0  0  0  0  0  0  0  0  0  0  0  0
   56.7705   35.4663   44.2801 H   0  0  0  0  0  0  0  0  0  0  0  0
   56.6576   33.6736   44.2801 H   0  0  0  0  0  0  0  0  0  0  0  0
   59.8045   35.8168   45.8005 H   0  0  0  0  0  0  0  0  0  0  0  0
   60.0628   34.8458   44.3115 H   0  0  0  0  0  0  0  0  0  0  0  0
   58.8719   36.1905   44.3115 H   0  0  0  0  0  0  0  0  0  0  0  0
   59.4937   34.7198   47.6956 H   0  0  0  0  0  0  0  0  0  0  0  0
   60.0078   32.8296   49.2489 H   0  0  0  0  0  0  0  0  0  0  0  0
   59.3846   30.5049   48.6486 H   0  0  0  0  0  0  0  0  0  0  0  0
   59.6025   28.9216   47.9409 H   0  0  0  0  0  0  0  0  0  0  0  0
   56.8672   25.7973   43.8050 H   0  0  0  0  0  0  0  0  0  0  0  0
   57.8698   24.3844   44.2198 H   0  0  0  0  0  0  0  0  0  0  0  0
   55.0697   24.3878   43.9058 H   0  0  0  0  0  0  0  0  0  0  0  0
   56.0301   23.1092   44.7333 H   0  0  0  0  0  0  0  0  0  0  0  0
   53.2030   24.1496   46.7641 H   0  0  0  0  0  0  0  0  0  0  0  0
   53.5316   23.3736   45.1957 H   0  0  0  0  0  0  0  0  0  0  0  0
   53.9036   22.2607   47.8375 H   0  0  0  0  0  0  0  0  0  0  0  0
   54.2924   21.4774   46.3150 H   0  0  0  0  0  0  0  0  0  0  0  0
   56.2308   22.2916   48.1368 H   0  0  0  0  0  0  0  0  0  0  0  0
   56.6015   22.2058   46.4392 H   0  0  0  0  0  0  0  0  0  0  0  0
   55.5653   24.6416   48.0572 H   0  0  0  0  0  0  0  0  0  0  0  0
   57.6295   25.2892   47.8914 H   0  0  0  0  0  0  0  0  0  0  0  0
   58.0788   23.9112   46.8730 H   0  0  0  0  0  0  0  0  0  0  0  0
   56.2650   27.7540   44.6420 H   0  0  0  0  0  0  0  0  0  0  0  0
   57.7296   31.8918   44.9362 H   0  0  0  0  0  0  0  0  0  0  0  0
  1  2  1  0
  2  3  1  0
  2  4  1  0
  4  5  2  0
  5  6  1  0
  6  7  2  0
  7  8  1  0
  8  9  1  0
  9 10  2  0
 10 11  1  0
 11 12  2  0
 12 13  1  0
 13 14  1  0
 14 15  1  0
 15 16  1  0
 16 17  1  0
 17 18  1  0
 18 19  1  0
 19 20  1  0
 20 21  1  0
 12 22  1  0
 22 23  1  0
 23 24  2  0
  8 25  2  0
 25  4  1  0
 23  9  1  0
 21 13  1  0
 20 16  1  0
  1 26  1  0
  1 27  1  0
  1 28  1  0
  3 29  1  0
  3 30  1  0
  3 31  1  0
  5 32  1  0
  6 33  1  0
  7 34  1  0
 10 35  1  0
 14 36  1  0
 14 37  1  0
 15 38  1  0
 15 39  1  0
 17 40  1  0
 17 41  1  0
 18 42  1  0
 18 43  1  0
 19 44  1  0
 19 45  1  0
 20 46  1  1
 21 47  1  0
 21 48  1  0
 22 49  1  0
 25 50  1  0
M  END
>  <smiles>  (3) 
CN(C)c1cccc(-c2cnc(N3CCN4CCCC4C3)[nH]c2=O)c1

>  <score_type>  (3) 
oracle

>  <origin>  (3) 
adg

>  <m_score__min__energy>  (3) 
-8.4199999999999999

>  <m_primary>  (3) 
energy

$$$$
3:0
     RDKit          3D

 38 39  0  0  0  0  0  0  0  0999 V2000
   55.6170   25.3300   45.6580 C   0  0  0  0  0  0  0  0  0  0  0  0
   55.5020   26.7250   46.0640 N   0  0  0  0  0  0  0  0  0  0  0  0
   56.2860   27.8100   45.5450 C   0  0  0  0  0  0  0  0  0  0  0  0
   55.6940   28.7550   44.9640 O   0  0  0  0  0  0  0  0  0  0  0  0
   57.7620   27.8460   45.6390 C   0  0  0  0  0  0  0  0  0  0  0  0
   58.5460   26.7960   45.4720 C   0  0  0  0  0  0  0  0  0  0  0  0
   59.9590   27.1260   45.8120 C   0  0  0  0  0  0  0  0  0  0  0  0
   59.8920   28.5890   46.2740 C   0  0  0  0  0  0  0  0  0  0  0  0
   58.4910   28.9660   46.1280 N   0  0  0  0  0  0  0  0  0  0  0  0
   58.0210   30.3270   46.1070 C   0  0  0  0  0  0  0  0  0  0  0  0
   57.1760   30.6730   45.2380 O   0  0  0  0  0  0  0  0  0  0  0  0
   58.5100   31.3160   47.0980 C   0  0  0  0  0  0  0  0  0  0  0  0
   58.6910   30.9480   48.2900 O   0  0  0  0  0  0  0  0  0  0  0  0
   58.7710   32.7660   46.7480 C   0  0  0  0  0  0  0  0  0  0  0  0
   60.0500   33.3080   47.4390 C   0  0  0  0  0  0  0  0  0  0  0  0
   60.6770   34.5080   46.7000 C   0  0  0  0  0  0  0  0  0  0  0  0
   59.6240   35.3360   45.9540 C   0  0  0  0  0  0  0  0  0  0  0  0
   58.8800   34.5030   44.8900 C   0  0  0  0  0  0  0  0  0  0  0  0
   58.8060   32.9990   45.2270 C   0  0  0  0  0  0  0  0  0  0  0  0
   55.6697   24.6911   46.5519 H   0  0  0  0  0  0  0  0  0  0  0  0
   54.7390   25.0492   45.0578 H   0  0  0  0  0  0  0  0  0  0  0  0
   56.5292   25.1968   45.0578 H   0  0  0  0  0  0  0  0  0  0  0  0
   58.2018   25.8096   45.1279 H   0  0  0  0  0  0  0  0  0  0  0  0
   60.3299   26.4768   46.6188 H   0  0  0  0  0  0  0  0  0  0  0  0
   60.6461   26.9780   44.9658 H   0  0  0  0  0  0  0  0  0  0  0  0
   60.2092   28.6781   47.3235 H   0  0  0  0  0  0  0  0  0  0  0  0
   60.5584   29.2388   45.6878 H   0  0  0  0  0  0  0  0  0  0  0  0
   57.9202   33.3420   47.1410 H   0  0  0  0  0  0  0  0  0  0  0  0
   59.7889   33.6236   48.4599 H   0  0  0  0  0  0  0  0  0  0  0  0
   60.7929   32.4968   47.4349 H   0  0  0  0  0  0  0  0  0  0  0  0
   61.1815   35.1532   47.4342 H   0  0  0  0  0  0  0  0  0  0  0  0
   61.3895   34.1166   45.9589 H   0  0  0  0  0  0  0  0  0  0  0  0
   58.8923   35.7180   46.6812 H   0  0  0  0  0  0  0  0  0  0  0  0
   60.1415   36.1592   45.4397 H   0  0  0  0  0  0  0  0  0  0  0  0
   57.8545   34.8903   44.7991 H   0  0  0  0  0  0  0  0  0  0  0  0
   59.4461   34.5969   43.9515 H   0  0  0  0  0  0  0  0  0  0  0  0
   57.8947   32.5761   44.7790 H   0  0  0  0  0  0  0  0  0  0  0  0
   59.7035   32.5086   44.8219 H   0  0  0  0  0  0  0  0  0  0  0  0
  1  2  1  0
  2  3  1  0
  3  4  2  0
  3  5  1  0
  5  6  2  0
  6  7  1  0
  7  8  1  0
  8  9  1  0
  9 10  1  0
 10 11  2  0
 10 12  1  0
 12 13  2  0
 12 14  1  0
 14 15  1  0
 15 16  1  0
 16 17  1  0
 17 18  1  0
 18 19  1  0
  9  5  1  0
 19 14  1  0
  1 20  1  0
  1 21  1  0
  1 22  1  0
  6 23  1  0
  7 24  1  0
  7 25  1  0
  8 26  1  0
  8 27  1  0
 14 28  1  0
 15 29  1  0
 15 30  1  0
 16 31  1  0
 16 32  1  0
 17 33  1  0
 17 34  1  0
 18 35  1  0
 18 36  1  0
 19 37  1  0
 19 38  1  0
M  CHG  1   2  -1
M  END
>  <UniqueID>  (4) 
3

>  <SMILES>  (4) 
C[N-]C(=O)C1=CCCN1C(=O)C(=O)C1CCCCC1

>  <Energy>  (4) 
53.77207183935125

>  <Genealogy>  (4) 
C[N-]C(=O)C1=CCCN1C(=O)C(=O)C1CCCCC1 (protonated)
C[N-]C(=O)C1=CCCN1C(=O)C(=O)C1CCCCC1 (3D coordinates assigned)
C[N-]C(=O)C1=CCCN1C(=O)C(=O)C1CCCCC1 (nonaromatic ring conformer: 53.77207183935125 kcal/mol)

>  <smiles>  (4) 
CNC(=O)C1=CCCN1C(=O)C(=O)C1CCCCC1

>  <score_type>  (4) 
oracle

>  <origin>  (4) 
adg

>  <m_score__min__energy>  (4) 
-9.4199999999999999

>  <m_primary>  (4) 
energy

$$$$
4:0
     RDKit          3D

 46 48  0  0  0  0  0  0  0  0999 V2000
   55.5710   29.7630   43.5650 C   0  0  0  0  0  0  0  0  0  0  0  0
   56.1250   29.7100   44.8760 O   0  0  0  0  0  0  0  0  0  0  0  0
   57.4940   29.5780   45.1550 C   0  0  0  0  0  0  0  0  0  0  0  0
   58.1830   28.4960   44.5970 C   0  0  0  0  0  0  0  0  0  0  0  0
   59.5480   28.3270   44.8350 C   0  0  0  0  0  0  0  0  0  0  0  0
   60.2380   29.2360   45.6390 C   0  0  0  0  0  0  0  0  0  0  0  0
   59.5650   30.3240   46.2230 C   0  0  0  0  0  0  0  0  0  0  0  0
   60.3070   31.2850   47.0710 C   0  0  0  0  0  0  0  0  0  0  0  0
   61.4950   31.5870   46.7710 O   0  0  0  0  0  0  0  0  0  0  0  0
   59.6990   31.8690   48.2340 N   0  0  0  0  0  0  0  0  0  0  0  0
   60.2900   33.0240   48.9200 C   0  0  2  0  0  0  0  0  0  0  0  0
   60.0230   34.3300   48.1440 C   0  0  0  0  0  0  0  0  0  0  0  0
   59.1750   34.0830   46.9220 C   0  0  0  0  0  0  0  0  0  0  0  0
   57.8100   33.7770   47.0500 C   0  0  0  0  0  0  0  0  0  0  0  0
   57.0230   33.5740   45.9110 C   0  0  0  0  0  0  0  0  0  0  0  0
   57.5920   33.6780   44.6390 C   0  0  0  0  0  0  0  0  0  0  0  0
   58.9490   33.9860   44.5030 C   0  0  0  0  0  0  0  0  0  0  0  0
   59.7380   34.1890   45.6390 C   0  0  0  0  0  0  0  0  0  0  0  0
   61.7810   32.8180   49.0850 C   0  0  0  0  0  0  0  0  0  0  0  0
   62.6890   33.6420   48.3980 C   0  0  0  0  0  0  0  0  0  0  0  0
   64.0660   33.4430   48.5360 C   0  0  0  0  0  0  0  0  0  0  0  0
   64.5480   32.4180   49.3540 C   0  0  0  0  0  0  0  0  0  0  0  0
   63.6540   31.5880   50.0340 C   0  0  0  0  0  0  0  0  0  0  0  0
   62.2760   31.7820   49.8980 C   0  0  0  0  0  0  0  0  0  0  0  0
   58.1920   30.4940   45.9670 C   0  0  0  0  0  0  0  0  0  0  0  0
   54.4781   29.8676   43.6327 H   0  0  0  0  0  0  0  0  0  0  0  0
   55.9891   30.6253   43.0249 H   0  0  0  0  0  0  0  0  0  0  0  0
   55.8180   28.8371   43.0249 H   0  0  0  0  0  0  0  0  0  0  0  0
   57.6452   27.7731   43.9660 H   0  0  0  0  0  0  0  0  0  0  0  0
   60.0814   27.4752   44.3878 H   0  0  0  0  0  0  0  0  0  0  0  0
   61.3150   29.1004   45.8169 H   0  0  0  0  0  0  0  0  0  0  0  0
   58.8060   31.4650   48.5940 H   0  0  0  0  0  0  0  0  0  0  0  0
   59.8199   33.1118   49.9106 H   0  0  0  0  0  0  0  0  0  0  0  0
   59.5007   35.0378   48.8044 H   0  0  0  0  0  0  0  0  0  0  0  0
   60.9895   34.7405   47.8163 H   0  0  0  0  0  0  0  0  0  0  0  0
   57.3580   33.6966   48.0496 H   0  0  0  0  0  0  0  0  0  0  0  0
   55.9551   33.3323   46.0170 H   0  0  0  0  0  0  0  0  0  0  0  0
   56.9722   33.5175   43.7445 H   0  0  0  0  0  0  0  0  0  0  0  0
   59.3961   34.0686   43.5014 H   0  0  0  0  0  0  0  0  0  0  0  0
   60.8048   34.4329   45.5279 H   0  0  0  0  0  0  0  0  0  0  0  0
   62.3145   34.4472   47.7488 H   0  0  0  0  0  0  0  0  0  0  0  0
   64.7713   34.0947   47.9995 H   0  0  0  0  0  0  0  0  0  0  0  0
   65.6318   32.2647   49.4625 H   0  0  0  0  0  0  0  0  0  0  0  0
   64.0344   30.7808   50.6772 H   0  0  0  0  0  0  0  0  0  0  0  0
   61.5753   31.1212   50.4294 H   0  0  0  0  0  0  0  0  0  0  0  0
   57.6582   31.3503   46.4050 H   0  0  0  0  0  0  0  0  0  0  0  0
  1  2  1  0
  2  3  1  0
  3  4  2  0
  4  5  1  0
  5  6  2  0
  6  7  1  0
  7  8  1  0
  8  9  2  0
  8 10  1  0
 10 11  1  0
 11 12  1  0
 12 13  1  0
 13 14  2  0
 14 15  1  0
 15 16  2  0
 16 17  1  0
 17 18  2  0
 11 19  1  0
 19 20  2  0
 20 21  1  0
 21 22  2  0
 22 23  1  0
 23 24  2  0
  7 25  2  0
 25  3  1  0
 18 13  1  0
 24 19  1  0
  1 26  1  0
  1 27  1  0
  1 28  1  0
  4 29  1  0
  5 30  1  0
  6 31  1  0
 10 32  1  0
 11 33  1  1
 12 34  1  0
 12 35  1  0
 14 36  1  0
 15 37  1  0
 16 38  1  0
 17 39  1  0
 18 40  1  0
 20 41  1  0
 21 42  1  0
 22 43  1  0
 23 44  1  0
 24 45  1  0
 25 46  1  0
M  END
>  <UniqueID>  (5) 
4

>  <SMILES>  (5) 
COc1cccc(C(=O)N[C@H](Cc2ccccc2)c2ccccc2)c1

>  <Energy>  (5) 
46.56676493791256

>  <Genealogy>  (5) 
COc1cccc(C(=O)N[C@H](Cc2ccccc2)c2ccccc2)c1 (chirality)
COc1cccc(C(=O)N[C@H](Cc2ccccc2)c2ccccc2)c1 (3D coordinates assigned)
COc1cccc(C(=O)N[C@H](Cc2ccccc2)c2ccccc2)c1 (optimized conformer: 46.56676493791256 kcal/mol)

>  <smiles>  (5) 
COc1cccc(C(=O)NC(Cc2ccccc2)c2ccccc2)c1

>  <score_type>  (5) 
oracle

>  <origin>  (5) 
adg

>  <m_score__min__energy>  (5) 
-8.1300000000000008

>  <m_primary>  (5) 
energy

$$$$
5:0
     RDKit          3D

 32 33  0  0  0  0  0  0  0  0999 V2000
   59.0690   27.1054   47.0732 H   0  0  0  0  0  0  0  0  0  0  0  0
   58.6420   27.6100   46.1940 C   0  0  0  0  0  0  0  0  0  0  0  0
   57.6310   28.4470   46.2200 O   0  0  0  0  0  0  0  0  0  0  0  0
   57.3950   28.8570   44.9940 C   0  0  0  0  0  0  0  0  0  0  0  0
   56.3280   29.8060   44.6310 C   0  0  0  0  0  0  0  0  0  0  0  0
   55.1460   29.3920   44.4950 O   0  0  0  0  0  0  0  0  0  0  0  0
   56.5880   31.2130   44.5310 N   0  0  0  0  0  0  0  0  0  0  0  0
   57.4440   31.9070   45.2300 C   0  0  0  0  0  0  0  0  0  0  0  0
   57.8700   33.1370   44.7250 C   0  0  0  0  0  0  0  0  0  0  0  0
   57.4828   33.4990   43.7611 H   0  0  0  0  0  0  0  0  0  0  0  0
   58.7880   33.9090   45.4430 C   0  0  0  0  0  0  0  0  0  0  0  0
   59.2600   35.2240   44.8870 C   0  0  0  0  0  0  0  0  0  0  0  0
   59.5046   35.9056   45.7150 H   0  0  0  0  0  0  0  0  0  0  0  0
   60.1557   35.0608   44.2696 H   0  0  0  0  0  0  0  0  0  0  0  0
   58.4650   35.6676   44.2696 H   0  0  0  0  0  0  0  0  0  0  0  0
   59.3090   33.4250   46.6550 C   0  0  0  0  0  0  0  0  0  0  0  0
   60.2680   34.2050   47.3230 O   0  0  0  0  0  0  0  0  0  0  0  0
   61.6380   33.8410   47.4660 C   0  0  0  0  0  0  0  0  0  0  0  0
   61.8900   33.7741   48.5347 H   0  0  0  0  0  0  0  0  0  0  0  0
   61.8103   32.8659   46.9869 H   0  0  0  0  0  0  0  0  0  0  0  0
   62.2715   34.6020   46.9869 H   0  0  0  0  0  0  0  0  0  0  0  0
   58.8390   32.1860   47.1540 C   0  0  0  0  0  0  0  0  0  0  0  0
   59.2760   31.6580   48.4920 C   0  0  0  0  0  0  0  0  0  0  0  0
   58.7941   32.2403   49.2912 H   0  0  0  0  0  0  0  0  0  0  0  0
   58.9849   30.6010   48.5819 H   0  0  0  0  0  0  0  0  0  0  0  0
   60.3688   31.7463   48.5819 H   0  0  0  0  0  0  0  0  0  0  0  0
   57.9520   31.4530   46.4170 N   0  0  0  0  0  0  0  0  0  0  0  0
   57.6800   30.5110   46.7740 H   0  0  0  0  0  0  0  0  0  0  0  0
   58.2820   28.2610   44.1190 C   0  0  0  0  0  0  0  0  0  0  0  0
   58.3340   28.3980   43.0288 H   0  0  0  0  0  0  0  0  0  0  0  0
   59.0880   27.4590   44.8970 C   0  0  0  0  0  0  0  0  0  0  0  0
   59.9194   26.8260   44.5535 H   0  0  0  0  0  0  0  0  0  0  0  0
  1  2  1  0
  2  3  1  0
  3  4  1  0
  4  5  1  0
  5  6  2  0
  5  7  1  0
  7  8  2  0
  8  9  1  0
  9 10  1  0
  9 11  2  0
 11 12  1  0
 12 13  1  0
 12 14  1  0
 12 15  1  0
 11 16  1  0
 16 17  1  0
 17 18  1  0
 18 19  1  0
 18 20  1  0
 18 21  1  0
 16 22  2  0
 22 23  1  0
 23 24  1  0
 23 25  1  0
 23 26  1  0
 22 27  1  0
 27 28  1  0
  4 29  2  0
 29 30  1  0
 29 31  1  0
 31 32  1  0
 31  2  2  0
 27  8  1  0
M  END
>  <UniqueID>  (6) 
5

>  <SMILES>  (6) 
COc1c(C)c/c(=N/C(=O)c2ccco2)[nH]c1C

>  <Energy>  (6) 
71.84734449853337

>  <Genealogy>  (6) 
COc1c(C)c/c(=N/C(=O)c2ccco2)[nH]c1C (cis-trans isomerization)
COc1c(C)c/c(=N/C(=O)c2ccco2)[nH]c1C (3D coordinates assigned)
COc1c(C)c/c(=N/C(=O)c2ccco2)[nH]c1C (optimized conformer: 71.84734449853337 kcal/mol)

>  <smiles>  (6) 
COc1c(C)cc(=NC(=O)c2ccco2)[nH]c1C

>  <score_type>  (6) 
oracle

>  <origin>  (6) 
adg

>  <m_score__min__energy>  (6) 
-5.8600000000000003

>  <m_primary>  (6) 
energy

$$$$
6:0
     RDKit          3D

 33 34  0  0  0  0  0  0  0  0999 V2000
   59.4080   27.8570   48.2200 C   0  0  0  0  0  0  0  0  0  0  0  0
   58.1510   28.4200   47.5590 C   0  0  0  0  0  0  0  0  0  0  0  0
   58.1510   28.1530   46.1140 N   0  0  0  0  0  0  0  0  0  0  0  0
   57.4250   27.2380   45.4320 C   0  0  0  0  0  0  0  0  0  0  0  0
   56.5150   26.2850   45.9980 N   0  0  0  0  0  0  0  0  0  0  0  0
   56.9050   25.1510   46.3440 O   0  0  0  0  0  0  0  0  0  0  0  0
   55.1650   26.5480   45.9910 O   0  0  0  0  0  0  0  0  0  0  0  0
   57.7640   27.2970   44.1000 C   0  0  0  0  0  0  0  0  0  0  0  0
   58.7270   28.2220   43.9310 N   0  0  0  0  0  0  0  0  0  0  0  0
   58.9260   28.7380   45.1630 C   0  0  0  0  0  0  0  0  0  0  0  0
   60.0060   29.7070   45.4240 C   0  0  0  0  0  0  0  0  0  0  0  0
   59.9460   30.6940   46.3290 C   0  0  0  0  0  0  0  0  0  0  0  0
   59.5520   32.0890   46.0340 C   0  0  0  0  0  0  0  0  0  0  0  0
   60.3510   33.1140   46.5650 C   0  0  0  0  0  0  0  0  0  0  0  0
   60.0190   34.4540   46.3580 C   0  0  0  0  0  0  0  0  0  0  0  0
   58.8920   34.7860   45.6090 C   0  0  0  0  0  0  0  0  0  0  0  0
   58.1070   33.7800   45.0430 C   0  0  0  0  0  0  0  0  0  0  0  0
   58.4370   32.4240   45.2220 C   0  0  0  0  0  0  0  0  0  0  0  0
   57.6790   31.4200   44.5230 N   0  0  0  0  0  0  0  0  0  0  0  0
   58.0150   31.0650   43.3740 O   0  0  0  0  0  0  0  0  0  0  0  0
   56.6900   30.7170   45.1720 O   0  0  0  0  0  0  0  0  0  0  0  0
   59.3002   27.9053   49.3136 H   0  0  0  0  0  0  0  0  0  0  0  0
   59.5473   26.8105   47.9112 H   0  0  0  0  0  0  0  0  0  0  0  0
   60.2816   28.4498   47.9112 H   0  0  0  0  0  0  0  0  0  0  0  0
   57.2654   27.9501   48.0116 H   0  0  0  0  0  0  0  0  0  0  0  0
   58.1313   29.5088   47.7141 H   0  0  0  0  0  0  0  0  0  0  0  0
   57.3191   26.6859   43.3008 H   0  0  0  0  0  0  0  0  0  0  0  0
   60.9288   29.6132   44.8327 H   0  0  0  0  0  0  0  0  0  0  0  0
   60.2093   30.4483   47.3684 H   0  0  0  0  0  0  0  0  0  0  0  0
   61.2471   32.8588   47.1497 H   0  0  0  0  0  0  0  0  0  0  0  0
   60.6476   35.2485   46.7866 H   0  0  0  0  0  0  0  0  0  0  0  0
   58.6205   35.8420   45.4635 H   0  0  0  0  0  0  0  0  0  0  0  0
   57.2206   34.0504   44.4505 H   0  0  0  0  0  0  0  0  0  0  0  0
  1  2  1  0
  2  3  1  0
  3  4  1  0
  4  5  1  0
  5  6  2  0
  5  7  1  0
  4  8  2  0
  8  9  1  0
  9 10  2  0
 10 11  1  0
 11 12  2  3
 12 13  1  0
 13 14  2  0
 14 15  1  0
 15 16  2  0
 16 17  1  0
 17 18  2  0
 18 19  1  0
 19 20  2  0
 19 21  1  0
 10  3  1  0
 18 13  1  0
  1 22  1  0
  1 23  1  0
  1 24  1  0
  2 25  1  0
  2 26  1  0
  8 27  1  0
 11 28  1  0
 12 29  1  0
 14 30  1  0
 15 31  1  0
 16 32  1  0
 17 33  1  0
M  CHG  4   5   1   7  -1  19   1  21  -1
M  END
>  <UniqueID>  (7) 
6

>  <SMILES>  (7) 
CCn1c([N+](=O)[O-])cnc1C=Cc1ccccc1[N+](=O)[O-]

>  <Energy>  (7) 
79.84951229932709

>  <Genealogy>  (7) 
CCn1c([N+](=O)[O-])cnc1C=Cc1ccccc1[N+](=O)[O-] (3D coordinates assigned)
CCn1c([N+](=O)[O-])cnc1C=Cc1ccccc1[N+](=O)[O-] (optimized conformer: 79.84951229932709 kcal/mol)

>  <smiles>  (7) 
CCn1c([N+](=O)[O-])cnc1C=Cc1ccccc1[N+](=O)[O-]

>  <score_type>  (7) 
oracle

>  <origin>  (7) 
adg

>  <m_score__min__energy>  (7) 
-7.8700000000000001

>  <m_primary>  (7) 
energy

$$$$
7:0
     RDKit          3D

 43 46  0  0  0  0  0  0  0  0999 V2000
   65.0320   32.0900   50.1570 C   0  0  0  0  0  0  0  0  0  0  0  0
   63.8730   31.6390   49.4650 O   0  0  0  0  0  0  0  0  0  0  0  0
   62.9900   32.4770   48.7680 C   0  0  0  0  0  0  0  0  0  0  0  0
   61.9480   33.0850   49.4790 C   0  0  0  0  0  0  0  0  0  0  0  0
   61.0410   33.9270   48.8280 C   0  0  0  0  0  0  0  0  0  0  0  0
   61.1670   34.1660   47.4560 C   0  0  0  0  0  0  0  0  0  0  0  0
   59.9960   35.2310   46.6160 S   0  0  0  0  0  0  0  0  0  0  0  0
   59.0460   33.8410   46.0090 C   0  0  0  0  0  0  0  0  0  0  0  0
   58.1340   34.0030   44.9470 C   0  0  0  0  0  0  0  0  0  0  0  0
   57.3950   32.9020   44.4910 C   0  0  0  0  0  0  0  0  0  0  0  0
   57.5980   31.6860   45.1340 C   0  0  0  0  0  0  0  0  0  0  0  0
   57.0080   30.5110   44.8340 N   0  0  0  0  0  0  0  0  0  0  0  0
   57.5540   29.6480   45.7300 C   0  0  0  0  0  0  0  0  0  0  0  0
   58.4530   30.3160   46.5550 C   0  0  0  0  0  0  0  0  0  0  0  0
   59.2470   29.7360   47.6630 C   0  0  0  0  0  0  0  0  0  0  0  0
   59.6650   28.3940   47.6260 C   0  0  0  0  0  0  0  0  0  0  0  0
   60.4190   27.8570   48.6730 C   0  0  0  0  0  0  0  0  0  0  0  0
   60.7740   28.6550   49.7760 C   0  0  0  0  0  0  0  0  0  0  0  0
   61.5270   28.1620   50.8520 O   0  0  0  0  0  0  0  0  0  0  0  0
   62.4230   28.9460   51.6310 C   0  0  0  0  0  0  0  0  0  0  0  0
   60.3670   29.9930   49.8060 C   0  0  0  0  0  0  0  0  0  0  0  0
   59.6140   30.5320   48.7590 C   0  0  0  0  0  0  0  0  0  0  0  0
   58.4620   31.5960   46.1510 N   0  0  0  0  0  0  0  0  0  0  0  0
   59.1950   32.6160   46.5910 N   0  0  0  0  0  0  0  0  0  0  0  0
   62.2070   33.5660   46.7360 C   0  0  0  0  0  0  0  0  0  0  0  0
   63.1150   32.7230   47.3860 C   0  0  0  0  0  0  0  0  0  0  0  0
   64.8607   32.0233   51.2415 H   0  0  0  0  0  0  0  0  0  0  0  0
   65.8913   31.4606   49.8822 H   0  0  0  0  0  0  0  0  0  0  0  0
   65.2399   33.1346   49.8822 H   0  0  0  0  0  0  0  0  0  0  0  0
   61.8421   32.8988   50.5579 H   0  0  0  0  0  0  0  0  0  0  0  0
   60.2274   34.4019   49.3959 H   0  0  0  0  0  0  0  0  0  0  0  0
   58.0024   34.9891   44.4777 H   0  0  0  0  0  0  0  0  0  0  0  0
   56.6831   32.9965   43.6578 H   0  0  0  0  0  0  0  0  0  0  0  0
   57.3190   28.5753   45.7939 H   0  0  0  0  0  0  0  0  0  0  0  0
   59.3965   27.7621   46.7666 H   0  0  0  0  0  0  0  0  0  0  0  0
   60.7367   26.8046   48.6345 H   0  0  0  0  0  0  0  0  0  0  0  0
   62.2266   28.7741   52.6996 H   0  0  0  0  0  0  0  0  0  0  0  0
   63.4590   28.6591   51.3978 H   0  0  0  0  0  0  0  0  0  0  0  0
   62.2761   30.0109   51.3978 H   0  0  0  0  0  0  0  0  0  0  0  0
   60.6422   30.6270   50.6617 H   0  0  0  0  0  0  0  0  0  0  0  0
   59.3069   31.5877   48.7944 H   0  0  0  0  0  0  0  0  0  0  0  0
   62.3104   33.7576   45.6578 H   0  0  0  0  0  0  0  0  0  0  0  0
   63.9290   32.2507   46.8165 H   0  0  0  0  0  0  0  0  0  0  0  0
  1  2  1  0
  2  3  1  0
  3  4  2  0
  4  5  1  0
  5  6  2  0
  6  7  1  0
  7  8  1  0
  8  9  1  0
  9 10  2  0
 10 11  1  0
 11 12  2  0
 12 13  1  0
 13 14  2  0
 14 15  1  0
 15 16  2  0
 16 17  1  0
 17 18  2  0
 18 19  1  0
 19 20  1  0
 18 21  1  0
 21 22  2  0
 14 23  1  0
 23 24  1  0
  6 25  1  0
 25 26  2  0
 26  3  1  0
 24  8  2  0
 23 11  1  0
 22 15  1  0
  1 27  1  0
  1 28  1  0
  1 29  1  0
  4 30  1  0
  5 31  1  0
  9 32  1  0
 10 33  1  0
 13 34  1  0
 16 35  1  0
 17 36  1  0
 20 37  1  0
 20 38  1  0
 20 39  1  0
 21 40  1  0
 22 41  1  0
 25 42  1  0
 26 43  1  0
M  END
>  <UniqueID>  (8) 
7

>  <SMILES>  (8) 
COc1ccc(Sc2ccc3ncc(-c4ccc(OC)cc4)n3n2)cc1

>  <Energy>  (8) 
81.50527511911939

>  <Genealogy>  (8) 
COc1ccc(Sc2ccc3ncc(-c4ccc(OC)cc4)n3n2)cc1 (3D coordinates assigned)
COc1ccc(Sc2ccc3ncc(-c4ccc(OC)cc4)n3n2)cc1 (optimized conformer: 81.50527511911939 kcal/mol)

>  <smiles>  (8) 
COc1ccc(Sc2ccc3ncc(-c4ccc(OC)cc4)n3n2)cc1

>  <score_type>  (8) 
oracle

>  <origin>  (8) 
adg

>  <m_score__min__energy>  (8) 
-7.1799999999999997

>  <m_primary>  (8) 
energy

$$$$
8:0
     RDKit          3D

 55 57  0  0  0  0  0  0  0  0999 V2000
   54.5510   24.4210   45.8260 C   0  0  0  0  0  0  0  0  0  0  0  0
   55.1250   25.7180   45.9430 O   0  0  0  0  0  0  0  0  0  0  0  0
   56.5020   25.9680   46.0370 C   0  0  0  0  0  0  0  0  0  0  0  0
   57.3590   25.1880   46.8370 C   0  0  0  0  0  0  0  0  0  0  0  0
   58.7240   25.4820   46.9000 C   0  0  0  0  0  0  0  0  0  0  0  0
   59.2480   26.5480   46.1670 C   0  0  0  0  0  0  0  0  0  0  0  0
   58.4080   27.3300   45.3600 C   0  0  0  0  0  0  0  0  0  0  0  0
   58.9750   28.4950   44.5920 C   0  0  0  0  0  0  0  0  0  0  0  0
   58.0390   29.6420   44.6150 N   0  0  0  0  0  0  0  0  0  0  0  0
   58.4990   30.7250   43.7190 C   0  0  0  0  0  0  0  0  0  0  0  0
   57.8200   32.0610   44.0370 C   0  0  0  0  0  0  0  0  0  0  0  0
   58.5150   32.8650   45.1250 C   0  0  0  0  0  0  0  0  0  0  0  0
   58.5660   34.2480   44.9240 C   0  0  0  0  0  0  0  0  0  0  0  0
   59.1870   35.0750   45.8390 C   0  0  0  0  0  0  0  0  0  0  0  0
   59.7830   34.5280   46.9670 C   0  0  0  0  0  0  0  0  0  0  0  0
   60.3720   35.3090   47.7650 O   0  0  0  0  0  0  0  0  0  0  0  0
   59.7360   33.1740   47.2070 N   0  0  0  0  0  0  0  0  0  0  0  0
   60.4420   32.6740   48.4120 C   0  0  0  0  0  0  0  0  0  0  0  0
   61.9240   33.0900   48.4280 C   0  0  0  0  0  0  0  0  0  0  0  0
   62.5830   32.7510   47.1460 N   0  0  0  0  0  0  0  0  0  0  0  0
   63.3750   33.8790   46.6350 C   0  0  0  0  0  0  0  0  0  0  0  0
   63.4400   31.5610   47.2790 C   0  0  0  0  0  0  0  0  0  0  0  0
   59.0520   32.3260   46.3400 C   0  0  0  0  0  0  0  0  0  0  0  0
   58.9590   30.8260   46.6460 C   0  0  0  0  0  0  0  0  0  0  0  0
   57.7670   30.1020   45.9970 C   0  0  0  0  0  0  0  0  0  0  0  0
   57.0360   27.0370   45.3050 C   0  0  0  0  0  0  0  0  0  0  0  0
   54.3686   24.0089   46.8294 H   0  0  0  0  0  0  0  0  0  0  0  0
   53.5991   24.4893   45.2791 H   0  0  0  0  0  0  0  0  0  0  0  0
   55.2417   23.7623   45.2791 H   0  0  0  0  0  0  0  0  0  0  0  0
   56.9528   24.3444   47.4144 H   0  0  0  0  0  0  0  0  0  0  0  0
   59.3877   24.8711   47.5295 H   0  0  0  0  0  0  0  0  0  0  0  0
   60.3228   26.7757   46.2222 H   0  0  0  0  0  0  0  0  0  0  0  0
   59.9290   28.7982   45.0480 H   0  0  0  0  0  0  0  0  0  0  0  0
   59.1320   28.1874   43.5476 H   0  0  0  0  0  0  0  0  0  0  0  0
   59.5865   30.8432   43.8342 H   0  0  0  0  0  0  0  0  0  0  0  0
   58.2357   30.4473   42.6877 H   0  0  0  0  0  0  0  0  0  0  0  0
   57.8006   32.6663   43.1187 H   0  0  0  0  0  0  0  0  0  0  0  0
   56.8126   31.8249   44.4103 H   0  0  0  0  0  0  0  0  0  0  0  0
   58.1052   34.6829   44.0248 H   0  0  0  0  0  0  0  0  0  0  0  0
   59.2093   36.1624   45.6747 H   0  0  0  0  0  0  0  0  0  0  0  0
   59.9492   33.0820   49.3068 H   0  0  0  0  0  0  0  0  0  0  0  0
   60.3984   31.5749   48.3990 H   0  0  0  0  0  0  0  0  0  0  0  0
   61.9913   34.1757   48.5913 H   0  0  0  0  0  0  0  0  0  0  0  0
   62.4323   32.5468   49.2383 H   0  0  0  0  0  0  0  0  0  0  0  0
   63.7797   34.4554   47.4799 H   0  0  0  0  0  0  0  0  0  0  0  0
   64.2040   33.4967   46.0213 H   0  0  0  0  0  0  0  0  0  0  0  0
   62.7339   34.5289   46.0213 H   0  0  0  0  0  0  0  0  0  0  0  0
   63.5987   31.3407   48.3450 H   0  0  0  0  0  0  0  0  0  0  0  0
   62.9520   30.7018   46.7957 H   0  0  0  0  0  0  0  0  0  0  0  0
   64.4096   31.7515   46.7957 H   0  0  0  0  0  0  0  0  0  0  0  0
   59.8834   30.3474   46.2905 H   0  0  0  0  0  0  0  0  0  0  0  0
   58.8138   30.7428   47.7332 H   0  0  0  0  0  0  0  0  0  0  0  0
   57.5140   29.2261   46.6125 H   0  0  0  0  0  0  0  0  0  0  0  0
   56.9394   30.8245   45.9416 H   0  0  0  0  0  0  0  0  0  0  0  0
   56.3728   27.6535   44.6803 H   0  0  0  0  0  0  0  0  0  0  0  0
  1  2  1  0
  2  3  1  0
  3  4  2  0
  4  5  1  0
  5  6  2  0
  6  7  1  0
  7  8  1  0
  8  9  1  0
  9 10  1  0
 10 11  1  0
 11 12  1  0
 12 13  1  0
 13 14  2  0
 14 15  1  0
 15 16  2  0
 15 17  1  0
 17 18  1  0
 18 19  1  0
 19 20  1  0
 20 21  1  0
 20 22  1  0
 17 23  1  0
 23 24  1  0
 24 25  1  0
  7 26  2  0
 26  3  1  0
 25  9  1  0
 23 12  2  0
  1 27  1  0
  1 28  1  0
  1 29  1  0
  4 30  1  0
  5 31  1  0
  6 32  1  0
  8 33  1  0
  8 34  1  0
 10 35  1  0
 10 36  1  0
 11 37  1  0
 11 38  1  0
 13 39  1  0
 14 40  1  0
 18 41  1  0
 18 42  1  0
 19 43  1  0
 19 44  1  0
 21 45  1  0
 21 46  1  0
 21 47  1  0
 22 48  1  0
 22 49  1  0
 22 50  1  0
 24 51  1  0
 24 52  1  0
 25 53  1  0
 25 54  1  0
 26 55  1  0
M  END
>  <UniqueID>  (9) 
8

>  <SMILES>  (9) 
COc1cccc(CN2CCc3ccc(=O)n(CCN(C)C)c3CC2)c1

>  <Energy>  (9) 
77.18846637693284

>  <Genealogy>  (9) 
COc1cccc(CN2CCc3ccc(=O)n(CCN(C)C)c3CC2)c1 (3D coordinates assigned)
COc1cccc(CN2CCc3ccc(=O)n(CCN(C)C)c3CC2)c1 (nonaromatic ring conformer: 77.18846637693284 kcal/mol)

>  <smiles>  (9) 
COc1cccc(CN2CCc3ccc(=O)n(CCN(C)C)c3CC2)c1

>  <score_type>  (9) 
oracle

>  <origin>  (9) 
adg

>  <m_score__min__energy>  (9) 
-6.2400000000000002

>  <m_primary>  (9) 
energy

$$$$
9:0
     RDKit          3D

 44 46  0  0  0  0  0  0  0  0999 V2000
   57.6450   31.6770   43.6830 C   0  0  0  0  0  0  0  0  0  0  0  0
   57.0970   31.0430   44.8750 N   0  0  0  0  0  0  0  0  0  0  0  0
   56.6030   29.4130   44.5220 S   0  0  0  0  0  0  0  0  0  0  0  0
   55.1440   29.2830   44.8610 O   0  0  0  0  0  0  0  0  0  0  0  0
   56.7470   29.1310   43.0520 O   0  0  0  0  0  0  0  0  0  0  0  0
   57.5100   28.2510   45.5210 C   0  0  0  0  0  0  0  0  0  0  0  0
   56.8150   27.1000   45.9310 C   0  0  0  0  0  0  0  0  0  0  0  0
   57.4570   26.0910   46.6450 C   0  0  0  0  0  0  0  0  0  0  0  0
   58.8090   26.2080   46.9520 C   0  0  0  0  0  0  0  0  0  0  0  0
   59.5160   27.3480   46.5720 C   0  0  0  0  0  0  0  0  0  0  0  0
   58.8770   28.4110   45.8960 C   0  0  0  0  0  0  0  0  0  0  0  0
   59.6730   29.6470   45.5100 C   0  0  0  0  0  0  0  0  0  0  0  0
   60.9020   29.9370   46.4030 C   0  0  0  0  0  0  0  0  0  0  0  0
   60.6310   30.9350   47.4640 N   0  0  0  0  0  0  0  0  0  0  0  0
   59.3420   30.6960   48.1770 C   0  0  0  0  0  0  0  0  0  0  0  0
   58.5160   31.9670   48.4480 C   0  0  0  0  0  0  0  0  0  0  0  0
   58.4930   32.8350   47.2270 C   0  0  0  0  0  0  0  0  0  0  0  0
   57.3220   33.4720   46.7890 C   0  0  0  0  0  0  0  0  0  0  0  0
   57.3570   34.2870   45.6520 C   0  0  0  0  0  0  0  0  0  0  0  0
   58.5580   34.4780   44.9620 C   0  0  0  0  0  0  0  0  0  0  0  0
   59.7290   33.8540   45.4050 C   0  0  0  0  0  0  0  0  0  0  0  0
   59.6940   33.0250   46.5360 C   0  0  0  0  0  0  0  0  0  0  0  0
   60.9240   32.3320   47.0550 C   0  0  0  0  0  0  0  0  0  0  0  0
   58.3377   32.4784   43.9795 H   0  0  0  0  0  0  0  0  0  0  0  0
   58.1850   30.9283   43.0848 H   0  0  0  0  0  0  0  0  0  0  0  0
   56.8260   32.1029   43.0848 H   0  0  0  0  0  0  0  0  0  0  0  0
   55.7482   26.9946   45.6843 H   0  0  0  0  0  0  0  0  0  0  0  0
   56.8951   25.2016   46.9662 H   0  0  0  0  0  0  0  0  0  0  0  0
   59.3208   25.4000   47.4953 H   0  0  0  0  0  0  0  0  0  0  0  0
   60.5891   27.4208   46.8024 H   0  0  0  0  0  0  0  0  0  0  0  0
   60.0253   29.5171   44.4761 H   0  0  0  0  0  0  0  0  0  0  0  0
   58.9930   30.5025   45.6349 H   0  0  0  0  0  0  0  0  0  0  0  0
   61.2172   28.9971   46.8796 H   0  0  0  0  0  0  0  0  0  0  0  0
   61.6858   30.3549   45.7541 H   0  0  0  0  0  0  0  0  0  0  0  0
   58.7326   30.0143   47.5655 H   0  0  0  0  0  0  0  0  0  0  0  0
   59.6018   30.2767   49.1602 H   0  0  0  0  0  0  0  0  0  0  0  0
   57.4867   31.6828   48.7120 H   0  0  0  0  0  0  0  0  0  0  0  0
   58.9744   32.5246   49.2781 H   0  0  0  0  0  0  0  0  0  0  0  0
   56.3792   33.3311   47.3378 H   0  0  0  0  0  0  0  0  0  0  0  0
   56.4378   34.7784   45.3004 H   0  0  0  0  0  0  0  0  0  0  0  0
   58.5821   35.1201   44.0692 H   0  0  0  0  0  0  0  0  0  0  0  0
   60.6754   34.0131   44.8675 H   0  0  0  0  0  0  0  0  0  0  0  0
   61.6879   32.3198   46.2636 H   0  0  0  0  0  0  0  0  0  0  0  0
   61.2827   32.8816   47.9378 H   0  0  0  0  0  0  0  0  0  0  0  0
  1  2  1  0
  2  3  1  0
  3  4  2  0
  3  5  2  0
  3  6  1  0
  6  7  2  0
  7  8  1  0
  8  9  2  0
  9 10  1  0
 10 11  2  0
 11 12  1  0
 12 13  1  0
 13 14  1  0
 14 15  1  0
 15 16  1  0
 16 17  1  0
 17 18  2  0
 18 19  1  0
 19 20  2  0
 20 21  1  0
 21 22  2  0
 22 23  1  0
 11  6  1  0
 23 14  1  0
 22 17  1  0
  1 24  1  0
  1 25  1  0
  1 26  1  0
  7 27  1  0
  8 28  1  0
  9 29  1  0
 10 30  1  0
 12 31  1  0
 12 32  1  0
 13 33  1  0
 13 34  1  0
 15 35  1  0
 15 36  1  0
 16 37  1  0
 16 38  1  0
 18 39  1  0
 19 40  1  0
 20 41  1  0
 21 42  1  0
 23 43  1  0
 23 44  1  0
M  CHG  1   2  -1
M  END
>  <UniqueID>  (10) 
9

>  <SMILES>  (10) 
C[N-]S(=O)(=O)c1ccccc1CCN1CCc2ccccc2C1

>  <Energy>  (10) 
59.70817508932643

>  <Genealogy>  (10) 
C[N-]S(=O)(=O)c1ccccc1CCN1CCc2ccccc2C1 (protonated)
C[N-]S(=O)(=O)c1ccccc1CCN1CCc2ccccc2C1 (3D coordinates assigned)
C[N-]S(=O)(=O)c1ccccc1CCN1CCc2ccccc2C1 (nonaromatic ring conformer: 59.70817508932643 kcal/mol)

>  <smiles>  (10) 
CNS(=O)(=O)c1ccccc1CCN1CCc2ccccc2C1

>  <score_type>  (10) 
oracle

>  <origin>  (10) 
adg

>  <m_score__min__energy>  (10) 
-10.029999999999999

>  <m_primary>  (10) 
energy

$$$$
10:0
     RDKit          3D

 58 61  0  0  0  0  0  0  0  0999 V2000
   62.8580   33.7780   46.4130 C   0  0  0  0  0  0  0  0  0  0  0  0
   63.8770   33.4140   47.4930 C   0  0  0  0  0  0  0  0  0  0  0  0
   63.2090   33.1210   48.7820 N   0  0  0  0  0  0  0  0  0  0  0  0
   61.8220   33.6590   48.8220 C   0  0  0  0  0  0  0  0  0  0  0  0
   60.8580   32.7870   49.6340 C   0  0  0  0  0  0  0  0  0  0  0  0
   60.8650   31.4240   49.0950 N   0  0  0  0  0  0  0  0  0  0  0  0
   59.6720   30.6250   49.2110 C   0  0  0  0  0  0  0  0  0  0  0  0
   59.0070   30.6700   50.2820 O   0  0  0  0  0  0  0  0  0  0  0  0
   59.1050   29.8890   48.0570 C   0  0  0  0  0  0  0  0  0  0  0  0
   59.0340   28.4740   48.0110 C   0  0  0  0  0  0  0  0  0  0  0  0
   58.4810   27.8200   46.8990 C   0  0  0  0  0  0  0  0  0  0  0  0
   57.9980   28.6040   45.8570 C   0  0  0  0  0  0  0  0  0  0  0  0
   57.4450   28.1450   44.7120 N   0  0  0  0  0  0  0  0  0  0  0  0
   57.1370   29.2780   44.0340 C   0  0  0  0  0  0  0  0  0  0  0  0
   56.6190   29.2900   42.6330 C   0  0  0  0  0  0  0  0  0  0  0  0
   57.5240   30.3820   44.7750 C   0  0  0  0  0  0  0  0  0  0  0  0
   57.5000   31.7500   44.3450 N   0  0  0  0  0  0  0  0  0  0  0  0
   58.1010   32.1220   43.0650 C   0  0  0  0  0  0  0  0  0  0  0  0
   56.8360   32.7630   45.1690 C   0  0  0  0  0  0  0  0  0  0  0  0
   57.8540   33.7040   45.7510 C   0  0  0  0  0  0  0  0  0  0  0  0
   58.6400   34.5050   44.9060 C   0  0  0  0  0  0  0  0  0  0  0  0
   59.6270   35.3390   45.4430 C   0  0  0  0  0  0  0  0  0  0  0  0
   59.8430   35.3700   46.8240 C   0  0  0  0  0  0  0  0  0  0  0  0
   59.0750   34.5630   47.6690 C   0  0  0  0  0  0  0  0  0  0  0  0
   58.0870   33.7280   47.1370 C   0  0  0  0  0  0  0  0  0  0  0  0
   58.0650   29.9450   45.9200 N   0  0  0  0  0  0  0  0  0  0  0  0
   58.5830   30.6230   46.9740 C   0  0  0  0  0  0  0  0  0  0  0  0
   62.1340   30.8500   48.6380 C   0  0  0  0  0  0  0  0  0  0  0  0
   63.3210   31.6850   49.1410 C   0  0  0  0  0  0  0  0  0  0  0  0
   61.9237   34.1118   46.8880 H   0  0  0  0  0  0  0  0  0  0  0  0
   63.2607   34.5879   45.7870 H   0  0  0  0  0  0  0  0  0  0  0  0
   62.6564   32.8963   45.7870 H   0  0  0  0  0  0  0  0  0  0  0  0
   64.4400   32.5257   47.1705 H   0  0  0  0  0  0  0  0  0  0  0  0
   64.5527   34.2699   47.6373 H   0  0  0  0  0  0  0  0  0  0  0  0
   61.8493   34.6622   49.2723 H   0  0  0  0  0  0  0  0  0  0  0  0
   61.4501   33.6799   47.7870 H   0  0  0  0  0  0  0  0  0  0  0  0
   61.1781   32.7675   50.6862 H   0  0  0  0  0  0  0  0  0  0  0  0
   59.8418   33.2032   49.5691 H   0  0  0  0  0  0  0  0  0  0  0  0
   59.4164   27.8822   48.8558 H   0  0  0  0  0  0  0  0  0  0  0  0
   58.4313   26.7221   46.8532 H   0  0  0  0  0  0  0  0  0  0  0  0
   55.5194   29.3155   42.6488 H   0  0  0  0  0  0  0  0  0  0  0  0
   56.9989   30.1796   42.1092 H   0  0  0  0  0  0  0  0  0  0  0  0
   56.9573   28.3838   42.1092 H   0  0  0  0  0  0  0  0  0  0  0  0
   59.0237   32.6931   43.2453 H   0  0  0  0  0  0  0  0  0  0  0  0
   58.3384   31.2127   42.4934 H   0  0  0  0  0  0  0  0  0  0  0  0
   57.3930   32.7401   42.4934 H   0  0  0  0  0  0  0  0  0  0  0  0
   56.1288   33.3314   44.5471 H   0  0  0  0  0  0  0  0  0  0  0  0
   56.2971   32.2642   45.9880 H   0  0  0  0  0  0  0  0  0  0  0  0
   58.4790   34.4765   43.8182 H   0  0  0  0  0  0  0  0  0  0  0  0
   60.2337   35.9710   44.7778 H   0  0  0  0  0  0  0  0  0  0  0  0
   60.6166   36.0288   47.2455 H   0  0  0  0  0  0  0  0  0  0  0  0
   59.2483   34.5849   48.7550 H   0  0  0  0  0  0  0  0  0  0  0  0
   57.4910   33.0886   47.8048 H   0  0  0  0  0  0  0  0  0  0  0  0
   58.5953   31.7229   46.9830 H   0  0  0  0  0  0  0  0  0  0  0  0
   62.2255   29.8238   49.0234 H   0  0  0  0  0  0  0  0  0  0  0  0
   62.1448   30.8474   47.5381 H   0  0  0  0  0  0  0  0  0  0  0  0
   63.3712   31.5998   50.2365 H   0  0  0  0  0  0  0  0  0  0  0  0
   64.2287   31.2934   48.6585 H   0  0  0  0  0  0  0  0  0  0  0  0
  1  2  1  0
  2  3  1  0
  3  4  1  0
  4  5  1  0
  5  6  1  0
  6  7  1  0
  7  8  2  0
  7  9  1  0
  9 10  1  0
 10 11  2  0
 11 12  1  0
 12 13  2  0
 13 14  1  0
 14 15  1  0
 14 16  2  0
 16 17  1  0
 17 18  1  0
 17 19  1  0
 19 20  1  0
 20 21  2  0
 21 22  1  0
 22 23  2  0
 23 24  1  0
 24 25  2  0
 16 26  1  0
 26 27  1  0
  6 28  1  0
 28 29  1  0
 29  3  1  0
 27  9  2  0
 26 12  1  0
 25 20  1  0
  1 30  1  0
  1 31  1  0
  1 32  1  0
  2 33  1  0
  2 34  1  0
  4 35  1  0
  4 36  1  0
  5 37  1  0
  5 38  1  0
 10 39  1  0
 11 40  1  0
 15 41  1  0
 15 42  1  0
 15 43  1  0
 18 44  1  0
 18 45  1  0
 18 46  1  0
 19 47  1  0
 19 48  1  0
 21 49  1  0
 22 50  1  0
 23 51  1  0
 24 52  1  0
 25 53  1  0
 27 54  1  0
 28 55  1  0
 28 56  1  0
 29 57  1  0
 29 58  1  0
M  END
>  <UniqueID>  (11) 
10

>  <SMILES>  (11) 
CCN1CCN(C(=O)c2ccc3nc(C)c(N(C)Cc4ccccc4)n3c2)CC1

>  <Energy>  (11) 
112.42651144981743

>  <Genealogy>  (11) 
CCN1CCN(C(=O)c2ccc3nc(C)c(N(C)Cc4ccccc4)n3c2)CC1 (3D coordinates assigned)
CCN1CCN(C(=O)c2ccc3nc(C)c(N(C)Cc4ccccc4)n3c2)CC1 (nonaromatic ring conformer: 112.42651144981743 kcal/mol)

>  <smiles>  (11) 
CCN1CCN(C(=O)c2ccc3nc(C)c(N(C)Cc4ccccc4)n3c2)CC1

>  <score_type>  (11) 
oracle

>  <origin>  (11) 
adg

>  <m_score__min__energy>  (11) 
-9.1500000000000004

>  <m_primary>  (11) 
energy

$$$$
11:0
     RDKit          3D

 26 28  0  0  0  0  0  0  0  0999 V2000
   54.5800   26.3030   45.9890 O   0  0  0  0  0  0  0  0  0  0  0  0
   55.6530   25.4520   46.0030 C   0  0  0  0  0  0  0  0  0  0  0  0
   55.4830   24.1050   46.3050 C   0  0  0  0  0  0  0  0  0  0  0  0
   56.5490   23.2190   46.3300 C   0  0  0  0  0  0  0  0  0  0  0  0
   57.8020   23.7220   46.0410 C   0  0  0  0  0  0  0  0  0  0  0  0
   57.9990   25.0650   45.7360 C   0  0  0  0  0  0  0  0  0  0  0  0
   56.9330   25.9370   45.7150 C   0  0  0  0  0  0  0  0  0  0  0  0
   57.1500   27.3470   45.3940 C   0  0  0  0  0  0  0  0  0  0  0  0
   58.3320   27.9820   45.3710 N   0  0  0  0  0  0  0  0  0  0  0  0
   58.0990   29.2630   45.0320 C   0  0  0  0  0  0  0  0  0  0  0  0
   58.9080   30.3740   44.8520 C   0  0  0  0  0  0  0  0  0  0  0  0
   58.3280   31.5700   44.4930 C   0  0  0  0  0  0  0  0  0  0  0  0
   56.9770   31.7380   44.2990 C   0  0  0  0  0  0  0  0  0  0  0  0
   56.1630   30.6210   44.4800 C   0  0  0  0  0  0  0  0  0  0  0  0
   56.7400   29.4260   44.8380 C   0  0  0  0  0  0  0  0  0  0  0  0
   56.1760   28.2430   45.0640 N   0  0  0  0  0  0  0  0  0  0  0  0
   54.0950   26.7080   46.7570 H   0  0  0  0  0  0  0  0  0  0  0  0
   54.4732   23.7318   46.5306 H   0  0  0  0  0  0  0  0  0  0  0  0
   56.4022   22.1558   46.5709 H   0  0  0  0  0  0  0  0  0  0  0  0
   58.6673   23.0429   46.0522 H   0  0  0  0  0  0  0  0  0  0  0  0
   59.0111   25.4323   45.5105 H   0  0  0  0  0  0  0  0  0  0  0  0
   59.9964   30.3013   44.9938 H   0  0  0  0  0  0  0  0  0  0  0  0
   58.9836   32.4421   44.3532 H   0  0  0  0  0  0  0  0  0  0  0  0
   56.5562   32.7132   44.0129 H   0  0  0  0  0  0  0  0  0  0  0  0
   55.0747   30.6948   44.3384 H   0  0  0  0  0  0  0  0  0  0  0  0
   55.1610   28.0140   45.0050 H   0  0  0  0  0  0  0  0  0  0  0  0
  1  2  1  0
  2  3  2  0
  3  4  1  0
  4  5  2  0
  5  6  1  0
  6  7  2  0
  7  8  1  0
  8  9  2  0
  9 10  1  0
 10 11  2  0
 11 12  1  0
 12 13  2  0
 13 14  1  0
 14 15  2  0
 15 16  1  0
  7  2  1  0
 16  8  1  0
 15 10  1  0
  1 17  1  0
  3 18  1  0
  4 19  1  0
  5 20  1  0
  6 21  1  0
 11 22  1  0
 12 23  1  0
 13 24  1  0
 14 25  1  0
 16 26  1  0
M  END
>  <smiles>  (12) 
Oc1ccccc1-c1nc2ccccc2[nH]1

>  <score_type>  (12) 
oracle

>  <origin>  (12) 
adg

>  <m_score__min__energy>  (12) 
-7.5599999999999996

>  <m_primary>  (12) 
energy

$$$$
12:0
     RDKit          3D

 44 46  0  0  0  0  0  0  0  0999 V2000
   60.4650   31.5150   47.4790 C   0  0  0  0  0  0  0  0  0  0  0  0
   59.3700   31.9300   46.5320 C   0  0  0  0  0  0  0  0  0  0  0  0
   58.7460   33.1730   46.7130 C   0  0  0  0  0  0  0  0  0  0  0  0
   57.7370   33.5910   45.8470 C   0  0  0  0  0  0  0  0  0  0  0  0
   57.3380   32.7750   44.7880 C   0  0  0  0  0  0  0  0  0  0  0  0
   57.9440   31.5230   44.5850 C   0  0  0  0  0  0  0  0  0  0  0  0
   57.4990   30.6610   43.5230 N   0  0  0  0  0  0  0  0  0  0  0  0
   56.2840   29.9030   43.5640 C   0  0  0  0  0  0  0  0  0  0  0  0
   55.4400   30.0710   44.4840 O   0  0  0  0  0  0  0  0  0  0  0  0
   58.9390   31.0820   45.4830 C   0  0  0  0  0  0  0  0  0  0  0  0
   59.5440   29.7940   45.2890 N   0  0  0  0  0  0  0  0  0  0  0  0
   58.7890   28.5790   45.1460 C   0  0  0  0  0  0  0  0  0  0  0  0
   58.8940   27.8360   43.9410 C   0  0  0  0  0  0  0  0  0  0  0  0
   58.1670   26.6450   43.7600 C   0  0  0  0  0  0  0  0  0  0  0  0
   57.3380   26.2290   44.8000 C   0  0  0  0  0  0  0  0  0  0  0  0
   57.2230   26.9440   45.9560 C   0  0  0  0  0  0  0  0  0  0  0  0
   56.3330   26.2440   46.7420 C   0  0  0  0  0  0  0  0  0  0  0  0
   55.9390   25.1410   46.0600 N   0  0  0  0  0  0  0  0  0  0  0  0
   56.5480   25.1390   44.8790 N   0  0  0  0  0  0  0  0  0  0  0  0
   56.3940   24.0770   43.8860 C   0  0  0  0  0  0  0  0  0  0  0  0
   57.3830   22.9330   44.1420 C   0  0  0  0  0  0  0  0  0  0  0  0
   57.0480   21.6840   43.3190 C   0  0  0  0  0  0  0  0  0  0  0  0
   55.9210   21.9200   42.5210 O   0  0  0  0  0  0  0  0  0  0  0  0
   57.9240   28.1250   46.1730 C   0  0  0  0  0  0  0  0  0  0  0  0
   60.1218   31.6451   48.5160 H   0  0  0  0  0  0  0  0  0  0  0  0
   60.7182   30.4586   47.3064 H   0  0  0  0  0  0  0  0  0  0  0  0
   61.3548   32.1383   47.3064 H   0  0  0  0  0  0  0  0  0  0  0  0
   59.0553   33.8230   47.5448 H   0  0  0  0  0  0  0  0  0  0  0  0
   57.2537   34.5674   45.9990 H   0  0  0  0  0  0  0  0  0  0  0  0
   56.5434   33.1138   44.1070 H   0  0  0  0  0  0  0  0  0  0  0  0
   58.0480   30.6290   42.6350 H   0  0  0  0  0  0  0  0  0  0  0  0
   56.0843   29.1604   42.7774 H   0  0  0  0  0  0  0  0  0  0  0  0
   60.5810   29.7600   45.1640 H   0  0  0  0  0  0  0  0  0  0  0  0
   59.5530   28.1964   43.1374 H   0  0  0  0  0  0  0  0  0  0  0  0
   58.2501   26.0628   42.8304 H   0  0  0  0  0  0  0  0  0  0  0  0
   55.9996   26.5313   47.7501 H   0  0  0  0  0  0  0  0  0  0  0  0
   55.3682   23.6832   43.9375 H   0  0  0  0  0  0  0  0  0  0  0  0
   56.5974   24.4980   42.8903 H   0  0  0  0  0  0  0  0  0  0  0  0
   58.3946   23.2726   43.8749 H   0  0  0  0  0  0  0  0  0  0  0  0
   57.3197   22.6633   45.2066 H   0  0  0  0  0  0  0  0  0  0  0  0
   57.9035   21.4328   42.6748 H   0  0  0  0  0  0  0  0  0  0  0  0
   56.8358   20.8490   44.0029 H   0  0  0  0  0  0  0  0  0  0  0  0
   56.2130   22.5280   41.7910 H   0  0  0  0  0  0  0  0  0  0  0  0
   57.8110   28.6885   47.1109 H   0  0  0  0  0  0  0  0  0  0  0  0
  1  2  1  0
  2  3  2  0
  3  4  1  0
  4  5  2  0
  5  6  1  0
  6  7  1  0
  7  8  1  0
  8  9  2  0
  6 10  2  0
 10 11  1  0
 11 12  1  0
 12 13  2  0
 13 14  1  0
 14 15  2  0
 15 16  1  0
 16 17  1  0
 17 18  2  0
 18 19  1  0
 19 20  1  0
 20 21  1  0
 21 22  1  0
 22 23  1  0
 16 24  2  0
 10  2  1  0
 24 12  1  0
 19 15  1  0
  1 25  1  0
  1 26  1  0
  1 27  1  0
  3 28  1  0
  4 29  1  0
  5 30  1  0
  7 31  1  0
  8 32  1  0
 11 33  1  0
 13 34  1  0
 14 35  1  0
 17 36  1  0
 20 37  1  0
 20 38  1  0
 21 39  1  0
 21 40  1  0
 22 41  1  0
 22 42  1  0
 23 43  1  0
 24 44  1  0
M  END
>  <UniqueID>  (13) 
11

>  <SMILES>  (13) 
Cc1cccc(NC=O)c1Nc1ccc2c(cnn2CCCO)c1

>  <Energy>  (13) 
89.93128698542908

>  <Genealogy>  (13) 
Cc1cccc(NC=O)c1Nc1ccc2c(cnn2CCCO)c1 (3D coordinates assigned)
Cc1cccc(NC=O)c1Nc1ccc2c(cnn2CCCO)c1 (optimized conformer: 89.93128698542908 kcal/mol)

>  <smiles>  (13) 
Cc1cccc(NC=O)c1Nc1ccc2c(cnn2CCCO)c1

>  <score_type>  (13) 
oracle

>  <origin>  (13) 
adg

>  <m_score__min__energy>  (13) 
-8.3000000000000007

>  <m_primary>  (13) 
energy

$$$$
13:0
     RDKit          3D

 51 53  0  0  0  0  0  0  0  0999 V2000
   57.8800   32.9600   44.2660 C   0  0  0  0  0  0  0  0  0  0  0  0
   57.4410   31.5750   43.8070 C   0  0  0  0  0  0  0  0  0  0  0  0
   56.9370   30.8180   44.9050 O   0  0  0  0  0  0  0  0  0  0  0  0
   56.7010   29.4380   44.8480 C   0  0  0  0  0  0  0  0  0  0  0  0
   55.5190   28.9950   44.8550 O   0  0  0  0  0  0  0  0  0  0  0  0
   57.8110   28.5270   44.7990 N   0  0  0  0  0  0  0  0  0  0  0  0
   58.0580   27.7280   43.5990 C   0  0  0  0  0  0  0  0  0  0  0  0
   58.6620   28.3750   45.9430 C   0  0  0  0  0  0  0  0  0  0  0  0
   58.7450   27.2640   46.7730 C   0  0  0  0  0  0  0  0  0  0  0  0
   57.9200   26.0130   46.6920 C   0  0  0  0  0  0  0  0  0  0  0  0
   56.4630   26.3510   46.3960 C   0  0  0  0  0  0  0  0  0  0  0  0
   59.5860   27.5480   47.7940 N   0  0  0  0  0  0  0  0  0  0  0  0
   59.9990   28.8120   47.5600 C   0  0  0  0  0  0  0  0  0  0  0  0
   60.8800   29.5500   48.3470 C   0  0  0  0  0  0  0  0  0  0  0  0
   61.1870   30.8670   47.9410 C   0  0  0  0  0  0  0  0  0  0  0  0
   62.1050   31.6690   48.7100 N   0  0  0  0  0  0  0  0  0  0  0  0
   61.6760   32.2400   49.9960 C   0  0  0  0  0  0  0  0  0  0  0  0
   62.6280   33.3490   50.4680 C   0  0  0  0  0  0  0  0  0  0  0  0
   63.0130   34.2560   49.2920 C   0  0  0  0  0  0  0  0  0  0  0  0
   63.6830   33.4790   48.1360 C   0  0  0  0  0  0  0  0  0  0  0  0
   63.4540   31.9620   48.2070 C   0  0  0  0  0  0  0  0  0  0  0  0
   60.6060   31.3830   46.7570 C   0  0  0  0  0  0  0  0  0  0  0  0
   59.7220   30.5930   46.0090 C   0  0  0  0  0  0  0  0  0  0  0  0
   59.4530   29.3380   46.4490 N   0  0  0  0  0  0  0  0  0  0  0  0
   57.8912   32.9955   45.3654 H   0  0  0  0  0  0  0  0  0  0  0  0
   58.8890   33.1708   43.8820 H   0  0  0  0  0  0  0  0  0  0  0  0
   57.1767   33.7136   43.8820 H   0  0  0  0  0  0  0  0  0  0  0  0
   56.6521   31.6792   43.0475 H   0  0  0  0  0  0  0  0  0  0  0  0
   58.3101   31.0500   43.3839 H   0  0  0  0  0  0  0  0  0  0  0  0
   58.3712   26.7148   43.8912 H   0  0  0  0  0  0  0  0  0  0  0  0
   57.1362   27.6689   43.0017 H   0  0  0  0  0  0  0  0  0  0  0  0
   58.8524   28.1994   43.0017 H   0  0  0  0  0  0  0  0  0  0  0  0
   58.3129   25.3718   45.8892 H   0  0  0  0  0  0  0  0  0  0  0  0
   57.9740   25.4887   47.6575 H   0  0  0  0  0  0  0  0  0  0  0  0
   55.9165   26.4778   47.3422 H   0  0  0  0  0  0  0  0  0  0  0  0
   56.4136   27.2844   45.8161 H   0  0  0  0  0  0  0  0  0  0  0  0
   56.0077   25.5346   45.8161 H   0  0  0  0  0  0  0  0  0  0  0  0
   59.8340   26.9380   48.6040 H   0  0  0  0  0  0  0  0  0  0  0  0
   61.3232   29.1198   49.2572 H   0  0  0  0  0  0  0  0  0  0  0  0
   60.6665   32.6614   49.8804 H   0  0  0  0  0  0  0  0  0  0  0  0
   61.6830   31.4374   50.7482 H   0  0  0  0  0  0  0  0  0  0  0  0
   62.1290   33.9505   51.2421 H   0  0  0  0  0  0  0  0  0  0  0  0
   63.5389   32.8883   50.8779 H   0  0  0  0  0  0  0  0  0  0  0  0
   62.1033   34.7416   48.9092 H   0  0  0  0  0  0  0  0  0  0  0  0
   63.7406   34.9925   49.6638 H   0  0  0  0  0  0  0  0  0  0  0  0
   63.2742   33.8491   47.1842 H   0  0  0  0  0  0  0  0  0  0  0  0
   64.7670   33.6478   48.2168 H   0  0  0  0  0  0  0  0  0  0  0  0
   63.5669   31.5312   47.2012 H   0  0  0  0  0  0  0  0  0  0  0  0
   64.1931   31.5220   48.8927 H   0  0  0  0  0  0  0  0  0  0  0  0
   60.8483   32.4032   46.4245 H   0  0  0  0  0  0  0  0  0  0  0  0
   59.2586   30.9803   45.0896 H   0  0  0  0  0  0  0  0  0  0  0  0
  1  2  1  0
  2  3  1  0
  3  4  1  0
  4  5  2  0
  4  6  1  0
  6  7  1  0
  6  8  1  0
  8  9  2  0
  9 10  1  0
 10 11  1  0
  9 12  1  0
 12 13  2  0
 13 14  1  0
 14 15  2  0
 15 16  1  0
 16 17  1  0
 17 18  1  0
 18 19  1  0
 19 20  1  0
 20 21  1  0
 15 22  1  0
 22 23  2  0
 23 24  1  0
 24  8  1  0
 24 13  1  0
 21 16  1  0
  1 25  1  0
  1 26  1  0
  1 27  1  0
  2 28  1  0
  2 29  1  0
  7 30  1  0
  7 31  1  0
  7 32  1  0
 10 33  1  0
 10 34  1  0
 11 35  1  0
 11 36  1  0
 11 37  1  0
 12 38  1  0
 14 39  1  0
 17 40  1  0
 17 41  1  0
 18 42  1  0
 18 43  1  0
 19 44  1  0
 19 45  1  0
 20 46  1  0
 20 47  1  0
 21 48  1  0
 21 49  1  0
 22 50  1  0
 23 51  1  0
M  CHG  1  12   1
M  END
>  <UniqueID>  (14) 
12

>  <SMILES>  (14) 
CCOC(=O)N(C)c1c(CC)[nH+]c2cc(N3CCCCC3)ccn12

>  <Energy>  (14) 
89.04276576702858

>  <Genealogy>  (14) 
CCOC(=O)N(C)c1c(CC)[nH+]c2cc(N3CCCCC3)ccn12 (protonated)
CCOC(=O)N(C)c1c(CC)[nH+]c2cc(N3CCCCC3)ccn12 (3D coordinates assigned)
CCOC(=O)N(C)c1c(CC)[nH+]c2cc(N3CCCCC3)ccn12 (nonaromatic ring conformer: 89.04276576702858 kcal/mol)

>  <smiles>  (14) 
CCOC(=O)N(C)c1c(CC)nc2cc(N3CCCCC3)ccn12

>  <score_type>  (14) 
oracle

>  <origin>  (14) 
adg

>  <m_score__min__energy>  (14) 
-5.3399999999999999

>  <m_primary>  (14) 
energy

$$$$
14:0
     RDKit          3D

 59 62  0  0  0  0  0  0  0  0999 V2000
   58.8810   35.2750   44.8630 C   0  0  0  0  0  0  0  0  0  0  0  0
   58.5070   33.8260   44.9510 C   0  0  0  0  0  0  0  0  0  0  0  0
   58.2410   33.0940   43.7840 C   0  0  0  0  0  0  0  0  0  0  0  0
   57.9170   31.7370   43.8620 C   0  0  0  0  0  0  0  0  0  0  0  0
   57.8610   31.0870   45.1090 C   0  0  0  0  0  0  0  0  0  0  0  0
   57.5400   29.6870   45.1830 N   0  0  0  0  0  0  0  0  0  0  0  0
   58.4250   28.6700   45.2260 C   0  0  0  0  0  0  0  0  0  0  0  0
   57.7490   27.4600   45.2940 C   0  0  0  0  0  0  0  0  0  0  0  0
   58.3270   26.1000   45.3130 C   0  0  0  0  0  0  0  0  0  0  0  0
   57.5560   25.1180   45.1360 O   0  0  0  0  0  0  0  0  0  0  0  0
   59.7210   25.8400   45.5610 N   0  0  0  0  0  0  0  0  0  0  0  0
   60.3620   25.7000   46.8670 C   0  0  0  0  0  0  0  0  0  0  0  0
   59.5330   26.4080   47.9610 C   0  0  0  0  0  0  0  0  0  0  0  0
   59.6790   27.8800   47.9590 N   0  0  0  0  0  0  0  0  0  0  0  0
   59.7060   28.4690   49.3260 C   0  0  0  0  0  0  0  0  0  0  0  0
   60.7510   29.5840   49.4980 C   0  0  0  0  0  0  0  0  0  0  0  0
   60.7500   30.4600   48.3250 N   0  0  0  0  0  0  0  0  0  0  0  0
   61.0760   31.8480   48.4860 C   0  0  0  0  0  0  0  0  0  0  0  0
   62.3250   32.3110   48.0480 C   0  0  0  0  0  0  0  0  0  0  0  0
   62.6640   33.6590   48.1830 C   0  0  0  0  0  0  0  0  0  0  0  0
   61.7580   34.5540   48.7560 C   0  0  0  0  0  0  0  0  0  0  0  0
   60.5130   34.1030   49.2020 C   0  0  0  0  0  0  0  0  0  0  0  0
   60.1650   32.7450   49.0860 C   0  0  0  0  0  0  0  0  0  0  0  0
   58.8100   32.2850   49.5570 C   0  0  0  0  0  0  0  0  0  0  0  0
   60.7220   29.8870   46.9760 C   0  0  0  0  0  0  0  0  0  0  0  0
   60.7320   28.3570   47.0380 C   0  0  0  0  0  0  0  0  0  0  0  0
   56.3960   27.7520   45.2590 C   0  0  0  0  0  0  0  0  0  0  0  0
   56.3110   29.1260   45.2000 C   0  0  0  0  0  0  0  0  0  0  0  0
   55.1210   29.8400   45.1260 O   0  0  0  0  0  0  0  0  0  0  0  0
   58.1540   31.8170   46.2740 C   0  0  0  0  0  0  0  0  0  0  0  0
   58.4820   33.1740   46.1950 C   0  0  0  0  0  0  0  0  0  0  0  0
   58.9877   35.6884   45.8768 H   0  0  0  0  0  0  0  0  0  0  0  0
   59.8345   35.3755   44.3238 H   0  0  0  0  0  0  0  0  0  0  0  0
   58.0952   35.8244   44.3238 H   0  0  0  0  0  0  0  0  0  0  0  0
   58.2877   33.5904   42.8035 H   0  0  0  0  0  0  0  0  0  0  0  0
   57.7042   31.1727   42.9421 H   0  0  0  0  0  0  0  0  0  0  0  0
   59.5191   28.7829   45.2096 H   0  0  0  0  0  0  0  0  0  0  0  0
   60.4483   24.6316   47.1141 H   0  0  0  0  0  0  0  0  0  0  0  0
   61.3586   26.1635   46.8232 H   0  0  0  0  0  0  0  0  0  0  0  0
   58.4718   26.1641   47.8048 H   0  0  0  0  0  0  0  0  0  0  0  0
   59.9080   26.0493   48.9309 H   0  0  0  0  0  0  0  0  0  0  0  0
   58.7123   28.8877   49.5434 H   0  0  0  0  0  0  0  0  0  0  0  0
   59.9815   27.6605   50.0191 H   0  0  0  0  0  0  0  0  0  0  0  0
   60.5084   30.1749   50.3935 H   0  0  0  0  0  0  0  0  0  0  0  0
   61.7470   29.1301   49.6074 H   0  0  0  0  0  0  0  0  0  0  0  0
   63.0412   31.6091   47.5959 H   0  0  0  0  0  0  0  0  0  0  0  0
   63.6455   34.0161   47.8377 H   0  0  0  0  0  0  0  0  0  0  0  0
   62.0251   35.6163   48.8565 H   0  0  0  0  0  0  0  0  0  0  0  0
   59.8009   34.8140   49.6464 H   0  0  0  0  0  0  0  0  0  0  0  0
   58.7872   32.2773   50.6567 H   0  0  0  0  0  0  0  0  0  0  0  0
   58.0380   32.9714   49.1791 H   0  0  0  0  0  0  0  0  0  0  0  0
   58.6154   31.2704   49.1791 H   0  0  0  0  0  0  0  0  0  0  0  0
   59.8098   30.2216   46.4603 H   0  0  0  0  0  0  0  0  0  0  0  0
   61.6148   30.2248   46.4295 H   0  0  0  0  0  0  0  0  0  0  0  0
   60.5475   27.9508   46.0325 H   0  0  0  0  0  0  0  0  0  0  0  0
   61.7121   28.0175   47.4043 H   0  0  0  0  0  0  0  0  0  0  0  0
   55.5616   27.0354   45.2750 H   0  0  0  0  0  0  0  0  0  0  0  0
   58.1251   31.3177   47.2537 H   0  0  0  0  0  0  0  0  0  0  0  0
   58.7216   33.7335   47.1113 H   0  0  0  0  0  0  0  0  0  0  0  0
  1  2  1  0
  2  3  2  0
  3  4  1  0
  4  5  2  0
  5  6  1  0
  6  7  1  0
  7  8  2  0
  8  9  1  0
  9 10  2  0
  9 11  1  0
 11 12  1  0
 12 13  1  0
 13 14  1  0
 14 15  1  0
 15 16  1  0
 16 17  1  0
 17 18  1  0
 18 19  2  0
 19 20  1  0
 20 21  2  0
 21 22  1  0
 22 23  2  0
 23 24  1  0
 17 25  1  0
 25 26  1  0
  8 27  1  0
 27 28  2  0
 28 29  1  0
  5 30  1  0
 30 31  2  0
 31  2  1  0
 28  6  1  0
 26 14  1  0
 23 18  1  0
  1 32  1  0
  1 33  1  0
  1 34  1  0
  3 35  1  0
  4 36  1  0
  7 37  1  0
 12 38  1  0
 12 39  1  0
 13 40  1  0
 13 41  1  0
 15 42  1  0
 15 43  1  0
 16 44  1  0
 16 45  1  0
 19 46  1  0
 20 47  1  0
 21 48  1  0
 22 49  1  0
 24 50  1  0
 24 51  1  0
 24 52  1  0
 25 53  1  0
 25 54  1  0
 26 55  1  0
 26 56  1  0
 27 57  1  0
 30 58  1  0
 31 59  1  0
M  CHG  2  11  -1  29  -1
M  END
>  <UniqueID>  (15) 
13

>  <SMILES>  (15) 
Cc1ccc(-n2cc(C(=O)[N-]CCN3CCN(c4ccccc4C)CC3)cc2[O-])cc1

>  <Energy>  (15) 
110.76365039719032

>  <Genealogy>  (15) 
Cc1ccc(-n2cc(C(=O)[N-]CCN3CCN(c4ccccc4C)CC3)cc2[O-])cc1 (protonated)
Cc1ccc(-n2cc(C(=O)[N-]CCN3CCN(c4ccccc4C)CC3)cc2[O-])cc1 (3D coordinates assigned)
Cc1ccc(-n2cc(C(=O)[N-]CCN3CCN(c4ccccc4C)CC3)cc2[O-])cc1 (nonaromatic ring conformer: 110.76365039719032 kcal/mol)

>  <smiles>  (15) 
Cc1ccc(-n2cc(C(=O)NCCN3CCN(c4ccccc4C)CC3)cc2O)cc1

>  <score_type>  (15) 
oracle

>  <origin>  (15) 
adg

>  <m_score__min__energy>  (15) 
-12.369999999999999

>  <m_primary>  (15) 
energy

$$$$
15:0
     RDKit          3D

 63 62  0  0  0  0  0  0  0  0999 V2000
   63.3490   33.8400   46.6880 C   0  0  0  0  0  0  0  0  0  0  0  0
   63.1030   32.6840   47.6570 C   0  0  0  0  0  0  0  0  0  0  0  0
   62.0670   31.6780   47.1280 C   0  0  0  0  0  0  0  0  0  0  0  0
   60.9990   31.3280   48.1790 C   0  0  0  0  0  0  0  0  0  0  0  0
   59.5680   31.5190   47.6500 C   0  0  0  0  0  0  0  0  0  0  0  0
   58.8180   32.6480   48.3730 C   0  0  0  0  0  0  0  0  0  0  0  0
   59.6250   33.9560   48.4400 C   0  0  0  0  0  0  0  0  0  0  0  0
   59.3530   34.9120   47.2590 C   0  0  0  0  0  0  0  0  0  0  0  0
   59.9400   34.3850   45.9380 C   0  0  0  0  0  0  0  0  0  0  0  0
   58.9260   34.4260   44.7830 C   0  0  0  0  0  0  0  0  0  0  0  0
   57.4750   34.2540   45.2660 C   0  0  0  0  0  0  0  0  0  0  0  0
   57.0230   32.7830   45.2900 C   0  0  0  0  0  0  0  0  0  0  0  0
   57.9750   31.8040   44.5790 C   0  0  0  0  0  0  0  0  0  0  0  0
   57.4850   31.3230   43.2070 C   0  0  0  0  0  0  0  0  0  0  0  0
   56.3730   30.3900   43.3490 N   0  0  0  0  0  0  0  0  0  0  0  0
   56.2650   29.4150   44.3930 C   0  0  0  0  0  0  0  0  0  0  0  0
   55.2750   29.4200   45.1720 O   0  0  0  0  0  0  0  0  0  0  0  0
   57.3500   28.3810   44.5720 C   0  0  2  0  0  0  0  0  0  0  0  0
   58.2000   28.7480   45.8000 C   0  0  0  0  0  0  0  0  0  0  0  0
   59.5240   29.0290   45.3930 O   0  0  0  0  0  0  0  0  0  0  0  0
   60.4110   28.1510   46.0470 C   0  0  0  0  0  0  0  0  0  0  0  0
   58.1930   28.2680   43.3630 N   0  0  0  0  0  0  0  0  0  0  0  0
   58.1180   26.9310   42.7610 C   0  0  0  0  0  0  0  0  0  0  0  0
   63.5449   34.7605   47.2575 H   0  0  0  0  0  0  0  0  0  0  0  0
   64.2181   33.6088   46.0545 H   0  0  0  0  0  0  0  0  0  0  0  0
   62.4611   33.9827   46.0545 H   0  0  0  0  0  0  0  0  0  0  0  0
   64.0534   32.1559   47.8237 H   0  0  0  0  0  0  0  0  0  0  0  0
   62.7063   33.1106   48.5901 H   0  0  0  0  0  0  0  0  0  0  0  0
   61.5686   32.1134   46.2494 H   0  0  0  0  0  0  0  0  0  0  0  0
   62.6007   30.7512   46.8708 H   0  0  0  0  0  0  0  0  0  0  0  0
   61.1278   30.2768   48.4764 H   0  0  0  0  0  0  0  0  0  0  0  0
   61.1337   32.0090   49.0323 H   0  0  0  0  0  0  0  0  0  0  0  0
   59.6177   31.7590   46.5777 H   0  0  0  0  0  0  0  0  0  0  0  0
   59.0178   30.5838   47.8307 H   0  0  0  0  0  0  0  0  0  0  0  0
   57.8770   32.8432   47.8378 H   0  0  0  0  0  0  0  0  0  0  0  0
   58.6399   32.3168   49.4067 H   0  0  0  0  0  0  0  0  0  0  0  0
   59.3674   34.4759   49.3745 H   0  0  0  0  0  0  0  0  0  0  0  0
   60.6890   33.6809   48.3934 H   0  0  0  0  0  0  0  0  0  0  0  0
   58.2656   35.0296   47.1416 H   0  0  0  0  0  0  0  0  0  0  0  0
   59.8375   35.8735   47.4842 H   0  0  0  0  0  0  0  0  0  0  0  0
   60.8083   35.0034   45.6667 H   0  0  0  0  0  0  0  0  0  0  0  0
   60.2240   33.3340   46.0952 H   0  0  0  0  0  0  0  0  0  0  0  0
   59.0145   35.3951   44.2702 H   0  0  0  0  0  0  0  0  0  0  0  0
   59.1548   33.5885   44.1076 H   0  0  0  0  0  0  0  0  0  0  0  0
   57.3929   34.6632   46.2837 H   0  0  0  0  0  0  0  0  0  0  0  0
   56.8252   34.7878   44.5569 H   0  0  0  0  0  0  0  0  0  0  0  0
   56.9321   32.4699   46.3406 H   0  0  0  0  0  0  0  0  0  0  0  0
   56.0704   32.7425   44.7414 H   0  0  0  0  0  0  0  0  0  0  0  0
   58.9439   32.3062   44.4410 H   0  0  0  0  0  0  0  0  0  0  0  0
   58.0402   30.9113   45.2184 H   0  0  0  0  0  0  0  0  0  0  0  0
   57.1537   32.1911   42.6183 H   0  0  0  0  0  0  0  0  0  0  0  0
   58.3134   30.8076   42.6990 H   0  0  0  0  0  0  0  0  0  0  0  0
   56.8814   27.3987   44.7320 H   0  0  0  0  0  0  0  0  0  0  0  0
   57.7716   29.6347   46.2901 H   0  0  0  0  0  0  0  0  0  0  0  0
   58.2059   27.9042   46.5057 H   0  0  0  0  0  0  0  0  0  0  0  0
   60.2997   28.2612   47.1358 H   0  0  0  0  0  0  0  0  0  0  0  0
   60.1810   27.1149   45.7579 H   0  0  0  0  0  0  0  0  0  0  0  0
   61.4447   28.3915   45.7579 H   0  0  0  0  0  0  0  0  0  0  0  0
   59.1930   28.4410   43.6170 H   0  0  0  0  0  0  0  0  0  0  0  0
   57.9100   28.9800   42.6490 H   0  0  0  0  0  0  0  0  0  0  0  0
   58.0755   26.1725   43.5566 H   0  0  0  0  0  0  0  0  0  0  0  0
   57.2144   26.8597   42.1377 H   0  0  0  0  0  0  0  0  0  0  0  0
   59.0079   26.7591   42.1377 H   0  0  0  0  0  0  0  0  0  0  0  0
  1  2  1  0
  2  3  1  0
  3  4  1  0
  4  5  1  0
  5  6  1  0
  6  7  1  0
  7  8  1  0
  8  9  1  0
  9 10  1  0
 10 11  1  0
 11 12  1  0
 12 13  1  0
 13 14  1  0
 14 15  1  0
 15 16  1  0
 16 17  2  0
 16 18  1  0
 18 19  1  0
 19 20  1  0
 20 21  1  0
 18 22  1  0
 22 23  1  0
  1 24  1  0
  1 25  1  0
  1 26  1  0
  2 27  1  0
  2 28  1  0
  3 29  1  0
  3 30  1  0
  4 31  1  0
  4 32  1  0
  5 33  1  0
  5 34  1  0
  6 35  1  0
  6 36  1  0
  7 37  1  0
  7 38  1  0
  8 39  1  0
  8 40  1  0
  9 41  1  0
  9 42  1  0
 10 43  1  0
 10 44  1  0
 11 45  1  0
 11 46  1  0
 12 47  1  0
 12 48  1  0
 13 49  1  0
 13 50  1  0
 14 51  1  0
 14 52  1  0
 18 53  1  1
 19 54  1  0
 19 55  1  0
 21 56  1  0
 21 57  1  0
 21 58  1  0
 22 59  1  0
 22 60  1  0
 23 61  1  0
 23 62  1  0
 23 63  1  0
M  CHG  2  15  -1  22   1
M  END
>  <UniqueID>  (16) 
14

>  <SMILES>  (16) 
CCCCCCCCCCCCCC[N-]C(=O)[C@H](COC)[NH2+]C

>  <Energy>  (16) 
35.42797001153232

>  <Genealogy>  (16) 
CCCCCCCCCCCCCC[N-]C(=O)C(COC)[NH2+]C (protonated)
CCCCCCCCCCCCCC[N-]C(=O)[C@H](COC)[NH2+]C (chirality)
CCCCCCCCCCCCCC[N-]C(=O)[C@H](COC)[NH2+]C (3D coordinates assigned)
CCCCCCCCCCCCCC[N-]C(=O)[C@H](COC)[NH2+]C (optimized conformer: 35.42797001153232 kcal/mol)

>  <smiles>  (16) 
CCCCCCCCCCCCCCNC(=O)C(COC)NC

>  <score_type>  (16) 
oracle

>  <origin>  (16) 
adg

>  <m_score__min__energy>  (16) 
-6.9699999999999998

>  <m_primary>  (16) 
energy

$$$$
16:0
     RDKit          3D

 47 50  0  0  0  0  0  0  0  0999 V2000
   58.1370   26.9370   42.9290 C   0  0  0  0  0  0  0  0  0  0  0  0
   58.3600   27.4980   44.3090 C   0  0  0  0  0  0  0  0  0  0  0  0
   59.1250   28.6770   44.4560 C   0  0  0  0  0  0  0  0  0  0  0  0
   59.3280   29.2000   45.7300 C   0  0  0  0  0  0  0  0  0  0  0  0
   60.0300   30.3340   45.9880 N   0  0  0  0  0  0  0  0  0  0  0  0
   60.0440   30.6060   47.3170 C   0  0  0  0  0  0  0  0  0  0  0  0
   60.6540   31.7890   47.8710 N   0  0  0  0  0  0  0  0  0  0  0  0
   61.8210   32.4050   47.2380 C   0  0  0  0  0  0  0  0  0  0  0  0
   61.5470   33.8880   46.9390 C   0  0  0  0  0  0  0  0  0  0  0  0
   60.5660   34.5060   47.8600 N   0  0  0  0  0  0  0  0  0  0  0  0
   59.2960   34.9570   47.2470 C   0  0  0  0  0  0  0  0  0  0  0  0
   58.7490   34.0190   46.1930 C   0  0  0  0  0  0  0  0  0  0  0  0
   59.0340   34.2190   44.8300 C   0  0  0  0  0  0  0  0  0  0  0  0
   58.5180   33.3500   43.8640 C   0  0  0  0  0  0  0  0  0  0  0  0
   57.7020   32.2830   44.2460 C   0  0  0  0  0  0  0  0  0  0  0  0
   57.3900   32.0910   45.5930 C   0  0  0  0  0  0  0  0  0  0  0  0
   57.9010   32.9600   46.5630 C   0  0  0  0  0  0  0  0  0  0  0  0
   60.4590   33.8790   49.1950 C   0  0  0  0  0  0  0  0  0  0  0  0
   60.1650   32.3700   49.1240 C   0  0  0  0  0  0  0  0  0  0  0  0
   59.1840   29.4490   48.2140 S   0  0  0  0  0  0  0  0  0  0  0  0
   58.7870   28.5770   46.8390 C   0  0  0  0  0  0  0  0  0  0  0  0
   58.0260   27.4190   46.7380 C   0  0  0  0  0  0  0  0  0  0  0  0
   57.8040   26.8650   45.4600 C   0  0  0  0  0  0  0  0  0  0  0  0
   56.9790   25.6110   45.3360 C   0  0  0  0  0  0  0  0  0  0  0  0
   57.7317   25.9175   43.0087 H   0  0  0  0  0  0  0  0  0  0  0  0
   57.4236   27.5737   42.3852 H   0  0  0  0  0  0  0  0  0  0  0  0
   59.0928   26.9101   42.3852 H   0  0  0  0  0  0  0  0  0  0  0  0
   59.5548   29.1754   43.5746 H   0  0  0  0  0  0  0  0  0  0  0  0
   62.6848   32.3250   47.9143 H   0  0  0  0  0  0  0  0  0  0  0  0
   62.0319   31.8831   46.2929 H   0  0  0  0  0  0  0  0  0  0  0  0
   62.4951   34.4400   47.0190 H   0  0  0  0  0  0  0  0  0  0  0  0
   61.1175   33.9396   45.9276 H   0  0  0  0  0  0  0  0  0  0  0  0
   58.5444   35.0564   48.0440 H   0  0  0  0  0  0  0  0  0  0  0  0
   59.5097   35.9104   46.7417 H   0  0  0  0  0  0  0  0  0  0  0  0
   59.6669   35.0645   44.5223 H   0  0  0  0  0  0  0  0  0  0  0  0
   58.7551   33.5070   42.8014 H   0  0  0  0  0  0  0  0  0  0  0  0
   57.3053   31.5941   43.4857 H   0  0  0  0  0  0  0  0  0  0  0  0
   56.7411   31.2548   45.8923 H   0  0  0  0  0  0  0  0  0  0  0  0
   57.6380   32.8141   47.6211 H   0  0  0  0  0  0  0  0  0  0  0  0
   61.4087   34.0271   49.7299 H   0  0  0  0  0  0  0  0  0  0  0  0
   59.6170   34.3559   49.7181 H   0  0  0  0  0  0  0  0  0  0  0  0
   60.6605   31.8686   49.9685 H   0  0  0  0  0  0  0  0  0  0  0  0
   59.0753   32.2268   49.1702 H   0  0  0  0  0  0  0  0  0  0  0  0
   57.6052   26.9439   47.6364 H   0  0  0  0  0  0  0  0  0  0  0  0
   56.7312   25.2344   46.3394 H   0  0  0  0  0  0  0  0  0  0  0  0
   56.0513   25.8350   44.7890 H   0  0  0  0  0  0  0  0  0  0  0  0
   57.5519   24.8477   44.7890 H   0  0  0  0  0  0  0  0  0  0  0  0
  1  2  1  0
  2  3  2  0
  3  4  1  0
  4  5  1  0
  5  6  2  0
  6  7  1  0
  7  8  1  0
  8  9  1  0
  9 10  1  0
 10 11  1  0
 11 12  1  0
 12 13  2  0
 13 14  1  0
 14 15  2  0
 15 16  1  0
 16 17  2  0
 10 18  1  0
 18 19  1  0
  6 20  1  0
 20 21  1  0
 21 22  1  0
 22 23  2  0
 23 24  1  0
 23  2  1  0
 21  4  2  0
 19  7  1  0
 17 12  1  0
  1 25  1  0
  1 26  1  0
  1 27  1  0
  3 28  1  0
  8 29  1  0
  8 30  1  0
  9 31  1  0
  9 32  1  0
 11 33  1  0
 11 34  1  0
 13 35  1  0
 14 36  1  0
 15 37  1  0
 16 38  1  0
 17 39  1  0
 18 40  1  0
 18 41  1  0
 19 42  1  0
 19 43  1  0
 22 44  1  0
 24 45  1  0
 24 46  1  0
 24 47  1  0
M  END
>  <UniqueID>  (17) 
15

>  <SMILES>  (17) 
Cc1cc2nc(N3CCN(Cc4ccccc4)CC3)sc2cc1C

>  <Energy>  (17) 
94.36016201489299

>  <Genealogy>  (17) 
Cc1cc2nc(N3CCN(Cc4ccccc4)CC3)sc2cc1C (3D coordinates assigned)
Cc1cc2nc(N3CCN(Cc4ccccc4)CC3)sc2cc1C (nonaromatic ring conformer: 94.36016201489299 kcal/mol)

>  <smiles>  (17) 
Cc1cc2nc(N3CCN(Cc4ccccc4)CC3)sc2cc1C

>  <score_type>  (17) 
oracle

>  <origin>  (17) 
adg

>  <m_score__min__energy>  (17) 
-7.8700000000000001

>  <m_primary>  (17) 
energy

$$$$
17:0
     RDKit          3D

 39 40  0  0  0  0  0  0  0  0999 V2000
   56.7710   30.4540   43.5520 C   0  0  0  0  0  0  0  0  0  0  0  0
   56.6550   30.0750   44.9190 O   0  0  0  0  0  0  0  0  0  0  0  0
   57.6430   29.3860   45.6370 C   0  0  0  0  0  0  0  0  0  0  0  0
   57.7720   27.9870   45.5890 C   0  0  0  0  0  0  0  0  0  0  0  0
   58.7770   27.3450   46.3150 C   0  0  0  0  0  0  0  0  0  0  0  0
   59.6710   28.0880   47.1100 C   0  0  0  0  0  0  0  0  0  0  0  0
   60.7020   27.4700   47.8370 O   0  0  0  0  0  0  0  0  0  0  0  0
   60.6030   27.0690   49.2000 C   0  0  0  0  0  0  0  0  0  0  0  0
   59.5360   29.4910   47.1760 C   0  0  0  0  0  0  0  0  0  0  0  0
   60.4530   30.2860   47.9600 N   0  0  0  0  0  0  0  0  0  0  0  0
   61.1450   31.2540   47.0960 C   0  0  0  0  0  0  0  0  0  0  0  0
   60.8230   32.7030   47.4910 C   0  0  0  0  0  0  0  0  0  0  0  0
   59.5980   33.2230   46.7800 C   0  0  0  0  0  0  0  0  0  0  0  0
   59.7350   33.8790   45.5450 C   0  0  0  0  0  0  0  0  0  0  0  0
   58.6060   34.3430   44.8620 C   0  0  0  0  0  0  0  0  0  0  0  0
   57.3330   34.1500   45.4030 C   0  0  0  0  0  0  0  0  0  0  0  0
   57.1850   33.4920   46.6260 C   0  0  0  0  0  0  0  0  0  0  0  0
   58.3100   33.0270   47.3150 C   0  0  0  0  0  0  0  0  0  0  0  0
   58.1410   32.3790   48.4960 F   0  0  0  0  0  0  0  0  0  0  0  0
   58.5290   30.1250   46.4260 C   0  0  0  0  0  0  0  0  0  0  0  0
   57.0924   31.5041   43.4886 H   0  0  0  0  0  0  0  0  0  0  0  0
   57.5139   29.8126   43.0554 H   0  0  0  0  0  0  0  0  0  0  0  0
   55.7963   30.3383   43.0554 H   0  0  0  0  0  0  0  0  0  0  0  0
   57.0770   27.3946   44.9758 H   0  0  0  0  0  0  0  0  0  0  0  0
   58.8713   26.2502   46.2656 H   0  0  0  0  0  0  0  0  0  0  0  0
   60.8154   27.9294   49.8517 H   0  0  0  0  0  0  0  0  0  0  0  0
   59.5866   26.6992   49.4005 H   0  0  0  0  0  0  0  0  0  0  0  0
   61.3305   26.2687   49.4005 H   0  0  0  0  0  0  0  0  0  0  0  0
   61.1490   29.6660   48.4360 H   0  0  0  0  0  0  0  0  0  0  0  0
   59.9220   30.7930   48.7060 H   0  0  0  0  0  0  0  0  0  0  0  0
   62.2301   31.0946   47.1805 H   0  0  0  0  0  0  0  0  0  0  0  0
   60.8017   31.0968   46.0628 H   0  0  0  0  0  0  0  0  0  0  0  0
   60.6485   32.7450   48.5763 H   0  0  0  0  0  0  0  0  0  0  0  0
   61.6773   33.3324   47.2011 H   0  0  0  0  0  0  0  0  0  0  0  0
   60.7355   34.0285   45.1130 H   0  0  0  0  0  0  0  0  0  0  0  0
   58.7209   34.8603   43.8980 H   0  0  0  0  0  0  0  0  0  0  0  0
   56.4461   34.5166   44.8654 H   0  0  0  0  0  0  0  0  0  0  0  0
   56.1810   33.3390   47.0486 H   0  0  0  0  0  0  0  0  0  0  0  0
   58.4372   31.2206   46.4610 H   0  0  0  0  0  0  0  0  0  0  0  0
  1  2  1  0
  2  3  1  0
  3  4  2  0
  4  5  1  0
  5  6  2  0
  6  7  1  0
  7  8  1  0
  6  9  1  0
  9 10  1  0
 10 11  1  0
 11 12  1  0
 12 13  1  0
 13 14  2  0
 14 15  1  0
 15 16  2  0
 16 17  1  0
 17 18  2  0
 18 19  1  0
  9 20  2  0
 20  3  1  0
 18 13  1  0
  1 21  1  0
  1 22  1  0
  1 23  1  0
  4 24  1  0
  5 25  1  0
  8 26  1  0
  8 27  1  0
  8 28  1  0
 10 29  1  0
 10 30  1  0
 11 31  1  0
 11 32  1  0
 12 33  1  0
 12 34  1  0
 14 35  1  0
 15 36  1  0
 16 37  1  0
 17 38  1  0
 20 39  1  0
M  CHG  1  10   1
M  END
>  <UniqueID>  (18) 
16

>  <SMILES>  (18) 
COc1ccc(OC)c([NH2+]CCc2ccccc2F)c1

>  <Energy>  (18) 
37.02302185620419

>  <Genealogy>  (18) 
COc1ccc(OC)c([NH2+]CCc2ccccc2F)c1 (protonated)
COc1ccc(OC)c([NH2+]CCc2ccccc2F)c1 (3D coordinates assigned)
COc1ccc(OC)c([NH2+]CCc2ccccc2F)c1 (optimized conformer: 37.02302185620419 kcal/mol)

>  <smiles>  (18) 
COc1ccc(OC)c(NCCc2ccccc2F)c1

>  <score_type>  (18) 
oracle

>  <origin>  (18) 
adg

>  <m_score__min__energy>  (18) 
-4.9500000000000002

>  <m_primary>  (18) 
energy

$$$$
18:0
     RDKit          3D

 55 57  0  0  0  0  0  0  0  0999 V2000
   59.8690   28.9600   44.8750 C   0  0  0  0  0  0  0  0  0  0  0  0
   58.4240   28.4660   44.9580 C   0  0  0  0  0  0  0  0  0  0  0  0
   57.6500   29.4370   45.7880 C   0  0  0  0  0  0  0  0  0  0  0  0
   57.3490   30.6670   45.1250 N   0  0  0  0  0  0  0  0  0  0  0  0
   56.2480   30.6320   44.2540 C   0  0  0  0  0  0  0  0  0  0  0  0
   56.7050   30.4820   42.8210 C   0  0  0  0  0  0  0  0  0  0  0  0
   57.4100   31.6790   42.2610 C   0  0  0  0  0  0  0  0  0  0  0  0
   57.7960   31.8420   45.7040 C   0  0  0  0  0  0  0  0  0  0  0  0
   57.0270   33.1140   45.4480 C   0  0  0  0  0  0  0  0  0  0  0  0
   57.9060   34.2260   44.9680 C   0  0  0  0  0  0  0  0  0  0  0  0
   58.7130   34.7210   45.9730 O   0  0  0  0  0  0  0  0  0  0  0  0
   59.8160   34.2730   46.6080 C   0  0  0  0  0  0  0  0  0  0  0  0
   59.7630   34.2350   48.0120 C   0  0  0  0  0  0  0  0  0  0  0  0
   60.8170   33.7970   48.7740 C   0  0  0  0  0  0  0  0  0  0  0  0
   61.9850   33.3710   48.1850 C   0  0  0  0  0  0  0  0  0  0  0  0
   63.1250   32.8960   48.9580 C   0  0  0  0  0  0  0  0  0  0  0  0
   64.3500   33.4210   48.9750 N   0  0  0  0  0  0  0  0  0  0  0  0
   65.1840   32.7600   49.7830 C   0  0  0  0  0  0  0  0  0  0  0  0
   66.5210   32.9430   50.1050 C   0  0  0  0  0  0  0  0  0  0  0  0
   67.1370   32.0840   50.9880 C   0  0  0  0  0  0  0  0  0  0  0  0
   66.3920   31.0380   51.5440 C   0  0  0  0  0  0  0  0  0  0  0  0
   65.0460   30.8660   51.2100 C   0  0  0  0  0  0  0  0  0  0  0  0
   64.4260   31.7300   50.3210 C   0  0  0  0  0  0  0  0  0  0  0  0
   63.1760   31.8310   49.8060 N   0  0  0  0  0  0  0  0  0  0  0  0
   62.0700   33.3960   46.8150 C   0  0  0  0  0  0  0  0  0  0  0  0
   60.9930   33.8430   46.0510 C   0  0  0  0  0  0  0  0  0  0  0  0
   60.2687   29.0966   45.8907 H   0  0  0  0  0  0  0  0  0  0  0  0
   60.4794   28.2195   44.3373 H   0  0  0  0  0  0  0  0  0  0  0  0
   59.8983   29.9192   44.3373 H   0  0  0  0  0  0  0  0  0  0  0  0
   57.9905   28.4094   43.9486 H   0  0  0  0  0  0  0  0  0  0  0  0
   58.3886   27.4640   45.4105 H   0  0  0  0  0  0  0  0  0  0  0  0
   56.7019   28.9618   46.0801 H   0  0  0  0  0  0  0  0  0  0  0  0
   58.2840   29.6904   46.6505 H   0  0  0  0  0  0  0  0  0  0  0  0
   55.6049   29.7798   44.5190 H   0  0  0  0  0  0  0  0  0  0  0  0
   55.6905   31.5754   44.3505 H   0  0  0  0  0  0  0  0  0  0  0  0
   57.3914   29.6241   42.7682 H   0  0  0  0  0  0  0  0  0  0  0  0
   55.7956   30.3460   42.2172 H   0  0  0  0  0  0  0  0  0  0  0  0
   57.7794   32.3061   43.0858 H   0  0  0  0  0  0  0  0  0  0  0  0
   58.2581   31.3492   41.6430 H   0  0  0  0  0  0  0  0  0  0  0  0
   56.7103   32.2608   41.6430 H   0  0  0  0  0  0  0  0  0  0  0  0
   57.8060   31.6832   46.7924 H   0  0  0  0  0  0  0  0  0  0  0  0
   58.7719   32.0196   45.2284 H   0  0  0  0  0  0  0  0  0  0  0  0
   56.2601   32.9155   44.6848 H   0  0  0  0  0  0  0  0  0  0  0  0
   56.5761   33.4304   46.4002 H   0  0  0  0  0  0  0  0  0  0  0  0
   58.5434   33.8485   44.1549 H   0  0  0  0  0  0  0  0  0  0  0  0
   57.2579   35.0440   44.6202 H   0  0  0  0  0  0  0  0  0  0  0  0
   58.8446   34.5680   48.5177 H   0  0  0  0  0  0  0  0  0  0  0  0
   60.7267   33.7864   49.8702 H   0  0  0  0  0  0  0  0  0  0  0  0
   67.0877   33.7721   49.6562 H   0  0  0  0  0  0  0  0  0  0  0  0
   68.1965   32.2179   51.2517 H   0  0  0  0  0  0  0  0  0  0  0  0
   66.8706   30.3443   52.2509 H   0  0  0  0  0  0  0  0  0  0  0  0
   64.4743   30.0388   51.6559 H   0  0  0  0  0  0  0  0  0  0  0  0
   62.3680   31.1970   50.0200 H   0  0  0  0  0  0  0  0  0  0  0  0
   62.9924   33.0617   46.3177 H   0  0  0  0  0  0  0  0  0  0  0  0
   61.0914   33.8511   44.9554 H   0  0  0  0  0  0  0  0  0  0  0  0
  1  2  1  0
  2  3  1  0
  3  4  1  0
  4  5  1  0
  5  6  1  0
  6  7  1  0
  4  8  1  0
  8  9  1  0
  9 10  1  0
 10 11  1  0
 11 12  1  0
 12 13  2  0
 13 14  1  0
 14 15  2  0
 15 16  1  0
 16 17  2  0
 17 18  1  0
 18 19  2  0
 19 20  1  0
 20 21  2  0
 21 22  1  0
 22 23  2  0
 23 24  1  0
 15 25  1  0
 25 26  2  0
 26 12  1  0
 24 16  1  0
 23 18  1  0
  1 27  1  0
  1 28  1  0
  1 29  1  0
  2 30  1  0
  2 31  1  0
  3 32  1  0
  3 33  1  0
  5 34  1  0
  5 35  1  0
  6 36  1  0
  6 37  1  0
  7 38  1  0
  7 39  1  0
  7 40  1  0
  8 41  1  0
  8 42  1  0
  9 43  1  0
  9 44  1  0
 10 45  1  0
 10 46  1  0
 13 47  1  0
 14 48  1  0
 19 49  1  0
 20 50  1  0
 21 51  1  0
 22 52  1  0
 24 53  1  0
 25 54  1  0
 26 55  1  0
M  END
>  <smiles>  (19) 
CCCN(CCC)CCCOc1ccc(-c2nc3ccccc3[nH]2)cc1

>  <score_type>  (19) 
oracle

>  <origin>  (19) 
adg

>  <m_score__min__energy>  (19) 
-7.4500000000000002

>  <m_primary>  (19) 
energy

$$$$
19:0
     RDKit          3D

 45 47  0  0  0  0  0  0  0  0999 V2000
   62.2900   34.2170   49.6750 C   0  0  0  0  0  0  0  0  0  0  0  0
   62.3530   33.2780   48.4470 C   0  0  0  0  0  0  0  0  0  0  0  0
   63.5230   33.7530   47.5550 C   0  0  0  0  0  0  0  0  0  0  0  0
   62.6450   31.8520   48.9600 C   0  0  0  0  0  0  0  0  0  0  0  0
   61.0510   33.2730   47.6210 C   0  0  0  0  0  0  0  0  0  0  0  0
   59.8640   32.7680   48.1950 C   0  0  0  0  0  0  0  0  0  0  0  0
   58.6710   32.7210   47.4690 C   0  0  0  0  0  0  0  0  0  0  0  0
   58.6290   33.1670   46.1410 C   0  0  0  0  0  0  0  0  0  0  0  0
   57.3830   33.0700   45.3470 C   0  0  0  0  0  0  0  0  0  0  0  0
   56.5970   34.0540   45.3090 O   0  0  0  0  0  0  0  0  0  0  0  0
   57.0170   31.8720   44.6450 N   0  0  0  0  0  0  0  0  0  0  0  0
   57.0880   30.5310   45.1570 C   0  0  0  0  0  0  0  0  0  0  0  0
   58.1070   30.1300   46.0350 C   0  0  0  0  0  0  0  0  0  0  0  0
   58.1340   28.8220   46.5460 C   0  0  0  0  0  0  0  0  0  0  0  0
   59.1780   28.4080   47.5190 C   0  0  0  0  0  0  0  0  0  0  0  0
   59.6410   29.3020   48.5000 C   0  0  0  0  0  0  0  0  0  0  0  0
   60.6120   28.8840   49.4130 C   0  0  0  0  0  0  0  0  0  0  0  0
   61.1060   27.6190   49.3540 N   0  0  0  0  0  0  0  0  0  0  0  0
   60.6780   26.7320   48.4190 C   0  0  0  0  0  0  0  0  0  0  0  0
   59.7100   27.1080   47.4850 C   0  0  0  0  0  0  0  0  0  0  0  0
   57.1440   27.9220   46.1230 C   0  0  0  0  0  0  0  0  0  0  0  0
   56.1880   28.3180   45.2410 N   0  0  0  0  0  0  0  0  0  0  0  0
   56.1390   29.5840   44.7520 C   0  0  0  0  0  0  0  0  0  0  0  0
   55.2290   29.9000   43.9400 O   0  0  0  0  0  0  0  0  0  0  0  0
   59.7890   33.7020   45.5680 C   0  0  0  0  0  0  0  0  0  0  0  0
   60.9840   33.7510   46.2910 C   0  0  0  0  0  0  0  0  0  0  0  0
   62.3302   33.6182   50.5969 H   0  0  0  0  0  0  0  0  0  0  0  0
   63.1436   34.9103   49.6506 H   0  0  0  0  0  0  0  0  0  0  0  0
   61.3514   34.7901   49.6506 H   0  0  0  0  0  0  0  0  0  0  0  0
   64.3549   34.0907   48.1905 H   0  0  0  0  0  0  0  0  0  0  0  0
   63.8611   32.9209   46.9199 H   0  0  0  0  0  0  0  0  0  0  0  0
   63.1854   34.5853   46.9199 H   0  0  0  0  0  0  0  0  0  0  0  0
   62.6452   31.8509   50.0600 H   0  0  0  0  0  0  0  0  0  0  0  0
   61.8691   31.1642   48.5928 H   0  0  0  0  0  0  0  0  0  0  0  0
   63.6288   31.5245   48.5928 H   0  0  0  0  0  0  0  0  0  0  0  0
   59.8786   32.4048   49.2332 H   0  0  0  0  0  0  0  0  0  0  0  0
   57.7582   32.3311   47.9432 H   0  0  0  0  0  0  0  0  0  0  0  0
   58.8904   30.8456   46.3251 H   0  0  0  0  0  0  0  0  0  0  0  0
   59.2407   30.3254   48.5484 H   0  0  0  0  0  0  0  0  0  0  0  0
   60.9779   29.5804   50.1818 H   0  0  0  0  0  0  0  0  0  0  0  0
   61.0950   25.7143   48.3972 H   0  0  0  0  0  0  0  0  0  0  0  0
   59.3657   26.3897   46.7263 H   0  0  0  0  0  0  0  0  0  0  0  0
   57.1413   26.8911   46.5068 H   0  0  0  0  0  0  0  0  0  0  0  0
   59.7595   34.0877   44.5383 H   0  0  0  0  0  0  0  0  0  0  0  0
   61.8861   34.1675   45.8189 H   0  0  0  0  0  0  0  0  0  0  0  0
  1  2  1  0
  2  3  1  0
  2  4  1  0
  2  5  1  0
  5  6  2  0
  6  7  1  0
  7  8  2  0
  8  9  1  0
  9 10  2  0
  9 11  1  0
 11 12  1  0
 12 13  2  0
 13 14  1  0
 14 15  1  0
 15 16  2  0
 16 17  1  0
 17 18  2  0
 18 19  1  0
 19 20  2  0
 14 21  2  0
 21 22  1  0
 22 23  1  0
 23 24  2  0
  8 25  1  0
 25 26  2  0
 26  5  1  0
 23 12  1  0
 20 15  1  0
  1 27  1  0
  1 28  1  0
  1 29  1  0
  3 30  1  0
  3 31  1  0
  3 32  1  0
  4 33  1  0
  4 34  1  0
  4 35  1  0
  6 36  1  0
  7 37  1  0
 13 38  1  0
 16 39  1  0
 17 40  1  0
 19 41  1  0
 20 42  1  0
 21 43  1  0
 25 44  1  0
 26 45  1  0
M  CHG  2  11  -1  22  -1
M  END
>  <UniqueID>  (20) 
17

>  <SMILES>  (20) 
CC(C)(C)c1ccc(C(=O)[N-]c2cc(-c3ccncc3)c[n-]c2=O)cc1

>  <Energy>  (20) 
62.156244463266546

>  <Genealogy>  (20) 
CC(C)(C)c1ccc(C(=O)[N-]c2cc(-c3ccncc3)c[n-]c2=O)cc1 (protonated)
CC(C)(C)c1ccc(C(=O)[N-]c2cc(-c3ccncc3)c[n-]c2=O)cc1 (3D coordinates assigned)
CC(C)(C)c1ccc(C(=O)[N-]c2cc(-c3ccncc3)c[n-]c2=O)cc1 (optimized conformer: 62.156244463266546 kcal/mol)

>  <smiles>  (20) 
CC(C)(C)c1ccc(C(=O)Nc2cc(-c3ccncc3)c[nH]c2=O)cc1

>  <score_type>  (20) 
oracle

>  <origin>  (20) 
adg

>  <m_score__min__energy>  (20) 
-11.17

>  <m_primary>  (20) 
energy

$$$$
20:0
     RDKit          3D

 47 50  0  0  0  0  0  0  0  0999 V2000
   58.9770   27.1020   47.8690 C   0  0  0  0  0  0  0  0  0  0  0  0
   58.6030   28.4280   47.5090 O   0  0  0  0  0  0  0  0  0  0  0  0
   59.4630   29.5370   47.5550 C   0  0  0  0  0  0  0  0  0  0  0  0
   59.1980   30.6560   48.3680 C   0  0  0  0  0  0  0  0  0  0  0  0
   60.0790   31.7410   48.3850 C   0  0  0  0  0  0  0  0  0  0  0  0
   61.2300   31.7240   47.5950 C   0  0  0  0  0  0  0  0  0  0  0  0
   62.3330   33.0880   47.6160 Cl  0  0  0  0  0  0  0  0  0  0  0  0
   61.5030   30.6180   46.7850 C   0  0  0  0  0  0  0  0  0  0  0  0
   60.6220   29.5280   46.7590 C   0  0  0  0  0  0  0  0  0  0  0  0
   60.9910   28.1280   45.6970 S   0  0  0  0  0  0  0  0  0  0  0  0
   59.5440   28.4080   44.6830 C   0  0  0  0  0  0  0  0  0  0  0  0
   58.8920   27.3270   44.0470 C   0  0  0  0  0  0  0  0  0  0  0  0
   57.7520   27.5610   43.2590 C   0  0  0  0  0  0  0  0  0  0  0  0
   57.3240   28.8790   43.1540 C   0  0  0  0  0  0  0  0  0  0  0  0
   56.2840   29.3670   42.4580 N   0  0  0  0  0  0  0  0  0  0  0  0
   56.2730   30.6870   42.6360 N   0  0  0  0  0  0  0  0  0  0  0  0
   57.3130   30.9780   43.4570 C   0  0  0  0  0  0  0  0  0  0  0  0
   57.7090   32.3640   43.8660 C   0  0  0  0  0  0  0  0  0  0  0  0
   57.1040   32.7370   45.2240 C   0  0  0  0  0  0  0  0  0  0  0  0
   57.6610   34.0080   45.7310 N   0  0  0  0  0  0  0  0  0  0  0  0
   58.1300   33.9130   47.1180 C   0  0  0  0  0  0  0  0  0  0  0  0
   59.2610   34.9210   47.2760 C   0  0  0  0  0  0  0  0  0  0  0  0
   59.6550   35.3180   45.8640 C   0  0  0  0  0  0  0  0  0  0  0  0
   58.8310   34.4240   44.9550 C   0  0  0  0  0  0  0  0  0  0  0  0
   57.9780   29.8560   43.7770 N   0  0  0  0  0  0  0  0  0  0  0  0
   59.0630   29.6760   44.5250 N   0  0  0  0  0  0  0  0  0  0  0  0
   59.0021   27.0129   48.9651 H   0  0  0  0  0  0  0  0  0  0  0  0
   58.2445   26.3906   47.4600 H   0  0  0  0  0  0  0  0  0  0  0  0
   59.9733   26.8782   47.4600 H   0  0  0  0  0  0  0  0  0  0  0  0
   58.2930   30.6762   48.9929 H   0  0  0  0  0  0  0  0  0  0  0  0
   59.8648   32.6111   49.0229 H   0  0  0  0  0  0  0  0  0  0  0  0
   62.4121   30.6029   46.1660 H   0  0  0  0  0  0  0  0  0  0  0  0
   59.2765   26.3036   44.1687 H   0  0  0  0  0  0  0  0  0  0  0  0
   57.2243   26.7409   42.7502 H   0  0  0  0  0  0  0  0  0  0  0  0
   55.6050   28.8350   41.8700 H   0  0  0  0  0  0  0  0  0  0  0  0
   58.8055   32.4179   43.9350 H   0  0  0  0  0  0  0  0  0  0  0  0
   57.3319   33.0702   43.1116 H   0  0  0  0  0  0  0  0  0  0  0  0
   56.0146   32.8423   45.1138 H   0  0  0  0  0  0  0  0  0  0  0  0
   57.3483   31.9407   45.9425 H   0  0  0  0  0  0  0  0  0  0  0  0
   57.3104   34.1532   47.8112 H   0  0  0  0  0  0  0  0  0  0  0  0
   58.4774   32.8945   47.3459 H   0  0  0  0  0  0  0  0  0  0  0  0
   58.9157   35.8002   47.8398 H   0  0  0  0  0  0  0  0  0  0  0  0
   60.1102   34.4960   47.8311 H   0  0  0  0  0  0  0  0  0  0  0  0
   59.4191   36.3767   45.6809 H   0  0  0  0  0  0  0  0  0  0  0  0
   60.7345   35.1989   45.6894 H   0  0  0  0  0  0  0  0  0  0  0  0
   58.5153   34.9798   44.0598 H   0  0  0  0  0  0  0  0  0  0  0  0
   59.4140   33.5546   44.6170 H   0  0  0  0  0  0  0  0  0  0  0  0
  1  2  1  0
  2  3  1  0
  3  4  2  0
  4  5  1  0
  5  6  2  0
  6  7  1  0
  6  8  1  0
  8  9  2  0
  9 10  1  0
 10 11  1  0
 11 12  1  0
 12 13  2  0
 13 14  1  0
 14 15  2  0
 15 16  1  0
 16 17  2  0
 17 18  1  0
 18 19  1  0
 19 20  1  0
 20 21  1  0
 21 22  1  0
 22 23  1  0
 23 24  1  0
 17 25  1  0
 25 26  1  0
  9  3  1  0
 26 11  2  0
 25 14  1  0
 24 20  1  0
  1 27  1  0
  1 28  1  0
  1 29  1  0
  4 30  1  0
  5 31  1  0
  8 32  1  0
 12 33  1  0
 13 34  1  0
 15 35  1  0
 18 36  1  0
 18 37  1  0
 19 38  1  0
 19 39  1  0
 21 40  1  0
 21 41  1  0
 22 42  1  0
 22 43  1  0
 23 44  1  0
 23 45  1  0
 24 46  1  0
 24 47  1  0
M  CHG  1  15   1
M  END
>  <UniqueID>  (21) 
18

>  <SMILES>  (21) 
COc1ccc(Cl)cc1Sc1ccc2[nH+]nc(CCN3CCCC3)n2n1

>  <Energy>  (21) 
87.6910074810317

>  <Genealogy>  (21) 
COc1ccc(Cl)cc1Sc1ccc2[nH+]nc(CCN3CCCC3)n2n1 (protonated)
COc1ccc(Cl)cc1Sc1ccc2[nH+]nc(CCN3CCCC3)n2n1 (3D coordinates assigned)
COc1ccc(Cl)cc1Sc1ccc2[nH+]nc(CCN3CCCC3)n2n1 (nonaromatic ring conformer: 87.6910074810317 kcal/mol)

>  <smiles>  (21) 
COc1ccc(Cl)cc1Sc1ccc2nnc(CCN3CCCC3)n2n1

>  <score_type>  (21) 
oracle

>  <origin>  (21) 
adg

>  <m_score__min__energy>  (21) 
-8.1799999999999997

>  <m_primary>  (21) 
energy

$$$$
21:0
     RDKit          3D

 44 46  0  0  0  0  0  0  0  0999 V2000
   60.4970   29.8030   47.4290 C   0  0  0  0  0  0  0  0  0  0  0  0
   61.5570   30.8640   47.1470 C   0  0  0  0  0  0  0  0  0  0  0  0
   62.0160   31.6230   48.4020 C   0  0  0  0  0  0  0  0  0  0  0  0
   61.9010   33.0920   48.2150 N   0  0  0  0  0  0  0  0  0  0  0  0
   63.2130   33.6980   47.8860 C   0  0  0  0  0  0  0  0  0  0  0  0
   63.3660   33.8400   46.3740 C   0  0  0  0  0  0  0  0  0  0  0  0
   61.2870   33.7590   49.3940 C   0  0  0  0  0  0  0  0  0  0  0  0
   59.8160   34.1080   49.1270 C   0  0  0  0  0  0  0  0  0  0  0  0
   59.4380   33.9670   47.6760 C   0  0  0  0  0  0  0  0  0  0  0  0
   59.6500   35.0310   46.7690 C   0  0  0  0  0  0  0  0  0  0  0  0
   59.3110   34.8970   45.4130 C   0  0  0  0  0  0  0  0  0  0  0  0
   58.7550   33.6910   45.0000 C   0  0  0  0  0  0  0  0  0  0  0  0
   58.3760   33.3900   43.7310 N   0  0  0  0  0  0  0  0  0  0  0  0
   57.9120   32.1270   43.8630 C   0  0  0  0  0  0  0  0  0  0  0  0
   57.3900   31.3070   42.8650 C   0  0  0  0  0  0  0  0  0  0  0  0
   56.9660   30.0160   43.2320 C   0  0  0  0  0  0  0  0  0  0  0  0
   57.0730   29.5780   44.5720 C   0  0  0  0  0  0  0  0  0  0  0  0
   57.6040   30.4260   45.5600 C   0  0  0  0  0  0  0  0  0  0  0  0
   58.0140   31.6980   45.1610 C   0  0  0  0  0  0  0  0  0  0  0  0
   58.5480   32.6900   45.8840 N   0  0  0  0  0  0  0  0  0  0  0  0
   58.8580   32.7750   47.2030 C   0  0  0  0  0  0  0  0  0  0  0  0
   60.3778   29.6837   48.5160 H   0  0  0  0  0  0  0  0  0  0  0  0
   59.5392   30.1151   46.9871 H   0  0  0  0  0  0  0  0  0  0  0  0
   60.8100   28.8455   46.9871 H   0  0  0  0  0  0  0  0  0  0  0  0
   62.4323   30.3708   46.6991 H   0  0  0  0  0  0  0  0  0  0  0  0
   61.1022   31.6031   46.4710 H   0  0  0  0  0  0  0  0  0  0  0  0
   61.3893   31.3198   49.2536 H   0  0  0  0  0  0  0  0  0  0  0  0
   63.0718   31.3780   48.5899 H   0  0  0  0  0  0  0  0  0  0  0  0
   63.2811   34.6918   48.3526 H   0  0  0  0  0  0  0  0  0  0  0  0
   64.0137   33.0473   48.2674 H   0  0  0  0  0  0  0  0  0  0  0  0
   64.1558   34.5730   46.1526 H   0  0  0  0  0  0  0  0  0  0  0  0
   63.6372   32.8664   45.9399 H   0  0  0  0  0  0  0  0  0  0  0  0
   62.4153   34.1830   45.9399 H   0  0  0  0  0  0  0  0  0  0  0  0
   61.3445   33.0829   50.2598 H   0  0  0  0  0  0  0  0  0  0  0  0
   61.8366   34.6906   49.5942 H   0  0  0  0  0  0  0  0  0  0  0  0
   59.1813   33.4355   49.7227 H   0  0  0  0  0  0  0  0  0  0  0  0
   59.6689   35.1615   49.4072 H   0  0  0  0  0  0  0  0  0  0  0  0
   60.0855   35.9745   47.1299 H   0  0  0  0  0  0  0  0  0  0  0  0
   59.4796   35.7185   44.7011 H   0  0  0  0  0  0  0  0  0  0  0  0
   57.3118   31.6568   41.8250 H   0  0  0  0  0  0  0  0  0  0  0  0
   56.5478   29.3421   42.4698 H   0  0  0  0  0  0  0  0  0  0  0  0
   56.7383   28.5660   44.8438 H   0  0  0  0  0  0  0  0  0  0  0  0
   57.6926   30.0990   46.6065 H   0  0  0  0  0  0  0  0  0  0  0  0
   58.6610   31.9342   47.8843 H   0  0  0  0  0  0  0  0  0  0  0  0
  1  2  1  0
  2  3  1  0
  3  4  1  0
  4  5  1  0
  5  6  1  0
  4  7  1  0
  7  8  1  0
  8  9  1  0
  9 10  1  0
 10 11  2  0
 11 12  1  0
 12 13  2  0
 13 14  1  0
 14 15  2  0
 15 16  1  0
 16 17  2  0
 17 18  1  0
 18 19  2  0
 19 20  1  0
 20 21  1  0
 21  9  2  0
 20 12  1  0
 19 14  1  0
  1 22  1  0
  1 23  1  0
  1 24  1  0
  2 25  1  0
  2 26  1  0
  3 27  1  0
  3 28  1  0
  5 29  1  0
  5 30  1  0
  6 31  1  0
  6 32  1  0
  6 33  1  0
  7 34  1  0
  7 35  1  0
  8 36  1  0
  8 37  1  0
 10 38  1  0
 11 39  1  0
 15 40  1  0
 16 41  1  0
 17 42  1  0
 18 43  1  0
 21 44  1  0
M  END
>  <UniqueID>  (22) 
19

>  <SMILES>  (22) 
CCCN(CC)CCc1ccc2nc3ccccc3n2c1

>  <Energy>  (22) 
85.16509871727722

>  <Genealogy>  (22) 
CCCN(CC)CCc1ccc2nc3ccccc3n2c1 (3D coordinates assigned)
CCCN(CC)CCc1ccc2nc3ccccc3n2c1 (optimized conformer: 85.16509871727722 kcal/mol)

>  <smiles>  (22) 
CCCN(CC)CCc1ccc2nc3ccccc3n2c1

>  <score_type>  (22) 
oracle

>  <origin>  (22) 
adg

>  <m_score__min__energy>  (22) 
-6.9699999999999998

>  <m_primary>  (22) 
energy

$$$$
22:0
     RDKit          3D

 37 40  0  0  0  0  0  0  0  0999 V2000
   55.6800   28.5960   43.4370 H   0  0  0  0  0  0  0  0  0  0  0  0
   55.7570   29.5090   43.9390 N   0  0  0  0  0  0  0  0  0  0  0  0
   56.6420   29.6920   44.8660 C   0  0  0  0  0  0  0  0  0  0  0  0
   57.0560   30.9170   45.2500 N   0  0  0  0  0  0  0  0  0  0  0  0
   57.9950   30.6630   46.1840 C   0  0  0  0  0  0  0  0  0  0  0  0
   58.5676   31.4270   46.7303 H   0  0  0  0  0  0  0  0  0  0  0  0
   58.1290   29.2980   46.3510 C   0  0  0  0  0  0  0  0  0  0  0  0
   59.0230   28.6380   47.3290 C   0  0  0  0  0  0  0  0  0  0  0  0
   59.1970   29.1920   48.6090 C   0  0  0  0  0  0  0  0  0  0  0  0
   58.6709   30.1192   48.8801 H   0  0  0  0  0  0  0  0  0  0  0  0
   60.0360   28.5700   49.5400 C   0  0  0  0  0  0  0  0  0  0  0  0
   60.1732   29.0126   50.5376 H   0  0  0  0  0  0  0  0  0  0  0  0
   60.7000   27.3870   49.2040 C   0  0  0  0  0  0  0  0  0  0  0  0
   61.5130   26.7860   50.1070 F   0  0  0  0  0  0  0  0  0  0  0  0
   60.5200   26.8200   47.9400 C   0  0  0  0  0  0  0  0  0  0  0  0
   61.0389   25.8861   47.6781 H   0  0  0  0  0  0  0  0  0  0  0  0
   59.6810   27.4380   47.0070 C   0  0  0  0  0  0  0  0  0  0  0  0
   59.5352   26.9828   46.0163 H   0  0  0  0  0  0  0  0  0  0  0  0
   57.2680   28.6810   45.5100 N   0  0  0  0  0  0  0  0  0  0  0  0
   57.1270   27.2730   45.2500 C   0  0  0  0  0  0  0  0  0  0  0  0
   57.7920   26.6830   44.1670 C   0  0  0  0  0  0  0  0  0  0  0  0
   58.4306   27.2987   43.5166 H   0  0  0  0  0  0  0  0  0  0  0  0
   57.6490   25.3170   43.9080 C   0  0  0  0  0  0  0  0  0  0  0  0
   58.1740   24.8669   43.0525 H   0  0  0  0  0  0  0  0  0  0  0  0
   56.8400   24.5120   44.7310 C   0  0  0  0  0  0  0  0  0  0  0  0
   56.6830   23.0610   44.4550 C   0  0  0  0  0  0  0  0  0  0  0  0
   56.3600   22.1220   45.4350 C   0  0  0  0  0  0  0  0  0  0  0  0
   56.1901   22.3356   46.5006 H   0  0  0  0  0  0  0  0  0  0  0  0
   56.2750   20.6090   44.7090 S   0  0  0  0  0  0  0  0  0  0  0  0
   56.6470   21.1140   43.1530 C   0  0  0  0  0  0  0  0  0  0  0  0
   56.7225   20.4681   42.2658 H   0  0  0  0  0  0  0  0  0  0  0  0
   56.8430   22.4880   43.1790 C   0  0  0  0  0  0  0  0  0  0  0  0
   57.0997   23.0751   42.2849 H   0  0  0  0  0  0  0  0  0  0  0  0
   56.1800   25.1090   45.8220 C   0  0  0  0  0  0  0  0  0  0  0  0
   55.5443   24.4954   46.4772 H   0  0  0  0  0  0  0  0  0  0  0  0
   56.3260   26.4740   46.0790 C   0  0  0  0  0  0  0  0  0  0  0  0
   55.8088   26.9259   46.9382 H   0  0  0  0  0  0  0  0  0  0  0  0
  1  2  1  0
  2  3  2  0
  3  4  1  0
  4  5  1  0
  5  6  1  0
  5  7  2  0
  7  8  1  0
  8  9  2  0
  9 10  1  0
  9 11  1  0
 11 12  1  0
 11 13  2  0
 13 14  1  0
 13 15  1  0
 15 16  1  0
 15 17  2  0
 17 18  1  0
  7 19  1  0
 19 20  1  0
 20 21  2  0
 21 22  1  0
 21 23  1  0
 23 24  1  0
 23 25  2  0
 25 26  1  0
 26 27  2  0
 27 28  1  0
 27 29  1  0
 29 30  1  0
 30 31  1  0
 30 32  2  0
 32 33  1  0
 25 34  1  0
 34 35  1  0
 34 36  2  0
 36 37  1  0
 19  3  1  0
 36 20  1  0
 17  8  1  0
 32 26  1  0
M  CHG  1   4  -1
M  END
>  <UniqueID>  (23) 
20

>  <SMILES>  (23) 
[H]/N=c1\[n-]cc(-c2ccc(F)cc2)n1-c1ccc(-c2ccsc2)cc1

>  <Energy>  (23) 
111.30242503643298

>  <Genealogy>  (23) 
N=c1[n-]cc(-c2ccc(F)cc2)n1-c1ccc(-c2ccsc2)cc1 (protonated)
[H]/N=c1\[n-]cc(-c2ccc(F)cc2)n1-c1ccc(-c2ccsc2)cc1 (cis-trans isomerization)
[H]/N=c1\[n-]cc(-c2ccc(F)cc2)n1-c1ccc(-c2ccsc2)cc1 (3D coordinates assigned)
[H]/N=c1\[n-]cc(-c2ccc(F)cc2)n1-c1ccc(-c2ccsc2)cc1 (optimized conformer: 111.30242503643298 kcal/mol)

>  <smiles>  (23) 
N=c1[nH]cc(-c2ccc(F)cc2)n1-c1ccc(-c2ccsc2)cc1

>  <score_type>  (23) 
oracle

>  <origin>  (23) 
adg

>  <m_score__min__energy>  (23) 
-8.3699999999999992

>  <m_primary>  (23) 
energy

$$$$
23:0
     RDKit          3D

 32 34  0  0  0  0  0  0  0  0999 V2000
   58.2220   22.5230   45.7270 C   0  0  0  0  0  0  0  0  0  0  0  0
   58.8060   23.7060   45.1890 O   0  0  0  0  0  0  0  0  0  0  0  0
   58.2910   24.9980   45.3730 C   0  0  0  0  0  0  0  0  0  0  0  0
   59.1820   26.0760   45.3610 C   0  0  0  0  0  0  0  0  0  0  0  0
   58.7170   27.3820   45.5360 C   0  0  0  0  0  0  0  0  0  0  0  0
   57.3510   27.6330   45.7060 C   0  0  0  0  0  0  0  0  0  0  0  0
   56.9150   28.9870   45.8870 N   0  0  0  0  0  0  0  0  0  0  0  0
   56.3260   29.8250   44.8830 C   0  0  0  0  0  0  0  0  0  0  0  0
   55.1370   29.6050   44.5360 O   0  0  0  0  0  0  0  0  0  0  0  0
   57.0520   30.9840   44.3190 C   0  0  0  0  0  0  0  0  0  0  0  0
   57.2750   31.2340   42.9720 C   0  0  0  0  0  0  0  0  0  0  0  0
   58.0060   32.3640   42.8260 N   0  0  0  0  0  0  0  0  0  0  0  0
   58.2110   32.7740   44.0940 C   0  0  0  0  0  0  0  0  0  0  0  0
   58.9150   33.9160   44.4710 C   0  0  0  0  0  0  0  0  0  0  0  0
   59.0160   34.1990   45.8420 C   0  0  0  0  0  0  0  0  0  0  0  0
   58.4160   33.3490   46.7870 C   0  0  0  0  0  0  0  0  0  0  0  0
   57.7180   32.2120   46.3530 C   0  0  0  0  0  0  0  0  0  0  0  0
   57.6540   31.9670   45.0150 N   0  0  0  0  0  0  0  0  0  0  0  0
   56.4530   26.5500   45.7490 C   0  0  0  0  0  0  0  0  0  0  0  0
   55.1340   26.7470   46.0010 F   0  0  0  0  0  0  0  0  0  0  0  0
   56.9190   25.2440   45.5740 C   0  0  0  0  0  0  0  0  0  0  0  0
   58.2451   22.5697   46.8258 H   0  0  0  0  0  0  0  0  0  0  0  0
   57.1797   22.4406   45.3853 H   0  0  0  0  0  0  0  0  0  0  0  0
   58.7904   21.6454   45.3853 H   0  0  0  0  0  0  0  0  0  0  0  0
   60.2567   25.8944   45.2127 H   0  0  0  0  0  0  0  0  0  0  0  0
   59.4304   28.2193   45.5401 H   0  0  0  0  0  0  0  0  0  0  0  0
   56.9113   30.6064   42.1450 H   0  0  0  0  0  0  0  0  0  0  0  0
   59.3761   34.5736   43.7193 H   0  0  0  0  0  0  0  0  0  0  0  0
   59.5670   35.0897   46.1783 H   0  0  0  0  0  0  0  0  0  0  0  0
   58.4933   33.5740   47.8610 H   0  0  0  0  0  0  0  0  0  0  0  0
   57.2352   31.5364   47.0744 H   0  0  0  0  0  0  0  0  0  0  0  0
   56.2099   24.4033   45.5934 H   0  0  0  0  0  0  0  0  0  0  0  0
  1  2  1  0
  2  3  1  0
  3  4  2  0
  4  5  1  0
  5  6  2  0
  6  7  1  0
  7  8  1  0
  8  9  2  0
  8 10  1  0
 10 11  2  0
 11 12  1  0
 12 13  2  0
 13 14  1  0
 14 15  2  0
 15 16  1  0
 16 17  2  0
 17 18  1  0
  6 19  1  0
 19 20  1  0
 19 21  2  0
 21  3  1  0
 18 10  1  0
 18 13  1  0
  1 22  1  0
  1 23  1  0
  1 24  1  0
  4 25  1  0
  5 26  1  0
 11 27  1  0
 14 28  1  0
 15 29  1  0
 16 30  1  0
 17 31  1  0
 21 32  1  0
M  CHG  1   7  -1
M  END
>  <UniqueID>  (24) 
21

>  <SMILES>  (24) 
COc1ccc([N-]C(=O)c2cnc3ccccn23)c(F)c1

>  <Energy>  (24) 
76.97083332170104

>  <Genealogy>  (24) 
COc1ccc([N-]C(=O)c2cnc3ccccn23)c(F)c1 (protonated)
COc1ccc([N-]C(=O)c2cnc3ccccn23)c(F)c1 (3D coordinates assigned)
COc1ccc([N-]C(=O)c2cnc3ccccn23)c(F)c1 (optimized conformer: 76.97083332170104 kcal/mol)

>  <smiles>  (24) 
COc1ccc(NC(=O)c2cnc3ccccn23)c(F)c1

>  <score_type>  (24) 
oracle

>  <origin>  (24) 
adg

>  <m_score__min__energy>  (24) 
-7.9699999999999998

>  <m_primary>  (24) 
energy

$$$$
24:0
     RDKit          3D

 28 29  0  0  0  0  0  0  0  0999 V2000
   60.4190   34.0480   48.6630 C   0  0  0  0  0  0  0  0  0  0  0  0
   59.5640   34.3360   47.5600 O   0  0  0  0  0  0  0  0  0  0  0  0
   58.9690   33.3670   46.7340 C   0  0  0  0  0  0  0  0  0  0  0  0
   58.5950   32.1060   47.2300 C   0  0  0  0  0  0  0  0  0  0  0  0
   58.0270   31.1480   46.3920 C   0  0  0  0  0  0  0  0  0  0  0  0
   57.8290   31.4210   45.0260 C   0  0  0  0  0  0  0  0  0  0  0  0
   57.2800   30.4720   44.1250 C   0  0  0  0  0  0  0  0  0  0  0  0
   56.8300   29.0930   44.5500 C   0  0  0  0  0  0  0  0  0  0  0  0
   55.4840   29.1200   44.9380 O   0  0  0  0  0  0  0  0  0  0  0  0
   57.1020   30.8460   42.7860 C   0  0  0  0  0  0  0  0  0  0  0  0
   57.4920   32.1170   42.3690 C   0  0  0  0  0  0  0  0  0  0  0  0
   57.3470   32.4550   41.1650 O   0  0  0  0  0  0  0  0  0  0  0  0
   58.0160   32.9760   43.2320 O   0  0  0  0  0  0  0  0  0  0  0  0
   58.1950   32.6940   44.5210 C   0  0  0  0  0  0  0  0  0  0  0  0
   58.7470   33.6700   45.3760 C   0  0  0  0  0  0  0  0  0  0  0  0
   59.1670   35.0110   44.8280 C   0  0  0  0  0  0  0  0  0  0  0  0
   59.8782   34.2301   49.6034 H   0  0  0  0  0  0  0  0  0  0  0  0
   60.7327   32.9946   48.6185 H   0  0  0  0  0  0  0  0  0  0  0  0
   61.3061   34.6969   48.6185 H   0  0  0  0  0  0  0  0  0  0  0  0
   58.7527   31.8723   48.2933 H   0  0  0  0  0  0  0  0  0  0  0  0
   57.7312   30.1709   46.8017 H   0  0  0  0  0  0  0  0  0  0  0  0
   56.9512   28.3959   43.7078 H   0  0  0  0  0  0  0  0  0  0  0  0
   57.4421   28.7632   45.4024 H   0  0  0  0  0  0  0  0  0  0  0  0
   55.1460   28.1900   44.8740 H   0  0  0  0  0  0  0  0  0  0  0  0
   56.6572   30.1405   42.0688 H   0  0  0  0  0  0  0  0  0  0  0  0
   59.3817   35.6966   45.6610 H   0  0  0  0  0  0  0  0  0  0  0  0
   60.0699   34.8888   44.2117 H   0  0  0  0  0  0  0  0  0  0  0  0
   58.3557   35.4256   44.2117 H   0  0  0  0  0  0  0  0  0  0  0  0
  1  2  1  0
  2  3  1  0
  3  4  2  0
  4  5  1  0
  5  6  2  0
  6  7  1  0
  7  8  1  0
  8  9  1  0
  7 10  2  0
 10 11  1  0
 11 12  2  0
 11 13  1  0
 13 14  1  0
 14 15  2  0
 15 16  1  0
 15  3  1  0
 14  6  1  0
  1 17  1  0
  1 18  1  0
  1 19  1  0
  4 20  1  0
  5 21  1  0
  8 22  1  0
  8 23  1  0
  9 24  1  0
 10 25  1  0
 16 26  1  0
 16 27  1  0
 16 28  1  0
M  END
>  <UniqueID>  (25) 
22

>  <SMILES>  (25) 
COc1ccc2c(CO)cc(=O)oc2c1C

>  <Energy>  (25) 
35.00830752493958

>  <Genealogy>  (25) 
COc1ccc2c(CO)cc(=O)oc2c1C (3D coordinates assigned)
COc1ccc2c(CO)cc(=O)oc2c1C (optimized conformer: 35.00830752493958 kcal/mol)

>  <smiles>  (25) 
COc1ccc2c(CO)cc(=O)oc2c1C

>  <score_type>  (25) 
oracle

>  <origin>  (25) 
adg

>  <m_score__min__energy>  (25) 
-6.6100000000000003

>  <m_primary>  (25) 
energy

$$$$
25:0
     RDKit          3D

 45 47  0  0  0  0  0  0  0  0999 V2000
   59.5090   34.8260   46.5780 C   0  0  0  0  0  0  0  0  0  0  0  0
   58.8990   34.5040   45.2040 C   0  0  0  0  0  0  0  0  0  0  0  0
   58.2050   33.1930   45.1320 N   0  0  0  0  0  0  0  0  0  0  0  0
   58.0800   32.6930   43.7450 C   0  0  0  0  0  0  0  0  0  0  0  0
   57.1440   31.4800   43.7090 C   0  0  0  0  0  0  0  0  0  0  0  0
   57.4930   30.5220   44.7640 N   0  0  0  0  0  0  0  0  0  0  0  0
   56.6580   29.3650   44.9630 C   0  0  0  0  0  0  0  0  0  0  0  0
   55.4090   29.4730   44.8210 O   0  0  0  0  0  0  0  0  0  0  0  0
   57.2280   28.0470   45.3210 C   0  0  0  0  0  0  0  0  0  0  0  0
   56.4520   27.0900   45.9980 C   0  0  0  0  0  0  0  0  0  0  0  0
   56.9960   25.8490   46.3360 C   0  0  0  0  0  0  0  0  0  0  0  0
   58.3240   25.5400   45.9950 C   0  0  0  0  0  0  0  0  0  0  0  0
   58.9130   24.2770   46.3330 N   0  0  0  0  0  0  0  0  0  0  0  0
   59.1520   23.1910   45.4290 C   0  0  0  0  0  0  0  0  0  0  0  0
   60.2670   22.6070   45.4640 O   0  0  0  0  0  0  0  0  0  0  0  0
   58.1550   22.7740   44.4250 C   0  0  0  0  0  0  0  0  0  0  0  0
   57.9560   21.4880   43.9310 C   0  0  0  0  0  0  0  0  0  0  0  0
   56.9080   21.4050   43.0080 C   0  0  0  0  0  0  0  0  0  0  0  0
   56.2680   22.6150   42.7790 C   0  0  0  0  0  0  0  0  0  0  0  0
   57.0090   23.7900   43.7270 S   0  0  0  0  0  0  0  0  0  0  0  0
   59.1110   26.5080   45.3620 C   0  0  0  0  0  0  0  0  0  0  0  0
   58.5690   27.7520   45.0250 C   0  0  0  0  0  0  0  0  0  0  0  0
   58.7020   30.7350   45.5690 C   0  0  0  0  0  0  0  0  0  0  0  0
   58.7920   32.1920   46.0690 C   0  0  0  0  0  0  0  0  0  0  0  0
   58.8348   34.4701   47.3710 H   0  0  0  0  0  0  0  0  0  0  0  0
   60.4836   34.3249   46.6730 H   0  0  0  0  0  0  0  0  0  0  0  0
   59.6450   35.9134   46.6730 H   0  0  0  0  0  0  0  0  0  0  0  0
   58.1721   35.2919   44.9573 H   0  0  0  0  0  0  0  0  0  0  0  0
   59.7367   34.4548   44.4928 H   0  0  0  0  0  0  0  0  0  0  0  0
   57.2280   33.3790   45.4680 H   0  0  0  0  0  0  0  0  0  0  0  0
   57.6699   33.4890   43.1061 H   0  0  0  0  0  0  0  0  0  0  0  0
   59.0729   32.3948   43.3772 H   0  0  0  0  0  0  0  0  0  0  0  0
   56.1082   31.8190   43.8578 H   0  0  0  0  0  0  0  0  0  0  0  0
   57.2474   30.9833   42.7330 H   0  0  0  0  0  0  0  0  0  0  0  0
   55.4096   27.3202   46.2632 H   0  0  0  0  0  0  0  0  0  0  0  0
   56.3822   25.1098   46.8716 H   0  0  0  0  0  0  0  0  0  0  0  0
   58.5627   20.6227   44.2361 H   0  0  0  0  0  0  0  0  0  0  0  0
   56.6182   20.4679   42.5101 H   0  0  0  0  0  0  0  0  0  0  0  0
   55.4218   22.7775   42.0952 H   0  0  0  0  0  0  0  0  0  0  0  0
   60.1632   26.2890   45.1278 H   0  0  0  0  0  0  0  0  0  0  0  0
   59.1967   28.5043   44.5250 H   0  0  0  0  0  0  0  0  0  0  0  0
   58.6788   30.0591   46.4365 H   0  0  0  0  0  0  0  0  0  0  0  0
   59.5799   30.5288   44.9390 H   0  0  0  0  0  0  0  0  0  0  0  0
   58.2584   32.2619   47.0284 H   0  0  0  0  0  0  0  0  0  0  0  0
   59.8618   32.4312   46.1605 H   0  0  0  0  0  0  0  0  0  0  0  0
  1  2  1  0
  2  3  1  0
  3  4  1  0
  4  5  1  0
  5  6  1  0
  6  7  1  0
  7  8  2  0
  7  9  1  0
  9 10  2  0
 10 11  1  0
 11 12  2  0
 12 13  1  0
 13 14  1  0
 14 15  2  0
 14 16  1  0
 16 17  2  0
 17 18  1  0
 18 19  2  0
 19 20  1  0
 12 21  1  0
 21 22  2  0
  6 23  1  0
 23 24  1  0
 24  3  1  0
 22  9  1  0
 20 16  1  0
  1 25  1  0
  1 26  1  0
  1 27  1  0
  2 28  1  0
  2 29  1  0
  3 30  1  0
  4 31  1  0
  4 32  1  0
  5 33  1  0
  5 34  1  0
 10 35  1  0
 11 36  1  0
 17 37  1  0
 18 38  1  0
 19 39  1  0
 21 40  1  0
 22 41  1  0
 23 42  1  0
 23 43  1  0
 24 44  1  0
 24 45  1  0
M  CHG  2   3   1  13  -1
M  END
>  <UniqueID>  (26) 
23

>  <SMILES>  (26) 
CC[NH+]1CCN(C(=O)c2ccc([N-]C(=O)c3cccs3)cc2)CC1

>  <Energy>  (26) 
89.70877722721418

>  <Genealogy>  (26) 
CC[NH+]1CCN(C(=O)c2ccc([N-]C(=O)c3cccs3)cc2)CC1 (protonated)
CC[NH+]1CCN(C(=O)c2ccc([N-]C(=O)c3cccs3)cc2)CC1 (3D coordinates assigned)
CC[NH+]1CCN(C(=O)c2ccc([N-]C(=O)c3cccs3)cc2)CC1 (nonaromatic ring conformer: 89.70877722721418 kcal/mol)

>  <smiles>  (26) 
CCN1CCN(C(=O)c2ccc(NC(=O)c3cccs3)cc2)CC1

>  <score_type>  (26) 
oracle

>  <origin>  (26) 
adg

>  <m_score__min__energy>  (26) 
-8.1300000000000008

>  <m_primary>  (26) 
energy

$$$$
26:0
     RDKit          3D

 48 50  0  0  0  0  0  0  0  0999 V2000
   63.5010   32.7050   47.4940 C   0  0  0  0  0  0  0  0  0  0  0  0
   62.6730   33.7690   46.7760 C   0  0  0  0  0  0  0  0  0  0  0  0
   61.2710   33.3240   46.6310 N   0  0  0  0  0  0  0  0  0  0  0  0
   60.3570   34.2390   47.3470 C   0  0  0  0  0  0  0  0  0  0  0  0
   58.9470   33.6330   47.5290 C   0  0  0  0  0  0  0  0  0  0  0  0
   58.6800   32.5230   46.5890 N   0  0  0  0  0  0  0  0  0  0  0  0
   58.5330   32.9750   45.1860 C   0  0  0  0  0  0  0  0  0  0  0  0
   57.7820   31.9560   44.3690 C   0  0  0  0  0  0  0  0  0  0  0  0
   57.7380   32.0540   42.9690 C   0  0  0  0  0  0  0  0  0  0  0  0
   57.0140   31.1230   42.2220 C   0  0  0  0  0  0  0  0  0  0  0  0
   56.3350   30.0840   42.8620 C   0  0  0  0  0  0  0  0  0  0  0  0
   56.3860   29.9630   44.2620 C   0  0  0  0  0  0  0  0  0  0  0  0
   55.6830   28.9200   44.9550 N   0  0  0  0  0  0  0  0  0  0  0  0
   56.2780   27.7900   45.6080 C   0  0  0  0  0  0  0  0  0  0  0  0
   55.5340   26.8300   45.9430 O   0  0  0  0  0  0  0  0  0  0  0  0
   57.7200   27.7440   45.9460 C   0  0  0  0  0  0  0  0  0  0  0  0
   58.6850   27.9590   44.9460 C   0  0  0  0  0  0  0  0  0  0  0  0
   60.0480   27.9140   45.2570 C   0  0  0  0  0  0  0  0  0  0  0  0
   60.4590   27.6430   46.5640 C   0  0  0  0  0  0  0  0  0  0  0  0
   59.5100   27.4130   47.5620 C   0  0  0  0  0  0  0  0  0  0  0  0
   58.1460   27.4570   47.2550 C   0  0  0  0  0  0  0  0  0  0  0  0
   57.0920   30.9140   45.0090 C   0  0  0  0  0  0  0  0  0  0  0  0
   59.6790   31.4360   46.7360 C   0  0  0  0  0  0  0  0  0  0  0  0
   61.0860   31.9440   47.1110 C   0  0  0  0  0  0  0  0  0  0  0  0
   63.4004   32.8343   48.5817 H   0  0  0  0  0  0  0  0  0  0  0  0
   63.1406   31.7056   47.2087 H   0  0  0  0  0  0  0  0  0  0  0  0
   64.5583   32.8088   47.2087 H   0  0  0  0  0  0  0  0  0  0  0  0
   62.6983   34.7015   47.3589 H   0  0  0  0  0  0  0  0  0  0  0  0
   63.0985   33.9353   45.7754 H   0  0  0  0  0  0  0  0  0  0  0  0
   60.7795   34.4568   48.3390 H   0  0  0  0  0  0  0  0  0  0  0  0
   60.2557   35.1539   46.7448 H   0  0  0  0  0  0  0  0  0  0  0  0
   58.8567   33.2533   48.5574 H   0  0  0  0  0  0  0  0  0  0  0  0
   58.2138   34.4270   47.3241 H   0  0  0  0  0  0  0  0  0  0  0  0
   57.9816   33.9267   45.1701 H   0  0  0  0  0  0  0  0  0  0  0  0
   59.5352   33.1045   44.7515 H   0  0  0  0  0  0  0  0  0  0  0  0
   58.2757   32.8670   42.4592 H   0  0  0  0  0  0  0  0  0  0  0  0
   56.9783   31.2081   41.1259 H   0  0  0  0  0  0  0  0  0  0  0  0
   55.7587   29.3583   42.2693 H   0  0  0  0  0  0  0  0  0  0  0  0
   58.3662   28.1637   43.9133 H   0  0  0  0  0  0  0  0  0  0  0  0
   60.7970   28.0922   44.4713 H   0  0  0  0  0  0  0  0  0  0  0  0
   61.5313   27.6107   46.8074 H   0  0  0  0  0  0  0  0  0  0  0  0
   59.8352   27.1970   48.5904 H   0  0  0  0  0  0  0  0  0  0  0  0
   57.4020   27.2659   48.0424 H   0  0  0  0  0  0  0  0  0  0  0  0
   57.1061   30.8441   46.1067 H   0  0  0  0  0  0  0  0  0  0  0  0
   59.3345   30.7500   47.5239 H   0  0  0  0  0  0  0  0  0  0  0  0
   59.7633   30.9380   45.7588 H   0  0  0  0  0  0  0  0  0  0  0  0
   61.2016   31.9207   48.2047 H   0  0  0  0  0  0  0  0  0  0  0  0
   61.8398   31.2954   46.6408 H   0  0  0  0  0  0  0  0  0  0  0  0
  1  2  1  0
  2  3  1  0
  3  4  1  0
  4  5  1  0
  5  6  1  0
  6  7  1  0
  7  8  1  0
  8  9  2  0
  9 10  1  0
 10 11  2  0
 11 12  1  0
 12 13  1  0
 13 14  1  0
 14 15  2  0
 14 16  1  0
 16 17  2  0
 17 18  1  0
 18 19  2  0
 19 20  1  0
 20 21  2  0
 12 22  2  0
  6 23  1  0
 23 24  1  0
 24  3  1  0
 22  8  1  0
 21 16  1  0
  1 25  1  0
  1 26  1  0
  1 27  1  0
  2 28  1  0
  2 29  1  0
  4 30  1  0
  4 31  1  0
  5 32  1  0
  5 33  1  0
  7 34  1  0
  7 35  1  0
  9 36  1  0
 10 37  1  0
 11 38  1  0
 17 39  1  0
 18 40  1  0
 19 41  1  0
 20 42  1  0
 21 43  1  0
 22 44  1  0
 23 45  1  0
 23 46  1  0
 24 47  1  0
 24 48  1  0
M  CHG  1  13  -1
M  END
>  <UniqueID>  (27) 
24

>  <SMILES>  (27) 
CCN1CCN(Cc2cccc([N-]C(=O)c3ccccc3)c2)CC1

>  <Energy>  (27) 
65.83526297682084

>  <Genealogy>  (27) 
CCN1CCN(Cc2cccc([N-]C(=O)c3ccccc3)c2)CC1 (protonated)
CCN1CCN(Cc2cccc([N-]C(=O)c3ccccc3)c2)CC1 (3D coordinates assigned)
CCN1CCN(Cc2cccc([N-]C(=O)c3ccccc3)c2)CC1 (nonaromatic ring conformer: 65.83526297682084 kcal/mol)

>  <smiles>  (27) 
CCN1CCN(Cc2cccc(NC(=O)c3ccccc3)c2)CC1

>  <score_type>  (27) 
oracle

>  <origin>  (27) 
adg

>  <m_score__min__energy>  (27) 
-10.75

>  <m_primary>  (27) 
energy

$$$$
27:0
     RDKit          3D

 51 55  0  0  0  0  0  0  0  0999 V2000
   59.9430   24.9130   46.0110 C   0  0  0  0  0  0  0  0  0  0  0  0
   59.6840   26.3890   46.0100 C   0  0  0  0  0  0  0  0  0  0  0  0
   60.3830   27.2340   46.9110 C   0  0  0  0  0  0  0  0  0  0  0  0
   60.1840   28.6260   46.8980 C   0  0  0  0  0  0  0  0  0  0  0  0
   59.2860   29.1490   45.9700 C   0  0  0  0  0  0  0  0  0  0  0  0
   58.9730   30.4520   45.7820 N   0  0  0  0  0  0  0  0  0  0  0  0
   58.0830   30.4480   44.7620 C   0  0  0  0  0  0  0  0  0  0  0  0
   57.4570   31.5230   44.1250 C   0  0  0  0  0  0  0  0  0  0  0  0
   57.6260   32.8860   44.5570 N   0  0  0  0  0  0  0  0  0  0  0  0
   56.8440   33.3970   45.6880 C   0  0  0  0  0  0  0  0  0  0  0  0
   57.7550   33.6420   46.9080 C   0  0  0  0  0  0  0  0  0  0  0  0
   59.1840   33.7320   46.5250 N   0  0  0  0  0  0  0  0  0  0  0  0
   60.0570   34.1870   47.6300 C   0  0  0  0  0  0  0  0  0  0  0  0
   61.3550   33.4140   47.7490 C   0  0  0  0  0  0  0  0  0  0  0  0
   61.4470   32.3100   48.6140 C   0  0  0  0  0  0  0  0  0  0  0  0
   62.6430   31.5940   48.7210 C   0  0  0  0  0  0  0  0  0  0  0  0
   63.7540   31.9670   47.9590 C   0  0  0  0  0  0  0  0  0  0  0  0
   63.6670   33.0530   47.0850 C   0  0  0  0  0  0  0  0  0  0  0  0
   62.4730   33.7720   46.9750 C   0  0  0  0  0  0  0  0  0  0  0  0
   59.3780   34.4790   45.2700 C   0  0  0  0  0  0  0  0  0  0  0  0
   58.7810   33.6760   44.1050 C   0  0  0  0  0  0  0  0  0  0  0  0
   56.6470   31.2370   43.0600 N   0  0  0  0  0  0  0  0  0  0  0  0
   56.4390   29.9530   42.6290 C   0  0  0  0  0  0  0  0  0  0  0  0
   57.0460   28.9040   43.2590 N   0  0  0  0  0  0  0  0  0  0  0  0
   57.8540   29.1730   44.3120 C   0  0  0  0  0  0  0  0  0  0  0  0
   58.6160   28.3300   45.0850 C   0  0  0  0  0  0  0  0  0  0  0  0
   58.7950   26.9500   45.0660 C   0  0  0  0  0  0  0  0  0  0  0  0
   60.0063   24.5525   47.0483 H   0  0  0  0  0  0  0  0  0  0  0  0
   59.1218   24.3963   45.4927 H   0  0  0  0  0  0  0  0  0  0  0  0
   60.8911   24.7067   45.4927 H   0  0  0  0  0  0  0  0  0  0  0  0
   61.0902   26.7939   47.6294 H   0  0  0  0  0  0  0  0  0  0  0  0
   60.7209   29.2819   47.5991 H   0  0  0  0  0  0  0  0  0  0  0  0
   59.3690   31.2700   46.2940 H   0  0  0  0  0  0  0  0  0  0  0  0
   56.3647   34.3437   45.3983 H   0  0  0  0  0  0  0  0  0  0  0  0
   56.0807   32.6524   45.9579 H   0  0  0  0  0  0  0  0  0  0  0  0
   57.4566   34.5845   47.3904 H   0  0  0  0  0  0  0  0  0  0  0  0
   57.6403   32.7899   47.5942 H   0  0  0  0  0  0  0  0  0  0  0  0
   60.2997   35.2471   47.4648 H   0  0  0  0  0  0  0  0  0  0  0  0
   59.5007   34.0201   48.5642 H   0  0  0  0  0  0  0  0  0  0  0  0
   60.5733   32.0077   49.2100 H   0  0  0  0  0  0  0  0  0  0  0  0
   62.7099   30.7358   49.4059 H   0  0  0  0  0  0  0  0  0  0  0  0
   64.6959   31.4058   48.0476 H   0  0  0  0  0  0  0  0  0  0  0  0
   64.5399   33.3433   46.4818 H   0  0  0  0  0  0  0  0  0  0  0  0
   62.4079   34.6218   46.2796 H   0  0  0  0  0  0  0  0  0  0  0  0
   58.8738   35.4541   45.3409 H   0  0  0  0  0  0  0  0  0  0  0  0
   60.4528   34.6365   45.0969 H   0  0  0  0  0  0  0  0  0  0  0  0
   58.4570   34.3707   43.3161 H   0  0  0  0  0  0  0  0  0  0  0  0
   59.5489   32.9903   43.7175 H   0  0  0  0  0  0  0  0  0  0  0  0
   55.7785   29.7657   41.7696 H   0  0  0  0  0  0  0  0  0  0  0  0
   56.8970   27.9250   42.9270 H   0  0  0  0  0  0  0  0  0  0  0  0
   58.2624   26.3174   44.3406 H   0  0  0  0  0  0  0  0  0  0  0  0
  1  2  1  0
  2  3  2  0
  3  4  1  0
  4  5  2  0
  5  6  1  0
  6  7  1  0
  7  8  2  0
  8  9  1  0
  9 10  1  0
 10 11  1  0
 11 12  1  0
 12 13  1  0
 13 14  1  0
 14 15  2  0
 15 16  1  0
 16 17  2  0
 17 18  1  0
 18 19  2  0
 12 20  1  0
 20 21  1  0
  8 22  1  0
 22 23  2  0
 23 24  1  0
 24 25  2  0
 25 26  1  0
 26 27  2  0
 27  2  1  0
 26  5  1  0
 25  7  1  0
 21  9  1  0
 19 14  1  0
  1 28  1  0
  1 29  1  0
  1 30  1  0
  3 31  1  0
  4 32  1  0
  6 33  1  0
 10 34  1  0
 10 35  1  0
 11 36  1  0
 11 37  1  0
 13 38  1  0
 13 39  1  0
 15 40  1  0
 16 41  1  0
 17 42  1  0
 18 43  1  0
 19 44  1  0
 20 45  1  0
 20 46  1  0
 21 47  1  0
 21 48  1  0
 23 49  1  0
 24 50  1  0
 27 51  1  0
M  CHG  1  24   1
M  END
>  <UniqueID>  (28) 
25

>  <SMILES>  (28) 
Cc1ccc2[nH]c3c(N4CCN(Cc5ccccc5)CC4)nc[nH+]c3c2c1

>  <Energy>  (28) 
112.26530842908915

>  <Genealogy>  (28) 
Cc1ccc2[nH]c3c(N4CCN(Cc5ccccc5)CC4)nc[nH+]c3c2c1 (protonated)
Cc1ccc2[nH]c3c(N4CCN(Cc5ccccc5)CC4)nc[nH+]c3c2c1 (3D coordinates assigned)
Cc1ccc2[nH]c3c(N4CCN(Cc5ccccc5)CC4)nc[nH+]c3c2c1 (nonaromatic ring conformer: 112.26530842908915 kcal/mol)

>  <smiles>  (28) 
Cc1ccc2[nH]c3c(N4CCN(Cc5ccccc5)CC4)ncnc3c2c1

>  <score_type>  (28) 
oracle

>  <origin>  (28) 
adg

>  <m_score__min__energy>  (28) 
-7.7199999999999998

>  <m_primary>  (28) 
energy

$$$$
28:0
     RDKit          3D

 33 35  0  0  0  0  0  0  0  0999 V2000
   56.1890   22.9000   48.2060 C   0  0  0  0  0  0  0  0  0  0  0  0
   57.3920   23.2920   47.5550 O   0  0  0  0  0  0  0  0  0  0  0  0
   57.4890   24.3510   46.6410 C   0  0  0  0  0  0  0  0  0  0  0  0
   57.5200   25.6580   47.1370 C   0  0  0  0  0  0  0  0  0  0  0  0
   57.6150   26.7490   46.2680 C   0  0  0  0  0  0  0  0  0  0  0  0
   57.6700   26.5480   44.8770 C   0  0  0  0  0  0  0  0  0  0  0  0
   57.7820   27.6900   43.9390 C   0  0  0  0  0  0  0  0  0  0  0  0
   58.1400   27.4740   42.7490 O   0  0  0  0  0  0  0  0  0  0  0  0
   57.4670   29.0740   44.3380 C   0  0  0  0  0  0  0  0  0  0  0  0
   56.2090   29.5430   44.4530 N   0  0  0  0  0  0  0  0  0  0  0  0
   56.3450   30.7690   44.8560 O   0  0  0  0  0  0  0  0  0  0  0  0
   57.6180   31.0520   44.9940 C   0  0  0  0  0  0  0  0  0  0  0  0
   58.1360   32.3610   45.4370 C   0  0  0  0  0  0  0  0  0  0  0  0
   58.4050   33.3700   44.4970 C   0  0  0  0  0  0  0  0  0  0  0  0
   58.8980   34.6110   44.9150 C   0  0  0  0  0  0  0  0  0  0  0  0
   59.1240   34.8540   46.2720 C   0  0  0  0  0  0  0  0  0  0  0  0
   58.8590   33.8560   47.2140 C   0  0  0  0  0  0  0  0  0  0  0  0
   58.3680   32.6140   46.8010 C   0  0  0  0  0  0  0  0  0  0  0  0
   58.3930   29.9950   44.6810 N   0  0  0  0  0  0  0  0  0  0  0  0
   57.6570   25.2350   44.3800 C   0  0  0  0  0  0  0  0  0  0  0  0
   57.5610   24.1450   45.2500 C   0  0  0  0  0  0  0  0  0  0  0  0
   56.3301   22.9460   49.2959 H   0  0  0  0  0  0  0  0  0  0  0  0
   55.3752   23.5794   47.9127 H   0  0  0  0  0  0  0  0  0  0  0  0
   55.9317   21.8715   47.9127 H   0  0  0  0  0  0  0  0  0  0  0  0
   57.4691   25.8296   48.2223 H   0  0  0  0  0  0  0  0  0  0  0  0
   57.6469   27.7706   46.6745 H   0  0  0  0  0  0  0  0  0  0  0  0
   58.2272   33.1835   43.4276 H   0  0  0  0  0  0  0  0  0  0  0  0
   59.1079   35.3964   44.1740 H   0  0  0  0  0  0  0  0  0  0  0  0
   59.5104   35.8306   46.5991 H   0  0  0  0  0  0  0  0  0  0  0  0
   59.0371   34.0482   48.2823 H   0  0  0  0  0  0  0  0  0  0  0  0
   58.1622   31.8312   47.5459 H   0  0  0  0  0  0  0  0  0  0  0  0
   57.7230   25.0623   43.2956 H   0  0  0  0  0  0  0  0  0  0  0  0
   57.5416   23.1220   44.8461 H   0  0  0  0  0  0  0  0  0  0  0  0
  1  2  1  0
  2  3  1  0
  3  4  2  0
  4  5  1  0
  5  6  2  0
  6  7  1  0
  7  8  2  0
  7  9  1  0
  9 10  2  0
 10 11  1  0
 11 12  1  0
 12 13  1  0
 13 14  2  0
 14 15  1  0
 15 16  2  0
 16 17  1  0
 17 18  2  0
 12 19  2  0
  6 20  1  0
 20 21  2  0
 21  3  1  0
 19  9  1  0
 18 13  1  0
  1 22  1  0
  1 23  1  0
  1 24  1  0
  4 25  1  0
  5 26  1  0
 14 27  1  0
 15 28  1  0
 16 29  1  0
 17 30  1  0
 18 31  1  0
 20 32  1  0
 21 33  1  0
M  END
>  <UniqueID>  (29) 
26

>  <SMILES>  (29) 
COc1ccc(C(=O)c2noc(-c3ccccc3)n2)cc1

>  <Energy>  (29) 
71.4688656320293

>  <Genealogy>  (29) 
COc1ccc(C(=O)c2noc(-c3ccccc3)n2)cc1 (3D coordinates assigned)
COc1ccc(C(=O)c2noc(-c3ccccc3)n2)cc1 (optimized conformer: 71.4688656320293 kcal/mol)

>  <smiles>  (29) 
COc1ccc(C(=O)c2noc(-c3ccccc3)n2)cc1

>  <score_type>  (29) 
oracle

>  <origin>  (29) 
adg

>  <m_score__min__energy>  (29) 
-7.5599999999999996

>  <m_primary>  (29) 
energy

$$$$
29:0
     RDKit          3D

 40 42  0  0  0  0  0  0  0  0999 V2000
   59.4570   33.0250   50.0400 C   0  0  0  0  0  0  0  0  0  0  0  0
   59.8000   34.2140   49.1430 C   0  0  0  0  0  0  0  0  0  0  0  0
   61.2830   34.2510   48.7560 C   0  0  0  0  0  0  0  0  0  0  0  0
   61.4900   33.7840   47.3750 N   0  0  0  0  0  0  0  0  0  0  0  0
   62.8340   33.8310   46.7760 C   0  0  0  0  0  0  0  0  0  0  0  0
   63.8360   32.9260   47.5010 C   0  0  0  0  0  0  0  0  0  0  0  0
   63.6430   31.5920   47.1290 O   0  0  0  0  0  0  0  0  0  0  0  0
   60.5590   32.8340   46.8270 C   0  0  0  0  0  0  0  0  0  0  0  0
   60.7360   31.4940   47.0420 N   0  0  0  0  0  0  0  0  0  0  0  0
   59.8810   30.5590   46.5090 C   0  0  0  0  0  0  0  0  0  0  0  0
   60.0910   29.1120   46.7610 C   0  0  0  0  0  0  0  0  0  0  0  0
   60.0960   28.1840   45.7080 C   0  0  0  0  0  0  0  0  0  0  0  0
   60.2970   26.8360   46.0020 C   0  0  0  0  0  0  0  0  0  0  0  0
   60.4840   26.4430   47.2880 N   0  0  0  0  0  0  0  0  0  0  0  0
   60.4780   27.3480   48.2990 C   0  0  0  0  0  0  0  0  0  0  0  0
   60.2830   28.6660   48.0320 N   0  0  0  0  0  0  0  0  0  0  0  0
   58.8310   30.9650   45.7370 N   0  0  0  0  0  0  0  0  0  0  0  0
   58.6510   32.2860   45.5090 C   0  0  0  0  0  0  0  0  0  0  0  0
   57.4300   32.9970   44.6090 S   0  0  0  0  0  0  0  0  0  0  0  0
   57.9660   34.5790   44.8850 C   0  0  0  0  0  0  0  0  0  0  0  0
   59.1070   34.5470   45.6880 C   0  0  0  0  0  0  0  0  0  0  0  0
   59.4870   33.2450   46.0300 C   0  0  0  0  0  0  0  0  0  0  0  0
   59.5434   33.3246   51.0949 H   0  0  0  0  0  0  0  0  0  0  0  0
   58.4274   32.6963   49.8353 H   0  0  0  0  0  0  0  0  0  0  0  0
   60.1533   32.1984   49.8353 H   0  0  0  0  0  0  0  0  0  0  0  0
   59.1977   34.1482   48.2249 H   0  0  0  0  0  0  0  0  0  0  0  0
   59.5796   35.1321   49.7074 H   0  0  0  0  0  0  0  0  0  0  0  0
   61.6499   35.2844   48.8431 H   0  0  0  0  0  0  0  0  0  0  0  0
   61.8343   33.5825   49.4337 H   0  0  0  0  0  0  0  0  0  0  0  0
   62.7633   33.5083   45.7268 H   0  0  0  0  0  0  0  0  0  0  0  0
   63.1992   34.8652   46.8594 H   0  0  0  0  0  0  0  0  0  0  0  0
   64.8589   33.2321   47.2364 H   0  0  0  0  0  0  0  0  0  0  0  0
   63.6831   33.0204   48.5862 H   0  0  0  0  0  0  0  0  0  0  0  0
   64.5180   31.2710   46.7860 H   0  0  0  0  0  0  0  0  0  0  0  0
   61.5560   31.1860   47.6120 H   0  0  0  0  0  0  0  0  0  0  0  0
   59.9441   28.5142   44.6698 H   0  0  0  0  0  0  0  0  0  0  0  0
   60.3041   26.0913   45.1924 H   0  0  0  0  0  0  0  0  0  0  0  0
   60.6312   27.0143   49.3359 H   0  0  0  0  0  0  0  0  0  0  0  0
   57.4895   35.4896   44.4928 H   0  0  0  0  0  0  0  0  0  0  0  0
   59.6481   35.4468   46.0159 H   0  0  0  0  0  0  0  0  0  0  0  0
  1  2  1  0
  2  3  1  0
  3  4  1  0
  4  5  1  0
  5  6  1  0
  6  7  1  0
  4  8  1  0
  8  9  2  0
  9 10  1  0
 10 11  1  0
 11 12  2  0
 12 13  1  0
 13 14  2  0
 14 15  1  0
 15 16  2  0
 10 17  2  0
 17 18  1  0
 18 19  1  0
 19 20  1  0
 20 21  2  0
 21 22  1  0
 22  8  1  0
 16 11  1  0
 22 18  2  0
  1 23  1  0
  1 24  1  0
  1 25  1  0
  2 26  1  0
  2 27  1  0
  3 28  1  0
  3 29  1  0
  5 30  1  0
  5 31  1  0
  6 32  1  0
  6 33  1  0
  7 34  1  0
  9 35  1  0
 12 36  1  0
 13 37  1  0
 15 38  1  0
 20 39  1  0
 21 40  1  0
M  CHG  1   9   1
M  END
>  <UniqueID>  (30) 
27

>  <SMILES>  (30) 
CCCN(CCO)c1[nH+]c(-c2ccncn2)nc2sccc12

>  <Energy>  (30) 
75.39653905846063

>  <Genealogy>  (30) 
CCCN(CCO)c1[nH+]c(-c2ccncn2)nc2sccc12 (protonated)
CCCN(CCO)c1[nH+]c(-c2ccncn2)nc2sccc12 (3D coordinates assigned)
CCCN(CCO)c1[nH+]c(-c2ccncn2)nc2sccc12 (optimized conformer: 75.39653905846063 kcal/mol)

>  <smiles>  (30) 
CCCN(CCO)c1nc(-c2ccncn2)nc2sccc12

>  <score_type>  (30) 
oracle

>  <origin>  (30) 
adg

>  <m_score__min__energy>  (30) 
-6.0899999999999999

>  <m_primary>  (30) 
energy

$$$$
30:0
     RDKit          3D

 41 43  0  0  0  0  0  0  0  0999 V2000
   57.0510   21.9130   43.3780 C   0  0  0  0  0  0  0  0  0  0  0  0
   56.7430   23.3220   43.1590 N   0  0  0  0  0  0  0  0  0  0  0  0
   56.5830   24.2750   44.2270 C   0  0  0  0  0  0  0  0  0  0  0  0
   55.6690   24.0710   45.2760 C   0  0  0  0  0  0  0  0  0  0  0  0
   55.5400   24.9990   46.2590 N   0  0  0  0  0  0  0  0  0  0  0  0
   56.2770   26.1410   46.2740 C   0  0  0  0  0  0  0  0  0  0  0  0
   57.2120   26.3910   45.2580 C   0  0  0  0  0  0  0  0  0  0  0  0
   57.9890   27.6040   45.2560 N   0  0  0  0  0  0  0  0  0  0  0  0
   58.6030   28.0820   46.5060 C   0  0  0  0  0  0  0  0  0  0  0  0
   59.0230   29.5560   46.4000 C   0  0  0  0  0  0  0  0  0  0  0  0
   57.9340   30.3690   45.6710 C   0  0  0  0  0  0  0  0  0  0  0  0
   58.2730   31.8490   45.6570 C   0  0  0  0  0  0  0  0  0  0  0  0
   59.3720   32.3470   46.3840 C   0  0  0  0  0  0  0  0  0  0  0  0
   59.6750   33.7100   46.3630 C   0  0  0  0  0  0  0  0  0  0  0  0
   58.8890   34.5920   45.6190 C   0  0  0  0  0  0  0  0  0  0  0  0
   57.7970   34.1100   44.8910 C   0  0  0  0  0  0  0  0  0  0  0  0
   57.4900   32.7460   44.9080 C   0  0  0  0  0  0  0  0  0  0  0  0
   57.6560   29.8330   44.2390 C   0  0  0  0  0  0  0  0  0  0  0  0
   58.1520   28.3940   44.0270 C   0  0  0  0  0  0  0  0  0  0  0  0
   57.3500   25.4470   44.2290 C   0  0  0  0  0  0  0  0  0  0  0  0
   57.0952   21.7110   44.4584 H   0  0  0  0  0  0  0  0  0  0  0  0
   56.2676   21.2910   42.9204 H   0  0  0  0  0  0  0  0  0  0  0  0
   58.0225   21.6746   42.9204 H   0  0  0  0  0  0  0  0  0  0  0  0
   56.6370   23.6470   42.1720 H   0  0  0  0  0  0  0  0  0  0  0  0
   55.0569   23.1573   45.3004 H   0  0  0  0  0  0  0  0  0  0  0  0
   56.1401   26.8714   47.0850 H   0  0  0  0  0  0  0  0  0  0  0  0
   57.8761   27.9756   47.3247 H   0  0  0  0  0  0  0  0  0  0  0  0
   59.5030   27.4801   46.7003 H   0  0  0  0  0  0  0  0  0  0  0  0
   59.1674   29.9662   47.4104 H   0  0  0  0  0  0  0  0  0  0  0  0
   59.9617   29.6217   45.8303 H   0  0  0  0  0  0  0  0  0  0  0  0
   57.0013   30.2414   46.2401 H   0  0  0  0  0  0  0  0  0  0  0  0
   59.9956   31.6577   46.9721 H   0  0  0  0  0  0  0  0  0  0  0  0
   60.5351   34.0897   46.9340 H   0  0  0  0  0  0  0  0  0  0  0  0
   59.1287   35.6655   45.6056 H   0  0  0  0  0  0  0  0  0  0  0  0
   57.1785   34.8049   44.3040 H   0  0  0  0  0  0  0  0  0  0  0  0
   56.6307   32.3720   44.3320 H   0  0  0  0  0  0  0  0  0  0  0  0
   56.5710   29.8593   44.0599 H   0  0  0  0  0  0  0  0  0  0  0  0
   58.2053   30.4762   43.5357 H   0  0  0  0  0  0  0  0  0  0  0  0
   57.5716   27.9272   43.2176 H   0  0  0  0  0  0  0  0  0  0  0  0
   59.2194   28.4222   43.7626 H   0  0  0  0  0  0  0  0  0  0  0  0
   58.0678   25.6293   43.4157 H   0  0  0  0  0  0  0  0  0  0  0  0
  1  2  1  0
  2  3  1  0
  3  4  2  0
  4  5  1  0
  5  6  2  0
  6  7  1  0
  7  8  1  0
  8  9  1  0
  9 10  1  0
 10 11  1  0
 11 12  1  0
 12 13  2  0
 13 14  1  0
 14 15  2  0
 15 16  1  0
 16 17  2  0
 11 18  1  0
 18 19  1  0
  7 20  2  0
 20  3  1  0
 19  8  1  0
 17 12  1  0
  1 21  1  0
  1 22  1  0
  1 23  1  0
  2 24  1  0
  4 25  1  0
  6 26  1  0
  9 27  1  0
  9 28  1  0
 10 29  1  0
 10 30  1  0
 11 31  1  0
 13 32  1  0
 14 33  1  0
 15 34  1  0
 16 35  1  0
 17 36  1  0
 18 37  1  0
 18 38  1  0
 19 39  1  0
 19 40  1  0
 20 41  1  0
M  END
>  <UniqueID>  (31) 
28

>  <SMILES>  (31) 
CNc1cncc(N2CCC(c3ccccc3)CC2)c1

>  <Energy>  (31) 
48.77191504159365

>  <Genealogy>  (31) 
CNc1cncc(N2CCC(c3ccccc3)CC2)c1 (3D coordinates assigned)
CNc1cncc(N2CCC(c3ccccc3)CC2)c1 (nonaromatic ring conformer: 48.77191504159365 kcal/mol)

>  <smiles>  (31) 
CNc1cncc(N2CCC(c3ccccc3)CC2)c1

>  <score_type>  (31) 
oracle

>  <origin>  (31) 
adg

>  <m_score__min__energy>  (31) 
-7.3499999999999996

>  <m_primary>  (31) 
energy

$$$$
31:0
     RDKit          3D

 34 37  0  0  0  0  0  0  0  0999 V2000
   58.8140   34.5360   44.8520 C   0  0  0  0  0  0  0  0  0  0  0  0
   57.4240   33.9410   44.6570 C   0  0  0  0  0  0  0  0  0  0  0  0
   57.4330   32.4740   44.9570 C   0  0  0  0  0  0  0  0  0  0  0  0
   56.5130   31.5920   44.5010 N   0  0  0  0  0  0  0  0  0  0  0  0
   56.8070   30.4020   45.0260 N   0  0  0  0  0  0  0  0  0  0  0  0
   57.8960   30.5880   45.7980 C   0  0  0  0  0  0  0  0  0  0  0  0
   58.5700   29.6520   46.5780 C   0  0  0  0  0  0  0  0  0  0  0  0
   58.1680   28.3120   46.6470 C   0  0  0  0  0  0  0  0  0  0  0  0
   58.8560   27.4220   47.4740 C   0  0  0  0  0  0  0  0  0  0  0  0
   59.9360   27.8650   48.2420 C   0  0  0  0  0  0  0  0  0  0  0  0
   60.7760   26.7420   49.2960 Cl  0  0  0  0  0  0  0  0  0  0  0  0
   60.3450   29.2020   48.1800 C   0  0  0  0  0  0  0  0  0  0  0  0
   59.6840   30.1150   47.3330 C   0  0  0  0  0  0  0  0  0  0  0  0
   60.0680   31.4920   47.2360 C   0  0  0  0  0  0  0  0  0  0  0  0
   61.2380   32.0540   47.9400 C   0  0  0  0  0  0  0  0  0  0  0  0
   62.5420   31.7710   47.5080 C   0  0  0  0  0  0  0  0  0  0  0  0
   63.6270   32.3490   48.1710 C   0  0  0  0  0  0  0  0  0  0  0  0
   63.4170   33.1930   49.2160 N   0  0  0  0  0  0  0  0  0  0  0  0
   62.1640   33.5020   49.6420 C   0  0  0  0  0  0  0  0  0  0  0  0
   61.0510   32.9450   49.0070 C   0  0  0  0  0  0  0  0  0  0  0  0
   59.3310   32.3340   46.4530 N   0  0  0  0  0  0  0  0  0  0  0  0
   58.2930   31.8560   45.7750 N   0  0  0  0  0  0  0  0  0  0  0  0
   59.0264   34.6269   45.9275 H   0  0  0  0  0  0  0  0  0  0  0  0
   59.5627   33.8795   44.3846 H   0  0  0  0  0  0  0  0  0  0  0  0
   58.8559   35.5309   44.3846 H   0  0  0  0  0  0  0  0  0  0  0  0
   56.7171   34.4441   45.3331 H   0  0  0  0  0  0  0  0  0  0  0  0
   57.1186   34.0876   43.6104 H   0  0  0  0  0  0  0  0  0  0  0  0
   57.3123   27.9617   46.0511 H   0  0  0  0  0  0  0  0  0  0  0  0
   58.5465   26.3675   47.5212 H   0  0  0  0  0  0  0  0  0  0  0  0
   61.1891   29.5434   48.7972 H   0  0  0  0  0  0  0  0  0  0  0  0
   62.7090   31.0988   46.6534 H   0  0  0  0  0  0  0  0  0  0  0  0
   64.6532   32.1209   47.8471 H   0  0  0  0  0  0  0  0  0  0  0  0
   62.0259   34.1915   50.4878 H   0  0  0  0  0  0  0  0  0  0  0  0
   60.0354   33.2034   49.3415 H   0  0  0  0  0  0  0  0  0  0  0  0
  1  2  1  0
  2  3  1  0
  3  4  2  0
  4  5  1  0
  5  6  2  0
  6  7  1  0
  7  8  2  0
  8  9  1  0
  9 10  2  0
 10 11  1  0
 10 12  1  0
 12 13  2  0
 13 14  1  0
 14 15  1  0
 15 16  2  0
 16 17  1  0
 17 18  2  0
 18 19  1  0
 19 20  2  0
 14 21  2  0
 21 22  1  0
 22  3  1  0
 22  6  1  0
 13  7  1  0
 20 15  1  0
  1 23  1  0
  1 24  1  0
  1 25  1  0
  2 26  1  0
  2 27  1  0
  8 28  1  0
  9 29  1  0
 12 30  1  0
 16 31  1  0
 17 32  1  0
 19 33  1  0
 20 34  1  0
M  END
>  <UniqueID>  (32) 
29

>  <SMILES>  (32) 
CCc1nnc2c3ccc(Cl)cc3c(-c3ccncc3)nn12

>  <Energy>  (32) 
89.74627045868505

>  <Genealogy>  (32) 
CCc1nnc2c3ccc(Cl)cc3c(-c3ccncc3)nn12 (3D coordinates assigned)
CCc1nnc2c3ccc(Cl)cc3c(-c3ccncc3)nn12 (optimized conformer: 89.74627045868505 kcal/mol)

>  <smiles>  (32) 
CCc1nnc2c3ccc(Cl)cc3c(-c3ccncc3)nn12

>  <score_type>  (32) 
oracle

>  <origin>  (32) 
adg

>  <m_score__min__energy>  (32) 
-7.5800000000000001

>  <m_primary>  (32) 
energy

$$$$
32:0
     RDKit          3D

 61 65  0  0  0  0  0  0  0  0999 V2000
   55.5280   30.8710   52.0100 C   0  0  0  0  0  0  0  0  0  0  0  0
   56.1630   29.6120   52.0290 O   0  0  0  0  0  0  0  0  0  0  0  0
   57.5470   29.7890   52.2460 C   0  0  0  0  0  0  0  0  0  0  0  0
   58.1020   30.7320   51.1700 C   0  0  0  0  0  0  0  0  0  0  0  0
   59.5230   31.0700   51.3680 N   0  0  0  0  0  0  0  0  0  0  0  0
   59.7790   32.2820   52.1790 C   0  0  0  0  0  0  0  0  0  0  0  0
   58.9190   33.4530   51.6470 C   0  0  0  0  0  0  0  0  0  0  0  0
   59.5910   34.2030   50.4760 C   0  0  0  0  0  0  0  0  0  0  0  0
   60.5640   33.3280   49.7810 N   0  0  0  0  0  0  0  0  0  0  0  0
   61.0280   33.9390   48.5050 C   0  0  2  0  0  0  0  0  0  0  0  0
   59.9590   33.8680   47.4460 C   0  0  0  0  0  0  0  0  0  0  0  0
   59.9770   34.5070   46.2120 C   0  0  0  0  0  0  0  0  0  0  0  0
   58.8140   34.2920   45.4620 C   0  0  0  0  0  0  0  0  0  0  0  0
   57.8750   33.4970   46.1060 C   0  0  0  0  0  0  0  0  0  0  0  0
   58.4910   33.0620   47.6080 S   0  0  0  0  0  0  0  0  0  0  0  0
   62.2470   33.2230   47.9620 C   0  0  0  0  0  0  0  0  0  0  0  0
   63.4130   33.8430   47.6840 N   0  0  0  0  0  0  0  0  0  0  0  0
   64.1470   32.9190   47.0840 N   0  0  0  0  0  0  0  0  0  0  0  0
   63.4810   31.7820   46.9690 N   0  0  0  0  0  0  0  0  0  0  0  0
   62.2900   31.9470   47.5180 N   0  0  0  0  0  0  0  0  0  0  0  0
   61.2740   30.9370   47.5520 C   0  0  0  0  0  0  0  0  0  0  0  0
   61.0760   30.1570   48.7050 C   0  0  0  0  0  0  0  0  0  0  0  0
   60.0950   29.1600   48.7240 C   0  0  0  0  0  0  0  0  0  0  0  0
   59.3200   28.9260   47.5870 C   0  0  0  0  0  0  0  0  0  0  0  0
   59.5070   29.7050   46.4360 C   0  0  0  0  0  0  0  0  0  0  0  0
   60.4960   30.6910   46.4100 C   0  0  0  0  0  0  0  0  0  0  0  0
   58.6920   29.4790   45.3230 O   0  0  0  0  0  0  0  0  0  0  0  0
   57.5110   28.6790   45.4230 C   0  0  0  0  0  0  0  0  0  0  0  0
   57.7580   27.4800   46.3480 C   0  0  0  0  0  0  0  0  0  0  0  0
   58.3550   27.9140   47.5730 O   0  0  0  0  0  0  0  0  0  0  0  0
   61.7060   33.0270   50.6870 C   0  0  0  0  0  0  0  0  0  0  0  0
   61.2570   32.7150   52.1310 C   0  0  0  0  0  0  0  0  0  0  0  0
   55.3566   31.2108   53.0421 H   0  0  0  0  0  0  0  0  0  0  0  0
   56.1680   31.5966   51.4866 H   0  0  0  0  0  0  0  0  0  0  0  0
   54.5641   30.7877   51.4866 H   0  0  0  0  0  0  0  0  0  0  0  0
   57.7117   30.2270   53.2415 H   0  0  0  0  0  0  0  0  0  0  0  0
   58.0602   28.8176   52.1911 H   0  0  0  0  0  0  0  0  0  0  0  0
   57.9920   30.2460   50.1893 H   0  0  0  0  0  0  0  0  0  0  0  0
   57.5318   31.6705   51.2336 H   0  0  0  0  0  0  0  0  0  0  0  0
   59.9490   31.2020   50.4200 H   0  0  0  0  0  0  0  0  0  0  0  0
   59.5193   32.0349   53.2189 H   0  0  0  0  0  0  0  0  0  0  0  0
   57.9547   33.0524   51.3010 H   0  0  0  0  0  0  0  0  0  0  0  0
   58.7898   34.1708   52.4704 H   0  0  0  0  0  0  0  0  0  0  0  0
   58.8182   34.5223   49.7612 H   0  0  0  0  0  0  0  0  0  0  0  0
   60.1257   35.0767   50.8770 H   0  0  0  0  0  0  0  0  0  0  0  0
   61.2716   34.9867   48.7353 H   0  0  0  0  0  0  0  0  0  0  0  0
   60.8198   35.1199   45.8598 H   0  0  0  0  0  0  0  0  0  0  0  0
   58.6590   34.7131   44.4577 H   0  0  0  0  0  0  0  0  0  0  0  0
   56.8952   33.2023   45.7020 H   0  0  0  0  0  0  0  0  0  0  0  0
   65.1180   33.0720   46.7320 H   0  0  0  0  0  0  0  0  0  0  0  0
   61.6958   30.3317   49.5968 H   0  0  0  0  0  0  0  0  0  0  0  0
   59.9347   28.5617   49.6330 H   0  0  0  0  0  0  0  0  0  0  0  0
   60.6653   31.2753   45.4935 H   0  0  0  0  0  0  0  0  0  0  0  0
   56.6922   29.2898   45.8311 H   0  0  0  0  0  0  0  0  0  0  0  0
   57.2425   28.3100   44.4221 H   0  0  0  0  0  0  0  0  0  0  0  0
   56.7995   26.9863   46.5662 H   0  0  0  0  0  0  0  0  0  0  0  0
   58.4388   26.7757   45.8475 H   0  0  0  0  0  0  0  0  0  0  0  0
   62.2484   32.1556   50.2914 H   0  0  0  0  0  0  0  0  0  0  0  0
   62.3444   33.9220   50.7244 H   0  0  0  0  0  0  0  0  0  0  0  0
   61.8811   31.9029   52.5323 H   0  0  0  0  0  0  0  0  0  0  0  0
   61.3699   33.6283   52.7336 H   0  0  0  0  0  0  0  0  0  0  0  0
  1  2  1  0
  2  3  1  0
  3  4  1  0
  4  5  1  0
  5  6  1  0
  6  7  1  0
  7  8  1  0
  8  9  1  0
  9 10  1  0
 10 11  1  0
 11 12  2  0
 12 13  1  0
 13 14  2  0
 14 15  1  0
 10 16  1  0
 16 17  2  0
 17 18  1  0
 18 19  2  0
 19 20  1  0
 20 21  1  0
 21 22  2  0
 22 23  1  0
 23 24  2  0
 24 25  1  0
 25 26  2  0
 25 27  1  0
 27 28  1  0
 28 29  1  0
 29 30  1  0
  9 31  1  0
 31 32  1  0
 32  6  1  0
 15 11  1  0
 20 16  1  0
 26 21  1  0
 30 24  1  0
  1 33  1  0
  1 34  1  0
  1 35  1  0
  3 36  1  0
  3 37  1  0
  4 38  1  0
  4 39  1  0
  5 40  1  0
  6 41  1  0
  7 42  1  0
  7 43  1  0
  8 44  1  0
  8 45  1  0
 10 46  1  1
 12 47  1  0
 13 48  1  0
 14 49  1  0
 18 50  1  0
 22 51  1  0
 23 52  1  0
 26 53  1  0
 28 54  1  0
 28 55  1  0
 29 56  1  0
 29 57  1  0
 31 58  1  0
 31 59  1  0
 32 60  1  0
 32 61  1  0
M  CHG  1  18   1
M  END
>  <UniqueID>  (33) 
30

>  <SMILES>  (33) 
COCCNC1CCN([C@H](c2cccs2)c2n[nH+]nn2-c2ccc3c(c2)OCCO3)CC1

>  <Energy>  (33) 
146.61834312756235

>  <Genealogy>  (33) 
COCCNC1CCN(C(c2cccs2)c2n[nH+]nn2-c2ccc3c(c2)OCCO3)CC1 (protonated)
COCCNC1CCN([C@H](c2cccs2)c2n[nH+]nn2-c2ccc3c(c2)OCCO3)CC1 (chirality)
COCCNC1CCN([C@H](c2cccs2)c2n[nH+]nn2-c2ccc3c(c2)OCCO3)CC1 (3D coordinates assigned)
COCCNC1CCN([C@H](c2cccs2)c2n[nH+]nn2-c2ccc3c(c2)OCCO3)CC1 (nonaromatic ring conformer: 146.61834312756235 kcal/mol)

>  <smiles>  (33) 
COCCNC1CCN(C(c2cccs2)c2nnnn2-c2ccc3c(c2)OCCO3)CC1

>  <score_type>  (33) 
oracle

>  <origin>  (33) 
adg

>  <m_score__min__energy>  (33) 
-7.4699999999999998

>  <m_primary>  (33) 
energy

$$$$
33:0
     RDKit          3D

 45 47  0  0  0  0  0  0  0  0999 V2000
   55.9090   30.1110   44.1130 C   0  0  0  0  0  0  0  0  0  0  0  0
   57.3980   30.2260   43.7950 C   0  0  0  0  0  0  0  0  0  0  0  0
   57.8010   31.6350   43.6700 N   0  0  0  0  0  0  0  0  0  0  0  0
   57.8250   32.2370   42.3320 C   0  0  0  0  0  0  0  0  0  0  0  0
   58.2000   32.4130   44.8280 C   0  0  0  0  0  0  0  0  0  0  0  0
   58.2290   33.8360   44.7680 C   0  0  0  0  0  0  0  0  0  0  0  0
   58.6070   34.6020   45.8850 C   0  0  0  0  0  0  0  0  0  0  0  0
   58.9550   33.9280   47.0490 C   0  0  0  0  0  0  0  0  0  0  0  0
   59.3180   34.4640   48.2260 N   0  0  0  0  0  0  0  0  0  0  0  0
   59.5200   33.3760   49.0140 C   0  0  0  0  0  0  0  0  0  0  0  0
   59.9400   33.5070   50.4500 C   0  0  0  0  0  0  0  0  0  0  0  0
   58.9720   34.1840   51.1660 F   0  0  0  0  0  0  0  0  0  0  0  0
   61.1250   34.2170   50.5330 F   0  0  0  0  0  0  0  0  0  0  0  0
   60.1390   32.2530   50.9960 F   0  0  0  0  0  0  0  0  0  0  0  0
   59.3030   32.1970   48.3640 N   0  0  0  0  0  0  0  0  0  0  0  0
   59.3610   30.5640   48.9680 S   0  0  0  0  0  0  0  0  0  0  0  0
   58.6100   30.4890   50.2680 O   0  0  0  0  0  0  0  0  0  0  0  0
   58.7260   29.6060   48.0010 O   0  0  0  0  0  0  0  0  0  0  0  0
   61.0590   30.0800   49.2350 C   0  0  0  0  0  0  0  0  0  0  0  0
   61.9870   31.1870   48.8210 C   0  0  0  0  0  0  0  0  0  0  0  0
   62.7720   31.8500   49.7800 C   0  0  0  0  0  0  0  0  0  0  0  0
   63.5940   32.9150   49.4020 C   0  0  0  0  0  0  0  0  0  0  0  0
   63.6390   33.3250   48.0670 C   0  0  0  0  0  0  0  0  0  0  0  0
   62.8600   32.6720   47.1080 C   0  0  0  0  0  0  0  0  0  0  0  0
   62.0330   31.6080   47.4820 C   0  0  0  0  0  0  0  0  0  0  0  0
   58.9430   32.5700   47.1230 C   0  0  0  0  0  0  0  0  0  0  0  0
   58.5710   31.7740   46.0390 C   0  0  0  0  0  0  0  0  0  0  0  0
   55.7668   30.1000   45.2037 H   0  0  0  0  0  0  0  0  0  0  0  0
   55.3746   30.9705   43.6822 H   0  0  0  0  0  0  0  0  0  0  0  0
   55.5129   29.1796   43.6822 H   0  0  0  0  0  0  0  0  0  0  0  0
   57.9764   29.7565   44.6043 H   0  0  0  0  0  0  0  0  0  0  0  0
   57.5932   29.7186   42.8387 H   0  0  0  0  0  0  0  0  0  0  0  0
   57.8687   33.3323   42.4235 H   0  0  0  0  0  0  0  0  0  0  0  0
   58.7096   31.8792   41.7848 H   0  0  0  0  0  0  0  0  0  0  0  0
   56.9147   31.9508   41.7848 H   0  0  0  0  0  0  0  0  0  0  0  0
   57.9512   34.3439   43.8326 H   0  0  0  0  0  0  0  0  0  0  0  0
   58.6266   35.7008   45.8386 H   0  0  0  0  0  0  0  0  0  0  0  0
   61.2102   29.8595   50.3020 H   0  0  0  0  0  0  0  0  0  0  0  0
   61.2759   29.1862   48.6316 H   0  0  0  0  0  0  0  0  0  0  0  0
   62.7392   31.5294   50.8317 H   0  0  0  0  0  0  0  0  0  0  0  0
   64.2062   33.4311   50.1562 H   0  0  0  0  0  0  0  0  0  0  0  0
   64.2880   34.1623   47.7707 H   0  0  0  0  0  0  0  0  0  0  0  0
   62.8973   32.9954   46.0573 H   0  0  0  0  0  0  0  0  0  0  0  0
   61.4171   31.0997   46.7255 H   0  0  0  0  0  0  0  0  0  0  0  0
   58.5655   30.6771   46.1215 H   0  0  0  0  0  0  0  0  0  0  0  0
  1  2  1  0
  2  3  1  0
  3  4  1  0
  3  5  1  0
  5  6  2  0
  6  7  1  0
  7  8  2  0
  8  9  1  0
  9 10  2  0
 10 11  1  0
 11 12  1  0
 11 13  1  0
 11 14  1  0
 10 15  1  0
 15 16  1  0
 16 17  2  0
 16 18  2  0
 16 19  1  0
 19 20  1  0
 20 21  2  0
 21 22  1  0
 22 23  2  0
 23 24  1  0
 24 25  2  0
 15 26  1  0
 26 27  2  0
 27  5  1  0
 26  8  1  0
 25 20  1  0
  1 28  1  0
  1 29  1  0
  1 30  1  0
  2 31  1  0
  2 32  1  0
  4 33  1  0
  4 34  1  0
  4 35  1  0
  6 36  1  0
  7 37  1  0
 19 38  1  0
 19 39  1  0
 21 40  1  0
 22 41  1  0
 23 42  1  0
 24 43  1  0
 25 44  1  0
 27 45  1  0
M  END
>  <UniqueID>  (34) 
31

>  <SMILES>  (34) 
CCN(C)c1ccc2nc(C(F)(F)F)n(S(=O)(=O)Cc3ccccc3)c2c1

>  <Energy>  (34) 
78.8311094092611

>  <Genealogy>  (34) 
CCN(C)c1ccc2nc(C(F)(F)F)n(S(=O)(=O)Cc3ccccc3)c2c1 (3D coordinates assigned)
CCN(C)c1ccc2nc(C(F)(F)F)n(S(=O)(=O)Cc3ccccc3)c2c1 (optimized conformer: 78.8311094092611 kcal/mol)

>  <smiles>  (34) 
CCN(C)c1ccc2nc(C(F)(F)F)n(S(=O)(=O)Cc3ccccc3)c2c1

>  <score_type>  (34) 
oracle

>  <origin>  (34) 
adg

>  <m_score__min__energy>  (34) 
-7.6399999999999997

>  <m_primary>  (34) 
energy

$$$$
34:0
     RDKit          3D

 32 34  0  0  0  0  0  0  0  0999 V2000
   59.1990   34.9720   44.9660 C   0  0  0  0  0  0  0  0  0  0  0  0
   58.4500   34.0310   44.2040 O   0  0  0  0  0  0  0  0  0  0  0  0
   58.3340   32.6670   44.5160 C   0  0  0  0  0  0  0  0  0  0  0  0
   58.5290   32.1800   45.8220 C   0  0  0  0  0  0  0  0  0  0  0  0
   58.4040   30.8150   46.0940 C   0  0  0  0  0  0  0  0  0  0  0  0
   58.0880   29.9110   45.0690 C   0  0  0  0  0  0  0  0  0  0  0  0
   57.9610   28.5060   45.3560 N   0  0  0  0  0  0  0  0  0  0  0  0
   56.8130   27.7850   45.4500 C   0  0  0  0  0  0  0  0  0  0  0  0
   55.5340   28.2850   45.2400 O   0  0  0  0  0  0  0  0  0  0  0  0
   57.1400   26.4690   45.6880 C   0  0  0  0  0  0  0  0  0  0  0  0
   58.4490   26.3550   45.7250 N   0  0  0  0  0  0  0  0  0  0  0  0
   58.9490   27.5810   45.4950 C   0  0  0  0  0  0  0  0  0  0  0  0
   60.1810   27.8280   45.3970 O   0  0  0  0  0  0  0  0  0  0  0  0
   58.9250   24.9990   45.6120 C   0  0  0  0  0  0  0  0  0  0  0  0
   57.6160   24.1620   45.5780 C   0  0  0  0  0  0  0  0  0  0  0  0
   56.4300   25.1770   45.5700 C   0  0  1  0  0  0  0  0  0  0  0  0
   55.5450   24.9730   46.6420 O   0  0  0  0  0  0  0  0  0  0  0  0
   57.8920   30.3970   43.7660 C   0  0  0  0  0  0  0  0  0  0  0  0
   58.0140   31.7630   43.4910 C   0  0  0  0  0  0  0  0  0  0  0  0
   57.7560   32.3340   41.8500 Cl  0  0  0  0  0  0  0  0  0  0  0  0
   59.0462   34.7801   46.0383 H   0  0  0  0  0  0  0  0  0  0  0  0
   60.2674   34.8721   44.7242 H   0  0  0  0  0  0  0  0  0  0  0  0
   58.8620   35.9908   44.7242 H   0  0  0  0  0  0  0  0  0  0  0  0
   58.7814   32.8782   46.6337 H   0  0  0  0  0  0  0  0  0  0  0  0
   58.5545   30.4467   47.1195 H   0  0  0  0  0  0  0  0  0  0  0  0
   59.5052   24.8608   44.6877 H   0  0  0  0  0  0  0  0  0  0  0  0
   59.5995   24.7100   46.4315 H   0  0  0  0  0  0  0  0  0  0  0  0
   57.5880   23.5400   44.6711 H   0  0  0  0  0  0  0  0  0  0  0  0
   57.5546   23.4910   46.4474 H   0  0  0  0  0  0  0  0  0  0  0  0
   55.7895   25.0949   44.6795 H   0  0  0  0  0  0  0  0  0  0  0  0
   55.4730   25.8280   47.1460 H   0  0  0  0  0  0  0  0  0  0  0  0
   57.6405   29.6977   42.9550 H   0  0  0  0  0  0  0  0  0  0  0  0
  1  2  1  0
  2  3  1  0
  3  4  2  0
  4  5  1  0
  5  6  2  0
  6  7  1  0
  7  8  1  0
  8  9  1  0
  8 10  2  0
 10 11  1  0
 11 12  1  0
 12 13  2  0
 11 14  1  0
 14 15  1  0
 15 16  1  0
 16 17  1  0
  6 18  1  0
 18 19  2  0
 19 20  1  0
 19  3  1  0
 12  7  1  0
 16 10  1  0
  1 21  1  0
  1 22  1  0
  1 23  1  0
  4 24  1  0
  5 25  1  0
 14 26  1  0
 14 27  1  0
 15 28  1  0
 15 29  1  0
 16 30  1  6
 17 31  1  0
 18 32  1  0
M  CHG  1   9  -1
M  END
>  <UniqueID>  (35) 
32

>  <SMILES>  (35) 
COc1ccc(-n2c([O-])c3n(c2=O)CC[C@H]3O)cc1Cl

>  <Energy>  (35) 
96.60419206723616

>  <Genealogy>  (35) 
COc1ccc(-n2c([O-])c3n(c2=O)CCC3O)cc1Cl (protonated)
COc1ccc(-n2c([O-])c3n(c2=O)CC[C@H]3O)cc1Cl (chirality)
COc1ccc(-n2c([O-])c3n(c2=O)CC[C@H]3O)cc1Cl (3D coordinates assigned)
COc1ccc(-n2c([O-])c3n(c2=O)CC[C@H]3O)cc1Cl (nonaromatic ring conformer: 96.60419206723616 kcal/mol)

>  <smiles>  (35) 
COc1ccc(-n2c(O)c3n(c2=O)CCC3O)cc1Cl

>  <score_type>  (35) 
oracle

>  <origin>  (35) 
adg

>  <m_score__min__energy>  (35) 
-10.32

>  <m_primary>  (35) 
energy

$$$$
35:0
     RDKit          3D

 52 55  0  0  0  0  0  0  0  0999 V2000
   57.5750   31.8350   42.3720 C   0  0  0  0  0  0  0  0  0  0  0  0
   56.9080   30.6010   42.7760 N   0  0  0  0  0  0  0  0  0  0  0  0
   56.7420   30.5490   44.5080 S   0  0  0  0  0  0  0  0  0  0  0  0
   56.6500   31.9620   45.0080 O   0  0  0  0  0  0  0  0  0  0  0  0
   55.4810   29.8150   44.8570 O   0  0  0  0  0  0  0  0  0  0  0  0
   58.1490   29.7620   45.2520 C   0  0  0  0  0  0  0  0  0  0  0  0
   58.2510   28.3620   45.1570 C   0  0  0  0  0  0  0  0  0  0  0  0
   59.3680   27.6890   45.6510 C   0  0  0  0  0  0  0  0  0  0  0  0
   60.4140   28.4040   46.2240 C   0  0  0  0  0  0  0  0  0  0  0  0
   60.3420   29.7920   46.3190 C   0  0  0  0  0  0  0  0  0  0  0  0
   59.2100   30.4950   45.8600 C   0  0  0  0  0  0  0  0  0  0  0  0
   59.1820   32.0030   46.0420 C   0  0  0  0  0  0  0  0  0  0  0  0
   59.8160   32.4070   47.3130 N   0  0  0  0  0  0  0  0  0  0  0  0
   59.0260   32.4260   48.5220 C   0  0  0  0  0  0  0  0  0  0  0  0
   57.8000   32.7190   48.4620 O   0  0  0  0  0  0  0  0  0  0  0  0
   59.6110   32.0440   49.7800 N   0  0  0  0  0  0  0  0  0  0  0  0
   58.8560   32.0450   51.0030 C   0  0  0  0  0  0  0  0  0  0  0  0
   59.2050   32.9070   52.0540 C   0  0  0  0  0  0  0  0  0  0  0  0
   58.4640   32.9120   53.2370 C   0  0  0  0  0  0  0  0  0  0  0  0
   57.3750   32.0500   53.3880 C   0  0  0  0  0  0  0  0  0  0  0  0
   57.0290   31.1570   52.3600 C   0  0  0  0  0  0  0  0  0  0  0  0
   55.8230   30.2620   52.4990 C   0  0  0  0  0  0  0  0  0  0  0  0
   54.9160   30.4980   51.4800 F   0  0  0  0  0  0  0  0  0  0  0  0
   56.2290   28.9420   52.4420 F   0  0  0  0  0  0  0  0  0  0  0  0
   55.1850   30.4860   53.7060 F   0  0  0  0  0  0  0  0  0  0  0  0
   57.7640   31.1760   51.1610 C   0  0  0  0  0  0  0  0  0  0  0  0
   61.2640   31.5280   49.7820 S   0  0  0  0  0  0  0  0  0  0  0  0
   61.3510   30.0410   49.5870 O   0  0  0  0  0  0  0  0  0  0  0  0
   61.9200   31.9250   51.0750 O   0  0  0  0  0  0  0  0  0  0  0  0
   62.0180   32.3620   48.4470 C   0  0  0  0  0  0  0  0  0  0  0  0
   63.3850   32.6680   48.4760 C   0  0  0  0  0  0  0  0  0  0  0  0
   63.9540   33.4150   47.4430 C   0  0  0  0  0  0  0  0  0  0  0  0
   63.1580   33.8750   46.3930 C   0  0  0  0  0  0  0  0  0  0  0  0
   61.7950   33.5660   46.3580 C   0  0  0  0  0  0  0  0  0  0  0  0
   61.2160   32.7760   47.3680 C   0  0  0  0  0  0  0  0  0  0  0  0
   57.8790   32.3975   43.2671 H   0  0  0  0  0  0  0  0  0  0  0  0
   58.4644   31.5916   41.7722 H   0  0  0  0  0  0  0  0  0  0  0  0
   56.8842   32.4458   41.7722 H   0  0  0  0  0  0  0  0  0  0  0  0
   57.4379   27.7900   44.6862 H   0  0  0  0  0  0  0  0  0  0  0  0
   59.4217   26.5922   45.5874 H   0  0  0  0  0  0  0  0  0  0  0  0
   61.2996   27.8728   46.6028 H   0  0  0  0  0  0  0  0  0  0  0  0
   61.1825   30.3484   46.7595 H   0  0  0  0  0  0  0  0  0  0  0  0
   59.7225   32.4737   45.2076 H   0  0  0  0  0  0  0  0  0  0  0  0
   58.1315   32.3286   46.0618 H   0  0  0  0  0  0  0  0  0  0  0  0
   60.0667   33.5820   51.9451 H   0  0  0  0  0  0  0  0  0  0  0  0
   58.7384   33.5968   54.0529 H   0  0  0  0  0  0  0  0  0  0  0  0
   56.7855   32.0706   54.3165 H   0  0  0  0  0  0  0  0  0  0  0  0
   57.4806   30.5031   50.3383 H   0  0  0  0  0  0  0  0  0  0  0  0
   64.0094   32.3199   49.3121 H   0  0  0  0  0  0  0  0  0  0  0  0
   65.0304   33.6412   47.4566 H   0  0  0  0  0  0  0  0  0  0  0  0
   63.6040   34.4819   45.5913 H   0  0  0  0  0  0  0  0  0  0  0  0
   61.1706   33.9433   45.5347 H   0  0  0  0  0  0  0  0  0  0  0  0
  1  2  1  0
  2  3  1  0
  3  4  2  0
  3  5  2  0
  3  6  1  0
  6  7  2  0
  7  8  1  0
  8  9  2  0
  9 10  1  0
 10 11  2  0
 11 12  1  0
 12 13  1  0
 13 14  1  0
 14 15  2  0
 14 16  1  0
 16 17  1  0
 17 18  2  0
 18 19  1  0
 19 20  2  0
 20 21  1  0
 21 22  1  0
 22 23  1  0
 22 24  1  0
 22 25  1  0
 21 26  2  0
 16 27  1  0
 27 28  2  0
 27 29  2  0
 27 30  1  0
 30 31  2  0
 31 32  1  0
 32 33  2  0
 33 34  1  0
 34 35  2  0
 11  6  1  0
 35 13  1  0
 26 17  1  0
 35 30  1  0
  1 36  1  0
  1 37  1  0
  1 38  1  0
  7 39  1  0
  8 40  1  0
  9 41  1  0
 10 42  1  0
 12 43  1  0
 12 44  1  0
 18 45  1  0
 19 46  1  0
 20 47  1  0
 26 48  1  0
 31 49  1  0
 32 50  1  0
 33 51  1  0
 34 52  1  0
M  CHG  1   2  -1
M  END
>  <UniqueID>  (36) 
33

>  <SMILES>  (36) 
C[N-]S(=O)(=O)c1ccccc1CN1C(=O)N(c2cccc(C(F)(F)F)c2)S(=O)(=O)c2ccccc21

>  <Energy>  (36) 
74.02239461782747

>  <Genealogy>  (36) 
C[N-]S(=O)(=O)c1ccccc1CN1C(=O)N(c2cccc(C(F)(F)F)c2)S(=O)(=O)c2ccccc21 (protonated)
C[N-]S(=O)(=O)c1ccccc1CN1C(=O)N(c2cccc(C(F)(F)F)c2)S(=O)(=O)c2ccccc21 (3D coordinates assigned)
C[N-]S(=O)(=O)c1ccccc1CN1C(=O)N(c2cccc(C(F)(F)F)c2)S(=O)(=O)c2ccccc21 (nonaromatic ring conformer: 74.02239461782747 kcal/mol)

>  <smiles>  (36) 
CNS(=O)(=O)c1ccccc1CN1C(=O)N(c2cccc(C(F)(F)F)c2)S(=O)(=O)c2ccccc21

>  <score_type>  (36) 
oracle

>  <origin>  (36) 
adg

>  <m_score__min__energy>  (36) 
-10.85

>  <m_primary>  (36) 
energy

$$$$
36:0
     RDKit          3D

 52 54  0  0  0  0  0  0  0  0999 V2000
   60.4290   27.1270   45.7290 C   0  0  0  0  0  0  0  0  0  0  0  0
   59.3750   27.7290   46.5480 N   0  0  0  0  0  0  0  0  0  0  0  0
   59.3420   27.5540   47.9800 C   0  0  0  0  0  0  0  0  0  0  0  0
   59.7030   26.4520   48.4820 O   0  0  0  0  0  0  0  0  0  0  0  0
   58.8860   28.6600   48.8900 C   0  0  0  0  0  0  0  0  0  0  0  0
   59.1140   29.9300   48.2840 O   0  0  0  0  0  0  0  0  0  0  0  0
   60.3800   30.5190   48.2220 C   0  0  0  0  0  0  0  0  0  0  0  0
   61.2890   30.0190   47.5040 O   0  0  0  0  0  0  0  0  0  0  0  0
   60.6560   31.7570   49.0160 C   0  0  0  0  0  0  0  0  0  0  0  0
   61.8650   32.4680   48.4710 C   0  0  0  0  0  0  0  0  0  0  0  0
   61.8270   33.0510   47.1930 C   0  0  0  0  0  0  0  0  0  0  0  0
   62.9620   33.6840   46.6730 C   0  0  0  0  0  0  0  0  0  0  0  0
   64.1410   33.7340   47.4230 C   0  0  0  0  0  0  0  0  0  0  0  0
   64.1900   33.1460   48.6900 C   0  0  0  0  0  0  0  0  0  0  0  0
   63.0580   32.5120   49.2130 C   0  0  0  0  0  0  0  0  0  0  0  0
   58.2820   28.3930   45.8920 C   0  0  0  0  0  0  0  0  0  0  0  0
   58.4560   29.6460   45.2700 C   0  0  0  0  0  0  0  0  0  0  0  0
   59.7650   30.2470   45.2700 N   0  0  0  0  0  0  0  0  0  0  0  0
   57.3790   30.2640   44.6650 N   0  0  0  0  0  0  0  0  0  0  0  0
   57.5280   31.5850   44.0130 C   0  0  0  0  0  0  0  0  0  0  0  0
   58.0770   32.6190   44.9700 C   0  0  0  0  0  0  0  0  0  0  0  0
   58.8350   33.7060   44.5020 C   0  0  0  0  0  0  0  0  0  0  0  0
   59.3060   34.6760   45.3930 C   0  0  0  0  0  0  0  0  0  0  0  0
   59.0100   34.5790   46.7550 C   0  0  0  0  0  0  0  0  0  0  0  0
   58.2390   33.5140   47.2270 C   0  0  0  0  0  0  0  0  0  0  0  0
   57.7670   32.5410   46.3400 C   0  0  0  0  0  0  0  0  0  0  0  0
   56.1550   29.6370   44.6560 C   0  0  0  0  0  0  0  0  0  0  0  0
   55.1580   30.1670   44.0960 O   0  0  0  0  0  0  0  0  0  0  0  0
   55.9960   28.4280   45.2480 N   0  0  0  0  0  0  0  0  0  0  0  0
   57.0220   27.7970   45.8610 C   0  0  0  0  0  0  0  0  0  0  0  0
   56.8310   26.6770   46.4010 O   0  0  0  0  0  0  0  0  0  0  0  0
   61.1966   26.6886   46.3836 H   0  0  0  0  0  0  0  0  0  0  0  0
   59.9956   26.3402   45.0941 H   0  0  0  0  0  0  0  0  0  0  0  0
   60.8865   27.9000   45.0941 H   0  0  0  0  0  0  0  0  0  0  0  0
   57.8111   28.5428   49.0919 H   0  0  0  0  0  0  0  0  0  0  0  0
   59.4559   28.6061   49.8293 H   0  0  0  0  0  0  0  0  0  0  0  0
   59.7850   32.4264   48.9590 H   0  0  0  0  0  0  0  0  0  0  0  0
   60.8474   31.4760   50.0621 H   0  0  0  0  0  0  0  0  0  0  0  0
   60.9020   33.0098   46.5991 H   0  0  0  0  0  0  0  0  0  0  0  0
   62.9264   34.1424   45.6737 H   0  0  0  0  0  0  0  0  0  0  0  0
   65.0306   34.2365   47.0155 H   0  0  0  0  0  0  0  0  0  0  0  0
   65.1198   33.1818   49.2766 H   0  0  0  0  0  0  0  0  0  0  0  0
   63.1016   32.0462   50.2086 H   0  0  0  0  0  0  0  0  0  0  0  0
   60.4950   30.0200   44.5620 H   0  0  0  0  0  0  0  0  0  0  0  0
   60.0620   30.8990   46.0280 H   0  0  0  0  0  0  0  0  0  0  0  0
   58.2160   31.4867   43.1604 H   0  0  0  0  0  0  0  0  0  0  0  0
   56.5342   31.9182   43.6793 H   0  0  0  0  0  0  0  0  0  0  0  0
   59.0592   33.7945   43.4287 H   0  0  0  0  0  0  0  0  0  0  0  0
   59.9103   35.5164   45.0208 H   0  0  0  0  0  0  0  0  0  0  0  0
   59.3838   35.3407   47.4551 H   0  0  0  0  0  0  0  0  0  0  0  0
   58.0025   33.4404   48.2988 H   0  0  0  0  0  0  0  0  0  0  0  0
   57.1505   31.7109   46.7154 H   0  0  0  0  0  0  0  0  0  0  0  0
  1  2  1  0
  2  3  1  0
  3  4  2  0
  3  5  1  0
  5  6  1  0
  6  7  1  0
  7  8  2  0
  7  9  1  0
  9 10  1  0
 10 11  2  0
 11 12  1  0
 12 13  2  0
 13 14  1  0
 14 15  2  0
  2 16  1  0
 16 17  2  0
 17 18  1  0
 17 19  1  0
 19 20  1  0
 20 21  1  0
 21 22  2  0
 22 23  1  0
 23 24  2  0
 24 25  1  0
 25 26  2  0
 19 27  1  0
 27 28  2  0
 27 29  1  0
 29 30  1  0
 30 31  2  0
 15 10  1  0
 30 16  1  0
 26 21  1  0
  1 32  1  0
  1 33  1  0
  1 34  1  0
  5 35  1  0
  5 36  1  0
  9 37  1  0
  9 38  1  0
 11 39  1  0
 12 40  1  0
 13 41  1  0
 14 42  1  0
 15 43  1  0
 18 44  1  0
 18 45  1  0
 20 46  1  0
 20 47  1  0
 22 48  1  0
 23 49  1  0
 24 50  1  0
 25 51  1  0
 26 52  1  0
M  CHG  1  29  -1
M  END
>  <UniqueID>  (37) 
34

>  <SMILES>  (37) 
CN(C(=O)COC(=O)Cc1ccccc1)c1c(N)n(Cc2ccccc2)c(=O)[n-]c1=O

>  <Energy>  (37) 
64.02651939133068

>  <Genealogy>  (37) 
CN(C(=O)COC(=O)Cc1ccccc1)c1c(N)n(Cc2ccccc2)c(=O)[n-]c1=O (protonated)
CN(C(=O)COC(=O)Cc1ccccc1)c1c(N)n(Cc2ccccc2)c(=O)[n-]c1=O (3D coordinates assigned)
CN(C(=O)COC(=O)Cc1ccccc1)c1c(N)n(Cc2ccccc2)c(=O)[n-]c1=O (optimized conformer: 64.02651939133068 kcal/mol)

>  <smiles>  (37) 
CN(C(=O)COC(=O)Cc1ccccc1)c1c(N)n(Cc2ccccc2)c(=O)[nH]c1=O

>  <score_type>  (37) 
oracle

>  <origin>  (37) 
adg

>  <m_score__min__energy>  (37) 
-9.5199999999999996

>  <m_primary>  (37) 
energy

$$$$
37:0
     RDKit          3D

 35 36  0  0  0  0  0  0  0  0999 V2000
   57.4110   31.9850   41.8940 C   0  0  0  0  0  0  0  0  0  0  0  0
   58.1090   31.6440   43.0660 O   0  0  0  0  0  0  0  0  0  0  0  0
   57.3510   30.3130   43.7990 S   0  0  0  0  0  0  0  0  0  0  0  0
   56.8740   29.3440   42.7520 O   0  0  0  0  0  0  0  0  0  0  0  0
   56.1660   30.8310   44.5640 O   0  0  0  0  0  0  0  0  0  0  0  0
   58.4660   29.5060   44.9190 C   0  0  0  0  0  0  0  0  0  0  0  0
   59.1900   28.3960   44.4480 C   0  0  0  0  0  0  0  0  0  0  0  0
   60.0890   27.7240   45.2770 C   0  0  0  0  0  0  0  0  0  0  0  0
   60.2880   28.1530   46.5850 C   0  0  0  0  0  0  0  0  0  0  0  0
   59.5920   29.2590   47.0700 C   0  0  0  0  0  0  0  0  0  0  0  0
   58.6720   29.9530   46.2560 C   0  0  0  0  0  0  0  0  0  0  0  0
   57.9810   31.1020   46.8060 N   0  0  0  0  0  0  0  0  0  0  0  0
   58.6750   32.3460   46.5400 C   0  0  0  0  0  0  0  0  0  0  0  0
   60.0590   32.4730   46.7920 C   0  0  0  0  0  0  0  0  0  0  0  0
   60.7410   33.6580   46.4790 C   0  0  0  0  0  0  0  0  0  0  0  0
   62.1980   33.8000   46.8110 C   0  0  0  0  0  0  0  0  0  0  0  0
   60.0390   34.7280   45.9110 C   0  0  0  0  0  0  0  0  0  0  0  0
   58.6820   34.6010   45.6160 C   0  0  0  0  0  0  0  0  0  0  0  0
   58.0040   33.4150   45.9100 C   0  0  0  0  0  0  0  0  0  0  0  0
   56.6890   33.3170   45.5900 F   0  0  0  0  0  0  0  0  0  0  0  0
   56.4523   32.4534   42.1614 H   0  0  0  0  0  0  0  0  0  0  0  0
   58.0116   32.6912   41.3019 H   0  0  0  0  0  0  0  0  0  0  0  0
   57.2231   31.0772   41.3019 H   0  0  0  0  0  0  0  0  0  0  0  0
   59.0457   28.0532   43.4128 H   0  0  0  0  0  0  0  0  0  0  0  0
   60.6416   26.8529   44.8952 H   0  0  0  0  0  0  0  0  0  0  0  0
   60.9950   27.6192   47.2371 H   0  0  0  0  0  0  0  0  0  0  0  0
   59.7626   29.5959   48.1031 H   0  0  0  0  0  0  0  0  0  0  0  0
   57.0220   31.1820   46.3930 H   0  0  0  0  0  0  0  0  0  0  0  0
   57.8360   30.9550   47.8280 H   0  0  0  0  0  0  0  0  0  0  0  0
   60.6089   31.6319   47.2394 H   0  0  0  0  0  0  0  0  0  0  0  0
   62.3256   33.8124   47.9035 H   0  0  0  0  0  0  0  0  0  0  0  0
   62.7552   32.9519   46.3864 H   0  0  0  0  0  0  0  0  0  0  0  0
   62.5809   34.7397   46.3864 H   0  0  0  0  0  0  0  0  0  0  0  0
   60.5601   35.6727   45.6966 H   0  0  0  0  0  0  0  0  0  0  0  0
   58.1426   35.4386   45.1496 H   0  0  0  0  0  0  0  0  0  0  0  0
  1  2  1  0
  2  3  1  0
  3  4  2  0
  3  5  2  0
  3  6  1  0
  6  7  2  0
  7  8  1  0
  8  9  2  0
  9 10  1  0
 10 11  2  0
 11 12  1  0
 12 13  1  0
 13 14  2  0
 14 15  1  0
 15 16  1  0
 15 17  2  0
 17 18  1  0
 18 19  2  0
 19 20  1  0
 11  6  1  0
 19 13  1  0
  1 21  1  0
  1 22  1  0
  1 23  1  0
  7 24  1  0
  8 25  1  0
  9 26  1  0
 10 27  1  0
 12 28  1  0
 12 29  1  0
 14 30  1  0
 16 31  1  0
 16 32  1  0
 16 33  1  0
 17 34  1  0
 18 35  1  0
M  CHG  1  12   1
M  END
>  <UniqueID>  (38) 
35

>  <SMILES>  (38) 
COS(=O)(=O)c1ccccc1[NH2+]c1cc(C)ccc1F

>  <Energy>  (38) 
44.33033249401366

>  <Genealogy>  (38) 
COS(=O)(=O)c1ccccc1[NH2+]c1cc(C)ccc1F (protonated)
COS(=O)(=O)c1ccccc1[NH2+]c1cc(C)ccc1F (3D coordinates assigned)
COS(=O)(=O)c1ccccc1[NH2+]c1cc(C)ccc1F (optimized conformer: 44.33033249401366 kcal/mol)

>  <smiles>  (38) 
COS(=O)(=O)c1ccccc1Nc1cc(C)ccc1F

>  <score_type>  (38) 
oracle

>  <origin>  (38) 
adg

>  <m_score__min__energy>  (38) 
-6.04

>  <m_primary>  (38) 
energy

$$$$
38:0
     RDKit          3D

 37 38  0  0  0  0  0  0  0  0999 V2000
   60.8190   30.6460   46.6310 C   0  0  0  0  0  0  0  0  0  0  0  0
   59.4280   30.5100   46.0710 C   0  0  0  0  0  0  0  0  0  0  0  0
   58.9690   29.2390   46.1200 N   0  0  0  0  0  0  0  0  0  0  0  0
   57.8330   28.5810   45.8060 C   0  0  0  0  0  0  0  0  0  0  0  0
   57.8340   27.1660   46.0560 N   0  0  0  0  0  0  0  0  0  0  0  0
   58.0790   26.5750   47.3610 C   0  0  0  0  0  0  0  0  0  0  0  0
   58.1430   25.0550   47.1310 C   0  0  0  0  0  0  0  0  0  0  0  0
   58.2830   24.8340   45.6180 C   0  0  0  0  0  0  0  0  0  0  0  0
   58.0280   26.1780   45.0600 C   0  0  0  0  0  0  0  0  0  0  0  0
   58.0270   26.4320   43.8250 O   0  0  0  0  0  0  0  0  0  0  0  0
   56.6810   29.1630   45.2590 C   0  0  0  0  0  0  0  0  0  0  0  0
   55.5290   28.3710   45.1370 O   0  0  0  0  0  0  0  0  0  0  0  0
   56.5510   30.4720   44.7920 C   0  0  0  0  0  0  0  0  0  0  0  0
   55.4700   30.7500   44.2020 O   0  0  0  0  0  0  0  0  0  0  0  0
   57.4580   31.5250   44.9140 C   0  0  0  0  0  0  0  0  0  0  0  0
   58.6970   31.6250   45.5760 C   0  0  0  0  0  0  0  0  0  0  0  0
   59.2600   33.0650   45.6110 C   0  0  0  0  0  0  0  0  0  0  0  0
   59.1490   33.6890   47.0090 C   0  0  0  0  0  0  0  0  0  0  0  0
   58.7580   34.0110   44.5060 C   0  0  0  0  0  0  0  0  0  0  0  0
   60.7738   30.6416   47.7301 H   0  0  0  0  0  0  0  0  0  0  0  0
   61.4371   29.8040   46.2860 H   0  0  0  0  0  0  0  0  0  0  0  0
   61.2623   31.5918   46.2860 H   0  0  0  0  0  0  0  0  0  0  0  0
   59.0312   26.9399   47.7735 H   0  0  0  0  0  0  0  0  0  0  0  0
   57.2898   26.8416   48.0794 H   0  0  0  0  0  0  0  0  0  0  0  0
   59.0108   24.6299   47.6565 H   0  0  0  0  0  0  0  0  0  0  0  0
   57.2388   24.5617   47.5172 H   0  0  0  0  0  0  0  0  0  0  0  0
   59.2941   24.4849   45.3615 H   0  0  0  0  0  0  0  0  0  0  0  0
   57.5993   24.0659   45.2273 H   0  0  0  0  0  0  0  0  0  0  0  0
   54.7710   28.5700   44.4970 H   0  0  0  0  0  0  0  0  0  0  0  0
   57.1486   32.4462   44.3985 H   0  0  0  0  0  0  0  0  0  0  0  0
   60.3265   32.9389   45.3732 H   0  0  0  0  0  0  0  0  0  0  0  0
   59.2879   32.9081   47.7712 H   0  0  0  0  0  0  0  0  0  0  0  0
   59.9240   34.4603   47.1288 H   0  0  0  0  0  0  0  0  0  0  0  0
   58.1555   34.1457   47.1288 H   0  0  0  0  0  0  0  0  0  0  0  0
   58.2893   34.8942   44.9645 H   0  0  0  0  0  0  0  0  0  0  0  0
   59.6063   34.3285   43.8818 H   0  0  0  0  0  0  0  0  0  0  0  0
   58.0196   33.4865   43.8818 H   0  0  0  0  0  0  0  0  0  0  0  0
  1  2  1  0
  2  3  2  0
  3  4  1  0
  4  5  1  0
  5  6  1  0
  6  7  1  0
  7  8  1  0
  8  9  1  0
  9 10  2  0
  4 11  2  0
 11 12  1  0
 11 13  1  0
 13 14  2  0
 13 15  1  0
 15 16  2  0
 16 17  1  0
 17 18  1  0
 17 19  1  0
 16  2  1  0
  9  5  1  0
  1 20  1  0
  1 21  1  0
  1 22  1  0
  6 23  1  0
  6 24  1  0
  7 25  1  0
  7 26  1  0
  8 27  1  0
  8 28  1  0
 12 29  1  0
 15 30  1  0
 17 31  1  0
 18 32  1  0
 18 33  1  0
 18 34  1  0
 19 35  1  0
 19 36  1  0
 19 37  1  0
M  END
>  <UniqueID>  (39) 
36

>  <SMILES>  (39) 
Cc1nc(N2CCCC2=O)c(O)c(=O)cc1C(C)C

>  <Energy>  (39) 
82.5001238020056

>  <Genealogy>  (39) 
Cc1nc(N2CCCC2=O)c(O)c(=O)cc1C(C)C (3D coordinates assigned)
Cc1nc(N2CCCC2=O)c(O)c(=O)cc1C(C)C (nonaromatic ring conformer: 82.5001238020056 kcal/mol)

>  <smiles>  (39) 
Cc1nc(N2CCCC2=O)c(O)c(=O)cc1C(C)C

>  <score_type>  (39) 
oracle

>  <origin>  (39) 
adg

>  <m_score__min__energy>  (39) 
-7.1500000000000004

>  <m_primary>  (39) 
energy

$$$$
39:0
     RDKit          3D

 62 66  0  0  0  0  0  0  0  0999 V2000
   55.6270   24.0520   46.2210 C   0  0  0  0  0  0  0  0  0  0  0  0
   55.9160   25.4250   46.4640 O   0  0  0  0  0  0  0  0  0  0  0  0
   56.6400   26.2480   45.5890 C   0  0  0  0  0  0  0  0  0  0  0  0
   57.3680   25.6410   44.5580 C   0  0  0  0  0  0  0  0  0  0  0  0
   58.1010   26.4190   43.6590 C   0  0  0  0  0  0  0  0  0  0  0  0
   58.1180   27.8090   43.7840 C   0  0  0  0  0  0  0  0  0  0  0  0
   57.3990   28.4420   44.8150 C   0  0  0  0  0  0  0  0  0  0  0  0
   57.3930   29.8770   44.9450 N   0  0  0  0  0  0  0  0  0  0  0  0
   58.3940   30.6730   45.3710 C   0  0  0  0  0  0  0  0  0  0  0  0
   57.9180   31.9620   45.2980 C   0  0  0  0  0  0  0  0  0  0  0  0
   58.6470   33.2080   45.6810 C   0  0  0  0  0  0  0  0  0  0  0  0
   58.9660   33.1990   47.1480 C   0  0  0  0  0  0  0  0  0  0  0  0
   58.4210   32.2200   47.9920 C   0  0  0  0  0  0  0  0  0  0  0  0
   58.6710   32.2510   49.3670 C   0  0  0  0  0  0  0  0  0  0  0  0
   59.4570   33.2770   49.9210 C   0  0  0  0  0  0  0  0  0  0  0  0
   59.6320   33.4270   51.3060 O   0  0  0  0  0  0  0  0  0  0  0  0
   60.8990   33.4980   51.9710 C   0  0  0  0  0  0  0  0  0  0  0  0
   61.3310   32.1220   52.5110 C   0  0  0  0  0  0  0  0  0  0  0  0
   60.1940   31.1380   52.4950 C   0  0  0  0  0  0  0  0  0  0  0  0
   58.9020   31.4670   52.6820 N   0  0  0  0  0  0  0  0  0  0  0  0
   58.2200   30.3190   52.4560 C   0  0  0  0  0  0  0  0  0  0  0  0
   56.7440   30.1920   52.4890 C   0  0  0  0  0  0  0  0  0  0  0  0
   56.1120   29.0840   53.0860 C   0  0  0  0  0  0  0  0  0  0  0  0
   54.7170   28.9990   53.1200 C   0  0  0  0  0  0  0  0  0  0  0  0
   53.9380   30.0140   52.5600 C   0  0  0  0  0  0  0  0  0  0  0  0
   54.5540   31.1190   51.9670 C   0  0  0  0  0  0  0  0  0  0  0  0
   55.9490   31.2100   51.9340 C   0  0  0  0  0  0  0  0  0  0  0  0
   59.0280   29.3230   52.1580 O   0  0  0  0  0  0  0  0  0  0  0  0
   60.2520   29.7990   52.1700 C   0  0  0  0  0  0  0  0  0  0  0  0
   61.4730   29.0000   51.8500 C   0  0  0  0  0  0  0  0  0  0  0  0
   60.0670   34.2040   49.0700 C   0  0  0  0  0  0  0  0  0  0  0  0
   59.8200   34.1690   47.6930 C   0  0  0  0  0  0  0  0  0  0  0  0
   56.6500   31.9250   44.8470 N   0  0  0  0  0  0  0  0  0  0  0  0
   56.3590   30.6500   44.6390 N   0  0  0  0  0  0  0  0  0  0  0  0
   56.6590   27.6510   45.7130 C   0  0  0  0  0  0  0  0  0  0  0  0
   55.5161   23.5253   47.1803 H   0  0  0  0  0  0  0  0  0  0  0  0
   54.6919   23.9700   45.6475 H   0  0  0  0  0  0  0  0  0  0  0  0
   56.4497   23.6001   45.6475 H   0  0  0  0  0  0  0  0  0  0  0  0
   57.3625   24.5458   44.4557 H   0  0  0  0  0  0  0  0  0  0  0  0
   58.6669   25.9345   42.8496 H   0  0  0  0  0  0  0  0  0  0  0  0
   58.6976   28.4142   43.0714 H   0  0  0  0  0  0  0  0  0  0  0  0
   59.3915   30.3557   45.7092 H   0  0  0  0  0  0  0  0  0  0  0  0
   59.5833   33.2708   45.1071 H   0  0  0  0  0  0  0  0  0  0  0  0
   58.0088   34.0764   45.4604 H   0  0  0  0  0  0  0  0  0  0  0  0
   57.7926   31.4224   47.5689 H   0  0  0  0  0  0  0  0  0  0  0  0
   58.2513   31.4699   50.0180 H   0  0  0  0  0  0  0  0  0  0  0  0
   61.6568   33.8565   51.2588 H   0  0  0  0  0  0  0  0  0  0  0  0
   60.8038   34.1883   52.8221 H   0  0  0  0  0  0  0  0  0  0  0  0
   62.1479   31.7335   51.8851 H   0  0  0  0  0  0  0  0  0  0  0  0
   61.6602   32.2497   53.5528 H   0  0  0  0  0  0  0  0  0  0  0  0
   58.5270   32.4150   52.9110 H   0  0  0  0  0  0  0  0  0  0  0  0
   56.7196   28.2807   53.5282 H   0  0  0  0  0  0  0  0  0  0  0  0
   54.2316   28.1304   53.5890 H   0  0  0  0  0  0  0  0  0  0  0  0
   52.8406   29.9435   52.5858 H   0  0  0  0  0  0  0  0  0  0  0  0
   53.9408   31.9184   51.5255 H   0  0  0  0  0  0  0  0  0  0  0  0
   56.4280   32.0849   51.4702 H   0  0  0  0  0  0  0  0  0  0  0  0
   61.9586   28.6822   52.7845 H   0  0  0  0  0  0  0  0  0  0  0  0
   61.1880   28.1132   51.2649 H   0  0  0  0  0  0  0  0  0  0  0  0
   62.1715   29.6162   51.2649 H   0  0  0  0  0  0  0  0  0  0  0  0
   60.7445   34.9647   49.4852 H   0  0  0  0  0  0  0  0  0  0  0  0
   60.2990   34.9075   47.0333 H   0  0  0  0  0  0  0  0  0  0  0  0
   56.0891   28.1335   46.5207 H   0  0  0  0  0  0  0  0  0  0  0  0
  1  2  1  0
  2  3  1  0
  3  4  2  0
  4  5  1  0
  5  6  2  0
  6  7  1  0
  7  8  1  0
  8  9  1  0
  9 10  2  0
 10 11  1  0
 11 12  1  0
 12 13  2  0
 13 14  1  0
 14 15  2  0
 15 16  1  0
 16 17  1  0
 17 18  1  0
 18 19  1  0
 19 20  1  0
 20 21  2  0
 21 22  1  0
 22 23  2  0
 23 24  1  0
 24 25  2  0
 25 26  1  0
 26 27  2  0
 21 28  1  0
 28 29  1  0
 29 30  1  0
 15 31  1  0
 31 32  2  0
 10 33  1  0
 33 34  2  0
  7 35  2  0
 35  3  1  0
 34  8  1  0
 32 12  1  0
 29 19  2  0
 27 22  1  0
  1 36  1  0
  1 37  1  0
  1 38  1  0
  4 39  1  0
  5 40  1  0
  6 41  1  0
  9 42  1  0
 11 43  1  0
 11 44  1  0
 13 45  1  0
 14 46  1  0
 17 47  1  0
 17 48  1  0
 18 49  1  0
 18 50  1  0
 20 51  1  0
 23 52  1  0
 24 53  1  0
 25 54  1  0
 26 55  1  0
 27 56  1  0
 30 57  1  0
 30 58  1  0
 30 59  1  0
 31 60  1  0
 32 61  1  0
 35 62  1  0
M  CHG  1  20   1
M  END
>  <UniqueID>  (40) 
37

>  <SMILES>  (40) 
COc1cccc(-n2cc(Cc3ccc(OCCc4[nH+]c(-c5ccccc5)oc4C)cc3)nn2)c1

>  <Energy>  (40) 
129.19921602520358

>  <Genealogy>  (40) 
COc1cccc(-n2cc(Cc3ccc(OCCc4[nH+]c(-c5ccccc5)oc4C)cc3)nn2)c1 (protonated)
COc1cccc(-n2cc(Cc3ccc(OCCc4[nH+]c(-c5ccccc5)oc4C)cc3)nn2)c1 (3D coordinates assigned)
COc1cccc(-n2cc(Cc3ccc(OCCc4[nH+]c(-c5ccccc5)oc4C)cc3)nn2)c1 (optimized conformer: 129.19921602520358 kcal/mol)

>  <smiles>  (40) 
COc1cccc(-n2cc(Cc3ccc(OCCc4nc(-c5ccccc5)oc4C)cc3)nn2)c1

>  <score_type>  (40) 
oracle

>  <origin>  (40) 
adg

>  <m_score__min__energy>  (40) 
-9.0999999999999996

>  <m_primary>  (40) 
energy

$$$$
40:0
     RDKit          3D

 45 48  0  0  1  0  0  0  0  0999 V2000
   55.0370   24.7530   45.5940 C   0  0  0  0  0  0  0  0  0  0  0  0
   55.1840   26.1540   45.8530 O   0  0  0  0  0  0  0  0  0  0  0  0
   56.4410   26.7300   45.9440 C   0  0  0  0  0  0  0  0  0  0  0  0
   57.5150   25.9570   46.3630 C   0  0  0  0  0  0  0  0  0  0  0  0
   58.7550   26.5420   46.4490 C   0  0  0  0  0  0  0  0  0  0  0  0
   58.9810   27.8740   46.1360 C   0  0  0  0  0  0  0  0  0  0  0  0
   57.8900   28.6430   45.7150 C   0  0  0  0  0  0  0  0  0  0  0  0
   58.0930   30.0470   45.3770 C   0  0  0  0  0  0  0  0  0  0  0  0
   57.9680   30.4240   44.0400 C   0  0  0  0  0  0  0  0  0  0  0  0
   58.1430   31.7330   43.6380 C   0  0  0  0  0  0  0  0  0  0  0  0
   58.4460   32.6650   44.5860 C   0  0  0  0  0  0  0  0  0  0  0  0
   58.6160   33.9350   44.1910 N   0  0  0  0  0  0  0  0  0  0  0  0
   58.9180   34.9190   45.0760 C   0  0  0  0  0  0  0  0  0  0  0  0
   59.0390   34.5580   46.3680 N   0  0  0  0  0  0  0  0  0  0  0  0
   58.8820   33.3040   46.8270 C   0  0  0  0  0  0  0  0  0  0  0  0
   59.0160   33.0340   48.1010 N   0  0  0  0  0  0  0  0  0  0  0  0
   60.4010   32.8610   48.5460 C   0  0  0  0  0  0  0  0  0  0  0  0
   61.3350   33.8100   47.8740 C   0  0  0  0  0  0  0  0  0  0  0  0
   62.3890   33.0220   47.1600 C   0  0  0  0  0  0  0  0  0  0  0  0
   61.9050   31.5770   47.1590 C   0  0  0  0  0  0  0  0  0  0  0  0
   60.9300   31.4800   48.2870 C   0  0  0  0  0  0  0  0  0  0  0  0
   58.5750   32.3080   45.9240 C   0  0  0  0  0  0  0  0  0  0  0  0
   58.4000   31.0000   46.3310 C   0  0  0  0  0  0  0  0  0  0  0  0
   56.6370   28.0630   45.6250 C   0  0  0  0  0  0  0  0  0  0  0  0
   55.5520   28.7850   45.2180 F   0  0  0  0  0  0  0  0  0  0  0  0
   54.9798   24.2078   46.5477 H   0  0  0  0  0  0  0  0  0  0  0  0
   54.1159   24.5813   45.0177 H   0  0  0  0  0  0  0  0  0  0  0  0
   55.9024   24.3939   45.0177 H   0  0  0  0  0  0  0  0  0  0  0  0
   57.3760   24.8968   46.6211 H   0  0  0  0  0  0  0  0  0  0  0  0
   59.6051   25.9275   46.7803 H   0  0  0  0  0  0  0  0  0  0  0  0
   59.9866   28.3126   46.2161 H   0  0  0  0  0  0  0  0  0  0  0  0
   57.7240   29.6596   43.2875 H   0  0  0  0  0  0  0  0  0  0  0  0
   58.0406   32.0168   42.5802 H   0  0  0  0  0  0  0  0  0  0  0  0
   58.5200   34.2020   43.1920 H   0  0  0  0  0  0  0  0  0  0  0  0
   59.0572   35.9614   44.7534 H   0  0  0  0  0  0  0  0  0  0  0  0
   60.3623   33.0542   49.6282 H   0  0  0  0  0  0  0  0  0  0  0  0
   60.7800   34.4259   47.1511 H   0  0  0  0  0  0  0  0  0  0  0  0
   61.8015   34.4688   48.6212 H   0  0  0  0  0  0  0  0  0  0  0  0
   62.5059   33.3866   46.1288 H   0  0  0  0  0  0  0  0  0  0  0  0
   63.3675   33.1187   47.6531 H   0  0  0  0  0  0  0  0  0  0  0  0
   61.4134   31.3372   46.2046 H   0  0  0  0  0  0  0  0  0  0  0  0
   62.7378   30.8683   47.2783 H   0  0  0  0  0  0  0  0  0  0  0  0
   60.1044   30.8068   48.0130 H   0  0  0  0  0  0  0  0  0  0  0  0
   61.4174   31.0766   49.1869 H   0  0  0  0  0  0  0  0  0  0  0  0
   58.5025   30.7223   47.3904 H   0  0  0  0  0  0  0  0  0  0  0  0
  1  2  1  0
  2  3  1  0
  3  4  2  0
  4  5  1  0
  5  6  2  0
  6  7  1  0
  7  8  1  0
  8  9  2  0
  9 10  1  0
 10 11  2  0
 11 12  1  0
 12 13  1  0
 13 14  2  0
 14 15  1  0
 15 16  2  0
 16 17  1  0
 17 18  1  0
 18 19  1  0
 19 20  1  0
 20 21  1  0
 15 22  1  0
 22 23  2  0
  7 24  2  0
 24 25  1  0
 24  3  1  0
 23  8  1  0
 22 11  1  0
 21 17  1  0
  1 26  1  0
  1 27  1  0
  1 28  1  0
  4 29  1  0
  5 30  1  0
  6 31  1  0
  9 32  1  0
 10 33  1  0
 12 34  1  0
 13 35  1  0
 17 36  1  0
 18 37  1  0
 18 38  1  0
 19 39  1  0
 19 40  1  0
 20 41  1  0
 20 42  1  0
 21 43  1  0
 21 44  1  0
 23 45  1  0
M  END
>  <smiles>  (41) 
COc1cccc(-c2ccc3[nH]cnc(=NC4CCCC4)c3c2)c1F

>  <score_type>  (41) 
oracle

>  <origin>  (41) 
adg

>  <m_score__min__energy>  (41) 
-8.7100000000000009

>  <m_primary>  (41) 
energy

$$$$
41:0
     RDKit          3D

 27 30  0  0  0  0  0  0  0  0999 V2000
   60.0050   35.8490   45.9850 O   0  0  0  0  0  0  0  0  0  0  0  0
   59.4790   34.7060   46.0600 C   0  0  0  0  0  0  0  0  0  0  0  0
   58.9750   34.1250   44.9310 N   0  0  0  0  0  0  0  0  0  0  0  0
   58.4100   32.8940   45.0200 C   0  0  0  0  0  0  0  0  0  0  0  0
   57.8460   32.1270   44.0320 C   0  0  0  0  0  0  0  0  0  0  0  0
   57.6560   32.3110   42.6660 C   0  0  0  0  0  0  0  0  0  0  0  0
   57.0210   31.2730   41.9580 C   0  0  0  0  0  0  0  0  0  0  0  0
   56.5990   30.0980   42.6250 C   0  0  0  0  0  0  0  0  0  0  0  0
   56.8090   29.9460   44.0110 C   0  0  0  0  0  0  0  0  0  0  0  0
   57.4390   30.9860   44.6880 C   0  0  0  0  0  0  0  0  0  0  0  0
   57.7360   31.0500   46.0070 N   0  0  0  0  0  0  0  0  0  0  0  0
   58.3300   32.2260   46.1830 N   0  0  0  0  0  0  0  0  0  0  0  0
   58.8100   32.7430   47.3450 C   0  0  0  0  0  0  0  0  0  0  0  0
   58.7250   32.0420   48.5600 C   0  0  0  0  0  0  0  0  0  0  0  0
   59.2320   32.6140   49.7290 C   0  0  0  0  0  0  0  0  0  0  0  0
   59.8250   33.8800   49.6960 C   0  0  0  0  0  0  0  0  0  0  0  0
   59.9160   34.5870   48.4930 C   0  0  0  0  0  0  0  0  0  0  0  0
   59.4100   34.0270   47.3050 C   0  0  0  0  0  0  0  0  0  0  0  0
   59.0220   34.6200   44.0130 H   0  0  0  0  0  0  0  0  0  0  0  0
   57.9882   33.2296   42.1602 H   0  0  0  0  0  0  0  0  0  0  0  0
   56.8512   31.3761   40.8761 H   0  0  0  0  0  0  0  0  0  0  0  0
   56.1031   29.2968   42.0574 H   0  0  0  0  0  0  0  0  0  0  0  0
   56.4860   29.0367   44.5390 H   0  0  0  0  0  0  0  0  0  0  0  0
   58.2604   31.0454   48.5903 H   0  0  0  0  0  0  0  0  0  0  0  0
   59.1645   32.0659   50.6803 H   0  0  0  0  0  0  0  0  0  0  0  0
   60.2221   34.3222   50.6216 H   0  0  0  0  0  0  0  0  0  0  0  0
   60.3838   35.5824   48.4751 H   0  0  0  0  0  0  0  0  0  0  0  0
  1  2  2  0
  2  3  1  0
  3  4  1  0
  4  5  2  0
  5  6  1  0
  6  7  2  0
  7  8  1  0
  8  9  2  0
  9 10  1  0
 10 11  2  0
 11 12  1  0
 12 13  1  0
 13 14  2  0
 14 15  1  0
 15 16  2  0
 16 17  1  0
 17 18  2  0
 18  2  1  0
 12  4  1  0
 18 13  1  0
 10  5  1  0
  3 19  1  0
  6 20  1  0
  7 21  1  0
  8 22  1  0
  9 23  1  0
 14 24  1  0
 15 25  1  0
 16 26  1  0
 17 27  1  0
M  END
>  <UniqueID>  (42) 
38

>  <SMILES>  (42) 
O=c1[nH]c2c3ccccc3nn2c2ccccc12

>  <Energy>  (42) 
81.82918265904993

>  <Genealogy>  (42) 
O=c1[nH]c2c3ccccc3nn2c2ccccc12 (3D coordinates assigned)
O=c1[nH]c2c3ccccc3nn2c2ccccc12 (optimized conformer: 81.82918265904993 kcal/mol)

>  <smiles>  (42) 
O=c1[nH]c2c3ccccc3nn2c2ccccc12

>  <score_type>  (42) 
oracle

>  <origin>  (42) 
adg

>  <m_score__min__energy>  (42) 
-7.0800000000000001

>  <m_primary>  (42) 
energy

$$$$
42:0
     RDKit          3D

 48 51  0  0  0  0  0  0  0  0999 V2000
   57.0120   21.0930   43.0140 C   0  0  0  0  0  0  0  0  0  0  0  0
   56.1290   22.1600   43.3400 O   0  0  0  0  0  0  0  0  0  0  0  0
   56.5210   23.3460   43.9810 C   0  0  0  0  0  0  0  0  0  0  0  0
   57.0920   24.4250   43.2870 C   0  0  0  0  0  0  0  0  0  0  0  0
   57.4650   25.5860   43.9730 C   0  0  0  0  0  0  0  0  0  0  0  0
   58.1470   26.8790   43.1350 S   0  0  0  0  0  0  0  0  0  0  0  0
   58.5180   28.1630   44.1550 C   0  0  0  0  0  0  0  0  0  0  0  0
   58.2440   28.0380   45.5180 C   0  0  0  0  0  0  0  0  0  0  0  0
   58.5810   29.1480   46.3640 N   0  0  0  0  0  0  0  0  0  0  0  0
   59.4490   28.9280   47.5280 C   0  0  0  0  0  0  0  0  0  0  0  0
   59.7330   30.2420   48.2590 C   0  0  0  0  0  0  0  0  0  0  0  0
   60.0820   31.2830   47.2840 N   0  0  0  0  0  0  0  0  0  0  0  0
   61.3070   32.0290   47.4150 C   0  0  0  0  0  0  0  0  0  0  0  0
   61.5760   33.1110   46.5610 C   0  0  0  0  0  0  0  0  0  0  0  0
   62.7730   33.8210   46.6760 C   0  0  0  0  0  0  0  0  0  0  0  0
   63.7150   33.4580   47.6420 C   0  0  0  0  0  0  0  0  0  0  0  0
   63.4580   32.3870   48.5110 C   0  0  0  0  0  0  0  0  0  0  0  0
   64.4880   31.9660   49.5160 C   0  0  0  0  0  0  0  0  0  0  0  0
   62.2610   31.6650   48.3800 C   0  0  0  0  0  0  0  0  0  0  0  0
   59.2170   31.5120   46.1150 C   0  0  0  0  0  0  0  0  0  0  0  0
   58.0750   30.4880   46.0450 C   0  0  0  0  0  0  0  0  0  0  0  0
   57.6510   26.8810   46.0960 C   0  0  0  0  0  0  0  0  0  0  0  0
   57.4330   26.9090   47.3400 O   0  0  0  0  0  0  0  0  0  0  0  0
   57.2790   25.7060   45.3690 C   0  0  0  0  0  0  0  0  0  0  0  0
   56.7020   24.6100   46.0490 C   0  0  0  0  0  0  0  0  0  0  0  0
   56.3300   23.4500   45.3630 C   0  0  0  0  0  0  0  0  0  0  0  0
   55.7800   22.4170   46.0500 F   0  0  0  0  0  0  0  0  0  0  0  0
   57.3910   20.6350   43.9395 H   0  0  0  0  0  0  0  0  0  0  0  0
   56.4719   20.3369   42.4252 H   0  0  0  0  0  0  0  0  0  0  0  0
   57.8557   21.4822   42.4252 H   0  0  0  0  0  0  0  0  0  0  0  0
   57.2466   24.3572   42.2000 H   0  0  0  0  0  0  0  0  0  0  0  0
   58.9680   29.0840   43.7559 H   0  0  0  0  0  0  0  0  0  0  0  0
   58.9525   28.2318   48.2200 H   0  0  0  0  0  0  0  0  0  0  0  0
   60.4040   28.5093   47.1778 H   0  0  0  0  0  0  0  0  0  0  0  0
   58.8377   30.5503   48.8189 H   0  0  0  0  0  0  0  0  0  0  0  0
   60.5719   30.0983   48.9558 H   0  0  0  0  0  0  0  0  0  0  0  0
   60.8395   33.4009   45.7971 H   0  0  0  0  0  0  0  0  0  0  0  0
   62.9748   34.6684   46.0042 H   0  0  0  0  0  0  0  0  0  0  0  0
   64.6610   34.0137   47.7214 H   0  0  0  0  0  0  0  0  0  0  0  0
   64.0964   32.1261   50.5314 H   0  0  0  0  0  0  0  0  0  0  0  0
   64.7218   30.9002   49.3769 H   0  0  0  0  0  0  0  0  0  0  0  0
   65.4014   32.5629   49.3769 H   0  0  0  0  0  0  0  0  0  0  0  0
   62.0682   30.8059   49.0394 H   0  0  0  0  0  0  0  0  0  0  0  0
   58.7866   32.5221   46.1823 H   0  0  0  0  0  0  0  0  0  0  0  0
   59.8302   31.4047   45.2081 H   0  0  0  0  0  0  0  0  0  0  0  0
   57.2937   30.7639   46.7685 H   0  0  0  0  0  0  0  0  0  0  0  0
   57.6570   30.4829   45.0275 H   0  0  0  0  0  0  0  0  0  0  0  0
   56.5429   24.6704   47.1358 H   0  0  0  0  0  0  0  0  0  0  0  0
  1  2  1  0
  2  3  1  0
  3  4  2  0
  4  5  1  0
  5  6  1  0
  6  7  1  0
  7  8  2  0
  8  9  1  0
  9 10  1  0
 10 11  1  0
 11 12  1  0
 12 13  1  0
 13 14  2  0
 14 15  1  0
 15 16  2  0
 16 17  1  0
 17 18  1  0
 17 19  2  0
 12 20  1  0
 20 21  1  0
  8 22  1  0
 22 23  2  0
 22 24  1  0
 24 25  1  0
 25 26  2  0
 26 27  1  0
 26  3  1  0
 24  5  2  0
 21  9  1  0
 19 13  1  0
  1 28  1  0
  1 29  1  0
  1 30  1  0
  4 31  1  0
  7 32  1  0
 10 33  1  0
 10 34  1  0
 11 35  1  0
 11 36  1  0
 14 37  1  0
 15 38  1  0
 16 39  1  0
 18 40  1  0
 18 41  1  0
 18 42  1  0
 19 43  1  0
 20 44  1  0
 20 45  1  0
 21 46  1  0
 21 47  1  0
 25 48  1  0
M  END
>  <UniqueID>  (43) 
39

>  <SMILES>  (43) 
COc1cc2scc(N3CCN(c4cccc(C)c4)CC3)c(=O)c2cc1F

>  <Energy>  (43) 
68.31464214527526

>  <Genealogy>  (43) 
COc1cc2scc(N3CCN(c4cccc(C)c4)CC3)c(=O)c2cc1F (3D coordinates assigned)
COc1cc2scc(N3CCN(c4cccc(C)c4)CC3)c(=O)c2cc1F (nonaromatic ring conformer: 68.31464214527526 kcal/mol)

>  <smiles>  (43) 
COc1cc2scc(N3CCN(c4cccc(C)c4)CC3)c(=O)c2cc1F

>  <score_type>  (43) 
oracle

>  <origin>  (43) 
adg

>  <m_score__min__energy>  (43) 
-7.6699999999999999

>  <m_primary>  (43) 
energy

$$$$
43:0
     RDKit          3D

 35 38  0  0  0  0  0  0  0  0999 V2000
   53.2600   24.0700   45.0690 C   0  0  0  0  0  0  0  0  0  0  0  0
   54.1110   24.8130   45.9360 O   0  0  0  0  0  0  0  0  0  0  0  0
   55.5050   24.6780   45.9730 C   0  0  0  0  0  0  0  0  0  0  0  0
   56.1610   23.4300   46.1130 C   0  0  0  0  0  0  0  0  0  0  0  0
   57.5720   23.3630   46.1400 C   0  0  0  0  0  0  0  0  0  0  0  0
   58.3450   24.5320   46.0280 C   0  0  0  0  0  0  0  0  0  0  0  0
   57.6700   25.7420   45.8940 C   0  0  0  0  0  0  0  0  0  0  0  0
   58.2000   26.9670   45.7660 N   0  0  0  0  0  0  0  0  0  0  0  0
   57.0990   27.7610   45.6770 C   0  0  0  0  0  0  0  0  0  0  0  0
   57.1880   29.2220   45.4620 C   0  0  0  0  0  0  0  0  0  0  0  0
   58.3070   29.9050   45.9730 C   0  0  0  0  0  0  0  0  0  0  0  0
   58.4820   31.2750   45.7340 C   0  0  0  0  0  0  0  0  0  0  0  0
   59.6070   31.9510   46.2340 C   0  0  0  0  0  0  0  0  0  0  0  0
   59.7760   33.3140   45.9820 C   0  0  0  0  0  0  0  0  0  0  0  0
   58.8280   34.0130   45.2300 C   0  0  0  0  0  0  0  0  0  0  0  0
   57.7050   33.3520   44.7250 C   0  0  0  0  0  0  0  0  0  0  0  0
   57.5250   31.9810   44.9720 C   0  0  0  0  0  0  0  0  0  0  0  0
   56.4000   31.3080   44.4790 C   0  0  0  0  0  0  0  0  0  0  0  0
   56.2110   29.9460   44.7350 C   0  0  0  0  0  0  0  0  0  0  0  0
   55.0280   29.3600   44.2810 O   0  0  0  0  0  0  0  0  0  0  0  0
   55.9190   27.0850   45.7200 N   0  0  0  0  0  0  0  0  0  0  0  0
   56.3110   25.8120   45.8670 C   0  0  0  0  0  0  0  0  0  0  0  0
   52.5653   23.4634   45.6685 H   0  0  0  0  0  0  0  0  0  0  0  0
   52.6880   24.7629   44.4344 H   0  0  0  0  0  0  0  0  0  0  0  0
   53.8694   23.4098   44.4344 H   0  0  0  0  0  0  0  0  0  0  0  0
   55.5681   22.5076   46.2012 H   0  0  0  0  0  0  0  0  0  0  0  0
   58.0698   22.3882   46.2495 H   0  0  0  0  0  0  0  0  0  0  0  0
   59.4441   24.4919   46.0456 H   0  0  0  0  0  0  0  0  0  0  0  0
   59.0534   29.3573   46.5671 H   0  0  0  0  0  0  0  0  0  0  0  0
   60.3568   31.4054   46.8256 H   0  0  0  0  0  0  0  0  0  0  0  0
   60.6582   33.8392   46.3767 H   0  0  0  0  0  0  0  0  0  0  0  0
   58.9661   35.0867   45.0350 H   0  0  0  0  0  0  0  0  0  0  0  0
   56.9612   33.9060   44.1334 H   0  0  0  0  0  0  0  0  0  0  0  0
   55.6561   31.8572   43.8833 H   0  0  0  0  0  0  0  0  0  0  0  0
   54.7600   28.4070   44.4920 H   0  0  0  0  0  0  0  0  0  0  0  0
  1  2  1  0
  2  3  1  0
  3  4  2  0
  4  5  1  0
  5  6  2  0
  6  7  1  0
  7  8  1  0
  8  9  1  0
  9 10  1  0
 10 11  2  0
 11 12  1  0
 12 13  2  0
 13 14  1  0
 14 15  2  0
 15 16  1  0
 16 17  2  0
 17 18  1  0
 18 19  2  0
 19 20  1  0
  9 21  2  0
 21 22  1  0
 22  3  1  0
 22  7  2  0
 19 10  1  0
 17 12  1  0
  1 23  1  0
  1 24  1  0
  1 25  1  0
  4 26  1  0
  5 27  1  0
  6 28  1  0
 11 29  1  0
 13 30  1  0
 14 31  1  0
 15 32  1  0
 16 33  1  0
 18 34  1  0
 20 35  1  0
M  CHG  1   8  -1
M  END
>  <UniqueID>  (44) 
40

>  <SMILES>  (44) 
COc1cccc2[n-]c(-c3cc4ccccc4cc3O)nc12

>  <Energy>  (44) 
82.20365634667588

>  <Genealogy>  (44) 
COc1cccc2[n-]c(-c3cc4ccccc4cc3O)nc12 (protonated)
COc1cccc2[n-]c(-c3cc4ccccc4cc3O)nc12 (3D coordinates assigned)
COc1cccc2[n-]c(-c3cc4ccccc4cc3O)nc12 (optimized conformer: 82.20365634667588 kcal/mol)

>  <smiles>  (44) 
COc1cccc2[nH]c(-c3cc4ccccc4cc3O)nc12

>  <score_type>  (44) 
oracle

>  <origin>  (44) 
adg

>  <m_score__min__energy>  (44) 
-9.9399999999999995

>  <m_primary>  (44) 
energy

$$$$
44:0
     RDKit          3D

 43 46  0  0  0  0  0  0  0  0999 V2000
   63.4670   33.1490   47.1540 C   0  0  0  0  0  0  0  0  0  0  0  0
   61.9910   33.1580   47.4200 C   0  0  0  0  0  0  0  0  0  0  0  0
   61.4020   34.2240   48.1170 C   0  0  0  0  0  0  0  0  0  0  0  0
   60.0210   34.2530   48.3250 C   0  0  0  0  0  0  0  0  0  0  0  0
   59.2150   33.2240   47.8300 C   0  0  0  0  0  0  0  0  0  0  0  0
   59.7900   32.1580   47.1230 C   0  0  0  0  0  0  0  0  0  0  0  0
   58.9600   31.1190   46.5800 N   0  0  0  0  0  0  0  0  0  0  0  0
   58.7320   29.8860   47.0990 C   0  0  0  0  0  0  0  0  0  0  0  0
   59.3970   29.3230   48.2950 C   0  0  0  0  0  0  0  0  0  0  0  0
   59.9890   28.0500   48.2710 C   0  0  0  0  0  0  0  0  0  0  0  0
   60.5780   27.5620   49.3940 N   0  0  0  0  0  0  0  0  0  0  0  0
   60.6000   28.2790   50.5460 C   0  0  0  0  0  0  0  0  0  0  0  0
   59.9950   29.5350   50.5840 C   0  0  0  0  0  0  0  0  0  0  0  0
   59.4000   30.0280   49.4630 N   0  0  0  0  0  0  0  0  0  0  0  0
   57.8040   29.1930   46.4040 N   0  0  0  0  0  0  0  0  0  0  0  0
   57.4390   30.0240   45.4090 C   0  0  0  0  0  0  0  0  0  0  0  0
   58.1340   31.2120   45.5150 C   0  0  0  0  0  0  0  0  0  0  0  0
   58.0260   32.3820   44.5720 C   0  0  0  0  0  0  0  0  0  0  0  0
   58.0780   31.9730   43.0900 C   0  0  0  0  0  0  0  0  0  0  0  0
   56.8110   31.2960   42.5240 C   0  0  0  0  0  0  0  0  0  0  0  0
   56.6280   29.8270   42.9430 C   0  0  0  0  0  0  0  0  0  0  0  0
   56.3880   29.7040   44.4250 C   0  0  0  0  0  0  0  0  0  0  0  0
   55.2570   29.3310   44.8360 O   0  0  0  0  0  0  0  0  0  0  0  0
   61.1760   32.1340   46.9110 C   0  0  0  0  0  0  0  0  0  0  0  0
   64.0118   33.1457   48.1096 H   0  0  0  0  0  0  0  0  0  0  0  0
   63.7304   32.2492   46.5786 H   0  0  0  0  0  0  0  0  0  0  0  0
   63.7414   34.0455   46.5786 H   0  0  0  0  0  0  0  0  0  0  0  0
   62.0307   35.0406   48.5014 H   0  0  0  0  0  0  0  0  0  0  0  0
   59.5669   35.0874   48.8795 H   0  0  0  0  0  0  0  0  0  0  0  0
   58.1278   33.2503   47.9952 H   0  0  0  0  0  0  0  0  0  0  0  0
   59.9760   27.4512   47.3483 H   0  0  0  0  0  0  0  0  0  0  0  0
   61.0911   27.8728   51.4426 H   0  0  0  0  0  0  0  0  0  0  0  0
   59.9985   30.1234   51.5134 H   0  0  0  0  0  0  0  0  0  0  0  0
   58.9550   30.9720   49.5080 H   0  0  0  0  0  0  0  0  0  0  0  0
   57.0714   32.8953   44.7597 H   0  0  0  0  0  0  0  0  0  0  0  0
   58.8906   33.0351   44.7613 H   0  0  0  0  0  0  0  0  0  0  0  0
   58.2663   32.8807   42.4979 H   0  0  0  0  0  0  0  0  0  0  0  0
   58.8719   31.2147   43.0220 H   0  0  0  0  0  0  0  0  0  0  0  0
   55.9348   31.8634   42.8709 H   0  0  0  0  0  0  0  0  0  0  0  0
   56.9199   31.2966   41.4294 H   0  0  0  0  0  0  0  0  0  0  0  0
   55.7660   29.4060   42.4047 H   0  0  0  0  0  0  0  0  0  0  0  0
   57.5488   29.2789   42.6948 H   0  0  0  0  0  0  0  0  0  0  0  0
   61.6276   31.3078   46.3424 H   0  0  0  0  0  0  0  0  0  0  0  0
  1  2  1  0
  2  3  2  0
  3  4  1  0
  4  5  2  0
  5  6  1  0
  6  7  1  0
  7  8  1  0
  8  9  1  0
  9 10  2  0
 10 11  1  0
 11 12  2  0
 12 13  1  0
 13 14  2  0
  8 15  2  0
 15 16  1  0
 16 17  2  0
 17 18  1  0
 18 19  1  0
 19 20  1  0
 20 21  1  0
 21 22  1  0
 22 23  2  0
  6 24  2  0
 24  2  1  0
 17  7  1  0
 14  9  1  0
 22 16  1  0
  1 25  1  0
  1 26  1  0
  1 27  1  0
  3 28  1  0
  4 29  1  0
  5 30  1  0
 10 31  1  0
 12 32  1  0
 13 33  1  0
 14 34  1  0
 18 35  1  0
 18 36  1  0
 19 37  1  0
 19 38  1  0
 20 39  1  0
 20 40  1  0
 21 41  1  0
 21 42  1  0
 24 43  1  0
M  CHG  1  14   1
M  END
>  <UniqueID>  (45) 
41

>  <SMILES>  (45) 
Cc1cccc(-n2c(-c3cncc[nH+]3)nc3c2CCCCC3=O)c1

>  <Energy>  (45) 
90.53754309626036

>  <Genealogy>  (45) 
Cc1cccc(-n2c(-c3cncc[nH+]3)nc3c2CCCCC3=O)c1 (protonated)
Cc1cccc(-n2c(-c3cncc[nH+]3)nc3c2CCCCC3=O)c1 (3D coordinates assigned)
Cc1cccc(-n2c(-c3cncc[nH+]3)nc3c2CCCCC3=O)c1 (nonaromatic ring conformer: 90.53754309626036 kcal/mol)

>  <smiles>  (45) 
Cc1cccc(-n2c(-c3cnccn3)nc3c2CCCCC3=O)c1

>  <score_type>  (45) 
oracle

>  <origin>  (45) 
adg

>  <m_score__min__energy>  (45) 
-5.4100000000000001

>  <m_primary>  (45) 
energy

$$$$
45:0
     RDKit          3D

 46 47  0  0  0  0  0  0  0  0999 V2000
   59.2160   22.3160   44.8660 C   0  0  0  0  0  0  0  0  0  0  0  0
   57.7060   22.5020   45.0200 C   0  0  0  0  0  0  0  0  0  0  0  0
   57.2870   23.8920   44.7200 N   0  0  0  0  0  0  0  0  0  0  0  0
   56.7120   23.9710   43.3570 C   0  0  0  0  0  0  0  0  0  0  0  0
   56.2780   22.5880   42.8780 C   0  0  0  0  0  0  0  0  0  0  0  0
   56.3320   24.4130   45.7320 C   0  0  0  0  0  0  0  0  0  0  0  0
   56.2480   25.9060   45.6400 C   0  0  0  0  0  0  0  0  0  0  0  0
   55.1940   26.4910   46.0110 O   0  0  0  0  0  0  0  0  0  0  0  0
   57.3290   26.6530   45.0620 N   0  0  0  0  0  0  0  0  0  0  0  0
   57.5010   28.0710   45.2200 C   0  0  0  0  0  0  0  0  0  0  0  0
   58.2190   28.5590   46.3200 C   0  0  0  0  0  0  0  0  0  0  0  0
   58.3810   29.9350   46.5100 C   0  0  0  0  0  0  0  0  0  0  0  0
   57.8070   30.8480   45.6120 C   0  0  0  0  0  0  0  0  0  0  0  0
   57.9760   32.2660   45.7980 N   0  0  0  0  0  0  0  0  0  0  0  0
   58.1430   32.8080   47.1510 C   0  0  0  0  0  0  0  0  0  0  0  0
   58.5750   34.2740   47.0900 C   0  0  0  0  0  0  0  0  0  0  0  0
   59.4830   34.4490   46.0240 O   0  0  0  0  0  0  0  0  0  0  0  0
   58.7960   34.3930   44.7850 C   0  0  0  0  0  0  0  0  0  0  0  0
   57.8380   33.1840   44.6590 C   0  0  0  0  0  0  0  0  0  0  0  0
   57.0720   30.3620   44.5180 C   0  0  0  0  0  0  0  0  0  0  0  0
   56.9130   28.9860   44.3280 C   0  0  0  0  0  0  0  0  0  0  0  0
   59.6817   22.2586   45.8609 H   0  0  0  0  0  0  0  0  0  0  0  0
   59.4164   21.3864   44.3132 H   0  0  0  0  0  0  0  0  0  0  0  0
   59.6360   23.1692   44.3132 H   0  0  0  0  0  0  0  0  0  0  0  0
   57.1911   21.8183   44.3290 H   0  0  0  0  0  0  0  0  0  0  0  0
   57.4404   22.2838   46.0649 H   0  0  0  0  0  0  0  0  0  0  0  0
   55.8387   24.6397   43.3709 H   0  0  0  0  0  0  0  0  0  0  0  0
   57.4777   24.3609   42.6702 H   0  0  0  0  0  0  0  0  0  0  0  0
   56.0763   21.9453   43.7477 H   0  0  0  0  0  0  0  0  0  0  0  0
   55.3655   22.6800   42.2706 H   0  0  0  0  0  0  0  0  0  0  0  0
   57.0794   22.1421   42.2706 H   0  0  0  0  0  0  0  0  0  0  0  0
   55.3370   23.9807   45.5498 H   0  0  0  0  0  0  0  0  0  0  0  0
   56.6834   24.1334   46.7362 H   0  0  0  0  0  0  0  0  0  0  0  0
   58.0030   26.1410   44.4500 H   0  0  0  0  0  0  0  0  0  0  0  0
   58.6590   27.8536   47.0403 H   0  0  0  0  0  0  0  0  0  0  0  0
   58.9617   30.3038   47.3683 H   0  0  0  0  0  0  0  0  0  0  0  0
   57.1877   32.7341   47.6913 H   0  0  0  0  0  0  0  0  0  0  0  0
   58.9191   32.2293   47.6733 H   0  0  0  0  0  0  0  0  0  0  0  0
   57.6925   34.9107   46.9292 H   0  0  0  0  0  0  0  0  0  0  0  0
   59.0598   34.5548   48.0366 H   0  0  0  0  0  0  0  0  0  0  0  0
   58.2076   35.3156   44.6721 H   0  0  0  0  0  0  0  0  0  0  0  0
   59.5581   34.2825   43.9995 H   0  0  0  0  0  0  0  0  0  0  0  0
   56.8020   33.5516   44.6198 H   0  0  0  0  0  0  0  0  0  0  0  0
   58.0941   32.6352   43.7407 H   0  0  0  0  0  0  0  0  0  0  0  0
   56.6189   31.0682   43.8066 H   0  0  0  0  0  0  0  0  0  0  0  0
   56.3243   28.6165   43.4754 H   0  0  0  0  0  0  0  0  0  0  0  0
  1  2  1  0
  2  3  1  0
  3  4  1  0
  4  5  1  0
  3  6  1  0
  6  7  1  0
  7  8  2  0
  7  9  1  0
  9 10  1  0
 10 11  2  0
 11 12  1  0
 12 13  2  0
 13 14  1  0
 14 15  1  0
 15 16  1  0
 16 17  1  0
 17 18  1  0
 18 19  1  0
 13 20  1  0
 20 21  2  0
 21 10  1  0
 19 14  1  0
  1 22  1  0
  1 23  1  0
  1 24  1  0
  2 25  1  0
  2 26  1  0
  4 27  1  0
  4 28  1  0
  5 29  1  0
  5 30  1  0
  5 31  1  0
  6 32  1  0
  6 33  1  0
  9 34  1  0
 11 35  1  0
 12 36  1  0
 15 37  1  0
 15 38  1  0
 16 39  1  0
 16 40  1  0
 18 41  1  0
 18 42  1  0
 19 43  1  0
 19 44  1  0
 20 45  1  0
 21 46  1  0
M  END
>  <UniqueID>  (46) 
42

>  <SMILES>  (46) 
CCN(CC)CC(=O)Nc1ccc(N2CCOCC2)cc1

>  <Energy>  (46) 
56.68913747619204

>  <Genealogy>  (46) 
CCN(CC)CC(=O)Nc1ccc(N2CCOCC2)cc1 (3D coordinates assigned)
CCN(CC)CC(=O)Nc1ccc(N2CCOCC2)cc1 (nonaromatic ring conformer: 56.68913747619204 kcal/mol)

>  <smiles>  (46) 
CCN(CC)CC(=O)Nc1ccc(N2CCOCC2)cc1

>  <score_type>  (46) 
oracle

>  <origin>  (46) 
adg

>  <m_score__min__energy>  (46) 
-6.7999999999999998

>  <m_primary>  (46) 
energy

$$$$
46:0
     RDKit          3D

 38 40  0  0  0  0  0  0  0  0999 V2000
   59.5450   29.9590   49.3460 C   0  0  0  0  0  0  0  0  0  0  0  0
   58.7250   30.8590   48.6070 O   0  0  0  0  0  0  0  0  0  0  0  0
   59.0740   32.1780   48.2660 C   0  0  0  0  0  0  0  0  0  0  0  0
   59.6730   33.0260   49.2190 C   0  0  0  0  0  0  0  0  0  0  0  0
   59.9400   34.3580   48.9230 C   0  0  0  0  0  0  0  0  0  0  0  0
   59.6040   34.8810   47.6800 C   0  0  0  0  0  0  0  0  0  0  0  0
   59.0200   34.0630   46.7020 C   0  0  0  0  0  0  0  0  0  0  0  0
   58.6570   34.6250   45.4700 C   0  0  0  0  0  0  0  0  0  0  0  0
   58.0640   33.8400   44.4870 C   0  0  0  0  0  0  0  0  0  0  0  0
   57.8590   32.4820   44.7050 C   0  0  0  0  0  0  0  0  0  0  0  0
   58.2390   31.8790   45.9160 C   0  0  0  0  0  0  0  0  0  0  0  0
   58.1140   30.4100   45.9890 C   0  0  0  0  0  0  0  0  0  0  0  0
   59.1060   29.7100   46.3270 O   0  0  0  0  0  0  0  0  0  0  0  0
   56.8820   29.7860   45.6140 N   0  0  0  0  0  0  0  0  0  0  0  0
   56.8120   28.5190   44.8920 C   0  0  0  0  0  0  0  0  0  0  0  0
   57.8210   28.4900   43.7580 C   0  0  0  0  0  0  0  0  0  0  0  0
   58.1430   27.0180   43.5460 C   0  0  0  0  0  0  0  0  0  0  0  0
   57.8250   26.3080   44.8610 C   0  0  0  0  0  0  0  0  0  0  0  0
   57.1900   27.3430   45.7830 C   0  0  0  0  0  0  0  0  0  0  0  0
   58.7870   32.6810   46.9630 C   0  0  0  0  0  0  0  0  0  0  0  0
   59.3937   30.1251   50.4228 H   0  0  0  0  0  0  0  0  0  0  0  0
   59.2734   28.9235   49.0930 H   0  0  0  0  0  0  0  0  0  0  0  0
   60.6012   30.1333   49.0930 H   0  0  0  0  0  0  0  0  0  0  0  0
   59.9330   32.6284   50.2111 H   0  0  0  0  0  0  0  0  0  0  0  0
   60.4193   35.0008   49.6760 H   0  0  0  0  0  0  0  0  0  0  0  0
   59.7971   35.9418   47.4622 H   0  0  0  0  0  0  0  0  0  0  0  0
   58.8422   35.6925   45.2798 H   0  0  0  0  0  0  0  0  0  0  0  0
   57.7561   34.2948   43.5339 H   0  0  0  0  0  0  0  0  0  0  0  0
   57.3926   31.8710   43.9181 H   0  0  0  0  0  0  0  0  0  0  0  0
   55.7755   28.4363   44.5332 H   0  0  0  0  0  0  0  0  0  0  0  0
   57.3878   28.9252   42.8453 H   0  0  0  0  0  0  0  0  0  0  0  0
   58.7207   29.0772   43.9939 H   0  0  0  0  0  0  0  0  0  0  0  0
   57.5251   26.6074   42.7339 H   0  0  0  0  0  0  0  0  0  0  0  0
   59.1974   26.8790   43.2649 H   0  0  0  0  0  0  0  0  0  0  0  0
   57.1237   25.4794   44.6832 H   0  0  0  0  0  0  0  0  0  0  0  0
   58.7364   25.8875   45.3110 H   0  0  0  0  0  0  0  0  0  0  0  0
   56.2944   26.9262   46.2670 H   0  0  0  0  0  0  0  0  0  0  0  0
   57.8797   27.6481   46.5837 H   0  0  0  0  0  0  0  0  0  0  0  0
  1  2  1  0
  2  3  1  0
  3  4  2  0
  4  5  1  0
  5  6  2  0
  6  7  1  0
  7  8  2  0
  8  9  1  0
  9 10  2  0
 10 11  1  0
 11 12  1  0
 12 13  2  0
 12 14  1  0
 14 15  1  0
 15 16  1  0
 16 17  1  0
 17 18  1  0
 18 19  1  0
 11 20  2  0
 20  3  1  0
 20  7  1  0
 19 15  1  0
  1 21  1  0
  1 22  1  0
  1 23  1  0
  4 24  1  0
  5 25  1  0
  6 26  1  0
  8 27  1  0
  9 28  1  0
 10 29  1  0
 15 30  1  0
 16 31  1  0
 16 32  1  0
 17 33  1  0
 17 34  1  0
 18 35  1  0
 18 36  1  0
 19 37  1  0
 19 38  1  0
M  CHG  1  14  -1
M  END
>  <UniqueID>  (47) 
43

>  <SMILES>  (47) 
COc1cccc2cccc(C(=O)[N-]C3CCCC3)c12

>  <Energy>  (47) 
51.078914624702065

>  <Genealogy>  (47) 
COc1cccc2cccc(C(=O)[N-]C3CCCC3)c12 (protonated)
COc1cccc2cccc(C(=O)[N-]C3CCCC3)c12 (3D coordinates assigned)
COc1cccc2cccc(C(=O)[N-]C3CCCC3)c12 (nonaromatic ring conformer: 51.078914624702065 kcal/mol)

>  <smiles>  (47) 
COc1cccc2cccc(C(=O)NC3CCCC3)c12

>  <score_type>  (47) 
oracle

>  <origin>  (47) 
adg

>  <m_score__min__energy>  (47) 
-8.3300000000000001

>  <m_primary>  (47) 
energy

$$$$
47:0
     RDKit          3D

 36 38  0  0  0  0  0  0  0  0999 V2000
   62.2826   29.9095   50.3031 H   0  0  0  0  0  0  0  0  0  0  0  0
   61.4550   29.6950   49.6110 C   0  0  0  0  0  0  0  0  0  0  0  0
   60.8530   28.4780   49.6300 N   0  0  0  0  0  0  0  0  0  0  0  0
   59.8240   28.1740   48.7930 C   0  0  0  0  0  0  0  0  0  0  0  0
   59.3646   27.1753   48.8320 H   0  0  0  0  0  0  0  0  0  0  0  0
   59.3440   29.1290   47.8780 C   0  0  0  0  0  0  0  0  0  0  0  0
   58.2260   28.7870   46.9620 C   0  0  0  0  0  0  0  0  0  0  0  0
   57.7290   29.7450   46.1320 N   0  0  0  0  0  0  0  0  0  0  0  0
   56.7130   29.4860   45.2680 C   0  0  0  0  0  0  0  0  0  0  0  0
   56.2610   30.4420   44.5100 N   0  0  0  0  0  0  0  0  0  0  0  0
   57.0420   31.4950   43.9210 C   0  0  0  0  0  0  0  0  0  0  0  0
   57.1500   31.5330   42.6670 O   0  0  0  0  0  0  0  0  0  0  0  0
   57.6790   32.5600   44.7320 C   0  0  0  0  0  0  0  0  0  0  0  0
   58.5690   33.4770   44.1440 C   0  0  0  0  0  0  0  0  0  0  0  0
   58.7979   33.4063   43.0704 H   0  0  0  0  0  0  0  0  0  0  0  0
   59.1640   34.4780   44.9180 C   0  0  0  0  0  0  0  0  0  0  0  0
   59.8532   35.1967   44.4505 H   0  0  0  0  0  0  0  0  0  0  0  0
   58.8850   34.5670   46.2830 C   0  0  0  0  0  0  0  0  0  0  0  0
   59.3494   35.3592   46.8887 H   0  0  0  0  0  0  0  0  0  0  0  0
   58.0160   33.6500   46.8800 C   0  0  0  0  0  0  0  0  0  0  0  0
   57.8011   33.7179   47.9567 H   0  0  0  0  0  0  0  0  0  0  0  0
   57.4190   32.6460   46.1110 C   0  0  0  0  0  0  0  0  0  0  0  0
   56.7431   31.9204   46.5871 H   0  0  0  0  0  0  0  0  0  0  0  0
   56.1640   28.2410   45.2340 N   0  0  0  0  0  0  0  0  0  0  0  0
   56.6290   27.2410   46.0280 C   0  0  0  0  0  0  0  0  0  0  0  0
   56.0720   25.9610   45.9630 O   0  0  0  0  0  0  0  0  0  0  0  0
   56.6320   24.9210   45.1680 C   0  0  0  0  0  0  0  0  0  0  0  0
   57.0508   24.1433   45.8236 H   0  0  0  0  0  0  0  0  0  0  0  0
   55.8482   24.4823   44.5331 H   0  0  0  0  0  0  0  0  0  0  0  0
   57.4297   25.3339   44.5331 H   0  0  0  0  0  0  0  0  0  0  0  0
   57.6760   27.4950   46.9130 C   0  0  0  0  0  0  0  0  0  0  0  0
   58.0651   26.6969   47.5623 H   0  0  0  0  0  0  0  0  0  0  0  0
   59.9700   30.3890   47.8450 C   0  0  0  0  0  0  0  0  0  0  0  0
   59.6272   31.1528   47.1315 H   0  0  0  0  0  0  0  0  0  0  0  0
   61.0250   30.6730   48.7150 C   0  0  0  0  0  0  0  0  0  0  0  0
   61.5122   31.6590   48.6936 H   0  0  0  0  0  0  0  0  0  0  0  0
  1  2  1  0
  2  3  2  0
  3  4  1  0
  4  5  1  0
  4  6  2  0
  6  7  1  0
  7  8  1  0
  8  9  1  0
  9 10  2  0
 10 11  1  0
 11 12  2  0
 11 13  1  0
 13 14  2  0
 14 15  1  0
 14 16  1  0
 16 17  1  0
 16 18  2  0
 18 19  1  0
 18 20  1  0
 20 21  1  0
 20 22  2  0
 22 23  1  0
  9 24  1  0
 24 25  2  0
 25 26  1  0
 26 27  1  0
 27 28  1  0
 27 29  1  0
 27 30  1  0
 25 31  1  0
 31 32  1  0
  6 33  1  0
 33 34  1  0
 33 35  2  0
 35 36  1  0
 35  2  1  0
 31  7  2  0
 22 13  1  0
M  CHG  1   8  -1
M  END
>  <UniqueID>  (48) 
44

>  <SMILES>  (48) 
COc1cc(-c2cccnc2)[n-]/c(=N/C(=O)c2ccccc2)n1

>  <Energy>  (48) 
48.754981229461585

>  <Genealogy>  (48) 
COc1cc(-c2cccnc2)[n-]c(=NC(=O)c2ccccc2)n1 (protonated)
COc1cc(-c2cccnc2)[n-]/c(=N/C(=O)c2ccccc2)n1 (cis-trans isomerization)
COc1cc(-c2cccnc2)[n-]/c(=N/C(=O)c2ccccc2)n1 (3D coordinates assigned)
COc1cc(-c2cccnc2)[n-]/c(=N/C(=O)c2ccccc2)n1 (optimized conformer: 48.754981229461585 kcal/mol)

>  <smiles>  (48) 
COc1cc(-c2cccnc2)[nH]c(=NC(=O)c2ccccc2)n1

>  <score_type>  (48) 
oracle

>  <origin>  (48) 
adg

>  <m_score__min__energy>  (48) 
-9.3000000000000007

>  <m_primary>  (48) 
energy

$$$$
