1:0
     RDKit          3D

 58 61  0  0  0  0  0  0  0  0999 V2000
   60.8090   27.5750   50.3050 C   0  0  0  0  0  0  0  0  0  0  0  0
   60.5260   26.9640   48.9430 C   0  0  0  0  0  0  0  0  0  0  0  0
   59.3260   27.4290   48.3760 O   0  0  0  0  0  0  0  0  0  0  0  0
   58.9260   27.2060   47.0650 C   0  0  0  0  0  0  0  0  0  0  0  0
   58.9260   25.9420   46.5240 C   0  0  0  0  0  0  0  0  0  0  0  0
   58.5340   25.6890   45.2260 C   0  0  0  0  0  0  0  0  0  0  0  0
   58.1310   26.7700   44.4700 C   0  0  0  0  0  0  0  0  0  0  0  0
   58.1280   28.0570   45.0130 C   0  0  0  0  0  0  0  0  0  0  0  0
   58.5220   28.2990   46.3140 C   0  0  0  0  0  0  0  0  0  0  0  0
   58.5290   29.6580   46.9140 C   0  0  0  0  0  0  0  0  0  0  0  0
   59.7530   29.8160   47.6460 N   0  0  0  0  0  0  0  0  0  0  0  0
   60.7390   30.5970   46.9320 C   0  0  0  0  0  0  0  0  0  0  0  0
   60.6920   32.0580   47.3080 C   0  0  0  0  0  0  0  0  0  0  0  0
   60.8280   32.2620   48.7330 N   0  0  0  0  0  0  0  0  0  0  0  0
   59.8540   33.2160   49.1570 C   0  0  0  0  0  0  0  0  0  0  0  0
   59.9890   34.5710   48.4990 C   0  0  0  0  0  0  0  0  0  0  0  0
   58.9270   34.8610   47.6390 O   0  0  0  0  0  0  0  0  0  0  0  0
   58.6120   34.1250   46.5050 C   0  0  0  0  0  0  0  0  0  0  0  0
   59.2360   34.5030   45.3300 C   0  0  0  0  0  0  0  0  0  0  0  0
   59.0130   33.8570   44.1240 C   0  0  0  0  0  0  0  0  0  0  0  0
   58.1230   32.7960   44.1450 C   0  0  0  0  0  0  0  0  0  0  0  0
   57.9040   32.1560   42.9450 C   0  0  0  0  0  0  0  0  0  0  0  0
   57.0190   31.0890   42.9260 C   0  0  0  0  0  0  0  0  0  0  0  0
   56.4160   30.7480   44.1400 C   0  0  0  0  0  0  0  0  0  0  0  0
   55.6050   29.7850   44.1660 O   0  0  0  0  0  0  0  0  0  0  0  0
   56.6730   31.4050   45.2460 O   0  0  0  0  0  0  0  0  0  0  0  0
   57.5040   32.4250   45.3210 C   0  0  0  0  0  0  0  0  0  0  0  0
   57.7240   33.0690   46.5250 C   0  0  0  0  0  0  0  0  0  0  0  0
   60.7730   31.0140   49.4280 C   0  0  0  0  0  0  0  0  0  0  0  0
   59.5340   30.2660   48.9830 C   0  0  0  0  0  0  0  0  0  0  0  0
   60.4866   26.8789   51.0933 H   0  0  0  0  0  0  0  0  0  0  0  0
   61.8876   27.7668   50.4039 H   0  0  0  0  0  0  0  0  0  0  0  0
   60.2577   28.5217   50.4039 H   0  0  0  0  0  0  0  0  0  0  0  0
   61.3554   27.2156   48.2657 H   0  0  0  0  0  0  0  0  0  0  0  0
   60.4277   25.8772   49.0814 H   0  0  0  0  0  0  0  0  0  0  0  0
   59.2515   25.0990   47.1512 H   0  0  0  0  0  0  0  0  0  0  0  0
   58.5424   24.6699   44.8120 H   0  0  0  0  0  0  0  0  0  0  0  0
   57.8088   26.6171   43.4294 H   0  0  0  0  0  0  0  0  0  0  0  0
   57.8028   28.9009   44.3869 H   0  0  0  0  0  0  0  0  0  0  0  0
   58.4691   30.4166   46.1196 H   0  0  0  0  0  0  0  0  0  0  0  0
   57.6655   29.7832   47.5839 H   0  0  0  0  0  0  0  0  0  0  0  0
   61.7392   30.2033   47.1655 H   0  0  0  0  0  0  0  0  0  0  0  0
   60.5179   30.5181   45.8573 H   0  0  0  0  0  0  0  0  0  0  0  0
   61.5125   32.5818   46.7957 H   0  0  0  0  0  0  0  0  0  0  0  0
   59.7115   32.4528   47.0034 H   0  0  0  0  0  0  0  0  0  0  0  0
   58.8557   32.8170   48.9243 H   0  0  0  0  0  0  0  0  0  0  0  0
   60.0095   33.3702   50.2350 H   0  0  0  0  0  0  0  0  0  0  0  0
   60.0268   35.3410   49.2836 H   0  0  0  0  0  0  0  0  0  0  0  0
   60.9097   34.5578   47.8972 H   0  0  0  0  0  0  0  0  0  0  0  0
   59.9373   35.3501   45.3534 H   0  0  0  0  0  0  0  0  0  0  0  0
   59.5169   34.1709   43.1980 H   0  0  0  0  0  0  0  0  0  0  0  0
   58.4166   32.4822   42.0281 H   0  0  0  0  0  0  0  0  0  0  0  0
   56.8017   30.5371   41.9996 H   0  0  0  0  0  0  0  0  0  0  0  0
   57.2177   32.7558   47.4500 H   0  0  0  0  0  0  0  0  0  0  0  0
   61.6685   30.4198   49.1936 H   0  0  0  0  0  0  0  0  0  0  0  0
   60.7355   31.1901   50.5132 H   0  0  0  0  0  0  0  0  0  0  0  0
   59.3594   29.4043   49.6441 H   0  0  0  0  0  0  0  0  0  0  0  0
   58.6521   30.9219   49.0282 H   0  0  0  0  0  0  0  0  0  0  0  0
  1  2  1  0
  2  3  1  0
  3  4  1  0
  4  5  2  0
  5  6  1  0
  6  7  2  0
  7  8  1  0
  8  9  2  0
  9 10  1  0
 10 11  1  0
 11 12  1  0
 12 13  1  0
 13 14  1  0
 14 15  1  0
 15 16  1  0
 16 17  1  0
 17 18  1  0
 18 19  2  0
 19 20  1  0
 20 21  2  0
 21 22  1  0
 22 23  2  0
 23 24  1  0
 24 25  2  0
 24 26  1  0
 26 27  1  0
 27 28  2  0
 14 29  1  0
 29 30  1  0
  9  4  1  0
 30 11  1  0
 28 18  1  0
 27 21  1  0
  1 31  1  0
  1 32  1  0
  1 33  1  0
  2 34  1  0
  2 35  1  0
  5 36  1  0
  6 37  1  0
  7 38  1  0
  8 39  1  0
 10 40  1  0
 10 41  1  0
 12 42  1  0
 12 43  1  0
 13 44  1  0
 13 45  1  0
 15 46  1  0
 15 47  1  0
 16 48  1  0
 16 49  1  0
 19 50  1  0
 20 51  1  0
 22 52  1  0
 23 53  1  0
 28 54  1  0
 29 55  1  0
 29 56  1  0
 30 57  1  0
 30 58  1  0
M  END
>  <smiles>  (1) 
CCOc1ccccc1CN1CCN(CCOc2ccc3ccc(=O)oc3c2)CC1

>  <score_type>  (1) 
oracle

>  <origin>  (1) 
adg

>  <m_score__min__energy>  (1) 
-8.7400000000000002

>  <m_primary>  (1) 
energy

$$$$
2:0
     RDKit          3D

 43 44  0  0  0  0  0  0  0  0999 V2000
   60.4140   29.7740   48.5070 C   0  0  0  0  0  0  0  0  0  0  0  0
   59.0490   29.6510   47.8650 C   0  0  0  0  0  0  0  0  0  0  0  0
   59.0870   29.3390   46.4960 N   0  0  0  0  0  0  0  0  0  0  0  0
   60.2130   29.6740   45.7250 C   0  0  0  0  0  0  0  0  0  0  0  0
   57.8460   29.1410   45.8140 C   0  0  0  0  0  0  0  0  0  0  0  0
   57.6160   30.0500   44.6690 C   0  0  0  0  0  0  0  0  0  0  0  0
   56.9640   31.2140   44.8700 O   0  0  0  0  0  0  0  0  0  0  0  0
   57.4130   32.3340   44.2380 C   0  0  0  0  0  0  0  0  0  0  0  0
   57.3810   33.4600   45.2790 C   0  0  0  0  0  0  0  0  0  0  0  0
   57.5640   32.9850   46.5880 O   0  0  0  0  0  0  0  0  0  0  0  0
   58.8030   33.1310   47.2460 C   0  0  0  0  0  0  0  0  0  0  0  0
   58.8940   33.0880   48.6240 C   0  0  0  0  0  0  0  0  0  0  0  0
   60.1270   33.2330   49.2590 C   0  0  0  0  0  0  0  0  0  0  0  0
   61.2590   33.4200   48.5220 C   0  0  0  0  0  0  0  0  0  0  0  0
   62.5000   33.5680   49.1140 C   0  0  0  0  0  0  0  0  0  0  0  0
   63.6380   33.7560   48.3620 C   0  0  0  0  0  0  0  0  0  0  0  0
   63.4930   33.7910   46.9850 C   0  0  0  0  0  0  0  0  0  0  0  0
   62.2740   33.6470   46.3700 C   0  0  0  0  0  0  0  0  0  0  0  0
   61.1550   33.4610   47.1500 C   0  0  0  0  0  0  0  0  0  0  0  0
   59.9480   33.3190   46.5200 C   0  0  0  0  0  0  0  0  0  0  0  0
   60.3065   29.7643   49.6017 H   0  0  0  0  0  0  0  0  0  0  0  0
   61.0444   28.9290   48.1930 H   0  0  0  0  0  0  0  0  0  0  0  0
   60.8832   30.7181   48.1930 H   0  0  0  0  0  0  0  0  0  0  0  0
   58.4925   28.8575   48.3852 H   0  0  0  0  0  0  0  0  0  0  0  0
   58.5661   30.6353   47.9535 H   0  0  0  0  0  0  0  0  0  0  0  0
   61.0522   29.9237   46.3909 H   0  0  0  0  0  0  0  0  0  0  0  0
   60.4902   28.8194   45.0903 H   0  0  0  0  0  0  0  0  0  0  0  0
   59.9780   30.5411   45.0903 H   0  0  0  0  0  0  0  0  0  0  0  0
   57.8220   28.1067   45.4402 H   0  0  0  0  0  0  0  0  0  0  0  0
   57.0528   29.3564   46.5450 H   0  0  0  0  0  0  0  0  0  0  0  0
   58.6039   30.3028   44.2566 H   0  0  0  0  0  0  0  0  0  0  0  0
   56.9372   29.4807   44.0170 H   0  0  0  0  0  0  0  0  0  0  0  0
   58.4400   32.1803   43.8751 H   0  0  0  0  0  0  0  0  0  0  0  0
   56.7878   32.5783   43.3666 H   0  0  0  0  0  0  0  0  0  0  0  0
   58.1825   34.1772   45.0483 H   0  0  0  0  0  0  0  0  0  0  0  0
   56.3895   33.9337   45.2299 H   0  0  0  0  0  0  0  0  0  0  0  0
   57.9855   32.9380   49.2257 H   0  0  0  0  0  0  0  0  0  0  0  0
   60.1866   33.1965   50.3568 H   0  0  0  0  0  0  0  0  0  0  0  0
   62.5798   33.5348   50.2106 H   0  0  0  0  0  0  0  0  0  0  0  0
   64.6235   33.8738   48.8362 H   0  0  0  0  0  0  0  0  0  0  0  0
   64.3870   33.9396   46.3615 H   0  0  0  0  0  0  0  0  0  0  0  0
   62.1929   33.6797   45.2735 H   0  0  0  0  0  0  0  0  0  0  0  0
   59.8979   33.3563   45.4218 H   0  0  0  0  0  0  0  0  0  0  0  0
  1  2  1  0
  2  3  1  0
  3  4  1  0
  3  5  1  0
  5  6  1  0
  6  7  1  0
  7  8  1  0
  8  9  1  0
  9 10  1  0
 10 11  1  0
 11 12  2  0
 12 13  1  0
 13 14  2  0
 14 15  1  0
 15 16  2  0
 16 17  1  0
 17 18  2  0
 18 19  1  0
 19 20  2  0
 20 11  1  0
 19 14  1  0
  1 21  1  0
  1 22  1  0
  1 23  1  0
  2 24  1  0
  2 25  1  0
  4 26  1  0
  4 27  1  0
  4 28  1  0
  5 29  1  0
  5 30  1  0
  6 31  1  0
  6 32  1  0
  8 33  1  0
  8 34  1  0
  9 35  1  0
  9 36  1  0
 12 37  1  0
 13 38  1  0
 15 39  1  0
 16 40  1  0
 17 41  1  0
 18 42  1  0
 20 43  1  0
M  END
>  <smiles>  (2) 
CCN(C)CCOCCOc1ccc2ccccc2c1

>  <score_type>  (2) 
oracle

>  <origin>  (2) 
adg

>  <m_score__min__energy>  (2) 
-6.4500000000000002

>  <m_primary>  (2) 
energy

$$$$
3:0
     RDKit          3D

 49 52  0  0  0  0  0  0  0  0999 V2000
   58.1620   22.1970   44.3500 C   0  0  0  0  0  0  0  0  0  0  0  0
   56.7800   21.6150   44.0380 C   0  0  0  0  0  0  0  0  0  0  0  0
   55.9340   22.7030   43.6710 N   0  0  0  0  0  0  0  0  0  0  0  0
   56.6080   23.8410   43.1340 C   0  0  0  0  0  0  0  0  0  0  0  0
   54.8550   22.9960   44.5490 C   0  0  0  0  0  0  0  0  0  0  0  0
   55.0070   24.2320   45.3830 C   0  0  0  0  0  0  0  0  0  0  0  0
   56.2190   24.2530   46.1100 O   0  0  0  0  0  0  0  0  0  0  0  0
   56.9300   25.4300   46.2660 C   0  0  0  0  0  0  0  0  0  0  0  0
   58.1440   25.3120   46.9510 C   0  0  0  0  0  0  0  0  0  0  0  0
   58.9470   26.4200   47.1700 C   0  0  0  0  0  0  0  0  0  0  0  0
   58.5340   27.6340   46.7040 C   0  0  0  0  0  0  0  0  0  0  0  0
   59.3420   28.7390   46.9200 C   0  0  0  0  0  0  0  0  0  0  0  0
   58.9840   29.9800   46.4730 C   0  0  0  0  0  0  0  0  0  0  0  0
   57.7650   30.0590   45.7920 C   0  0  0  0  0  0  0  0  0  0  0  0
   56.9860   28.9840   45.5870 N   0  0  0  0  0  0  0  0  0  0  0  0
   57.3260   27.7570   46.0210 C   0  0  0  0  0  0  0  0  0  0  0  0
   56.5060   26.6540   45.7920 C   0  0  0  0  0  0  0  0  0  0  0  0
   57.3240   31.2350   45.3010 N   0  0  0  0  0  0  0  0  0  0  0  0
   58.0830   32.3400   45.4780 C   0  0  0  0  0  0  0  0  0  0  0  0
   57.5880   33.5120   44.9500 C   0  0  0  0  0  0  0  0  0  0  0  0
   58.3300   34.6780   45.0950 C   0  0  0  0  0  0  0  0  0  0  0  0
   59.5310   34.5910   45.7680 C   0  0  0  0  0  0  0  0  0  0  0  0
   60.0120   33.3980   46.2940 C   0  0  0  0  0  0  0  0  0  0  0  0
   59.2770   32.2410   46.1510 C   0  0  0  0  0  0  0  0  0  0  0  0
   59.7530   31.0900   46.6560 N   0  0  0  0  0  0  0  0  0  0  0  0
   60.9970   30.9730   47.3770 C   0  0  0  0  0  0  0  0  0  0  0  0
   58.2981   22.2543   45.4400 H   0  0  0  0  0  0  0  0  0  0  0  0
   58.9388   21.5496   43.9170 H   0  0  0  0  0  0  0  0  0  0  0  0
   58.2416   23.2051   43.9170 H   0  0  0  0  0  0  0  0  0  0  0  0
   56.8525   20.8978   43.2071 H   0  0  0  0  0  0  0  0  0  0  0  0
   56.3747   21.0845   44.9123 H   0  0  0  0  0  0  0  0  0  0  0  0
   56.9799   24.4690   43.9570 H   0  0  0  0  0  0  0  0  0  0  0  0
   57.4545   23.5078   42.5156 H   0  0  0  0  0  0  0  0  0  0  0  0
   55.9089   24.4232   42.5156 H   0  0  0  0  0  0  0  0  0  0  0  0
   53.9462   23.1101   43.9398 H   0  0  0  0  0  0  0  0  0  0  0  0
   54.8153   22.1590   45.2616 H   0  0  0  0  0  0  0  0  0  0  0  0
   54.9787   25.1095   44.7203 H   0  0  0  0  0  0  0  0  0  0  0  0
   54.1823   24.2456   46.1108 H   0  0  0  0  0  0  0  0  0  0  0  0
   58.4653   24.3270   47.3206 H   0  0  0  0  0  0  0  0  0  0  0  0
   59.9004   26.3225   47.7099 H   0  0  0  0  0  0  0  0  0  0  0  0
   60.2909   28.6148   47.4623 H   0  0  0  0  0  0  0  0  0  0  0  0
   55.5532   26.7558   45.2518 H   0  0  0  0  0  0  0  0  0  0  0  0
   56.6226   33.5247   44.4230 H   0  0  0  0  0  0  0  0  0  0  0  0
   57.9727   35.6354   44.6880 H   0  0  0  0  0  0  0  0  0  0  0  0
   60.1326   35.5033   45.8935 H   0  0  0  0  0  0  0  0  0  0  0  0
   60.9763   33.3772   46.8228 H   0  0  0  0  0  0  0  0  0  0  0  0
   60.7971   30.9918   48.4585 H   0  0  0  0  0  0  0  0  0  0  0  0
   61.4871   30.0248   47.1111 H   0  0  0  0  0  0  0  0  0  0  0  0
   61.6553   31.8132   47.1111 H   0  0  0  0  0  0  0  0  0  0  0  0
  1  2  1  0
  2  3  1  0
  3  4  1  0
  3  5  1  0
  5  6  1  0
  6  7  1  0
  7  8  1  0
  8  9  2  0
  9 10  1  0
 10 11  2  0
 11 12  1  0
 12 13  2  0
 13 14  1  0
 14 15  2  0
 15 16  1  0
 16 17  2  0
 14 18  1  0
 18 19  2  0
 19 20  1  0
 20 21  2  0
 21 22  1  0
 22 23  2  0
 23 24  1  0
 24 25  2  0
 25 26  1  0
 17  8  1  0
 24 19  1  0
 16 11  1  0
 25 13  1  0
  1 27  1  0
  1 28  1  0
  1 29  1  0
  2 30  1  0
  2 31  1  0
  4 32  1  0
  4 33  1  0
  4 34  1  0
  5 35  1  0
  5 36  1  0
  6 37  1  0
  6 38  1  0
  9 39  1  0
 10 40  1  0
 12 41  1  0
 17 42  1  0
 20 43  1  0
 21 44  1  0
 22 45  1  0
 23 46  1  0
 26 47  1  0
 26 48  1  0
 26 49  1  0
M  CHG  1  25   1
M  END
>  <smiles>  (3) 
CCN(C)CCOc1ccc2cc3c(nc2c1)nc1ccccc1[n+]3C

>  <score_type>  (3) 
oracle

>  <origin>  (3) 
adg

>  <m_score__min__energy>  (3) 
-6.3799999999999999

>  <m_primary>  (3) 
energy

$$$$
4:0
     RDKit          3D

 45 48  0  0  0  0  0  0  0  0999 V2000
   65.5560   32.3040   50.1230 C   0  0  0  0  0  0  0  0  0  0  0  0
   64.8110   33.0940   49.0550 C   0  0  0  0  0  0  0  0  0  0  0  0
   63.4250   32.7740   49.0440 N   0  0  0  0  0  3  0  0  0  0  0  0
   63.1520   31.4810   49.6250 C   0  0  0  0  0  0  0  0  0  0  0  0
   61.6220   31.3730   49.7540 C   0  0  0  0  0  0  0  0  0  0  0  0
   61.0350   31.4420   48.4090 N   0  0  0  0  0  0  0  0  0  0  0  0
   59.6830   31.0900   48.2960 C   0  0  0  0  0  0  0  0  0  0  0  0
   59.1000   30.7480   49.3860 O   0  0  0  0  0  0  0  0  0  0  0  0
   58.8750   31.0640   47.1110 C   0  0  0  0  0  0  0  0  0  0  0  0
   58.3640   29.8630   46.6560 C   0  0  0  0  0  0  0  0  0  0  0  0
   58.6420   28.6730   47.3340 C   0  0  0  0  0  0  0  0  0  0  0  0
   58.1310   27.5030   46.8810 C   0  0  0  0  0  0  0  0  0  0  0  0
   57.3210   27.3920   45.7480 C   0  0  0  0  0  0  0  0  0  0  0  0
   57.0370   28.5830   45.0620 C   0  0  0  0  0  0  0  0  0  0  0  0
   57.5650   29.7580   45.5380 C   0  0  0  0  0  0  0  0  0  0  0  0
   57.2670   30.8880   44.8570 N   0  0  0  0  0  0  0  0  0  0  0  0
   57.7300   32.1130   45.2400 C   0  0  0  0  0  0  0  0  0  0  0  0
   57.3920   33.2160   44.5110 C   0  0  0  0  0  0  0  0  0  0  0  0
   57.8730   34.4580   44.9210 C   0  0  0  0  0  0  0  0  0  0  0  0
   58.6870   34.5750   46.0570 C   0  0  0  0  0  0  0  0  0  0  0  0
   59.0050   33.4250   46.7650 C   0  0  0  0  0  0  0  0  0  0  0  0
   58.5360   32.1890   46.3720 C   0  0  0  0  0  0  0  0  0  0  0  0
   61.9120   31.8600   47.3470 C   0  0  0  0  0  0  0  0  0  0  0  0
   62.6970   33.0750   47.8620 C   0  0  0  0  0  0  0  0  0  0  0  0
   65.2364   32.6429   51.1195 H   0  0  0  0  0  0  0  0  0  0  0  0
   65.3314   31.2331   50.0104 H   0  0  0  0  0  0  0  0  0  0  0  0
   66.6382   32.4655   50.0104 H   0  0  0  0  0  0  0  0  0  0  0  0
   64.9284   34.1687   49.2579 H   0  0  0  0  0  0  0  0  0  0  0  0
   65.2340   32.8331   48.0737 H   0  0  0  0  0  0  0  0  0  0  0  0
   63.5355   30.6828   48.9725 H   0  0  0  0  0  0  0  0  0  0  0  0
   63.6419   31.3738   50.6040 H   0  0  0  0  0  0  0  0  0  0  0  0
   61.3561   30.4158   50.2263 H   0  0  0  0  0  0  0  0  0  0  0  0
   61.2372   32.1947   50.3759 H   0  0  0  0  0  0  0  0  0  0  0  0
   59.2746   28.6863   48.2338 H   0  0  0  0  0  0  0  0  0  0  0  0
   58.3681   26.5850   47.4388 H   0  0  0  0  0  0  0  0  0  0  0  0
   56.9265   26.4219   45.4113 H   0  0  0  0  0  0  0  0  0  0  0  0
   56.4047   28.5755   44.1619 H   0  0  0  0  0  0  0  0  0  0  0  0
   56.7539   33.1267   43.6194 H   0  0  0  0  0  0  0  0  0  0  0  0
   57.6108   35.3584   44.3461 H   0  0  0  0  0  0  0  0  0  0  0  0
   59.0648   35.5565   46.3794 H   0  0  0  0  0  0  0  0  0  0  0  0
   59.6438   33.5005   47.6573 H   0  0  0  0  0  0  0  0  0  0  0  0
   62.6045   31.0459   47.0870 H   0  0  0  0  0  0  0  0  0  0  0  0
   61.3387   32.1180   46.4444 H   0  0  0  0  0  0  0  0  0  0  0  0
   63.4026   33.3987   47.0827 H   0  0  0  0  0  0  0  0  0  0  0  0
   61.9756   33.8707   48.0997 H   0  0  0  0  0  0  0  0  0  0  0  0
  1  2  1  0
  2  3  1  0
  3  4  1  0
  4  5  1  0
  5  6  1  0
  6  7  1  0
  7  8  2  0
  7  9  1  0
  9 10  1  0
 10 11  2  0
 11 12  1  0
 12 13  2  0
 13 14  1  0
 14 15  2  0
 15 16  1  0
 16 17  2  0
 17 18  1  0
 18 19  2  0
 19 20  1  0
 20 21  2  0
 21 22  1  0
  6 23  1  0
 23 24  1  0
 24  3  1  0
 22  9  2  0
 15 10  1  0
 22 17  1  0
  1 25  1  0
  1 26  1  0
  1 27  1  0
  2 28  1  0
  2 29  1  0
  4 30  1  0
  4 31  1  0
  5 32  1  0
  5 33  1  0
 11 34  1  0
 12 35  1  0
 13 36  1  0
 14 37  1  0
 18 38  1  0
 19 39  1  0
 20 40  1  0
 21 41  1  0
 23 42  1  0
 23 43  1  0
 24 44  1  0
 24 45  1  0
M  CHG  1   3   1
M  RAD  1   3   2
M  END
>  <smiles>  (4) 
CC[N+]1CCN(C(=O)c2c3ccccc3nc3ccccc23)CC1

>  <score_type>  (4) 
oracle

>  <origin>  (4) 
adg

>  <m_score__min__energy>  (4) 
-6.75

>  <m_primary>  (4) 
energy

$$$$
5:0
     RDKit          3D

 55 58  0  0  0  0  0  0  0  0999 V2000
   56.2440   24.0600   44.2510 C   0  0  0  0  0  0  0  0  0  0  0  0
   55.3550   24.2820   45.4220 C   0  0  0  0  0  0  0  0  0  0  0  0
   55.8650   25.1990   46.3500 N   0  0  0  0  0  0  0  0  0  0  0  0
   56.0410   26.5360   45.9350 C   0  0  0  0  0  0  0  0  0  0  0  0
   57.5150   26.9360   45.8820 C   0  0  0  0  0  0  0  0  0  0  0  0
   58.0580   26.6930   47.2060 N   0  0  0  0  0  0  0  0  0  0  0  0
   59.4910   26.9750   47.2380 C   0  0  0  0  0  0  0  0  0  0  0  0
   59.7960   28.4210   47.1300 C   0  0  0  0  0  0  0  0  0  0  0  0
   58.5940   29.2210   47.1930 N   0  0  0  0  0  0  0  0  0  0  0  0
   58.4770   30.4850   46.6000 C   0  0  0  0  0  0  0  0  0  0  0  0
   58.0150   30.7670   45.3440 C   0  0  0  0  0  0  0  0  0  0  0  0
   57.5390   29.7340   44.5700 C   0  0  0  0  0  0  0  0  0  0  0  0
   57.0450   29.9060   43.3030 C   0  0  0  0  0  0  0  0  0  0  0  0
   57.0260   31.1770   42.7880 C   0  0  0  0  0  0  0  0  0  0  0  0
   57.5000   32.2320   43.5530 C   0  0  0  0  0  0  0  0  0  0  0  0
   57.9990   32.0650   44.8310 C   0  0  0  0  0  0  0  0  0  0  0  0
   58.4470   33.1200   45.5690 N   0  0  0  0  0  0  0  0  0  0  0  0
   58.3810   34.4090   44.9640 C   0  0  0  0  0  0  0  0  0  0  0  0
   58.8990   32.8530   46.7990 C   0  0  0  0  0  0  0  0  0  0  0  0
   59.3590   33.8950   47.5760 C   0  0  0  0  0  0  0  0  0  0  0  0
   59.8390   33.6670   48.8720 C   0  0  0  0  0  0  0  0  0  0  0  0
   59.8780   32.4090   49.4260 C   0  0  0  0  0  0  0  0  0  0  0  0
   59.4140   31.3690   48.6360 C   0  0  0  0  0  0  0  0  0  0  0  0
   58.9320   31.5790   47.3470 C   0  0  0  0  0  0  0  0  0  0  0  0
   57.9650   25.2510   47.4690 C   0  0  0  0  0  0  0  0  0  0  0  0
   56.5300   24.7710   47.5050 C   0  0  0  0  0  0  0  0  0  0  0  0
   57.2557   23.8074   44.6013 H   0  0  0  0  0  0  0  0  0  0  0  0
   55.8494   23.2328   43.6427 H   0  0  0  0  0  0  0  0  0  0  0  0
   56.2846   24.9756   43.6427 H   0  0  0  0  0  0  0  0  0  0  0  0
   54.3878   24.6583   45.0574 H   0  0  0  0  0  0  0  0  0  0  0  0
   55.2608   23.3171   45.9418 H   0  0  0  0  0  0  0  0  0  0  0  0
   55.6054   26.6556   44.9320 H   0  0  0  0  0  0  0  0  0  0  0  0
   55.5416   27.1854   46.6691 H   0  0  0  0  0  0  0  0  0  0  0  0
   58.0469   26.3274   45.1359 H   0  0  0  0  0  0  0  0  0  0  0  0
   57.6298   27.9913   45.5935 H   0  0  0  0  0  0  0  0  0  0  0  0
   59.9016   26.5995   48.1869 H   0  0  0  0  0  0  0  0  0  0  0  0
   59.9455   26.4757   46.3696 H   0  0  0  0  0  0  0  0  0  0  0  0
   60.4611   28.7090   47.9575 H   0  0  0  0  0  0  0  0  0  0  0  0
   60.2800   28.6005   46.1587 H   0  0  0  0  0  0  0  0  0  0  0  0
   57.7450   28.8600   47.7050 H   0  0  0  0  0  0  0  0  0  0  0  0
   57.5557   28.7173   44.9897 H   0  0  0  0  0  0  0  0  0  0  0  0
   56.6753   29.0513   42.7175 H   0  0  0  0  0  0  0  0  0  0  0  0
   56.6374   31.3583   41.7750 H   0  0  0  0  0  0  0  0  0  0  0  0
   57.4779   33.2449   43.1245 H   0  0  0  0  0  0  0  0  0  0  0  0
   58.3415   35.1802   45.7474 H   0  0  0  0  0  0  0  0  0  0  0  0
   59.2722   34.5667   44.3389 H   0  0  0  0  0  0  0  0  0  0  0  0
   57.4783   34.4748   44.3389 H   0  0  0  0  0  0  0  0  0  0  0  0
   59.3489   34.9185   47.1730 H   0  0  0  0  0  0  0  0  0  0  0  0
   60.1961   34.5215   49.4655 H   0  0  0  0  0  0  0  0  0  0  0  0
   60.2579   32.2369   50.4439 H   0  0  0  0  0  0  0  0  0  0  0  0
   59.4270   30.3460   49.0401 H   0  0  0  0  0  0  0  0  0  0  0  0
   58.5002   24.7102   46.6746 H   0  0  0  0  0  0  0  0  0  0  0  0
   58.4124   25.0566   48.4549 H   0  0  0  0  0  0  0  0  0  0  0  0
   56.5121   23.6722   47.5523 H   0  0  0  0  0  0  0  0  0  0  0  0
   56.0274   25.1848   48.3917 H   0  0  0  0  0  0  0  0  0  0  0  0
  1  2  1  0
  2  3  1  0
  3  4  1  0
  4  5  1  0
  5  6  1  0
  6  7  1  0
  7  8  1  0
  8  9  1  0
  9 10  1  0
 10 11  1  0
 11 12  2  0
 12 13  1  0
 13 14  2  0
 14 15  1  0
 15 16  2  0
 16 17  1  0
 17 18  1  0
 17 19  2  0
 19 20  1  0
 20 21  2  0
 21 22  1  0
 22 23  2  0
 23 24  1  0
  6 25  1  0
 25 26  1  0
 26  3  1  0
 24 10  2  0
 16 11  1  0
 24 19  1  0
  1 27  1  0
  1 28  1  0
  1 29  1  0
  2 30  1  0
  2 31  1  0
  4 32  1  0
  4 33  1  0
  5 34  1  0
  5 35  1  0
  7 36  1  0
  7 37  1  0
  8 38  1  0
  8 39  1  0
  9 40  1  0
 12 41  1  0
 13 42  1  0
 14 43  1  0
 15 44  1  0
 18 45  1  0
 18 46  1  0
 18 47  1  0
 20 48  1  0
 21 49  1  0
 22 50  1  0
 23 51  1  0
 25 52  1  0
 25 53  1  0
 26 54  1  0
 26 55  1  0
M  CHG  1  17   1
M  END
>  <smiles>  (5) 
CCN1CCN(CCNc2c3ccccc3[n+](C)c3ccccc23)CC1

>  <score_type>  (5) 
oracle

>  <origin>  (5) 
adg

>  <m_score__min__energy>  (5) 
-6.4100000000000001

>  <m_primary>  (5) 
energy

$$$$
7:0
     RDKit          3D

 48 50  0  0  0  0  0  0  0  0999 V2000
   62.6960   33.1970   47.1280 C   0  0  0  0  0  0  0  0  0  0  0  0
   61.6630   34.2060   46.7300 C   0  0  0  0  0  0  0  0  0  0  0  0
   60.3830   33.9000   47.3850 N   0  0  0  0  0  0  0  0  0  0  0  0
   60.5000   34.3360   48.7640 C   0  0  0  0  0  0  0  0  0  0  0  0
   59.3820   34.7110   46.7300 C   0  0  0  0  0  0  0  0  0  0  0  0
   58.9680   34.1370   45.3910 C   0  0  0  0  0  0  0  0  0  0  0  0
   58.6510   32.7280   45.5610 N   0  0  0  0  0  0  0  0  0  0  0  0
   58.3080   31.9270   44.4370 C   0  0  0  0  0  0  0  0  0  0  0  0
   58.2980   32.5070   43.3170 O   0  0  0  0  0  0  0  0  0  0  0  0
   57.9910   30.5210   44.5970 C   0  0  0  0  0  0  0  0  0  0  0  0
   59.0550   29.6340   44.6220 C   0  0  0  0  0  0  0  0  0  0  0  0
   58.8540   28.2710   44.7710 C   0  0  0  0  0  0  0  0  0  0  0  0
   57.5620   27.7760   44.8980 C   0  0  0  0  0  0  0  0  0  0  0  0
   57.3880   26.3540   45.0520 C   0  0  0  0  0  0  0  0  0  0  0  0
   57.0370   25.7890   46.2820 C   0  0  0  0  0  0  0  0  0  0  0  0
   56.8720   24.4100   46.4140 C   0  0  0  0  0  0  0  0  0  0  0  0
   57.0550   23.5870   45.3320 C   0  0  0  0  0  0  0  0  0  0  0  0
   57.4040   24.1540   44.1140 C   0  0  0  0  0  0  0  0  0  0  0  0
   57.5700   25.5160   43.9670 C   0  0  0  0  0  0  0  0  0  0  0  0
   56.5090   28.6600   44.8710 C   0  0  0  0  0  0  0  0  0  0  0  0
   56.7060   30.0340   44.7220 C   0  0  0  0  0  0  0  0  0  0  0  0
   58.7070   32.2100   46.9170 C   0  0  0  0  0  0  0  0  0  0  0  0
   60.1180   32.4980   47.3900 C   0  0  0  0  0  0  0  0  0  0  0  0
   62.7517   33.1426   48.2252 H   0  0  0  0  0  0  0  0  0  0  0  0
   62.4199   32.2112   46.7255 H   0  0  0  0  0  0  0  0  0  0  0  0
   63.6750   33.4962   46.7255 H   0  0  0  0  0  0  0  0  0  0  0  0
   61.9972   35.2089   47.0340 H   0  0  0  0  0  0  0  0  0  0  0  0
   61.5274   34.1729   45.6389 H   0  0  0  0  0  0  0  0  0  0  0  0
   60.2741   33.4942   49.4351 H   0  0  0  0  0  0  0  0  0  0  0  0
   61.5247   34.6894   48.9511 H   0  0  0  0  0  0  0  0  0  0  0  0
   59.7898   35.1549   48.9511 H   0  0  0  0  0  0  0  0  0  0  0  0
   58.4957   34.7723   47.3786 H   0  0  0  0  0  0  0  0  0  0  0  0
   59.8167   35.7056   46.5515 H   0  0  0  0  0  0  0  0  0  0  0  0
   58.0826   34.6723   45.0175 H   0  0  0  0  0  0  0  0  0  0  0  0
   59.7884   34.2500   44.6670 H   0  0  0  0  0  0  0  0  0  0  0  0
   60.0803   30.0196   44.5215 H   0  0  0  0  0  0  0  0  0  0  0  0
   59.7132   27.5843   44.7886 H   0  0  0  0  0  0  0  0  0  0  0  0
   56.8891   26.4399   47.1563 H   0  0  0  0  0  0  0  0  0  0  0  0
   56.5944   23.9815   47.3884 H   0  0  0  0  0  0  0  0  0  0  0  0
   56.9276   22.4986   45.4277 H   0  0  0  0  0  0  0  0  0  0  0  0
   57.5523   23.4998   43.2422 H   0  0  0  0  0  0  0  0  0  0  0  0
   57.8467   25.9346   42.9881 H   0  0  0  0  0  0  0  0  0  0  0  0
   55.4837   28.2740   44.9695 H   0  0  0  0  0  0  0  0  0  0  0  0
   55.8467   30.7205   44.7044 H   0  0  0  0  0  0  0  0  0  0  0  0
   57.9729   32.7217   47.5568 H   0  0  0  0  0  0  0  0  0  0  0  0
   58.4684   31.1370   46.9592 H   0  0  0  0  0  0  0  0  0  0  0  0
   60.2402   32.1125   48.4130 H   0  0  0  0  0  0  0  0  0  0  0  0
   60.8244   32.0055   46.7056 H   0  0  0  0  0  0  0  0  0  0  0  0
  1  2  1  0
  2  3  1  0
  3  4  1  0
  3  5  1  0
  5  6  1  0
  6  7  1  0
  7  8  1  0
  8  9  2  0
  8 10  1  0
 10 11  2  0
 11 12  1  0
 12 13  2  0
 13 14  1  0
 14 15  2  0
 15 16  1  0
 16 17  2  0
 17 18  1  0
 18 19  2  0
 13 20  1  0
 20 21  2  0
  7 22  1  0
 22 23  1  0
 23  3  1  0
 21 10  1  0
 19 14  1  0
  1 24  1  0
  1 25  1  0
  1 26  1  0
  2 27  1  0
  2 28  1  0
  4 29  1  0
  4 30  1  0
  4 31  1  0
  5 32  1  0
  5 33  1  0
  6 34  1  0
  6 35  1  0
 11 36  1  0
 12 37  1  0
 15 38  1  0
 16 39  1  0
 17 40  1  0
 18 41  1  0
 19 42  1  0
 20 43  1  0
 21 44  1  0
 22 45  1  0
 22 46  1  0
 23 47  1  0
 23 48  1  0
M  CHG  1   3   1
M  END
>  <smiles>  (6) 
CC[N+]1(C)CCN(C(=O)c2ccc(-c3ccccc3)cc2)CC1

>  <score_type>  (6) 
oracle

>  <origin>  (6) 
adg

>  <m_score__min__energy>  (6) 
-5.9199999999999999

>  <m_primary>  (6) 
energy

$$$$
9:0
     RDKit          3D

 72 75  0  0  0  0  0  0  0  0999 V2000
   60.0220   29.3900   52.1000 C   0  0  0  0  0  0  0  0  0  0  0  0
   59.4240   29.3750   50.7880 N   0  0  0  0  0  0  0  0  0  0  0  0
   60.3100   28.9010   49.7460 C   0  0  0  0  0  0  0  0  0  0  0  0
   59.9790   29.3520   48.3730 C   0  0  0  0  0  0  0  0  0  0  0  0
   58.7230   30.1090   48.2660 N   0  0  0  0  0  0  0  0  0  0  0  0
   58.4480   30.5950   46.9460 C   0  0  0  0  0  0  0  0  0  0  0  0
   58.2200   29.5910   45.9960 C   0  0  0  0  0  0  0  0  0  0  0  0
   58.2160   28.2560   46.3460 C   0  0  0  0  0  0  0  0  0  0  0  0
   57.9930   27.2450   45.4370 C   0  0  0  0  0  0  0  0  0  0  0  0
   57.7690   27.6120   44.1350 C   0  0  0  0  0  0  0  0  0  0  0  0
   57.7670   28.9580   43.7540 C   0  0  0  0  0  0  0  0  0  0  0  0
   57.9930   29.9430   44.6890 C   0  0  0  0  0  0  0  0  0  0  0  0
   57.9880   31.2330   44.3220 N   0  0  0  0  0  0  0  0  0  0  0  0
   57.7560   31.6990   42.9770 C   0  0  0  0  0  0  0  0  0  0  0  0
   58.2090   32.2050   45.2580 C   0  0  0  0  0  0  0  0  0  0  0  0
   58.1930   33.5250   44.8730 C   0  0  0  0  0  0  0  0  0  0  0  0
   58.3970   34.5560   45.7610 C   0  0  0  0  0  0  0  0  0  0  0  0
   58.6200   34.2120   47.0760 C   0  0  0  0  0  0  0  0  0  0  0  0
   58.6530   32.9170   47.5430 C   0  0  0  0  0  0  0  0  0  0  0  0
   58.8520   32.6080   48.7830 O   0  0  0  0  0  0  0  0  0  0  0  0
   58.9290   32.7450   50.0880 C   0  0  0  0  0  0  0  0  0  0  0  0
   60.0250   33.4360   50.7990 C   0  0  0  0  0  0  0  0  0  0  0  0
   61.3780   33.2170   50.4300 N   0  0  0  0  0  0  0  0  0  0  0  0
   62.3320   33.5300   51.4350 C   0  0  0  0  0  0  0  0  0  0  0  0
   61.6370   34.1610   49.3180 C   0  0  0  0  0  0  0  0  0  0  0  0
   62.2130   33.4890   48.1130 C   0  0  0  0  0  0  0  0  0  0  0  0
   63.2970   32.5950   48.3770 N   0  0  0  0  0  0  0  0  0  0  0  0
   63.6190   31.9300   47.1120 C   0  0  0  0  0  0  0  0  0  0  0  0
   64.5040   33.2170   48.8350 C   0  0  0  0  0  0  0  0  0  0  0  0
   62.8830   31.5930   49.3390 C   0  0  0  0  0  0  0  0  0  0  0  0
   61.5200   31.9130   49.8420 C   0  0  0  0  0  0  0  0  0  0  0  0
   58.4410   31.9110   46.5820 C   0  0  0  0  0  0  0  0  0  0  0  0
   59.2307   29.3702   52.8639 H   0  0  0  0  0  0  0  0  0  0  0  0
   60.6683   28.5078   52.2185 H   0  0  0  0  0  0  0  0  0  0  0  0
   60.6232   30.3035   52.2185 H   0  0  0  0  0  0  0  0  0  0  0  0
   58.4800   28.9380   50.7690 H   0  0  0  0  0  0  0  0  0  0  0  0
   61.3266   29.2491   49.9812 H   0  0  0  0  0  0  0  0  0  0  0  0
   60.2073   27.8058   49.7372 H   0  0  0  0  0  0  0  0  0  0  0  0
   60.7981   29.9931   48.0151 H   0  0  0  0  0  0  0  0  0  0  0  0
   59.8487   28.4427   47.7679 H   0  0  0  0  0  0  0  0  0  0  0  0
   58.0970   30.2730   49.0790 H   0  0  0  0  0  0  0  0  0  0  0  0
   58.3989   27.9874   47.3969 H   0  0  0  0  0  0  0  0  0  0  0  0
   57.9946   26.1883   45.7427 H   0  0  0  0  0  0  0  0  0  0  0  0
   57.5879   26.8352   43.3776 H   0  0  0  0  0  0  0  0  0  0  0  0
   57.5843   29.2303   42.7040 H   0  0  0  0  0  0  0  0  0  0  0  0
   57.2660   32.6833   43.0094 H   0  0  0  0  0  0  0  0  0  0  0  0
   58.7166   31.7848   42.4479 H   0  0  0  0  0  0  0  0  0  0  0  0
   57.1085   30.9843   42.4479 H   0  0  0  0  0  0  0  0  0  0  0  0
   58.0102   33.7657   43.8153 H   0  0  0  0  0  0  0  0  0  0  0  0
   58.3827   35.6067   45.4357 H   0  0  0  0  0  0  0  0  0  0  0  0
   58.7822   35.0242   47.7999 H   0  0  0  0  0  0  0  0  0  0  0  0
   58.0088   33.2701   50.3838 H   0  0  0  0  0  0  0  0  0  0  0  0
   59.1191   31.7041   50.3886 H   0  0  0  0  0  0  0  0  0  0  0  0
   59.8399   34.5148   50.6896 H   0  0  0  0  0  0  0  0  0  0  0  0
   59.9729   33.0046   51.8095 H   0  0  0  0  0  0  0  0  0  0  0  0
   61.8811   33.3821   52.4274 H   0  0  0  0  0  0  0  0  0  0  0  0
   63.2068   32.8718   51.3279 H   0  0  0  0  0  0  0  0  0  0  0  0
   62.6468   34.5785   51.3279 H   0  0  0  0  0  0  0  0  0  0  0  0
   60.6880   34.6394   49.0342 H   0  0  0  0  0  0  0  0  0  0  0  0
   62.3738   34.8972   49.6719 H   0  0  0  0  0  0  0  0  0  0  0  0
   61.4101   32.9164   47.6257 H   0  0  0  0  0  0  0  0  0  0  0  0
   62.6241   34.2910   47.4823 H   0  0  0  0  0  0  0  0  0  0  0  0
   64.0899   30.9575   47.3184 H   0  0  0  0  0  0  0  0  0  0  0  0
   62.6961   31.7751   46.5339 H   0  0  0  0  0  0  0  0  0  0  0  0
   64.3128   32.5580   46.5339 H   0  0  0  0  0  0  0  0  0  0  0  0
   64.5182   33.2243   49.9349 H   0  0  0  0  0  0  0  0  0  0  0  0
   65.3716   32.6537   48.4608 H   0  0  0  0  0  0  0  0  0  0  0  0
   64.5487   34.2504   48.4608 H   0  0  0  0  0  0  0  0  0  0  0  0
   62.8717   30.6049   48.8557 H   0  0  0  0  0  0  0  0  0  0  0  0
   63.5894   31.5840   50.1822 H   0  0  0  0  0  0  0  0  0  0  0  0
   60.8195   31.8421   48.9969 H   0  0  0  0  0  0  0  0  0  0  0  0
   61.3121   31.1904   50.6449 H   0  0  0  0  0  0  0  0  0  0  0  0
  1  2  1  0
  2  3  1  0
  3  4  1  0
  4  5  1  0
  5  6  1  0
  6  7  2  0
  7  8  1  0
  8  9  2  0
  9 10  1  0
 10 11  2  0
 11 12  1  0
 12 13  2  0
 13 14  1  0
 13 15  1  0
 15 16  2  0
 16 17  1  0
 17 18  2  0
 18 19  1  0
 19 20  1  0
 20 21  1  0
 21 22  1  0
 22 23  1  0
 23 24  1  0
 23 25  1  0
 25 26  1  0
 26 27  1  0
 27 28  1  0
 27 29  1  0
 27 30  1  0
 30 31  1  0
 19 32  2  0
 32  6  1  0
 12  7  1  0
 32 15  1  0
 31 23  1  0
  1 33  1  0
  1 34  1  0
  1 35  1  0
  2 36  1  0
  3 37  1  0
  3 38  1  0
  4 39  1  0
  4 40  1  0
  5 41  1  0
  8 42  1  0
  9 43  1  0
 10 44  1  0
 11 45  1  0
 14 46  1  0
 14 47  1  0
 14 48  1  0
 16 49  1  0
 17 50  1  0
 18 51  1  0
 21 52  1  0
 21 53  1  0
 22 54  1  0
 22 55  1  0
 24 56  1  0
 24 57  1  0
 24 58  1  0
 25 59  1  0
 25 60  1  0
 26 61  1  0
 26 62  1  0
 28 63  1  0
 28 64  1  0
 28 65  1  0
 29 66  1  0
 29 67  1  0
 29 68  1  0
 30 69  1  0
 30 70  1  0
 31 71  1  0
 31 72  1  0
M  CHG  3  13   1  23   1  27   1
M  END
>  <smiles>  (7) 
CNCCNc1c2ccccc2[n+](C)c2cccc(OCC[N+]3(C)CC[N+](C)(C)CC3)c12

>  <score_type>  (7) 
oracle

>  <origin>  (7) 
adg

>  <m_score__min__energy>  (7) 
-4.0499999999999998

>  <m_primary>  (7) 
energy

$$$$
10:0
     RDKit          3D

 49 51  0  0  0  0  0  0  0  0999 V2000
   57.7930   26.1380   44.7740 C   0  0  0  0  0  0  0  0  0  0  0  0
   57.8000   27.1950   43.9680 C   0  0  0  0  0  0  0  0  0  0  0  0
   58.1240   26.9560   42.5320 C   0  0  0  0  0  0  0  0  0  0  0  0
   57.5120   28.5720   44.3920 C   0  0  0  0  0  0  0  0  0  0  0  0
   56.7180   29.2670   43.3050 C   0  0  0  0  0  0  0  0  0  0  0  0
   56.5710   30.7450   43.5810 C   0  0  0  0  0  0  0  0  0  0  0  0
   57.1240   31.1150   44.8680 N   0  0  0  0  0  0  0  0  0  0  0  0
   57.0300   32.5580   44.9830 C   0  0  0  0  0  0  0  0  0  0  0  0
   57.9900   33.1480   45.9280 C   0  0  0  0  0  0  0  0  0  0  0  0
   58.8770   34.1550   45.6120 C   0  0  0  0  0  0  0  0  0  0  0  0
   59.7450   34.6370   46.5970 C   0  0  0  0  0  0  0  0  0  0  0  0
   59.7180   34.1140   47.8810 C   0  0  0  0  0  0  0  0  0  0  0  0
   60.6050   34.5780   48.9660 C   0  0  0  0  0  0  0  0  0  0  0  0
   61.9590   33.9830   48.9110 C   0  0  0  0  0  0  0  0  0  0  0  0
   62.7090   33.9440   50.0880 C   0  0  0  0  0  0  0  0  0  0  0  0
   63.9790   33.4080   50.1300 C   0  0  0  0  0  0  0  0  0  0  0  0
   64.5280   32.8930   48.9820 C   0  0  0  0  0  0  0  0  0  0  0  0
   63.7900   32.9240   47.7950 C   0  0  0  0  0  0  0  0  0  0  0  0
   62.5150   33.4630   47.7580 C   0  0  0  0  0  0  0  0  0  0  0  0
   58.8320   33.1190   48.1730 N   0  0  0  0  0  0  0  0  0  0  0  0
   57.9910   32.6450   47.2350 C   0  0  0  0  0  0  0  0  0  0  0  0
   58.5240   30.7540   44.9770 C   0  0  0  0  0  0  0  0  0  0  0  0
   58.8000   29.3520   44.5550 C   0  0  0  0  0  0  0  0  0  0  0  0
   57.5599   26.2621   45.8418 H   0  0  0  0  0  0  0  0  0  0  0  0
   58.0203   25.1392   44.3732 H   0  0  0  0  0  0  0  0  0  0  0  0
   59.0073   26.3045   42.4589 H   0  0  0  0  0  0  0  0  0  0  0  0
   57.2687   26.4709   42.0390 H   0  0  0  0  0  0  0  0  0  0  0  0
   58.3350   27.9164   42.0390 H   0  0  0  0  0  0  0  0  0  0  0  0
   56.9595   28.5333   45.3424 H   0  0  0  0  0  0  0  0  0  0  0  0
   57.2360   29.1333   42.3439 H   0  0  0  0  0  0  0  0  0  0  0  0
   55.7128   28.8213   43.2754 H   0  0  0  0  0  0  0  0  0  0  0  0
   57.0957   31.3070   42.7943 H   0  0  0  0  0  0  0  0  0  0  0  0
   55.4972   30.9832   43.5917 H   0  0  0  0  0  0  0  0  0  0  0  0
   57.2087   32.9962   43.9900 H   0  0  0  0  0  0  0  0  0  0  0  0
   56.0250   32.7809   45.3706 H   0  0  0  0  0  0  0  0  0  0  0  0
   58.9018   34.5750   44.5956 H   0  0  0  0  0  0  0  0  0  0  0  0
   60.4563   35.4391   46.3507 H   0  0  0  0  0  0  0  0  0  0  0  0
   60.7011   35.6715   48.8946 H   0  0  0  0  0  0  0  0  0  0  0  0
   60.1493   34.2627   49.9162 H   0  0  0  0  0  0  0  0  0  0  0  0
   62.2731   34.3538   51.0111 H   0  0  0  0  0  0  0  0  0  0  0  0
   64.5456   33.3933   51.0727 H   0  0  0  0  0  0  0  0  0  0  0  0
   65.5391   32.4600   48.9959 H   0  0  0  0  0  0  0  0  0  0  0  0
   64.2299   32.5130   46.8743 H   0  0  0  0  0  0  0  0  0  0  0  0
   61.9478   33.4771   46.8156 H   0  0  0  0  0  0  0  0  0  0  0  0
   57.2872   31.8428   47.5016 H   0  0  0  0  0  0  0  0  0  0  0  0
   59.1113   31.4331   44.3414 H   0  0  0  0  0  0  0  0  0  0  0  0
   58.8032   30.8386   46.0376 H   0  0  0  0  0  0  0  0  0  0  0  0
   59.3374   29.3641   43.5953 H   0  0  0  0  0  0  0  0  0  0  0  0
   59.4092   28.8654   45.3309 H   0  0  0  0  0  0  0  0  0  0  0  0
  1  2  2  0
  2  3  1  0
  2  4  1  0
  4  5  1  0
  5  6  1  0
  6  7  1  0
  7  8  1  0
  8  9  1  0
  9 10  2  0
 10 11  1  0
 11 12  2  0
 12 13  1  0
 13 14  1  0
 14 15  2  0
 15 16  1  0
 16 17  2  0
 17 18  1  0
 18 19  2  0
 12 20  1  0
 20 21  2  0
  7 22  1  0
 22 23  1  0
 23  4  1  0
 21  9  1  0
 19 14  1  0
  1 24  1  0
  1 25  1  0
  3 26  1  0
  3 27  1  0
  3 28  1  0
  4 29  1  0
  5 30  1  0
  5 31  1  0
  6 32  1  0
  6 33  1  0
  8 34  1  0
  8 35  1  0
 10 36  1  0
 11 37  1  0
 13 38  1  0
 13 39  1  0
 15 40  1  0
 16 41  1  0
 17 42  1  0
 18 43  1  0
 19 44  1  0
 21 45  1  0
 22 46  1  0
 22 47  1  0
 23 48  1  0
 23 49  1  0
M  END
>  <smiles>  (8) 
C=C(C)C1CCN(Cc2ccc(Cc3ccccc3)nc2)CC1

>  <score_type>  (8) 
oracle

>  <origin>  (8) 
adg

>  <m_score__min__energy>  (8) 
-8.9000000000000004

>  <m_primary>  (8) 
energy

$$$$
11:0
     RDKit          3D

 58 61  0  0  0  0  0  0  0  0999 V2000
   63.3950   34.2000   46.3410 C   0  0  0  0  0  0  0  0  0  0  0  0
   63.7620   33.4720   47.6300 C   0  0  0  0  0  0  0  0  0  0  0  0
   63.5750   32.0510   47.4880 N   0  0  0  0  0  0  0  0  0  0  0  0
   62.8760   31.5600   48.6920 C   0  0  0  0  0  0  0  0  0  0  0  0
   61.8200   32.5550   49.1000 C   0  0  0  0  0  0  0  0  0  0  0  0
   60.4820   32.1110   48.8680 N   0  0  0  0  0  0  0  0  0  0  0  0
   59.8210   31.9180   47.6520 C   0  0  0  0  0  0  0  0  0  0  0  0
   59.4210   30.6230   47.2640 C   0  0  0  0  0  0  0  0  0  0  0  0
   58.7790   30.4120   46.0520 C   0  0  0  0  0  0  0  0  0  0  0  0
   58.4880   31.4060   45.1960 N   0  0  0  0  0  0  0  0  0  0  0  0
   57.6520   31.2860   44.0460 C   0  0  0  0  0  0  0  0  0  0  0  0
   58.8720   32.6750   45.5450 C   0  0  0  0  0  0  0  0  0  0  0  0
   58.6530   33.7370   44.6790 C   0  0  0  0  0  0  0  0  0  0  0  0
   59.0700   35.0360   44.9880 C   0  0  0  0  0  0  0  0  0  0  0  0
   59.7130   35.2730   46.1770 C   0  0  0  0  0  0  0  0  0  0  0  0
   59.9160   34.1960   47.0130 C   0  0  0  0  0  0  0  0  0  0  0  0
   59.5200   32.9100   46.7430 C   0  0  0  0  0  0  0  0  0  0  0  0
   58.5220   29.0120   45.7000 C   0  0  0  0  0  0  0  0  0  0  0  0
   57.9830   28.6690   44.4840 C   0  0  0  0  0  0  0  0  0  0  0  0
   57.7990   27.3200   44.1030 C   0  0  0  0  0  0  0  0  0  0  0  0
   58.1640   26.3300   44.9500 C   0  0  0  0  0  0  0  0  0  0  0  0
   57.9880   25.0110   44.5910 O   0  0  0  0  0  0  0  0  0  0  0  0
   57.0360   24.4730   43.7370 C   0  0  0  0  0  0  0  0  0  0  0  0
   56.9650   22.9820   43.6870 C   0  0  0  0  0  0  0  0  0  0  0  0
   58.7080   26.6270   46.1650 C   0  0  0  0  0  0  0  0  0  0  0  0
   58.8820   27.9680   46.5270 C   0  0  0  0  0  0  0  0  0  0  0  0
   59.5240   28.1720   47.8440 C   0  0  0  0  0  0  0  0  0  0  0  0
   59.6850   29.5660   48.2590 C   0  0  0  0  0  0  0  0  0  0  0  0
   62.9122   35.1577   46.5855 H   0  0  0  0  0  0  0  0  0  0  0  0
   64.3060   34.3880   45.7539 H   0  0  0  0  0  0  0  0  0  0  0  0
   62.7020   33.5794   45.7539 H   0  0  0  0  0  0  0  0  0  0  0  0
   64.8161   33.6744   47.8705 H   0  0  0  0  0  0  0  0  0  0  0  0
   63.1079   33.8340   48.4369 H   0  0  0  0  0  0  0  0  0  0  0  0
   64.5100   31.6010   47.5040 H   0  0  0  0  0  0  0  0  0  0  0  0
   62.4023   30.5919   48.4719 H   0  0  0  0  0  0  0  0  0  0  0  0
   63.5994   31.4360   49.5113 H   0  0  0  0  0  0  0  0  0  0  0  0
   61.9349   32.7601   50.1746 H   0  0  0  0  0  0  0  0  0  0  0  0
   61.9701   33.4506   48.4792 H   0  0  0  0  0  0  0  0  0  0  0  0
   59.9020   31.8970   49.7410 H   0  0  0  0  0  0  0  0  0  0  0  0
   56.6098   31.1364   44.3644 H   0  0  0  0  0  0  0  0  0  0  0  0
   57.7233   32.2036   43.4435 H   0  0  0  0  0  0  0  0  0  0  0  0
   57.9785   30.4255   43.4435 H   0  0  0  0  0  0  0  0  0  0  0  0
   58.1380   33.5525   43.7246 H   0  0  0  0  0  0  0  0  0  0  0  0
   58.8841   35.8605   44.2840 H   0  0  0  0  0  0  0  0  0  0  0  0
   60.0529   36.2824   46.4520 H   0  0  0  0  0  0  0  0  0  0  0  0
   60.4331   34.3808   47.9661 H   0  0  0  0  0  0  0  0  0  0  0  0
   57.6861   29.4665   43.7869 H   0  0  0  0  0  0  0  0  0  0  0  0
   57.3616   27.0766   43.1235 H   0  0  0  0  0  0  0  0  0  0  0  0
   56.0510   24.8458   44.0544 H   0  0  0  0  0  0  0  0  0  0  0  0
   57.3342   24.7884   42.7263 H   0  0  0  0  0  0  0  0  0  0  0  0
   56.9459   22.5813   44.7112 H   0  0  0  0  0  0  0  0  0  0  0  0
   56.0513   22.6760   43.1565 H   0  0  0  0  0  0  0  0  0  0  0  0
   57.8455   22.5906   43.1565 H   0  0  0  0  0  0  0  0  0  0  0  0
   59.0066   25.8220   46.8526 H   0  0  0  0  0  0  0  0  0  0  0  0
   58.9115   27.6617   48.6019 H   0  0  0  0  0  0  0  0  0  0  0  0
   60.5421   27.7665   47.7489 H   0  0  0  0  0  0  0  0  0  0  0  0
   59.0023   29.7358   49.1046 H   0  0  0  0  0  0  0  0  0  0  0  0
   60.7578   29.6625   48.4822 H   0  0  0  0  0  0  0  0  0  0  0  0
  1  2  1  0
  2  3  1  0
  3  4  1  0
  4  5  1  0
  5  6  1  0
  6  7  1  0
  7  8  2  0
  8  9  1  0
  9 10  2  0
 10 11  1  0
 10 12  1  0
 12 13  2  0
 13 14  1  0
 14 15  2  0
 15 16  1  0
 16 17  2  0
  9 18  1  0
 18 19  2  0
 19 20  1  0
 20 21  2  0
 21 22  1  0
 22 23  1  0
 23 24  1  0
 21 25  1  0
 25 26  2  0
 26 27  1  0
 27 28  1  0
 17  7  1  0
 26 18  1  0
 28  8  1  0
 17 12  1  0
  1 29  1  0
  1 30  1  0
  1 31  1  0
  2 32  1  0
  2 33  1  0
  3 34  1  0
  4 35  1  0
  4 36  1  0
  5 37  1  0
  5 38  1  0
  6 39  1  0
 11 40  1  0
 11 41  1  0
 11 42  1  0
 13 43  1  0
 14 44  1  0
 15 45  1  0
 16 46  1  0
 19 47  1  0
 20 48  1  0
 23 49  1  0
 23 50  1  0
 24 51  1  0
 24 52  1  0
 24 53  1  0
 25 54  1  0
 27 55  1  0
 27 56  1  0
 28 57  1  0
 28 58  1  0
M  CHG  1  10   1
M  END
>  <smiles>  (9) 
CCNCCNc1c2c([n+](C)c3ccccc13)-c1ccc(OCC)cc1CC2

>  <score_type>  (9) 
oracle

>  <origin>  (9) 
adg

>  <m_score__min__energy>  (9) 
-6.5499999999999998

>  <m_primary>  (9) 
energy

$$$$
12:0
     RDKit          3D

 42 42  0  0  0  0  0  0  0  0999 V2000
   58.1290   26.7320   42.5420 C   0  0  0  0  0  0  0  0  0  0  0  0
   58.1860   27.1240   44.0180 C   0  0  0  0  0  0  0  0  0  0  0  0
   58.7120   28.4520   44.1620 N   0  0  0  0  0  0  0  0  0  0  0  0
   59.9690   28.4100   44.9080 C   0  0  0  0  0  0  0  0  0  0  0  0
   59.9960   29.4750   45.9530 C   0  0  0  0  0  0  0  0  0  0  0  0
   58.8220   30.1500   46.0580 O   0  0  0  0  0  0  0  0  0  0  0  0
   58.5630   31.4640   46.0890 C   0  0  0  0  0  0  0  0  0  0  0  0
   59.1670   32.4350   46.8500 C   0  0  0  0  0  0  0  0  0  0  0  0
   58.8000   33.7840   46.7840 C   0  0  0  0  0  0  0  0  0  0  0  0
   59.4480   34.7340   47.5840 O   0  0  0  0  0  0  0  0  0  0  0  0
   60.5230   34.4330   48.4200 C   0  0  0  0  0  0  0  0  0  0  0  0
   59.9680   33.8950   49.7260 C   0  0  0  0  0  0  0  0  0  0  0  0
   57.8000   34.2060   45.9370 C   0  0  0  0  0  0  0  0  0  0  0  0
   57.1840   33.2490   45.1670 C   0  0  0  0  0  0  0  0  0  0  0  0
   57.5460   31.9270   45.2340 C   0  0  0  0  0  0  0  0  0  0  0  0
   56.8420   30.9620   44.3800 C   0  0  0  0  0  0  0  0  0  0  0  0
   56.1150   30.0530   44.8570 O   0  0  0  0  0  0  0  0  0  0  0  0
   56.9690   31.0350   42.9060 C   0  0  0  0  0  0  0  0  0  0  0  0
   58.1160   31.9920   42.5830 C   0  0  0  0  0  0  0  0  0  0  0  0
   57.9712   25.6467   42.4567 H   0  0  0  0  0  0  0  0  0  0  0  0
   57.2986   27.2628   42.0535 H   0  0  0  0  0  0  0  0  0  0  0  0
   59.0762   27.0043   42.0535 H   0  0  0  0  0  0  0  0  0  0  0  0
   57.1718   27.0877   44.4423 H   0  0  0  0  0  0  0  0  0  0  0  0
   58.8430   26.4199   44.5496 H   0  0  0  0  0  0  0  0  0  0  0  0
   58.0640   29.0360   44.7430 H   0  0  0  0  0  0  0  0  0  0  0  0
   60.0699   27.4269   45.3911 H   0  0  0  0  0  0  0  0  0  0  0  0
   60.8017   28.5780   44.2091 H   0  0  0  0  0  0  0  0  0  0  0  0
   60.2187   29.0073   46.9234 H   0  0  0  0  0  0  0  0  0  0  0  0
   60.7669   30.2026   45.6591 H   0  0  0  0  0  0  0  0  0  0  0  0
   59.9719   32.1403   47.5394 H   0  0  0  0  0  0  0  0  0  0  0  0
   61.1629   33.6742   47.9460 H   0  0  0  0  0  0  0  0  0  0  0  0
   61.1263   35.3341   48.6046 H   0  0  0  0  0  0  0  0  0  0  0  0
   60.4747   34.3862   50.5698 H   0  0  0  0  0  0  0  0  0  0  0  0
   58.8884   34.0993   49.7774 H   0  0  0  0  0  0  0  0  0  0  0  0
   60.1386   32.8095   49.7774 H   0  0  0  0  0  0  0  0  0  0  0  0
   57.5065   35.2646   45.8791 H   0  0  0  0  0  0  0  0  0  0  0  0
   56.3801   33.5503   44.4793 H   0  0  0  0  0  0  0  0  0  0  0  0
   57.1887   30.0368   42.4994 H   0  0  0  0  0  0  0  0  0  0  0  0
   56.0312   31.3936   42.4567 H   0  0  0  0  0  0  0  0  0  0  0  0
   58.5595   32.3620   43.5192 H   0  0  0  0  0  0  0  0  0  0  0  0
   58.8824   31.4618   41.9987 H   0  0  0  0  0  0  0  0  0  0  0  0
   57.7316   32.8410   41.9987 H   0  0  0  0  0  0  0  0  0  0  0  0
  1  2  1  0
  2  3  1  0
  3  4  1  0
  4  5  1  0
  5  6  1  0
  6  7  1  0
  7  8  2  0
  8  9  1  0
  9 10  1  0
 10 11  1  0
 11 12  1  0
  9 13  2  0
 13 14  1  0
 14 15  2  0
 15 16  1  0
 16 17  2  0
 16 18  1  0
 18 19  1  0
 15  7  1  0
  1 20  1  0
  1 21  1  0
  1 22  1  0
  2 23  1  0
  2 24  1  0
  3 25  1  0
  4 26  1  0
  4 27  1  0
  5 28  1  0
  5 29  1  0
  8 30  1  0
 11 31  1  0
 11 32  1  0
 12 33  1  0
 12 34  1  0
 12 35  1  0
 13 36  1  0
 14 37  1  0
 18 38  1  0
 18 39  1  0
 19 40  1  0
 19 41  1  0
 19 42  1  0
M  END
>  <smiles>  (10) 
CCNCCOc1cc(OCC)ccc1C(=O)CC

>  <score_type>  (10) 
oracle

>  <origin>  (10) 
adg

>  <m_score__min__energy>  (10) 
-5.2699999999999996

>  <m_primary>  (10) 
energy

$$$$
13:0
     RDKit          3D

 34 35  0  0  0  0  0  0  0  0999 V2000
   59.9680   35.3360   46.2510 C   0  0  0  0  0  0  0  0  0  0  0  0
   59.0760   34.2180   45.8260 C   0  0  0  0  0  0  0  0  0  0  0  0
   58.5960   33.3340   46.7740 C   0  0  0  0  0  0  0  0  0  0  0  0
   57.7670   32.2900   46.4200 C   0  0  0  0  0  0  0  0  0  0  0  0
   57.3770   32.0780   45.0980 C   0  0  0  0  0  0  0  0  0  0  0  0
   56.5550   31.0180   44.8520 O   0  0  0  0  0  0  0  0  0  0  0  0
   56.5730   30.2850   43.6660 C   0  0  0  0  0  0  0  0  0  0  0  0
   57.3690   29.0200   43.7690 C   0  0  0  0  0  0  0  0  0  0  0  0
   58.0400   28.8580   45.0510 N   0  0  0  0  0  0  0  0  0  0  0  0
   58.2220   27.4320   45.2310 C   0  0  0  0  0  0  0  0  0  0  0  0
   59.5850   27.2180   45.8420 C   0  0  0  0  0  0  0  0  0  0  0  0
   60.3740   28.3690   45.2610 C   0  0  0  0  0  0  0  0  0  0  0  0
   59.3700   29.4390   45.0140 C   0  0  0  0  0  0  0  0  0  0  0  0
   57.8590   32.9610   44.1640 C   0  0  0  0  0  0  0  0  0  0  0  0
   58.6990   34.0210   44.5150 C   0  0  0  0  0  0  0  0  0  0  0  0
   60.0030   35.3798   47.3496 H   0  0  0  0  0  0  0  0  0  0  0  0
   60.9814   35.1661   45.8584 H   0  0  0  0  0  0  0  0  0  0  0  0
   59.5773   36.2864   45.8584 H   0  0  0  0  0  0  0  0  0  0  0  0
   58.8799   33.4653   47.8286 H   0  0  0  0  0  0  0  0  0  0  0  0
   57.4038   31.6063   47.2014 H   0  0  0  0  0  0  0  0  0  0  0  0
   55.5378   30.0264   43.3985 H   0  0  0  0  0  0  0  0  0  0  0  0
   57.0519   30.9124   42.8999 H   0  0  0  0  0  0  0  0  0  0  0  0
   56.6890   28.1680   43.6220 H   0  0  0  0  0  0  0  0  0  0  0  0
   58.1521   29.0672   42.9980 H   0  0  0  0  0  0  0  0  0  0  0  0
   57.4445   27.0366   45.9012 H   0  0  0  0  0  0  0  0  0  0  0  0
   58.1452   26.9086   44.2665 H   0  0  0  0  0  0  0  0  0  0  0  0
   59.5443   27.2751   46.9398 H   0  0  0  0  0  0  0  0  0  0  0  0
   60.0177   26.2300   45.6261 H   0  0  0  0  0  0  0  0  0  0  0  0
   61.1379   28.7128   45.9739 H   0  0  0  0  0  0  0  0  0  0  0  0
   60.9066   28.0824   44.3422 H   0  0  0  0  0  0  0  0  0  0  0  0
   59.4563   30.2121   45.7917 H   0  0  0  0  0  0  0  0  0  0  0  0
   59.5485   29.8954   44.0292 H   0  0  0  0  0  0  0  0  0  0  0  0
   57.5759   32.8304   43.1091 H   0  0  0  0  0  0  0  0  0  0  0  0
   59.0637   34.7064   43.7358 H   0  0  0  0  0  0  0  0  0  0  0  0
  1  2  1  0
  2  3  2  0
  3  4  1  0
  4  5  2  0
  5  6  1  0
  6  7  1  0
  7  8  1  0
  8  9  1  0
  9 10  1  0
 10 11  1  0
 11 12  1  0
 12 13  1  0
  5 14  1  0
 14 15  2  0
 15  2  1  0
 13  9  1  0
  1 16  1  0
  1 17  1  0
  1 18  1  0
  3 19  1  0
  4 20  1  0
  7 21  1  0
  7 22  1  0
  8 23  1  0
  8 24  1  0
 10 25  1  0
 10 26  1  0
 11 27  1  0
 11 28  1  0
 12 29  1  0
 12 30  1  0
 13 31  1  0
 13 32  1  0
 14 33  1  0
 15 34  1  0
M  END
>  <smiles>  (11) 
Cc1ccc(OCCN2CCCC2)cc1

>  <score_type>  (11) 
oracle

>  <origin>  (11) 
adg

>  <m_score__min__energy>  (11) 
-5.75

>  <m_primary>  (11) 
energy

$$$$
14:0
     RDKit          3D

 44 45  0  0  1  0  0  0  0  0999 V2000
   56.3110   29.7550   42.8330 C   0  0  0  0  0  0  0  0  0  0  0  0
   56.7130   29.2500   44.1870 C   0  0  0  0  0  0  0  0  0  0  0  0
   56.5140   30.2320   45.2340 N   0  0  0  0  0  0  0  0  0  0  0  0
   57.7960   30.6000   45.7570 C   0  0  0  0  0  0  0  0  0  0  0  0
   58.3350   31.9060   45.1820 C   0  0  1  0  0  0  0  0  0  0  0  0
   57.2790   32.9000   44.8660 C   0  0  0  0  0  0  0  0  0  0  0  0
   57.5380   34.1650   45.6550 C   0  0  0  0  0  0  0  0  0  0  0  0
   58.9750   34.5650   45.2920 C   0  0  0  0  0  0  0  0  0  0  0  0
   59.8820   33.6820   45.9220 N   0  0  0  0  0  0  0  0  0  0  0  0
   60.3930   34.2210   47.1350 C   0  0  0  0  0  0  0  0  0  0  0  0
   61.8100   33.8310   47.2970 C   0  0  0  0  0  0  0  0  0  0  0  0
   62.8510   33.8220   46.4020 C   0  0  0  0  0  0  0  0  0  0  0  0
   63.9350   33.3630   47.0750 N   0  0  0  0  0  0  0  0  0  0  0  0
   63.6120   33.0870   48.3500 C   0  0  0  0  0  0  0  0  0  0  0  0
   64.4870   32.5610   49.4430 C   0  0  0  0  0  0  0  0  0  0  0  0
   62.3070   33.3790   48.4740 N   0  0  0  0  0  0  0  0  0  0  0  0
   61.5630   33.2180   49.7180 C   0  0  0  0  0  0  0  0  0  0  0  0
   59.4110   32.3490   46.1130 C   0  0  0  0  0  0  0  0  0  0  0  0
   55.6297   30.6109   42.9483 H   0  0  0  0  0  0  0  0  0  0  0  0
   57.2069   30.0716   42.2789 H   0  0  0  0  0  0  0  0  0  0  0  0
   55.8016   28.9529   42.2789 H   0  0  0  0  0  0  0  0  0  0  0  0
   56.1127   28.3588   44.4223 H   0  0  0  0  0  0  0  0  0  0  0  0
   57.7879   29.0194   44.1490 H   0  0  0  0  0  0  0  0  0  0  0  0
   55.9410   29.7220   45.9710 H   0  0  0  0  0  0  0  0  0  0  0  0
   57.7087   30.7096   46.8480 H   0  0  0  0  0  0  0  0  0  0  0  0
   58.5018   29.8055   45.4730 H   0  0  0  0  0  0  0  0  0  0  0  0
   58.7698   31.7655   44.1814 H   0  0  0  0  0  0  0  0  0  0  0  0
   57.2968   33.1269   43.7898 H   0  0  0  0  0  0  0  0  0  0  0  0
   56.2934   32.4915   45.1336 H   0  0  0  0  0  0  0  0  0  0  0  0
   56.8303   34.9552   45.3639 H   0  0  0  0  0  0  0  0  0  0  0  0
   57.4094   34.0137   46.7369 H   0  0  0  0  0  0  0  0  0  0  0  0
   59.1068   34.5098   44.2013 H   0  0  0  0  0  0  0  0  0  0  0  0
   59.1671   35.5932   45.6323 H   0  0  0  0  0  0  0  0  0  0  0  0
   60.3167   35.3180   47.1082 H   0  0  0  0  0  0  0  0  0  0  0  0
   59.8090   33.8301   47.9813 H   0  0  0  0  0  0  0  0  0  0  0  0
   62.8131   34.1273   45.3459 H   0  0  0  0  0  0  0  0  0  0  0  0
   64.0519   32.8225   50.4189 H   0  0  0  0  0  0  0  0  0  0  0  0
   64.5636   31.4670   49.3570 H   0  0  0  0  0  0  0  0  0  0  0  0
   65.4890   33.0066   49.3570 H   0  0  0  0  0  0  0  0  0  0  0  0
   62.2406   33.3646   50.5721 H   0  0  0  0  0  0  0  0  0  0  0  0
   60.7537   33.9618   49.7601 H   0  0  0  0  0  0  0  0  0  0  0  0
   61.1336   32.2061   49.7601 H   0  0  0  0  0  0  0  0  0  0  0  0
   60.2657   31.6674   45.9909 H   0  0  0  0  0  0  0  0  0  0  0  0
   58.9656   32.3287   47.1186 H   0  0  0  0  0  0  0  0  0  0  0  0
  1  2  1  0
  2  3  1  0
  3  4  1  0
  4  5  1  0
  5  6  1  0
  6  7  1  0
  7  8  1  0
  8  9  1  0
  9 10  1  0
 10 11  1  0
 11 12  2  0
 12 13  1  0
 13 14  2  0
 14 15  1  0
 14 16  1  0
 16 17  1  0
  9 18  1  0
 18  5  1  0
 16 11  1  0
  1 19  1  0
  1 20  1  0
  1 21  1  0
  2 22  1  0
  2 23  1  0
  3 24  1  0
  4 25  1  0
  4 26  1  0
  5 27  1  6
  6 28  1  0
  6 29  1  0
  7 30  1  0
  7 31  1  0
  8 32  1  0
  8 33  1  0
 10 34  1  0
 10 35  1  0
 12 36  1  0
 15 37  1  0
 15 38  1  0
 15 39  1  0
 17 40  1  0
 17 41  1  0
 17 42  1  0
 18 43  1  0
 18 44  1  0
M  END
>  <smiles>  (12) 
CCNCC1CCCN(Cc2cnc(C)n2C)C1

>  <score_type>  (12) 
oracle

>  <origin>  (12) 
adg

>  <m_score__min__energy>  (12) 
-7.0199999999999996

>  <m_primary>  (12) 
energy

$$$$
15:0
     RDKit          3D

 35 37  0  0  0  0  0  0  0  0999 V2000
   50.9020   23.7570   44.2960 C   0  0  0  0  0  0  0  0  0  0  0  0
   51.3610   22.9490   45.5080 C   0  0  0  0  0  0  0  0  0  0  0  0
   52.6670   22.5550   45.2620 O   0  0  0  0  0  0  0  0  0  0  0  0
   53.8140   23.2990   45.2900 C   0  0  0  0  0  0  0  0  0  0  0  0
   55.0030   22.6370   44.9700 C   0  0  0  0  0  0  0  0  0  0  0  0
   56.2050   23.3480   44.9830 C   0  0  0  0  0  0  0  0  0  0  0  0
   56.1650   24.6710   45.3110 C   0  0  0  0  0  0  0  0  0  0  0  0
   57.2150   25.5760   45.3910 C   0  0  0  0  0  0  0  0  0  0  0  0
   56.6310   26.7820   45.7640 C   0  0  0  0  0  0  0  0  0  0  0  0
   57.4000   28.0050   45.9600 C   0  0  0  0  0  0  0  0  0  0  0  0
   58.3920   28.1190   46.9270 C   0  0  0  0  0  0  0  0  0  0  0  0
   59.1120   29.2600   47.1120 C   0  0  0  0  0  0  0  0  0  0  0  0
   58.8640   30.3560   46.3230 C   0  0  0  0  0  0  0  0  0  0  0  0
   57.8890   30.2960   45.3490 C   0  0  0  0  0  0  0  0  0  0  0  0
   57.6200   31.4780   44.4970 C   0  0  0  0  0  0  0  0  0  0  0  0
   58.5250   32.4700   44.7800 F   0  0  0  0  0  0  0  0  0  0  0  0
   57.7030   31.1990   43.1580 F   0  0  0  0  0  0  0  0  0  0  0  0
   56.3740   31.9680   44.8570 F   0  0  0  0  0  0  0  0  0  0  0  0
   57.1770   29.1250   45.1850 C   0  0  0  0  0  0  0  0  0  0  0  0
   55.3270   26.5950   45.8930 O   0  0  0  0  0  0  0  0  0  0  0  0
   55.0110   25.3540   45.6320 C   0  0  0  0  0  0  0  0  0  0  0  0
   53.8160   24.6500   45.6200 C   0  0  0  0  0  0  0  0  0  0  0  0
   50.3853   24.6666   44.6361 H   0  0  0  0  0  0  0  0  0  0  0  0
   51.7760   24.0368   43.6895 H   0  0  0  0  0  0  0  0  0  0  0  0
   50.2141   23.1496   43.6895 H   0  0  0  0  0  0  0  0  0  0  0  0
   51.3184   23.5707   46.4145 H   0  0  0  0  0  0  0  0  0  0  0  0
   50.7110   22.0758   45.6664 H   0  0  0  0  0  0  0  0  0  0  0  0
   54.9920   21.5680   44.7109 H   0  0  0  0  0  0  0  0  0  0  0  0
   57.1567   22.8549   44.7357 H   0  0  0  0  0  0  0  0  0  0  0  0
   58.2806   25.3809   45.2002 H   0  0  0  0  0  0  0  0  0  0  0  0
   58.6042   27.2517   47.5694 H   0  0  0  0  0  0  0  0  0  0  0  0
   59.8886   29.3034   47.8898 H   0  0  0  0  0  0  0  0  0  0  0  0
   59.4420   31.2807   46.4674 H   0  0  0  0  0  0  0  0  0  0  0  0
   56.4014   29.0828   44.4061 H   0  0  0  0  0  0  0  0  0  0  0  0
   52.8733   25.1584   45.8706 H   0  0  0  0  0  0  0  0  0  0  0  0
  1  2  1  0
  2  3  1  0
  3  4  1  0
  4  5  2  0
  5  6  1  0
  6  7  2  0
  7  8  1  0
  8  9  2  0
  9 10  1  0
 10 11  2  0
 11 12  1  0
 12 13  2  0
 13 14  1  0
 14 15  1  0
 15 16  1  0
 15 17  1  0
 15 18  1  0
 14 19  2  0
  9 20  1  0
 20 21  1  0
 21 22  2  0
 22  4  1  0
 21  7  1  0
 19 10  1  0
  1 23  1  0
  1 24  1  0
  1 25  1  0
  2 26  1  0
  2 27  1  0
  5 28  1  0
  6 29  1  0
  8 30  1  0
 11 31  1  0
 12 32  1  0
 13 33  1  0
 19 34  1  0
 22 35  1  0
M  END
>  <smiles>  (13) 
CCOc1ccc2cc(-c3cccc(C(F)(F)F)c3)oc2c1

>  <score_type>  (13) 
oracle

>  <origin>  (13) 
adg

>  <m_score__min__energy>  (13) 
-6.1399999999999997

>  <m_primary>  (13) 
energy

$$$$
16:0
     RDKit          3D

 47 49  0  0  0  0  0  0  0  0999 V2000
   58.5900   25.5060   46.2750 C   0  0  0  0  0  0  0  0  0  0  0  0
   58.9630   26.7900   45.5660 C   0  0  0  0  0  0  0  0  0  0  0  0
   58.8390   27.9570   46.3400 N   0  0  0  0  0  0  0  0  0  0  0  0
   57.8610   28.9110   45.9760 C   0  0  0  0  0  0  0  0  0  0  0  0
   56.6690   28.3270   45.2940 C   0  0  0  0  0  0  0  0  0  0  0  0
   55.7750   29.3870   44.8150 N   0  0  0  0  0  0  0  0  0  0  0  0
   56.3530   30.1650   43.7450 C   0  0  0  0  0  0  0  0  0  0  0  0
   57.0560   31.3200   44.3940 C   0  0  0  0  0  0  0  0  0  0  0  0
   57.8410   32.2180   43.7520 C   0  0  0  0  0  0  0  0  0  0  0  0
   58.3100   33.1280   44.6670 C   0  0  0  0  0  0  0  0  0  0  0  0
   59.1340   34.2210   44.5150 C   0  0  0  0  0  0  0  0  0  0  0  0
   59.4420   34.9720   45.6540 C   0  0  0  0  0  0  0  0  0  0  0  0
   58.9060   34.5800   46.8560 C   0  0  0  0  0  0  0  0  0  0  0  0
   58.0810   33.4840   47.0070 C   0  0  0  0  0  0  0  0  0  0  0  0
   57.7730   32.7350   45.8790 C   0  0  0  0  0  0  0  0  0  0  0  0
   57.0290   31.6530   45.6850 O   0  0  0  0  0  0  0  0  0  0  0  0
   59.4640   28.0480   47.5920 C   0  0  0  0  0  0  0  0  0  0  0  0
   59.9420   29.4530   47.8100 C   0  0  0  0  0  0  0  0  0  0  0  0
   60.7680   30.0920   46.8910 C   0  0  0  0  0  0  0  0  0  0  0  0
   61.1940   31.3900   47.1000 C   0  0  0  0  0  0  0  0  0  0  0  0
   60.8080   32.0910   48.2350 C   0  0  0  0  0  0  0  0  0  0  0  0
   60.0010   31.4650   49.1320 C   0  0  0  0  0  0  0  0  0  0  0  0
   59.5610   30.1560   48.9410 C   0  0  0  0  0  0  0  0  0  0  0  0
   58.6352   25.6615   47.3630 H   0  0  0  0  0  0  0  0  0  0  0  0
   57.5694   25.2122   45.9887 H   0  0  0  0  0  0  0  0  0  0  0  0
   59.2944   24.7111   45.9887 H   0  0  0  0  0  0  0  0  0  0  0  0
   60.0103   26.7072   45.2399 H   0  0  0  0  0  0  0  0  0  0  0  0
   58.2519   26.8978   44.7337 H   0  0  0  0  0  0  0  0  0  0  0  0
   57.5213   29.4236   46.8880 H   0  0  0  0  0  0  0  0  0  0  0  0
   58.3355   29.5957   45.2576 H   0  0  0  0  0  0  0  0  0  0  0  0
   57.0029   27.7220   44.4381 H   0  0  0  0  0  0  0  0  0  0  0  0
   56.1213   27.7005   46.0134 H   0  0  0  0  0  0  0  0  0  0  0  0
   55.6120   30.0700   45.6030 H   0  0  0  0  0  0  0  0  0  0  0  0
   57.0694   29.5551   43.1751 H   0  0  0  0  0  0  0  0  0  0  0  0
   55.5814   30.5116   43.0418 H   0  0  0  0  0  0  0  0  0  0  0  0
   58.0657   32.2182   42.6752 H   0  0  0  0  0  0  0  0  0  0  0  0
   59.5372   34.4947   43.5288 H   0  0  0  0  0  0  0  0  0  0  0  0
   60.0965   35.8537   45.5887 H   0  0  0  0  0  0  0  0  0  0  0  0
   59.1481   35.1737   47.7498 H   0  0  0  0  0  0  0  0  0  0  0  0
   57.6785   33.2113   47.9937 H   0  0  0  0  0  0  0  0  0  0  0  0
   58.7464   27.7781   48.3808 H   0  0  0  0  0  0  0  0  0  0  0  0
   60.3210   27.3593   47.6255 H   0  0  0  0  0  0  0  0  0  0  0  0
   61.0868   29.5563   45.9847 H   0  0  0  0  0  0  0  0  0  0  0  0
   61.8467   31.8737   46.3584 H   0  0  0  0  0  0  0  0  0  0  0  0
   61.1459   33.1242   48.4035 H   0  0  0  0  0  0  0  0  0  0  0  0
   59.6857   32.0074   50.0355 H   0  0  0  0  0  0  0  0  0  0  0  0
   58.9102   29.6807   49.6897 H   0  0  0  0  0  0  0  0  0  0  0  0
  1  2  1  0
  2  3  1  0
  3  4  1  0
  4  5  1  0
  5  6  1  0
  6  7  1  0
  7  8  1  0
  8  9  2  0
  9 10  1  0
 10 11  2  0
 11 12  1  0
 12 13  2  0
 13 14  1  0
 14 15  2  0
 15 16  1  0
  3 17  1  0
 17 18  1  0
 18 19  2  0
 19 20  1  0
 20 21  2  0
 21 22  1  0
 22 23  2  0
 16  8  1  0
 23 18  1  0
 15 10  1  0
  1 24  1  0
  1 25  1  0
  1 26  1  0
  2 27  1  0
  2 28  1  0
  4 29  1  0
  4 30  1  0
  5 31  1  0
  5 32  1  0
  6 33  1  0
  7 34  1  0
  7 35  1  0
  9 36  1  0
 11 37  1  0
 12 38  1  0
 13 39  1  0
 14 40  1  0
 17 41  1  0
 17 42  1  0
 19 43  1  0
 20 44  1  0
 21 45  1  0
 22 46  1  0
 23 47  1  0
M  END
>  <smiles>  (14) 
CCN(CCNCc1cc2ccccc2o1)Cc1ccccc1

>  <score_type>  (14) 
oracle

>  <origin>  (14) 
adg

>  <m_score__min__energy>  (14) 
-8.4600000000000009

>  <m_primary>  (14) 
energy

$$$$
17:0
     RDKit          3D

 41 42  0  0  0  0  0  0  0  0999 V2000
   57.7760   28.0050   44.2020 C   0  0  0  0  0  0  0  0  0  0  0  0
   56.7230   28.2410   45.2280 C   0  0  0  0  0  0  0  0  0  0  0  0
   55.7450   29.1530   44.8980 O   0  0  0  0  0  0  0  0  0  0  0  0
   55.9140   29.7670   43.6630 C   0  0  0  0  0  0  0  0  0  0  0  0
   56.7150   31.0490   43.7780 C   0  0  0  0  0  0  0  0  0  0  0  0
   57.0800   31.4060   45.1200 N   0  0  0  0  0  0  0  0  0  0  0  0
   58.4350   30.9690   45.4390 C   0  0  0  0  0  0  0  0  0  0  0  0
   59.1350   31.9730   46.3380 C   0  0  0  0  0  0  0  0  0  0  0  0
   59.4150   33.1800   45.6020 N   0  0  0  0  0  0  0  0  0  0  0  0
   59.6370   34.3510   46.3950 C   0  0  0  0  0  0  0  0  0  0  0  0
   60.8340   34.2190   47.2730 C   0  0  0  0  0  0  0  0  0  0  0  0
   61.1730   34.2420   48.4190 N   0  0  0  0  0  0  0  0  0  0  0  0
   62.3650   34.0580   48.9340 C   0  0  0  0  0  0  0  0  0  0  0  0
   62.6430   34.1290   50.4130 C   0  0  0  0  0  0  0  0  0  0  0  0
   63.3470   33.8070   48.0280 C   0  0  0  0  0  0  0  0  0  0  0  0
   62.5190   33.8420   46.4080 S   0  0  0  0  0  0  0  0  0  0  0  0
   58.3170   33.4240   44.6750 C   0  0  0  0  0  0  0  0  0  0  0  0
   57.0690   32.8430   45.2760 C   0  0  0  0  0  0  0  0  0  0  0  0
   58.7326   27.7906   44.7010 H   0  0  0  0  0  0  0  0  0  0  0  0
   57.4902   27.1486   43.5735 H   0  0  0  0  0  0  0  0  0  0  0  0
   57.8831   28.9014   43.5735 H   0  0  0  0  0  0  0  0  0  0  0  0
   56.2299   27.2787   45.4301 H   0  0  0  0  0  0  0  0  0  0  0  0
   57.2472   28.6723   46.0936 H   0  0  0  0  0  0  0  0  0  0  0  0
   56.4430   29.0755   42.9907 H   0  0  0  0  0  0  0  0  0  0  0  0
   54.9192   30.0191   43.2669 H   0  0  0  0  0  0  0  0  0  0  0  0
   57.6378   30.9311   43.1910 H   0  0  0  0  0  0  0  0  0  0  0  0
   56.0675   31.8563   43.4052 H   0  0  0  0  0  0  0  0  0  0  0  0
   58.3877   29.9978   45.9533 H   0  0  0  0  0  0  0  0  0  0  0  0
   59.0043   30.8824   44.5018 H   0  0  0  0  0  0  0  0  0  0  0  0
   58.4862   32.2102   47.1941 H   0  0  0  0  0  0  0  0  0  0  0  0
   60.0807   31.5401   46.6962 H   0  0  0  0  0  0  0  0  0  0  0  0
   59.7830   35.2104   45.7241 H   0  0  0  0  0  0  0  0  0  0  0  0
   58.7584   34.4919   47.0416 H   0  0  0  0  0  0  0  0  0  0  0  0
   61.7242   33.8943   50.9705 H   0  0  0  0  0  0  0  0  0  0  0  0
   63.4261   33.4020   50.6742 H   0  0  0  0  0  0  0  0  0  0  0  0
   62.9816   35.1425   50.6742 H   0  0  0  0  0  0  0  0  0  0  0  0
   64.4123   33.6225   48.2305 H   0  0  0  0  0  0  0  0  0  0  0  0
   58.1899   34.5059   44.5224 H   0  0  0  0  0  0  0  0  0  0  0  0
   58.5266   32.9579   43.7009 H   0  0  0  0  0  0  0  0  0  0  0  0
   57.0262   33.0949   46.3459 H   0  0  0  0  0  0  0  0  0  0  0  0
   56.1887   33.2595   44.7645 H   0  0  0  0  0  0  0  0  0  0  0  0
  1  2  1  0
  2  3  1  0
  3  4  1  0
  4  5  1  0
  5  6  1  0
  6  7  1  0
  7  8  1  0
  8  9  1  0
  9 10  1  0
 10 11  1  0
 11 12  2  0
 12 13  1  0
 13 14  1  0
 13 15  2  0
 15 16  1  0
  9 17  1  0
 17 18  1  0
 18  6  1  0
 16 11  1  0
  1 19  1  0
  1 20  1  0
  1 21  1  0
  2 22  1  0
  2 23  1  0
  4 24  1  0
  4 25  1  0
  5 26  1  0
  5 27  1  0
  7 28  1  0
  7 29  1  0
  8 30  1  0
  8 31  1  0
 10 32  1  0
 10 33  1  0
 14 34  1  0
 14 35  1  0
 14 36  1  0
 15 37  1  0
 17 38  1  0
 17 39  1  0
 18 40  1  0
 18 41  1  0
M  END
>  <smiles>  (15) 
CCOCCN1CCN(Cc2nc(C)cs2)CC1

>  <score_type>  (15) 
oracle

>  <origin>  (15) 
adg

>  <m_score__min__energy>  (15) 
-6.5800000000000001

>  <m_primary>  (15) 
energy

$$$$
18:0
     RDKit          3D

 53 55  0  0  0  0  0  0  0  0999 V2000
   63.3700   34.1500   48.1260 C   0  0  0  0  0  0  0  0  0  0  0  0
   63.2040   33.4890   46.7940 C   0  0  0  0  0  0  0  0  0  0  0  0
   63.5310   32.0820   46.9290 N   0  0  0  0  0  0  0  0  0  0  0  0
   62.9300   31.5980   48.1500 C   0  0  0  0  0  0  0  0  0  0  0  0
   61.4350   31.4550   48.0330 C   0  0  0  0  0  0  0  0  0  0  0  0
   60.9360   30.0540   48.2000 C   0  0  0  0  0  0  0  0  0  0  0  0
   59.4590   30.1770   48.6840 C   0  0  0  0  0  0  0  0  0  0  0  0
   58.5560   29.9430   47.6990 N   0  0  0  0  0  0  0  0  0  0  0  0
   58.3750   29.8100   46.5090 C   0  0  0  0  0  0  0  0  0  0  0  0
   58.2170   30.9890   45.7410 C   0  0  0  0  0  0  0  0  0  0  0  0
   58.2800   32.1950   46.3610 C   0  0  0  0  0  0  0  0  0  0  0  0
   58.1350   33.3970   45.6640 C   0  0  0  0  0  0  0  0  0  0  0  0
   58.2120   34.5750   46.3580 O   0  0  0  0  0  0  0  0  0  0  0  0
   59.2650   34.9730   47.1960 C   0  0  0  0  0  0  0  0  0  0  0  0
   57.9200   33.3370   44.2980 C   0  0  0  0  0  0  0  0  0  0  0  0
   57.8510   32.1080   43.6370 C   0  0  0  0  0  0  0  0  0  0  0  0
   58.0030   30.9450   44.3860 C   0  0  0  0  0  0  0  0  0  0  0  0
   57.9330   29.7940   43.7290 N   0  0  0  0  0  0  0  0  0  0  0  0
   58.0730   28.6490   44.3960 C   0  0  0  0  0  0  0  0  0  0  0  0
   57.9870   27.4750   43.6400 C   0  0  0  0  0  0  0  0  0  0  0  0
   58.1320   26.2990   44.3390 C   0  0  0  0  0  0  0  0  0  0  0  0
   58.3470   26.2550   45.6830 C   0  0  0  0  0  0  0  0  0  0  0  0
   58.4800   25.0380   46.3060 O   0  0  0  0  0  0  0  0  0  0  0  0
   58.3860   23.8160   45.6280 C   0  0  0  0  0  0  0  0  0  0  0  0
   58.4230   27.4380   46.3750 C   0  0  0  0  0  0  0  0  0  0  0  0
   58.2890   28.6470   45.7500 C   0  0  0  0  0  0  0  0  0  0  0  0
   63.1858   33.4165   48.9248 H   0  0  0  0  0  0  0  0  0  0  0  0
   64.3942   34.5410   48.2162 H   0  0  0  0  0  0  0  0  0  0  0  0
   62.6520   34.9785   48.2162 H   0  0  0  0  0  0  0  0  0  0  0  0
   62.1631   33.5962   46.4547 H   0  0  0  0  0  0  0  0  0  0  0  0
   63.8706   33.9596   46.0564 H   0  0  0  0  0  0  0  0  0  0  0  0
   64.5250   31.8570   46.8180 H   0  0  0  0  0  0  0  0  0  0  0  0
   63.3616   30.6155   48.3916 H   0  0  0  0  0  0  0  0  0  0  0  0
   63.1371   32.3331   48.9417 H   0  0  0  0  0  0  0  0  0  0  0  0
   60.9673   32.0819   48.8064 H   0  0  0  0  0  0  0  0  0  0  0  0
   61.1675   31.7654   47.0121 H   0  0  0  0  0  0  0  0  0  0  0  0
   60.9803   29.5160   47.2416 H   0  0  0  0  0  0  0  0  0  0  0  0
   61.5495   29.4915   48.9192 H   0  0  0  0  0  0  0  0  0  0  0  0
   59.2932   29.4487   49.4915 H   0  0  0  0  0  0  0  0  0  0  0  0
   59.3107   31.2117   49.0266 H   0  0  0  0  0  0  0  0  0  0  0  0
   58.4507   32.2268   47.4472 H   0  0  0  0  0  0  0  0  0  0  0  0
   58.9608   34.8580   48.2468 H   0  0  0  0  0  0  0  0  0  0  0  0
   60.1473   34.3463   46.9990 H   0  0  0  0  0  0  0  0  0  0  0  0
   59.5122   36.0266   46.9990 H   0  0  0  0  0  0  0  0  0  0  0  0
   57.8019   34.2688   43.7255 H   0  0  0  0  0  0  0  0  0  0  0  0
   57.6807   32.0608   42.5513 H   0  0  0  0  0  0  0  0  0  0  0  0
   57.7710   29.7820   42.6980 H   0  0  0  0  0  0  0  0  0  0  0  0
   57.8141   27.4912   42.5538 H   0  0  0  0  0  0  0  0  0  0  0  0
   58.0714   25.3498   43.7864 H   0  0  0  0  0  0  0  0  0  0  0  0
   58.3229   22.9956   46.3580 H   0  0  0  0  0  0  0  0  0  0  0  0
   57.4851   23.8153   44.9968 H   0  0  0  0  0  0  0  0  0  0  0  0
   59.2761   23.6775   44.9968 H   0  0  0  0  0  0  0  0  0  0  0  0
   58.5963   27.4129   47.4610 H   0  0  0  0  0  0  0  0  0  0  0  0
  1  2  1  0
  2  3  1  0
  3  4  1  0
  4  5  1  0
  5  6  1  0
  6  7  1  0
  7  8  1  0
  8  9  2  3
  9 10  1  0
 10 11  2  0
 11 12  1  0
 12 13  1  0
 13 14  1  0
 12 15  2  0
 15 16  1  0
 16 17  2  0
 17 18  1  0
 18 19  1  0
 19 20  2  0
 20 21  1  0
 21 22  2  0
 22 23  1  0
 23 24  1  0
 22 25  1  0
 25 26  2  0
 26  9  1  0
 17 10  1  0
 26 19  1  0
  1 27  1  0
  1 28  1  0
  1 29  1  0
  2 30  1  0
  2 31  1  0
  3 32  1  0
  4 33  1  0
  4 34  1  0
  5 35  1  0
  5 36  1  0
  6 37  1  0
  6 38  1  0
  7 39  1  0
  7 40  1  0
 11 41  1  0
 14 42  1  0
 14 43  1  0
 14 44  1  0
 15 45  1  0
 16 46  1  0
 18 47  1  0
 20 48  1  0
 21 49  1  0
 24 50  1  0
 24 51  1  0
 24 52  1  0
 25 53  1  0
M  END
>  <smiles>  (16) 
CCNCCCCN=c1c2cc(OC)ccc2[nH]c2ccc(OC)cc12

>  <score_type>  (16) 
oracle

>  <origin>  (16) 
adg

>  <m_score__min__energy>  (16) 
-6.9100000000000001

>  <m_primary>  (16) 
energy

$$$$
