0:0
     RDKit          3D

 72 74  0  0  0  0  0  0  0  0999 V2000
   62.6280   34.2930   48.9570 C   0  0  0  0  0  0  0  0  0  0  0  0
   63.3800   33.6780   47.7730 C   0  0  0  0  0  0  0  0  0  0  0  0
   64.0440   32.4060   48.1180 N   0  0  0  0  0  0  0  0  0  0  0  0
   64.5240   32.3340   49.5130 C   0  0  0  0  0  0  0  0  0  0  0  0
   63.5810   31.5310   50.4250 C   0  0  0  0  0  0  0  0  0  0  0  0
   62.5200   30.9910   49.6600 O   0  0  0  0  0  0  0  0  0  0  0  0
   61.2740   31.2900   50.2560 C   0  0  0  0  0  0  0  0  0  0  0  0
   60.2970   31.7630   49.1820 C   0  0  0  0  0  0  0  0  0  0  0  0
   60.7100   31.3010   47.8570 N   0  0  0  0  0  0  0  0  0  0  0  0
   59.8050   31.3770   46.7470 C   0  0  0  0  0  0  0  0  0  0  0  0
   59.5440   32.6120   46.1340 C   0  0  0  0  0  0  0  0  0  0  0  0
   60.1710   33.7910   46.5890 C   0  0  0  0  0  0  0  0  0  0  0  0
   59.8670   35.0240   46.0180 C   0  0  0  0  0  0  0  0  0  0  0  0
   58.9290   35.1040   44.9950 C   0  0  0  0  0  0  0  0  0  0  0  0
   58.3130   33.9490   44.5130 C   0  0  0  0  0  0  0  0  0  0  0  0
   58.6340   32.6720   45.0450 C   0  0  0  0  0  0  0  0  0  0  0  0
   58.0780   31.5110   44.5400 N   0  0  0  0  0  0  0  0  0  0  0  0
   57.3700   31.5360   43.2390 C   0  0  0  0  0  0  0  0  0  0  0  0
   58.2170   30.3190   45.2300 C   0  0  0  0  0  0  0  0  0  0  0  0
   57.4580   29.1710   44.8950 C   0  0  0  0  0  0  0  0  0  0  0  0
   57.6580   27.9420   45.5480 C   0  0  0  0  0  0  0  0  0  0  0  0
   56.9350   26.7820   45.2170 O   0  0  0  0  0  0  0  0  0  0  0  0
   57.4330   25.6520   44.4990 C   0  0  0  0  0  0  0  0  0  0  0  0
   57.2280   24.3330   45.2770 C   0  0  0  0  0  0  0  0  0  0  0  0
   56.0200   24.2880   46.1510 N   0  0  0  0  0  0  0  0  0  0  0  0
   54.7560   24.3700   45.3740 C   0  0  0  0  0  0  0  0  0  0  0  0
   56.0250   23.0110   46.8930 C   0  0  0  0  0  0  0  0  0  0  0  0
   56.0810   25.2790   47.0940 O   0  0  0  0  0  0  0  0  0  0  0  0
   58.6010   27.8510   46.5750 C   0  0  0  0  0  0  0  0  0  0  0  0
   58.7840   26.6060   47.2000 O   0  0  0  0  0  0  0  0  0  0  0  0
   59.7240   26.3510   48.2390 C   0  0  0  0  0  0  0  0  0  0  0  0
   59.3240   28.9900   46.9570 C   0  0  0  0  0  0  0  0  0  0  0  0
   59.1240   30.2270   46.3140 C   0  0  0  0  0  0  0  0  0  0  0  0
   63.0686   33.9327   49.8983 H   0  0  0  0  0  0  0  0  0  0  0  0
   62.7062   35.3893   48.9116 H   0  0  0  0  0  0  0  0  0  0  0  0
   61.5691   33.9988   48.9116 H   0  0  0  0  0  0  0  0  0  0  0  0
   62.6633   33.4914   46.9596 H   0  0  0  0  0  0  0  0  0  0  0  0
   64.1625   34.3897   47.4709 H   0  0  0  0  0  0  0  0  0  0  0  0
   64.8510   32.2610   47.4680 H   0  0  0  0  0  0  0  0  0  0  0  0
   63.3770   31.6170   47.9530 H   0  0  0  0  0  0  0  0  0  0  0  0
   65.5137   31.8539   49.5202 H   0  0  0  0  0  0  0  0  0  0  0  0
   64.5674   33.3617   49.9027 H   0  0  0  0  0  0  0  0  0  0  0  0
   64.1418   30.7128   50.9005 H   0  0  0  0  0  0  0  0  0  0  0  0
   63.1695   32.1963   51.1983 H   0  0  0  0  0  0  0  0  0  0  0  0
   60.8748   30.3883   50.7435 H   0  0  0  0  0  0  0  0  0  0  0  0
   61.4071   32.0836   51.0060 H   0  0  0  0  0  0  0  0  0  0  0  0
   59.2962   31.3651   49.4058 H   0  0  0  0  0  0  0  0  0  0  0  0
   60.2832   32.8629   49.1809 H   0  0  0  0  0  0  0  0  0  0  0  0
   61.6220   30.8060   47.7200 H   0  0  0  0  0  0  0  0  0  0  0  0
   60.9080   33.7356   47.4037 H   0  0  0  0  0  0  0  0  0  0  0  0
   60.3690   35.9348   46.3763 H   0  0  0  0  0  0  0  0  0  0  0  0
   58.6714   36.0826   44.5637 H   0  0  0  0  0  0  0  0  0  0  0  0
   57.5671   34.0286   43.7084 H   0  0  0  0  0  0  0  0  0  0  0  0
   56.2845   31.5743   43.4130 H   0  0  0  0  0  0  0  0  0  0  0  0
   57.6816   32.4237   42.6690 H   0  0  0  0  0  0  0  0  0  0  0  0
   57.6182   30.6285   42.6690 H   0  0  0  0  0  0  0  0  0  0  0  0
   56.6948   29.2426   44.1061 H   0  0  0  0  0  0  0  0  0  0  0  0
   56.9046   25.5821   43.5368 H   0  0  0  0  0  0  0  0  0  0  0  0
   58.5138   25.7938   44.3513 H   0  0  0  0  0  0  0  0  0  0  0  0
   57.1481   23.5159   44.5449 H   0  0  0  0  0  0  0  0  0  0  0  0
   58.0932   24.2399   45.9499 H   0  0  0  0  0  0  0  0  0  0  0  0
   53.9030   24.4253   46.0663 H   0  0  0  0  0  0  0  0  0  0  0  0
   54.7728   25.2689   44.7403 H   0  0  0  0  0  0  0  0  0  0  0  0
   54.6565   23.4764   44.7403 H   0  0  0  0  0  0  0  0  0  0  0  0
   56.0242   23.2150   47.9739 H   0  0  0  0  0  0  0  0  0  0  0  0
   55.1291   22.4299   46.6289 H   0  0  0  0  0  0  0  0  0  0  0  0
   56.9254   22.4370   46.6289 H   0  0  0  0  0  0  0  0  0  0  0  0
   56.7850   25.9300   46.8330 H   0  0  0  0  0  0  0  0  0  0  0  0
   59.2358   26.4834   49.2158 H   0  0  0  0  0  0  0  0  0  0  0  0
   60.0960   25.3195   48.1519 H   0  0  0  0  0  0  0  0  0  0  0  0
   60.5663   27.0531   48.1519 H   0  0  0  0  0  0  0  0  0  0  0  0
   60.0592   28.9163   47.7719 H   0  0  0  0  0  0  0  0  0  0  0  0
  1  2  1  0
  2  3  1  0
  3  4  1  0
  4  5  1  0
  5  6  1  0
  6  7  1  0
  7  8  1  0
  8  9  1  0
  9 10  1  0
 10 11  2  0
 11 12  1  0
 12 13  2  0
 13 14  1  0
 14 15  2  0
 15 16  1  0
 16 17  2  0
 17 18  1  0
 17 19  1  0
 19 20  2  0
 20 21  1  0
 21 22  1  0
 22 23  1  0
 23 24  1  0
 24 25  1  0
 25 26  1  0
 25 27  1  0
 25 28  1  0
 21 29  2  0
 29 30  1  0
 30 31  1  0
 29 32  1  0
 32 33  2  0
 33 10  1  0
 16 11  1  0
 33 19  1  0
  1 34  1  0
  1 35  1  0
  1 36  1  0
  2 37  1  0
  2 38  1  0
  3 39  1  0
  3 40  1  0
  4 41  1  0
  4 42  1  0
  5 43  1  0
  5 44  1  0
  7 45  1  0
  7 46  1  0
  8 47  1  0
  8 48  1  0
  9 49  1  0
 12 50  1  0
 13 51  1  0
 14 52  1  0
 15 53  1  0
 18 54  1  0
 18 55  1  0
 18 56  1  0
 20 57  1  0
 23 58  1  0
 23 59  1  0
 24 60  1  0
 24 61  1  0
 26 62  1  0
 26 63  1  0
 26 64  1  0
 27 65  1  0
 27 66  1  0
 27 67  1  0
 28 68  1  0
 31 69  1  0
 31 70  1  0
 31 71  1  0
 32 72  1  0
M  CHG  3   3   1  17   1  25   1
M  END
>  <UniqueID>  (1) 
1

>  <SMILES>  (1) 
CC[NH2+]CCOCCNc1c2ccccc2[n+](C)c2cc(OCC[N+](C)(C)O)c(OC)cc12

>  <Energy>  (1) 
104.02296718143468

>  <Genealogy>  (1) 
CC[NH2+]CCOCCNc1c2ccccc2[n+](C)c2cc(OCC[N+](C)(C)O)c(OC)cc12 (protonated)
CC[NH2+]CCOCCNc1c2ccccc2[n+](C)c2cc(OCC[N+](C)(C)O)c(OC)cc12 (3D coordinates assigned)
CC[NH2+]CCOCCNc1c2ccccc2[n+](C)c2cc(OCC[N+](C)(C)O)c(OC)cc12 (optimized conformer: 104.02296718143468 kcal/mol)

>  <smiles>  (1) 
CCNCCOCCNc1c2ccccc2[n+](C)c2cc(OCC[N+](C)(C)[O-])c(OC)cc12

>  <score_type>  (1) 
oracle

>  <origin>  (1) 
adg

>  <m_score__min__energy>  (1) 
-2.1299999999999999

>  <m_primary>  (1) 
energy

$$$$
1:0
     RDKit          3D

 72 74  0  0  0  0  0  0  0  0999 V2000
   63.6490   30.3890   51.4820 C   0  0  0  0  0  0  0  0  0  0  0  0
   62.3590   31.0390   52.0000 C   0  0  0  0  0  0  0  0  0  0  0  0
   61.1300   30.5010   51.3580 N   0  0  0  0  0  0  0  0  0  0  0  0
   61.4080   29.6180   50.1890 C   0  0  0  0  0  0  0  0  0  0  0  0
   60.8030   28.2020   50.2620 C   0  0  0  0  0  0  0  0  0  0  0  0
   60.1440   29.9210   52.3130 C   0  0  0  0  0  0  0  0  0  0  0  0
   58.6880   30.3800   52.1120 C   0  0  0  0  0  0  0  0  0  0  0  0
   58.6540   31.7970   51.7280 N   0  0  0  0  0  0  0  0  0  0  0  0
   58.0950   31.9590   50.3800 C   0  0  0  0  0  0  0  0  0  0  0  0
   59.0810   32.7200   49.4830 C   0  0  0  0  0  0  0  0  0  0  0  0
   60.3430   32.8310   50.1200 O   0  0  0  0  0  0  0  0  0  0  0  0
   61.0200   34.0280   49.7810 C   0  0  0  0  0  0  0  0  0  0  0  0
   62.4590   33.7460   49.3540 C   0  0  0  0  0  0  0  0  0  0  0  0
   62.6650   32.3490   49.3080 O   0  0  0  0  0  0  0  0  0  0  0  0
   63.4040   32.0170   48.1510 C   0  0  0  0  0  0  0  0  0  0  0  0
   62.4820   31.3370   47.1400 C   0  0  0  0  0  0  0  0  0  0  0  0
   61.0840   31.4190   47.5610 N   0  0  0  0  0  0  0  0  0  0  0  0
   60.0260   31.2400   46.6080 C   0  0  0  0  0  0  0  0  0  0  0  0
   59.4170   32.3540   46.0060 C   0  0  0  0  0  0  0  0  0  0  0  0
   59.7930   33.6640   46.3670 C   0  0  0  0  0  0  0  0  0  0  0  0
   59.1510   34.7670   45.8100 C   0  0  0  0  0  0  0  0  0  0  0  0
   58.1180   34.5840   44.8980 C   0  0  0  0  0  0  0  0  0  0  0  0
   57.7330   33.2970   44.5210 C   0  0  0  0  0  0  0  0  0  0  0  0
   58.3900   32.1530   45.0450 C   0  0  0  0  0  0  0  0  0  0  0  0
   58.0410   30.8720   44.6600 N   0  0  0  0  0  0  0  0  0  0  0  0
   57.1860   30.6640   43.4690 C   0  0  0  0  0  0  0  0  0  0  0  0
   58.5050   29.7840   45.3760 C   0  0  0  0  0  0  0  0  0  0  0  0
   57.9710   28.4820   45.1910 C   0  0  0  0  0  0  0  0  0  0  0  0
   58.4870   27.3870   45.8840 C   0  0  0  0  0  0  0  0  0  0  0  0
   59.5340   27.5570   46.7820 C   0  0  0  0  0  0  0  0  0  0  0  0
   60.0550   28.8270   47.0150 C   0  0  0  0  0  0  0  0  0  0  0  0
   59.5360   29.9530   46.3380 C   0  0  0  0  0  0  0  0  0  0  0  0
   64.2699   30.0762   52.3345 H   0  0  0  0  0  0  0  0  0  0  0  0
   63.3968   29.5104   50.8701 H   0  0  0  0  0  0  0  0  0  0  0  0
   64.2051   31.1145   50.8701 H   0  0  0  0  0  0  0  0  0  0  0  0
   62.2914   30.8650   53.0840 H   0  0  0  0  0  0  0  0  0  0  0  0
   62.4126   32.1099   51.7545 H   0  0  0  0  0  0  0  0  0  0  0  0
   60.6370   31.3310   50.9470 H   0  0  0  0  0  0  0  0  0  0  0  0
   61.0077   30.1106   49.2906 H   0  0  0  0  0  0  0  0  0  0  0  0
   62.4989   29.4775   50.1721 H   0  0  0  0  0  0  0  0  0  0  0  0
   60.6784   27.9104   51.3153 H   0  0  0  0  0  0  0  0  0  0  0  0
   59.8235   28.1955   49.7614 H   0  0  0  0  0  0  0  0  0  0  0  0
   61.4754   27.4897   49.7614 H   0  0  0  0  0  0  0  0  0  0  0  0
   60.1731   28.8263   52.2091 H   0  0  0  0  0  0  0  0  0  0  0  0
   60.4408   30.2759   53.3110 H   0  0  0  0  0  0  0  0  0  0  0  0
   58.2226   29.7768   51.3186 H   0  0  0  0  0  0  0  0  0  0  0  0
   58.1359   30.2490   53.0543 H   0  0  0  0  0  0  0  0  0  0  0  0
   59.6370   32.1600   51.7100 H   0  0  0  0  0  0  0  0  0  0  0  0
   57.9007   30.9671   49.9460 H   0  0  0  0  0  0  0  0  0  0  0  0
   57.1577   32.5307   50.4474 H   0  0  0  0  0  0  0  0  0  0  0  0
   59.2005   32.1775   48.5336 H   0  0  0  0  0  0  0  0  0  0  0  0
   58.6863   33.7292   49.2940 H   0  0  0  0  0  0  0  0  0  0  0  0
   60.4890   34.5181   48.9516 H   0  0  0  0  0  0  0  0  0  0  0  0
   61.0406   34.6797   50.6669 H   0  0  0  0  0  0  0  0  0  0  0  0
   62.6384   34.1773   48.3581 H   0  0  0  0  0  0  0  0  0  0  0  0
   63.1541   34.1983   50.0766 H   0  0  0  0  0  0  0  0  0  0  0  0
   63.8236   32.9322   47.7079 H   0  0  0  0  0  0  0  0  0  0  0  0
   64.2227   31.3336   48.4205 H   0  0  0  0  0  0  0  0  0  0  0  0
   62.5925   31.8321   46.1639 H   0  0  0  0  0  0  0  0  0  0  0  0
   62.7633   30.2759   47.0706 H   0  0  0  0  0  0  0  0  0  0  0  0
   60.8330   31.4030   48.5750 H   0  0  0  0  0  0  0  0  0  0  0  0
   60.6021   33.8164   47.0964 H   0  0  0  0  0  0  0  0  0  0  0  0
   59.4615   35.7839   46.0919 H   0  0  0  0  0  0  0  0  0  0  0  0
   57.6022   35.4571   44.4719 H   0  0  0  0  0  0  0  0  0  0  0  0
   56.9071   33.1668   43.8062 H   0  0  0  0  0  0  0  0  0  0  0  0
   56.1638   30.4153   43.7904 H   0  0  0  0  0  0  0  0  0  0  0  0
   57.1672   31.5838   42.8660 H   0  0  0  0  0  0  0  0  0  0  0  0
   57.5918   29.8384   42.8660 H   0  0  0  0  0  0  0  0  0  0  0  0
   57.1366   28.3341   44.4897 H   0  0  0  0  0  0  0  0  0  0  0  0
   58.0637   26.3852   45.7192 H   0  0  0  0  0  0  0  0  0  0  0  0
   59.9517   26.6868   47.3095 H   0  0  0  0  0  0  0  0  0  0  0  0
   60.8785   28.9547   47.7330 H   0  0  0  0  0  0  0  0  0  0  0  0
  1  2  1  0
  2  3  1  0
  3  4  1  0
  4  5  1  0
  3  6  1  0
  6  7  1  0
  7  8  1  0
  8  9  1  0
  9 10  1  0
 10 11  1  0
 11 12  1  0
 12 13  1  0
 13 14  1  0
 14 15  1  0
 15 16  1  0
 16 17  1  0
 17 18  1  0
 18 19  2  0
 19 20  1  0
 20 21  2  0
 21 22  1  0
 22 23  2  0
 23 24  1  0
 24 25  2  0
 25 26  1  0
 25 27  1  0
 27 28  2  0
 28 29  1  0
 29 30  2  0
 30 31  1  0
 31 32  2  0
 32 18  1  0
 24 19  1  0
 32 27  1  0
  1 33  1  0
  1 34  1  0
  1 35  1  0
  2 36  1  0
  2 37  1  0
  3 38  1  0
  4 39  1  0
  4 40  1  0
  5 41  1  0
  5 42  1  0
  5 43  1  0
  6 44  1  0
  6 45  1  0
  7 46  1  0
  7 47  1  0
  8 48  1  0
  9 49  1  0
  9 50  1  0
 10 51  1  0
 10 52  1  0
 12 53  1  0
 12 54  1  0
 13 55  1  0
 13 56  1  0
 15 57  1  0
 15 58  1  0
 16 59  1  0
 16 60  1  0
 17 61  1  0
 20 62  1  0
 21 63  1  0
 22 64  1  0
 23 65  1  0
 26 66  1  0
 26 67  1  0
 26 68  1  0
 28 69  1  0
 29 70  1  0
 30 71  1  0
 31 72  1  0
M  CHG  2   3   1  25   1
M  END
>  <UniqueID>  (2) 
2

>  <SMILES>  (2) 
CC[NH+](CC)CCNCCOCCOCCNc1c2ccccc2[n+](C)c2ccccc12

>  <Energy>  (2) 
99.99544180318624

>  <Genealogy>  (2) 
CC[NH+](CC)CCNCCOCCOCCNc1c2ccccc2[n+](C)c2ccccc12 (protonated)
CC[NH+](CC)CCNCCOCCOCCNc1c2ccccc2[n+](C)c2ccccc12 (3D coordinates assigned)
CC[NH+](CC)CCNCCOCCOCCNc1c2ccccc2[n+](C)c2ccccc12 (optimized conformer: 99.99544180318624 kcal/mol)

>  <smiles>  (2) 
CCN(CC)CCNCCOCCOCCNc1c2ccccc2[n+](C)c2ccccc12

>  <score_type>  (2) 
oracle

>  <origin>  (2) 
adg

>  <m_score__min__energy>  (2) 
-3.3199999999999998

>  <m_primary>  (2) 
energy

$$$$
2:0
     RDKit          3D

 51 53  0  0  0  0  0  0  0  0999 V2000
   62.6770   33.8290   46.4090 C   0  0  0  0  0  0  0  0  0  0  0  0
   63.6570   33.5690   47.5570 C   0  0  0  0  0  0  0  0  0  0  0  0
   63.6220   32.1750   48.0370 N   0  0  0  0  0  0  0  0  0  0  0  0
   63.2820   32.0200   49.4650 C   0  0  0  0  0  0  0  0  0  0  0  0
   62.3490   30.8330   49.7330 C   0  0  0  0  0  0  0  0  0  0  0  0
   61.6540   30.5150   48.5440 O   0  0  0  0  0  0  0  0  0  0  0  0
   60.7720   29.4300   48.7590 C   0  0  0  0  0  0  0  0  0  0  0  0
   59.9750   29.1390   47.4850 C   0  0  0  0  0  0  0  0  0  0  0  0
   58.7770   29.9740   47.4190 N   0  0  0  0  0  0  0  0  0  0  0  0
   58.8180   31.3090   46.8880 C   0  0  0  0  0  0  0  0  0  0  0  0
   59.1260   32.3920   47.7270 C   0  0  0  0  0  0  0  0  0  0  0  0
   59.3120   32.2010   49.1130 C   0  0  0  0  0  0  0  0  0  0  0  0
   59.5830   33.2810   49.9500 C   0  0  0  0  0  0  0  0  0  0  0  0
   59.7990   33.0250   51.6730 Cl  0  0  0  0  0  0  0  0  0  0  0  0
   59.6590   34.5670   49.4240 C   0  0  0  0  0  0  0  0  0  0  0  0
   59.4900   34.7770   48.0560 C   0  0  0  0  0  0  0  0  0  0  0  0
   59.2550   33.6930   47.1720 C   0  0  0  0  0  0  0  0  0  0  0  0
   59.1400   33.8780   45.8060 N   0  0  0  0  0  0  0  0  0  0  0  0
   59.5650   35.1570   45.1950 C   0  0  0  0  0  0  0  0  0  0  0  0
   58.6460   32.8600   45.0110 C   0  0  0  0  0  0  0  0  0  0  0  0
   58.2490   33.0880   43.6690 C   0  0  0  0  0  0  0  0  0  0  0  0
   57.7770   32.0450   42.8690 C   0  0  0  0  0  0  0  0  0  0  0  0
   57.2960   32.3590   41.2110 Cl  0  0  0  0  0  0  0  0  0  0  0  0
   57.6680   30.7600   43.3910 C   0  0  0  0  0  0  0  0  0  0  0  0
   58.0150   30.5130   44.7160 C   0  0  0  0  0  0  0  0  0  0  0  0
   58.5030   31.5490   45.5400 C   0  0  0  0  0  0  0  0  0  0  0  0
   61.6911   34.0906   46.8207 H   0  0  0  0  0  0  0  0  0  0  0  0
   63.0484   34.6597   45.7909 H   0  0  0  0  0  0  0  0  0  0  0  0
   62.5877   32.9235   45.7909 H   0  0  0  0  0  0  0  0  0  0  0  0
   64.6752   33.7942   47.2070 H   0  0  0  0  0  0  0  0  0  0  0  0
   63.3605   34.2147   48.3967 H   0  0  0  0  0  0  0  0  0  0  0  0
   62.9250   31.6440   47.4630 H   0  0  0  0  0  0  0  0  0  0  0  0
   64.5570   31.7360   47.8690 H   0  0  0  0  0  0  0  0  0  0  0  0
   64.2122   31.8699   50.0326 H   0  0  0  0  0  0  0  0  0  0  0  0
   62.7527   32.9320   49.7782 H   0  0  0  0  0  0  0  0  0  0  0  0
   62.9412   29.9646   50.0573 H   0  0  0  0  0  0  0  0  0  0  0  0
   61.6309   31.0965   50.5235 H   0  0  0  0  0  0  0  0  0  0  0  0
   61.3532   28.5382   49.0361 H   0  0  0  0  0  0  0  0  0  0  0  0
   60.0740   29.6887   49.5689 H   0  0  0  0  0  0  0  0  0  0  0  0
   60.6073   29.3460   46.6090 H   0  0  0  0  0  0  0  0  0  0  0  0
   59.6680   28.0828   47.4952 H   0  0  0  0  0  0  0  0  0  0  0  0
   57.8800   29.6150   47.8160 H   0  0  0  0  0  0  0  0  0  0  0  0
   59.2422   31.1883   49.5368 H   0  0  0  0  0  0  0  0  0  0  0  0
   59.8531   35.4209   50.0897 H   0  0  0  0  0  0  0  0  0  0  0  0
   59.5398   35.8004   47.6557 H   0  0  0  0  0  0  0  0  0  0  0  0
   59.8053   35.8803   45.9882 H   0  0  0  0  0  0  0  0  0  0  0  0
   60.4551   34.9875   44.5713 H   0  0  0  0  0  0  0  0  0  0  0  0
   58.7505   35.5540   44.5713 H   0  0  0  0  0  0  0  0  0  0  0  0
   58.3139   34.1034   43.2510 H   0  0  0  0  0  0  0  0  0  0  0  0
   57.3070   29.9379   42.7555 H   0  0  0  0  0  0  0  0  0  0  0  0
   57.9075   29.4978   45.1257 H   0  0  0  0  0  0  0  0  0  0  0  0
  1  2  1  0
  2  3  1  0
  3  4  1  0
  4  5  1  0
  5  6  1  0
  6  7  1  0
  7  8  1  0
  8  9  1  0
  9 10  1  0
 10 11  2  0
 11 12  1  0
 12 13  2  0
 13 14  1  0
 13 15  1  0
 15 16  2  0
 16 17  1  0
 17 18  2  0
 18 19  1  0
 18 20  1  0
 20 21  2  0
 21 22  1  0
 22 23  1  0
 22 24  2  0
 24 25  1  0
 25 26  2  0
 26 10  1  0
 17 11  1  0
 26 20  1  0
  1 27  1  0
  1 28  1  0
  1 29  1  0
  2 30  1  0
  2 31  1  0
  3 32  1  0
  3 33  1  0
  4 34  1  0
  4 35  1  0
  5 36  1  0
  5 37  1  0
  7 38  1  0
  7 39  1  0
  8 40  1  0
  8 41  1  0
  9 42  1  0
 12 43  1  0
 15 44  1  0
 16 45  1  0
 19 46  1  0
 19 47  1  0
 19 48  1  0
 21 49  1  0
 24 50  1  0
 25 51  1  0
M  CHG  2   3   1  18   1
M  END
>  <UniqueID>  (3) 
3

>  <SMILES>  (3) 
CC[NH2+]CCOCCNc1c2cc(Cl)ccc2[n+](C)c2cc(Cl)ccc12

>  <Energy>  (3) 
76.04550431006275

>  <Genealogy>  (3) 
CC[NH2+]CCOCCNc1c2cc(Cl)ccc2[n+](C)c2cc(Cl)ccc12 (protonated)
CC[NH2+]CCOCCNc1c2cc(Cl)ccc2[n+](C)c2cc(Cl)ccc12 (3D coordinates assigned)
CC[NH2+]CCOCCNc1c2cc(Cl)ccc2[n+](C)c2cc(Cl)ccc12 (optimized conformer: 76.04550431006275 kcal/mol)

>  <smiles>  (3) 
CCNCCOCCNc1c2cc(Cl)ccc2[n+](C)c2cc(Cl)ccc12

>  <score_type>  (3) 
oracle

>  <origin>  (3) 
adg

>  <m_score__min__energy>  (3) 
-4.7400000000000002

>  <m_primary>  (3) 
energy

$$$$
3:0
     RDKit          3D

 52 55  0  0  0  0  0  0  0  0999 V2000
   63.1640   33.3930   46.7650 C   0  0  0  0  0  0  0  0  0  0  0  0
   62.9980   33.1480   48.2620 C   0  0  0  0  0  0  0  0  0  0  0  0
   61.8620   32.2510   48.5130 N   0  0  0  0  0  0  0  0  0  0  0  0
   62.2690   30.8370   48.5800 C   0  0  0  0  0  0  0  0  0  0  0  0
   61.0780   29.9020   48.2710 C   0  0  0  0  0  0  0  0  0  0  0  0
   59.7100   30.4860   48.3560 N   0  0  0  0  0  0  0  0  0  0  0  0
   58.9140   30.4390   47.1460 C   0  0  0  0  0  0  0  0  0  0  0  0
   58.4240   29.1930   46.6480 C   0  0  0  0  0  0  0  0  0  0  0  0
   58.5230   28.0070   47.4140 C   0  0  0  0  0  0  0  0  0  0  0  0
   58.0850   26.7850   46.9120 C   0  0  0  0  0  0  0  0  0  0  0  0
   57.5490   26.7060   45.6350 C   0  0  0  0  0  0  0  0  0  0  0  0
   57.4300   27.8520   44.8550 C   0  0  0  0  0  0  0  0  0  0  0  0
   57.8340   29.1210   45.3420 C   0  0  0  0  0  0  0  0  0  0  0  0
   57.7010   30.2590   44.5720 N   0  0  0  0  0  0  0  0  0  0  0  0
   57.0020   30.2280   43.2710 C   0  0  0  0  0  0  0  0  0  0  0  0
   58.2290   31.4340   45.0370 C   0  0  0  0  0  0  0  0  0  0  0  0
   58.3210   32.5810   44.3300 N   0  0  0  0  0  0  0  0  0  0  0  0
   58.8570   33.4790   45.1680 C   0  0  0  0  0  0  0  0  0  0  0  0
   59.1220   34.8090   44.8550 C   0  0  0  0  0  0  0  0  0  0  0  0
   59.6390   35.6350   45.8540 C   0  0  0  0  0  0  0  0  0  0  0  0
   59.8370   35.1380   47.1520 C   0  0  0  0  0  0  0  0  0  0  0  0
   59.5370   33.7890   47.4730 C   0  0  0  0  0  0  0  0  0  0  0  0
   59.5920   33.3440   48.8000 O   0  0  0  0  0  0  0  0  0  0  0  0
   59.7320   34.1910   49.9360 C   0  0  0  0  0  0  0  0  0  0  0  0
   59.1110   32.9400   46.4200 C   0  0  0  0  0  0  0  0  0  0  0  0
   58.7570   31.5750   46.3140 C   0  0  0  0  0  0  0  0  0  0  0  0
   63.7746   34.2941   46.6064 H   0  0  0  0  0  0  0  0  0  0  0  0
   63.6621   32.5269   46.3047 H   0  0  0  0  0  0  0  0  0  0  0  0
   62.1750   33.5345   46.3047 H   0  0  0  0  0  0  0  0  0  0  0  0
   63.9160   32.6892   48.6578 H   0  0  0  0  0  0  0  0  0  0  0  0
   62.8094   34.1098   48.7614 H   0  0  0  0  0  0  0  0  0  0  0  0
   61.4670   32.5140   49.4450 H   0  0  0  0  0  0  0  0  0  0  0  0
   63.0673   30.6574   47.8449 H   0  0  0  0  0  0  0  0  0  0  0  0
   62.6269   30.6235   49.5980 H   0  0  0  0  0  0  0  0  0  0  0  0
   61.2124   29.5233   47.2470 H   0  0  0  0  0  0  0  0  0  0  0  0
   61.1077   29.1370   49.0608 H   0  0  0  0  0  0  0  0  0  0  0  0
   59.1810   30.0870   49.1560 H   0  0  0  0  0  0  0  0  0  0  0  0
   59.7950   31.4850   48.6550 H   0  0  0  0  0  0  0  0  0  0  0  0
   58.9542   28.0519   48.4250 H   0  0  0  0  0  0  0  0  0  0  0  0
   58.1642   25.8786   47.5301 H   0  0  0  0  0  0  0  0  0  0  0  0
   57.2173   25.7352   45.2382 H   0  0  0  0  0  0  0  0  0  0  0  0
   57.0140   27.7720   43.8398 H   0  0  0  0  0  0  0  0  0  0  0  0
   55.9160   30.1798   43.4393 H   0  0  0  0  0  0  0  0  0  0  0  0
   57.2449   31.1378   42.7025 H   0  0  0  0  0  0  0  0  0  0  0  0
   57.3245   29.3433   42.7025 H   0  0  0  0  0  0  0  0  0  0  0  0
   58.0690   32.7610   43.3340 H   0  0  0  0  0  0  0  0  0  0  0  0
   58.9287   35.1995   43.8450 H   0  0  0  0  0  0  0  0  0  0  0  0
   59.8925   36.6802   45.6234 H   0  0  0  0  0  0  0  0  0  0  0  0
   60.2311   35.8053   47.9327 H   0  0  0  0  0  0  0  0  0  0  0  0
   59.6331   33.5928   50.8538 H   0  0  0  0  0  0  0  0  0  0  0  0
   60.7216   34.6708   49.9159 H   0  0  0  0  0  0  0  0  0  0  0  0
   58.9494   34.9637   49.9159 H   0  0  0  0  0  0  0  0  0  0  0  0
  1  2  1  0
  2  3  1  0
  3  4  1  0
  4  5  1  0
  5  6  1  0
  6  7  1  0
  7  8  2  0
  8  9  1  0
  9 10  2  0
 10 11  1  0
 11 12  2  0
 12 13  1  0
 13 14  2  0
 14 15  1  0
 14 16  1  0
 16 17  1  0
 17 18  1  0
 18 19  2  0
 19 20  1  0
 20 21  2  0
 21 22  1  0
 22 23  1  0
 23 24  1  0
 22 25  2  0
 25 26  1  0
 26  7  1  0
 13  8  1  0
 26 16  2  0
 25 18  1  0
  1 27  1  0
  1 28  1  0
  1 29  1  0
  2 30  1  0
  2 31  1  0
  3 32  1  0
  4 33  1  0
  4 34  1  0
  5 35  1  0
  5 36  1  0
  6 37  1  0
  6 38  1  0
  9 39  1  0
 10 40  1  0
 11 41  1  0
 12 42  1  0
 15 43  1  0
 15 44  1  0
 15 45  1  0
 17 46  1  0
 19 47  1  0
 20 48  1  0
 21 49  1  0
 24 50  1  0
 24 51  1  0
 24 52  1  0
M  CHG  2   6   1  14   1
M  END
>  <UniqueID>  (4) 
4

>  <SMILES>  (4) 
CCNCC[NH2+]c1c2ccccc2[n+](C)c2[nH]c3cccc(OC)c3c12

>  <Energy>  (4) 
123.25510587918856

>  <Genealogy>  (4) 
CCNCC[NH2+]c1c2ccccc2[n+](C)c2[nH]c3cccc(OC)c3c12 (protonated)
CCNCC[NH2+]c1c2ccccc2[n+](C)c2[nH]c3cccc(OC)c3c12 (3D coordinates assigned)
CCNCC[NH2+]c1c2ccccc2[n+](C)c2[nH]c3cccc(OC)c3c12 (optimized conformer: 123.25510587918856 kcal/mol)

>  <smiles>  (4) 
CCNCCNc1c2ccccc2[n+](C)c2[nH]c3cccc(OC)c3c12

>  <score_type>  (4) 
oracle

>  <origin>  (4) 
adg

>  <m_score__min__energy>  (4) 
-3.8300000000000001

>  <m_primary>  (4) 
energy

$$$$
4:0
     RDKit          3D

 54 56  0  0  0  0  0  0  0  0999 V2000
   58.6210   29.9570   50.1280 C   0  0  0  0  0  0  0  0  0  0  0  0
   59.7520   30.1330   49.1160 C   0  0  0  0  0  0  0  0  0  0  0  0
   60.0710   31.5520   48.9430 N   0  0  0  0  0  0  0  0  0  0  0  0
   61.2150   32.0530   48.2090 C   0  0  0  0  0  0  0  0  0  0  0  0
   62.2880   31.1980   47.8750 C   0  0  0  0  0  0  0  0  0  0  0  0
   63.3880   31.6710   47.1590 C   0  0  0  0  0  0  0  0  0  0  0  0
   63.4440   33.0040   46.7630 C   0  0  0  0  0  0  0  0  0  0  0  0
   62.4010   33.8730   47.0840 C   0  0  0  0  0  0  0  0  0  0  0  0
   61.2840   33.4200   47.8110 C   0  0  0  0  0  0  0  0  0  0  0  0
   60.1990   34.4210   48.1680 C   0  0  0  0  0  0  0  0  0  0  0  0
   59.6380   35.0930   46.9670 N   0  0  0  0  0  0  0  0  0  0  0  0
   58.5190   34.3790   46.3060 C   0  0  0  0  0  0  0  0  0  0  0  0
   58.8540   33.9730   44.8570 C   0  0  0  0  0  0  0  0  0  0  0  0
   57.7260   33.1050   44.2800 C   0  0  0  0  0  0  0  0  0  0  0  0
   57.4380   31.8800   45.0830 N   0  0  0  0  0  0  0  0  0  0  0  0
   57.7240   30.6520   44.3080 C   0  0  0  0  0  0  0  0  0  0  0  0
   58.3800   29.6000   45.1680 C   0  0  0  0  0  0  0  0  0  0  0  0
   57.5990   28.7040   45.9170 C   0  0  0  0  0  0  0  0  0  0  0  0
   58.2140   27.7210   46.7030 C   0  0  0  0  0  0  0  0  0  0  0  0
   59.6090   27.6240   46.7400 C   0  0  0  0  0  0  0  0  0  0  0  0
   60.3910   28.5060   45.9880 C   0  0  0  0  0  0  0  0  0  0  0  0
   59.7810   29.4900   45.2030 C   0  0  0  0  0  0  0  0  0  0  0  0
   58.1060   31.8460   46.4100 C   0  0  0  0  0  0  0  0  0  0  0  0
   57.9790   33.1870   47.1460 C   0  0  0  0  0  0  0  0  0  0  0  0
   59.0283   30.0204   51.1478 H   0  0  0  0  0  0  0  0  0  0  0  0
   57.8721   30.7494   49.9824 H   0  0  0  0  0  0  0  0  0  0  0  0
   58.1483   28.9745   49.9824 H   0  0  0  0  0  0  0  0  0  0  0  0
   60.6457   29.6026   49.4765 H   0  0  0  0  0  0  0  0  0  0  0  0
   59.4301   29.7207   48.1483 H   0  0  0  0  0  0  0  0  0  0  0  0
   59.4160   32.2190   49.4110 H   0  0  0  0  0  0  0  0  0  0  0  0
   62.2561   30.1428   48.1841 H   0  0  0  0  0  0  0  0  0  0  0  0
   64.2131   30.9886   46.9068 H   0  0  0  0  0  0  0  0  0  0  0  0
   64.3116   33.3728   46.1963 H   0  0  0  0  0  0  0  0  0  0  0  0
   62.4521   34.9246   46.7653 H   0  0  0  0  0  0  0  0  0  0  0  0
   59.3875   33.8927   48.6899 H   0  0  0  0  0  0  0  0  0  0  0  0
   60.6499   35.1939   48.8077 H   0  0  0  0  0  0  0  0  0  0  0  0
   59.2890   36.0400   47.2500 H   0  0  0  0  0  0  0  0  0  0  0  0
   60.3820   35.2650   46.2480 H   0  0  0  0  0  0  0  0  0  0  0  0
   57.6936   35.1036   46.2452 H   0  0  0  0  0  0  0  0  0  0  0  0
   58.9678   34.8781   44.2423 H   0  0  0  0  0  0  0  0  0  0  0  0
   59.7913   33.3973   44.8511 H   0  0  0  0  0  0  0  0  0  0  0  0
   56.8101   33.7125   44.2334 H   0  0  0  0  0  0  0  0  0  0  0  0
   58.0577   32.7668   43.2872 H   0  0  0  0  0  0  0  0  0  0  0  0
   56.7799   30.2516   43.9101 H   0  0  0  0  0  0  0  0  0  0  0  0
   58.4130   30.9106   43.4904 H   0  0  0  0  0  0  0  0  0  0  0  0
   56.5017   28.7745   45.8862 H   0  0  0  0  0  0  0  0  0  0  0  0
   57.5992   27.0245   47.2919 H   0  0  0  0  0  0  0  0  0  0  0  0
   60.0906   26.8540   47.3606 H   0  0  0  0  0  0  0  0  0  0  0  0
   61.4878   28.4259   46.0137 H   0  0  0  0  0  0  0  0  0  0  0  0
   60.3998   30.1803   44.6109 H   0  0  0  0  0  0  0  0  0  0  0  0
   57.6422   31.0584   47.0221 H   0  0  0  0  0  0  0  0  0  0  0  0
   59.1753   31.6436   46.2497 H   0  0  0  0  0  0  0  0  0  0  0  0
   56.9175   33.3666   47.3720 H   0  0  0  0  0  0  0  0  0  0  0  0
   58.5820   33.1237   48.0638 H   0  0  0  0  0  0  0  0  0  0  0  0
  1  2  1  0
  2  3  1  0
  3  4  1  0
  4  5  2  0
  5  6  1  0
  6  7  2  0
  7  8  1  0
  8  9  2  0
  9 10  1  0
 10 11  1  0
 11 12  1  0
 12 13  1  0
 13 14  1  0
 14 15  1  0
 15 16  1  0
 16 17  1  0
 17 18  2  0
 18 19  1  0
 19 20  2  0
 20 21  1  0
 21 22  2  0
 15 23  1  0
 23 24  1  0
  9  4  1  0
 24 12  1  0
 22 17  1  0
  1 25  1  0
  1 26  1  0
  1 27  1  0
  2 28  1  0
  2 29  1  0
  3 30  1  0
  5 31  1  0
  6 32  1  0
  7 33  1  0
  8 34  1  0
 10 35  1  0
 10 36  1  0
 11 37  1  0
 11 38  1  0
 12 39  1  0
 13 40  1  0
 13 41  1  0
 14 42  1  0
 14 43  1  0
 16 44  1  0
 16 45  1  0
 18 46  1  0
 19 47  1  0
 20 48  1  0
 21 49  1  0
 22 50  1  0
 23 51  1  0
 23 52  1  0
 24 53  1  0
 24 54  1  0
M  CHG  1  11   1
M  END
>  <UniqueID>  (5) 
5

>  <SMILES>  (5) 
CCNc1ccccc1C[NH2+]C1CCN(Cc2ccccc2)CC1

>  <Energy>  (5) 
69.53720807782376

>  <Genealogy>  (5) 
CCNc1ccccc1C[NH2+]C1CCN(Cc2ccccc2)CC1 (protonated)
CCNc1ccccc1C[NH2+]C1CCN(Cc2ccccc2)CC1 (3D coordinates assigned)
CCNc1ccccc1C[NH2+]C1CCN(Cc2ccccc2)CC1 (nonaromatic ring conformer: 69.53720807782376 kcal/mol)

>  <smiles>  (5) 
CCNc1ccccc1CNC1CCN(Cc2ccccc2)CC1

>  <score_type>  (5) 
oracle

>  <origin>  (5) 
adg

>  <m_score__min__energy>  (5) 
-6.9100000000000001

>  <m_primary>  (5) 
energy

$$$$
5:0
     RDKit          3D

 41 43  0  0  0  0  0  0  0  0999 V2000
   56.1940   30.7560   44.7020 O   0  0  0  0  0  0  0  0  0  0  0  0
   56.6620   29.7150   45.2060 N   0  0  0  0  0  0  0  0  0  0  0  0
   55.8920   28.5760   45.2460 O   0  0  0  0  0  0  0  0  0  0  0  0
   57.9880   29.6960   45.7370 C   0  0  0  0  0  0  0  0  0  0  0  0
   59.0020   30.5750   45.4050 C   0  0  0  0  0  0  0  0  0  0  0  0
   60.0890   30.1780   46.1550 C   0  0  0  0  0  0  0  0  0  0  0  0
   59.6620   29.0870   46.8900 C   0  0  0  0  0  0  0  0  0  0  0  0
   60.4980   28.2950   47.8490 C   0  0  0  0  0  0  0  0  0  0  0  0
   60.0370   28.5000   49.2400 N   0  0  0  0  0  0  0  0  0  0  0  0
   58.8040   29.3230   49.3140 C   0  0  0  0  0  0  0  0  0  0  0  0
   59.0820   30.8260   49.5200 C   0  0  0  0  0  0  0  0  0  0  0  0
   60.4200   31.1700   49.0080 N   0  0  0  0  0  0  0  0  0  0  0  0
   60.6370   32.6300   48.9960 C   0  0  0  0  0  0  0  0  0  0  0  0
   59.9490   33.2540   47.8050 C   0  0  0  0  0  0  0  0  0  0  0  0
   58.5440   33.2710   47.7450 C   0  0  0  0  0  0  0  0  0  0  0  0
   57.8900   33.8260   46.6420 C   0  0  0  0  0  0  0  0  0  0  0  0
   58.6290   34.3680   45.5880 C   0  0  0  0  0  0  0  0  0  0  0  0
   57.9910   34.9050   44.5200 F   0  0  0  0  0  0  0  0  0  0  0  0
   60.0250   34.3540   45.6350 C   0  0  0  0  0  0  0  0  0  0  0  0
   60.6910   33.8000   46.7350 C   0  0  0  0  0  0  0  0  0  0  0  0
   62.4520   33.8070   46.7380 Cl  0  0  0  0  0  0  0  0  0  0  0  0
   61.4640   30.4950   49.8040 C   0  0  0  0  0  0  0  0  0  0  0  0
   61.0920   29.0310   50.1310 C   0  0  0  0  0  0  0  0  0  0  0  0
   58.4050   28.8200   46.6220 O   0  0  0  0  0  0  0  0  0  0  0  0
   58.9523   31.4128   44.6939 H   0  0  0  0  0  0  0  0  0  0  0  0
   61.0896   30.6349   46.1663 H   0  0  0  0  0  0  0  0  0  0  0  0
   60.4216   27.2269   47.5973 H   0  0  0  0  0  0  0  0  0  0  0  0
   61.5418   28.6329   47.7697 H   0  0  0  0  0  0  0  0  0  0  0  0
   58.2442   29.1974   48.3755 H   0  0  0  0  0  0  0  0  0  0  0  0
   58.2337   28.9755   50.1881 H   0  0  0  0  0  0  0  0  0  0  0  0
   58.3243   31.4131   48.9804 H   0  0  0  0  0  0  0  0  0  0  0  0
   59.0388   31.0553   50.5950 H   0  0  0  0  0  0  0  0  0  0  0  0
   60.2281   33.0650   49.9199 H   0  0  0  0  0  0  0  0  0  0  0  0
   61.7166   32.8301   48.9301 H   0  0  0  0  0  0  0  0  0  0  0  0
   57.9564   32.8448   48.5714 H   0  0  0  0  0  0  0  0  0  0  0  0
   56.7907   33.8361   46.6037 H   0  0  0  0  0  0  0  0  0  0  0  0
   60.6044   34.7807   44.8030 H   0  0  0  0  0  0  0  0  0  0  0  0
   62.4048   30.5028   49.2341 H   0  0  0  0  0  0  0  0  0  0  0  0
   61.5682   31.0380   50.7550 H   0  0  0  0  0  0  0  0  0  0  0  0
   61.9912   28.4065   50.0236 H   0  0  0  0  0  0  0  0  0  0  0  0
   60.7026   29.0077   51.1595 H   0  0  0  0  0  0  0  0  0  0  0  0
  1  2  2  0
  2  3  1  0
  2  4  1  0
  4  5  2  0
  5  6  1  0
  6  7  2  0
  7  8  1  0
  8  9  1  0
  9 10  1  0
 10 11  1  0
 11 12  1  0
 12 13  1  0
 13 14  1  0
 14 15  2  0
 15 16  1  0
 16 17  2  0
 17 18  1  0
 17 19  1  0
 19 20  2  0
 20 21  1  0
 12 22  1  0
 22 23  1  0
  7 24  1  0
 24  4  1  0
 23  9  1  0
 20 14  1  0
  5 25  1  0
  6 26  1  0
  8 27  1  0
  8 28  1  0
 10 29  1  0
 10 30  1  0
 11 31  1  0
 11 32  1  0
 13 33  1  0
 13 34  1  0
 15 35  1  0
 16 36  1  0
 19 37  1  0
 22 38  1  0
 22 39  1  0
 23 40  1  0
 23 41  1  0
M  CHG  2   2   1   3  -1
M  END
>  <UniqueID>  (6) 
6

>  <SMILES>  (6) 
O=[N+]([O-])c1ccc(CN2CCN(Cc3ccc(F)cc3Cl)CC2)o1

>  <Energy>  (6) 
79.3149159599956

>  <Genealogy>  (6) 
O=[N+]([O-])c1ccc(CN2CCN(Cc3ccc(F)cc3Cl)CC2)o1 (3D coordinates assigned)
O=[N+]([O-])c1ccc(CN2CCN(Cc3ccc(F)cc3Cl)CC2)o1 (nonaromatic ring conformer: 79.3149159599956 kcal/mol)

>  <smiles>  (6) 
O=[N+]([O-])c1ccc(CN2CCN(Cc3ccc(F)cc3Cl)CC2)o1

>  <score_type>  (6) 
oracle

>  <origin>  (6) 
adg

>  <m_score__min__energy>  (6) 
-7.9100000000000001

>  <m_primary>  (6) 
energy

$$$$
6:0
     RDKit          3D

 38 38  0  0  0  0  0  0  0  0999 V2000
   63.3840   33.8200   46.3670 C   0  0  0  0  0  0  0  0  0  0  0  0
   63.2310   33.0270   47.6690 C   0  0  0  0  0  0  0  0  0  0  0  0
   62.3080   33.6820   48.6290 N   0  0  2  0  0  0  0  0  0  0  0  0
   62.9880   33.8280   49.9310 C   0  0  0  0  0  0  0  0  0  0  0  0
   61.0310   32.9250   48.7940 C   0  0  0  0  0  0  0  0  0  0  0  0
   59.8050   33.7830   48.4140 C   0  0  0  0  0  0  0  0  0  0  0  0
   60.1270   34.7920   47.3900 N   0  0  0  0  0  0  0  0  0  0  0  0
   59.6370   34.4270   46.0490 C   0  0  0  0  0  0  0  0  0  0  0  0
   58.2230   33.8420   46.1420 C   0  0  0  0  0  0  0  0  0  0  0  0
   58.0190   32.7340   45.1430 C   0  0  0  0  0  0  0  0  0  0  0  0
   58.0170   33.0110   43.7650 C   0  0  0  0  0  0  0  0  0  0  0  0
   57.7720   31.9890   42.8400 C   0  0  0  0  0  0  0  0  0  0  0  0
   57.7660   32.3460   41.1230 Cl  0  0  0  0  0  0  0  0  0  0  0  0
   57.5220   30.6880   43.2860 C   0  0  0  0  0  0  0  0  0  0  0  0
   57.5140   30.4060   44.6550 C   0  0  0  0  0  0  0  0  0  0  0  0
   57.1870   28.7750   45.2130 Cl  0  0  0  0  0  0  0  0  0  0  0  0
   57.7580   31.4260   45.5820 C   0  0  0  0  0  0  0  0  0  0  0  0
   63.5876   34.8751   46.6021 H   0  0  0  0  0  0  0  0  0  0  0  0
   64.2190   33.4070   45.7821 H   0  0  0  0  0  0  0  0  0  0  0  0
   62.4553   33.7473   45.7821 H   0  0  0  0  0  0  0  0  0  0  0  0
   62.8393   32.0275   47.4292 H   0  0  0  0  0  0  0  0  0  0  0  0
   64.2216   32.9703   48.1438 H   0  0  0  0  0  0  0  0  0  0  0  0
   62.1190   34.6550   48.2880 H   0  0  0  0  0  0  0  0  0  0  0  0
   62.2625   33.6722   50.7431 H   0  0  0  0  0  0  0  0  0  0  0  0
   63.7926   33.0821   50.0101 H   0  0  0  0  0  0  0  0  0  0  0  0
   63.4156   34.8384   50.0101 H   0  0  0  0  0  0  0  0  0  0  0  0
   61.0578   32.0356   48.1473 H   0  0  0  0  0  0  0  0  0  0  0  0
   60.9355   32.6404   49.8523 H   0  0  0  0  0  0  0  0  0  0  0  0
   59.0171   33.1218   48.0242 H   0  0  0  0  0  0  0  0  0  0  0  0
   59.4715   34.3140   49.3178 H   0  0  0  0  0  0  0  0  0  0  0  0
   61.1620   34.9470   47.3600 H   0  0  0  0  0  0  0  0  0  0  0  0
   59.6177   35.3241   45.4128 H   0  0  0  0  0  0  0  0  0  0  0  0
   60.3093   33.6724   45.6148 H   0  0  0  0  0  0  0  0  0  0  0  0
   58.0667   33.4433   47.1552 H   0  0  0  0  0  0  0  0  0  0  0  0
   57.5022   34.6432   45.9218 H   0  0  0  0  0  0  0  0  0  0  0  0
   58.2087   34.0350   43.4119 H   0  0  0  0  0  0  0  0  0  0  0  0
   57.3313   29.8851   42.5587 H   0  0  0  0  0  0  0  0  0  0  0  0
   57.7452   31.2020   46.6589 H   0  0  0  0  0  0  0  0  0  0  0  0
  1  2  1  0
  2  3  1  0
  3  4  1  0
  3  5  1  0
  5  6  1  0
  6  7  1  0
  7  8  1  0
  8  9  1  0
  9 10  1  0
 10 11  2  0
 11 12  1  0
 12 13  1  0
 12 14  2  0
 14 15  1  0
 15 16  1  0
 15 17  2  0
 17 10  1  0
  1 18  1  0
  1 19  1  0
  1 20  1  0
  2 21  1  0
  2 22  1  0
  3 23  1  6
  4 24  1  0
  4 25  1  0
  4 26  1  0
  5 27  1  0
  5 28  1  0
  6 29  1  0
  6 30  1  0
  7 31  1  0
  8 32  1  0
  8 33  1  0
  9 34  1  0
  9 35  1  0
 11 36  1  0
 14 37  1  0
 17 38  1  0
M  CHG  1   3   1
M  END
>  <UniqueID>  (7) 
7

>  <SMILES>  (7) 
CC[N@H+](C)CCNCCc1cc(Cl)cc(Cl)c1

>  <Energy>  (7) 
35.427561808162665

>  <Genealogy>  (7) 
CC[NH+](C)CCNCCc1cc(Cl)cc(Cl)c1 (protonated)
CC[N@H+](C)CCNCCc1cc(Cl)cc(Cl)c1 (chirality)
CC[N@H+](C)CCNCCc1cc(Cl)cc(Cl)c1 (3D coordinates assigned)
CC[N@H+](C)CCNCCc1cc(Cl)cc(Cl)c1 (optimized conformer: 35.427561808162665 kcal/mol)

>  <smiles>  (7) 
CCN(C)CCNCCc1cc(Cl)cc(Cl)c1

>  <score_type>  (7) 
oracle

>  <origin>  (7) 
adg

>  <m_score__min__energy>  (7) 
-4.8799999999999999

>  <m_primary>  (7) 
energy

$$$$
7:0
     RDKit          3D

 44 46  0  0  0  0  0  0  0  0999 V2000
   59.5381   33.6435   47.6556 H   0  0  0  0  0  0  0  0  0  0  0  0
   60.3930   32.9560   47.5750 C   0  0  0  0  0  0  0  0  0  0  0  0
   61.6960   33.4570   47.6370 C   0  0  0  0  0  0  0  0  0  0  0  0
   61.8608   34.5389   47.7483 H   0  0  0  0  0  0  0  0  0  0  0  0
   62.7980   32.5870   47.5580 C   0  0  0  0  0  0  0  0  0  0  0  0
   64.1460   33.1010   47.6380 N   0  0  0  0  0  0  0  0  0  0  0  0
   64.8030   32.3830   47.2550 H   0  0  0  0  0  0  0  0  0  0  0  0
   64.2510   33.9580   47.0460 H   0  0  0  0  0  0  0  0  0  0  0  0
   64.5340   33.3970   49.0270 C   0  0  0  0  0  0  0  0  0  0  0  0
   63.6797   33.8610   49.5417 H   0  0  0  0  0  0  0  0  0  0  0  0
   65.4009   34.0735   48.9974 H   0  0  0  0  0  0  0  0  0  0  0  0
   64.9480   32.1380   49.7960 C   0  0  0  0  0  0  0  0  0  0  0  0
   64.8845   32.3312   50.8770 H   0  0  0  0  0  0  0  0  0  0  0  0
   64.2752   31.3089   49.5315 H   0  0  0  0  0  0  0  0  0  0  0  0
   65.9816   31.8701   49.5315 H   0  0  0  0  0  0  0  0  0  0  0  0
   62.5700   31.2070   47.4320 C   0  0  0  0  0  0  0  0  0  0  0  0
   63.4234   30.5148   47.3810 H   0  0  0  0  0  0  0  0  0  0  0  0
   61.2660   30.7070   47.3710 C   0  0  0  0  0  0  0  0  0  0  0  0
   61.0975   29.6229   47.2914 H   0  0  0  0  0  0  0  0  0  0  0  0
   60.1700   31.5850   47.4110 C   0  0  0  0  0  0  0  0  0  0  0  0
   58.8220   31.0900   47.4100 N   0  0  0  0  0  0  0  0  0  0  0  0
   58.2230   30.3990   46.4760 C   0  0  0  0  0  0  0  0  0  0  0  0
   57.8700   29.0470   46.6590 C   0  0  0  0  0  0  0  0  0  0  0  0
   58.0819   28.5478   47.6160 H   0  0  0  0  0  0  0  0  0  0  0  0
   57.2510   28.3410   45.6250 C   0  0  0  0  0  0  0  0  0  0  0  0
   56.8820   26.9030   45.8050 C   0  0  0  0  0  0  0  0  0  0  0  0
   56.8226   26.6713   46.8787 H   0  0  0  0  0  0  0  0  0  0  0  0
   55.9061   26.7132   45.3344 H   0  0  0  0  0  0  0  0  0  0  0  0
   57.6460   26.2667   45.3344 H   0  0  0  0  0  0  0  0  0  0  0  0
   57.0190   28.9510   44.4350 N   0  0  0  0  0  0  0  0  0  0  0  0
   57.3680   30.2430   44.1980 C   0  0  0  0  0  0  0  0  0  0  0  0
   57.9620   31.0120   45.2280 C   0  0  0  0  0  0  0  0  0  0  0  0
   58.4130   32.4390   44.9710 C   0  0  0  0  0  0  0  0  0  0  0  0
   58.1636   33.0488   45.8518 H   0  0  0  0  0  0  0  0  0  0  0  0
   59.4963   32.4113   44.7821 H   0  0  0  0  0  0  0  0  0  0  0  0
   57.7510   33.0670   43.7400 C   0  0  0  0  0  0  0  0  0  0  0  0
   56.6994   33.2933   43.9700 H   0  0  0  0  0  0  0  0  0  0  0  0
   58.2884   33.9905   43.4785 H   0  0  0  0  0  0  0  0  0  0  0  0
   57.8110   32.1070   42.5540 C   0  0  0  0  0  0  0  0  0  0  0  0
   57.3862   32.5986   41.6664 H   0  0  0  0  0  0  0  0  0  0  0  0
   58.8597   31.8338   42.3653 H   0  0  0  0  0  0  0  0  0  0  0  0
   57.0120   30.8400   42.8610 C   0  0  0  0  0  0  0  0  0  0  0  0
   55.9407   31.0897   42.8602 H   0  0  0  0  0  0  0  0  0  0  0  0
   57.2546   30.0963   42.0877 H   0  0  0  0  0  0  0  0  0  0  0  0
  1  2  1  0
  2  3  2  0
  3  4  1  0
  3  5  1  0
  5  6  1  0
  6  7  1  0
  6  8  1  0
  6  9  1  0
  9 10  1  0
  9 11  1  0
  9 12  1  0
 12 13  1  0
 12 14  1  0
 12 15  1  0
  5 16  2  0
 16 17  1  0
 16 18  1  0
 18 19  1  0
 18 20  2  0
 20 21  1  0
 21 22  2  0
 22 23  1  0
 23 24  1  0
 23 25  2  0
 25 26  1  0
 26 27  1  0
 26 28  1  0
 26 29  1  0
 25 30  1  0
 30 31  1  0
 31 32  2  0
 32 33  1  0
 33 34  1  0
 33 35  1  0
 33 36  1  0
 36 37  1  0
 36 38  1  0
 36 39  1  0
 39 40  1  0
 39 41  1  0
 39 42  1  0
 42 43  1  0
 42 44  1  0
 20  2  1  0
 32 22  1  0
 42 31  1  0
M  CHG  2   6   1  30  -1
M  END
>  <UniqueID>  (8) 
8

>  <SMILES>  (8) 
CC[NH2+]c1ccc(/N=c2\cc(C)[n-]c3c2CCCC3)cc1

>  <Energy>  (8) 
52.98789943461403

>  <Genealogy>  (8) 
CC[NH2+]c1ccc(N=c2cc(C)[n-]c3c2CCCC3)cc1 (protonated)
CC[NH2+]c1ccc(/N=c2\cc(C)[n-]c3c2CCCC3)cc1 (cis-trans isomerization)
CC[NH2+]c1ccc(/N=c2\cc(C)[n-]c3c2CCCC3)cc1 (3D coordinates assigned)
CC[NH2+]c1ccc(/N=c2\cc(C)[n-]c3c2CCCC3)cc1 (nonaromatic ring conformer: 52.98789943461403 kcal/mol)

>  <smiles>  (8) 
CCNc1ccc(N=c2cc(C)[nH]c3c2CCCC3)cc1

>  <score_type>  (8) 
oracle

>  <origin>  (8) 
adg

>  <m_score__min__energy>  (8) 
-7.4100000000000001

>  <m_primary>  (8) 
energy

$$$$
8:0
     RDKit          3D

 53 54  0  0  0  0  0  0  0  0999 V2000
   55.4646   31.4320   43.5298 H   0  0  0  0  0  0  0  0  0  0  0  0
   56.1130   30.7480   44.0970 C   0  0  0  0  0  0  0  0  0  0  0  0
   57.4250   31.1300   44.4090 C   0  0  0  0  0  0  0  0  0  0  0  0
   57.9330   32.4820   44.0050 C   0  0  0  0  0  0  0  0  0  0  0  0
   58.1555   33.0741   44.9050 H   0  0  0  0  0  0  0  0  0  0  0  0
   58.8488   32.3659   43.4069 H   0  0  0  0  0  0  0  0  0  0  0  0
   57.1673   32.9977   43.4069 H   0  0  0  0  0  0  0  0  0  0  0  0
   58.2390   30.2670   45.1610 C   0  0  0  0  0  0  0  0  0  0  0  0
   59.2599   30.5763   45.4296 H   0  0  0  0  0  0  0  0  0  0  0  0
   57.7580   29.0060   45.5750 C   0  0  0  0  0  0  0  0  0  0  0  0
   58.5530   28.1090   46.3250 C   0  0  0  0  0  0  0  0  0  0  0  0
   59.7720   28.4480   46.6500 N   0  0  0  0  0  0  0  0  0  0  0  0
   60.3970   28.4000   47.9740 C   0  0  0  0  0  0  0  0  0  0  0  0
   61.4281   28.0304   47.8734 H   0  0  0  0  0  0  0  0  0  0  0  0
   59.8113   27.7268   48.6173 H   0  0  0  0  0  0  0  0  0  0  0  0
   60.4220   29.7930   48.6120 C   0  0  0  0  0  0  0  0  0  0  0  0
   61.4026   29.9611   49.0812 H   0  0  0  0  0  0  0  0  0  0  0  0
   59.6289   29.8563   49.3716 H   0  0  0  0  0  0  0  0  0  0  0  0
   60.1910   30.8190   47.5880 N   0  0  0  0  0  0  0  0  0  0  0  0
   59.9070   30.3190   46.7130 H   0  0  0  0  0  0  0  0  0  0  0  0
   61.4300   31.5520   47.2910 C   0  0  0  0  0  0  0  0  0  0  0  0
   61.6930   31.3956   46.2344 H   0  0  0  0  0  0  0  0  0  0  0  0
   62.2222   31.1720   47.9529 H   0  0  0  0  0  0  0  0  0  0  0  0
   61.2690   33.0670   47.5490 C   0  0  0  0  0  0  0  0  0  0  0  0
   61.3175   33.5786   46.5764 H   0  0  0  0  0  0  0  0  0  0  0  0
   62.0786   33.3314   48.2452 H   0  0  0  0  0  0  0  0  0  0  0  0
   60.0110   33.4970   48.2250 N   0  0  0  0  0  0  0  0  0  0  0  0
   59.3930   32.6500   48.2110 H   0  0  0  0  0  0  0  0  0  0  0  0
   60.1880   33.8720   49.6520 C   0  0  0  0  0  0  0  0  0  0  0  0
   59.9430   34.9381   49.7674 H   0  0  0  0  0  0  0  0  0  0  0  0
   61.2333   33.6599   49.9212 H   0  0  0  0  0  0  0  0  0  0  0  0
   59.2960   33.0600   50.5990 C   0  0  0  0  0  0  0  0  0  0  0  0
   59.5563   33.2970   51.6412 H   0  0  0  0  0  0  0  0  0  0  0  0
   58.2413   33.3145   50.4176 H   0  0  0  0  0  0  0  0  0  0  0  0
   59.4505   31.9861   50.4176 H   0  0  0  0  0  0  0  0  0  0  0  0
   59.3080   34.5750   47.4750 C   0  0  0  0  0  0  0  0  0  0  0  0
   58.2228   34.4285   47.5789 H   0  0  0  0  0  0  0  0  0  0  0  0
   59.6250   35.5403   47.8966 H   0  0  0  0  0  0  0  0  0  0  0  0
   59.6650   34.5740   45.9850 C   0  0  0  0  0  0  0  0  0  0  0  0
   60.7590   34.5709   45.8701 H   0  0  0  0  0  0  0  0  0  0  0  0
   59.2437   33.6770   45.5076 H   0  0  0  0  0  0  0  0  0  0  0  0
   59.2487   35.4733   45.5076 H   0  0  0  0  0  0  0  0  0  0  0  0
   58.0010   26.8640   46.6970 C   0  0  0  0  0  0  0  0  0  0  0  0
   58.6043   26.1448   47.2704 H   0  0  0  0  0  0  0  0  0  0  0  0
   56.6870   26.5440   46.3370 C   0  0  0  0  0  0  0  0  0  0  0  0
   56.0990   25.2240   46.7260 C   0  0  0  0  0  0  0  0  0  0  0  0
   56.0646   25.1468   47.8228 H   0  0  0  0  0  0  0  0  0  0  0  0
   55.0797   25.1429   46.3206 H   0  0  0  0  0  0  0  0  0  0  0  0
   56.7205   24.4120   46.3206 H   0  0  0  0  0  0  0  0  0  0  0  0
   55.9460   27.4280   45.6220 N   0  0  0  0  0  0  0  0  0  0  0  0
   56.4360   28.6330   45.2350 C   0  0  0  0  0  0  0  0  0  0  0  0
   55.6240   29.5040   44.5020 C   0  0  0  0  0  0  0  0  0  0  0  0
   54.5965   29.2084   44.2434 H   0  0  0  0  0  0  0  0  0  0  0  0
  1  2  1  0
  2  3  2  0
  3  4  1  0
  4  5  1  0
  4  6  1  0
  4  7  1  0
  3  8  1  0
  8  9  1  0
  8 10  2  0
 10 11  1  0
 11 12  2  0
 12 13  1  0
 13 14  1  0
 13 15  1  0
 13 16  1  0
 16 17  1  0
 16 18  1  0
 16 19  1  0
 19 20  1  0
 19 21  1  0
 21 22  1  0
 21 23  1  0
 21 24  1  0
 24 25  1  0
 24 26  1  0
 24 27  1  0
 27 28  1  0
 27 29  1  0
 29 30  1  0
 29 31  1  0
 29 32  1  0
 32 33  1  0
 32 34  1  0
 32 35  1  0
 27 36  1  0
 36 37  1  0
 36 38  1  0
 36 39  1  0
 39 40  1  0
 39 41  1  0
 39 42  1  0
 11 43  1  0
 43 44  1  0
 43 45  2  0
 45 46  1  0
 46 47  1  0
 46 48  1  0
 46 49  1  0
 45 50  1  0
 50 51  1  0
 51 52  2  0
 52 53  1  0
 52  2  1  0
 51 10  1  0
M  CHG  2  27   1  50  -1
M  END
>  <UniqueID>  (9) 
9

>  <SMILES>  (9) 
CC[NH+](CC)CCNCC/N=c1\cc(C)[n-]c2ccc(C)cc12

>  <Energy>  (9) 
58.87563243773122

>  <Genealogy>  (9) 
CC[NH+](CC)CCNCCN=c1cc(C)[n-]c2ccc(C)cc12 (protonated)
CC[NH+](CC)CCNCC/N=c1\cc(C)[n-]c2ccc(C)cc12 (cis-trans isomerization)
CC[NH+](CC)CCNCC/N=c1\cc(C)[n-]c2ccc(C)cc12 (3D coordinates assigned)
CC[NH+](CC)CCNCC/N=c1\cc(C)[n-]c2ccc(C)cc12 (optimized conformer: 58.87563243773122 kcal/mol)

>  <smiles>  (9) 
CCN(CC)CCNCCN=c1cc(C)[nH]c2ccc(C)cc12

>  <score_type>  (9) 
oracle

>  <origin>  (9) 
adg

>  <m_score__min__energy>  (9) 
-6.1900000000000004

>  <m_primary>  (9) 
energy

$$$$
9:0
     RDKit          3D

 58 60  0  0  0  0  0  0  0  0999 V2000
   61.7020   29.0680   50.8620 C   0  0  0  0  0  0  0  0  0  0  0  0
   60.2340   28.8400   50.5260 C   0  0  0  0  0  0  0  0  0  0  0  0
   59.6660   30.0430   49.9120 N   0  0  0  0  0  0  0  0  0  0  0  0
   58.5140   30.5180   50.6900 C   0  0  0  0  0  0  0  0  0  0  0  0
   58.2950   32.0140   50.4550 C   0  0  0  0  0  0  0  0  0  0  0  0
   59.1760   32.5210   49.3930 N   0  0  0  0  0  0  0  0  0  0  0  0
   59.7200   33.8590   49.6890 C   0  0  0  0  0  0  0  0  0  0  0  0
   61.2400   33.7880   49.7730 C   0  0  0  0  0  0  0  0  0  0  0  0
   61.6530   32.4820   49.4400 O   0  0  0  0  0  0  0  0  0  0  0  0
   62.5700   32.5240   48.3670 C   0  0  0  0  0  0  0  0  0  0  0  0
   62.1410   31.5190   47.2960 C   0  0  0  0  0  0  0  0  0  0  0  0
   60.7520   31.0800   47.4830 N   0  0  0  0  0  0  0  0  0  0  0  0
   59.8060   31.0100   46.3980 C   0  0  0  0  0  0  0  0  0  0  0  0
   59.4340   29.7580   45.8770 C   0  0  0  0  0  0  0  0  0  0  0  0
   60.0390   28.5720   46.3480 C   0  0  0  0  0  0  0  0  0  0  0  0
   59.6260   27.3280   45.8810 C   0  0  0  0  0  0  0  0  0  0  0  0
   58.5960   27.2400   44.9540 C   0  0  0  0  0  0  0  0  0  0  0  0
   57.9890   28.3970   44.4670 C   0  0  0  0  0  0  0  0  0  0  0  0
   58.4160   29.6830   44.8880 C   0  0  0  0  0  0  0  0  0  0  0  0
   57.8530   30.8390   44.3800 N   0  0  0  0  0  0  0  0  0  0  0  0
   56.9820   30.7700   43.1860 C   0  0  0  0  0  0  0  0  0  0  0  0
   58.1350   32.0620   44.9610 C   0  0  0  0  0  0  0  0  0  0  0  0
   57.4110   33.2360   44.6250 C   0  0  0  0  0  0  0  0  0  0  0  0
   57.7720   34.4790   45.1440 C   0  0  0  0  0  0  0  0  0  0  0  0
   58.8530   34.5870   46.0100 C   0  0  0  0  0  0  0  0  0  0  0  0
   59.5470   33.4460   46.4030 C   0  0  0  0  0  0  0  0  0  0  0  0
   59.1680   32.1710   45.9310 C   0  0  0  0  0  0  0  0  0  0  0  0
   61.8293   29.0878   51.9544 H   0  0  0  0  0  0  0  0  0  0  0  0
   62.3063   28.2529   50.4371 H   0  0  0  0  0  0  0  0  0  0  0  0
   62.0306   30.0279   50.4371 H   0  0  0  0  0  0  0  0  0  0  0  0
   60.1479   27.9977   49.8238 H   0  0  0  0  0  0  0  0  0  0  0  0
   59.6836   28.6134   51.4511 H   0  0  0  0  0  0  0  0  0  0  0  0
   60.3970   30.7940   49.9340 H   0  0  0  0  0  0  0  0  0  0  0  0
   57.6143   29.9664   50.3797 H   0  0  0  0  0  0  0  0  0  0  0  0
   58.7099   30.3486   51.7591 H   0  0  0  0  0  0  0  0  0  0  0  0
   57.2479   32.1816   50.1627 H   0  0  0  0  0  0  0  0  0  0  0  0
   58.5288   32.5503   51.3865 H   0  0  0  0  0  0  0  0  0  0  0  0
   59.9770   31.8520   49.3020 H   0  0  0  0  0  0  0  0  0  0  0  0
   59.4301   34.5567   48.8895 H   0  0  0  0  0  0  0  0  0  0  0  0
   59.3179   34.2114   50.6503 H   0  0  0  0  0  0  0  0  0  0  0  0
   61.6832   34.5069   49.0681 H   0  0  0  0  0  0  0  0  0  0  0  0
   61.5699   34.0356   50.7927 H   0  0  0  0  0  0  0  0  0  0  0  0
   62.5855   33.5360   47.9362 H   0  0  0  0  0  0  0  0  0  0  0  0
   63.5757   32.2676   48.7314 H   0  0  0  0  0  0  0  0  0  0  0  0
   62.2348   31.9913   46.3070 H   0  0  0  0  0  0  0  0  0  0  0  0
   62.7918   30.6358   47.3766 H   0  0  0  0  0  0  0  0  0  0  0  0
   60.3960   30.9610   48.4590 H   0  0  0  0  0  0  0  0  0  0  0  0
   60.8462   28.6324   47.0928 H   0  0  0  0  0  0  0  0  0  0  0  0
   60.1159   26.4135   46.2465 H   0  0  0  0  0  0  0  0  0  0  0  0
   58.2577   26.2541   44.6026 H   0  0  0  0  0  0  0  0  0  0  0  0
   57.1646   28.3113   43.7437 H   0  0  0  0  0  0  0  0  0  0  0  0
   55.9318   30.6868   43.5025 H   0  0  0  0  0  0  0  0  0  0  0  0
   57.1124   31.6813   42.5839 H   0  0  0  0  0  0  0  0  0  0  0  0
   57.2542   29.8906   42.5839 H   0  0  0  0  0  0  0  0  0  0  0  0
   56.5505   33.1640   43.9436 H   0  0  0  0  0  0  0  0  0  0  0  0
   57.1993   35.3764   44.8670 H   0  0  0  0  0  0  0  0  0  0  0  0
   59.1606   35.5742   46.3852 H   0  0  0  0  0  0  0  0  0  0  0  0
   60.4012   33.5392   47.0898 H   0  0  0  0  0  0  0  0  0  0  0  0
  1  2  1  0
  2  3  1  0
  3  4  1  0
  4  5  1  0
  5  6  1  0
  6  7  1  0
  7  8  1  0
  8  9  1  0
  9 10  1  0
 10 11  1  0
 11 12  1  0
 12 13  1  0
 13 14  2  0
 14 15  1  0
 15 16  2  0
 16 17  1  0
 17 18  2  0
 18 19  1  0
 19 20  2  0
 20 21  1  0
 20 22  1  0
 22 23  2  0
 23 24  1  0
 24 25  2  0
 25 26  1  0
 26 27  2  0
 27 13  1  0
 19 14  1  0
 27 22  1  0
  1 28  1  0
  1 29  1  0
  1 30  1  0
  2 31  1  0
  2 32  1  0
  3 33  1  0
  4 34  1  0
  4 35  1  0
  5 36  1  0
  5 37  1  0
  6 38  1  0
  7 39  1  0
  7 40  1  0
  8 41  1  0
  8 42  1  0
 10 43  1  0
 10 44  1  0
 11 45  1  0
 11 46  1  0
 12 47  1  0
 15 48  1  0
 16 49  1  0
 17 50  1  0
 18 51  1  0
 21 52  1  0
 21 53  1  0
 21 54  1  0
 23 55  1  0
 24 56  1  0
 25 57  1  0
 26 58  1  0
M  CHG  1  20   1
M  END
>  <UniqueID>  (10) 
10

>  <SMILES>  (10) 
CCNCCNCCOCCNc1c2ccccc2[n+](C)c2ccccc12

>  <Energy>  (10) 
72.01898589787443

>  <Genealogy>  (10) 
CCNCCNCCOCCNc1c2ccccc2[n+](C)c2ccccc12 (3D coordinates assigned)
CCNCCNCCOCCNc1c2ccccc2[n+](C)c2ccccc12 (optimized conformer: 72.01898589787443 kcal/mol)

>  <smiles>  (10) 
CCNCCNCCOCCNc1c2ccccc2[n+](C)c2ccccc12

>  <score_type>  (10) 
oracle

>  <origin>  (10) 
adg

>  <m_score__min__energy>  (10) 
-5.5599999999999996

>  <m_primary>  (10) 
energy

$$$$
10:0
     RDKit          3D

 43 45  0  0  0  0  0  0  0  0999 V2000
   58.8790   31.3410   49.6420 C   0  0  0  0  0  0  0  0  0  0  0  0
   58.8750   29.9870   48.9380 C   0  0  0  0  0  0  0  0  0  0  0  0
   60.2490   29.5790   48.5530 N   0  0  0  0  0  0  0  0  0  0  0  0
   61.2460   30.1530   49.4790 C   0  0  0  0  0  0  0  0  0  0  0  0
   60.3720   28.1010   48.5330 C   0  0  0  0  0  0  0  0  0  0  0  0
   59.5810   27.4970   47.3590 C   0  0  0  0  0  0  0  0  0  0  0  0
   60.1120   27.9290   45.9720 C   0  0  0  0  0  0  0  0  0  0  0  0
   60.2150   29.3930   45.8010 N   0  0  0  0  0  0  0  0  0  0  0  0
   59.0340   30.0550   45.2720 C   0  0  0  0  0  0  0  0  0  0  0  0
   58.1760   29.4070   44.3430 C   0  0  0  0  0  0  0  0  0  0  0  0
   56.9510   29.9840   43.9810 C   0  0  0  0  0  0  0  0  0  0  0  0
   56.5850   31.1940   44.4790 N   0  0  0  0  0  0  0  0  0  0  0  0
   57.4350   31.8740   45.2830 C   0  0  0  0  0  0  0  0  0  0  0  0
   57.1550   33.4090   45.9000 S   0  0  0  0  0  0  0  0  0  0  0  0
   58.6690   33.5160   46.6160 C   0  0  0  0  0  0  0  0  0  0  0  0
   59.1850   34.6180   47.2940 C   0  0  0  0  0  0  0  0  0  0  0  0
   60.5130   34.5760   47.7250 C   0  0  0  0  0  0  0  0  0  0  0  0
   61.3110   33.4570   47.4410 C   0  0  0  0  0  0  0  0  0  0  0  0
   62.6200   33.4570   47.7950 F   0  0  0  0  0  0  0  0  0  0  0  0
   60.7830   32.3550   46.7480 C   0  0  0  0  0  0  0  0  0  0  0  0
   59.4250   32.3630   46.3720 C   0  0  0  0  0  0  0  0  0  0  0  0
   58.6900   31.3840   45.6470 C   0  0  0  0  0  0  0  0  0  0  0  0
   58.8785   31.1879   50.7313 H   0  0  0  0  0  0  0  0  0  0  0  0
   59.7788   31.9029   49.3511 H   0  0  0  0  0  0  0  0  0  0  0  0
   57.9825   31.9082   49.3511 H   0  0  0  0  0  0  0  0  0  0  0  0
   58.4529   29.2310   49.6164 H   0  0  0  0  0  0  0  0  0  0  0  0
   58.2674   30.0706   48.0249 H   0  0  0  0  0  0  0  0  0  0  0  0
   60.9300   29.9711   50.5168 H   0  0  0  0  0  0  0  0  0  0  0  0
   62.2234   29.6794   49.3050 H   0  0  0  0  0  0  0  0  0  0  0  0
   61.3272   31.2361   49.3050 H   0  0  0  0  0  0  0  0  0  0  0  0
   61.4330   27.8298   48.4291 H   0  0  0  0  0  0  0  0  0  0  0  0
   59.9624   27.7027   49.4730 H   0  0  0  0  0  0  0  0  0  0  0  0
   59.6380   26.4006   47.4279 H   0  0  0  0  0  0  0  0  0  0  0  0
   58.5480   27.8663   47.4400 H   0  0  0  0  0  0  0  0  0  0  0  0
   61.1120   27.4926   45.8325 H   0  0  0  0  0  0  0  0  0  0  0  0
   59.3874   27.5701   45.2262 H   0  0  0  0  0  0  0  0  0  0  0  0
   61.0210   29.5970   45.1640 H   0  0  0  0  0  0  0  0  0  0  0  0
   60.4300   29.7680   46.7500 H   0  0  0  0  0  0  0  0  0  0  0  0
   58.4758   28.4440   43.9040 H   0  0  0  0  0  0  0  0  0  0  0  0
   56.2810   29.4533   43.2886 H   0  0  0  0  0  0  0  0  0  0  0  0
   58.5599   35.5026   47.4859 H   0  0  0  0  0  0  0  0  0  0  0  0
   60.9342   35.4218   48.2882 H   0  0  0  0  0  0  0  0  0  0  0  0
   61.4229   31.4949   46.5015 H   0  0  0  0  0  0  0  0  0  0  0  0
  1  2  1  0
  2  3  1  0
  3  4  1  0
  3  5  1  0
  5  6  1  0
  6  7  1  0
  7  8  1  0
  8  9  1  0
  9 10  2  0
 10 11  1  0
 11 12  2  0
 12 13  1  0
 13 14  1  0
 14 15  1  0
 15 16  2  0
 16 17  1  0
 17 18  2  0
 18 19  1  0
 18 20  1  0
 20 21  2  0
 21 22  1  0
 22  9  1  0
 22 13  2  0
 21 15  1  0
  1 23  1  0
  1 24  1  0
  1 25  1  0
  2 26  1  0
  2 27  1  0
  4 28  1  0
  4 29  1  0
  4 30  1  0
  5 31  1  0
  5 32  1  0
  6 33  1  0
  6 34  1  0
  7 35  1  0
  7 36  1  0
  8 37  1  0
  8 38  1  0
 10 39  1  0
 11 40  1  0
 16 41  1  0
 17 42  1  0
 20 43  1  0
M  CHG  1   8   1
M  END
>  <UniqueID>  (11) 
11

>  <SMILES>  (11) 
CCN(C)CCC[NH2+]c1ccnc2sc3ccc(F)cc3c12

>  <Energy>  (11) 
91.41012480682619

>  <Genealogy>  (11) 
CCN(C)CCC[NH2+]c1ccnc2sc3ccc(F)cc3c12 (protonated)
CCN(C)CCC[NH2+]c1ccnc2sc3ccc(F)cc3c12 (3D coordinates assigned)
CCN(C)CCC[NH2+]c1ccnc2sc3ccc(F)cc3c12 (optimized conformer: 91.41012480682619 kcal/mol)

>  <smiles>  (11) 
CCN(C)CCCNc1ccnc2sc3ccc(F)cc3c12

>  <score_type>  (11) 
oracle

>  <origin>  (11) 
adg

>  <m_score__min__energy>  (11) 
-4.7999999999999998

>  <m_primary>  (11) 
energy

$$$$
11:0
     RDKit          3D

 76 79  0  0  0  0  0  0  0  0999 V2000
   58.8690   34.1690   52.2090 C   0  0  0  0  0  0  0  0  0  0  0  0
   59.8770   33.3450   51.4120 C   0  0  0  0  0  0  0  0  0  0  0  0
   59.2650   32.7640   50.1940 N   0  0  0  0  0  0  0  0  0  0  0  0
   57.9080   32.2000   50.4020 C   0  0  0  0  0  0  0  0  0  0  0  0
   57.8770   30.9060   51.2370 C   0  0  0  0  0  0  0  0  0  0  0  0
   59.1510   30.6250   51.7480 O   0  0  0  0  0  0  0  0  0  0  0  0
   59.3040   33.7150   49.0610 C   0  0  0  0  0  0  0  0  0  0  0  0
   58.5500   33.1710   47.8400 C   0  0  0  0  0  0  0  0  0  0  0  0
   59.4540   32.5380   46.8710 N   0  0  0  0  0  0  0  0  0  0  0  0
   59.2540   31.1660   46.4890 C   0  0  0  0  0  0  0  0  0  0  0  0
   58.5390   30.8490   45.3200 C   0  0  0  0  0  0  0  0  0  0  0  0
   58.1180   31.8650   44.4330 C   0  0  0  0  0  0  0  0  0  0  0  0
   57.3440   31.5580   43.3180 C   0  0  0  0  0  0  0  0  0  0  0  0
   56.9700   30.2420   43.0700 C   0  0  0  0  0  0  0  0  0  0  0  0
   57.4100   29.2170   43.9090 C   0  0  0  0  0  0  0  0  0  0  0  0
   58.2470   29.4920   45.0220 C   0  0  0  0  0  0  0  0  0  0  0  0
   58.7690   28.4760   45.8080 N   0  0  0  0  0  0  0  0  0  0  0  0
   58.6880   27.0710   45.3540 C   0  0  0  0  0  0  0  0  0  0  0  0
   59.3890   28.7800   47.0070 C   0  0  0  0  0  0  0  0  0  0  0  0
   59.7350   27.7740   47.9440 C   0  0  0  0  0  0  0  0  0  0  0  0
   60.4120   28.0860   49.1210 C   0  0  0  0  0  0  0  0  0  0  0  0
   60.7560   29.4000   49.4210 C   0  0  0  0  0  0  0  0  0  0  0  0
   61.4600   29.6320   50.6200 O   0  0  0  0  0  0  0  0  0  0  0  0
   62.7930   30.1300   50.7420 C   0  0  0  0  0  0  0  0  0  0  0  0
   62.8150   31.6820   50.6960 C   0  0  0  0  0  0  0  0  0  0  0  0
   63.6980   32.3070   49.6560 N   0  0  0  0  0  0  0  0  0  0  0  0
   65.1270   32.1420   50.0480 C   0  0  0  0  0  0  0  0  0  0  0  0
   63.4020   33.7840   49.6320 C   0  0  0  0  0  0  0  0  0  0  0  0
   62.3100   34.1590   48.6190 C   0  0  0  0  0  0  0  0  0  0  0  0
   62.7780   33.8410   47.1880 C   0  0  0  0  0  0  0  0  0  0  0  0
   63.7220   32.6250   47.1390 C   0  0  0  0  0  0  0  0  0  0  0  0
   63.4600   31.6710   48.3140 C   0  0  0  0  0  0  0  0  0  0  0  0
   60.4010   30.4160   48.5200 C   0  0  0  0  0  0  0  0  0  0  0  0
   59.6900   30.1280   47.3350 C   0  0  0  0  0  0  0  0  0  0  0  0
   59.0461   34.0242   53.2850 H   0  0  0  0  0  0  0  0  0  0  0  0
   58.9857   35.2336   51.9582 H   0  0  0  0  0  0  0  0  0  0  0  0
   57.8488   33.8429   51.9582 H   0  0  0  0  0  0  0  0  0  0  0  0
   60.7142   33.9942   51.1160 H   0  0  0  0  0  0  0  0  0  0  0  0
   60.2265   32.5191   52.0489 H   0  0  0  0  0  0  0  0  0  0  0  0
   57.2965   32.9560   50.9164 H   0  0  0  0  0  0  0  0  0  0  0  0
   57.5205   31.9398   49.4059 H   0  0  0  0  0  0  0  0  0  0  0  0
   57.1708   31.0296   52.0713 H   0  0  0  0  0  0  0  0  0  0  0  0
   57.5586   30.0729   50.5932 H   0  0  0  0  0  0  0  0  0  0  0  0
   59.7990   30.9000   51.0480 H   0  0  0  0  0  0  0  0  0  0  0  0
   58.8403   34.6621   49.3739 H   0  0  0  0  0  0  0  0  0  0  0  0
   60.3555   33.8674   48.7760 H   0  0  0  0  0  0  0  0  0  0  0  0
   57.8155   32.4259   48.1795 H   0  0  0  0  0  0  0  0  0  0  0  0
   58.0567   34.0180   47.3408 H   0  0  0  0  0  0  0  0  0  0  0  0
   60.3690   32.9870   46.6400 H   0  0  0  0  0  0  0  0  0  0  0  0
   58.4050   32.9093   44.6257 H   0  0  0  0  0  0  0  0  0  0  0  0
   57.0277   32.3575   42.6319 H   0  0  0  0  0  0  0  0  0  0  0  0
   56.3254   30.0080   42.2099 H   0  0  0  0  0  0  0  0  0  0  0  0
   57.1035   28.1805   43.7047 H   0  0  0  0  0  0  0  0  0  0  0  0
   58.6496   26.4047   46.2284 H   0  0  0  0  0  0  0  0  0  0  0  0
   57.7804   26.9332   44.7479 H   0  0  0  0  0  0  0  0  0  0  0  0
   59.5737   26.8299   44.7479 H   0  0  0  0  0  0  0  0  0  0  0  0
   59.4640   26.7280   47.7380 H   0  0  0  0  0  0  0  0  0  0  0  0
   60.6782   27.2820   49.8229 H   0  0  0  0  0  0  0  0  0  0  0  0
   63.2165   29.7927   51.6995 H   0  0  0  0  0  0  0  0  0  0  0  0
   63.3882   29.7465   49.9002 H   0  0  0  0  0  0  0  0  0  0  0  0
   61.7864   32.0258   50.5120 H   0  0  0  0  0  0  0  0  0  0  0  0
   63.2349   31.9967   51.6628 H   0  0  0  0  0  0  0  0  0  0  0  0
   65.2076   32.1327   51.1450 H   0  0  0  0  0  0  0  0  0  0  0  0
   65.5108   31.1936   49.6441 H   0  0  0  0  0  0  0  0  0  0  0  0
   65.7169   32.9780   49.6441 H   0  0  0  0  0  0  0  0  0  0  0  0
   63.0710   34.0918   50.6348 H   0  0  0  0  0  0  0  0  0  0  0  0
   64.3247   34.3004   49.3287 H   0  0  0  0  0  0  0  0  0  0  0  0
   61.3982   33.5843   48.8388 H   0  0  0  0  0  0  0  0  0  0  0  0
   62.1039   35.2367   48.6972 H   0  0  0  0  0  0  0  0  0  0  0  0
   61.8958   33.6294   46.5660 H   0  0  0  0  0  0  0  0  0  0  0  0
   63.3332   34.7136   46.8135 H   0  0  0  0  0  0  0  0  0  0  0  0
   63.5615   32.0839   46.1948 H   0  0  0  0  0  0  0  0  0  0  0  0
   64.7589   32.9858   47.2077 H   0  0  0  0  0  0  0  0  0  0  0  0
   62.4133   31.3362   48.2662 H   0  0  0  0  0  0  0  0  0  0  0  0
   64.1659   30.8327   48.2190 H   0  0  0  0  0  0  0  0  0  0  0  0
   60.6821   31.4562   48.7414 H   0  0  0  0  0  0  0  0  0  0  0  0
  1  2  1  0
  2  3  1  0
  3  4  1  0
  4  5  1  0
  5  6  1  0
  3  7  1  0
  7  8  1  0
  8  9  1  0
  9 10  1  0
 10 11  2  0
 11 12  1  0
 12 13  2  0
 13 14  1  0
 14 15  2  0
 15 16  1  0
 16 17  2  0
 17 18  1  0
 17 19  1  0
 19 20  2  0
 20 21  1  0
 21 22  2  0
 22 23  1  0
 23 24  1  0
 24 25  1  0
 25 26  1  0
 26 27  1  0
 26 28  1  0
 28 29  1  0
 29 30  1  0
 30 31  1  0
 31 32  1  0
 22 33  1  0
 33 34  2  0
 34 10  1  0
 16 11  1  0
 34 19  1  0
 32 26  1  0
  1 35  1  0
  1 36  1  0
  1 37  1  0
  2 38  1  0
  2 39  1  0
  4 40  1  0
  4 41  1  0
  5 42  1  0
  5 43  1  0
  6 44  1  0
  7 45  1  0
  7 46  1  0
  8 47  1  0
  8 48  1  0
  9 49  1  0
 12 50  1  0
 13 51  1  0
 14 52  1  0
 15 53  1  0
 18 54  1  0
 18 55  1  0
 18 56  1  0
 20 57  1  0
 21 58  1  0
 24 59  1  0
 24 60  1  0
 25 61  1  0
 25 62  1  0
 27 63  1  0
 27 64  1  0
 27 65  1  0
 28 66  1  0
 28 67  1  0
 29 68  1  0
 29 69  1  0
 30 70  1  0
 30 71  1  0
 31 72  1  0
 31 73  1  0
 32 74  1  0
 32 75  1  0
 33 76  1  0
M  CHG  2  17   1  26   1
M  END
>  <UniqueID>  (12) 
12

>  <SMILES>  (12) 
CCN(CCO)CCNc1c2ccccc2[n+](C)c2ccc(OCC[N+]3(C)CCCCC3)cc12

>  <Energy>  (12) 
125.17791279763485

>  <Genealogy>  (12) 
CCN(CCO)CCNc1c2ccccc2[n+](C)c2ccc(OCC[N+]3(C)CCCCC3)cc12 (3D coordinates assigned)
CCN(CCO)CCNc1c2ccccc2[n+](C)c2ccc(OCC[N+]3(C)CCCCC3)cc12 (nonaromatic ring conformer: 125.17791279763485 kcal/mol)

>  <smiles>  (12) 
CCN(CCO)CCNc1c2ccccc2[n+](C)c2ccc(OCC[N+]3(C)CCCCC3)cc12

>  <score_type>  (12) 
oracle

>  <origin>  (12) 
adg

>  <m_score__min__energy>  (12) 
-6.2000000000000002

>  <m_primary>  (12) 
energy

$$$$
12:0
     RDKit          3D

 70 73  0  0  0  0  0  0  0  0999 V2000
   57.3710   30.7940   51.7360 C   0  0  0  0  0  0  0  0  0  0  0  0
   57.8250   31.9340   50.8240 C   0  0  0  0  0  0  0  0  0  0  0  0
   59.2030   32.3750   51.1460 N   0  0  0  0  0  0  0  0  0  0  0  0
   59.3960   32.2720   52.6070 C   0  0  0  0  0  0  0  0  0  0  0  0
   59.4220   33.7750   50.6980 C   0  0  0  0  0  0  0  0  0  0  0  0
   59.6170   33.9030   49.1700 C   0  0  0  0  0  0  0  0  0  0  0  0
   60.2190   32.7320   48.5140 N   0  0  0  0  0  0  0  0  0  0  0  0
   59.5690   31.8400   47.5960 C   0  0  0  0  0  0  0  0  0  0  0  0
   59.0070   32.3770   46.4140 C   0  0  0  0  0  0  0  0  0  0  0  0
   59.0790   33.7620   46.1330 C   0  0  0  0  0  0  0  0  0  0  0  0
   58.4610   34.2990   45.0070 C   0  0  0  0  0  0  0  0  0  0  0  0
   57.7910   33.4670   44.1210 C   0  0  0  0  0  0  0  0  0  0  0  0
   57.7530   32.0900   44.3460 C   0  0  0  0  0  0  0  0  0  0  0  0
   58.3620   31.5200   45.4910 C   0  0  0  0  0  0  0  0  0  0  0  0
   58.3740   30.1590   45.6920 N   0  0  0  0  0  0  0  0  0  0  0  0
   57.4790   29.2810   44.9060 C   0  0  0  0  0  0  0  0  0  0  0  0
   59.1880   29.6140   46.6650 C   0  0  0  0  0  0  0  0  0  0  0  0
   59.5720   28.2590   46.5880 C   0  0  0  0  0  0  0  0  0  0  0  0
   60.3690   27.6870   47.5680 C   0  0  0  0  0  0  0  0  0  0  0  0
   60.7510   28.4270   48.6750 C   0  0  0  0  0  0  0  0  0  0  0  0
   60.3530   29.7680   48.8340 C   0  0  0  0  0  0  0  0  0  0  0  0
   60.6450   30.4780   50.0720 N   0  0  0  0  0  0  0  0  0  0  0  0
   61.8080   30.0000   50.8660 C   0  0  0  0  0  0  0  0  0  0  0  0
   62.9140   31.0580   51.0140 C   0  0  0  0  0  0  0  0  0  0  0  0
   62.8540   32.0430   49.9120 N   0  0  0  0  0  0  0  0  0  0  0  0
   62.7710   33.4310   50.4300 C   0  0  0  0  0  0  0  0  0  0  0  0
   62.9780   34.4970   49.3310 C   0  0  0  0  0  0  0  0  0  0  0  0
   62.7970   33.9100   47.9320 C   0  0  0  0  0  0  0  0  0  0  0  0
   63.7580   32.7310   47.7030 C   0  0  0  0  0  0  0  0  0  0  0  0
   63.9830   31.8940   48.9750 C   0  0  0  0  0  0  0  0  0  0  0  0
   59.7010   30.4220   47.7230 C   0  0  0  0  0  0  0  0  0  0  0  0
   57.4910   31.0953   52.7871 H   0  0  0  0  0  0  0  0  0  0  0  0
   56.3133   30.5655   51.5385 H   0  0  0  0  0  0  0  0  0  0  0  0
   57.9821   29.9009   51.5385 H   0  0  0  0  0  0  0  0  0  0  0  0
   57.7954   31.5891   49.7799 H   0  0  0  0  0  0  0  0  0  0  0  0
   57.1468   32.7866   50.9756 H   0  0  0  0  0  0  0  0  0  0  0  0
   58.5390   32.7293   53.1232 H   0  0  0  0  0  0  0  0  0  0  0  0
   59.4735   31.2126   52.8928 H   0  0  0  0  0  0  0  0  0  0  0  0
   60.3192   32.7973   52.8928 H   0  0  0  0  0  0  0  0  0  0  0  0
   58.5484   34.3761   50.9903 H   0  0  0  0  0  0  0  0  0  0  0  0
   60.3470   34.1298   51.1760 H   0  0  0  0  0  0  0  0  0  0  0  0
   58.6310   34.0783   48.7148 H   0  0  0  0  0  0  0  0  0  0  0  0
   60.3240   34.7325   49.0215 H   0  0  0  0  0  0  0  0  0  0  0  0
   61.2430   32.5780   48.6730 H   0  0  0  0  0  0  0  0  0  0  0  0
   59.6319   34.4247   46.8149 H   0  0  0  0  0  0  0  0  0  0  0  0
   58.5037   35.3821   44.8197 H   0  0  0  0  0  0  0  0  0  0  0  0
   57.2891   33.8935   43.2400 H   0  0  0  0  0  0  0  0  0  0  0  0
   57.2422   31.4372   43.6229 H   0  0  0  0  0  0  0  0  0  0  0  0
   56.8640   28.6777   45.5899 H   0  0  0  0  0  0  0  0  0  0  0  0
   56.8249   29.8975   44.2719 H   0  0  0  0  0  0  0  0  0  0  0  0
   58.0828   28.6152   44.2719 H   0  0  0  0  0  0  0  0  0  0  0  0
   59.2344   27.6473   45.7384 H   0  0  0  0  0  0  0  0  0  0  0  0
   60.6989   26.6426   47.4661 H   0  0  0  0  0  0  0  0  0  0  0  0
   61.3787   27.9568   49.4463 H   0  0  0  0  0  0  0  0  0  0  0  0
   60.7290   31.4960   49.8700 H   0  0  0  0  0  0  0  0  0  0  0  0
   59.8290   30.3290   50.6970 H   0  0  0  0  0  0  0  0  0  0  0  0
   61.4552   29.7198   51.8695 H   0  0  0  0  0  0  0  0  0  0  0  0
   62.2427   29.1446   50.3281 H   0  0  0  0  0  0  0  0  0  0  0  0
   62.7851   31.5819   51.9726 H   0  0  0  0  0  0  0  0  0  0  0  0
   63.8904   30.5524   50.9803 H   0  0  0  0  0  0  0  0  0  0  0  0
   61.7781   33.5789   50.8797 H   0  0  0  0  0  0  0  0  0  0  0  0
   63.5775   33.5566   51.1674 H   0  0  0  0  0  0  0  0  0  0  0  0
   62.2458   35.3050   49.4759 H   0  0  0  0  0  0  0  0  0  0  0  0
   64.0069   34.8776   49.4123 H   0  0  0  0  0  0  0  0  0  0  0  0
   61.7611   33.5571   47.8207 H   0  0  0  0  0  0  0  0  0  0  0  0
   63.0179   34.6925   47.1912 H   0  0  0  0  0  0  0  0  0  0  0  0
   63.3368   32.0798   46.9229 H   0  0  0  0  0  0  0  0  0  0  0  0
   64.7306   33.1479   47.4026 H   0  0  0  0  0  0  0  0  0  0  0  0
   64.0814   30.8346   48.6958 H   0  0  0  0  0  0  0  0  0  0  0  0
   64.8989   32.2485   49.4705 H   0  0  0  0  0  0  0  0  0  0  0  0
  1  2  1  0
  2  3  1  0
  3  4  1  0
  3  5  1  0
  5  6  1  0
  6  7  1  0
  7  8  1  0
  8  9  2  0
  9 10  1  0
 10 11  2  0
 11 12  1  0
 12 13  2  0
 13 14  1  0
 14 15  2  0
 15 16  1  0
 15 17  1  0
 17 18  2  0
 18 19  1  0
 19 20  2  0
 20 21  1  0
 21 22  1  0
 22 23  1  0
 23 24  1  0
 24 25  1  0
 25 26  1  0
 26 27  1  0
 27 28  1  0
 28 29  1  0
 29 30  1  0
 21 31  2  0
 31  8  1  0
 14  9  1  0
 31 17  1  0
 30 25  1  0
  1 32  1  0
  1 33  1  0
  1 34  1  0
  2 35  1  0
  2 36  1  0
  4 37  1  0
  4 38  1  0
  4 39  1  0
  5 40  1  0
  5 41  1  0
  6 42  1  0
  6 43  1  0
  7 44  1  0
 10 45  1  0
 11 46  1  0
 12 47  1  0
 13 48  1  0
 16 49  1  0
 16 50  1  0
 16 51  1  0
 18 52  1  0
 19 53  1  0
 20 54  1  0
 22 55  1  0
 22 56  1  0
 23 57  1  0
 23 58  1  0
 24 59  1  0
 24 60  1  0
 26 61  1  0
 26 62  1  0
 27 63  1  0
 27 64  1  0
 28 65  1  0
 28 66  1  0
 29 67  1  0
 29 68  1  0
 30 69  1  0
 30 70  1  0
M  CHG  2  15   1  22   1
M  END
>  <UniqueID>  (13) 
13

>  <SMILES>  (13) 
CCN(C)CCNc1c2ccccc2[n+](C)c2cccc([NH2+]CCN3CCCCC3)c12

>  <Energy>  (13) 
123.93467280153483

>  <Genealogy>  (13) 
CCN(C)CCNc1c2ccccc2[n+](C)c2cccc([NH2+]CCN3CCCCC3)c12 (protonated)
CCN(C)CCNc1c2ccccc2[n+](C)c2cccc([NH2+]CCN3CCCCC3)c12 (3D coordinates assigned)
CCN(C)CCNc1c2ccccc2[n+](C)c2cccc([NH2+]CCN3CCCCC3)c12 (nonaromatic ring conformer: 123.93467280153483 kcal/mol)

>  <smiles>  (13) 
CCN(C)CCNc1c2ccccc2[n+](C)c2cccc(NCCN3CCCCC3)c12

>  <score_type>  (13) 
oracle

>  <origin>  (13) 
adg

>  <m_score__min__energy>  (13) 
-4.1799999999999997

>  <m_primary>  (13) 
energy

$$$$
13:0
     RDKit          3D

 57 59  0  0  0  0  0  0  0  0999 V2000
   57.5840   31.5270   42.8180 C   0  0  0  0  0  0  0  0  0  0  0  0
   56.6900   30.4880   43.4870 C   0  0  0  0  0  0  0  0  0  0  0  0
   57.0340   30.3340   44.8640 O   0  0  0  0  0  0  0  0  0  0  0  0
   58.1520   29.6400   45.3570 C   0  0  0  0  0  0  0  0  0  0  0  0
   59.1870   29.3430   44.4630 C   0  0  0  0  0  0  0  0  0  0  0  0
   60.3260   28.6590   44.8970 C   0  0  0  0  0  0  0  0  0  0  0  0
   60.4420   28.2680   46.2310 C   0  0  0  0  0  0  0  0  0  0  0  0
   59.4170   28.5570   47.1430 C   0  0  0  0  0  0  0  0  0  0  0  0
   59.5620   28.1460   48.5860 C   0  0  0  0  0  0  0  0  0  0  0  0
   59.9460   29.3100   49.4090 N   0  0  0  0  0  0  0  0  0  0  0  0
   58.8960   29.6450   50.3990 C   0  0  0  0  0  0  0  0  0  0  0  0
   59.0870   31.0730   50.9650 C   0  0  0  0  0  0  0  0  0  0  0  0
   60.0360   31.9420   50.1130 C   0  0  0  0  0  0  0  0  0  0  0  0
   61.4850   31.6250   50.2800 N   0  0  2  0  0  0  0  0  0  0  0  0
   62.1960   31.8510   48.9950 C   0  0  0  0  0  0  0  0  0  0  0  0
   61.3190   32.5050   47.9530 C   0  0  0  0  0  0  0  0  0  0  0  0
   61.1980   33.9040   47.8990 C   0  0  0  0  0  0  0  0  0  0  0  0
   60.3730   34.5040   46.9430 C   0  0  0  0  0  0  0  0  0  0  0  0
   59.6590   33.7110   46.0350 C   0  0  0  0  0  0  0  0  0  0  0  0
   58.6010   34.4830   44.8080 S   0  0  0  0  0  0  0  0  0  0  0  0
   57.0870   33.7000   45.4450 C   0  0  0  0  0  0  0  0  0  0  0  0
   59.7790   32.3180   46.0810 C   0  0  0  0  0  0  0  0  0  0  0  0
   60.6040   31.7170   47.0360 C   0  0  0  0  0  0  0  0  0  0  0  0
   61.7780   30.2860   50.8630 C   0  0  0  0  0  0  0  0  0  0  0  0
   61.2600   29.0800   50.0450 C   0  0  0  0  0  0  0  0  0  0  0  0
   58.2730   29.2460   46.7040 C   0  0  0  0  0  0  0  0  0  0  0  0
   58.0956   32.1216   43.5892 H   0  0  0  0  0  0  0  0  0  0  0  0
   58.3314   31.0186   42.1912 H   0  0  0  0  0  0  0  0  0  0  0  0
   56.9698   32.1902   42.1912 H   0  0  0  0  0  0  0  0  0  0  0  0
   55.6416   30.8121   43.4113 H   0  0  0  0  0  0  0  0  0  0  0  0
   56.8302   29.5227   42.9786 H   0  0  0  0  0  0  0  0  0  0  0  0
   59.1034   29.6504   43.4101 H   0  0  0  0  0  0  0  0  0  0  0  0
   61.1325   28.4286   44.1853 H   0  0  0  0  0  0  0  0  0  0  0  0
   61.3407   27.7311   46.5686 H   0  0  0  0  0  0  0  0  0  0  0  0
   58.6039   27.7447   48.9480 H   0  0  0  0  0  0  0  0  0  0  0  0
   60.3438   27.3762   48.6642 H   0  0  0  0  0  0  0  0  0  0  0  0
   57.9118   29.5820   49.9118 H   0  0  0  0  0  0  0  0  0  0  0  0
   58.9660   28.9305   51.2324 H   0  0  0  0  0  0  0  0  0  0  0  0
   58.1048   31.5665   51.0079 H   0  0  0  0  0  0  0  0  0  0  0  0
   59.5420   30.9719   51.9614 H   0  0  0  0  0  0  0  0  0  0  0  0
   59.7734   31.8004   49.0542 H   0  0  0  0  0  0  0  0  0  0  0  0
   59.9017   32.9787   50.4553 H   0  0  0  0  0  0  0  0  0  0  0  0
   61.8550   32.3240   50.9680 H   0  0  0  0  0  0  0  0  0  0  0  0
   63.0643   32.4998   49.1822 H   0  0  0  0  0  0  0  0  0  0  0  0
   62.5003   30.8684   48.6053 H   0  0  0  0  0  0  0  0  0  0  0  0
   61.7548   34.5297   48.6120 H   0  0  0  0  0  0  0  0  0  0  0  0
   60.2844   35.5997   46.9036 H   0  0  0  0  0  0  0  0  0  0  0  0
   57.1044   33.7090   46.5448 H   0  0  0  0  0  0  0  0  0  0  0  0
   56.2081   34.2566   45.0876 H   0  0  0  0  0  0  0  0  0  0  0  0
   57.0333   32.6611   45.0876 H   0  0  0  0  0  0  0  0  0  0  0  0
   59.2234   31.6948   45.3647 H   0  0  0  0  0  0  0  0  0  0  0  0
   60.6938   30.6212   47.0696 H   0  0  0  0  0  0  0  0  0  0  0  0
   62.8695   30.1884   50.9578 H   0  0  0  0  0  0  0  0  0  0  0  0
   61.2465   30.2509   51.8254 H   0  0  0  0  0  0  0  0  0  0  0  0
   61.9927   28.8561   49.2557 H   0  0  0  0  0  0  0  0  0  0  0  0
   61.1324   28.2458   50.7506 H   0  0  0  0  0  0  0  0  0  0  0  0
   57.4678   29.4788   47.4164 H   0  0  0  0  0  0  0  0  0  0  0  0
  1  2  1  0
  2  3  1  0
  3  4  1  0
  4  5  2  0
  5  6  1  0
  6  7  2  0
  7  8  1  0
  8  9  1  0
  9 10  1  0
 10 11  1  0
 11 12  1  0
 12 13  1  0
 13 14  1  0
 14 15  1  0
 15 16  1  0
 16 17  2  0
 17 18  1  0
 18 19  2  0
 19 20  1  0
 20 21  1  0
 19 22  1  0
 22 23  2  0
 14 24  1  0
 24 25  1  0
  8 26  2  0
 26  4  1  0
 25 10  1  0
 23 16  1  0
  1 27  1  0
  1 28  1  0
  1 29  1  0
  2 30  1  0
  2 31  1  0
  5 32  1  0
  6 33  1  0
  7 34  1  0
  9 35  1  0
  9 36  1  0
 11 37  1  0
 11 38  1  0
 12 39  1  0
 12 40  1  0
 13 41  1  0
 13 42  1  0
 14 43  1  1
 15 44  1  0
 15 45  1  0
 17 46  1  0
 18 47  1  0
 21 48  1  0
 21 49  1  0
 21 50  1  0
 22 51  1  0
 23 52  1  0
 24 53  1  0
 24 54  1  0
 25 55  1  0
 25 56  1  0
 26 57  1  0
M  CHG  1  14   1
M  END
>  <UniqueID>  (14) 
14

>  <SMILES>  (14) 
CCOc1cccc(CN2CCC[N@H+](Cc3ccc(SC)cc3)CC2)c1

>  <Energy>  (14) 
68.67910035136372

>  <Genealogy>  (14) 
CCOc1cccc(CN2CCC[NH+](Cc3ccc(SC)cc3)CC2)c1 (protonated)
CCOc1cccc(CN2CCC[N@H+](Cc3ccc(SC)cc3)CC2)c1 (chirality)
CCOc1cccc(CN2CCC[N@H+](Cc3ccc(SC)cc3)CC2)c1 (3D coordinates assigned)
CCOc1cccc(CN2CCC[N@H+](Cc3ccc(SC)cc3)CC2)c1 (nonaromatic ring conformer: 68.67910035136372 kcal/mol)

>  <smiles>  (14) 
CCOc1cccc(CN2CCCN(Cc3ccc(SC)cc3)CC2)c1

>  <score_type>  (14) 
oracle

>  <origin>  (14) 
adg

>  <m_score__min__energy>  (14) 
-4.4199999999999999

>  <m_primary>  (14) 
energy

$$$$
14:0
     RDKit          3D

 42 44  0  0  0  0  0  0  0  0999 V2000
   65.2890   32.8600   50.0540 C   0  0  0  0  0  0  0  0  0  0  0  0
   64.0490   33.1530   49.2020 C   0  0  0  0  0  0  0  0  0  0  0  0
   64.1500   32.5690   47.8500 N   0  0  0  0  0  0  0  0  0  0  0  0
   62.8720   32.5850   47.1080 C   0  0  0  0  0  0  0  0  0  0  0  0
   61.6510   32.2960   48.0050 C   0  0  0  0  0  0  0  0  0  0  0  0
   60.4420   32.9890   47.5240 N   0  0  0  0  0  0  0  0  0  0  0  0
   60.2420   34.3940   47.9110 C   0  0  0  0  0  0  0  0  0  0  0  0
   59.6490   35.1830   46.7470 C   0  0  0  0  0  0  0  0  0  0  0  0
   58.3050   34.5810   46.3350 C   0  0  0  0  0  0  0  0  0  0  0  0
   58.3930   33.0910   46.1250 C   0  0  0  0  0  0  0  0  0  0  0  0
   57.3910   32.4560   45.3740 C   0  0  0  0  0  0  0  0  0  0  0  0
   57.4000   31.0720   45.2160 C   0  0  0  0  0  0  0  0  0  0  0  0
   58.4190   30.3070   45.7920 C   0  0  0  0  0  0  0  0  0  0  0  0
   59.4070   30.9200   46.5640 C   0  0  0  0  0  0  0  0  0  0  0  0
   59.4140   32.3220   46.7430 C   0  0  0  0  0  0  0  0  0  0  0  0
   58.4320   28.9240   45.5850 O   0  0  0  0  0  0  0  0  0  0  0  0
   57.6030   28.3200   44.5880 C   0  0  0  0  0  0  0  0  0  0  0  0
   56.2330   29.0080   44.5480 C   0  0  0  0  0  0  0  0  0  0  0  0
   56.3950   30.4270   44.4880 O   0  0  0  0  0  0  0  0  0  0  0  0
   65.0246   32.9225   51.1199 H   0  0  0  0  0  0  0  0  0  0  0  0
   65.6596   31.8496   49.8268 H   0  0  0  0  0  0  0  0  0  0  0  0
   66.0727   33.5977   49.8268 H   0  0  0  0  0  0  0  0  0  0  0  0
   63.1661   32.7314   49.7048 H   0  0  0  0  0  0  0  0  0  0  0  0
   63.9648   34.2443   49.0928 H   0  0  0  0  0  0  0  0  0  0  0  0
   64.4850   31.5790   47.9210 H   0  0  0  0  0  0  0  0  0  0  0  0
   64.8790   33.0880   47.3110 H   0  0  0  0  0  0  0  0  0  0  0  0
   62.7443   33.5774   46.6511 H   0  0  0  0  0  0  0  0  0  0  0  0
   62.9206   31.7880   46.3514 H   0  0  0  0  0  0  0  0  0  0  0  0
   61.4618   31.2124   48.0106 H   0  0  0  0  0  0  0  0  0  0  0  0
   61.8758   32.6634   49.0172 H   0  0  0  0  0  0  0  0  0  0  0  0
   59.5547   34.4402   48.7686 H   0  0  0  0  0  0  0  0  0  0  0  0
   61.2133   34.8326   48.1835 H   0  0  0  0  0  0  0  0  0  0  0  0
   59.5004   36.2287   47.0544 H   0  0  0  0  0  0  0  0  0  0  0  0
   60.3404   35.1388   45.8926 H   0  0  0  0  0  0  0  0  0  0  0  0
   57.5675   34.7851   47.1252 H   0  0  0  0  0  0  0  0  0  0  0  0
   58.0052   35.0408   45.3818 H   0  0  0  0  0  0  0  0  0  0  0  0
   56.5945   33.0546   44.9079 H   0  0  0  0  0  0  0  0  0  0  0  0
   60.1875   30.3063   47.0375 H   0  0  0  0  0  0  0  0  0  0  0  0
   58.0872   28.4179   43.6052 H   0  0  0  0  0  0  0  0  0  0  0  0
   57.4630   27.2571   44.8344 H   0  0  0  0  0  0  0  0  0  0  0  0
   55.6811   28.6674   43.6595 H   0  0  0  0  0  0  0  0  0  0  0  0
   55.6743   28.7486   45.4593 H   0  0  0  0  0  0  0  0  0  0  0  0
  1  2  1  0
  2  3  1  0
  3  4  1  0
  4  5  1  0
  5  6  1  0
  6  7  1  0
  7  8  1  0
  8  9  1  0
  9 10  1  0
 10 11  2  0
 11 12  1  0
 12 13  2  0
 13 14  1  0
 14 15  2  0
 13 16  1  0
 16 17  1  0
 17 18  1  0
 18 19  1  0
 15  6  1  0
 15 10  1  0
 19 12  1  0
  1 20  1  0
  1 21  1  0
  1 22  1  0
  2 23  1  0
  2 24  1  0
  3 25  1  0
  3 26  1  0
  4 27  1  0
  4 28  1  0
  5 29  1  0
  5 30  1  0
  7 31  1  0
  7 32  1  0
  8 33  1  0
  8 34  1  0
  9 35  1  0
  9 36  1  0
 11 37  1  0
 14 38  1  0
 17 39  1  0
 17 40  1  0
 18 41  1  0
 18 42  1  0
M  CHG  1   3   1
M  END
>  <UniqueID>  (15) 
15

>  <SMILES>  (15) 
CC[NH2+]CCN1CCCc2cc3c(cc21)OCCO3

>  <Energy>  (15) 
41.92958312101666

>  <Genealogy>  (15) 
CC[NH2+]CCN1CCCc2cc3c(cc21)OCCO3 (protonated)
CC[NH2+]CCN1CCCc2cc3c(cc21)OCCO3 (3D coordinates assigned)
CC[NH2+]CCN1CCCc2cc3c(cc21)OCCO3 (nonaromatic ring conformer: 41.92958312101666 kcal/mol)

>  <smiles>  (15) 
CCNCCN1CCCc2cc3c(cc21)OCCO3

>  <score_type>  (15) 
oracle

>  <origin>  (15) 
adg

>  <m_score__min__energy>  (15) 
-5.0700000000000003

>  <m_primary>  (15) 
energy

$$$$
15:0
     RDKit          3D

 57 59  0  0  0  0  0  0  0  0999 V2000
   63.2900   33.7910   46.6290 C   0  0  0  0  0  0  0  0  0  0  0  0
   63.0200   32.3770   47.1630 C   0  0  0  0  0  0  0  0  0  0  0  0
   62.4020   32.3320   48.5110 N   0  0  0  0  0  0  0  0  0  0  0  0
   63.0080   31.2910   49.3580 C   0  0  0  0  0  0  0  0  0  0  0  0
   62.3650   33.6290   49.2240 C   0  0  0  0  0  0  0  0  0  0  0  0
   61.0110   34.3450   49.0890 C   0  0  0  0  0  0  0  0  0  0  0  0
   59.9300   33.7060   49.9680 C   0  0  0  0  0  0  0  0  0  0  0  0
   60.3020   32.3240   50.2950 N   0  0  0  0  0  0  0  0  0  0  0  0
   59.1030   31.5250   50.5680 C   0  0  0  0  0  0  0  0  0  0  0  0
   59.1180   30.2510   49.7200 C   0  0  0  0  0  0  0  0  0  0  0  0
   59.7790   30.4850   48.4340 N   0  0  0  0  0  0  0  0  0  0  0  0
   59.1080   30.2690   47.1800 C   0  0  0  0  0  0  0  0  0  0  0  0
   58.6200   28.9940   46.8440 C   0  0  0  0  0  0  0  0  0  0  0  0
   58.8630   27.8830   47.6800 C   0  0  0  0  0  0  0  0  0  0  0  0
   58.3130   26.6380   47.3860 C   0  0  0  0  0  0  0  0  0  0  0  0
   57.5140   26.4780   46.2600 C   0  0  0  0  0  0  0  0  0  0  0  0
   57.2990   27.5500   45.3960 C   0  0  0  0  0  0  0  0  0  0  0  0
   57.8870   28.8190   45.6400 C   0  0  0  0  0  0  0  0  0  0  0  0
   57.7530   29.8680   44.7480 N   0  0  0  0  0  0  0  0  0  0  0  0
   57.2380   29.6160   43.3830 C   0  0  0  0  0  0  0  0  0  0  0  0
   58.1390   31.1440   45.1150 C   0  0  0  0  0  0  0  0  0  0  0  0
   57.8050   32.2800   44.3340 C   0  0  0  0  0  0  0  0  0  0  0  0
   58.2500   33.5540   44.6860 C   0  0  0  0  0  0  0  0  0  0  0  0
   59.0260   33.7340   45.8250 C   0  0  0  0  0  0  0  0  0  0  0  0
   59.5920   35.3390   46.2570 Cl  0  0  0  0  0  0  0  0  0  0  0  0
   59.3330   32.6450   46.6380 C   0  0  0  0  0  0  0  0  0  0  0  0
   58.8710   31.3520   46.3150 C   0  0  0  0  0  0  0  0  0  0  0  0
   63.4221   34.4830   47.4738 H   0  0  0  0  0  0  0  0  0  0  0  0
   64.2029   33.7831   46.0153 H   0  0  0  0  0  0  0  0  0  0  0  0
   62.4384   34.1200   46.0153 H   0  0  0  0  0  0  0  0  0  0  0  0
   62.3451   31.8678   46.4593 H   0  0  0  0  0  0  0  0  0  0  0  0
   64.0003   31.8862   47.2536 H   0  0  0  0  0  0  0  0  0  0  0  0
   62.8588   31.5473   50.4173 H   0  0  0  0  0  0  0  0  0  0  0  0
   62.5328   30.3222   49.1447 H   0  0  0  0  0  0  0  0  0  0  0  0
   64.0852   31.2259   49.1447 H   0  0  0  0  0  0  0  0  0  0  0  0
   62.5626   33.4492   50.2911 H   0  0  0  0  0  0  0  0  0  0  0  0
   63.1292   34.2777   48.7710 H   0  0  0  0  0  0  0  0  0  0  0  0
   61.1347   35.3966   49.3872 H   0  0  0  0  0  0  0  0  0  0  0  0
   60.6875   34.2625   48.0409 H   0  0  0  0  0  0  0  0  0  0  0  0
   59.8266   34.2852   50.8974 H   0  0  0  0  0  0  0  0  0  0  0  0
   58.9750   33.7037   49.4221 H   0  0  0  0  0  0  0  0  0  0  0  0
   60.7760   31.9140   49.4560 H   0  0  0  0  0  0  0  0  0  0  0  0
   59.0815   31.2529   51.6336 H   0  0  0  0  0  0  0  0  0  0  0  0
   58.2103   32.1160   50.3155 H   0  0  0  0  0  0  0  0  0  0  0  0
   59.6587   29.4627   50.2643 H   0  0  0  0  0  0  0  0  0  0  0  0
   58.0790   29.9441   49.5296 H   0  0  0  0  0  0  0  0  0  0  0  0
   60.7420   30.8930   48.4250 H   0  0  0  0  0  0  0  0  0  0  0  0
   59.4936   28.0020   48.5734 H   0  0  0  0  0  0  0  0  0  0  0  0
   58.5111   25.7802   48.0456 H   0  0  0  0  0  0  0  0  0  0  0  0
   57.0503   25.5028   46.0504 H   0  0  0  0  0  0  0  0  0  0  0  0
   56.6627   27.4106   44.5096 H   0  0  0  0  0  0  0  0  0  0  0  0
   56.2516   29.1333   43.4466 H   0  0  0  0  0  0  0  0  0  0  0  0
   57.1451   30.5705   42.8441 H   0  0  0  0  0  0  0  0  0  0  0  0
   57.9346   28.9570   42.8441 H   0  0  0  0  0  0  0  0  0  0  0  0
   57.1840   32.1539   43.4348 H   0  0  0  0  0  0  0  0  0  0  0  0
   57.9860   34.4192   44.0602 H   0  0  0  0  0  0  0  0  0  0  0  0
   59.9422   32.7952   47.5415 H   0  0  0  0  0  0  0  0  0  0  0  0
  1  2  1  0
  2  3  1  0
  3  4  1  0
  3  5  1  0
  5  6  1  0
  6  7  1  0
  7  8  1  0
  8  9  1  0
  9 10  1  0
 10 11  1  0
 11 12  1  0
 12 13  2  0
 13 14  1  0
 14 15  2  0
 15 16  1  0
 16 17  2  0
 17 18  1  0
 18 19  2  0
 19 20  1  0
 19 21  1  0
 21 22  2  0
 22 23  1  0
 23 24  2  0
 24 25  1  0
 24 26  1  0
 26 27  2  0
 27 12  1  0
 18 13  1  0
 27 21  1  0
  1 28  1  0
  1 29  1  0
  1 30  1  0
  2 31  1  0
  2 32  1  0
  4 33  1  0
  4 34  1  0
  4 35  1  0
  5 36  1  0
  5 37  1  0
  6 38  1  0
  6 39  1  0
  7 40  1  0
  7 41  1  0
  8 42  1  0
  9 43  1  0
  9 44  1  0
 10 45  1  0
 10 46  1  0
 11 47  1  0
 14 48  1  0
 15 49  1  0
 16 50  1  0
 17 51  1  0
 20 52  1  0
 20 53  1  0
 20 54  1  0
 22 55  1  0
 23 56  1  0
 26 57  1  0
M  CHG  1  19   1
M  END
>  <UniqueID>  (16) 
16

>  <SMILES>  (16) 
CCN(C)CCCNCCNc1c2ccccc2[n+](C)c2ccc(Cl)cc12

>  <Energy>  (16) 
79.8937555571897

>  <Genealogy>  (16) 
CCN(C)CCCNCCNc1c2ccccc2[n+](C)c2ccc(Cl)cc12 (3D coordinates assigned)
CCN(C)CCCNCCNc1c2ccccc2[n+](C)c2ccc(Cl)cc12 (optimized conformer: 79.8937555571897 kcal/mol)

>  <smiles>  (16) 
CCN(C)CCCNCCNc1c2ccccc2[n+](C)c2ccc(Cl)cc12

>  <score_type>  (16) 
oracle

>  <origin>  (16) 
adg

>  <m_score__min__energy>  (16) 
-5.9800000000000004

>  <m_primary>  (16) 
energy

$$$$
16:0
     RDKit          3D

 67 69  0  0  0  0  0  0  0  0999 V2000
   56.9470   32.0010   52.3120 C   0  0  0  0  0  0  0  0  0  0  0  0
   57.3960   30.8560   51.3910 C   0  0  0  0  0  0  0  0  0  0  0  0
   58.7580   31.0360   50.8340 N   0  0  0  0  0  0  0  0  0  0  0  0
   59.5580   32.0370   51.5810 C   0  0  0  0  0  0  0  0  0  0  0  0
   59.5900   33.3450   50.8000 C   0  0  0  0  0  0  0  0  0  0  0  0
   59.4660   29.7560   50.6070 C   0  0  0  0  0  0  0  0  0  0  0  0
   60.7790   29.9990   49.8440 C   0  0  0  0  0  0  0  0  0  0  0  0
   60.5670   30.7570   48.5220 C   0  0  0  0  0  0  0  0  0  0  0  0
   59.1670   31.1830   48.3480 N   0  0  0  0  0  0  0  0  0  0  0  0
   58.8780   31.4290   46.9420 C   0  0  0  0  0  0  0  0  0  0  0  0
   59.0750   32.7170   46.3770 C   0  0  0  0  0  0  0  0  0  0  0  0
   59.7060   33.7580   47.1030 C   0  0  0  0  0  0  0  0  0  0  0  0
   59.8020   35.0450   46.5800 C   0  0  0  0  0  0  0  0  0  0  0  0
   59.2700   35.3290   45.3300 C   0  0  0  0  0  0  0  0  0  0  0  0
   58.6900   34.3150   44.5730 C   0  0  0  0  0  0  0  0  0  0  0  0
   58.6340   32.9780   45.0490 C   0  0  0  0  0  0  0  0  0  0  0  0
   58.1560   31.9510   44.2590 N   0  0  0  0  0  0  0  0  0  0  0  0
   57.9830   32.1620   42.8020 C   0  0  0  0  0  0  0  0  0  0  0  0
   57.9000   30.7100   44.8070 C   0  0  0  0  0  0  0  0  0  0  0  0
   57.2030   29.7110   44.0800 C   0  0  0  0  0  0  0  0  0  0  0  0
   57.0410   28.4250   44.5870 C   0  0  0  0  0  0  0  0  0  0  0  0
   57.5570   28.0910   45.8370 C   0  0  0  0  0  0  0  0  0  0  0  0
   57.4430   26.7430   46.3360 N   0  0  0  0  0  0  0  0  0  0  0  0
   58.5190   26.1760   47.1630 C   0  0  0  0  0  0  0  0  0  0  0  0
   59.8450   26.2110   46.4110 C   0  0  0  0  0  0  0  0  0  0  0  0
   56.2610   25.9330   46.0050 C   0  0  0  0  0  0  0  0  0  0  0  0
   56.6260   24.8410   45.0080 C   0  0  0  0  0  0  0  0  0  0  0  0
   58.1870   29.0770   46.6030 C   0  0  0  0  0  0  0  0  0  0  0  0
   58.3220   30.4050   46.1300 C   0  0  0  0  0  0  0  0  0  0  0  0
   57.0668   31.6955   53.3619 H   0  0  0  0  0  0  0  0  0  0  0  0
   57.5625   32.8915   52.1167 H   0  0  0  0  0  0  0  0  0  0  0  0
   55.8902   32.2357   52.1167 H   0  0  0  0  0  0  0  0  0  0  0  0
   57.3780   29.9195   51.9677 H   0  0  0  0  0  0  0  0  0  0  0  0
   56.7008   30.8386   50.5387 H   0  0  0  0  0  0  0  0  0  0  0  0
   59.1018   32.2095   52.5670 H   0  0  0  0  0  0  0  0  0  0  0  0
   60.5840   31.6628   51.7128 H   0  0  0  0  0  0  0  0  0  0  0  0
   59.6107   34.1911   51.5026 H   0  0  0  0  0  0  0  0  0  0  0  0
   60.4891   33.3721   50.1668 H   0  0  0  0  0  0  0  0  0  0  0  0
   58.6933   33.4160   50.1668 H   0  0  0  0  0  0  0  0  0  0  0  0
   59.6914   29.2892   51.5772 H   0  0  0  0  0  0  0  0  0  0  0  0
   58.8230   29.0930   50.0095 H   0  0  0  0  0  0  0  0  0  0  0  0
   61.4533   30.5881   50.4830 H   0  0  0  0  0  0  0  0  0  0  0  0
   61.2067   29.0159   49.5979 H   0  0  0  0  0  0  0  0  0  0  0  0
   61.2125   31.6476   48.5159 H   0  0  0  0  0  0  0  0  0  0  0  0
   60.8201   30.0763   47.6958 H   0  0  0  0  0  0  0  0  0  0  0  0
   58.5090   30.4740   48.7350 H   0  0  0  0  0  0  0  0  0  0  0  0
   58.9650   32.0280   48.9270 H   0  0  0  0  0  0  0  0  0  0  0  0
   60.1272   33.5456   48.0967 H   0  0  0  0  0  0  0  0  0  0  0  0
   60.3000   35.8373   47.1582 H   0  0  0  0  0  0  0  0  0  0  0  0
   59.3067   36.3559   44.9373 H   0  0  0  0  0  0  0  0  0  0  0  0
   58.2665   34.5540   43.5863 H   0  0  0  0  0  0  0  0  0  0  0  0
   57.2939   33.0025   42.6325 H   0  0  0  0  0  0  0  0  0  0  0  0
   58.9579   32.3895   42.3461 H   0  0  0  0  0  0  0  0  0  0  0  0
   57.5688   31.2506   42.3461 H   0  0  0  0  0  0  0  0  0  0  0  0
   56.7815   29.9580   43.0944 H   0  0  0  0  0  0  0  0  0  0  0  0
   56.5026   27.6683   43.9974 H   0  0  0  0  0  0  0  0  0  0  0  0
   58.6120   26.7633   48.0885 H   0  0  0  0  0  0  0  0  0  0  0  0
   58.2721   25.1307   47.4005 H   0  0  0  0  0  0  0  0  0  0  0  0
   60.6752   26.2329   47.1324 H   0  0  0  0  0  0  0  0  0  0  0  0
   59.9319   25.3148   45.7791 H   0  0  0  0  0  0  0  0  0  0  0  0
   59.8845   27.1105   45.7791 H   0  0  0  0  0  0  0  0  0  0  0  0
   55.8709   25.4695   46.9231 H   0  0  0  0  0  0  0  0  0  0  0  0
   55.4971   26.5846   45.5557 H   0  0  0  0  0  0  0  0  0  0  0  0
   56.9291   23.9342   45.5520 H   0  0  0  0  0  0  0  0  0  0  0  0
   55.7544   24.6153   44.3760 H   0  0  0  0  0  0  0  0  0  0  0  0
   57.4581   25.1848   44.3760 H   0  0  0  0  0  0  0  0  0  0  0  0
   58.5862   28.8154   47.5941 H   0  0  0  0  0  0  0  0  0  0  0  0
  1  2  1  0
  2  3  1  0
  3  4  1  0
  4  5  1  0
  3  6  1  0
  6  7  1  0
  7  8  1  0
  8  9  1  0
  9 10  1  0
 10 11  2  0
 11 12  1  0
 12 13  2  0
 13 14  1  0
 14 15  2  0
 15 16  1  0
 16 17  2  0
 17 18  1  0
 17 19  1  0
 19 20  2  0
 20 21  1  0
 21 22  2  0
 22 23  1  0
 23 24  1  0
 24 25  1  0
 23 26  1  0
 26 27  1  0
 22 28  1  0
 28 29  2  0
 29 10  1  0
 16 11  1  0
 29 19  1  0
  1 30  1  0
  1 31  1  0
  1 32  1  0
  2 33  1  0
  2 34  1  0
  4 35  1  0
  4 36  1  0
  5 37  1  0
  5 38  1  0
  5 39  1  0
  6 40  1  0
  6 41  1  0
  7 42  1  0
  7 43  1  0
  8 44  1  0
  8 45  1  0
  9 46  1  0
  9 47  1  0
 12 48  1  0
 13 49  1  0
 14 50  1  0
 15 51  1  0
 18 52  1  0
 18 53  1  0
 18 54  1  0
 20 55  1  0
 21 56  1  0
 24 57  1  0
 24 58  1  0
 25 59  1  0
 25 60  1  0
 25 61  1  0
 26 62  1  0
 26 63  1  0
 27 64  1  0
 27 65  1  0
 27 66  1  0
 28 67  1  0
M  CHG  2   9   1  17   1
M  END
>  <UniqueID>  (17) 
17

>  <SMILES>  (17) 
CCN(CC)CCC[NH2+]c1c2ccccc2[n+](C)c2ccc(N(CC)CC)cc12

>  <Energy>  (17) 
91.63661235562982

>  <Genealogy>  (17) 
CCN(CC)CCC[NH2+]c1c2ccccc2[n+](C)c2ccc(N(CC)CC)cc12 (protonated)
CCN(CC)CCC[NH2+]c1c2ccccc2[n+](C)c2ccc(N(CC)CC)cc12 (3D coordinates assigned)
CCN(CC)CCC[NH2+]c1c2ccccc2[n+](C)c2ccc(N(CC)CC)cc12 (optimized conformer: 91.63661235562982 kcal/mol)

>  <smiles>  (17) 
CCN(CC)CCCNc1c2ccccc2[n+](C)c2ccc(N(CC)CC)cc12

>  <score_type>  (17) 
oracle

>  <origin>  (17) 
adg

>  <m_score__min__energy>  (17) 
-4.6399999999999997

>  <m_primary>  (17) 
energy

$$$$
17:0
     RDKit          3D

 59 61  0  0  0  0  0  0  0  0999 V2000
   60.7510   27.9230   49.3490 C   0  0  0  0  0  0  0  0  0  0  0  0
   60.1270   26.7220   48.6440 C   0  0  0  0  0  0  0  0  0  0  0  0
   60.5320   26.6670   47.1690 C   0  0  0  0  0  0  0  0  0  0  0  0
   59.4250   27.1730   46.3270 N   0  0  0  0  0  0  0  0  0  0  0  0
   58.4000   26.1330   46.0900 C   0  0  0  0  0  0  0  0  0  0  0  0
   57.0060   26.6960   46.3560 C   0  0  0  0  0  0  0  0  0  0  0  0
   59.9320   27.7330   45.0520 C   0  0  0  0  0  0  0  0  0  0  0  0
   60.6510   29.0650   45.3190 C   0  0  0  0  0  0  0  0  0  0  0  0
   60.3210   29.6320   46.6410 N   0  0  0  0  0  0  0  0  0  0  0  0
   60.3330   31.0910   46.6310 C   0  0  0  0  0  0  0  0  0  0  0  0
   61.4560   31.8260   47.1170 C   0  0  0  0  0  0  0  0  0  0  0  0
   62.6310   31.1910   47.6020 C   0  0  0  0  0  0  0  0  0  0  0  0
   63.7350   31.9320   48.0140 C   0  0  0  0  0  0  0  0  0  0  0  0
   63.7110   33.3160   47.9530 C   0  0  0  0  0  0  0  0  0  0  0  0
   62.5660   33.9710   47.5180 C   0  0  0  0  0  0  0  0  0  0  0  0
   61.4030   33.2500   47.1360 C   0  0  0  0  0  0  0  0  0  0  0  0
   60.2450   33.9110   46.7860 N   0  0  0  0  0  0  0  0  0  0  0  0
   60.0750   35.3400   47.1350 C   0  0  0  0  0  0  0  0  0  0  0  0
   59.2260   33.2340   46.1510 C   0  0  0  0  0  0  0  0  0  0  0  0
   58.1630   33.9330   45.5260 C   0  0  0  0  0  0  0  0  0  0  0  0
   57.0890   33.2590   44.9590 C   0  0  0  0  0  0  0  0  0  0  0  0
   57.0450   31.8660   44.9740 C   0  0  0  0  0  0  0  0  0  0  0  0
   55.9160   31.1430   44.4630 N   0  0  0  0  0  0  0  0  0  0  0  0
   55.8940   29.7730   44.0470 C   0  0  0  0  0  0  0  0  0  0  0  0
   56.3380   29.3480   42.6800 C   0  0  0  0  0  0  0  0  0  0  0  0
   55.5220   28.8920   44.8680 O   0  0  0  0  0  0  0  0  0  0  0  0
   58.0900   31.1540   45.5630 C   0  0  0  0  0  0  0  0  0  0  0  0
   59.2200   31.8130   46.1150 C   0  0  0  0  0  0  0  0  0  0  0  0
   60.6800   27.7864   50.4382 H   0  0  0  0  0  0  0  0  0  0  0  0
   61.8084   28.0101   49.0585 H   0  0  0  0  0  0  0  0  0  0  0  0
   60.2144   28.8382   49.0585 H   0  0  0  0  0  0  0  0  0  0  0  0
   60.4631   25.8005   49.1419 H   0  0  0  0  0  0  0  0  0  0  0  0
   59.0326   26.8189   48.6989 H   0  0  0  0  0  0  0  0  0  0  0  0
   61.4248   27.2900   47.0118 H   0  0  0  0  0  0  0  0  0  0  0  0
   60.7535   25.6259   46.8913 H   0  0  0  0  0  0  0  0  0  0  0  0
   58.4615   25.7936   45.0455 H   0  0  0  0  0  0  0  0  0  0  0  0
   58.5818   25.2883   46.7708 H   0  0  0  0  0  0  0  0  0  0  0  0
   56.8388   26.7635   47.4411 H   0  0  0  0  0  0  0  0  0  0  0  0
   56.9238   27.6978   45.9093 H   0  0  0  0  0  0  0  0  0  0  0  0
   56.2511   26.0323   45.9093 H   0  0  0  0  0  0  0  0  0  0  0  0
   60.6368   27.0225   44.5955 H   0  0  0  0  0  0  0  0  0  0  0  0
   59.0870   27.9063   44.3694 H   0  0  0  0  0  0  0  0  0  0  0  0
   61.7367   28.8956   45.2692 H   0  0  0  0  0  0  0  0  0  0  0  0
   60.3174   29.7831   44.5554 H   0  0  0  0  0  0  0  0  0  0  0  0
   61.0010   29.2750   47.3490 H   0  0  0  0  0  0  0  0  0  0  0  0
   59.4310   29.2220   46.9870 H   0  0  0  0  0  0  0  0  0  0  0  0
   62.6689   30.0928   47.6529 H   0  0  0  0  0  0  0  0  0  0  0  0
   64.6309   31.4162   48.3899 H   0  0  0  0  0  0  0  0  0  0  0  0
   64.5979   33.8955   48.2488 H   0  0  0  0  0  0  0  0  0  0  0  0
   62.5596   35.0699   47.4683 H   0  0  0  0  0  0  0  0  0  0  0  0
   60.0618   35.4511   48.2293 H   0  0  0  0  0  0  0  0  0  0  0  0
   60.9103   35.9213   46.7175 H   0  0  0  0  0  0  0  0  0  0  0  0
   59.1266   35.7091   46.7175 H   0  0  0  0  0  0  0  0  0  0  0  0
   58.1892   35.0321   45.4893 H   0  0  0  0  0  0  0  0  0  0  0  0
   56.2691   33.8275   44.4958 H   0  0  0  0  0  0  0  0  0  0  0  0
   57.1299   28.5900   42.7709 H   0  0  0  0  0  0  0  0  0  0  0  0
   55.4839   28.9222   42.1329 H   0  0  0  0  0  0  0  0  0  0  0  0
   56.7260   30.2199   42.1329 H   0  0  0  0  0  0  0  0  0  0  0  0
   58.0373   30.0559   45.6007 H   0  0  0  0  0  0  0  0  0  0  0  0
  1  2  1  0
  2  3  1  0
  3  4  1  0
  4  5  1  0
  5  6  1  0
  4  7  1  0
  7  8  1  0
  8  9  1  0
  9 10  1  0
 10 11  2  0
 11 12  1  0
 12 13  2  0
 13 14  1  0
 14 15  2  0
 15 16  1  0
 16 17  2  0
 17 18  1  0
 17 19  1  0
 19 20  2  0
 20 21  1  0
 21 22  2  0
 22 23  1  0
 23 24  1  0
 24 25  1  0
 24 26  2  0
 22 27  1  0
 27 28  2  0
 28 10  1  0
 16 11  1  0
 28 19  1  0
  1 29  1  0
  1 30  1  0
  1 31  1  0
  2 32  1  0
  2 33  1  0
  3 34  1  0
  3 35  1  0
  5 36  1  0
  5 37  1  0
  6 38  1  0
  6 39  1  0
  6 40  1  0
  7 41  1  0
  7 42  1  0
  8 43  1  0
  8 44  1  0
  9 45  1  0
  9 46  1  0
 12 47  1  0
 13 48  1  0
 14 49  1  0
 15 50  1  0
 18 51  1  0
 18 52  1  0
 18 53  1  0
 20 54  1  0
 21 55  1  0
 25 56  1  0
 25 57  1  0
 25 58  1  0
 27 59  1  0
M  CHG  3   9   1  17   1  23  -1
M  END
>  <UniqueID>  (18) 
18

>  <SMILES>  (18) 
CCCN(CC)CC[NH2+]c1c2ccccc2[n+](C)c2ccc([N-]C(C)=O)cc12

>  <Energy>  (18) 
89.09282684354369

>  <Genealogy>  (18) 
CCCN(CC)CC[NH2+]c1c2ccccc2[n+](C)c2ccc([N-]C(C)=O)cc12 (protonated)
CCCN(CC)CC[NH2+]c1c2ccccc2[n+](C)c2ccc([N-]C(C)=O)cc12 (3D coordinates assigned)
CCCN(CC)CC[NH2+]c1c2ccccc2[n+](C)c2ccc([N-]C(C)=O)cc12 (optimized conformer: 89.09282684354369 kcal/mol)

>  <smiles>  (18) 
CCCN(CC)CCNc1c2ccccc2[n+](C)c2ccc(NC(C)=O)cc12

>  <score_type>  (18) 
oracle

>  <origin>  (18) 
adg

>  <m_score__min__energy>  (18) 
-7.0599999999999996

>  <m_primary>  (18) 
energy

$$$$
18:0
     RDKit          3D

 58 60  0  0  0  0  0  0  0  0999 V2000
   63.4060   31.6290   47.1740 C   0  0  0  0  0  0  0  0  0  0  0  0
   61.9310   32.0120   47.1450 C   0  0  0  0  0  0  0  0  0  0  0  0
   61.7700   33.3960   47.6440 N   0  0  0  0  0  0  0  0  0  0  0  0
   63.0280   33.9950   48.1400 C   0  0  0  0  0  0  0  0  0  0  0  0
   63.0000   34.1870   49.6560 C   0  0  0  0  0  0  0  0  0  0  0  0
   60.9230   34.2550   46.7750 C   0  0  0  0  0  0  0  0  0  0  0  0
   59.8170   33.5350   45.9630 C   0  0  0  0  0  0  0  0  0  0  0  0
   58.3960   33.6700   46.5230 C   0  0  0  0  0  0  0  0  0  0  0  0
   57.8190   32.3640   46.8630 N   0  0  0  0  0  0  0  0  0  0  0  0
   58.5570   31.3960   47.6300 C   0  0  0  0  0  0  0  0  0  0  0  0
   59.1620   31.7920   48.8380 C   0  0  0  0  0  0  0  0  0  0  0  0
   58.9370   33.0810   49.3730 C   0  0  0  0  0  0  0  0  0  0  0  0
   59.5980   33.5010   50.5230 C   0  0  0  0  0  0  0  0  0  0  0  0
   60.4950   32.6510   51.1590 C   0  0  0  0  0  0  0  0  0  0  0  0
   60.6980   31.3600   50.6750 C   0  0  0  0  0  0  0  0  0  0  0  0
   59.9990   30.8860   49.5350 C   0  0  0  0  0  0  0  0  0  0  0  0
   60.1300   29.5840   49.0940 N   0  0  0  0  0  0  0  0  0  0  0  0
   60.7570   28.5700   49.9740 C   0  0  0  0  0  0  0  0  0  0  0  0
   59.6320   29.2130   47.8580 C   0  0  0  0  0  0  0  0  0  0  0  0
   59.9820   27.9700   47.2730 C   0  0  0  0  0  0  0  0  0  0  0  0
   59.4300   27.5600   46.0670 C   0  0  0  0  0  0  0  0  0  0  0  0
   58.5100   28.3610   45.4130 C   0  0  0  0  0  0  0  0  0  0  0  0
   58.1490   29.6090   45.9350 C   0  0  0  0  0  0  0  0  0  0  0  0
   57.1870   30.4040   45.2270 N   0  0  0  0  0  0  0  0  0  0  0  0
   56.1550   29.9240   44.3520 C   0  0  0  0  0  0  0  0  0  0  0  0
   56.2660   30.0270   42.8620 C   0  0  0  0  0  0  0  0  0  0  0  0
   55.1430   29.3690   44.8530 O   0  0  0  0  0  0  0  0  0  0  0  0
   58.7680   30.0860   47.1310 C   0  0  0  0  0  0  0  0  0  0  0  0
   63.7417   31.5418   48.2179 H   0  0  0  0  0  0  0  0  0  0  0  0
   63.5447   30.6651   46.6625 H   0  0  0  0  0  0  0  0  0  0  0  0
   63.9961   32.4037   46.6625 H   0  0  0  0  0  0  0  0  0  0  0  0
   61.5561   31.9486   46.1128 H   0  0  0  0  0  0  0  0  0  0  0  0
   61.3609   31.3230   47.7855 H   0  0  0  0  0  0  0  0  0  0  0  0
   63.8662   33.3319   47.8795 H   0  0  0  0  0  0  0  0  0  0  0  0
   63.1477   34.9824   47.6702 H   0  0  0  0  0  0  0  0  0  0  0  0
   63.1417   33.2151   50.1514 H   0  0  0  0  0  0  0  0  0  0  0  0
   63.8078   34.8716   49.9539 H   0  0  0  0  0  0  0  0  0  0  0  0
   62.0303   34.6124   49.9539 H   0  0  0  0  0  0  0  0  0  0  0  0
   60.4339   35.0020   47.4175 H   0  0  0  0  0  0  0  0  0  0  0  0
   61.6079   34.6777   46.0252 H   0  0  0  0  0  0  0  0  0  0  0  0
   59.8207   33.9486   44.9437 H   0  0  0  0  0  0  0  0  0  0  0  0
   60.0590   32.4628   46.0061 H   0  0  0  0  0  0  0  0  0  0  0  0
   58.4279   34.2923   47.4295 H   0  0  0  0  0  0  0  0  0  0  0  0
   57.7654   34.1319   45.7491 H   0  0  0  0  0  0  0  0  0  0  0  0
   56.8070   32.1780   46.6930 H   0  0  0  0  0  0  0  0  0  0  0  0
   58.2305   33.7605   48.8739 H   0  0  0  0  0  0  0  0  0  0  0  0
   59.4106   34.5060   50.9289 H   0  0  0  0  0  0  0  0  0  0  0  0
   61.0456   32.9978   52.0459 H   0  0  0  0  0  0  0  0  0  0  0  0
   61.4123   30.6973   51.1855 H   0  0  0  0  0  0  0  0  0  0  0  0
   60.5882   28.8429   51.0262 H   0  0  0  0  0  0  0  0  0  0  0  0
   60.3102   27.5848   49.7746 H   0  0  0  0  0  0  0  0  0  0  0  0
   61.8380   28.5295   49.7746 H   0  0  0  0  0  0  0  0  0  0  0  0
   60.7050   27.3177   47.7846 H   0  0  0  0  0  0  0  0  0  0  0  0
   59.7249   26.5948   45.6295 H   0  0  0  0  0  0  0  0  0  0  0  0
   58.0574   28.0132   44.4727 H   0  0  0  0  0  0  0  0  0  0  0  0
   57.0495   30.7540   42.6021 H   0  0  0  0  0  0  0  0  0  0  0  0
   56.5259   29.0429   42.4448 H   0  0  0  0  0  0  0  0  0  0  0  0
   55.3041   30.3597   42.4448 H   0  0  0  0  0  0  0  0  0  0  0  0
  1  2  1  0
  2  3  1  0
  3  4  1  0
  4  5  1  0
  3  6  1  0
  6  7  1  0
  7  8  1  0
  8  9  1  0
  9 10  1  0
 10 11  2  0
 11 12  1  0
 12 13  2  0
 13 14  1  0
 14 15  2  0
 15 16  1  0
 16 17  2  0
 17 18  1  0
 17 19  1  0
 19 20  2  0
 20 21  1  0
 21 22  2  0
 22 23  1  0
 23 24  1  0
 24 25  1  0
 25 26  1  0
 25 27  2  0
 23 28  2  0
 28 10  1  0
 16 11  1  0
 28 19  1  0
  1 29  1  0
  1 30  1  0
  1 31  1  0
  2 32  1  0
  2 33  1  0
  4 34  1  0
  4 35  1  0
  5 36  1  0
  5 37  1  0
  5 38  1  0
  6 39  1  0
  6 40  1  0
  7 41  1  0
  7 42  1  0
  8 43  1  0
  8 44  1  0
  9 45  1  0
 12 46  1  0
 13 47  1  0
 14 48  1  0
 15 49  1  0
 18 50  1  0
 18 51  1  0
 18 52  1  0
 20 53  1  0
 21 54  1  0
 22 55  1  0
 26 56  1  0
 26 57  1  0
 26 58  1  0
M  CHG  2  17   1  24  -1
M  END
>  <UniqueID>  (19) 
19

>  <SMILES>  (19) 
CCN(CC)CCCNc1c2ccccc2[n+](C)c2cccc([N-]C(C)=O)c12

>  <Energy>  (19) 
97.14932672216463

>  <Genealogy>  (19) 
CCN(CC)CCCNc1c2ccccc2[n+](C)c2cccc([N-]C(C)=O)c12 (protonated)
CCN(CC)CCCNc1c2ccccc2[n+](C)c2cccc([N-]C(C)=O)c12 (3D coordinates assigned)
CCN(CC)CCCNc1c2ccccc2[n+](C)c2cccc([N-]C(C)=O)c12 (optimized conformer: 97.14932672216463 kcal/mol)

>  <smiles>  (19) 
CCN(CC)CCCNc1c2ccccc2[n+](C)c2cccc(NC(C)=O)c12

>  <score_type>  (19) 
oracle

>  <origin>  (19) 
adg

>  <m_score__min__energy>  (19) 
-7.7999999999999998

>  <m_primary>  (19) 
energy

$$$$
19:0
     RDKit          3D

 30 32  0  0  0  0  0  0  0  0999 V2000
   56.4953   32.4437   43.6309 H   0  0  0  0  0  0  0  0  0  0  0  0
   56.9430   31.5390   44.0680 C   0  0  0  0  0  0  0  0  0  0  0  0
   58.3130   31.4850   44.3100 C   0  0  0  0  0  0  0  0  0  0  0  0
   58.9465   32.3497   44.0631 H   0  0  0  0  0  0  0  0  0  0  0  0
   58.8880   30.3380   44.8650 C   0  0  0  0  0  0  0  0  0  0  0  0
   59.9720   30.3088   45.0499 H   0  0  0  0  0  0  0  0  0  0  0  0
   58.0900   29.2100   45.1930 C   0  0  0  0  0  0  0  0  0  0  0  0
   56.7050   29.2890   44.9380 C   0  0  0  0  0  0  0  0  0  0  0  0
   55.8940   28.2560   45.2460 N   0  0  0  0  0  0  0  0  0  0  0  0
   56.3120   27.0880   45.7900 C   0  0  0  0  0  0  0  0  0  0  0  0
   55.3500   26.2520   46.0970 N   0  0  0  0  0  0  0  0  0  0  0  0
   54.9260   24.9230   45.6630 C   0  0  0  0  0  0  0  0  0  0  0  0
   53.9433   25.0025   45.1751 H   0  0  0  0  0  0  0  0  0  0  0  0
   54.8713   24.2713   46.5475 H   0  0  0  0  0  0  0  0  0  0  0  0
   55.9230   24.3130   44.6770 C   0  0  0  0  0  0  0  0  0  0  0  0
   56.7325   23.8177   45.2333 H   0  0  0  0  0  0  0  0  0  0  0  0
   55.4081   23.5751   44.0442 H   0  0  0  0  0  0  0  0  0  0  0  0
   56.3456   25.1074   44.0442 H   0  0  0  0  0  0  0  0  0  0  0  0
   57.7210   26.9010   46.0120 C   0  0  0  0  0  0  0  0  0  0  0  0
   58.3000   25.6810   46.4400 C   0  0  0  0  0  0  0  0  0  0  0  0
   57.6541   24.8019   46.5817 H   0  0  0  0  0  0  0  0  0  0  0  0
   59.6660   25.5660   46.6860 C   0  0  0  0  0  0  0  0  0  0  0  0
   60.0804   24.6094   47.0370 H   0  0  0  0  0  0  0  0  0  0  0  0
   60.5040   26.6490   46.4910 C   0  0  0  0  0  0  0  0  0  0  0  0
   61.5782   26.5588   46.7101 H   0  0  0  0  0  0  0  0  0  0  0  0
   59.9910   27.8500   46.0190 C   0  0  0  0  0  0  0  0  0  0  0  0
   60.6702   28.6998   45.8560 H   0  0  0  0  0  0  0  0  0  0  0  0
   58.6080   28.0020   45.7430 C   0  0  0  0  0  0  0  0  0  0  0  0
   56.1410   30.4440   44.3810 C   0  0  0  0  0  0  0  0  0  0  0  0
   55.0586   30.4865   44.1897 H   0  0  0  0  0  0  0  0  0  0  0  0
  1  2  1  0
  2  3  2  0
  3  4  1  0
  3  5  1  0
  5  6  1  0
  5  7  2  0
  7  8  1  0
  8  9  1  0
  9 10  1  0
 10 11  2  0
 11 12  1  0
 12 13  1  0
 12 14  1  0
 12 15  1  0
 15 16  1  0
 15 17  1  0
 15 18  1  0
 10 19  1  0
 19 20  2  0
 20 21  1  0
 20 22  1  0
 22 23  1  0
 22 24  2  0
 24 25  1  0
 24 26  1  0
 26 27  1  0
 26 28  2  0
  8 29  2  0
 29 30  1  0
 29  2  1  0
 28  7  1  0
 28 19  1  0
M  CHG  1   9  -1
M  END
>  <UniqueID>  (20) 
20

>  <SMILES>  (20) 
CC/N=c1/[n-]c2ccccc2c2ccccc12

>  <Energy>  (20) 
61.07730155190054

>  <Genealogy>  (20) 
CCN=c1[n-]c2ccccc2c2ccccc12 (protonated)
CC/N=c1/[n-]c2ccccc2c2ccccc12 (cis-trans isomerization)
CC/N=c1/[n-]c2ccccc2c2ccccc12 (3D coordinates assigned)
CC/N=c1/[n-]c2ccccc2c2ccccc12 (optimized conformer: 61.07730155190054 kcal/mol)

>  <smiles>  (20) 
CCN=c1[nH]c2ccccc2c2ccccc12

>  <score_type>  (20) 
oracle

>  <origin>  (20) 
adg

>  <m_score__min__energy>  (20) 
-8.6300000000000008

>  <m_primary>  (20) 
energy

$$$$
20:0
     RDKit          3D

 66 68  0  0  1  0  0  0  0  0999 V2000
   55.7370   23.0460   44.4900 C   0  0  0  0  0  0  0  0  0  0  0  0
   54.6050   23.3300   45.4520 C   0  0  0  0  0  0  0  0  0  0  0  0
   55.1750   23.7490   46.6670 O   0  0  0  0  0  0  0  0  0  0  0  0
   56.0400   24.8300   46.6570 C   0  0  0  0  0  0  0  0  0  0  0  0
   55.6190   25.9630   46.0030 C   0  0  0  0  0  0  0  0  0  0  0  0
   56.4910   27.0310   46.0010 C   0  0  0  0  0  0  0  0  0  0  0  0
   56.0750   28.1360   45.3440 N   0  0  0  0  0  0  0  0  0  0  0  0
   56.8980   29.1940   45.3050 C   0  0  0  0  0  0  0  0  0  0  0  0
   56.3870   30.7080   44.4590 S   0  0  0  0  0  0  0  0  0  0  0  0
   57.6550   32.0020   44.7000 C   0  0  0  0  0  0  0  0  0  0  0  0
   57.2810   32.9520   45.8050 C   0  0  0  0  0  0  0  0  0  0  0  0
   58.3090   33.3310   46.6870 N   0  0  0  0  0  0  0  0  0  0  0  0
   59.4830   33.9130   46.1510 C   0  0  0  0  0  0  0  0  0  0  0  0
   59.3250   35.0840   45.2500 C   0  0  0  0  0  0  0  0  0  0  0  0
   58.4330   32.6980   47.9390 C   0  0  0  0  0  0  0  0  0  0  0  0
   59.3430   33.4910   48.8430 C   0  0  0  0  0  0  0  0  0  0  0  0
   58.0810   29.1310   45.9050 N   0  0  0  0  0  0  0  0  0  0  0  0
   58.5200   28.0220   46.5760 C   0  0  0  0  0  0  0  0  0  0  0  0
   59.6280   28.0890   47.1030 N   0  0  0  0  0  0  0  0  0  0  0  0
   60.3080   29.1520   47.5960 C   0  0  0  0  0  0  0  0  0  0  0  0
   60.8080   30.1100   46.6750 C   0  0  0  0  0  0  0  0  0  0  0  0
   61.5930   31.1460   47.0630 C   0  0  0  0  0  0  0  0  0  0  0  0
   61.9090   31.2610   48.4110 C   0  0  0  0  0  0  0  0  0  0  0  0
   62.7700   32.4100   48.7870 C   0  0  0  0  0  0  0  0  0  0  0  0
   63.3510   33.0920   47.5670 C   0  0  0  0  0  0  0  0  0  0  0  0
   61.4310   30.3380   49.3150 C   0  0  0  0  0  0  0  0  0  0  0  0
   60.6290   29.2700   48.9540 C   0  0  0  0  0  0  0  0  0  0  0  0
   57.7080   26.9280   46.6340 C   0  0  0  0  0  0  0  0  0  0  0  0
   58.0920   25.7880   47.2720 C   0  0  0  0  0  0  0  0  0  0  0  0
   57.2300   24.6760   47.2940 C   0  0  0  0  0  0  0  0  0  0  0  0
   57.5820   23.4940   47.9340 O   0  0  0  0  0  0  0  0  0  0  0  0
   56.7070   22.9080   48.8450 C   0  0  0  0  0  0  0  0  0  0  0  0
   56.6512   22.8166   45.0571 H   0  0  0  0  0  0  0  0  0  0  0  0
   55.4730   22.1863   43.8566 H   0  0  0  0  0  0  0  0  0  0  0  0
   55.9101   23.9286   43.8566 H   0  0  0  0  0  0  0  0  0  0  0  0
   53.9590   24.1231   45.0475 H   0  0  0  0  0  0  0  0  0  0  0  0
   53.9913   22.4297   45.6032 H   0  0  0  0  0  0  0  0  0  0  0  0
   54.6383   26.0150   45.5074 H   0  0  0  0  0  0  0  0  0  0  0  0
   55.1420   28.1990   44.8680 H   0  0  0  0  0  0  0  0  0  0  0  0
   58.6113   31.5207   44.9527 H   0  0  0  0  0  0  0  0  0  0  0  0
   57.7369   32.5784   43.7667 H   0  0  0  0  0  0  0  0  0  0  0  0
   56.8875   33.8673   45.3387 H   0  0  0  0  0  0  0  0  0  0  0  0
   56.5560   32.4038   46.4245 H   0  0  0  0  0  0  0  0  0  0  0  0
   60.1074   34.2325   46.9983 H   0  0  0  0  0  0  0  0  0  0  0  0
   59.9156   33.1282   45.5131 H   0  0  0  0  0  0  0  0  0  0  0  0
   59.2019   35.9961   45.8524 H   0  0  0  0  0  0  0  0  0  0  0  0
   60.2181   35.1815   44.6153 H   0  0  0  0  0  0  0  0  0  0  0  0
   58.4380   34.9413   44.6153 H   0  0  0  0  0  0  0  0  0  0  0  0
   57.4396   32.6185   48.4046 H   0  0  0  0  0  0  0  0  0  0  0  0
   58.8630   31.6965   47.7906 H   0  0  0  0  0  0  0  0  0  0  0  0
   59.0956   33.2754   49.8929 H   0  0  0  0  0  0  0  0  0  0  0  0
   60.3887   33.2109   48.6478 H   0  0  0  0  0  0  0  0  0  0  0  0
   59.2085   34.5652   48.6478 H   0  0  0  0  0  0  0  0  0  0  0  0
   60.5500   30.0086   45.6105 H   0  0  0  0  0  0  0  0  0  0  0  0
   61.9691   31.8752   46.3303 H   0  0  0  0  0  0  0  0  0  0  0  0
   62.1681   33.1381   49.3505 H   0  0  0  0  0  0  0  0  0  0  0  0
   63.6019   32.0315   49.3991 H   0  0  0  0  0  0  0  0  0  0  0  0
   64.0338   33.8935   47.8853 H   0  0  0  0  0  0  0  0  0  0  0  0
   63.9044   32.3566   46.9645 H   0  0  0  0  0  0  0  0  0  0  0  0
   62.5370   33.5215   46.9645 H   0  0  0  0  0  0  0  0  0  0  0  0
   61.6999   30.4558   50.3751 H   0  0  0  0  0  0  0  0  0  0  0  0
   60.2611   28.5481   49.6980 H   0  0  0  0  0  0  0  0  0  0  0  0
   59.0723   25.7365   47.7683 H   0  0  0  0  0  0  0  0  0  0  0  0
   57.0404   23.1313   49.8692 H   0  0  0  0  0  0  0  0  0  0  0  0
   55.6949   23.3112   48.6927 H   0  0  0  0  0  0  0  0  0  0  0  0
   56.6945   21.8187   48.6927 H   0  0  0  0  0  0  0  0  0  0  0  0
  1  2  1  0
  2  3  1  0
  3  4  1  0
  4  5  2  0
  5  6  1  0
  6  7  1  0
  7  8  1  0
  8  9  1  0
  9 10  1  0
 10 11  1  0
 11 12  1  0
 12 13  1  0
 13 14  1  0
 12 15  1  0
 15 16  1  0
  8 17  2  0
 17 18  1  0
 18 19  2  0
 19 20  1  0
 20 21  2  0
 21 22  1  0
 22 23  2  0
 23 24  1  0
 24 25  1  0
 23 26  1  0
 26 27  2  0
 18 28  1  0
 28 29  1  0
 29 30  2  0
 30 31  1  0
 31 32  1  0
 30  4  1  0
 28  6  2  0
 27 20  1  0
  1 33  1  0
  1 34  1  0
  1 35  1  0
  2 36  1  0
  2 37  1  0
  5 38  1  0
  7 39  1  0
 10 40  1  0
 10 41  1  0
 11 42  1  0
 11 43  1  0
 13 44  1  0
 13 45  1  0
 14 46  1  0
 14 47  1  0
 14 48  1  0
 15 49  1  0
 15 50  1  0
 16 51  1  0
 16 52  1  0
 16 53  1  0
 21 54  1  0
 22 55  1  0
 24 56  1  0
 24 57  1  0
 25 58  1  0
 25 59  1  0
 25 60  1  0
 26 61  1  0
 27 62  1  0
 29 63  1  0
 32 64  1  0
 32 65  1  0
 32 66  1  0
M  END
>  <smiles>  (21) 
CCOc1cc2[nH]c(SCCN(CC)CC)nc(=Nc3ccc(CC)cc3)c2cc1OC

>  <score_type>  (21) 
oracle

>  <origin>  (21) 
adg

>  <m_score__min__energy>  (21) 
-7.5199999999999996

>  <m_primary>  (21) 
energy

$$$$
21:0
     RDKit          3D

 54 57  0  0  0  0  0  0  0  0999 V2000
   63.0160   34.2380   50.4190 C   0  0  0  0  0  0  0  0  0  0  0  0
   62.1220   33.7160   49.2890 C   0  0  0  0  0  0  0  0  0  0  0  0
   62.1420   32.2300   49.1810 N   0  0  0  0  0  0  0  0  0  0  0  0
   62.3760   31.8350   47.7620 C   0  0  0  0  0  0  0  0  0  0  0  0
   63.3900   32.7550   47.0730 C   0  0  0  0  0  0  0  0  0  0  0  0
   60.8650   31.6560   49.6900 C   0  0  0  0  0  0  0  0  0  0  0  0
   60.2990   30.5320   48.7950 C   0  0  0  0  0  0  0  0  0  0  0  0
   59.0090   30.8970   48.2070 N   0  0  0  0  0  0  0  0  0  0  0  0
   58.8840   31.2450   46.8180 C   0  0  0  0  0  0  0  0  0  0  0  0
   59.0030   32.5860   46.3770 C   0  0  0  0  0  0  0  0  0  0  0  0
   59.4160   33.6040   47.2580 C   0  0  0  0  0  0  0  0  0  0  0  0
   59.5480   34.9190   46.8150 C   0  0  0  0  0  0  0  0  0  0  0  0
   59.2750   35.2440   45.4920 C   0  0  0  0  0  0  0  0  0  0  0  0
   58.8540   34.2600   44.5970 C   0  0  0  0  0  0  0  0  0  0  0  0
   58.6850   32.9170   45.0150 C   0  0  0  0  0  0  0  0  0  0  0  0
   58.2350   31.9380   44.1410 N   0  0  0  0  0  0  0  0  0  0  0  0
   57.7720   32.2690   42.7810 C   0  0  0  0  0  0  0  0  0  0  0  0
   58.2500   30.6350   44.5640 C   0  0  0  0  0  0  0  0  0  0  0  0
   58.0190   29.5390   43.7980 N   0  0  0  0  0  0  0  0  0  0  0  0
   58.2190   28.4890   44.6180 C   0  0  0  0  0  0  0  0  0  0  0  0
   58.1660   27.1400   44.2700 C   0  0  0  0  0  0  0  0  0  0  0  0
   58.4950   26.1900   45.2540 C   0  0  0  0  0  0  0  0  0  0  0  0
   58.4560   24.8690   44.9530 F   0  0  0  0  0  0  0  0  0  0  0  0
   58.8900   26.6050   46.5430 C   0  0  0  0  0  0  0  0  0  0  0  0
   58.9480   27.9720   46.8670 C   0  0  0  0  0  0  0  0  0  0  0  0
   58.5750   28.8960   45.8870 C   0  0  0  0  0  0  0  0  0  0  0  0
   58.5770   30.2820   45.8580 C   0  0  0  0  0  0  0  0  0  0  0  0
   62.5695   33.9773   51.3899 H   0  0  0  0  0  0  0  0  0  0  0  0
   64.0130   33.7801   50.3391 H   0  0  0  0  0  0  0  0  0  0  0  0
   63.1072   35.3313   50.3391 H   0  0  0  0  0  0  0  0  0  0  0  0
   61.0885   34.0413   49.4789 H   0  0  0  0  0  0  0  0  0  0  0  0
   62.5090   34.1235   48.3434 H   0  0  0  0  0  0  0  0  0  0  0  0
   62.9280   31.8660   49.7680 H   0  0  0  0  0  0  0  0  0  0  0  0
   62.7578   30.8037   47.7382 H   0  0  0  0  0  0  0  0  0  0  0  0
   61.4204   31.9163   47.2232 H   0  0  0  0  0  0  0  0  0  0  0  0
   63.9778   33.2883   47.8346 H   0  0  0  0  0  0  0  0  0  0  0  0
   64.0634   32.1533   46.4450 H   0  0  0  0  0  0  0  0  0  0  0  0
   62.8564   33.4836   46.4450 H   0  0  0  0  0  0  0  0  0  0  0  0
   61.0431   31.2454   50.6948 H   0  0  0  0  0  0  0  0  0  0  0  0
   60.1239   32.4688   49.6988 H   0  0  0  0  0  0  0  0  0  0  0  0
   61.0143   30.3293   47.9843 H   0  0  0  0  0  0  0  0  0  0  0  0
   60.1467   29.6417   49.4228 H   0  0  0  0  0  0  0  0  0  0  0  0
   58.1470   30.7140   48.7680 H   0  0  0  0  0  0  0  0  0  0  0  0
   59.6369   33.3587   48.3073 H   0  0  0  0  0  0  0  0  0  0  0  0
   59.8698   35.7031   47.5161 H   0  0  0  0  0  0  0  0  0  0  0  0
   59.3914   36.2825   45.1485 H   0  0  0  0  0  0  0  0  0  0  0  0
   58.6501   34.5312   43.5506 H   0  0  0  0  0  0  0  0  0  0  0  0
   56.8786   32.9077   42.8431 H   0  0  0  0  0  0  0  0  0  0  0  0
   58.5683   32.8038   42.2426 H   0  0  0  0  0  0  0  0  0  0  0  0
   57.5236   31.3425   42.2426 H   0  0  0  0  0  0  0  0  0  0  0  0
   57.8070   29.4830   42.7790 H   0  0  0  0  0  0  0  0  0  0  0  0
   57.8755   26.8277   43.2560 H   0  0  0  0  0  0  0  0  0  0  0  0
   59.1548   25.8530   47.3009 H   0  0  0  0  0  0  0  0  0  0  0  0
   59.2773   28.3044   47.8625 H   0  0  0  0  0  0  0  0  0  0  0  0
  1  2  1  0
  2  3  1  0
  3  4  1  0
  4  5  1  0
  3  6  1  0
  6  7  1  0
  7  8  1  0
  8  9  1  0
  9 10  2  0
 10 11  1  0
 11 12  2  0
 12 13  1  0
 13 14  2  0
 14 15  1  0
 15 16  2  0
 16 17  1  0
 16 18  1  0
 18 19  1  0
 19 20  1  0
 20 21  2  0
 21 22  1  0
 22 23  1  0
 22 24  2  0
 24 25  1  0
 25 26  2  0
 26 27  1  0
 27  9  1  0
 15 10  1  0
 27 18  2  0
 26 20  1  0
  1 28  1  0
  1 29  1  0
  1 30  1  0
  2 31  1  0
  2 32  1  0
  3 33  1  0
  4 34  1  0
  4 35  1  0
  5 36  1  0
  5 37  1  0
  5 38  1  0
  6 39  1  0
  6 40  1  0
  7 41  1  0
  7 42  1  0
  8 43  1  0
 11 44  1  0
 12 45  1  0
 13 46  1  0
 14 47  1  0
 17 48  1  0
 17 49  1  0
 17 50  1  0
 19 51  1  0
 21 52  1  0
 24 53  1  0
 25 54  1  0
M  CHG  2   3   1  16   1
M  END
>  <UniqueID>  (22) 
21

>  <SMILES>  (22) 
CC[NH+](CC)CCNc1c2ccccc2[n+](C)c2[nH]c3cc(F)ccc3c12

>  <Energy>  (22) 
114.05265665246279

>  <Genealogy>  (22) 
CC[NH+](CC)CCNc1c2ccccc2[n+](C)c2[nH]c3cc(F)ccc3c12 (protonated)
CC[NH+](CC)CCNc1c2ccccc2[n+](C)c2[nH]c3cc(F)ccc3c12 (3D coordinates assigned)
CC[NH+](CC)CCNc1c2ccccc2[n+](C)c2[nH]c3cc(F)ccc3c12 (optimized conformer: 114.05265665246279 kcal/mol)

>  <smiles>  (22) 
CCN(CC)CCNc1c2ccccc2[n+](C)c2[nH]c3cc(F)ccc3c12

>  <score_type>  (22) 
oracle

>  <origin>  (22) 
adg

>  <m_score__min__energy>  (22) 
-5.2699999999999996

>  <m_primary>  (22) 
energy

$$$$
22:0
     RDKit          3D

 70 72  0  0  0  0  0  0  0  0999 V2000
   57.7560   31.0090   51.1860 C   0  0  0  0  0  0  0  0  0  0  0  0
   59.2540   30.7910   51.0010 C   0  0  0  0  0  0  0  0  0  0  0  0
   59.5160   29.3790   50.6880 N   0  0  0  0  0  0  0  0  0  0  0  0
   60.7010   29.2090   49.8330 C   0  0  0  0  0  0  0  0  0  0  0  0
   60.3320   28.8710   48.3770 C   0  0  0  0  0  0  0  0  0  0  0  0
   58.8740   28.8330   48.1350 N   0  0  0  0  0  0  0  0  0  0  0  0
   58.5190   29.2730   46.7890 C   0  0  0  0  0  0  0  0  0  0  0  0
   58.2550   28.3390   45.7430 C   0  0  0  0  0  0  0  0  0  0  0  0
   58.3260   26.9330   45.9380 C   0  0  0  0  0  0  0  0  0  0  0  0
   58.1460   26.0460   44.8790 C   0  0  0  0  0  0  0  0  0  0  0  0
   57.8980   26.5240   43.6030 C   0  0  0  0  0  0  0  0  0  0  0  0
   57.7730   27.8920   43.3850 C   0  0  0  0  0  0  0  0  0  0  0  0
   57.8960   28.8210   44.4510 C   0  0  0  0  0  0  0  0  0  0  0  0
   57.6720   30.1660   44.2460 N   0  0  0  0  0  0  0  0  0  0  0  0
   56.9440   30.6140   43.0360 C   0  0  0  0  0  0  0  0  0  0  0  0
   58.0850   31.0890   45.1840 C   0  0  0  0  0  0  0  0  0  0  0  0
   58.1330   32.4730   44.8750 C   0  0  0  0  0  0  0  0  0  0  0  0
   58.4940   33.4280   45.8370 C   0  0  0  0  0  0  0  0  0  0  0  0
   58.5130   34.8040   45.5600 O   0  0  0  0  0  0  0  0  0  0  0  0
   59.6470   35.6500   45.7290 C   0  0  0  0  0  0  0  0  0  0  0  0
   58.8540   33.0120   47.1160 C   0  0  0  0  0  0  0  0  0  0  0  0
   59.1990   33.9880   48.0640 O   0  0  0  0  0  0  0  0  0  0  0  0
   59.5880   33.7170   49.4150 C   0  0  0  0  0  0  0  0  0  0  0  0
   61.0820   33.3800   49.4770 C   0  0  0  0  0  0  0  0  0  0  0  0
   61.9120   34.0940   48.3730 C   0  0  0  0  0  0  0  0  0  0  0  0
   62.9610   33.2610   47.7040 N   0  0  0  0  0  0  0  0  0  0  0  0
   64.1470   33.0850   48.5800 C   0  0  0  0  0  0  0  0  0  0  0  0
   63.3770   33.8470   46.4070 C   0  0  0  0  0  0  0  0  0  0  0  0
   62.3790   31.9210   47.4410 C   0  0  0  0  0  0  0  0  0  0  0  0
   58.8360   31.6490   47.4330 C   0  0  0  0  0  0  0  0  0  0  0  0
   58.4850   30.6650   46.4780 C   0  0  0  0  0  0  0  0  0  0  0  0
   57.5203   31.0433   52.2599 H   0  0  0  0  0  0  0  0  0  0  0  0
   57.4629   31.9593   50.7158 H   0  0  0  0  0  0  0  0  0  0  0  0
   57.2042   30.1817   50.7158 H   0  0  0  0  0  0  0  0  0  0  0  0
   59.6157   31.4214   50.1753 H   0  0  0  0  0  0  0  0  0  0  0  0
   59.7780   31.0607   51.9298 H   0  0  0  0  0  0  0  0  0  0  0  0
   59.7050   28.8810   51.5900 H   0  0  0  0  0  0  0  0  0  0  0  0
   61.2802   30.1441   49.8424 H   0  0  0  0  0  0  0  0  0  0  0  0
   61.2856   28.3680   50.2342 H   0  0  0  0  0  0  0  0  0  0  0  0
   60.7750   29.6331   47.7190 H   0  0  0  0  0  0  0  0  0  0  0  0
   60.7224   27.8640   48.1682 H   0  0  0  0  0  0  0  0  0  0  0  0
   58.3780   29.3410   48.8930 H   0  0  0  0  0  0  0  0  0  0  0  0
   58.5250   27.8590   48.2810 H   0  0  0  0  0  0  0  0  0  0  0  0
   58.5270   26.5375   46.9446 H   0  0  0  0  0  0  0  0  0  0  0  0
   58.2010   24.9619   45.0569 H   0  0  0  0  0  0  0  0  0  0  0  0
   57.7999   25.8218   42.7620 H   0  0  0  0  0  0  0  0  0  0  0  0
   57.5752   28.2607   42.3677 H   0  0  0  0  0  0  0  0  0  0  0  0
   56.0424   31.1688   43.3349 H   0  0  0  0  0  0  0  0  0  0  0  0
   57.5952   31.2678   42.4373 H   0  0  0  0  0  0  0  0  0  0  0  0
   56.6538   29.7380   42.4373 H   0  0  0  0  0  0  0  0  0  0  0  0
   57.8812   32.8049   43.8570 H   0  0  0  0  0  0  0  0  0  0  0  0
   59.8402   35.7942   46.8023 H   0  0  0  0  0  0  0  0  0  0  0  0
   60.5252   35.1846   45.2576 H   0  0  0  0  0  0  0  0  0  0  0  0
   59.4511   36.6244   45.2576 H   0  0  0  0  0  0  0  0  0  0  0  0
   59.3892   34.6034   50.0353 H   0  0  0  0  0  0  0  0  0  0  0  0
   59.0103   32.8594   49.7902 H   0  0  0  0  0  0  0  0  0  0  0  0
   61.4698   33.6856   50.4599 H   0  0  0  0  0  0  0  0  0  0  0  0
   61.1820   32.2966   49.3150 H   0  0  0  0  0  0  0  0  0  0  0  0
   61.2134   34.4428   47.5982 H   0  0  0  0  0  0  0  0  0  0  0  0
   62.4545   34.9031   48.8839 H   0  0  0  0  0  0  0  0  0  0  0  0
   63.8347   33.1313   49.6337 H   0  0  0  0  0  0  0  0  0  0  0  0
   64.6106   32.1082   48.3776 H   0  0  0  0  0  0  0  0  0  0  0  0
   64.8743   33.8850   48.3776 H   0  0  0  0  0  0  0  0  0  0  0  0
   64.0050   34.7316   46.5889 H   0  0  0  0  0  0  0  0  0  0  0  0
   63.9497   33.1021   45.8350 H   0  0  0  0  0  0  0  0  0  0  0  0
   62.4849   34.1420   45.8350 H   0  0  0  0  0  0  0  0  0  0  0  0
   62.1620   31.4215   48.3967 H   0  0  0  0  0  0  0  0  0  0  0  0
   61.4480   32.0321   46.8657 H   0  0  0  0  0  0  0  0  0  0  0  0
   63.0956   31.3165   46.8657 H   0  0  0  0  0  0  0  0  0  0  0  0
   59.1020   31.3336   48.4527 H   0  0  0  0  0  0  0  0  0  0  0  0
  1  2  1  0
  2  3  1  0
  3  4  1  0
  4  5  1  0
  5  6  1  0
  6  7  1  0
  7  8  2  0
  8  9  1  0
  9 10  2  0
 10 11  1  0
 11 12  2  0
 12 13  1  0
 13 14  2  0
 14 15  1  0
 14 16  1  0
 16 17  2  0
 17 18  1  0
 18 19  1  0
 19 20  1  0
 18 21  2  0
 21 22  1  0
 22 23  1  0
 23 24  1  0
 24 25  1  0
 25 26  1  0
 26 27  1  0
 26 28  1  0
 26 29  1  0
 21 30  1  0
 30 31  2  0
 31  7  1  0
 13  8  1  0
 31 16  1  0
  1 32  1  0
  1 33  1  0
  1 34  1  0
  2 35  1  0
  2 36  1  0
  3 37  1  0
  4 38  1  0
  4 39  1  0
  5 40  1  0
  5 41  1  0
  6 42  1  0
  6 43  1  0
  9 44  1  0
 10 45  1  0
 11 46  1  0
 12 47  1  0
 15 48  1  0
 15 49  1  0
 15 50  1  0
 17 51  1  0
 20 52  1  0
 20 53  1  0
 20 54  1  0
 23 55  1  0
 23 56  1  0
 24 57  1  0
 24 58  1  0
 25 59  1  0
 25 60  1  0
 27 61  1  0
 27 62  1  0
 27 63  1  0
 28 64  1  0
 28 65  1  0
 28 66  1  0
 29 67  1  0
 29 68  1  0
 29 69  1  0
 30 70  1  0
M  CHG  3   6   1  14   1  26   1
M  END
>  <UniqueID>  (23) 
22

>  <SMILES>  (23) 
CCNCC[NH2+]c1c2ccccc2[n+](C)c2cc(OC)c(OCCC[N+](C)(C)C)cc12

>  <Energy>  (23) 
103.77759083184125

>  <Genealogy>  (23) 
CCNCC[NH2+]c1c2ccccc2[n+](C)c2cc(OC)c(OCCC[N+](C)(C)C)cc12 (protonated)
CCNCC[NH2+]c1c2ccccc2[n+](C)c2cc(OC)c(OCCC[N+](C)(C)C)cc12 (3D coordinates assigned)
CCNCC[NH2+]c1c2ccccc2[n+](C)c2cc(OC)c(OCCC[N+](C)(C)C)cc12 (optimized conformer: 103.77759083184125 kcal/mol)

>  <smiles>  (23) 
CCNCCNc1c2ccccc2[n+](C)c2cc(OC)c(OCCC[N+](C)(C)C)cc12

>  <score_type>  (23) 
oracle

>  <origin>  (23) 
adg

>  <m_score__min__energy>  (23) 
-2.8900000000000001

>  <m_primary>  (23) 
energy

$$$$
23:0
     RDKit          3D

 30 31  0  0  0  0  0  0  0  0999 V2000
   58.1140   32.3630   41.3280 C   0  0  0  0  0  0  0  0  0  0  0  0
   57.3490   32.1430   42.5080 O   0  0  0  0  0  0  0  0  0  0  0  0
   57.7990   32.4120   43.8110 C   0  0  0  0  0  0  0  0  0  0  0  0
   58.5230   33.5800   44.1220 C   0  0  0  0  0  0  0  0  0  0  0  0
   58.9560   33.8180   45.4280 C   0  0  0  0  0  0  0  0  0  0  0  0
   58.6750   32.8970   46.4380 C   0  0  0  0  0  0  0  0  0  0  0  0
   59.2210   33.2010   48.0780 Cl  0  0  0  0  0  0  0  0  0  0  0  0
   57.9580   31.7350   46.1440 C   0  0  0  0  0  0  0  0  0  0  0  0
   57.5180   31.4850   44.8340 C   0  0  0  0  0  0  0  0  0  0  0  0
   56.6120   30.0130   44.4730 S   0  0  0  0  0  0  0  0  0  0  0  0
   55.1430   30.3260   44.4970 O   0  0  0  0  0  0  0  0  0  0  0  0
   57.0140   29.5160   43.1130 O   0  0  0  0  0  0  0  0  0  0  0  0
   56.9560   28.7910   45.6550 N   0  0  0  0  0  0  0  0  0  0  0  0
   58.2390   28.1890   45.8710 C   0  0  0  0  0  0  0  0  0  0  0  0
   58.4010   27.3100   46.9460 C   0  0  0  0  0  0  0  0  0  0  0  0
   59.6380   26.7100   47.1820 C   0  0  0  0  0  0  0  0  0  0  0  0
   60.7090   26.9970   46.3340 C   0  0  0  0  0  0  0  0  0  0  0  0
   60.5430   27.8540   45.2900 N   0  0  0  0  0  0  0  0  0  0  0  0
   59.3440   28.4510   45.0420 C   0  0  0  0  0  0  0  0  0  0  0  0
   59.1373   32.6573   41.6040 H   0  0  0  0  0  0  0  0  0  0  0  0
   58.1462   31.4377   40.7340 H   0  0  0  0  0  0  0  0  0  0  0  0
   57.6497   33.1640   40.7340 H   0  0  0  0  0  0  0  0  0  0  0  0
   58.7487   34.3096   43.3303 H   0  0  0  0  0  0  0  0  0  0  0  0
   59.5197   34.7333   45.6611 H   0  0  0  0  0  0  0  0  0  0  0  0
   57.7368   31.0118   46.9428 H   0  0  0  0  0  0  0  0  0  0  0  0
   57.5502   27.0908   47.6079 H   0  0  0  0  0  0  0  0  0  0  0  0
   59.7681   26.0182   48.0272 H   0  0  0  0  0  0  0  0  0  0  0  0
   61.6891   26.5295   46.5100 H   0  0  0  0  0  0  0  0  0  0  0  0
   61.3540   28.0580   44.6650 H   0  0  0  0  0  0  0  0  0  0  0  0
   59.2400   29.1400   44.1908 H   0  0  0  0  0  0  0  0  0  0  0  0
  1  2  1  0
  2  3  1  0
  3  4  2  0
  4  5  1  0
  5  6  2  0
  6  7  1  0
  6  8  1  0
  8  9  2  0
  9 10  1  0
 10 11  2  0
 10 12  2  0
 10 13  1  0
 13 14  1  0
 14 15  2  0
 15 16  1  0
 16 17  2  0
 17 18  1  0
 18 19  2  0
  9  3  1  0
 19 14  1  0
  1 20  1  0
  1 21  1  0
  1 22  1  0
  4 23  1  0
  5 24  1  0
  8 25  1  0
 15 26  1  0
 16 27  1  0
 17 28  1  0
 18 29  1  0
 19 30  1  0
M  CHG  2  13  -1  18   1
M  END
>  <UniqueID>  (24) 
23

>  <SMILES>  (24) 
COc1ccc(Cl)cc1S(=O)(=O)[N-]c1ccc[nH+]c1

>  <Energy>  (24) 
34.58029669276619

>  <Genealogy>  (24) 
COc1ccc(Cl)cc1S(=O)(=O)[N-]c1ccc[nH+]c1 (protonated)
COc1ccc(Cl)cc1S(=O)(=O)[N-]c1ccc[nH+]c1 (3D coordinates assigned)
COc1ccc(Cl)cc1S(=O)(=O)[N-]c1ccc[nH+]c1 (optimized conformer: 34.58029669276619 kcal/mol)

>  <smiles>  (24) 
COc1ccc(Cl)cc1S(=O)(=O)Nc1cccnc1

>  <score_type>  (24) 
oracle

>  <origin>  (24) 
adg

>  <m_score__min__energy>  (24) 
-6.7999999999999998

>  <m_primary>  (24) 
energy

$$$$
24:0
     RDKit          3D

 37 39  0  0  0  0  0  0  0  0999 V2000
   62.1800   31.3520   48.7160 C   0  0  0  0  0  0  0  0  0  0  0  0
   61.2630   30.5270   47.9390 N   0  0  0  0  0  0  0  0  0  0  0  0
   60.1540   29.9160   48.4130 C   0  0  0  0  0  0  0  0  0  0  0  0
   59.5110   29.3320   47.3410 C   0  0  0  0  0  0  0  0  0  0  0  0
   60.2820   29.6200   46.2440 C   0  0  0  0  0  0  0  0  0  0  0  0
   61.3320   30.3680   46.6250 N   0  0  0  0  0  0  0  0  0  0  0  0
   59.8890   29.2730   44.8460 C   0  0  0  0  0  0  0  0  0  0  0  0
   58.9160   28.0810   44.8650 C   0  0  0  0  0  0  0  0  0  0  0  0
   57.8710   28.2620   45.8920 N   0  0  0  0  0  0  0  0  0  0  0  0
   56.4960   27.9840   45.5830 C   0  0  0  0  0  0  0  0  0  0  0  0
   56.0020   26.8730   45.9100 O   0  0  0  0  0  0  0  0  0  0  0  0
   55.6810   28.9230   44.8730 N   0  0  0  0  0  0  0  0  0  0  0  0
   56.0680   29.5750   43.6290 C   0  0  0  0  0  0  0  0  0  0  0  0
   56.8790   30.7940   43.9400 C   0  0  0  0  0  0  0  0  0  0  0  0
   57.4160   31.5770   42.9080 C   0  0  0  0  0  0  0  0  0  0  0  0
   58.1420   32.7270   43.2290 C   0  0  0  0  0  0  0  0  0  0  0  0
   58.3160   33.0880   44.5660 C   0  0  0  0  0  0  0  0  0  0  0  0
   57.7570   32.2910   45.5670 C   0  0  0  0  0  0  0  0  0  0  0  0
   57.0530   31.1760   45.2360 N   0  0  0  0  0  0  0  0  0  0  0  0
   58.2320   28.5610   47.2900 C   0  0  0  0  0  0  0  0  0  0  0  0
   61.9997   31.1898   49.7889 H   0  0  0  0  0  0  0  0  0  0  0  0
   63.2168   31.0767   48.4727 H   0  0  0  0  0  0  0  0  0  0  0  0
   62.0154   32.4120   48.4727 H   0  0  0  0  0  0  0  0  0  0  0  0
   59.8244   29.8893   49.4621 H   0  0  0  0  0  0  0  0  0  0  0  0
   62.0630   30.7830   46.0030 H   0  0  0  0  0  0  0  0  0  0  0  0
   59.3982   30.1390   44.3779 H   0  0  0  0  0  0  0  0  0  0  0  0
   60.7865   29.0032   44.2701 H   0  0  0  0  0  0  0  0  0  0  0  0
   58.4380   27.9921   43.8783 H   0  0  0  0  0  0  0  0  0  0  0  0
   59.4850   27.1703   45.1034 H   0  0  0  0  0  0  0  0  0  0  0  0
   56.6668   28.8807   43.0212 H   0  0  0  0  0  0  0  0  0  0  0  0
   55.1665   29.8654   43.0696 H   0  0  0  0  0  0  0  0  0  0  0  0
   57.2673   31.2890   41.8569 H   0  0  0  0  0  0  0  0  0  0  0  0
   58.5754   33.3463   42.4299 H   0  0  0  0  0  0  0  0  0  0  0  0
   58.8874   33.9906   44.8283 H   0  0  0  0  0  0  0  0  0  0  0  0
   57.8863   32.5655   46.6243 H   0  0  0  0  0  0  0  0  0  0  0  0
   57.4307   29.1560   47.7525 H   0  0  0  0  0  0  0  0  0  0  0  0
   58.3619   27.6152   47.8365 H   0  0  0  0  0  0  0  0  0  0  0  0
  1  2  1  0
  2  3  1  0
  3  4  2  0
  4  5  1  0
  5  6  2  0
  5  7  1  0
  7  8  1  0
  8  9  1  0
  9 10  1  0
 10 11  2  0
 10 12  1  0
 12 13  1  0
 13 14  1  0
 14 15  2  0
 15 16  1  0
 16 17  2  0
 17 18  1  0
 18 19  2  0
  9 20  1  0
  6  2  1  0
 19 14  1  0
 20  4  1  0
  1 21  1  0
  1 22  1  0
  1 23  1  0
  3 24  1  0
  6 25  1  0
  7 26  1  0
  7 27  1  0
  8 28  1  0
  8 29  1  0
 13 30  1  0
 13 31  1  0
 15 32  1  0
 16 33  1  0
 17 34  1  0
 18 35  1  0
 20 36  1  0
 20 37  1  0
M  CHG  2   6   1  12  -1
M  END
>  <UniqueID>  (25) 
24

>  <SMILES>  (25) 
Cn1cc2c([nH+]1)CCN(C(=O)[N-]Cc1ccccn1)C2

>  <Energy>  (25) 
73.39774780034423

>  <Genealogy>  (25) 
Cn1cc2c([nH+]1)CCN(C(=O)[N-]Cc1ccccn1)C2 (protonated)
Cn1cc2c([nH+]1)CCN(C(=O)[N-]Cc1ccccn1)C2 (3D coordinates assigned)
Cn1cc2c([nH+]1)CCN(C(=O)[N-]Cc1ccccn1)C2 (nonaromatic ring conformer: 73.39774780034423 kcal/mol)

>  <smiles>  (25) 
Cn1cc2c(n1)CCN(C(=O)NCc1ccccn1)C2

>  <score_type>  (25) 
oracle

>  <origin>  (25) 
adg

>  <m_score__min__energy>  (25) 
-7.1600000000000001

>  <m_primary>  (25) 
energy

$$$$
25:0
     RDKit          3D

 40 42  0  0  0  0  0  0  0  0999 V2000
   62.6230   32.9260   47.1300 C   0  0  0  0  0  0  0  0  0  0  0  0
   62.5220   31.5450   47.7820 C   0  0  0  0  0  0  0  0  0  0  0  0
   61.5140   31.4940   48.8580 N   0  0  0  0  0  0  0  0  0  0  0  0
   61.5690   32.6130   49.8190 C   0  0  0  0  0  0  0  0  0  0  0  0
   60.2750   33.4470   49.8970 C   0  0  0  0  0  0  0  0  0  0  0  0
   59.3200   33.0930   48.8410 N   0  0  0  0  0  0  0  0  0  0  0  0
   59.3030   33.7020   47.5350 C   0  0  0  0  0  0  0  0  0  0  0  0
   59.7360   35.0370   47.4170 C   0  0  0  0  0  0  0  0  0  0  0  0
   59.6510   35.7180   46.2100 C   0  0  0  0  0  0  0  0  0  0  0  0
   59.1190   35.0900   45.0960 C   0  0  0  0  0  0  0  0  0  0  0  0
   58.6910   33.7630   45.1770 C   0  0  0  0  0  0  0  0  0  0  0  0
   58.0450   33.0410   43.8020 S   0  0  0  0  0  0  0  0  0  0  0  0
   57.6060   31.4450   44.0630 C   0  0  0  0  0  0  0  0  0  0  0  0
   57.0420   30.6960   43.0240 C   0  0  0  0  0  0  0  0  0  0  0  0
   56.6930   29.3640   43.2360 C   0  0  0  0  0  0  0  0  0  0  0  0
   56.9120   28.7780   44.4820 C   0  0  0  0  0  0  0  0  0  0  0  0
   57.4790   29.5230   45.5210 C   0  0  0  0  0  0  0  0  0  0  0  0
   57.8390   30.8820   45.3370 C   0  0  0  0  0  0  0  0  0  0  0  0
   58.4210   31.6170   46.4220 C   0  0  0  0  0  0  0  0  0  0  0  0
   58.6430   30.9700   47.4810 O   0  0  0  0  0  0  0  0  0  0  0  0
   58.7880   33.0130   46.3800 C   0  0  0  0  0  0  0  0  0  0  0  0
   62.6794   33.6975   47.9121 H   0  0  0  0  0  0  0  0  0  0  0  0
   63.5268   32.9710   46.5047 H   0  0  0  0  0  0  0  0  0  0  0  0
   61.7353   33.1020   46.5047 H   0  0  0  0  0  0  0  0  0  0  0  0
   62.2494   30.8107   47.0097 H   0  0  0  0  0  0  0  0  0  0  0  0
   63.4997   31.3188   48.2326 H   0  0  0  0  0  0  0  0  0  0  0  0
   60.5610   31.4800   48.4250 H   0  0  0  0  0  0  0  0  0  0  0  0
   61.6190   30.5910   49.3760 H   0  0  0  0  0  0  0  0  0  0  0  0
   61.7730   32.1996   50.8177 H   0  0  0  0  0  0  0  0  0  0  0  0
   62.3601   33.2915   49.4671 H   0  0  0  0  0  0  0  0  0  0  0  0
   59.8013   33.2745   50.8747 H   0  0  0  0  0  0  0  0  0  0  0  0
   60.5475   34.5043   49.7637 H   0  0  0  0  0  0  0  0  0  0  0  0
   58.5440   32.4460   49.1050 H   0  0  0  0  0  0  0  0  0  0  0  0
   60.1494   35.5499   48.2979 H   0  0  0  0  0  0  0  0  0  0  0  0
   60.0063   36.7566   46.1385 H   0  0  0  0  0  0  0  0  0  0  0  0
   59.0334   35.6374   44.1457 H   0  0  0  0  0  0  0  0  0  0  0  0
   56.8743   31.1588   42.0403 H   0  0  0  0  0  0  0  0  0  0  0  0
   56.2453   28.7755   42.4216 H   0  0  0  0  0  0  0  0  0  0  0  0
   56.6378   27.7258   44.6485 H   0  0  0  0  0  0  0  0  0  0  0  0
   57.6486   29.0464   46.4978 H   0  0  0  0  0  0  0  0  0  0  0  0
  1  2  1  0
  2  3  1  0
  3  4  1  0
  4  5  1  0
  5  6  1  0
  6  7  1  0
  7  8  2  0
  8  9  1  0
  9 10  2  0
 10 11  1  0
 11 12  1  0
 12 13  1  0
 13 14  2  0
 14 15  1  0
 15 16  2  0
 16 17  1  0
 17 18  2  0
 18 19  1  0
 19 20  2  0
 19 21  1  0
 21  7  1  0
 21 11  2  0
 18 13  1  0
  1 22  1  0
  1 23  1  0
  1 24  1  0
  2 25  1  0
  2 26  1  0
  3 27  1  0
  3 28  1  0
  4 29  1  0
  4 30  1  0
  5 31  1  0
  5 32  1  0
  6 33  1  0
  8 34  1  0
  9 35  1  0
 10 36  1  0
 14 37  1  0
 15 38  1  0
 16 39  1  0
 17 40  1  0
M  CHG  1   3   1
M  END
>  <UniqueID>  (26) 
25

>  <SMILES>  (26) 
CC[NH2+]CCNc1cccc2sc3ccccc3c(=O)c12

>  <Energy>  (26) 
60.306755116620764

>  <Genealogy>  (26) 
CC[NH2+]CCNc1cccc2sc3ccccc3c(=O)c12 (protonated)
CC[NH2+]CCNc1cccc2sc3ccccc3c(=O)c12 (3D coordinates assigned)
CC[NH2+]CCNc1cccc2sc3ccccc3c(=O)c12 (optimized conformer: 60.306755116620764 kcal/mol)

>  <smiles>  (26) 
CCNCCNc1cccc2sc3ccccc3c(=O)c12

>  <score_type>  (26) 
oracle

>  <origin>  (26) 
adg

>  <m_score__min__energy>  (26) 
-5.5

>  <m_primary>  (26) 
energy

$$$$
26:0
     RDKit          3D

 60 63  0  0  0  0  0  0  0  0999 V2000
   57.0660   31.0230   42.3000 C   0  0  0  0  0  0  0  0  0  0  0  0
   56.2970   29.7890   42.7630 C   0  0  0  0  0  0  0  0  0  0  0  0
   55.6660   30.0070   44.1440 C   0  0  0  0  0  0  0  0  0  0  0  0
   55.9300   28.8520   45.0140 N   0  0  0  0  0  0  0  0  0  0  0  0
   57.2270   28.2090   44.7340 C   0  0  0  0  0  0  0  0  0  0  0  0
   58.4160   29.0650   45.1980 C   0  0  0  0  0  0  0  0  0  0  0  0
   58.0470   29.8790   46.3560 N   0  0  0  0  0  0  0  0  0  0  0  0
   58.8980   30.9350   46.8270 C   0  0  0  0  0  0  0  0  0  0  0  0
   59.8850   30.6740   47.7950 C   0  0  0  0  0  0  0  0  0  0  0  0
   60.6470   31.7510   48.3130 C   0  0  0  0  0  0  0  0  0  0  0  0
   60.3770   33.0480   47.9230 N   0  0  0  0  0  0  0  0  0  0  0  0
   60.9740   34.1820   48.6620 C   0  0  0  0  0  0  0  0  0  0  0  0
   59.5310   33.2900   46.8580 C   0  0  0  0  0  0  0  0  0  0  0  0
   59.3930   34.5840   46.2950 C   0  0  0  0  0  0  0  0  0  0  0  0
   58.5260   34.8150   45.2280 C   0  0  0  0  0  0  0  0  0  0  0  0
   57.7920   33.7680   44.6850 C   0  0  0  0  0  0  0  0  0  0  0  0
   57.9190   32.4820   45.2040 C   0  0  0  0  0  0  0  0  0  0  0  0
   58.7760   32.2290   46.2930 C   0  0  0  0  0  0  0  0  0  0  0  0
   61.7500   31.4530   49.2800 C   0  0  0  0  0  0  0  0  0  0  0  0
   63.0090   31.9080   49.0150 N   0  0  0  0  0  0  0  0  0  0  0  0
   64.0590   31.6320   49.8290 C   0  0  0  0  0  0  0  0  0  0  0  0
   63.8810   30.8450   50.9630 C   0  0  0  0  0  0  0  0  0  0  0  0
   62.6120   30.3370   51.2700 C   0  0  0  0  0  0  0  0  0  0  0  0
   62.4530   29.4600   52.4840 C   0  0  0  0  0  0  0  0  0  0  0  0
   61.5180   30.6620   50.4330 C   0  0  0  0  0  0  0  0  0  0  0  0
   60.1190   30.1360   50.6910 C   0  0  0  0  0  0  0  0  0  0  0  0
   59.7550   28.9960   49.7230 C   0  0  0  0  0  0  0  0  0  0  0  0
   60.1650   29.2490   48.2580 C   0  0  0  0  0  0  0  0  0  0  0  0
   57.4172   31.5866   43.1769 H   0  0  0  0  0  0  0  0  0  0  0  0
   57.9298   30.7110   41.6946 H   0  0  0  0  0  0  0  0  0  0  0  0
   56.4053   31.6610   41.6946 H   0  0  0  0  0  0  0  0  0  0  0  0
   55.5007   29.5703   42.0364 H   0  0  0  0  0  0  0  0  0  0  0  0
   57.0028   28.9483   42.8342 H   0  0  0  0  0  0  0  0  0  0  0  0
   56.0956   30.9108   44.6006 H   0  0  0  0  0  0  0  0  0  0  0  0
   54.5787   30.1247   44.0259 H   0  0  0  0  0  0  0  0  0  0  0  0
   55.1590   28.1530   44.9040 H   0  0  0  0  0  0  0  0  0  0  0  0
   57.2623   27.2419   45.2569 H   0  0  0  0  0  0  0  0  0  0  0  0
   57.3102   28.0807   43.6447 H   0  0  0  0  0  0  0  0  0  0  0  0
   59.2512   28.4040   45.4728 H   0  0  0  0  0  0  0  0  0  0  0  0
   58.7123   29.7334   44.3761 H   0  0  0  0  0  0  0  0  0  0  0  0
   57.0860   29.7920   46.7580 H   0  0  0  0  0  0  0  0  0  0  0  0
   60.8806   34.0046   49.7436 H   0  0  0  0  0  0  0  0  0  0  0  0
   62.0374   34.2739   48.3960 H   0  0  0  0  0  0  0  0  0  0  0  0
   60.4479   35.1107   48.3960 H   0  0  0  0  0  0  0  0  0  0  0  0
   59.9793   35.4188   46.7066 H   0  0  0  0  0  0  0  0  0  0  0  0
   58.4228   35.8292   44.8149 H   0  0  0  0  0  0  0  0  0  0  0  0
   57.1090   33.9552   43.8433 H   0  0  0  0  0  0  0  0  0  0  0  0
   57.3447   31.6559   44.7594 H   0  0  0  0  0  0  0  0  0  0  0  0
   63.1880   32.4700   48.1530 H   0  0  0  0  0  0  0  0  0  0  0  0
   65.0557   32.0322   49.5914 H   0  0  0  0  0  0  0  0  0  0  0  0
   64.7362   30.6220   51.6179 H   0  0  0  0  0  0  0  0  0  0  0  0
   62.5634   30.0691   53.3933 H   0  0  0  0  0  0  0  0  0  0  0  0
   61.4560   28.9954   52.4727 H   0  0  0  0  0  0  0  0  0  0  0  0
   63.2235   28.6750   52.4727 H   0  0  0  0  0  0  0  0  0  0  0  0
   60.0639   29.7593   51.7230 H   0  0  0  0  0  0  0  0  0  0  0  0
   59.4073   30.9602   50.5352 H   0  0  0  0  0  0  0  0  0  0  0  0
   60.2562   28.0793   50.0671 H   0  0  0  0  0  0  0  0  0  0  0  0
   58.6581   28.9144   49.7324 H   0  0  0  0  0  0  0  0  0  0  0  0
   61.2429   29.0540   48.1577 H   0  0  0  0  0  0  0  0  0  0  0  0
   59.5638   28.5762   47.6288 H   0  0  0  0  0  0  0  0  0  0  0  0
  1  2  1  0
  2  3  1  0
  3  4  1  0
  4  5  1  0
  5  6  1  0
  6  7  1  0
  7  8  1  0
  8  9  2  0
  9 10  1  0
 10 11  2  0
 11 12  1  0
 11 13  1  0
 13 14  2  0
 14 15  1  0
 15 16  2  0
 16 17  1  0
 17 18  2  0
 10 19  1  0
 19 20  2  0
 20 21  1  0
 21 22  2  0
 22 23  1  0
 23 24  1  0
 23 25  2  0
 25 26  1  0
 26 27  1  0
 27 28  1  0
 18  8  1  0
 25 19  1  0
 28  9  1  0
 18 13  1  0
  1 29  1  0
  1 30  1  0
  1 31  1  0
  2 32  1  0
  2 33  1  0
  3 34  1  0
  3 35  1  0
  4 36  1  0
  5 37  1  0
  5 38  1  0
  6 39  1  0
  6 40  1  0
  7 41  1  0
 12 42  1  0
 12 43  1  0
 12 44  1  0
 14 45  1  0
 15 46  1  0
 16 47  1  0
 17 48  1  0
 20 49  1  0
 21 50  1  0
 22 51  1  0
 24 52  1  0
 24 53  1  0
 24 54  1  0
 26 55  1  0
 26 56  1  0
 27 57  1  0
 27 58  1  0
 28 59  1  0
 28 60  1  0
M  CHG  2  11   1  20   1
M  END
>  <UniqueID>  (27) 
26

>  <SMILES>  (27) 
CCCNCCNc1c2c([n+](C)c3ccccc13)-c1[nH+]ccc(C)c1CCC2

>  <Energy>  (27) 
90.1322785264124

>  <Genealogy>  (27) 
CCCNCCNc1c2c([n+](C)c3ccccc13)-c1[nH+]ccc(C)c1CCC2 (protonated)
CCCNCCNc1c2c([n+](C)c3ccccc13)-c1[nH+]ccc(C)c1CCC2 (3D coordinates assigned)
CCCNCCNc1c2c([n+](C)c3ccccc13)-c1[nH+]ccc(C)c1CCC2 (nonaromatic ring conformer: 90.1322785264124 kcal/mol)

>  <smiles>  (27) 
CCCNCCNc1c2c([n+](C)c3ccccc13)-c1nccc(C)c1CCC2

>  <score_type>  (27) 
oracle

>  <origin>  (27) 
adg

>  <m_score__min__energy>  (27) 
-4.25

>  <m_primary>  (27) 
energy

$$$$
27:0
     RDKit          3D

 75 78  0  0  0  0  0  0  0  0999 V2000
   56.2840   29.7400   42.7230 C   0  0  0  0  0  0  0  0  0  0  0  0
   56.3280   30.2090   44.1770 C   0  0  0  0  0  0  0  0  0  0  0  0
   57.2260   31.4570   44.3650 C   0  0  0  0  0  0  0  0  0  0  0  0
   57.7490   31.6360   45.7440 N   0  0  0  0  0  0  0  0  0  0  0  0
   58.1550   30.3480   46.3590 C   0  0  0  0  0  0  0  0  0  0  0  0
   59.6700   30.1600   46.2280 C   0  0  0  0  0  0  0  0  0  0  0  0
   60.2230   29.2230   47.3000 C   0  0  0  0  0  0  0  0  0  0  0  0
   58.7790   32.6920   45.8860 C   0  0  0  0  0  0  0  0  0  0  0  0
   58.3540   33.8230   46.8440 C   0  0  0  0  0  0  0  0  0  0  0  0
   59.1540   33.8540   48.1560 C   0  0  0  0  0  0  0  0  0  0  0  0
   60.0550   32.7050   48.2900 N   0  0  0  0  0  0  0  0  0  0  0  0
   60.0490   31.8940   49.4760 C   0  0  0  0  0  0  0  0  0  0  0  0
   58.8080   31.4070   49.9110 C   0  0  0  0  0  0  0  0  0  0  0  0
   58.6950   30.5710   51.0180 C   0  0  0  0  0  0  0  0  0  0  0  0
   57.3990   30.1140   51.4530 N   0  0  0  0  0  0  0  0  0  0  0  0
   57.2630   28.9960   51.9930 O   0  0  0  0  0  0  0  0  0  0  0  0
   56.2810   30.8990   51.2750 O   0  0  0  0  0  0  0  0  0  0  0  0
   59.8540   30.1690   51.6830 C   0  0  0  0  0  0  0  0  0  0  0  0
   61.1360   30.6000   51.2720 C   0  0  0  0  0  0  0  0  0  0  0  0
   61.2420   31.5470   50.1920 C   0  0  0  0  0  0  0  0  0  0  0  0
   62.5360   32.0710   49.8760 C   0  0  0  0  0  0  0  0  0  0  0  0
   62.7400   33.0780   48.8770 N   0  0  0  0  0  0  0  0  0  0  0  0
   62.6160   34.4900   49.2610 C   0  0  0  0  0  0  0  0  0  0  0  0
   63.2440   32.6780   47.5590 C   0  0  0  0  0  0  0  0  0  0  0  0
   63.6210   31.6570   50.6610 C   0  0  0  0  0  0  0  0  0  0  0  0
   64.9670   32.0090   50.6550 C   0  0  0  0  0  0  0  0  0  0  0  0
   65.7240   32.8580   49.8360 C   0  0  0  0  0  0  0  0  0  0  0  0
   67.0940   32.9980   50.1050 C   0  0  0  0  0  0  0  0  0  0  0  0
   67.6880   32.2980   51.1710 C   0  0  0  0  0  0  0  0  0  0  0  0
   66.9160   31.4530   51.9840 C   0  0  0  0  0  0  0  0  0  0  0  0
   65.5490   31.3250   51.7030 C   0  0  0  0  0  0  0  0  0  0  0  0
   64.6400   30.5750   52.3690 N   0  0  0  0  0  0  0  0  0  0  0  0
   64.8800   29.9140   53.6570 C   0  0  0  0  0  0  0  0  0  0  0  0
   63.4670   30.7470   51.6870 C   0  0  0  0  0  0  0  0  0  0  0  0
   62.2680   30.1180   51.9120 N   0  0  0  0  0  0  0  0  0  0  0  0
   62.2070   28.8640   52.6870 C   0  0  0  0  0  0  0  0  0  0  0  0
   56.1813   28.6452   42.6938 H   0  0  0  0  0  0  0  0  0  0  0  0
   55.4253   30.2025   42.2144 H   0  0  0  0  0  0  0  0  0  0  0  0
   57.2137   30.0347   42.2144 H   0  0  0  0  0  0  0  0  0  0  0  0
   55.3060   30.4566   44.4999 H   0  0  0  0  0  0  0  0  0  0  0  0
   56.7536   29.3940   44.7808 H   0  0  0  0  0  0  0  0  0  0  0  0
   58.0830   31.3702   43.6808 H   0  0  0  0  0  0  0  0  0  0  0  0
   56.5944   32.3324   44.1532 H   0  0  0  0  0  0  0  0  0  0  0  0
   57.8787   30.3495   47.4237 H   0  0  0  0  0  0  0  0  0  0  0  0
   57.6425   29.5233   45.8421 H   0  0  0  0  0  0  0  0  0  0  0  0
   59.8913   29.7366   45.2372 H   0  0  0  0  0  0  0  0  0  0  0  0
   60.1475   31.1427   46.3553 H   0  0  0  0  0  0  0  0  0  0  0  0
   59.9858   29.6249   48.2961 H   0  0  0  0  0  0  0  0  0  0  0  0
   59.7672   28.2281   47.1880 H   0  0  0  0  0  0  0  0  0  0  0  0
   61.3142   29.1411   47.1880 H   0  0  0  0  0  0  0  0  0  0  0  0
   59.7008   32.2329   46.2727 H   0  0  0  0  0  0  0  0  0  0  0  0
   58.9292   33.1409   44.8930 H   0  0  0  0  0  0  0  0  0  0  0  0
   58.4936   34.7850   46.3292 H   0  0  0  0  0  0  0  0  0  0  0  0
   57.3031   33.6394   47.1123 H   0  0  0  0  0  0  0  0  0  0  0  0
   59.7522   34.7767   48.1830 H   0  0  0  0  0  0  0  0  0  0  0  0
   58.4350   33.8145   48.9876 H   0  0  0  0  0  0  0  0  0  0  0  0
   60.7780   32.5340   47.5660 H   0  0  0  0  0  0  0  0  0  0  0  0
   57.8988   31.6936   49.3622 H   0  0  0  0  0  0  0  0  0  0  0  0
   59.7677   29.4984   52.5507 H   0  0  0  0  0  0  0  0  0  0  0  0
   62.6088   34.5724   50.3579 H   0  0  0  0  0  0  0  0  0  0  0  0
   63.4679   35.0562   48.8564 H   0  0  0  0  0  0  0  0  0  0  0  0
   61.6785   34.8991   48.8564 H   0  0  0  0  0  0  0  0  0  0  0  0
   64.1000   31.9986   47.6845 H   0  0  0  0  0  0  0  0  0  0  0  0
   62.4467   32.1642   47.0020 H   0  0  0  0  0  0  0  0  0  0  0  0
   63.5633   33.5712   47.0020 H   0  0  0  0  0  0  0  0  0  0  0  0
   65.2553   33.4015   49.0024 H   0  0  0  0  0  0  0  0  0  0  0  0
   67.7084   33.6603   49.4774 H   0  0  0  0  0  0  0  0  0  0  0  0
   68.7639   32.4135   51.3687 H   0  0  0  0  0  0  0  0  0  0  0  0
   67.3729   30.9048   52.8211 H   0  0  0  0  0  0  0  0  0  0  0  0
   64.6293   30.6044   54.4758 H   0  0  0  0  0  0  0  0  0  0  0  0
   64.2511   29.0145   53.7303 H   0  0  0  0  0  0  0  0  0  0  0  0
   65.9395   29.6276   53.7303 H   0  0  0  0  0  0  0  0  0  0  0  0
   62.2183   29.0965   53.7621 H   0  0  0  0  0  0  0  0  0  0  0  0
   61.2815   28.3239   52.4384 H   0  0  0  0  0  0  0  0  0  0  0  0
   63.0757   28.2367   52.4384 H   0  0  0  0  0  0  0  0  0  0  0  0
  1  2  1  0
  2  3  1  0
  3  4  1  0
  4  5  1  0
  5  6  1  0
  6  7  1  0
  4  8  1  0
  8  9  1  0
  9 10  1  0
 10 11  1  0
 11 12  1  0
 12 13  2  0
 13 14  1  0
 14 15  1  0
 15 16  2  0
 15 17  1  0
 14 18  2  0
 18 19  1  0
 19 20  2  0
 20 21  1  0
 21 22  1  0
 22 23  1  0
 22 24  1  0
 21 25  2  0
 25 26  1  0
 26 27  2  0
 27 28  1  0
 28 29  2  0
 29 30  1  0
 30 31  2  0
 31 32  1  0
 32 33  1  0
 32 34  1  0
 34 35  2  0
 35 36  1  0
 20 12  1  0
 34 25  1  0
 35 19  1  0
 31 26  1  0
  1 37  1  0
  1 38  1  0
  1 39  1  0
  2 40  1  0
  2 41  1  0
  3 42  1  0
  3 43  1  0
  5 44  1  0
  5 45  1  0
  6 46  1  0
  6 47  1  0
  7 48  1  0
  7 49  1  0
  7 50  1  0
  8 51  1  0
  8 52  1  0
  9 53  1  0
  9 54  1  0
 10 55  1  0
 10 56  1  0
 11 57  1  0
 13 58  1  0
 18 59  1  0
 23 60  1  0
 23 61  1  0
 23 62  1  0
 24 63  1  0
 24 64  1  0
 24 65  1  0
 27 66  1  0
 28 67  1  0
 29 68  1  0
 30 69  1  0
 33 70  1  0
 33 71  1  0
 33 72  1  0
 36 73  1  0
 36 74  1  0
 36 75  1  0
M  CHG  3  15   1  17  -1  35   1
M  END
>  <UniqueID>  (28) 
27

>  <SMILES>  (28) 
CCCN(CCC)CCCNc1cc([N+](=O)[O-])cc2c1c(N(C)C)c1c3ccccc3n(C)c1[n+]2C

>  <Energy>  (28) 
150.90462148382443

>  <Genealogy>  (28) 
CCCN(CCC)CCCNc1cc([N+](=O)[O-])cc2c1c(N(C)C)c1c3ccccc3n(C)c1[n+]2C (3D coordinates assigned)
CCCN(CCC)CCCNc1cc([N+](=O)[O-])cc2c1c(N(C)C)c1c3ccccc3n(C)c1[n+]2C (optimized conformer: 150.90462148382443 kcal/mol)

>  <smiles>  (28) 
CCCN(CCC)CCCNc1cc([N+](=O)[O-])cc2c1c(N(C)C)c1c3ccccc3n(C)c1[n+]2C

>  <score_type>  (28) 
oracle

>  <origin>  (28) 
adg

>  <m_score__min__energy>  (28) 
-6.9299999999999997

>  <m_primary>  (28) 
energy

$$$$
