0:0
     RDKit          3D

 33 35  0  0  0  0  0  0  0  0999 V2000
   58.9590   32.7180   49.4740 C   0  0  0  0  0  0  0  0  0  0  0  0
   59.4430   33.4720   48.3220 N   0  0  0  0  0  0  0  0  0  0  0  0
   60.6970   33.9350   48.1260 C   0  0  0  0  0  0  0  0  0  0  0  0
   60.8720   34.4710   46.8950 N   0  0  0  0  0  0  0  0  0  0  0  0
   59.6680   34.3090   46.3100 C   0  0  0  0  0  0  0  0  0  0  0  0
   58.7960   33.7170   47.1720 C   0  0  0  0  0  0  0  0  0  0  0  0
   57.4160   33.2810   46.7980 C   0  0  0  0  0  0  0  0  0  0  0  0
   57.0080   33.8300   45.4100 C   0  0  0  0  0  0  0  0  0  0  0  0
   58.1300   33.9370   44.4400 N   0  0  0  0  0  0  0  0  0  0  0  0
   58.4360   32.7120   43.6680 C   0  0  0  0  0  0  0  0  0  0  0  0
   57.8060   31.4560   44.2260 C   0  0  0  0  0  0  0  0  0  0  0  0
   56.6440   30.9270   43.6430 C   0  0  0  0  0  0  0  0  0  0  0  0
   56.0710   29.7690   44.1750 C   0  0  0  0  0  0  0  0  0  0  0  0
   56.6440   29.1520   45.2410 N   0  0  0  0  0  0  0  0  0  0  0  0
   57.7830   29.6280   45.8120 C   0  0  0  0  0  0  0  0  0  0  0  0
   58.3900   30.7810   45.3090 C   0  0  0  0  0  0  0  0  0  0  0  0
   59.3020   34.7040   44.9190 C   0  0  0  0  0  0  0  0  0  0  0  0
   59.2796   33.2175   50.4001 H   0  0  0  0  0  0  0  0  0  0  0  0
   57.8605   32.6693   49.4451 H   0  0  0  0  0  0  0  0  0  0  0  0
   59.3721   31.6989   49.4451 H   0  0  0  0  0  0  0  0  0  0  0  0
   61.4910   33.8822   48.8854 H   0  0  0  0  0  0  0  0  0  0  0  0
   57.3825   32.1818   46.7722 H   0  0  0  0  0  0  0  0  0  0  0  0
   56.7132   33.6752   47.5468 H   0  0  0  0  0  0  0  0  0  0  0  0
   56.2474   33.1591   44.9842 H   0  0  0  0  0  0  0  0  0  0  0  0
   56.6341   34.8516   45.5729 H   0  0  0  0  0  0  0  0  0  0  0  0
   58.0730   32.8526   42.6392 H   0  0  0  0  0  0  0  0  0  0  0  0
   59.5255   32.5694   43.7189 H   0  0  0  0  0  0  0  0  0  0  0  0
   56.1873   31.4210   42.7727 H   0  0  0  0  0  0  0  0  0  0  0  0
   55.1539   29.3560   43.7296 H   0  0  0  0  0  0  0  0  0  0  0  0
   58.2269   29.1041   46.6713 H   0  0  0  0  0  0  0  0  0  0  0  0
   59.3203   31.1578   45.7591 H   0  0  0  0  0  0  0  0  0  0  0  0
   60.1558   34.5091   44.2534 H   0  0  0  0  0  0  0  0  0  0  0  0
   59.0459   35.7738   44.9147 H   0  0  0  0  0  0  0  0  0  0  0  0
  1  2  1  0
  2  3  1  0
  3  4  2  0
  4  5  1  0
  5  6  2  0
  6  7  1  0
  7  8  1  0
  8  9  1  0
  9 10  1  0
 10 11  1  0
 11 12  2  0
 12 13  1  0
 13 14  2  0
 14 15  1  0
 15 16  2  0
  9 17  1  0
  6  2  1  0
 16 11  1  0
 17  5  1  0
  1 18  1  0
  1 19  1  0
  1 20  1  0
  3 21  1  0
  7 22  1  0
  7 23  1  0
  8 24  1  0
  8 25  1  0
 10 26  1  0
 10 27  1  0
 12 28  1  0
 13 29  1  0
 15 30  1  0
 16 31  1  0
 17 32  1  0
 17 33  1  0
M  END
>  <UniqueID>  (1) 
1

>  <SMILES>  (1) 
Cn1cnc2c1CCN(Cc1ccncc1)C2

>  <Energy>  (1) 
74.68406371748324

>  <Genealogy>  (1) 
Cn1cnc2c1CCN(Cc1ccncc1)C2 (3D coordinates assigned)
Cn1cnc2c1CCN(Cc1ccncc1)C2 (nonaromatic ring conformer: 74.68406371748324 kcal/mol)

>  <smiles>  (1) 
Cn1cnc2c1CCN(Cc1ccncc1)C2

>  <score_type>  (1) 
oracle

>  <origin>  (1) 
adg

>  <m_score__min__energy>  (1) 
-6.2000000000000002

>  <m_primary>  (1) 
energy

$$$$
1:0
     RDKit          3D

 39 39  0  0  0  0  0  0  0  0999 V2000
   61.5550   33.8460   46.7570 C   0  0  0  0  0  0  0  0  0  0  0  0
   60.2290   34.4740   46.3360 C   0  0  0  0  0  0  0  0  0  0  0  0
   59.1270   33.4960   46.4830 N   0  0  0  0  0  0  0  0  0  0  0  0
   57.8050   34.1590   46.3990 C   0  0  0  0  0  0  0  0  0  0  0  0
   57.3410   34.2290   44.9470 C   0  0  0  0  0  0  0  0  0  0  0  0
   59.2570   32.7390   47.7490 C   0  0  0  0  0  0  0  0  0  0  0  0
   59.1530   31.2670   47.4840 C   0  0  0  0  0  0  0  0  0  0  0  0
   59.2560   30.4590   48.4470 O   0  0  0  0  0  0  0  0  0  0  0  0
   58.9110   30.7840   46.1540 N   0  0  0  0  0  0  0  0  0  0  0  0
   58.7220   29.3900   45.8720 C   0  0  0  0  0  0  0  0  0  0  0  0
   59.7210   28.4900   46.2670 C   0  0  0  0  0  0  0  0  0  0  0  0
   59.6180   27.1340   45.9570 C   0  0  0  0  0  0  0  0  0  0  0  0
   58.5120   26.6620   45.2520 C   0  0  0  0  0  0  0  0  0  0  0  0
   57.4950   27.5410   44.8720 C   0  0  0  0  0  0  0  0  0  0  0  0
   57.5730   28.9100   45.1900 C   0  0  0  0  0  0  0  0  0  0  0  0
   56.4270   29.7850   44.8470 C   0  0  0  0  0  0  0  0  0  0  0  0
   55.2500   29.3290   44.8520 O   0  0  0  0  0  0  0  0  0  0  0  0
   56.6590   31.1160   44.4820 O   0  0  0  0  0  0  0  0  0  0  0  0
   57.3830   31.4750   43.3110 C   0  0  0  0  0  0  0  0  0  0  0  0
   61.6150   33.8176   47.8550 H   0  0  0  0  0  0  0  0  0  0  0  0
   61.6184   32.8222   46.3597 H   0  0  0  0  0  0  0  0  0  0  0  0
   62.3872   34.4456   46.3597 H   0  0  0  0  0  0  0  0  0  0  0  0
   60.0244   35.3491   46.9703 H   0  0  0  0  0  0  0  0  0  0  0  0
   60.2971   34.7802   45.2817 H   0  0  0  0  0  0  0  0  0  0  0  0
   57.0731   33.5857   46.9869 H   0  0  0  0  0  0  0  0  0  0  0  0
   57.8902   35.1806   46.7979 H   0  0  0  0  0  0  0  0  0  0  0  0
   56.2537   34.3930   44.9170 H   0  0  0  0  0  0  0  0  0  0  0  0
   57.8514   35.0603   44.4386 H   0  0  0  0  0  0  0  0  0  0  0  0
   57.5834   33.2841   44.4386 H   0  0  0  0  0  0  0  0  0  0  0  0
   60.2338   32.9582   48.2049 H   0  0  0  0  0  0  0  0  0  0  0  0
   58.4485   33.0392   48.4318 H   0  0  0  0  0  0  0  0  0  0  0  0
   58.6430   31.4720   45.4150 H   0  0  0  0  0  0  0  0  0  0  0  0
   60.5943   28.8563   46.8266 H   0  0  0  0  0  0  0  0  0  0  0  0
   60.4097   26.4369   46.2689 H   0  0  0  0  0  0  0  0  0  0  0  0
   58.4399   25.5950   44.9943 H   0  0  0  0  0  0  0  0  0  0  0  0
   56.6243   27.1594   44.3186 H   0  0  0  0  0  0  0  0  0  0  0  0
   58.3343   31.9467   43.5983 H   0  0  0  0  0  0  0  0  0  0  0  0
   57.5862   30.5733   42.7147 H   0  0  0  0  0  0  0  0  0  0  0  0
   56.7882   32.1826   42.7147 H   0  0  0  0  0  0  0  0  0  0  0  0
  1  2  1  0
  2  3  1  0
  3  4  1  0
  4  5  1  0
  3  6  1  0
  6  7  1  0
  7  8  2  0
  7  9  1  0
  9 10  1  0
 10 11  2  0
 11 12  1  0
 12 13  2  0
 13 14  1  0
 14 15  2  0
 15 16  1  0
 16 17  2  0
 16 18  1  0
 18 19  1  0
 15 10  1  0
  1 20  1  0
  1 21  1  0
  1 22  1  0
  2 23  1  0
  2 24  1  0
  4 25  1  0
  4 26  1  0
  5 27  1  0
  5 28  1  0
  5 29  1  0
  6 30  1  0
  6 31  1  0
  9 32  1  0
 11 33  1  0
 12 34  1  0
 13 35  1  0
 14 36  1  0
 19 37  1  0
 19 38  1  0
 19 39  1  0
M  END
>  <UniqueID>  (2) 
2

>  <SMILES>  (2) 
CCN(CC)CC(=O)Nc1ccccc1C(=O)OC

>  <Energy>  (2) 
40.31360895057406

>  <Genealogy>  (2) 
CCN(CC)CC(=O)Nc1ccccc1C(=O)OC (3D coordinates assigned)
CCN(CC)CC(=O)Nc1ccccc1C(=O)OC (optimized conformer: 40.31360895057406 kcal/mol)

>  <smiles>  (2) 
CCN(CC)CC(=O)Nc1ccccc1C(=O)OC

>  <score_type>  (2) 
oracle

>  <origin>  (2) 
adg

>  <m_score__min__energy>  (2) 
-5.6399999999999997

>  <m_primary>  (2) 
energy

$$$$
2:0
     RDKit          3D

 64 66  0  0  0  0  0  0  0  0999 V2000
   63.3500   33.8450   46.3710 C   0  0  0  0  0  0  0  0  0  0  0  0
   63.1770   32.5230   47.1180 C   0  0  0  0  0  0  0  0  0  0  0  0
   63.1090   32.7390   48.5800 N   0  0  0  0  0  0  0  0  0  0  0  0
   62.7550   34.1150   49.0110 C   0  0  0  0  0  0  0  0  0  0  0  0
   61.9250   34.1900   50.3040 C   0  0  0  0  0  0  0  0  0  0  0  0
   64.1660   32.0730   49.3800 C   0  0  0  0  0  0  0  0  0  0  0  0
   63.6450   31.2620   50.5750 C   0  0  0  0  0  0  0  0  0  0  0  0
   62.5270   30.5050   50.1490 O   0  0  0  0  0  0  0  0  0  0  0  0
   61.6100   30.2910   51.2040 C   0  0  0  0  0  0  0  0  0  0  0  0
   60.3850   31.2090   51.0700 C   0  0  0  0  0  0  0  0  0  0  0  0
   59.6350   30.9740   49.7500 C   0  0  0  0  0  0  0  0  0  0  0  0
   60.5720   30.9210   48.6140 N   0  0  0  0  0  0  0  0  0  0  0  0
   59.8590   31.0780   47.3530 C   0  0  0  0  0  0  0  0  0  0  0  0
   59.4800   32.3710   46.8960 C   0  0  0  0  0  0  0  0  0  0  0  0
   58.8510   32.5040   45.6290 C   0  0  0  0  0  0  0  0  0  0  0  0
   58.4590   31.3840   44.9250 N   0  0  0  0  0  0  0  0  0  0  0  0
   57.5650   31.5270   43.7520 C   0  0  0  0  0  0  0  0  0  0  0  0
   58.9150   30.1340   45.2910 C   0  0  0  0  0  0  0  0  0  0  0  0
   58.7240   29.0030   44.4520 C   0  0  0  0  0  0  0  0  0  0  0  0
   59.1660   27.7400   44.8290 C   0  0  0  0  0  0  0  0  0  0  0  0
   59.8280   27.5660   46.0340 C   0  0  0  0  0  0  0  0  0  0  0  0
   60.0580   28.6540   46.8670 C   0  0  0  0  0  0  0  0  0  0  0  0
   59.6150   29.9560   46.5170 C   0  0  0  0  0  0  0  0  0  0  0  0
   58.5820   33.8940   45.0630 C   0  0  0  0  0  0  0  0  0  0  0  0
   59.4690   34.9690   45.6750 C   0  0  0  0  0  0  0  0  0  0  0  0
   59.3070   34.9380   47.1820 C   0  0  0  0  0  0  0  0  0  0  0  0
   59.7980   33.6030   47.7490 C   0  0  0  0  0  0  0  0  0  0  0  0
   63.4573   34.6648   47.0965 H   0  0  0  0  0  0  0  0  0  0  0  0
   64.2492   33.7943   45.7394 H   0  0  0  0  0  0  0  0  0  0  0  0
   62.4681   34.0274   45.7394 H   0  0  0  0  0  0  0  0  0  0  0  0
   62.2468   32.0407   46.7830 H   0  0  0  0  0  0  0  0  0  0  0  0
   64.0456   31.8840   46.9005 H   0  0  0  0  0  0  0  0  0  0  0  0
   63.6883   34.6750   49.1700 H   0  0  0  0  0  0  0  0  0  0  0  0
   62.1267   34.5384   48.2135 H   0  0  0  0  0  0  0  0  0  0  0  0
   62.5953   34.1294   51.1740 H   0  0  0  0  0  0  0  0  0  0  0  0
   61.3739   35.1416   50.3313 H   0  0  0  0  0  0  0  0  0  0  0  0
   61.2122   33.3526   50.3313 H   0  0  0  0  0  0  0  0  0  0  0  0
   64.7199   31.3914   48.7177 H   0  0  0  0  0  0  0  0  0  0  0  0
   64.7945   32.8741   49.7961 H   0  0  0  0  0  0  0  0  0  0  0  0
   64.4340   30.5870   50.9380 H   0  0  0  0  0  0  0  0  0  0  0  0
   63.3538   31.9383   51.3922 H   0  0  0  0  0  0  0  0  0  0  0  0
   61.2770   29.2428   51.1829 H   0  0  0  0  0  0  0  0  0  0  0  0
   62.1137   30.5188   52.1550 H   0  0  0  0  0  0  0  0  0  0  0  0
   59.7001   31.0127   51.9081 H   0  0  0  0  0  0  0  0  0  0  0  0
   60.7369   32.2511   51.0814 H   0  0  0  0  0  0  0  0  0  0  0  0
   59.0889   30.0211   49.8110 H   0  0  0  0  0  0  0  0  0  0  0  0
   58.9362   31.8083   49.5900 H   0  0  0  0  0  0  0  0  0  0  0  0
   61.1010   30.0240   48.6490 H   0  0  0  0  0  0  0  0  0  0  0  0
   61.3160   31.6480   48.7120 H   0  0  0  0  0  0  0  0  0  0  0  0
   56.5331   31.6921   44.0954 H   0  0  0  0  0  0  0  0  0  0  0  0
   57.8910   32.3844   43.1449 H   0  0  0  0  0  0  0  0  0  0  0  0
   57.6073   30.6107   43.1449 H   0  0  0  0  0  0  0  0  0  0  0  0
   58.2161   29.1295   43.4845 H   0  0  0  0  0  0  0  0  0  0  0  0
   58.9900   26.8773   44.1697 H   0  0  0  0  0  0  0  0  0  0  0  0
   60.1721   26.5645   46.3316 H   0  0  0  0  0  0  0  0  0  0  0  0
   60.5937   28.5033   47.8159 H   0  0  0  0  0  0  0  0  0  0  0  0
   58.7586   33.8704   43.9775 H   0  0  0  0  0  0  0  0  0  0  0  0
   57.5402   34.1510   45.3049 H   0  0  0  0  0  0  0  0  0  0  0  0
   60.5194   34.7751   45.4122 H   0  0  0  0  0  0  0  0  0  0  0  0
   59.1787   35.9571   45.2886 H   0  0  0  0  0  0  0  0  0  0  0  0
   59.8928   35.7566   47.6256 H   0  0  0  0  0  0  0  0  0  0  0  0
   58.2412   35.0570   47.4268 H   0  0  0  0  0  0  0  0  0  0  0  0
   60.8903   33.6639   47.8635 H   0  0  0  0  0  0  0  0  0  0  0  0
   59.2616   33.4611   48.6988 H   0  0  0  0  0  0  0  0  0  0  0  0
  1  2  1  0
  2  3  1  0
  3  4  1  0
  4  5  1  0
  3  6  1  0
  6  7  1  0
  7  8  1  0
  8  9  1  0
  9 10  1  0
 10 11  1  0
 11 12  1  0
 12 13  1  0
 13 14  2  0
 14 15  1  0
 15 16  2  0
 16 17  1  0
 16 18  1  0
 18 19  2  0
 19 20  1  0
 20 21  2  0
 21 22  1  0
 22 23  2  0
 15 24  1  0
 24 25  1  0
 25 26  1  0
 26 27  1  0
 23 13  1  0
 27 14  1  0
 23 18  1  0
  1 28  1  0
  1 29  1  0
  1 30  1  0
  2 31  1  0
  2 32  1  0
  4 33  1  0
  4 34  1  0
  5 35  1  0
  5 36  1  0
  5 37  1  0
  6 38  1  0
  6 39  1  0
  7 40  1  0
  7 41  1  0
  9 42  1  0
  9 43  1  0
 10 44  1  0
 10 45  1  0
 11 46  1  0
 11 47  1  0
 12 48  1  0
 12 49  1  0
 17 50  1  0
 17 51  1  0
 17 52  1  0
 19 53  1  0
 20 54  1  0
 21 55  1  0
 22 56  1  0
 24 57  1  0
 24 58  1  0
 25 59  1  0
 25 60  1  0
 26 61  1  0
 26 62  1  0
 27 63  1  0
 27 64  1  0
M  CHG  2  12   1  16   1
M  END
>  <UniqueID>  (3) 
3

>  <SMILES>  (3) 
CCN(CC)CCOCCC[NH2+]c1c2c([n+](C)c3ccccc13)CCCC2

>  <Energy>  (3) 
90.0401351522857

>  <Genealogy>  (3) 
CCN(CC)CCOCCC[NH2+]c1c2c([n+](C)c3ccccc13)CCCC2 (protonated)
CCN(CC)CCOCCC[NH2+]c1c2c([n+](C)c3ccccc13)CCCC2 (3D coordinates assigned)
CCN(CC)CCOCCC[NH2+]c1c2c([n+](C)c3ccccc13)CCCC2 (nonaromatic ring conformer: 90.0401351522857 kcal/mol)

>  <smiles>  (3) 
CCN(CC)CCOCCCNc1c2c([n+](C)c3ccccc13)CCCC2

>  <score_type>  (3) 
oracle

>  <origin>  (3) 
adg

>  <m_score__min__energy>  (3) 
-3.7000000000000002

>  <m_primary>  (3) 
energy

$$$$
3:0
     RDKit          3D

 57 59  0  0  0  0  0  0  0  0999 V2000
   61.7360   33.8540   46.8990 C   0  0  0  0  0  0  0  0  0  0  0  0
   63.2040   33.6550   46.5290 C   0  0  0  0  0  0  0  0  0  0  0  0
   63.7860   32.5240   47.2650 N   0  0  0  0  0  0  0  0  0  0  0  0
   64.1640   32.9340   48.6280 C   0  0  0  0  0  0  0  0  0  0  0  0
   63.4620   32.0690   49.6860 C   0  0  0  0  0  0  0  0  0  0  0  0
   62.1900   31.6320   49.2440 O   0  0  0  0  0  0  0  0  0  0  0  0
   61.2450   31.5790   50.3000 C   0  0  0  0  0  0  0  0  0  0  0  0
   60.0550   32.4830   49.9700 C   0  0  0  0  0  0  0  0  0  0  0  0
   58.7380   31.6930   49.9370 C   0  0  0  0  0  0  0  0  0  0  0  0
   58.8890   30.3580   49.1940 C   0  0  0  0  0  0  0  0  0  0  0  0
   59.6190   30.5310   47.9330 N   0  0  0  0  0  0  0  0  0  0  0  0
   58.9570   30.5510   46.6550 C   0  0  0  0  0  0  0  0  0  0  0  0
   58.7610   29.3520   45.9400 C   0  0  0  0  0  0  0  0  0  0  0  0
   59.2060   28.1170   46.4600 C   0  0  0  0  0  0  0  0  0  0  0  0
   59.0930   26.9460   45.7160 C   0  0  0  0  0  0  0  0  0  0  0  0
   58.5480   26.9830   44.4400 C   0  0  0  0  0  0  0  0  0  0  0  0
   58.0830   28.1860   43.9110 C   0  0  0  0  0  0  0  0  0  0  0  0
   58.1430   29.3890   44.6610 C   0  0  0  0  0  0  0  0  0  0  0  0
   57.6530   30.5800   44.1590 N   0  0  0  0  0  0  0  0  0  0  0  0
   56.7870   30.5770   42.9580 C   0  0  0  0  0  0  0  0  0  0  0  0
   57.9490   31.7730   44.7930 C   0  0  0  0  0  0  0  0  0  0  0  0
   57.6810   33.0280   44.1850 C   0  0  0  0  0  0  0  0  0  0  0  0
   57.8890   34.2200   44.8750 C   0  0  0  0  0  0  0  0  0  0  0  0
   58.3690   34.1990   46.1790 C   0  0  0  0  0  0  0  0  0  0  0  0
   58.6940   32.9860   46.7810 C   0  0  0  0  0  0  0  0  0  0  0  0
   58.5440   31.7680   46.0830 C   0  0  0  0  0  0  0  0  0  0  0  0
   61.6325   33.8680   47.9940 H   0  0  0  0  0  0  0  0  0  0  0  0
   61.3796   34.8087   46.4848 H   0  0  0  0  0  0  0  0  0  0  0  0
   61.1383   33.0287   46.4848 H   0  0  0  0  0  0  0  0  0  0  0  0
   63.2789   33.4579   45.4494 H   0  0  0  0  0  0  0  0  0  0  0  0
   63.7582   34.5673   46.7946 H   0  0  0  0  0  0  0  0  0  0  0  0
   63.0850   31.7480   47.3250 H   0  0  0  0  0  0  0  0  0  0  0  0
   64.6330   32.1870   46.7500 H   0  0  0  0  0  0  0  0  0  0  0  0
   65.2528   32.8295   48.7446 H   0  0  0  0  0  0  0  0  0  0  0  0
   63.8556   33.9797   48.7741 H   0  0  0  0  0  0  0  0  0  0  0  0
   64.0870   31.1893   49.8994 H   0  0  0  0  0  0  0  0  0  0  0  0
   63.3202   32.6798   50.5897 H   0  0  0  0  0  0  0  0  0  0  0  0
   60.8946   30.5440   50.4260 H   0  0  0  0  0  0  0  0  0  0  0  0
   61.7182   31.9236   51.2313 H   0  0  0  0  0  0  0  0  0  0  0  0
   59.9807   33.2693   50.7356 H   0  0  0  0  0  0  0  0  0  0  0  0
   60.2199   32.9196   48.9739 H   0  0  0  0  0  0  0  0  0  0  0  0
   58.4187   31.4908   50.9700 H   0  0  0  0  0  0  0  0  0  0  0  0
   57.9912   32.2980   49.4020 H   0  0  0  0  0  0  0  0  0  0  0  0
   59.4396   29.6521   49.8332 H   0  0  0  0  0  0  0  0  0  0  0  0
   57.8848   29.9721   48.9645 H   0  0  0  0  0  0  0  0  0  0  0  0
   60.5990   30.8860   47.9890 H   0  0  0  0  0  0  0  0  0  0  0  0
   59.6479   28.0798   47.4666 H   0  0  0  0  0  0  0  0  0  0  0  0
   59.4359   25.9905   46.1396 H   0  0  0  0  0  0  0  0  0  0  0  0
   58.4828   26.0604   43.8445 H   0  0  0  0  0  0  0  0  0  0  0  0
   57.6624   28.2029   42.8947 H   0  0  0  0  0  0  0  0  0  0  0  0
   55.7313   30.5733   43.2672 H   0  0  0  0  0  0  0  0  0  0  0  0
   56.9900   31.4759   42.3573 H   0  0  0  0  0  0  0  0  0  0  0  0
   56.9963   29.6796   42.3573 H   0  0  0  0  0  0  0  0  0  0  0  0
   57.3030   33.0593   43.1525 H   0  0  0  0  0  0  0  0  0  0  0  0
   57.6726   35.1813   44.3860 H   0  0  0  0  0  0  0  0  0  0  0  0
   58.4922   35.1399   46.7353 H   0  0  0  0  0  0  0  0  0  0  0  0
   59.0725   32.9767   47.8138 H   0  0  0  0  0  0  0  0  0  0  0  0
  1  2  1  0
  2  3  1  0
  3  4  1  0
  4  5  1  0
  5  6  1  0
  6  7  1  0
  7  8  1  0
  8  9  1  0
  9 10  1  0
 10 11  1  0
 11 12  1  0
 12 13  2  0
 13 14  1  0
 14 15  2  0
 15 16  1  0
 16 17  2  0
 17 18  1  0
 18 19  2  0
 19 20  1  0
 19 21  1  0
 21 22  2  0
 22 23  1  0
 23 24  2  0
 24 25  1  0
 25 26  2  0
 26 12  1  0
 18 13  1  0
 26 21  1  0
  1 27  1  0
  1 28  1  0
  1 29  1  0
  2 30  1  0
  2 31  1  0
  3 32  1  0
  3 33  1  0
  4 34  1  0
  4 35  1  0
  5 36  1  0
  5 37  1  0
  7 38  1  0
  7 39  1  0
  8 40  1  0
  8 41  1  0
  9 42  1  0
  9 43  1  0
 10 44  1  0
 10 45  1  0
 11 46  1  0
 14 47  1  0
 15 48  1  0
 16 49  1  0
 17 50  1  0
 20 51  1  0
 20 52  1  0
 20 53  1  0
 22 54  1  0
 23 55  1  0
 24 56  1  0
 25 57  1  0
M  CHG  2   3   1  19   1
M  END
>  <UniqueID>  (4) 
4

>  <SMILES>  (4) 
CC[NH2+]CCOCCCCNc1c2ccccc2[n+](C)c2ccccc12

>  <Energy>  (4) 
72.42704498572374

>  <Genealogy>  (4) 
CC[NH2+]CCOCCCCNc1c2ccccc2[n+](C)c2ccccc12 (protonated)
CC[NH2+]CCOCCCCNc1c2ccccc2[n+](C)c2ccccc12 (3D coordinates assigned)
CC[NH2+]CCOCCCCNc1c2ccccc2[n+](C)c2ccccc12 (optimized conformer: 72.42704498572374 kcal/mol)

>  <smiles>  (4) 
CCNCCOCCCCNc1c2ccccc2[n+](C)c2ccccc12

>  <score_type>  (4) 
oracle

>  <origin>  (4) 
adg

>  <m_score__min__energy>  (4) 
-4.6100000000000003

>  <m_primary>  (4) 
energy

$$$$
4:0
     RDKit          3D

 59 61  0  0  0  0  0  0  0  0999 V2000
   58.1430   32.5930   43.0990 C   0  0  0  0  0  0  0  0  0  0  0  0
   57.4200   33.3170   44.2320 C   0  0  0  0  0  0  0  0  0  0  0  0
   58.3580   33.6250   45.3360 N   0  0  0  0  0  0  0  0  0  0  0  0
   59.1680   34.8370   45.0610 C   0  0  0  0  0  0  0  0  0  0  0  0
   59.8020   35.4620   46.3100 C   0  0  0  0  0  0  0  0  0  0  0  0
   57.6610   33.6480   46.6450 C   0  0  0  0  0  0  0  0  0  0  0  0
   58.1740   32.5790   47.6260 C   0  0  0  0  0  0  0  0  0  0  0  0
   59.3530   31.8680   47.1190 N   0  0  0  0  0  0  0  0  0  0  0  0
   59.8220   30.6320   47.6910 C   0  0  0  0  0  0  0  0  0  0  0  0
   60.6930   30.6350   48.7950 C   0  0  0  0  0  0  0  0  0  0  0  0
   61.3100   31.8270   49.2280 C   0  0  0  0  0  0  0  0  0  0  0  0
   62.1880   31.8230   50.3090 C   0  0  0  0  0  0  0  0  0  0  0  0
   62.4870   30.6310   50.9580 C   0  0  0  0  0  0  0  0  0  0  0  0
   61.9110   29.4360   50.5300 C   0  0  0  0  0  0  0  0  0  0  0  0
   60.9900   29.4110   49.4520 C   0  0  0  0  0  0  0  0  0  0  0  0
   60.4070   28.2350   49.0210 N   0  0  0  0  0  0  0  0  0  0  0  0
   60.4740   27.0230   49.8660 C   0  0  0  0  0  0  0  0  0  0  0  0
   59.7530   28.1950   47.8040 C   0  0  0  0  0  0  0  0  0  0  0  0
   59.3940   26.9700   47.1910 C   0  0  0  0  0  0  0  0  0  0  0  0
   58.6690   26.9430   46.0010 C   0  0  0  0  0  0  0  0  0  0  0  0
   58.2920   28.1330   45.3710 C   0  0  0  0  0  0  0  0  0  0  0  0
   57.5240   28.1060   44.1480 N   0  0  0  0  0  0  0  0  0  0  0  0
   57.2880   29.4590   43.6210 C   0  0  0  0  0  0  0  0  0  0  0  0
   55.9670   30.0600   44.1260 C   0  0  0  0  0  0  0  0  0  0  0  0
   55.4350   29.2660   45.1500 O   0  0  0  0  0  0  0  0  0  0  0  0
   58.6860   29.3540   45.9320 C   0  0  0  0  0  0  0  0  0  0  0  0
   59.4240   29.4020   47.1340 C   0  0  0  0  0  0  0  0  0  0  0  0
   58.8605   31.8745   43.5220 H   0  0  0  0  0  0  0  0  0  0  0  0
   57.4092   32.0568   42.4793 H   0  0  0  0  0  0  0  0  0  0  0  0
   58.6802   33.3261   42.4793 H   0  0  0  0  0  0  0  0  0  0  0  0
   56.9936   34.2553   43.8475 H   0  0  0  0  0  0  0  0  0  0  0  0
   56.6213   32.6656   44.6165 H   0  0  0  0  0  0  0  0  0  0  0  0
   59.9741   34.5633   44.3644 H   0  0  0  0  0  0  0  0  0  0  0  0
   58.4827   35.5888   44.6426 H   0  0  0  0  0  0  0  0  0  0  0  0
   59.3521   35.0185   47.2105 H   0  0  0  0  0  0  0  0  0  0  0  0
   60.8848   35.2682   46.3076 H   0  0  0  0  0  0  0  0  0  0  0  0
   59.6237   36.5475   46.3076 H   0  0  0  0  0  0  0  0  0  0  0  0
   57.8062   34.6386   47.1006 H   0  0  0  0  0  0  0  0  0  0  0  0
   56.5996   33.4319   46.4531 H   0  0  0  0  0  0  0  0  0  0  0  0
   58.4389   33.0692   48.5744 H   0  0  0  0  0  0  0  0  0  0  0  0
   57.3715   31.8391   47.7623 H   0  0  0  0  0  0  0  0  0  0  0  0
   59.7860   32.2080   46.2310 H   0  0  0  0  0  0  0  0  0  0  0  0
   61.0952   32.7710   48.7057 H   0  0  0  0  0  0  0  0  0  0  0  0
   62.6451   32.7639   50.6494 H   0  0  0  0  0  0  0  0  0  0  0  0
   63.1803   30.6306   51.8120 H   0  0  0  0  0  0  0  0  0  0  0  0
   62.1754   28.4963   51.0371 H   0  0  0  0  0  0  0  0  0  0  0  0
   60.4579   27.3142   50.9266 H   0  0  0  0  0  0  0  0  0  0  0  0
   59.6102   26.3771   49.6499 H   0  0  0  0  0  0  0  0  0  0  0  0
   61.4037   26.4763   49.6499 H   0  0  0  0  0  0  0  0  0  0  0  0
   59.6928   26.0223   47.6627 H   0  0  0  0  0  0  0  0  0  0  0  0
   58.3910   25.9773   45.5536 H   0  0  0  0  0  0  0  0  0  0  0  0
   58.0000   27.5170   43.4260 H   0  0  0  0  0  0  0  0  0  0  0  0
   56.5980   27.6560   44.3410 H   0  0  0  0  0  0  0  0  0  0  0  0
   58.1163   30.1107   43.9361 H   0  0  0  0  0  0  0  0  0  0  0  0
   57.2275   29.3872   42.5250 H   0  0  0  0  0  0  0  0  0  0  0  0
   56.1526   31.0735   44.5112 H   0  0  0  0  0  0  0  0  0  0  0  0
   55.2494   30.1005   43.2933 H   0  0  0  0  0  0  0  0  0  0  0  0
   55.6050   29.7490   46.0000 H   0  0  0  0  0  0  0  0  0  0  0  0
   58.4154   30.2928   45.4266 H   0  0  0  0  0  0  0  0  0  0  0  0
  1  2  1  0
  2  3  1  0
  3  4  1  0
  4  5  1  0
  3  6  1  0
  6  7  1  0
  7  8  1  0
  8  9  1  0
  9 10  2  0
 10 11  1  0
 11 12  2  0
 12 13  1  0
 13 14  2  0
 14 15  1  0
 15 16  2  0
 16 17  1  0
 16 18  1  0
 18 19  2  0
 19 20  1  0
 20 21  2  0
 21 22  1  0
 22 23  1  0
 23 24  1  0
 24 25  1  0
 21 26  1  0
 26 27  2  0
 27  9  1  0
 15 10  1  0
 27 18  1  0
  1 28  1  0
  1 29  1  0
  1 30  1  0
  2 31  1  0
  2 32  1  0
  4 33  1  0
  4 34  1  0
  5 35  1  0
  5 36  1  0
  5 37  1  0
  6 38  1  0
  6 39  1  0
  7 40  1  0
  7 41  1  0
  8 42  1  0
 11 43  1  0
 12 44  1  0
 13 45  1  0
 14 46  1  0
 17 47  1  0
 17 48  1  0
 17 49  1  0
 19 50  1  0
 20 51  1  0
 22 52  1  0
 22 53  1  0
 23 54  1  0
 23 55  1  0
 24 56  1  0
 24 57  1  0
 25 58  1  0
 26 59  1  0
M  CHG  2  16   1  22   1
M  END
>  <UniqueID>  (5) 
5

>  <SMILES>  (5) 
CCN(CC)CCNc1c2ccccc2[n+](C)c2ccc([NH2+]CCO)cc12

>  <Energy>  (5) 
82.3615262309861

>  <Genealogy>  (5) 
CCN(CC)CCNc1c2ccccc2[n+](C)c2ccc([NH2+]CCO)cc12 (protonated)
CCN(CC)CCNc1c2ccccc2[n+](C)c2ccc([NH2+]CCO)cc12 (3D coordinates assigned)
CCN(CC)CCNc1c2ccccc2[n+](C)c2ccc([NH2+]CCO)cc12 (optimized conformer: 82.3615262309861 kcal/mol)

>  <smiles>  (5) 
CCN(CC)CCNc1c2ccccc2[n+](C)c2ccc(NCCO)cc12

>  <score_type>  (5) 
oracle

>  <origin>  (5) 
adg

>  <m_score__min__energy>  (5) 
-5.2599999999999998

>  <m_primary>  (5) 
energy

$$$$
5:0
     RDKit          3D

 39 41  0  0  0  0  0  0  0  0999 V2000
   57.4040   32.3490   40.8260 C   0  0  0  0  0  0  0  0  0  0  0  0
   56.9440   31.4780   41.8560 O   0  0  0  0  0  0  0  0  0  0  0  0
   57.4430   31.4700   43.1660 C   0  0  0  0  0  0  0  0  0  0  0  0
   57.3910   30.3110   43.9920 C   0  0  0  0  0  0  0  0  0  0  0  0
   57.8970   30.3430   45.3040 C   0  0  0  0  0  0  0  0  0  0  0  0
   58.4520   31.5360   45.7570 C   0  0  0  0  0  0  0  0  0  0  0  0
   58.9610   31.7870   46.9750 N   0  0  0  0  0  0  0  0  0  0  0  0
   59.3400   33.0900   46.8910 C   0  0  0  0  0  0  0  0  0  0  0  0
   59.9620   33.8210   48.0560 C   0  0  0  0  0  0  0  0  0  0  0  0
   61.3750   34.1930   47.8240 N   0  0  0  0  0  0  0  0  0  0  0  0
   62.2560   33.9850   49.0000 C   0  0  0  0  0  0  0  0  0  0  0  0
   63.2920   32.8760   48.7630 C   0  0  0  0  0  0  0  0  0  0  0  0
   64.1380   33.1620   47.5900 N   0  0  0  0  0  0  0  0  0  0  0  0
   63.4330   33.8510   46.4910 C   0  0  0  0  0  0  0  0  0  0  0  0
   61.9130   33.6570   46.5550 C   0  0  0  0  0  0  0  0  0  0  0  0
   59.0930   33.6420   45.6680 N   0  0  0  0  0  0  0  0  0  0  0  0
   59.2590   35.0340   45.2520 C   0  0  0  0  0  0  0  0  0  0  0  0
   58.5160   32.6470   44.9710 C   0  0  0  0  0  0  0  0  0  0  0  0
   58.0140   32.6570   43.6680 C   0  0  0  0  0  0  0  0  0  0  0  0
   57.8724   33.2359   41.2778 H   0  0  0  0  0  0  0  0  0  0  0  0
   58.1415   31.8223   40.2026 H   0  0  0  0  0  0  0  0  0  0  0  0
   56.5531   32.6611   40.2026 H   0  0  0  0  0  0  0  0  0  0  0  0
   56.9510   29.3821   43.6003 H   0  0  0  0  0  0  0  0  0  0  0  0
   57.8554   29.4542   45.9507 H   0  0  0  0  0  0  0  0  0  0  0  0
   59.3848   34.7389   48.2411 H   0  0  0  0  0  0  0  0  0  0  0  0
   59.9413   33.1386   48.9185 H   0  0  0  0  0  0  0  0  0  0  0  0
   62.7863   34.9244   49.2154 H   0  0  0  0  0  0  0  0  0  0  0  0
   61.6223   33.6787   49.8454 H   0  0  0  0  0  0  0  0  0  0  0  0
   63.9332   32.7910   49.6528 H   0  0  0  0  0  0  0  0  0  0  0  0
   62.7517   31.9364   48.5753 H   0  0  0  0  0  0  0  0  0  0  0  0
   64.5080   32.2500   47.2320 H   0  0  0  0  0  0  0  0  0  0  0  0
   63.6540   34.9270   46.5500 H   0  0  0  0  0  0  0  0  0  0  0  0
   63.7856   33.4168   45.5438 H   0  0  0  0  0  0  0  0  0  0  0  0
   61.4449   34.1856   45.7115 H   0  0  0  0  0  0  0  0  0  0  0  0
   61.6892   32.5814   46.5000 H   0  0  0  0  0  0  0  0  0  0  0  0
   59.3356   35.6760   46.1419 H   0  0  0  0  0  0  0  0  0  0  0  0
   60.1750   35.1302   44.6506 H   0  0  0  0  0  0  0  0  0  0  0  0
   58.3913   35.3429   44.6506 H   0  0  0  0  0  0  0  0  0  0  0  0
   58.0628   33.5660   43.0504 H   0  0  0  0  0  0  0  0  0  0  0  0
  1  2  1  0
  2  3  1  0
  3  4  2  0
  4  5  1  0
  5  6  2  0
  6  7  1  0
  7  8  2  0
  8  9  1  0
  9 10  1  0
 10 11  1  0
 11 12  1  0
 12 13  1  0
 13 14  1  0
 14 15  1  0
  8 16  1  0
 16 17  1  0
 16 18  1  0
 18 19  2  0
 19  3  1  0
 18  6  1  0
 15 10  1  0
  1 20  1  0
  1 21  1  0
  1 22  1  0
  4 23  1  0
  5 24  1  0
  9 25  1  0
  9 26  1  0
 11 27  1  0
 11 28  1  0
 12 29  1  0
 12 30  1  0
 13 31  1  0
 14 32  1  0
 14 33  1  0
 15 34  1  0
 15 35  1  0
 17 36  1  0
 17 37  1  0
 17 38  1  0
 19 39  1  0
M  END
>  <UniqueID>  (6) 
6

>  <SMILES>  (6) 
COc1ccc2nc(CN3CCNCC3)n(C)c2c1

>  <Energy>  (6) 
87.8960972858578

>  <Genealogy>  (6) 
COc1ccc2nc(CN3CCNCC3)n(C)c2c1 (3D coordinates assigned)
COc1ccc2nc(CN3CCNCC3)n(C)c2c1 (nonaromatic ring conformer: 87.8960972858578 kcal/mol)

>  <smiles>  (6) 
COc1ccc2nc(CN3CCNCC3)n(C)c2c1

>  <score_type>  (6) 
oracle

>  <origin>  (6) 
adg

>  <m_score__min__energy>  (6) 
-6.5599999999999996

>  <m_primary>  (6) 
energy

$$$$
6:0
     RDKit          3D

 71 74  0  0  0  0  0  0  0  0999 V2000
   56.8150   29.8310   52.6330 C   0  0  0  0  0  0  0  0  0  0  0  0
   56.2260   31.1950   52.2980 C   0  0  0  0  0  0  0  0  0  0  0  0
   57.1020   31.9060   51.3570 N   0  0  0  0  0  0  0  0  0  0  0  0
   57.8830   32.9700   52.0160 C   0  0  0  0  0  0  0  0  0  0  0  0
   59.2490   33.1950   51.3470 C   0  0  0  0  0  0  0  0  0  0  0  0
   59.4750   32.2270   50.2730 N   0  0  0  0  0  0  0  0  0  0  0  0
   60.4260   32.4910   49.2300 C   0  0  0  0  0  0  0  0  0  0  0  0
   59.9750   33.1350   48.0610 C   0  0  0  0  0  0  0  0  0  0  0  0
   58.5930   33.3140   47.8220 C   0  0  0  0  0  0  0  0  0  0  0  0
   58.1450   33.9830   46.6850 C   0  0  0  0  0  0  0  0  0  0  0  0
   59.0580   34.4980   45.7760 C   0  0  0  0  0  0  0  0  0  0  0  0
   60.4250   34.3390   45.9930 C   0  0  0  0  0  0  0  0  0  0  0  0
   60.9140   33.6360   47.1260 C   0  0  0  0  0  0  0  0  0  0  0  0
   62.2670   33.4880   47.3580 N   0  0  0  0  0  0  0  0  0  0  0  0
   63.2400   33.8410   46.2990 C   0  0  0  0  0  0  0  0  0  0  0  0
   62.7120   32.9880   48.5660 C   0  0  0  0  0  0  0  0  0  0  0  0
   64.0540   33.1690   48.9800 C   0  0  0  0  0  0  0  0  0  0  0  0
   64.5160   32.6250   50.1690 C   0  0  0  0  0  0  0  0  0  0  0  0
   63.6920   31.8100   50.9270 C   0  0  0  0  0  0  0  0  0  0  0  0
   62.3640   31.5590   50.5390 C   0  0  0  0  0  0  0  0  0  0  0  0
   61.6210   30.5210   51.2400 N   0  0  0  0  0  0  0  0  0  0  0  0
   61.4650   29.2720   50.4470 C   0  0  0  0  0  0  0  0  0  0  0  0
   60.0090   29.0890   49.9250 C   0  0  0  0  0  0  0  0  0  0  0  0
   59.8730   28.9290   48.4360 N   0  0  0  0  0  0  0  0  0  0  0  0
   60.0680   27.4890   48.0910 C   0  0  0  0  0  0  0  0  0  0  0  0
   58.5250   29.4240   47.9860 C   0  0  0  0  0  0  0  0  0  0  0  0
   58.4960   30.1250   46.6080 C   0  0  0  0  0  0  0  0  0  0  0  0
   59.5650   29.6050   45.6580 C   0  0  0  0  0  0  0  0  0  0  0  0
   60.9690   29.7180   46.2700 C   0  0  0  0  0  0  0  0  0  0  0  0
   60.9670   29.7380   47.8170 C   0  0  0  0  0  0  0  0  0  0  0  0
   61.8170   32.3190   49.4490 C   0  0  0  0  0  0  0  0  0  0  0  0
   56.8664   29.7120   53.7253 H   0  0  0  0  0  0  0  0  0  0  0  0
   56.1775   29.0419   52.2078 H   0  0  0  0  0  0  0  0  0  0  0  0
   57.8266   29.7540   52.2078 H   0  0  0  0  0  0  0  0  0  0  0  0
   55.2343   31.0608   51.8414 H   0  0  0  0  0  0  0  0  0  0  0  0
   56.1360   31.7850   53.2220 H   0  0  0  0  0  0  0  0  0  0  0  0
   56.5150   32.3090   50.5910 H   0  0  0  0  0  0  0  0  0  0  0  0
   57.3096   33.9077   51.9722 H   0  0  0  0  0  0  0  0  0  0  0  0
   58.0659   32.6572   53.0546 H   0  0  0  0  0  0  0  0  0  0  0  0
   59.2805   34.2113   50.9273 H   0  0  0  0  0  0  0  0  0  0  0  0
   60.0352   33.0656   52.1054 H   0  0  0  0  0  0  0  0  0  0  0  0
   58.8590   31.3870   50.1780 H   0  0  0  0  0  0  0  0  0  0  0  0
   57.8619   32.9199   48.5432 H   0  0  0  0  0  0  0  0  0  0  0  0
   57.0660   34.1031   46.5077 H   0  0  0  0  0  0  0  0  0  0  0  0
   58.7021   35.0325   44.8829 H   0  0  0  0  0  0  0  0  0  0  0  0
   61.1389   34.7660   45.2733 H   0  0  0  0  0  0  0  0  0  0  0  0
   64.1781   34.1813   46.7617 H   0  0  0  0  0  0  0  0  0  0  0  0
   63.4386   32.9576   45.6743 H   0  0  0  0  0  0  0  0  0  0  0  0
   62.8260   34.6462   45.6743 H   0  0  0  0  0  0  0  0  0  0  0  0
   64.7413   33.7507   48.3481 H   0  0  0  0  0  0  0  0  0  0  0  0
   65.5390   32.8413   50.5107 H   0  0  0  0  0  0  0  0  0  0  0  0
   64.0827   31.3516   51.8475 H   0  0  0  0  0  0  0  0  0  0  0  0
   62.0880   30.3390   52.1570 H   0  0  0  0  0  0  0  0  0  0  0  0
   60.6520   30.8310   51.4400 H   0  0  0  0  0  0  0  0  0  0  0  0
   62.1485   29.3105   49.5860 H   0  0  0  0  0  0  0  0  0  0  0  0
   61.6993   28.4215   51.1040 H   0  0  0  0  0  0  0  0  0  0  0  0
   59.5875   28.1922   50.4026 H   0  0  0  0  0  0  0  0  0  0  0  0
   59.4767   30.0172   50.1800 H   0  0  0  0  0  0  0  0  0  0  0  0
   60.1480   26.8981   49.0153 H   0  0  0  0  0  0  0  0  0  0  0  0
   59.2098   27.1337   47.5018 H   0  0  0  0  0  0  0  0  0  0  0  0
   60.9898   27.3747   47.5018 H   0  0  0  0  0  0  0  0  0  0  0  0
   57.8453   28.5603   47.9406 H   0  0  0  0  0  0  0  0  0  0  0  0
   58.2254   30.1881   48.7184 H   0  0  0  0  0  0  0  0  0  0  0  0
   57.5093   29.9600   46.1507 H   0  0  0  0  0  0  0  0  0  0  0  0
   58.6948   31.1937   46.7764 H   0  0  0  0  0  0  0  0  0  0  0  0
   59.3582   28.5486   45.4318 H   0  0  0  0  0  0  0  0  0  0  0  0
   59.5384   30.2152   44.7432 H   0  0  0  0  0  0  0  0  0  0  0  0
   61.5660   28.8575   45.9335 H   0  0  0  0  0  0  0  0  0  0  0  0
   61.3927   30.6760   45.9341 H   0  0  0  0  0  0  0  0  0  0  0  0
   61.9310   29.3420   48.1689 H   0  0  0  0  0  0  0  0  0  0  0  0
   60.8004   30.7820   48.1207 H   0  0  0  0  0  0  0  0  0  0  0  0
  1  2  1  0
  2  3  1  0
  3  4  1  0
  4  5  1  0
  5  6  1  0
  6  7  1  0
  7  8  2  0
  8  9  1  0
  9 10  2  0
 10 11  1  0
 11 12  2  0
 12 13  1  0
 13 14  2  0
 14 15  1  0
 14 16  1  0
 16 17  2  0
 17 18  1  0
 18 19  2  0
 19 20  1  0
 20 21  1  0
 21 22  1  0
 22 23  1  0
 23 24  1  0
 24 25  1  0
 24 26  1  0
 26 27  1  0
 27 28  1  0
 28 29  1  0
 29 30  1  0
 20 31  2  0
 31  7  1  0
 13  8  1  0
 31 16  1  0
 30 24  1  0
  1 32  1  0
  1 33  1  0
  1 34  1  0
  2 35  1  0
  2 36  1  0
  3 37  1  0
  4 38  1  0
  4 39  1  0
  5 40  1  0
  5 41  1  0
  6 42  1  0
  9 43  1  0
 10 44  1  0
 11 45  1  0
 12 46  1  0
 15 47  1  0
 15 48  1  0
 15 49  1  0
 17 50  1  0
 18 51  1  0
 19 52  1  0
 21 53  1  0
 21 54  1  0
 22 55  1  0
 22 56  1  0
 23 57  1  0
 23 58  1  0
 25 59  1  0
 25 60  1  0
 25 61  1  0
 26 62  1  0
 26 63  1  0
 27 64  1  0
 27 65  1  0
 28 66  1  0
 28 67  1  0
 29 68  1  0
 29 69  1  0
 30 70  1  0
 30 71  1  0
M  CHG  3  14   1  21   1  24   1
M  END
>  <UniqueID>  (7) 
7

>  <SMILES>  (7) 
CCNCCNc1c2ccccc2[n+](C)c2cccc([NH2+]CC[N+]3(C)CCCCC3)c12

>  <Energy>  (7) 
133.1391033484205

>  <Genealogy>  (7) 
CCNCCNc1c2ccccc2[n+](C)c2cccc([NH2+]CC[N+]3(C)CCCCC3)c12 (protonated)
CCNCCNc1c2ccccc2[n+](C)c2cccc([NH2+]CC[N+]3(C)CCCCC3)c12 (3D coordinates assigned)
CCNCCNc1c2ccccc2[n+](C)c2cccc([NH2+]CC[N+]3(C)CCCCC3)c12 (nonaromatic ring conformer: 133.1391033484205 kcal/mol)

>  <smiles>  (7) 
CCNCCNc1c2ccccc2[n+](C)c2cccc(NCC[N+]3(C)CCCCC3)c12

>  <score_type>  (7) 
oracle

>  <origin>  (7) 
adg

>  <m_score__min__energy>  (7) 
-3.3700000000000001

>  <m_primary>  (7) 
energy

$$$$
7:0
     RDKit          3D

 36 38  0  0  0  0  0  0  0  0999 V2000
   59.3100   31.6410   47.1110 C   0  0  0  0  0  0  0  0  0  0  0  0
   59.3920   32.9630   46.4890 N   0  0  0  0  0  0  0  0  0  0  0  0
   58.5200   33.5320   45.6270 C   0  0  0  0  0  0  0  0  0  0  0  0
   57.0290   32.7480   44.9940 S   0  0  0  0  0  0  0  0  0  0  0  0
   57.8100   31.4720   43.9150 C   0  0  0  0  0  0  0  0  0  0  0  0
   57.9990   30.1240   44.6080 C   0  0  0  0  0  0  0  0  0  0  0  0
   56.9800   29.1600   44.0040 C   0  0  0  0  0  0  0  0  0  0  0  0
   56.2720   29.8890   42.8660 C   0  0  0  0  0  0  0  0  0  0  0  0
   57.0190   31.1960   42.6420 C   0  0  0  0  0  0  0  0  0  0  0  0
   58.8550   34.8080   45.3500 N   0  0  0  0  0  0  0  0  0  0  0  0
   59.9680   35.0510   46.0200 N   0  0  0  0  0  0  0  0  0  0  0  0
   60.3040   33.9380   46.7000 C   0  0  0  0  0  0  0  0  0  0  0  0
   61.4960   33.8390   47.5700 C   0  0  0  0  0  0  0  0  0  0  0  0
   61.4370   34.2150   48.9230 C   0  0  0  0  0  0  0  0  0  0  0  0
   62.5690   34.1010   49.7370 C   0  0  0  0  0  0  0  0  0  0  0  0
   63.7630   33.6010   49.2110 C   0  0  0  0  0  0  0  0  0  0  0  0
   63.8250   33.2070   47.8710 C   0  0  0  0  0  0  0  0  0  0  0  0
   62.6960   33.3200   47.0550 C   0  0  0  0  0  0  0  0  0  0  0  0
   59.3167   31.7497   48.2056 H   0  0  0  0  0  0  0  0  0  0  0  0
   58.3794   31.1454   46.7975 H   0  0  0  0  0  0  0  0  0  0  0  0
   60.1722   31.0341   46.7975 H   0  0  0  0  0  0  0  0  0  0  0  0
   58.7869   31.9157   43.6724 H   0  0  0  0  0  0  0  0  0  0  0  0
   59.0193   29.7510   44.4353 H   0  0  0  0  0  0  0  0  0  0  0  0
   57.8516   30.2187   45.6940 H   0  0  0  0  0  0  0  0  0  0  0  0
   57.4925   28.2674   43.6160 H   0  0  0  0  0  0  0  0  0  0  0  0
   56.2550   28.8376   44.7659 H   0  0  0  0  0  0  0  0  0  0  0  0
   56.2978   29.2777   41.9519 H   0  0  0  0  0  0  0  0  0  0  0  0
   55.2176   30.0774   43.1164 H   0  0  0  0  0  0  0  0  0  0  0  0
   57.7016   31.1004   41.7847 H   0  0  0  0  0  0  0  0  0  0  0  0
   56.3214   32.0180   42.4235 H   0  0  0  0  0  0  0  0  0  0  0  0
   60.4840   35.9580   45.9990 H   0  0  0  0  0  0  0  0  0  0  0  0
   60.4966   34.6006   49.3437 H   0  0  0  0  0  0  0  0  0  0  0  0
   62.5190   34.4055   50.7928 H   0  0  0  0  0  0  0  0  0  0  0  0
   64.6538   33.5174   49.8509 H   0  0  0  0  0  0  0  0  0  0  0  0
   64.7633   32.8077   47.4585 H   0  0  0  0  0  0  0  0  0  0  0  0
   62.7471   33.0008   46.0036 H   0  0  0  0  0  0  0  0  0  0  0  0
  1  2  1  0
  2  3  1  0
  3  4  1  0
  4  5  1  0
  5  6  1  0
  6  7  1  0
  7  8  1  0
  8  9  1  0
  3 10  2  0
 10 11  1  0
 11 12  2  0
 12 13  1  0
 13 14  2  0
 14 15  1  0
 15 16  2  0
 16 17  1  0
 17 18  2  0
 12  2  1  0
 18 13  1  0
  9  5  1  0
  1 19  1  0
  1 20  1  0
  1 21  1  0
  5 22  1  0
  6 23  1  0
  6 24  1  0
  7 25  1  0
  7 26  1  0
  8 27  1  0
  8 28  1  0
  9 29  1  0
  9 30  1  0
 11 31  1  0
 14 32  1  0
 15 33  1  0
 16 34  1  0
 17 35  1  0
 18 36  1  0
M  CHG  1  11   1
M  END
>  <UniqueID>  (8) 
8

>  <SMILES>  (8) 
Cn1c(SC2CCCC2)n[nH+]c1-c1ccccc1

>  <Energy>  (8) 
75.47372008317649

>  <Genealogy>  (8) 
Cn1c(SC2CCCC2)n[nH+]c1-c1ccccc1 (protonated)
Cn1c(SC2CCCC2)n[nH+]c1-c1ccccc1 (3D coordinates assigned)
Cn1c(SC2CCCC2)n[nH+]c1-c1ccccc1 (nonaromatic ring conformer: 75.47372008317649 kcal/mol)

>  <smiles>  (8) 
Cn1c(SC2CCCC2)nnc1-c1ccccc1

>  <score_type>  (8) 
oracle

>  <origin>  (8) 
adg

>  <m_score__min__energy>  (8) 
-6.46

>  <m_primary>  (8) 
energy

$$$$
8:0
     RDKit          3D

 54 53  0  0  0  0  0  0  0  0999 V2000
   60.1860   27.2560   46.6790 C   0  0  0  0  0  0  0  0  0  0  0  0
   60.2690   28.0970   47.9530 C   0  0  0  0  0  0  0  0  0  0  0  0
   59.0980   29.0820   48.0950 C   0  0  0  0  0  0  0  0  0  0  0  0
   59.5090   30.5300   47.7770 C   0  0  0  0  0  0  0  0  0  0  0  0
   60.9180   30.6190   47.1690 C   0  0  0  0  0  0  0  0  0  0  0  0
   61.9950   31.0660   48.1870 C   0  0  0  0  0  0  0  0  0  0  0  0
   63.2790   31.6000   47.5240 C   0  0  0  0  0  0  0  0  0  0  0  0
   63.4510   33.1250   47.6330 C   0  0  0  0  0  0  0  0  0  0  0  0
   62.4530   33.8960   46.7530 C   0  0  0  0  0  0  0  0  0  0  0  0
   61.0860   34.0540   47.4400 C   0  0  0  0  0  0  0  0  0  0  0  0
   59.9770   34.5030   46.4600 C   0  0  0  0  0  0  0  0  0  0  0  0
   58.7750   33.5400   46.4270 C   0  0  0  0  0  0  0  0  0  0  0  0
   57.8520   33.7580   45.2140 C   0  0  0  0  0  0  0  0  0  0  0  0
   58.4480   33.1930   43.9110 C   0  0  0  0  0  0  0  0  0  0  0  0
   57.6730   31.9750   43.3840 C   0  0  0  0  0  0  0  0  0  0  0  0
   56.6970   31.4020   44.4140 C   0  0  0  0  0  0  0  0  0  0  0  0
   57.3980   30.5350   45.2730 O   0  0  0  0  0  0  0  0  0  0  0  0
   56.8200   28.9610   45.0280 S   0  0  0  0  0  0  0  0  0  0  0  0
   57.2110   28.0820   46.1830 O   0  0  0  0  0  0  0  0  0  0  0  0
   57.4290   28.4130   43.7690 O   0  0  0  0  0  0  0  0  0  0  0  0
   55.1480   28.9680   44.8620 O   0  0  0  0  0  0  0  0  0  0  0  0
   60.0812   26.1942   46.9467 H   0  0  0  0  0  0  0  0  0  0  0  0
   59.3147   27.5725   46.0868 H   0  0  0  0  0  0  0  0  0  0  0  0
   61.1023   27.3961   46.0868 H   0  0  0  0  0  0  0  0  0  0  0  0
   60.2667   27.4211   48.8208 H   0  0  0  0  0  0  0  0  0  0  0  0
   61.1945   28.6891   47.8987 H   0  0  0  0  0  0  0  0  0  0  0  0
   58.2976   28.7817   47.4028 H   0  0  0  0  0  0  0  0  0  0  0  0
   58.7584   29.0513   49.1408 H   0  0  0  0  0  0  0  0  0  0  0  0
   58.7882   30.9528   47.0617 H   0  0  0  0  0  0  0  0  0  0  0  0
   59.5155   31.0922   48.7225 H   0  0  0  0  0  0  0  0  0  0  0  0
   61.1943   29.6276   46.7806 H   0  0  0  0  0  0  0  0  0  0  0  0
   60.8836   31.3794   46.3749 H   0  0  0  0  0  0  0  0  0  0  0  0
   61.5707   31.8619   48.8167 H   0  0  0  0  0  0  0  0  0  0  0  0
   62.2767   30.1785   48.7726 H   0  0  0  0  0  0  0  0  0  0  0  0
   64.1430   31.1190   48.0058 H   0  0  0  0  0  0  0  0  0  0  0  0
   63.2062   31.3634   46.4522 H   0  0  0  0  0  0  0  0  0  0  0  0
   63.3000   33.4227   48.6811 H   0  0  0  0  0  0  0  0  0  0  0  0
   64.4643   33.3723   47.2835 H   0  0  0  0  0  0  0  0  0  0  0  0
   62.8626   34.8949   46.5420 H   0  0  0  0  0  0  0  0  0  0  0  0
   62.3043   33.3245   45.8250 H   0  0  0  0  0  0  0  0  0  0  0  0
   60.7983   33.0872   47.8788 H   0  0  0  0  0  0  0  0  0  0  0  0
   61.1874   34.8341   48.2089 H   0  0  0  0  0  0  0  0  0  0  0  0
   59.6207   35.4976   46.7661 H   0  0  0  0  0  0  0  0  0  0  0  0
   60.4155   34.5157   45.4513 H   0  0  0  0  0  0  0  0  0  0  0  0
   59.1552   32.5083   46.3953 H   0  0  0  0  0  0  0  0  0  0  0  0
   58.1774   33.7344   47.3298 H   0  0  0  0  0  0  0  0  0  0  0  0
   56.8909   33.2592   45.4078 H   0  0  0  0  0  0  0  0  0  0  0  0
   57.7249   34.8425   45.0810 H   0  0  0  0  0  0  0  0  0  0  0  0
   58.4284   33.9814   43.1441 H   0  0  0  0  0  0  0  0  0  0  0  0
   59.4746   32.8644   44.1302 H   0  0  0  0  0  0  0  0  0  0  0  0
   57.1048   32.2789   42.4925 H   0  0  0  0  0  0  0  0  0  0  0  0
   58.4078   31.1901   43.1517 H   0  0  0  0  0  0  0  0  0  0  0  0
   56.2534   32.2217   44.9983 H   0  0  0  0  0  0  0  0  0  0  0  0
   55.8950   30.8507   43.9012 H   0  0  0  0  0  0  0  0  0  0  0  0
  1  2  1  0
  2  3  1  0
  3  4  1  0
  4  5  1  0
  5  6  1  0
  6  7  1  0
  7  8  1  0
  8  9  1  0
  9 10  1  0
 10 11  1  0
 11 12  1  0
 12 13  1  0
 13 14  1  0
 14 15  1  0
 15 16  1  0
 16 17  1  0
 17 18  1  0
 18 19  2  0
 18 20  2  0
 18 21  1  0
  1 22  1  0
  1 23  1  0
  1 24  1  0
  2 25  1  0
  2 26  1  0
  3 27  1  0
  3 28  1  0
  4 29  1  0
  4 30  1  0
  5 31  1  0
  5 32  1  0
  6 33  1  0
  6 34  1  0
  7 35  1  0
  7 36  1  0
  8 37  1  0
  8 38  1  0
  9 39  1  0
  9 40  1  0
 10 41  1  0
 10 42  1  0
 11 43  1  0
 11 44  1  0
 12 45  1  0
 12 46  1  0
 13 47  1  0
 13 48  1  0
 14 49  1  0
 14 50  1  0
 15 51  1  0
 15 52  1  0
 16 53  1  0
 16 54  1  0
M  CHG  1  21  -1
M  END
>  <UniqueID>  (9) 
9

>  <SMILES>  (9) 
CCCCCCCCCCCCCCCCOS(=O)(=O)[O-]

>  <Energy>  (9) 
27.180915012037392

>  <Genealogy>  (9) 
CCCCCCCCCCCCCCCCOS(=O)(=O)[O-] (protonated)
CCCCCCCCCCCCCCCCOS(=O)(=O)[O-] (3D coordinates assigned)
CCCCCCCCCCCCCCCCOS(=O)(=O)[O-] (optimized conformer: 27.180915012037392 kcal/mol)

>  <smiles>  (9) 
CCCCCCCCCCCCCCCCOS(=O)(=O)O

>  <score_type>  (9) 
oracle

>  <origin>  (9) 
adg

>  <m_score__min__energy>  (9) 
-10.07

>  <m_primary>  (9) 
energy

$$$$
9:0
     RDKit          3D

 39 41  0  0  0  0  0  0  0  0999 V2000
   57.0700   34.4840   44.9380 C   0  0  0  0  0  0  0  0  0  0  0  0
   58.1820   34.1290   45.9320 C   0  0  0  0  0  0  0  0  0  0  0  0
   59.4380   34.9670   45.6680 C   0  0  0  0  0  0  0  0  0  0  0  0
   58.5060   32.6570   45.8610 C   0  0  0  0  0  0  0  0  0  0  0  0
   59.5280   32.1530   46.6060 N   0  0  0  0  0  0  0  0  0  0  0  0
   59.8400   30.8340   46.5740 C   0  0  0  0  0  0  0  0  0  0  0  0
   59.1010   29.9600   45.7730 C   0  0  0  0  0  0  0  0  0  0  0  0
   58.0650   30.4930   44.9870 C   0  0  0  0  0  0  0  0  0  0  0  0
   57.7810   31.8240   45.0610 N   0  0  0  0  0  0  0  0  0  0  0  0
   57.2060   29.6000   44.1290 C   0  0  0  0  0  0  0  0  0  0  0  0
   57.8050   28.1950   43.9520 C   0  0  0  0  0  0  0  0  0  0  0  0
   58.3770   27.6520   45.2060 N   0  0  0  0  0  0  0  0  0  0  0  0
   57.3730   27.4180   46.2670 C   0  0  0  0  0  0  0  0  0  0  0  0
   56.4530   26.2960   45.8960 C   0  0  0  0  0  0  0  0  0  0  0  0
   56.8380   25.0590   45.4190 C   0  0  0  0  0  0  0  0  0  0  0  0
   55.6670   24.3530   45.2360 C   0  0  0  0  0  0  0  0  0  0  0  0
   54.6450   25.2030   45.6130 C   0  0  0  0  0  0  0  0  0  0  0  0
   55.1460   26.3520   46.0030 O   0  0  0  0  0  0  0  0  0  0  0  0
   59.4870   28.5030   45.6800 C   0  0  0  0  0  0  0  0  0  0  0  0
   56.1635   34.7734   45.4899 H   0  0  0  0  0  0  0  0  0  0  0  0
   57.3975   35.3223   44.3055 H   0  0  0  0  0  0  0  0  0  0  0  0
   56.8512   33.6111   44.3055 H   0  0  0  0  0  0  0  0  0  0  0  0
   57.8213   34.3594   46.9453 H   0  0  0  0  0  0  0  0  0  0  0  0
   59.8870   35.2666   46.6264 H   0  0  0  0  0  0  0  0  0  0  0  0
   60.1626   34.3708   45.0940 H   0  0  0  0  0  0  0  0  0  0  0  0
   59.1657   35.8650   45.0940 H   0  0  0  0  0  0  0  0  0  0  0  0
   60.6754   30.4519   47.1790 H   0  0  0  0  0  0  0  0  0  0  0  0
   56.9920   32.2080   44.4930 H   0  0  0  0  0  0  0  0  0  0  0  0
   56.2167   29.5043   44.6004 H   0  0  0  0  0  0  0  0  0  0  0  0
   57.1381   30.0609   43.1325 H   0  0  0  0  0  0  0  0  0  0  0  0
   57.0121   27.5162   43.6047 H   0  0  0  0  0  0  0  0  0  0  0  0
   58.6238   28.2740   43.2218 H   0  0  0  0  0  0  0  0  0  0  0  0
   57.8914   27.1637   47.2033 H   0  0  0  0  0  0  0  0  0  0  0  0
   56.7765   28.3335   46.3937 H   0  0  0  0  0  0  0  0  0  0  0  0
   57.8630   24.7097   45.2255 H   0  0  0  0  0  0  0  0  0  0  0  0
   55.5672   23.3222   44.8651 H   0  0  0  0  0  0  0  0  0  0  0  0
   53.5737   24.9545   45.5898 H   0  0  0  0  0  0  0  0  0  0  0  0
   59.7965   28.1559   46.6769 H   0  0  0  0  0  0  0  0  0  0  0  0
   60.3059   28.4206   44.9502 H   0  0  0  0  0  0  0  0  0  0  0  0
  1  2  1  0
  2  3  1  0
  2  4  1  0
  4  5  2  0
  5  6  1  0
  6  7  2  0
  7  8  1  0
  8  9  2  0
  8 10  1  0
 10 11  1  0
 11 12  1  0
 12 13  1  0
 13 14  1  0
 14 15  2  0
 15 16  1  0
 16 17  2  0
 17 18  1  0
 12 19  1  0
  9  4  1  0
 18 14  1  0
 19  7  1  0
  1 20  1  0
  1 21  1  0
  1 22  1  0
  2 23  1  0
  3 24  1  0
  3 25  1  0
  3 26  1  0
  6 27  1  0
  9 28  1  0
 10 29  1  0
 10 30  1  0
 11 31  1  0
 11 32  1  0
 13 33  1  0
 13 34  1  0
 15 35  1  0
 16 36  1  0
 17 37  1  0
 19 38  1  0
 19 39  1  0
M  CHG  1   9   1
M  END
>  <UniqueID>  (10) 
10

>  <SMILES>  (10) 
CC(C)c1ncc2c([nH+]1)CCN(Cc1ccco1)C2

>  <Energy>  (10) 
67.04011688202226

>  <Genealogy>  (10) 
CC(C)c1ncc2c([nH+]1)CCN(Cc1ccco1)C2 (protonated)
CC(C)c1ncc2c([nH+]1)CCN(Cc1ccco1)C2 (3D coordinates assigned)
CC(C)c1ncc2c([nH+]1)CCN(Cc1ccco1)C2 (nonaromatic ring conformer: 67.04011688202226 kcal/mol)

>  <smiles>  (10) 
CC(C)c1ncc2c(n1)CCN(Cc1ccco1)C2

>  <score_type>  (10) 
oracle

>  <origin>  (10) 
adg

>  <m_score__min__energy>  (10) 
-5.6500000000000004

>  <m_primary>  (10) 
energy

$$$$
10:0
     RDKit          3D

 60 63  0  0  0  0  0  0  0  0999 V2000
   61.8720   34.1830   49.7110 C   0  0  0  0  0  0  0  0  0  0  0  0
   63.1870   33.7210   50.3590 C   0  0  0  0  0  0  0  0  0  0  0  0
   64.0490   32.8900   49.4780 N   0  0  2  0  0  0  0  0  0  0  0  0
   65.3890   32.6950   50.0640 C   0  0  0  0  0  0  0  0  0  0  0  0
   64.1160   33.4370   48.0990 C   0  0  0  0  0  0  0  0  0  0  0  0
   63.2640   32.6500   47.0870 C   0  0  0  0  0  0  0  0  0  0  0  0
   63.0650   31.3250   47.5370 O   0  0  0  0  0  0  0  0  0  0  0  0
   61.7220   30.9460   47.3160 C   0  0  0  0  0  0  0  0  0  0  0  0
   61.1560   30.2510   48.5600 C   0  0  0  0  0  0  0  0  0  0  0  0
   60.2810   31.1730   49.4160 C   0  0  0  0  0  0  0  0  0  0  0  0
   58.9530   31.3520   48.8340 N   0  0  0  0  0  0  0  0  0  0  0  0
   58.7660   31.3910   47.4130 C   0  0  0  0  0  0  0  0  0  0  0  0
   58.8440   32.5960   46.6800 C   0  0  0  0  0  0  0  0  0  0  0  0
   59.1470   33.8100   47.3270 C   0  0  0  0  0  0  0  0  0  0  0  0
   59.2810   34.9870   46.5960 C   0  0  0  0  0  0  0  0  0  0  0  0
   59.1290   34.9730   45.2110 C   0  0  0  0  0  0  0  0  0  0  0  0
   58.8150   33.7880   44.5460 C   0  0  0  0  0  0  0  0  0  0  0  0
   58.6290   32.5800   45.2600 C   0  0  0  0  0  0  0  0  0  0  0  0
   58.2670   31.4010   44.6200 N   0  0  0  0  0  0  0  0  0  0  0  0
   57.7780   31.3870   43.2310 C   0  0  0  0  0  0  0  0  0  0  0  0
   58.3080   30.2400   45.3470 C   0  0  0  0  0  0  0  0  0  0  0  0
   58.5180   30.2260   46.7080 C   0  0  0  0  0  0  0  0  0  0  0  0
   58.4500   29.0040   47.1920 O   0  0  0  0  0  0  0  0  0  0  0  0
   58.2220   28.2030   46.1760 C   0  0  0  0  0  0  0  0  0  0  0  0
   58.0980   26.8180   46.2230 C   0  0  0  0  0  0  0  0  0  0  0  0
   57.9070   26.1320   45.0120 C   0  0  0  0  0  0  0  0  0  0  0  0
   57.8630   26.8350   43.7900 C   0  0  0  0  0  0  0  0  0  0  0  0
   57.9890   28.2350   43.7660 C   0  0  0  0  0  0  0  0  0  0  0  0
   58.1350   28.9050   44.9880 C   0  0  0  0  0  0  0  0  0  0  0  0
   61.1458   34.4381   50.4968 H   0  0  0  0  0  0  0  0  0  0  0  0
   62.0623   35.0681   49.0862 H   0  0  0  0  0  0  0  0  0  0  0  0
   61.4669   33.3734   49.0862 H   0  0  0  0  0  0  0  0  0  0  0  0
   63.7571   34.6142   50.6542 H   0  0  0  0  0  0  0  0  0  0  0  0
   62.9090   33.0867   51.2136 H   0  0  0  0  0  0  0  0  0  0  0  0
   63.5900   31.9470   49.4370 H   0  0  0  0  0  0  0  0  0  0  0  0
   65.3144   32.7059   51.1614 H   0  0  0  0  0  0  0  0  0  0  0  0
   65.7965   31.7281   49.7337 H   0  0  0  0  0  0  0  0  0  0  0  0
   66.0551   33.5057   49.7337 H   0  0  0  0  0  0  0  0  0  0  0  0
   63.7606   34.4778   48.1191 H   0  0  0  0  0  0  0  0  0  0  0  0
   65.1630   33.3614   47.7702 H   0  0  0  0  0  0  0  0  0  0  0  0
   62.2881   33.1445   46.9725 H   0  0  0  0  0  0  0  0  0  0  0  0
   63.7897   32.6241   46.1211 H   0  0  0  0  0  0  0  0  0  0  0  0
   61.1231   31.8421   47.0964 H   0  0  0  0  0  0  0  0  0  0  0  0
   61.6811   30.2491   46.4659 H   0  0  0  0  0  0  0  0  0  0  0  0
   60.5487   29.3929   48.2361 H   0  0  0  0  0  0  0  0  0  0  0  0
   62.0099   29.9397   49.1797 H   0  0  0  0  0  0  0  0  0  0  0  0
   60.1744   30.7333   50.4186 H   0  0  0  0  0  0  0  0  0  0  0  0
   60.7684   32.1578   49.4669 H   0  0  0  0  0  0  0  0  0  0  0  0
   58.2150   31.7880   49.4300 H   0  0  0  0  0  0  0  0  0  0  0  0
   59.2788   33.8281   48.4189 H   0  0  0  0  0  0  0  0  0  0  0  0
   59.5076   35.9310   47.1133 H   0  0  0  0  0  0  0  0  0  0  0  0
   59.2576   35.9032   44.6381 H   0  0  0  0  0  0  0  0  0  0  0  0
   58.7104   33.7922   43.4510 H   0  0  0  0  0  0  0  0  0  0  0  0
   56.6785   31.3555   43.2297 H   0  0  0  0  0  0  0  0  0  0  0  0
   58.1194   32.2953   42.7129 H   0  0  0  0  0  0  0  0  0  0  0  0
   58.1708   30.4997   42.7129 H   0  0  0  0  0  0  0  0  0  0  0  0
   58.1480   26.2766   47.1793 H   0  0  0  0  0  0  0  0  0  0  0  0
   57.7909   25.0382   45.0168 H   0  0  0  0  0  0  0  0  0  0  0  0
   57.7290   26.2832   42.8479 H   0  0  0  0  0  0  0  0  0  0  0  0
   57.9734   28.7884   42.8155 H   0  0  0  0  0  0  0  0  0  0  0  0
  1  2  1  0
  2  3  1  0
  3  4  1  0
  3  5  1  0
  5  6  1  0
  6  7  1  0
  7  8  1  0
  8  9  1  0
  9 10  1  0
 10 11  1  0
 11 12  1  0
 12 13  2  0
 13 14  1  0
 14 15  2  0
 15 16  1  0
 16 17  2  0
 17 18  1  0
 18 19  2  0
 19 20  1  0
 19 21  1  0
 21 22  2  0
 22 23  1  0
 23 24  1  0
 24 25  2  0
 25 26  1  0
 26 27  2  0
 27 28  1  0
 28 29  2  0
 22 12  1  0
 29 24  1  0
 18 13  1  0
 29 21  1  0
  1 30  1  0
  1 31  1  0
  1 32  1  0
  2 33  1  0
  2 34  1  0
  3 35  1  6
  4 36  1  0
  4 37  1  0
  4 38  1  0
  5 39  1  0
  5 40  1  0
  6 41  1  0
  6 42  1  0
  8 43  1  0
  8 44  1  0
  9 45  1  0
  9 46  1  0
 10 47  1  0
 10 48  1  0
 11 49  1  0
 14 50  1  0
 15 51  1  0
 16 52  1  0
 17 53  1  0
 20 54  1  0
 20 55  1  0
 20 56  1  0
 25 57  1  0
 26 58  1  0
 27 59  1  0
 28 60  1  0
M  CHG  2   3   1  19   1
M  END
>  <UniqueID>  (11) 
11

>  <SMILES>  (11) 
CC[N@H+](C)CCOCCCNc1c2ccccc2[n+](C)c2c1oc1ccccc12

>  <Energy>  (11) 
121.62313824592451

>  <Genealogy>  (11) 
CC[NH+](C)CCOCCCNc1c2ccccc2[n+](C)c2c1oc1ccccc12 (protonated)
CC[N@H+](C)CCOCCCNc1c2ccccc2[n+](C)c2c1oc1ccccc12 (chirality)
CC[N@H+](C)CCOCCCNc1c2ccccc2[n+](C)c2c1oc1ccccc12 (3D coordinates assigned)
CC[N@H+](C)CCOCCCNc1c2ccccc2[n+](C)c2c1oc1ccccc12 (optimized conformer: 121.62313824592451 kcal/mol)

>  <smiles>  (11) 
CCN(C)CCOCCCNc1c2ccccc2[n+](C)c2c1oc1ccccc12

>  <score_type>  (11) 
oracle

>  <origin>  (11) 
adg

>  <m_score__min__energy>  (11) 
-4.4400000000000004

>  <m_primary>  (11) 
energy

$$$$
11:0
     RDKit          3D

 71 73  0  0  0  0  0  0  0  0999 V2000
   63.3870   33.8580   46.2750 C   0  0  0  0  0  0  0  0  0  0  0  0
   63.7500   33.4970   47.7200 C   0  0  0  0  0  0  0  0  0  0  0  0
   63.6730   32.0350   47.9700 N   0  0  0  0  0  0  0  0  0  0  0  0
   63.7610   31.7360   49.4330 C   0  0  0  0  0  0  0  0  0  0  0  0
   64.6790   32.7200   50.1620 C   0  0  0  0  0  0  0  0  0  0  0  0
   62.4170   31.5040   47.3820 C   0  0  0  0  0  0  0  0  0  0  0  0
   61.4950   30.8570   48.4380 C   0  0  0  0  0  0  0  0  0  0  0  0
   60.0800   31.1290   48.1740 N   0  0  0  0  0  0  0  0  0  0  0  0
   59.5330   31.0340   46.8490 C   0  0  0  0  0  0  0  0  0  0  0  0
   59.4160   29.7690   46.2480 C   0  0  0  0  0  0  0  0  0  0  0  0
   60.1290   28.6600   46.7510 C   0  0  0  0  0  0  0  0  0  0  0  0
   60.0450   27.4180   46.1270 C   0  0  0  0  0  0  0  0  0  0  0  0
   59.2590   27.2630   44.9890 C   0  0  0  0  0  0  0  0  0  0  0  0
   58.5330   28.3420   44.4880 C   0  0  0  0  0  0  0  0  0  0  0  0
   58.5680   29.6070   45.1280 C   0  0  0  0  0  0  0  0  0  0  0  0
   57.7930   30.6640   44.6960 N   0  0  0  0  0  0  0  0  0  0  0  0
   56.6510   30.4150   43.7860 C   0  0  0  0  0  0  0  0  0  0  0  0
   58.0740   31.9490   45.1250 C   0  0  0  0  0  0  0  0  0  0  0  0
   57.4730   33.0710   44.5050 C   0  0  0  0  0  0  0  0  0  0  0  0
   57.7220   34.3610   44.9500 C   0  0  0  0  0  0  0  0  0  0  0  0
   58.6290   34.5840   45.9710 C   0  0  0  0  0  0  0  0  0  0  0  0
   59.3150   33.5190   46.5720 C   0  0  0  0  0  0  0  0  0  0  0  0
   60.4420   33.9020   47.5080 C   0  0  0  0  0  0  0  0  0  0  0  0
   59.9420   33.9740   48.8910 N   0  0  0  0  0  0  0  0  0  0  0  0
   61.0320   34.1710   49.8560 C   0  0  0  0  0  0  0  0  0  0  0  0
   60.7040   33.4740   51.1780 C   0  0  0  0  0  0  0  0  0  0  0  0
   60.2070   32.1150   50.9310 N   0  0  0  0  0  0  0  0  0  0  0  0
   59.2450   31.7320   51.9720 C   0  0  0  0  0  0  0  0  0  0  0  0
   57.8360   31.5790   51.3900 C   0  0  0  0  0  0  0  0  0  0  0  0
   57.7880   32.0700   50.0150 N   0  0  0  0  0  0  0  0  0  0  0  0
   58.9890   32.1710   46.2010 C   0  0  0  0  0  0  0  0  0  0  0  0
   62.6070   34.6337   46.2757 H   0  0  0  0  0  0  0  0  0  0  0  0
   64.2801   34.2365   45.7562 H   0  0  0  0  0  0  0  0  0  0  0  0
   63.0134   32.9628   45.7562 H   0  0  0  0  0  0  0  0  0  0  0  0
   64.7761   33.8374   47.9230 H   0  0  0  0  0  0  0  0  0  0  0  0
   63.0252   33.9914   48.3835 H   0  0  0  0  0  0  0  0  0  0  0  0
   64.4670   31.5890   47.4500 H   0  0  0  0  0  0  0  0  0  0  0  0
   62.7535   31.7988   49.8701 H   0  0  0  0  0  0  0  0  0  0  0  0
   64.1816   30.7264   49.5501 H   0  0  0  0  0  0  0  0  0  0  0  0
   64.5620   32.5945   51.2485 H   0  0  0  0  0  0  0  0  0  0  0  0
   65.7241   32.5237   49.8807 H   0  0  0  0  0  0  0  0  0  0  0  0
   64.4107   33.7490   49.8807 H   0  0  0  0  0  0  0  0  0  0  0  0
   61.8754   32.3319   46.9011 H   0  0  0  0  0  0  0  0  0  0  0  0
   62.6920   30.7241   46.6567 H   0  0  0  0  0  0  0  0  0  0  0  0
   61.6547   29.7687   48.4294 H   0  0  0  0  0  0  0  0  0  0  0  0
   61.7462   31.2892   49.4178 H   0  0  0  0  0  0  0  0  0  0  0  0
   59.6140   31.7970   48.8280 H   0  0  0  0  0  0  0  0  0  0  0  0
   60.7580   28.7779   47.6457 H   0  0  0  0  0  0  0  0  0  0  0  0
   60.5998   26.5595   46.5335 H   0  0  0  0  0  0  0  0  0  0  0  0
   59.2107   26.2870   44.4840 H   0  0  0  0  0  0  0  0  0  0  0  0
   57.9233   28.2103   43.5820 H   0  0  0  0  0  0  0  0  0  0  0  0
   55.7458   30.2176   44.3791 H   0  0  0  0  0  0  0  0  0  0  0  0
   56.4882   31.2988   43.1516 H   0  0  0  0  0  0  0  0  0  0  0  0
   56.8709   29.5437   43.1516 H   0  0  0  0  0  0  0  0  0  0  0  0
   56.7947   32.9166   43.6529 H   0  0  0  0  0  0  0  0  0  0  0  0
   57.1962   35.2103   44.4893 H   0  0  0  0  0  0  0  0  0  0  0  0
   58.8145   35.6118   46.3162 H   0  0  0  0  0  0  0  0  0  0  0  0
   61.2393   33.1466   47.4472 H   0  0  0  0  0  0  0  0  0  0  0  0
   60.8383   34.8852   47.2145 H   0  0  0  0  0  0  0  0  0  0  0  0
   59.4840   33.0610   49.1220 H   0  0  0  0  0  0  0  0  0  0  0  0
   61.9612   33.7499   49.4447 H   0  0  0  0  0  0  0  0  0  0  0  0
   61.1556   35.2483   50.0408 H   0  0  0  0  0  0  0  0  0  0  0  0
   61.6132   33.4208   51.7949 H   0  0  0  0  0  0  0  0  0  0  0  0
   59.9254   34.0489   51.7007 H   0  0  0  0  0  0  0  0  0  0  0  0
   59.7070   32.1290   50.0110 H   0  0  0  0  0  0  0  0  0  0  0  0
   59.5569   30.7747   52.4150 H   0  0  0  0  0  0  0  0  0  0  0  0
   59.2238   32.5225   52.7367 H   0  0  0  0  0  0  0  0  0  0  0  0
   57.5533   30.5160   51.4037 H   0  0  0  0  0  0  0  0  0  0  0  0
   57.1359   32.1685   52.0002 H   0  0  0  0  0  0  0  0  0  0  0  0
   56.8220   32.4280   49.8390 H   0  0  0  0  0  0  0  0  0  0  0  0
   58.4270   32.8950   49.9400 H   0  0  0  0  0  0  0  0  0  0  0  0
  1  2  1  0
  2  3  1  0
  3  4  1  0
  4  5  1  0
  3  6  1  0
  6  7  1  0
  7  8  1  0
  8  9  1  0
  9 10  2  0
 10 11  1  0
 11 12  2  0
 12 13  1  0
 13 14  2  0
 14 15  1  0
 15 16  2  0
 16 17  1  0
 16 18  1  0
 18 19  2  0
 19 20  1  0
 20 21  2  0
 21 22  1  0
 22 23  1  0
 23 24  1  0
 24 25  1  0
 25 26  1  0
 26 27  1  0
 27 28  1  0
 28 29  1  0
 29 30  1  0
 22 31  2  0
 31  9  1  0
 15 10  1  0
 31 18  1  0
  1 32  1  0
  1 33  1  0
  1 34  1  0
  2 35  1  0
  2 36  1  0
  3 37  1  0
  4 38  1  0
  4 39  1  0
  5 40  1  0
  5 41  1  0
  5 42  1  0
  6 43  1  0
  6 44  1  0
  7 45  1  0
  7 46  1  0
  8 47  1  0
 11 48  1  0
 12 49  1  0
 13 50  1  0
 14 51  1  0
 17 52  1  0
 17 53  1  0
 17 54  1  0
 19 55  1  0
 20 56  1  0
 21 57  1  0
 23 58  1  0
 23 59  1  0
 24 60  1  0
 25 61  1  0
 25 62  1  0
 26 63  1  0
 26 64  1  0
 27 65  1  0
 28 66  1  0
 28 67  1  0
 29 68  1  0
 29 69  1  0
 30 70  1  0
 30 71  1  0
M  CHG  2   3   1  16   1
M  END
>  <UniqueID>  (12) 
12

>  <SMILES>  (12) 
CC[NH+](CC)CCNc1c2ccccc2[n+](C)c2cccc(CNCCNCCN)c12

>  <Energy>  (12) 
100.5412530479816

>  <Genealogy>  (12) 
CC[NH+](CC)CCNc1c2ccccc2[n+](C)c2cccc(CNCCNCCN)c12 (protonated)
CC[NH+](CC)CCNc1c2ccccc2[n+](C)c2cccc(CNCCNCCN)c12 (3D coordinates assigned)
CC[NH+](CC)CCNc1c2ccccc2[n+](C)c2cccc(CNCCNCCN)c12 (optimized conformer: 100.5412530479816 kcal/mol)

>  <smiles>  (12) 
CCN(CC)CCNc1c2ccccc2[n+](C)c2cccc(CNCCNCCN)c12

>  <score_type>  (12) 
oracle

>  <origin>  (12) 
adg

>  <m_score__min__energy>  (12) 
-4.0300000000000002

>  <m_primary>  (12) 
energy

$$$$
12:0
     RDKit          3D

 34 35  0  0  0  0  0  0  0  0999 V2000
   57.4240   26.3260   45.4690 C   0  0  0  0  0  0  0  0  0  0  0  0
   58.1220   26.3510   44.1060 C   0  0  0  0  0  0  0  0  0  0  0  0
   57.7800   27.5520   43.3240 N   0  0  0  0  0  0  0  0  0  0  0  0
   58.1300   28.7680   44.0280 C   0  0  0  0  0  0  0  0  0  0  0  0
   59.4150   28.9240   44.5590 C   0  0  0  0  0  0  0  0  0  0  0  0
   59.7490   30.0690   45.2040 N   0  0  0  0  0  0  0  0  0  0  0  0
   58.8860   31.0760   45.3650 N   0  0  0  0  0  0  0  0  0  0  0  0
   59.3620   32.2830   46.0610 C   0  0  1  0  0  0  0  0  0  0  0  0
   59.0930   33.5310   45.1920 C   0  0  0  0  0  0  0  0  0  0  0  0
   59.6310   34.7940   45.8780 C   0  0  0  0  0  0  0  0  0  0  0  0
   59.5910   34.6760   47.4090 C   0  0  0  0  0  0  0  0  0  0  0  0
   58.5380   33.6490   47.8480 C   0  0  0  0  0  0  0  0  0  0  0  0
   58.8000   32.3350   47.3730 O   0  0  0  0  0  0  0  0  0  0  0  0
   57.6150   30.9850   44.8590 C   0  0  0  0  0  0  0  0  0  0  0  0
   56.8000   31.9390   44.9950 O   0  0  0  0  0  0  0  0  0  0  0  0
   57.2140   29.8250   44.1830 C   0  0  0  0  0  0  0  0  0  0  0  0
   55.5710   29.7160   43.5470 Cl  0  0  0  0  0  0  0  0  0  0  0  0
   58.1793   26.3531   46.2683 H   0  0  0  0  0  0  0  0  0  0  0  0
   56.7636   27.2011   45.5588 H   0  0  0  0  0  0  0  0  0  0  0  0
   56.8278   25.4059   45.5588 H   0  0  0  0  0  0  0  0  0  0  0  0
   59.2102   26.3309   44.2655 H   0  0  0  0  0  0  0  0  0  0  0  0
   57.7826   25.4721   43.5382 H   0  0  0  0  0  0  0  0  0  0  0  0
   56.7600   27.5440   43.0910 H   0  0  0  0  0  0  0  0  0  0  0  0
   58.2900   27.5200   42.4110 H   0  0  0  0  0  0  0  0  0  0  0  0
   60.1550   28.1170   44.4531 H   0  0  0  0  0  0  0  0  0  0  0  0
   60.4523   32.2527   46.2039 H   0  0  0  0  0  0  0  0  0  0  0  0
   59.5913   33.4081   44.2191 H   0  0  0  0  0  0  0  0  0  0  0  0
   58.0071   33.6386   45.0530 H   0  0  0  0  0  0  0  0  0  0  0  0
   60.6719   34.9549   45.5609 H   0  0  0  0  0  0  0  0  0  0  0  0
   58.9917   35.6397   45.5846 H   0  0  0  0  0  0  0  0  0  0  0  0
   60.5792   34.3574   47.7723 H   0  0  0  0  0  0  0  0  0  0  0  0
   59.3260   35.6563   47.8319 H   0  0  0  0  0  0  0  0  0  0  0  0
   58.5123   33.6239   48.9474 H   0  0  0  0  0  0  0  0  0  0  0  0
   57.5764   33.9648   47.4173 H   0  0  0  0  0  0  0  0  0  0  0  0
  1  2  1  0
  2  3  1  0
  3  4  1  0
  4  5  1  0
  5  6  2  0
  6  7  1  0
  7  8  1  0
  8  9  1  0
  9 10  1  0
 10 11  1  0
 11 12  1  0
 12 13  1  0
  7 14  1  0
 14 15  2  0
 14 16  1  0
 16 17  1  0
 16  4  2  0
 13  8  1  0
  1 18  1  0
  1 19  1  0
  1 20  1  0
  2 21  1  0
  2 22  1  0
  3 23  1  0
  3 24  1  0
  5 25  1  0
  8 26  1  1
  9 27  1  0
  9 28  1  0
 10 29  1  0
 10 30  1  0
 11 31  1  0
 11 32  1  0
 12 33  1  0
 12 34  1  0
M  CHG  1   3   1
M  END
>  <UniqueID>  (13) 
13

>  <SMILES>  (13) 
CC[NH2+]c1cnn([C@H]2CCCCO2)c(=O)c1Cl

>  <Energy>  (13) 
45.62861044783611

>  <Genealogy>  (13) 
CC[NH2+]c1cnn(C2CCCCO2)c(=O)c1Cl (protonated)
CC[NH2+]c1cnn([C@H]2CCCCO2)c(=O)c1Cl (chirality)
CC[NH2+]c1cnn([C@H]2CCCCO2)c(=O)c1Cl (3D coordinates assigned)
CC[NH2+]c1cnn([C@H]2CCCCO2)c(=O)c1Cl (nonaromatic ring conformer: 45.62861044783611 kcal/mol)

>  <smiles>  (13) 
CCNc1cnn(C2CCCCO2)c(=O)c1Cl

>  <score_type>  (13) 
oracle

>  <origin>  (13) 
adg

>  <m_score__min__energy>  (13) 
-5.1100000000000003

>  <m_primary>  (13) 
energy

$$$$
13:0
     RDKit          3D

 58 60  0  0  0  0  0  0  0  0999 V2000
   62.9570   33.8460   46.3950 C   0  0  0  0  0  0  0  0  0  0  0  0
   63.6910   32.8070   47.2360 C   0  0  0  0  0  0  0  0  0  0  0  0
   62.9640   32.5270   48.4190 O   0  0  0  0  0  0  0  0  0  0  0  0
   63.4880   33.2350   49.5270 C   0  0  0  0  0  0  0  0  0  0  0  0
   62.3550   33.7890   50.3880 C   0  0  0  0  0  0  0  0  0  0  0  0
   61.1270   33.5650   49.7290 O   0  0  0  0  0  0  0  0  0  0  0  0
   60.3860   32.5880   50.4300 C   0  0  0  0  0  0  0  0  0  0  0  0
   60.1130   31.3970   49.5080 C   0  0  0  0  0  0  0  0  0  0  0  0
   60.7580   31.5780   48.1980 N   0  0  0  0  0  0  0  0  0  0  0  0
   59.7760   31.5010   47.1320 C   0  0  0  0  0  0  0  0  0  0  0  0
   59.1680   32.6750   46.6190 C   0  0  0  0  0  0  0  0  0  0  0  0
   58.3040   32.5900   45.5090 C   0  0  0  0  0  0  0  0  0  0  0  0
   57.9160   31.3640   45.0160 N   0  0  0  0  0  0  0  0  0  0  0  0
   56.8130   31.2770   44.0380 C   0  0  0  0  0  0  0  0  0  0  0  0
   58.5450   30.2190   45.4510 C   0  0  0  0  0  0  0  0  0  0  0  0
   59.4170   30.2550   46.5580 C   0  0  0  0  0  0  0  0  0  0  0  0
   59.8190   28.9120   47.1460 C   0  0  0  0  0  0  0  0  0  0  0  0
   60.3620   27.9650   46.0660 C   0  0  0  0  0  0  0  0  0  0  0  0
   59.6250   28.0710   44.7130 C   0  0  0  0  0  0  0  0  0  0  0  0
   58.3140   28.8680   44.7890 C   0  0  0  0  0  0  0  0  0  0  0  0
   57.8090   33.8980   44.9090 C   0  0  0  0  0  0  0  0  0  0  0  0
   58.9350   34.9440   44.8850 C   0  0  0  0  0  0  0  0  0  0  0  0
   59.6390   35.1280   46.2470 C   0  0  0  0  0  0  0  0  0  0  0  0
   59.2950   34.0410   47.2760 C   0  0  0  0  0  0  0  0  0  0  0  0
   62.4505   34.5629   47.0579 H   0  0  0  0  0  0  0  0  0  0  0  0
   63.6791   34.3805   45.7602 H   0  0  0  0  0  0  0  0  0  0  0  0
   62.2120   33.3440   45.7602 H   0  0  0  0  0  0  0  0  0  0  0  0
   63.8035   31.8816   46.6520 H   0  0  0  0  0  0  0  0  0  0  0  0
   64.6799   33.2033   47.5100 H   0  0  0  0  0  0  0  0  0  0  0  0
   64.1047   32.5550   50.1330 H   0  0  0  0  0  0  0  0  0  0  0  0
   64.0992   34.0723   49.1591 H   0  0  0  0  0  0  0  0  0  0  0  0
   62.3491   33.2793   51.3627 H   0  0  0  0  0  0  0  0  0  0  0  0
   62.5011   34.8677   50.5463 H   0  0  0  0  0  0  0  0  0  0  0  0
   60.9602   32.2502   51.3053 H   0  0  0  0  0  0  0  0  0  0  0  0
   59.4311   33.0207   50.7631 H   0  0  0  0  0  0  0  0  0  0  0  0
   60.5051   30.4828   49.9775 H   0  0  0  0  0  0  0  0  0  0  0  0
   59.0268   31.3189   49.3531 H   0  0  0  0  0  0  0  0  0  0  0  0
   61.2730   32.4840   48.1550 H   0  0  0  0  0  0  0  0  0  0  0  0
   61.5130   30.8700   48.0600 H   0  0  0  0  0  0  0  0  0  0  0  0
   55.8544   31.2014   44.5722 H   0  0  0  0  0  0  0  0  0  0  0  0
   56.8109   32.1778   43.4066 H   0  0  0  0  0  0  0  0  0  0  0  0
   56.9521   30.3870   43.4066 H   0  0  0  0  0  0  0  0  0  0  0  0
   60.5987   29.0731   47.9051 H   0  0  0  0  0  0  0  0  0  0  0  0
   58.9266   28.4499   47.5934 H   0  0  0  0  0  0  0  0  0  0  0  0
   61.4239   28.2000   45.9013 H   0  0  0  0  0  0  0  0  0  0  0  0
   60.2086   26.9397   46.4338 H   0  0  0  0  0  0  0  0  0  0  0  0
   60.2917   28.5658   43.9914 H   0  0  0  0  0  0  0  0  0  0  0  0
   59.3636   27.0474   44.4064 H   0  0  0  0  0  0  0  0  0  0  0  0
   57.9274   29.0257   43.7713 H   0  0  0  0  0  0  0  0  0  0  0  0
   57.5879   28.2993   45.3884 H   0  0  0  0  0  0  0  0  0  0  0  0
   57.4632   33.7158   43.8808 H   0  0  0  0  0  0  0  0  0  0  0  0
   56.9832   34.2808   45.5267 H   0  0  0  0  0  0  0  0  0  0  0  0
   59.6860   34.6292   44.1454 H   0  0  0  0  0  0  0  0  0  0  0  0
   58.4728   35.9087   44.6286 H   0  0  0  0  0  0  0  0  0  0  0  0
   60.7261   35.1152   46.0797 H   0  0  0  0  0  0  0  0  0  0  0  0
   59.2874   36.0840   46.6621 H   0  0  0  0  0  0  0  0  0  0  0  0
   60.0912   34.0009   48.0340 H   0  0  0  0  0  0  0  0  0  0  0  0
   58.3291   34.2944   47.7374 H   0  0  0  0  0  0  0  0  0  0  0  0
  1  2  1  0
  2  3  1  0
  3  4  1  0
  4  5  1  0
  5  6  1  0
  6  7  1  0
  7  8  1  0
  8  9  1  0
  9 10  1  0
 10 11  2  0
 11 12  1  0
 12 13  2  0
 13 14  1  0
 13 15  1  0
 15 16  2  0
 16 17  1  0
 17 18  1  0
 18 19  1  0
 19 20  1  0
 12 21  1  0
 21 22  1  0
 22 23  1  0
 23 24  1  0
 16 10  1  0
 24 11  1  0
 20 15  1  0
  1 25  1  0
  1 26  1  0
  1 27  1  0
  2 28  1  0
  2 29  1  0
  4 30  1  0
  4 31  1  0
  5 32  1  0
  5 33  1  0
  7 34  1  0
  7 35  1  0
  8 36  1  0
  8 37  1  0
  9 38  1  0
  9 39  1  0
 14 40  1  0
 14 41  1  0
 14 42  1  0
 17 43  1  0
 17 44  1  0
 18 45  1  0
 18 46  1  0
 19 47  1  0
 19 48  1  0
 20 49  1  0
 20 50  1  0
 21 51  1  0
 21 52  1  0
 22 53  1  0
 22 54  1  0
 23 55  1  0
 23 56  1  0
 24 57  1  0
 24 58  1  0
M  CHG  2   9   1  13   1
M  END
>  <UniqueID>  (14) 
14

>  <SMILES>  (14) 
CCOCCOCC[NH2+]c1c2c([n+](C)c3c1CCCC3)CCCC2

>  <Energy>  (14) 
81.33291172938557

>  <Genealogy>  (14) 
CCOCCOCC[NH2+]c1c2c([n+](C)c3c1CCCC3)CCCC2 (protonated)
CCOCCOCC[NH2+]c1c2c([n+](C)c3c1CCCC3)CCCC2 (3D coordinates assigned)
CCOCCOCC[NH2+]c1c2c([n+](C)c3c1CCCC3)CCCC2 (nonaromatic ring conformer: 81.33291172938557 kcal/mol)

>  <smiles>  (14) 
CCOCCOCCNc1c2c([n+](C)c3c1CCCC3)CCCC2

>  <score_type>  (14) 
oracle

>  <origin>  (14) 
adg

>  <m_score__min__energy>  (14) 
-3.7799999999999998

>  <m_primary>  (14) 
energy

$$$$
14:0
     RDKit          3D

 58 60  0  0  0  0  0  0  0  0999 V2000
   59.3460   34.9640   47.4830 C   0  0  0  0  0  0  0  0  0  0  0  0
   59.3780   34.2580   46.1300 C   0  0  0  0  0  0  0  0  0  0  0  0
   58.5110   33.0700   46.1450 N   0  0  0  0  0  0  0  0  0  0  0  0
   57.3740   33.2260   45.2260 C   0  0  0  0  0  0  0  0  0  0  0  0
   57.0080   31.8790   44.6090 C   0  0  0  0  0  0  0  0  0  0  0  0
   57.4480   30.8410   45.4650 O   0  0  0  0  0  0  0  0  0  0  0  0
   58.7430   30.5070   45.1620 N   0  0  0  0  0  0  0  0  0  0  0  0
   58.9590   29.0760   45.3990 C   0  0  0  0  0  0  0  0  0  0  0  0
   60.0270   28.8650   46.4890 C   0  0  0  0  0  0  0  0  0  0  0  0
   59.5920   29.3600   47.8830 C   0  0  0  0  0  0  0  0  0  0  0  0
   59.3430   30.8060   47.9150 N   0  0  0  0  0  0  0  0  0  0  0  0
   60.0070   31.7040   48.8220 C   0  0  0  0  0  0  0  0  0  0  0  0
   61.2030   32.3340   48.4330 C   0  0  0  0  0  0  0  0  0  0  0  0
   61.7260   32.1570   47.1340 C   0  0  0  0  0  0  0  0  0  0  0  0
   62.8980   32.8030   46.7450 C   0  0  0  0  0  0  0  0  0  0  0  0
   63.5610   33.6390   47.6360 C   0  0  0  0  0  0  0  0  0  0  0  0
   63.0760   33.8090   48.9320 C   0  0  0  0  0  0  0  0  0  0  0  0
   61.9090   33.1320   49.3710 C   0  0  0  0  0  0  0  0  0  0  0  0
   61.4580   33.2320   50.6740 N   0  0  0  0  0  0  0  0  0  0  0  0
   62.3440   33.7820   51.7240 C   0  0  0  0  0  0  0  0  0  0  0  0
   60.1870   32.7930   50.9980 C   0  0  0  0  0  0  0  0  0  0  0  0
   59.5770   33.1330   52.2320 C   0  0  0  0  0  0  0  0  0  0  0  0
   58.3000   32.6780   52.5540 C   0  0  0  0  0  0  0  0  0  0  0  0
   57.5830   31.8860   51.6550 C   0  0  0  0  0  0  0  0  0  0  0  0
   56.1850   31.4470   51.9780 C   0  0  0  0  0  0  0  0  0  0  0  0
   58.1430   31.5830   50.4100 C   0  0  0  0  0  0  0  0  0  0  0  0
   59.4460   32.0090   50.0750 C   0  0  0  0  0  0  0  0  0  0  0  0
   59.3799   34.2153   48.2882 H   0  0  0  0  0  0  0  0  0  0  0  0
   60.2147   35.6334   47.5679 H   0  0  0  0  0  0  0  0  0  0  0  0
   58.4203   35.5521   47.5679 H   0  0  0  0  0  0  0  0  0  0  0  0
   59.0270   34.9518   45.3519 H   0  0  0  0  0  0  0  0  0  0  0  0
   60.4102   33.9410   45.9199 H   0  0  0  0  0  0  0  0  0  0  0  0
   59.0810   32.2590   45.8060 H   0  0  0  0  0  0  0  0  0  0  0  0
   56.5092   33.6187   45.7809 H   0  0  0  0  0  0  0  0  0  0  0  0
   57.6535   33.9248   44.4238 H   0  0  0  0  0  0  0  0  0  0  0  0
   55.9169   31.8156   44.4842 H   0  0  0  0  0  0  0  0  0  0  0  0
   57.4921   31.7784   43.6264 H   0  0  0  0  0  0  0  0  0  0  0  0
   59.4570   31.0940   45.6650 H   0  0  0  0  0  0  0  0  0  0  0  0
   58.0141   28.6162   45.7242 H   0  0  0  0  0  0  0  0  0  0  0  0
   59.3062   28.6091   44.4655 H   0  0  0  0  0  0  0  0  0  0  0  0
   60.2486   27.7896   46.5553 H   0  0  0  0  0  0  0  0  0  0  0  0
   60.9074   29.4562   46.1969 H   0  0  0  0  0  0  0  0  0  0  0  0
   58.6681   28.8368   48.1704 H   0  0  0  0  0  0  0  0  0  0  0  0
   60.4128   29.1472   48.5837 H   0  0  0  0  0  0  0  0  0  0  0  0
   58.6970   31.2120   47.2000 H   0  0  0  0  0  0  0  0  0  0  0  0
   61.2031   31.5024   46.4213 H   0  0  0  0  0  0  0  0  0  0  0  0
   63.2988   32.6512   45.7319 H   0  0  0  0  0  0  0  0  0  0  0  0
   64.4713   34.1681   47.3175 H   0  0  0  0  0  0  0  0  0  0  0  0
   63.6065   34.4785   49.6251 H   0  0  0  0  0  0  0  0  0  0  0  0
   61.9383   33.5302   52.7150 H   0  0  0  0  0  0  0  0  0  0  0  0
   63.3498   33.3492   51.6187 H   0  0  0  0  0  0  0  0  0  0  0  0
   62.4024   34.8754   51.6187 H   0  0  0  0  0  0  0  0  0  0  0  0
   60.1213   33.7669   52.9475 H   0  0  0  0  0  0  0  0  0  0  0  0
   57.8536   32.9446   53.5233 H   0  0  0  0  0  0  0  0  0  0  0  0
   56.0564   31.4066   53.0697 H   0  0  0  0  0  0  0  0  0  0  0  0
   55.4678   32.1632   51.5505 H   0  0  0  0  0  0  0  0  0  0  0  0
   56.0060   30.4494   51.5505 H   0  0  0  0  0  0  0  0  0  0  0  0
   57.5586   31.0034   49.6802 H   0  0  0  0  0  0  0  0  0  0  0  0
  1  2  1  0
  2  3  1  0
  3  4  1  0
  4  5  1  0
  5  6  1  0
  6  7  1  0
  7  8  1  0
  8  9  1  0
  9 10  1  0
 10 11  1  0
 11 12  1  0
 12 13  2  0
 13 14  1  0
 14 15  2  0
 15 16  1  0
 16 17  2  0
 17 18  1  0
 18 19  2  0
 19 20  1  0
 19 21  1  0
 21 22  2  0
 22 23  1  0
 23 24  2  0
 24 25  1  0
 24 26  1  0
 26 27  2  0
 27 12  1  0
 18 13  1  0
 27 21  1  0
  1 28  1  0
  1 29  1  0
  1 30  1  0
  2 31  1  0
  2 32  1  0
  3 33  1  0
  4 34  1  0
  4 35  1  0
  5 36  1  0
  5 37  1  0
  7 38  1  0
  8 39  1  0
  8 40  1  0
  9 41  1  0
  9 42  1  0
 10 43  1  0
 10 44  1  0
 11 45  1  0
 14 46  1  0
 15 47  1  0
 16 48  1  0
 17 49  1  0
 20 50  1  0
 20 51  1  0
 20 52  1  0
 22 53  1  0
 23 54  1  0
 25 55  1  0
 25 56  1  0
 25 57  1  0
 26 58  1  0
M  CHG  1  19   1
M  END
>  <UniqueID>  (15) 
15

>  <SMILES>  (15) 
CCNCCONCCCNc1c2ccccc2[n+](C)c2ccc(C)cc12

>  <Energy>  (15) 
78.53209976131308

>  <Genealogy>  (15) 
CCNCCONCCCNc1c2ccccc2[n+](C)c2ccc(C)cc12 (3D coordinates assigned)
CCNCCONCCCNc1c2ccccc2[n+](C)c2ccc(C)cc12 (optimized conformer: 78.53209976131308 kcal/mol)

>  <smiles>  (15) 
CCNCCONCCCNc1c2ccccc2[n+](C)c2ccc(C)cc12

>  <score_type>  (15) 
oracle

>  <origin>  (15) 
adg

>  <m_score__min__energy>  (15) 
-5.8600000000000003

>  <m_primary>  (15) 
energy

$$$$
15:0
     RDKit          3D

 52 54  0  0  0  0  0  0  0  0999 V2000
   66.7670   30.4310   52.3290 C   0  0  0  0  0  0  0  0  0  0  0  0
   66.8760   30.8540   50.8650 C   0  0  0  0  0  0  0  0  0  0  0  0
   66.2050   32.1520   50.6340 N   0  0  0  0  0  0  0  0  0  0  0  0
   66.8990   33.3710   51.1060 C   0  0  0  0  0  0  0  0  0  0  0  0
   68.2890   33.4900   50.4830 C   0  0  0  0  0  0  0  0  0  0  0  0
   65.0170   32.1770   50.0520 C   0  0  0  0  0  0  0  0  0  0  0  0
   63.8980   31.4740   50.5670 C   0  0  0  0  0  0  0  0  0  0  0  0
   62.6770   31.5430   49.9000 C   0  0  0  0  0  0  0  0  0  0  0  0
   62.5680   32.2990   48.7330 C   0  0  0  0  0  0  0  0  0  0  0  0
   61.3580   32.3950   48.0300 C   0  0  0  0  0  0  0  0  0  0  0  0
   61.2840   33.1540   46.8500 C   0  0  0  0  0  0  0  0  0  0  0  0
   60.0280   33.2570   46.1570 N   0  0  0  0  0  0  0  0  0  0  0  0
   59.1510   34.3910   46.2460 C   0  0  0  0  0  0  0  0  0  0  0  0
   59.5470   35.4710   46.7640 O   0  0  0  0  0  0  0  0  0  0  0  0
   57.7840   34.3290   45.6370 C   0  0  0  0  0  0  0  0  0  0  0  0
   57.6570   33.1060   44.7700 C   0  0  0  0  0  0  0  0  0  0  0  0
   58.2030   33.0980   43.4770 C   0  0  0  0  0  0  0  0  0  0  0  0
   58.1120   31.9530   42.6830 C   0  0  0  0  0  0  0  0  0  0  0  0
   57.4850   30.8050   43.1750 C   0  0  0  0  0  0  0  0  0  0  0  0
   56.9430   30.7940   44.4740 C   0  0  0  0  0  0  0  0  0  0  0  0
   56.3090   29.6660   45.0150 O   0  0  0  0  0  0  0  0  0  0  0  0
   56.9620   28.4310   45.2900 C   0  0  0  0  0  0  0  0  0  0  0  0
   57.0380   31.9460   45.2650 C   0  0  0  0  0  0  0  0  0  0  0  0
   62.4280   33.8450   46.4040 C   0  0  0  0  0  0  0  0  0  0  0  0
   63.6330   33.7490   47.1050 C   0  0  0  0  0  0  0  0  0  0  0  0
   63.7090   32.9760   48.2680 C   0  0  0  0  0  0  0  0  0  0  0  0
   64.8580   32.8870   48.9310 O   0  0  0  0  0  0  0  0  0  0  0  0
   66.9888   31.2918   52.9769 H   0  0  0  0  0  0  0  0  0  0  0  0
   65.7471   30.0724   52.5321 H   0  0  0  0  0  0  0  0  0  0  0  0
   67.4866   29.6242   52.5321 H   0  0  0  0  0  0  0  0  0  0  0  0
   67.9386   30.9460   50.5959 H   0  0  0  0  0  0  0  0  0  0  0  0
   66.3842   30.0912   50.2435 H   0  0  0  0  0  0  0  0  0  0  0  0
   66.3041   34.2534   50.8277 H   0  0  0  0  0  0  0  0  0  0  0  0
   67.0105   33.3081   52.1985 H   0  0  0  0  0  0  0  0  0  0  0  0
   69.0439   33.5546   51.2805 H   0  0  0  0  0  0  0  0  0  0  0  0
   68.4885   32.6057   49.8600 H   0  0  0  0  0  0  0  0  0  0  0  0
   68.3353   34.3954   49.8600 H   0  0  0  0  0  0  0  0  0  0  0  0
   63.9936   30.8784   51.4868 H   0  0  0  0  0  0  0  0  0  0  0  0
   61.8023   31.0034   50.2921 H   0  0  0  0  0  0  0  0  0  0  0  0
   60.4641   31.8743   48.4038 H   0  0  0  0  0  0  0  0  0  0  0  0
   59.7850   32.5080   45.4700 H   0  0  0  0  0  0  0  0  0  0  0  0
   57.0310   34.2867   46.4377 H   0  0  0  0  0  0  0  0  0  0  0  0
   57.6250   35.2252   45.0193 H   0  0  0  0  0  0  0  0  0  0  0  0
   58.7042   33.9966   43.0879 H   0  0  0  0  0  0  0  0  0  0  0  0
   58.5349   31.9546   41.6676 H   0  0  0  0  0  0  0  0  0  0  0  0
   57.4148   29.9063   42.5445 H   0  0  0  0  0  0  0  0  0  0  0  0
   57.0365   28.2900   46.3784 H   0  0  0  0  0  0  0  0  0  0  0  0
   56.3830   27.6046   44.8520 H   0  0  0  0  0  0  0  0  0  0  0  0
   57.9710   28.4442   44.8520 H   0  0  0  0  0  0  0  0  0  0  0  0
   56.6238   31.9424   46.2840 H   0  0  0  0  0  0  0  0  0  0  0  0
   62.3722   34.4648   45.4970 H   0  0  0  0  0  0  0  0  0  0  0  0
   64.5236   34.2825   46.7413 H   0  0  0  0  0  0  0  0  0  0  0  0
  1  2  1  0
  2  3  1  0
  3  4  1  0
  4  5  1  0
  3  6  2  3
  6  7  1  0
  7  8  2  0
  8  9  1  0
  9 10  2  0
 10 11  1  0
 11 12  1  0
 12 13  1  0
 13 14  2  0
 13 15  1  0
 15 16  1  0
 16 17  2  0
 17 18  1  0
 18 19  2  0
 19 20  1  0
 20 21  1  0
 21 22  1  0
 20 23  2  0
 11 24  2  0
 24 25  1  0
 25 26  2  0
 26 27  1  0
 27  6  1  0
 26  9  1  0
 23 16  1  0
  1 28  1  0
  1 29  1  0
  1 30  1  0
  2 31  1  0
  2 32  1  0
  4 33  1  0
  4 34  1  0
  5 35  1  0
  5 36  1  0
  5 37  1  0
  7 38  1  0
  8 39  1  0
 10 40  1  0
 12 41  1  0
 15 42  1  0
 15 43  1  0
 17 44  1  0
 18 45  1  0
 19 46  1  0
 22 47  1  0
 22 48  1  0
 22 49  1  0
 23 50  1  0
 24 51  1  0
 25 52  1  0
M  CHG  1   3   1
M  END
>  <UniqueID>  (16) 
16

>  <SMILES>  (16) 
CC[N+](CC)=c1ccc2cc(NC(=O)Cc3cccc(OC)c3)ccc2o1

>  <Energy>  (16) 
58.86399681467915

>  <Genealogy>  (16) 
CC[N+](CC)=c1ccc2cc(NC(=O)Cc3cccc(OC)c3)ccc2o1 (3D coordinates assigned)
CC[N+](CC)=c1ccc2cc(NC(=O)Cc3cccc(OC)c3)ccc2o1 (optimized conformer: 58.86399681467915 kcal/mol)

>  <smiles>  (16) 
CC[N+](CC)=c1ccc2cc(NC(=O)Cc3cccc(OC)c3)ccc2o1

>  <score_type>  (16) 
oracle

>  <origin>  (16) 
adg

>  <m_score__min__energy>  (16) 
-6.7300000000000004

>  <m_primary>  (16) 
energy

$$$$
16:0
     RDKit          3D

 88 91  0  0  0  0  0  0  0  0999 V2000
   59.2960   33.4080   49.6120 C   0  0  0  0  0  0  0  0  0  0  0  0
   59.9010   34.5900   48.8490 C   0  0  0  0  0  0  0  0  0  0  0  0
   59.0230   35.0830   47.7720 N   0  0  0  0  0  0  0  0  0  0  0  0
   59.6520   35.1620   46.4380 C   0  0  0  0  0  0  0  0  0  0  0  0
   58.9190   34.3740   45.3240 C   0  0  0  0  0  0  0  0  0  0  0  0
   57.5880   33.8780   45.7130 N   0  0  0  0  0  0  0  0  0  0  0  0
   57.5560   32.4280   45.9720 C   0  0  0  0  0  0  0  0  0  0  0  0
   57.8510   31.6590   44.6730 C   0  0  0  0  0  0  0  0  0  0  0  0
   59.0390   30.8200   44.8150 N   0  0  0  0  0  0  0  0  0  0  0  0
   59.3350   30.1370   46.0460 C   0  0  0  0  0  0  0  0  0  0  0  0
   58.7970   28.8620   46.2950 C   0  0  0  0  0  0  0  0  0  0  0  0
   57.9170   28.2570   45.3730 C   0  0  0  0  0  0  0  0  0  0  0  0
   57.4240   26.9730   45.5930 C   0  0  0  0  0  0  0  0  0  0  0  0
   57.8000   26.2700   46.7310 C   0  0  0  0  0  0  0  0  0  0  0  0
   58.6500   26.8560   47.6680 C   0  0  0  0  0  0  0  0  0  0  0  0
   59.1350   28.1780   47.4940 C   0  0  0  0  0  0  0  0  0  0  0  0
   59.9230   28.7960   48.4460 N   0  0  0  0  0  0  0  0  0  0  0  0
   60.0370   28.2160   49.8040 C   0  0  0  0  0  0  0  0  0  0  0  0
   60.5740   29.9800   48.1450 C   0  0  0  0  0  0  0  0  0  0  0  0
   61.6050   30.4940   48.9730 C   0  0  0  0  0  0  0  0  0  0  0  0
   62.2160   31.7300   48.7000 C   0  0  0  0  0  0  0  0  0  0  0  0
   63.2370   32.2670   49.5050 O   0  0  0  0  0  0  0  0  0  0  0  0
   64.4740   32.8060   49.0540 C   0  0  0  0  0  0  0  0  0  0  0  0
   65.6930   32.3250   49.8790 C   0  0  0  0  0  0  0  0  0  0  0  0
   65.8860   32.9140   51.2530 N   0  0  0  0  0  0  0  0  0  0  0  0
   66.4580   31.8170   52.0860 C   0  0  0  0  0  0  0  0  0  0  0  0
   64.5740   33.3220   51.8670 C   0  0  0  0  0  0  0  0  0  0  0  0
   64.4400   34.8410   52.1070 C   0  0  0  0  0  0  0  0  0  0  0  0
   65.5540   35.4070   52.9270 N   0  0  0  0  0  0  0  0  0  0  0  0
   65.2930   35.1480   54.3670 C   0  0  0  0  0  0  0  0  0  0  0  0
   65.5660   36.8780   52.7270 C   0  0  0  0  0  0  0  0  0  0  0  0
   66.8920   34.8350   52.5500 C   0  0  0  0  0  0  0  0  0  0  0  0
   66.8650   34.0450   51.2250 C   0  0  0  0  0  0  0  0  0  0  0  0
   61.8030   32.4770   47.5940 C   0  0  0  0  0  0  0  0  0  0  0  0
   62.4020   33.7270   47.3750 O   0  0  0  0  0  0  0  0  0  0  0  0
   63.3380   34.0130   46.3410 C   0  0  0  0  0  0  0  0  0  0  0  0
   60.8250   31.9580   46.7340 C   0  0  0  0  0  0  0  0  0  0  0  0
   60.2360   30.7010   46.9730 C   0  0  0  0  0  0  0  0  0  0  0  0
   59.3866   33.5850   50.6939 H   0  0  0  0  0  0  0  0  0  0  0  0
   58.2339   33.3042   49.3451 H   0  0  0  0  0  0  0  0  0  0  0  0
   59.8329   32.4858   49.3451 H   0  0  0  0  0  0  0  0  0  0  0  0
   60.0822   35.4109   49.5585 H   0  0  0  0  0  0  0  0  0  0  0  0
   60.8341   34.2411   48.3826 H   0  0  0  0  0  0  0  0  0  0  0  0
   58.1940   34.4480   47.7030 H   0  0  0  0  0  0  0  0  0  0  0  0
   58.6470   36.0220   48.0420 H   0  0  0  0  0  0  0  0  0  0  0  0
   59.6895   36.2202   46.1400 H   0  0  0  0  0  0  0  0  0  0  0  0
   60.6464   34.7024   46.5379 H   0  0  0  0  0  0  0  0  0  0  0  0
   58.7998   35.0363   44.4539 H   0  0  0  0  0  0  0  0  0  0  0  0
   59.5348   33.4894   45.1042 H   0  0  0  0  0  0  0  0  0  0  0  0
   57.2280   34.4030   46.5430 H   0  0  0  0  0  0  0  0  0  0  0  0
   58.3156   32.1751   46.7264 H   0  0  0  0  0  0  0  0  0  0  0  0
   56.5585   32.1474   46.3411 H   0  0  0  0  0  0  0  0  0  0  0  0
   56.9883   31.0215   44.4294 H   0  0  0  0  0  0  0  0  0  0  0  0
   58.0329   32.3881   43.8697 H   0  0  0  0  0  0  0  0  0  0  0  0
   59.6220   30.6190   43.9700 H   0  0  0  0  0  0  0  0  0  0  0  0
   57.6163   28.8064   44.4687 H   0  0  0  0  0  0  0  0  0  0  0  0
   56.7370   26.5155   44.8658 H   0  0  0  0  0  0  0  0  0  0  0  0
   57.4260   25.2483   46.8931 H   0  0  0  0  0  0  0  0  0  0  0  0
   58.9499   26.2833   48.5580 H   0  0  0  0  0  0  0  0  0  0  0  0
   59.8818   29.0055   50.5541 H   0  0  0  0  0  0  0  0  0  0  0  0
   59.2756   27.4327   49.9332 H   0  0  0  0  0  0  0  0  0  0  0  0
   61.0382   27.7791   49.9332 H   0  0  0  0  0  0  0  0  0  0  0  0
   61.9332   29.9128   49.8473 H   0  0  0  0  0  0  0  0  0  0  0  0
   64.6228   32.5072   48.0059 H   0  0  0  0  0  0  0  0  0  0  0  0
   64.4138   33.8981   49.1711 H   0  0  0  0  0  0  0  0  0  0  0  0
   65.5993   31.2356   49.9989 H   0  0  0  0  0  0  0  0  0  0  0  0
   66.5681   32.6648   49.3056 H   0  0  0  0  0  0  0  0  0  0  0  0
   66.3308   32.0609   53.1510 H   0  0  0  0  0  0  0  0  0  0  0  0
   65.9361   30.8753   51.8607 H   0  0  0  0  0  0  0  0  0  0  0  0
   67.5289   31.7058   51.8607 H   0  0  0  0  0  0  0  0  0  0  0  0
   63.7635   33.0050   51.1942 H   0  0  0  0  0  0  0  0  0  0  0  0
   64.5190   32.8374   52.8530 H   0  0  0  0  0  0  0  0  0  0  0  0
   64.4301   35.3497   51.1317 H   0  0  0  0  0  0  0  0  0  0  0  0
   63.5068   35.0030   52.6664 H   0  0  0  0  0  0  0  0  0  0  0  0
   65.9419   35.7919   54.9789 H   0  0  0  0  0  0  0  0  0  0  0  0
   64.2393   35.3677   54.5940 H   0  0  0  0  0  0  0  0  0  0  0  0
   65.5046   34.0927   54.5940 H   0  0  0  0  0  0  0  0  0  0  0  0
   65.5701   37.3810   53.7052 H   0  0  0  0  0  0  0  0  0  0  0  0
   66.4665   37.1641   52.1638 H   0  0  0  0  0  0  0  0  0  0  0  0
   64.6703   37.1788   52.1638 H   0  0  0  0  0  0  0  0  0  0  0  0
   67.6098   35.6624   52.4489 H   0  0  0  0  0  0  0  0  0  0  0  0
   67.1814   34.1309   53.3440 H   0  0  0  0  0  0  0  0  0  0  0  0
   66.5886   34.7310   50.4107 H   0  0  0  0  0  0  0  0  0  0  0  0
   67.8664   33.6169   51.0703 H   0  0  0  0  0  0  0  0  0  0  0  0
   64.2994   34.3068   46.7876 H   0  0  0  0  0  0  0  0  0  0  0  0
   63.4814   33.1177   45.7182 H   0  0  0  0  0  0  0  0  0  0  0  0
   62.9564   34.8356   45.7182 H   0  0  0  0  0  0  0  0  0  0  0  0
   60.5119   32.5430   45.8567 H   0  0  0  0  0  0  0  0  0  0  0  0
  1  2  1  0
  2  3  1  0
  3  4  1  0
  4  5  1  0
  5  6  1  0
  6  7  1  0
  7  8  1  0
  8  9  1  0
  9 10  1  0
 10 11  2  0
 11 12  1  0
 12 13  2  0
 13 14  1  0
 14 15  2  0
 15 16  1  0
 16 17  2  0
 17 18  1  0
 17 19  1  0
 19 20  2  0
 20 21  1  0
 21 22  1  0
 22 23  1  0
 23 24  1  0
 24 25  1  0
 25 26  1  0
 25 27  1  0
 27 28  1  0
 28 29  1  0
 29 30  1  0
 29 31  1  0
 29 32  1  0
 32 33  1  0
 21 34  2  0
 34 35  1  0
 35 36  1  0
 34 37  1  0
 37 38  2  0
 38 10  1  0
 16 11  1  0
 38 19  1  0
 33 25  1  0
  1 39  1  0
  1 40  1  0
  1 41  1  0
  2 42  1  0
  2 43  1  0
  3 44  1  0
  3 45  1  0
  4 46  1  0
  4 47  1  0
  5 48  1  0
  5 49  1  0
  6 50  1  0
  7 51  1  0
  7 52  1  0
  8 53  1  0
  8 54  1  0
  9 55  1  0
 12 56  1  0
 13 57  1  0
 14 58  1  0
 15 59  1  0
 18 60  1  0
 18 61  1  0
 18 62  1  0
 20 63  1  0
 23 64  1  0
 23 65  1  0
 24 66  1  0
 24 67  1  0
 26 68  1  0
 26 69  1  0
 26 70  1  0
 27 71  1  0
 27 72  1  0
 28 73  1  0
 28 74  1  0
 30 75  1  0
 30 76  1  0
 30 77  1  0
 31 78  1  0
 31 79  1  0
 31 80  1  0
 32 81  1  0
 32 82  1  0
 33 83  1  0
 33 84  1  0
 36 85  1  0
 36 86  1  0
 36 87  1  0
 37 88  1  0
M  CHG  4   3   1  17   1  25   1  29   1
M  END
>  <UniqueID>  (17) 
17

>  <SMILES>  (17) 
CC[NH2+]CCNCCNc1c2ccccc2[n+](C)c2cc(OCC[N+]3(C)CC[N+](C)(C)CC3)c(OC)cc12

>  <Energy>  (17) 
148.53681681952048

>  <Genealogy>  (17) 
CC[NH2+]CCNCCNc1c2ccccc2[n+](C)c2cc(OCC[N+]3(C)CC[N+](C)(C)CC3)c(OC)cc12 (protonated)
CC[NH2+]CCNCCNc1c2ccccc2[n+](C)c2cc(OCC[N+]3(C)CC[N+](C)(C)CC3)c(OC)cc12 (3D coordinates assigned)
CC[NH2+]CCNCCNc1c2ccccc2[n+](C)c2cc(OCC[N+]3(C)CC[N+](C)(C)CC3)c(OC)cc12 (nonaromatic ring conformer: 148.53681681952048 kcal/mol)

>  <smiles>  (17) 
CCNCCNCCNc1c2ccccc2[n+](C)c2cc(OCC[N+]3(C)CC[N+](C)(C)CC3)c(OC)cc12

>  <score_type>  (17) 
oracle

>  <origin>  (17) 
adg

>  <m_score__min__energy>  (17) 
-2.5699999999999998

>  <m_primary>  (17) 
energy

$$$$
17:0
     RDKit          3D

 31 33  0  0  0  0  0  0  0  0999 V2000
   57.6670   28.4050   43.7550 C   0  0  0  0  0  0  0  0  0  0  0  0
   57.4050   29.8310   44.0990 C   0  0  0  0  0  0  0  0  0  0  0  0
   58.2190   30.8490   43.7600 N   0  0  0  0  0  0  0  0  0  0  0  0
   57.5450   31.9020   44.2690 C   0  0  0  0  0  0  0  0  0  0  0  0
   57.9920   33.3180   44.1190 C   0  0  0  0  0  0  0  0  0  0  0  0
   57.6600   34.0660   45.3410 N   0  0  0  0  0  0  0  0  0  0  0  0
   58.7810   34.2360   46.2880 C   0  0  1  0  0  0  0  0  0  0  0  0
   58.5800   33.4920   47.6340 C   0  0  0  0  0  0  0  0  0  0  0  0
   59.6890   33.8550   48.6370 C   0  0  0  0  0  0  0  0  0  0  0  0
   61.0300   33.8080   47.9720 C   0  0  0  0  0  0  0  0  0  0  0  0
   62.2100   33.7850   48.6190 N   0  0  0  0  0  0  0  0  0  0  0  0
   63.0930   33.8210   47.5910 C   0  0  0  0  0  0  0  0  0  0  0  0
   62.4880   33.8750   46.3840 N   0  0  0  0  0  0  0  0  0  0  0  0
   61.1950   33.8880   46.6430 N   0  0  0  0  0  0  0  0  0  0  0  0
   60.1310   33.8570   45.6410 C   0  0  0  0  0  0  0  0  0  0  0  0
   56.3860   31.5440   44.8560 N   0  0  0  0  0  0  0  0  0  0  0  0
   56.3380   30.2520   44.7330 O   0  0  0  0  0  0  0  0  0  0  0  0
   57.7747   27.8186   44.6794 H   0  0  0  0  0  0  0  0  0  0  0  0
   56.8265   28.0095   43.1658 H   0  0  0  0  0  0  0  0  0  0  0  0
   58.5932   28.3341   43.1658 H   0  0  0  0  0  0  0  0  0  0  0  0
   59.0796   33.3445   43.9564 H   0  0  0  0  0  0  0  0  0  0  0  0
   57.4827   33.7753   43.2579 H   0  0  0  0  0  0  0  0  0  0  0  0
   56.8930   33.5500   45.8330 H   0  0  0  0  0  0  0  0  0  0  0  0
   58.7991   35.3082   46.5333 H   0  0  0  0  0  0  0  0  0  0  0  0
   57.6051   33.7738   48.0584 H   0  0  0  0  0  0  0  0  0  0  0  0
   58.6201   32.4092   47.4447 H   0  0  0  0  0  0  0  0  0  0  0  0
   59.5110   34.8697   49.0226 H   0  0  0  0  0  0  0  0  0  0  0  0
   59.6747   33.1288   49.4631 H   0  0  0  0  0  0  0  0  0  0  0  0
   64.1847   33.8077   47.7251 H   0  0  0  0  0  0  0  0  0  0  0  0
   60.3646   34.5740   44.8401 H   0  0  0  0  0  0  0  0  0  0  0  0
   60.0581   32.8414   45.2248 H   0  0  0  0  0  0  0  0  0  0  0  0
  1  2  1  0
  2  3  2  0
  3  4  1  0
  4  5  1  0
  5  6  1  0
  6  7  1  0
  7  8  1  0
  8  9  1  0
  9 10  1  0
 10 11  2  0
 11 12  1  0
 12 13  2  0
 13 14  1  0
 14 15  1  0
  4 16  2  0
 16 17  1  0
 17  2  1  0
 15  7  1  0
 14 10  1  0
  1 18  1  0
  1 19  1  0
  1 20  1  0
  5 21  1  0
  5 22  1  0
  6 23  1  0
  7 24  1  1
  8 25  1  0
  8 26  1  0
  9 27  1  0
  9 28  1  0
 12 29  1  0
 15 30  1  0
 15 31  1  0
M  END
>  <UniqueID>  (18) 
18

>  <SMILES>  (18) 
Cc1nc(CN[C@H]2CCc3ncnn3C2)no1

>  <Energy>  (18) 
97.76862925913426

>  <Genealogy>  (18) 
Cc1nc(CN[C@H]2CCc3ncnn3C2)no1 (chirality)
Cc1nc(CN[C@H]2CCc3ncnn3C2)no1 (3D coordinates assigned)
Cc1nc(CN[C@H]2CCc3ncnn3C2)no1 (nonaromatic ring conformer: 97.76862925913426 kcal/mol)

>  <smiles>  (18) 
Cc1nc(CNC2CCc3ncnn3C2)no1

>  <score_type>  (18) 
oracle

>  <origin>  (18) 
adg

>  <m_score__min__energy>  (18) 
-6.7999999999999998

>  <m_primary>  (18) 
energy

$$$$
18:0
     RDKit          3D

 57 59  0  0  0  0  0  0  0  0999 V2000
   59.0000   30.2720   50.8980 C   0  0  0  0  0  0  0  0  0  0  0  0
   58.5290   31.5190   50.1570 C   0  0  0  0  0  0  0  0  0  0  0  0
   59.6290   32.3560   49.8620 O   0  0  0  0  0  0  0  0  0  0  0  0
   59.6530   33.4740   50.7290 C   0  0  0  0  0  0  0  0  0  0  0  0
   61.0950   33.7390   51.1660 C   0  0  0  0  0  0  0  0  0  0  0  0
   61.9860   33.5350   50.0850 O   0  0  0  0  0  0  0  0  0  0  0  0
   63.3300   33.6710   50.5000 C   0  0  0  0  0  0  0  0  0  0  0  0
   64.1120   32.4320   50.0490 C   0  0  0  0  0  0  0  0  0  0  0  0
   63.3990   31.6830   49.0810 O   0  0  0  0  0  0  0  0  0  0  0  0
   63.6900   32.1200   47.7630 C   0  0  0  0  0  0  0  0  0  0  0  0
   62.4130   32.6750   47.1210 C   0  0  0  0  0  0  0  0  0  0  0  0
   61.2060   32.3720   47.9180 N   0  0  0  0  0  0  0  0  0  0  0  0
   60.1910   31.6900   47.1160 C   0  0  0  0  0  0  0  0  0  0  0  0
   59.3570   32.4400   46.2370 C   0  0  0  0  0  0  0  0  0  0  0  0
   59.4250   33.8550   46.1710 C   0  0  0  0  0  0  0  0  0  0  0  0
   58.5800   34.5850   45.3390 C   0  0  0  0  0  0  0  0  0  0  0  0
   57.6360   33.9300   44.5640 C   0  0  0  0  0  0  0  0  0  0  0  0
   57.5530   32.5410   44.5920 C   0  0  0  0  0  0  0  0  0  0  0  0
   58.4330   31.7640   45.3910 C   0  0  0  0  0  0  0  0  0  0  0  0
   58.3970   30.3870   45.3590 N   0  0  0  0  0  0  0  0  0  0  0  0
   57.6870   29.6970   44.2560 C   0  0  0  0  0  0  0  0  0  0  0  0
   59.0510   29.6540   46.3260 C   0  0  0  0  0  0  0  0  0  0  0  0
   58.7890   28.2680   46.4890 C   0  0  0  0  0  0  0  0  0  0  0  0
   59.5030   27.5010   47.4020 C   0  0  0  0  0  0  0  0  0  0  0  0
   60.4900   28.0870   48.1800 C   0  0  0  0  0  0  0  0  0  0  0  0
   60.7350   29.4530   48.0870 C   0  0  0  0  0  0  0  0  0  0  0  0
   60.0030   30.2770   47.1880 C   0  0  0  0  0  0  0  0  0  0  0  0
   58.9352   30.4436   51.9826 H   0  0  0  0  0  0  0  0  0  0  0  0
   58.3621   29.4191   50.6229 H   0  0  0  0  0  0  0  0  0  0  0  0
   60.0425   30.0539   50.6229 H   0  0  0  0  0  0  0  0  0  0  0  0
   58.0377   31.2205   49.2192 H   0  0  0  0  0  0  0  0  0  0  0  0
   57.8203   32.0687   50.7938 H   0  0  0  0  0  0  0  0  0  0  0  0
   59.2597   34.3564   50.2030 H   0  0  0  0  0  0  0  0  0  0  0  0
   59.0299   33.2708   51.6124 H   0  0  0  0  0  0  0  0  0  0  0  0
   61.1821   34.7783   51.5157 H   0  0  0  0  0  0  0  0  0  0  0  0
   61.3546   33.0429   51.9772 H   0  0  0  0  0  0  0  0  0  0  0  0
   63.7685   34.5713   50.0449 H   0  0  0  0  0  0  0  0  0  0  0  0
   63.3762   33.7650   51.5950 H   0  0  0  0  0  0  0  0  0  0  0  0
   65.0700   32.7542   49.6149 H   0  0  0  0  0  0  0  0  0  0  0  0
   64.2719   31.7902   50.9279 H   0  0  0  0  0  0  0  0  0  0  0  0
   64.4565   32.9082   47.7978 H   0  0  0  0  0  0  0  0  0  0  0  0
   64.0646   31.2740   47.1680 H   0  0  0  0  0  0  0  0  0  0  0  0
   62.5100   33.7667   47.0274 H   0  0  0  0  0  0  0  0  0  0  0  0
   62.2955   32.1958   46.1378 H   0  0  0  0  0  0  0  0  0  0  0  0
   60.8120   33.2570   48.3060 H   0  0  0  0  0  0  0  0  0  0  0  0
   61.4720   31.8680   48.7860 H   0  0  0  0  0  0  0  0  0  0  0  0
   60.1614   34.3876   46.7907 H   0  0  0  0  0  0  0  0  0  0  0  0
   58.6617   35.6812   45.2969 H   0  0  0  0  0  0  0  0  0  0  0  0
   56.9516   34.5086   43.9261 H   0  0  0  0  0  0  0  0  0  0  0  0
   56.7900   32.0346   43.9826 H   0  0  0  0  0  0  0  0  0  0  0  0
   56.9579   28.9884   44.6759 H   0  0  0  0  0  0  0  0  0  0  0  0
   57.1621   30.4393   43.6368 H   0  0  0  0  0  0  0  0  0  0  0  0
   58.4140   29.1512   43.6368 H   0  0  0  0  0  0  0  0  0  0  0  0
   58.0057   27.7921   45.8808 H   0  0  0  0  0  0  0  0  0  0  0  0
   59.2849   26.4280   47.5075 H   0  0  0  0  0  0  0  0  0  0  0  0
   61.0809   27.4698   48.8727 H   0  0  0  0  0  0  0  0  0  0  0  0
   61.5110   29.9054   48.7219 H   0  0  0  0  0  0  0  0  0  0  0  0
  1  2  1  0
  2  3  1  0
  3  4  1  0
  4  5  1  0
  5  6  1  0
  6  7  1  0
  7  8  1  0
  8  9  1  0
  9 10  1  0
 10 11  1  0
 11 12  1  0
 12 13  1  0
 13 14  2  0
 14 15  1  0
 15 16  2  0
 16 17  1  0
 17 18  2  0
 18 19  1  0
 19 20  2  0
 20 21  1  0
 20 22  1  0
 22 23  2  0
 23 24  1  0
 24 25  2  0
 25 26  1  0
 26 27  2  0
 27 13  1  0
 19 14  1  0
 27 22  1  0
  1 28  1  0
  1 29  1  0
  1 30  1  0
  2 31  1  0
  2 32  1  0
  4 33  1  0
  4 34  1  0
  5 35  1  0
  5 36  1  0
  7 37  1  0
  7 38  1  0
  8 39  1  0
  8 40  1  0
 10 41  1  0
 10 42  1  0
 11 43  1  0
 11 44  1  0
 12 45  1  0
 12 46  1  0
 15 47  1  0
 16 48  1  0
 17 49  1  0
 18 50  1  0
 21 51  1  0
 21 52  1  0
 21 53  1  0
 23 54  1  0
 24 55  1  0
 25 56  1  0
 26 57  1  0
M  CHG  2  12   1  20   1
M  END
>  <UniqueID>  (19) 
19

>  <SMILES>  (19) 
CCOCCOCCOCC[NH2+]c1c2ccccc2[n+](C)c2ccccc12

>  <Energy>  (19) 
82.81623539170886

>  <Genealogy>  (19) 
CCOCCOCCOCC[NH2+]c1c2ccccc2[n+](C)c2ccccc12 (protonated)
CCOCCOCCOCC[NH2+]c1c2ccccc2[n+](C)c2ccccc12 (3D coordinates assigned)
CCOCCOCCOCC[NH2+]c1c2ccccc2[n+](C)c2ccccc12 (optimized conformer: 82.81623539170886 kcal/mol)

>  <smiles>  (19) 
CCOCCOCCOCCNc1c2ccccc2[n+](C)c2ccccc12

>  <score_type>  (19) 
oracle

>  <origin>  (19) 
adg

>  <m_score__min__energy>  (19) 
-2.73

>  <m_primary>  (19) 
energy

$$$$
19:0
     RDKit          3D

 91 94  0  0  0  0  0  0  0  0999 V2000
   57.7850   33.0510   47.3830 C   0  0  0  0  0  0  0  0  0  0  0  0
   58.9290   33.5570   48.2670 C   0  0  0  0  0  0  0  0  0  0  0  0
   59.0390   32.8110   49.5220 N   0  0  0  0  0  0  0  0  0  0  0  0
   59.7650   33.5770   50.5640 C   0  0  0  0  0  0  0  0  0  0  0  0
   59.0500   33.4540   51.9140 C   0  0  0  0  0  0  0  0  0  0  0  0
   57.6820   33.1150   51.7460 O   0  0  0  0  0  0  0  0  0  0  0  0
   57.3010   32.1610   52.7180 C   0  0  0  0  0  0  0  0  0  0  0  0
   56.7670   30.9350   52.0380 C   0  0  0  0  0  0  0  0  0  0  0  0
   57.6600   30.6010   50.9130 N   0  0  0  0  0  0  0  0  0  0  0  0
   58.6790   29.6130   51.2850 C   0  0  0  0  0  0  0  0  0  0  0  0
   60.0560   30.2620   51.5410 C   0  0  0  0  0  0  0  0  0  0  0  0
   61.1490   29.5030   50.8680 N   0  0  0  0  0  0  0  0  0  0  0  0
   61.5550   30.2210   49.6750 C   0  0  0  0  0  0  0  0  0  0  0  0
   60.7640   30.1400   48.4880 C   0  0  0  0  0  0  0  0  0  0  0  0
   59.7270   29.1460   48.3490 C   0  0  0  0  0  0  0  0  0  0  0  0
   58.9910   29.0490   47.1760 C   0  0  0  0  0  0  0  0  0  0  0  0
   59.2290   29.9030   46.1300 C   0  0  0  0  0  0  0  0  0  0  0  0
   60.1980   30.8780   46.2450 C   0  0  0  0  0  0  0  0  0  0  0  0
   60.9230   31.0790   47.4590 C   0  0  0  0  0  0  0  0  0  0  0  0
   61.7940   32.1610   47.5950 N   0  0  0  0  0  0  0  0  0  0  0  0
   61.7090   33.3390   46.7070 C   0  0  0  0  0  0  0  0  0  0  0  0
   62.6980   32.1720   48.6580 C   0  0  0  0  0  0  0  0  0  0  0  0
   63.7900   33.1120   48.6190 C   0  0  0  0  0  0  0  0  0  0  0  0
   64.8620   32.9500   49.4520 C   0  0  0  0  0  0  0  0  0  0  0  0
   64.8500   31.9790   50.4380 C   0  0  0  0  0  0  0  0  0  0  0  0
   63.7500   31.1200   50.6230 C   0  0  0  0  0  0  0  0  0  0  0  0
   63.9310   30.1600   51.5900 O   0  0  0  0  0  0  0  0  0  0  0  0
   65.1860   30.0150   52.2520 C   0  0  0  0  0  0  0  0  0  0  0  0
   66.0080   28.9040   51.6310 C   0  0  0  0  0  0  0  0  0  0  0  0
   66.2740   27.6550   52.4740 N   0  0  0  0  0  0  0  0  0  0  0  0
   65.2500   27.5160   53.5380 C   0  0  0  0  0  0  0  0  0  0  0  0
   67.6230   27.6590   53.1340 C   0  0  0  0  0  0  0  0  0  0  0  0
   68.7820   27.7240   52.1240 C   0  0  0  0  0  0  0  0  0  0  0  0
   68.6440   26.8070   50.9030 N   0  0  0  0  0  0  0  0  0  0  0  0
   69.3330   27.4510   49.7480 C   0  0  0  0  0  0  0  0  0  0  0  0
   69.2960   25.4960   51.1740 C   0  0  0  0  0  0  0  0  0  0  0  0
   67.2270   26.5440   50.4660 C   0  0  0  0  0  0  0  0  0  0  0  0
   66.2020   26.4700   51.5990 C   0  0  0  0  0  0  0  0  0  0  0  0
   62.6800   31.1420   49.6420 C   0  0  0  0  0  0  0  0  0  0  0  0
   56.9638   32.6878   48.0183 H   0  0  0  0  0  0  0  0  0  0  0  0
   57.4215   33.8723   46.7479 H   0  0  0  0  0  0  0  0  0  0  0  0
   58.1481   32.2295   46.7479 H   0  0  0  0  0  0  0  0  0  0  0  0
   59.8740   33.4568   47.7129 H   0  0  0  0  0  0  0  0  0  0  0  0
   58.7178   34.6067   48.5192 H   0  0  0  0  0  0  0  0  0  0  0  0
   58.0850   32.5460   49.8520 H   0  0  0  0  0  0  0  0  0  0  0  0
   60.7872   33.1817   50.6581 H   0  0  0  0  0  0  0  0  0  0  0  0
   59.7947   34.6370   50.2715 H   0  0  0  0  0  0  0  0  0  0  0  0
   59.5422   32.6712   52.5098 H   0  0  0  0  0  0  0  0  0  0  0  0
   59.1057   34.4263   52.4253 H   0  0  0  0  0  0  0  0  0  0  0  0
   58.1757   31.8899   53.3274 H   0  0  0  0  0  0  0  0  0  0  0  0
   56.5206   32.5895   53.3640 H   0  0  0  0  0  0  0  0  0  0  0  0
   56.7380   30.0976   52.7507 H   0  0  0  0  0  0  0  0  0  0  0  0
   55.7475   31.1209   51.6692 H   0  0  0  0  0  0  0  0  0  0  0  0
   58.1430   31.4820   50.5850 H   0  0  0  0  0  0  0  0  0  0  0  0
   58.3547   29.0977   52.2011 H   0  0  0  0  0  0  0  0  0  0  0  0
   58.7885   28.9094   50.4466 H   0  0  0  0  0  0  0  0  0  0  0  0
   60.0440   31.2914   51.1535 H   0  0  0  0  0  0  0  0  0  0  0  0
   60.2459   30.2548   52.6245 H   0  0  0  0  0  0  0  0  0  0  0  0
   61.9240   29.2690   51.5030 H   0  0  0  0  0  0  0  0  0  0  0  0
   60.8370   28.5310   50.6790 H   0  0  0  0  0  0  0  0  0  0  0  0
   59.5176   28.4580   49.1813 H   0  0  0  0  0  0  0  0  0  0  0  0
   58.2097   28.2800   47.0848 H   0  0  0  0  0  0  0  0  0  0  0  0
   58.6481   29.8107   45.2005 H   0  0  0  0  0  0  0  0  0  0  0  0
   60.4183   31.5182   45.3780 H   0  0  0  0  0  0  0  0  0  0  0  0
   61.6431   34.2529   47.3156 H   0  0  0  0  0  0  0  0  0  0  0  0
   62.6062   33.3851   46.0722 H   0  0  0  0  0  0  0  0  0  0  0  0
   60.8145   33.2559   46.0722 H   0  0  0  0  0  0  0  0  0  0  0  0
   63.7609   33.9599   47.9189 H   0  0  0  0  0  0  0  0  0  0  0  0
   65.7432   33.5983   49.3373 H   0  0  0  0  0  0  0  0  0  0  0  0
   65.7252   31.8754   51.0962 H   0  0  0  0  0  0  0  0  0  0  0  0
   65.7436   30.9600   52.1748 H   0  0  0  0  0  0  0  0  0  0  0  0
   64.9968   29.7612   53.3055 H   0  0  0  0  0  0  0  0  0  0  0  0
   65.4847   28.5791   50.7197 H   0  0  0  0  0  0  0  0  0  0  0  0
   67.0017   29.3492   51.4753 H   0  0  0  0  0  0  0  0  0  0  0  0
   65.7341   27.5817   54.5236 H   0  0  0  0  0  0  0  0  0  0  0  0
   64.5075   28.3216   53.4397 H   0  0  0  0  0  0  0  0  0  0  0  0
   64.7491   26.5416   53.4397 H   0  0  0  0  0  0  0  0  0  0  0  0
   67.6865   28.5335   53.7982 H   0  0  0  0  0  0  0  0  0  0  0  0
   67.7217   26.7152   53.6904 H   0  0  0  0  0  0  0  0  0  0  0  0
   68.8595   28.7602   51.7629 H   0  0  0  0  0  0  0  0  0  0  0  0
   69.6744   27.3757   52.6647 H   0  0  0  0  0  0  0  0  0  0  0  0
   70.0893   28.1579   50.1199 H   0  0  0  0  0  0  0  0  0  0  0  0
   69.8223   26.6789   49.1360 H   0  0  0  0  0  0  0  0  0  0  0  0
   68.5957   27.9912   49.1360 H   0  0  0  0  0  0  0  0  0  0  0  0
   69.3725   25.3422   52.2605 H   0  0  0  0  0  0  0  0  0  0  0  0
   68.6944   24.6887   50.7308 H   0  0  0  0  0  0  0  0  0  0  0  0
   70.3028   25.4886   50.7308 H   0  0  0  0  0  0  0  0  0  0  0  0
   66.9246   27.3533   49.7851 H   0  0  0  0  0  0  0  0  0  0  0  0
   67.2318   25.5515   49.9917 H   0  0  0  0  0  0  0  0  0  0  0  0
   65.1934   26.4078   51.1645 H   0  0  0  0  0  0  0  0  0  0  0  0
   66.4236   25.5799   52.2061 H   0  0  0  0  0  0  0  0  0  0  0  0
  1  2  1  0
  2  3  1  0
  3  4  1  0
  4  5  1  0
  5  6  1  0
  6  7  1  0
  7  8  1  0
  8  9  1  0
  9 10  1  0
 10 11  1  0
 11 12  1  0
 12 13  1  0
 13 14  2  0
 14 15  1  0
 15 16  2  0
 16 17  1  0
 17 18  2  0
 18 19  1  0
 19 20  2  0
 20 21  1  0
 20 22  1  0
 22 23  2  0
 23 24  1  0
 24 25  2  0
 25 26  1  0
 26 27  1  0
 27 28  1  0
 28 29  1  0
 29 30  1  0
 30 31  1  0
 30 32  1  0
 32 33  1  0
 33 34  1  0
 34 35  1  0
 34 36  1  0
 34 37  1  0
 37 38  1  0
 26 39  2  0
 39 13  1  0
 19 14  1  0
 39 22  1  0
 38 30  1  0
  1 40  1  0
  1 41  1  0
  1 42  1  0
  2 43  1  0
  2 44  1  0
  3 45  1  0
  4 46  1  0
  4 47  1  0
  5 48  1  0
  5 49  1  0
  7 50  1  0
  7 51  1  0
  8 52  1  0
  8 53  1  0
  9 54  1  0
 10 55  1  0
 10 56  1  0
 11 57  1  0
 11 58  1  0
 12 59  1  0
 12 60  1  0
 15 61  1  0
 16 62  1  0
 17 63  1  0
 18 64  1  0
 21 65  1  0
 21 66  1  0
 21 67  1  0
 23 68  1  0
 24 69  1  0
 25 70  1  0
 28 71  1  0
 28 72  1  0
 29 73  1  0
 29 74  1  0
 31 75  1  0
 31 76  1  0
 31 77  1  0
 32 78  1  0
 32 79  1  0
 33 80  1  0
 33 81  1  0
 35 82  1  0
 35 83  1  0
 35 84  1  0
 36 85  1  0
 36 86  1  0
 36 87  1  0
 37 88  1  0
 37 89  1  0
 38 90  1  0
 38 91  1  0
M  CHG  4  12   1  20   1  30   1  34   1
M  END
>  <UniqueID>  (20) 
20

>  <SMILES>  (20) 
CCNCCOCCNCC[NH2+]c1c2ccccc2[n+](C)c2cccc(OCC[N+]3(C)CC[N+](C)(C)CC3)c12

>  <Energy>  (20) 
195.41410452678087

>  <Genealogy>  (20) 
CCNCCOCCNCC[NH2+]c1c2ccccc2[n+](C)c2cccc(OCC[N+]3(C)CC[N+](C)(C)CC3)c12 (protonated)
CCNCCOCCNCC[NH2+]c1c2ccccc2[n+](C)c2cccc(OCC[N+]3(C)CC[N+](C)(C)CC3)c12 (3D coordinates assigned)
CCNCCOCCNCC[NH2+]c1c2ccccc2[n+](C)c2cccc(OCC[N+]3(C)CC[N+](C)(C)CC3)c12 (nonaromatic ring conformer: 195.41410452678087 kcal/mol)

>  <smiles>  (20) 
CCNCCOCCNCCNc1c2ccccc2[n+](C)c2cccc(OCC[N+]3(C)CC[N+](C)(C)CC3)c12

>  <score_type>  (20) 
oracle

>  <origin>  (20) 
adg

>  <m_score__min__energy>  (20) 
-1.26

>  <m_primary>  (20) 
energy

$$$$
