0:0
     RDKit          3D

 45 47  0  0  0  0  0  0  0  0999 V2000
   57.8420   28.4690   44.0070 C   0  0  0  0  0  0  0  0  0  0  0  0
   57.4830   29.8650   44.3890 C   0  0  0  0  0  0  0  0  0  0  0  0
   58.3740   30.8440   44.6220 N   0  0  0  0  0  0  0  0  0  0  0  0
   57.5840   31.9000   44.8890 C   0  0  0  0  0  0  0  0  0  0  0  0
   58.0900   33.2890   45.1320 C   0  0  0  0  0  0  0  0  0  0  0  0
   59.1320   33.2810   46.1790 N   0  0  0  0  0  0  0  0  0  0  0  0
   58.6080   33.7970   47.4660 C   0  0  0  0  0  0  0  0  0  0  0  0
   59.7400   34.1860   48.4400 C   0  0  0  0  0  0  0  0  0  0  0  0
   61.0140   33.5080   48.1210 N   0  0  0  0  0  0  0  0  0  0  0  0
   60.9890   32.0370   48.3200 C   0  0  0  0  0  0  0  0  0  0  0  0
   61.6380   31.2710   47.1610 C   0  0  0  0  0  0  0  0  0  0  0  0
   60.6270   30.6610   46.3600 O   0  0  0  0  0  0  0  0  0  0  0  0
   60.1350   29.3630   46.5510 C   0  0  0  0  0  0  0  0  0  0  0  0
   60.6230   28.2550   45.8320 C   0  0  0  0  0  0  0  0  0  0  0  0
   60.0960   26.9800   46.0620 C   0  0  0  0  0  0  0  0  0  0  0  0
   59.0820   26.8010   47.0080 C   0  0  0  0  0  0  0  0  0  0  0  0
   58.5940   27.8960   47.7230 C   0  0  0  0  0  0  0  0  0  0  0  0
   59.1180   29.1730   47.4960 C   0  0  0  0  0  0  0  0  0  0  0  0
   61.4690   33.8700   46.7550 C   0  0  0  0  0  0  0  0  0  0  0  0
   60.3090   34.0550   45.7510 C   0  0  0  0  0  0  0  0  0  0  0  0
   56.2760   31.5810   44.8060 N   0  0  0  0  0  0  0  0  0  0  0  0
   56.2560   30.3150   44.4990 O   0  0  0  0  0  0  0  0  0  0  0  0
   57.9964   27.8684   44.9156 H   0  0  0  0  0  0  0  0  0  0  0  0
   57.0273   28.0307   43.4118 H   0  0  0  0  0  0  0  0  0  0  0  0
   58.7670   28.4781   43.4118 H   0  0  0  0  0  0  0  0  0  0  0  0
   59.4160   30.8010   44.5780 H   0  0  0  0  0  0  0  0  0  0  0  0
   58.5160   33.6880   44.1996 H   0  0  0  0  0  0  0  0  0  0  0  0
   57.2534   33.9205   45.4656 H   0  0  0  0  0  0  0  0  0  0  0  0
   57.9906   34.6854   47.2669 H   0  0  0  0  0  0  0  0  0  0  0  0
   58.0170   32.9971   47.9360 H   0  0  0  0  0  0  0  0  0  0  0  0
   59.8951   35.2736   48.3854 H   0  0  0  0  0  0  0  0  0  0  0  0
   59.4366   33.8729   49.4499 H   0  0  0  0  0  0  0  0  0  0  0  0
   61.5312   31.7982   49.2468 H   0  0  0  0  0  0  0  0  0  0  0  0
   59.9349   31.7272   48.3735 H   0  0  0  0  0  0  0  0  0  0  0  0
   62.2219   31.9691   46.5432 H   0  0  0  0  0  0  0  0  0  0  0  0
   62.3006   30.4919   47.5658 H   0  0  0  0  0  0  0  0  0  0  0  0
   61.4209   28.3926   45.0874 H   0  0  0  0  0  0  0  0  0  0  0  0
   60.4797   26.1170   45.4980 H   0  0  0  0  0  0  0  0  0  0  0  0
   58.6690   25.7976   47.1887 H   0  0  0  0  0  0  0  0  0  0  0  0
   57.7958   27.7545   48.4665 H   0  0  0  0  0  0  0  0  0  0  0  0
   58.7297   30.0324   48.0622 H   0  0  0  0  0  0  0  0  0  0  0  0
   62.0331   34.8125   46.8137 H   0  0  0  0  0  0  0  0  0  0  0  0
   62.0873   33.0378   46.3873 H   0  0  0  0  0  0  0  0  0  0  0  0
   60.0422   35.1208   45.6977 H   0  0  0  0  0  0  0  0  0  0  0  0
   60.6319   33.6965   44.7624 H   0  0  0  0  0  0  0  0  0  0  0  0
  1  2  1  0
  2  3  2  0
  3  4  1  0
  4  5  1  0
  5  6  1  0
  6  7  1  0
  7  8  1  0
  8  9  1  0
  9 10  1  0
 10 11  1  0
 11 12  1  0
 12 13  1  0
 13 14  2  0
 14 15  1  0
 15 16  2  0
 16 17  1  0
 17 18  2  0
  9 19  1  0
 19 20  1  0
  4 21  2  0
 21 22  1  0
 22  2  1  0
 20  6  1  0
 18 13  1  0
  1 23  1  0
  1 24  1  0
  1 25  1  0
  3 26  1  0
  5 27  1  0
  5 28  1  0
  7 29  1  0
  7 30  1  0
  8 31  1  0
  8 32  1  0
 10 33  1  0
 10 34  1  0
 11 35  1  0
 11 36  1  0
 14 37  1  0
 15 38  1  0
 16 39  1  0
 17 40  1  0
 18 41  1  0
 19 42  1  0
 19 43  1  0
 20 44  1  0
 20 45  1  0
M  CHG  1   3   1
M  END
>  <UniqueID>  (1) 
1

>  <SMILES>  (1) 
Cc1[nH+]c(CN2CCN(CCOc3ccccc3)CC2)no1

>  <Energy>  (1) 
89.17152385604174

>  <Genealogy>  (1) 
Cc1[nH+]c(CN2CCN(CCOc3ccccc3)CC2)no1 (protonated)
Cc1[nH+]c(CN2CCN(CCOc3ccccc3)CC2)no1 (3D coordinates assigned)
Cc1[nH+]c(CN2CCN(CCOc3ccccc3)CC2)no1 (nonaromatic ring conformer: 89.17152385604174 kcal/mol)

>  <smiles>  (1) 
Cc1nc(CN2CCN(CCOc3ccccc3)CC2)no1

>  <score_type>  (1) 
oracle

>  <origin>  (1) 
adg

>  <m_score__min__energy>  (1) 
-5.7699999999999996

>  <m_primary>  (1) 
energy

$$$$
1:0
     RDKit          3D

 51 53  0  0  0  0  0  0  0  0999 V2000
   58.8250   27.6110   44.2030 C   0  0  0  0  0  0  0  0  0  0  0  0
   60.1650   28.2170   44.6080 C   0  0  0  0  0  0  0  0  0  0  0  0
   60.6050   27.6690   45.8360 O   0  0  0  0  0  0  0  0  0  0  0  0
   59.7680   26.6050   46.2640 C   0  0  0  0  0  0  0  0  0  0  0  0
   59.5890   26.6650   47.7810 C   0  0  0  0  0  0  0  0  0  0  0  0
   60.7520   27.3110   48.4050 N   0  0  0  0  0  0  0  0  0  0  0  0
   60.3440   28.2700   49.4410 C   0  0  0  0  0  0  0  0  0  0  0  0
   59.8870   29.5730   48.7770 C   0  0  0  0  0  0  0  0  0  0  0  0
   60.3230   29.6250   47.3680 N   0  0  0  0  0  0  0  0  0  0  0  0
   60.3590   30.9960   46.8820 C   0  0  0  0  0  0  0  0  0  0  0  0
   61.4550   31.8430   47.1920 C   0  0  0  0  0  0  0  0  0  0  0  0
   62.6300   31.3450   47.8110 C   0  0  0  0  0  0  0  0  0  0  0  0
   63.7100   32.1830   48.0780 C   0  0  0  0  0  0  0  0  0  0  0  0
   63.6560   33.5240   47.7250 C   0  0  0  0  0  0  0  0  0  0  0  0
   62.5140   34.0450   47.1210 C   0  0  0  0  0  0  0  0  0  0  0  0
   61.3820   33.2270   46.8670 C   0  0  0  0  0  0  0  0  0  0  0  0
   60.2330   33.7500   46.3090 N   0  0  0  0  0  0  0  0  0  0  0  0
   60.0190   35.2150   46.2950 C   0  0  0  0  0  0  0  0  0  0  0  0
   59.2780   32.9050   45.7820 C   0  0  0  0  0  0  0  0  0  0  0  0
   58.2540   33.3940   44.9320 C   0  0  0  0  0  0  0  0  0  0  0  0
   57.2690   32.5490   44.4300 C   0  0  0  0  0  0  0  0  0  0  0  0
   57.2870   31.1940   44.7390 C   0  0  0  0  0  0  0  0  0  0  0  0
   56.0490   30.1340   44.0890 Cl  0  0  0  0  0  0  0  0  0  0  0  0
   58.3000   30.6750   45.5430 C   0  0  0  0  0  0  0  0  0  0  0  0
   59.3130   31.5120   46.0740 C   0  0  0  0  0  0  0  0  0  0  0  0
   58.2520   27.3519   45.1055 H   0  0  0  0  0  0  0  0  0  0  0  0
   58.2583   28.3404   43.6057 H   0  0  0  0  0  0  0  0  0  0  0  0
   58.9984   26.7037   43.6057 H   0  0  0  0  0  0  0  0  0  0  0  0
   60.9102   28.0022   43.8279 H   0  0  0  0  0  0  0  0  0  0  0  0
   60.0431   29.3038   44.7264 H   0  0  0  0  0  0  0  0  0  0  0  0
   58.7859   26.6942   45.7766 H   0  0  0  0  0  0  0  0  0  0  0  0
   60.2317   25.6457   45.9907 H   0  0  0  0  0  0  0  0  0  0  0  0
   58.6828   27.2421   48.0172 H   0  0  0  0  0  0  0  0  0  0  0  0
   59.4952   25.6410   48.1717 H   0  0  0  0  0  0  0  0  0  0  0  0
   61.2780   27.8350   47.6620 H   0  0  0  0  0  0  0  0  0  0  0  0
   59.5151   27.8465   50.0271 H   0  0  0  0  0  0  0  0  0  0  0  0
   61.1951   28.4758   50.1067 H   0  0  0  0  0  0  0  0  0  0  0  0
   58.7893   29.6324   48.8171 H   0  0  0  0  0  0  0  0  0  0  0  0
   60.3366   30.4197   49.3163 H   0  0  0  0  0  0  0  0  0  0  0  0
   61.2550   29.1660   47.2610 H   0  0  0  0  0  0  0  0  0  0  0  0
   59.6990   29.0460   46.7610 H   0  0  0  0  0  0  0  0  0  0  0  0
   62.6892   30.2811   48.0843 H   0  0  0  0  0  0  0  0  0  0  0  0
   64.6080   31.7809   48.5699 H   0  0  0  0  0  0  0  0  0  0  0  0
   64.5181   34.1779   47.9229 H   0  0  0  0  0  0  0  0  0  0  0  0
   62.4890   35.1072   46.8363 H   0  0  0  0  0  0  0  0  0  0  0  0
   59.9646   35.5875   47.3286 H   0  0  0  0  0  0  0  0  0  0  0  0
   60.8554   35.7028   45.7730 H   0  0  0  0  0  0  0  0  0  0  0  0
   59.0780   35.4431   45.7730 H   0  0  0  0  0  0  0  0  0  0  0  0
   58.2379   34.4609   44.6645 H   0  0  0  0  0  0  0  0  0  0  0  0
   56.4740   32.9545   43.7869 H   0  0  0  0  0  0  0  0  0  0  0  0
   58.3136   29.5986   45.7691 H   0  0  0  0  0  0  0  0  0  0  0  0
  1  2  1  0
  2  3  1  0
  3  4  1  0
  4  5  1  0
  5  6  1  0
  6  7  1  0
  7  8  1  0
  8  9  1  0
  9 10  1  0
 10 11  2  0
 11 12  1  0
 12 13  2  0
 13 14  1  0
 14 15  2  0
 15 16  1  0
 16 17  2  0
 17 18  1  0
 17 19  1  0
 19 20  2  0
 20 21  1  0
 21 22  2  0
 22 23  1  0
 22 24  1  0
 24 25  2  0
 25 10  1  0
 16 11  1  0
 25 19  1  0
  1 26  1  0
  1 27  1  0
  1 28  1  0
  2 29  1  0
  2 30  1  0
  4 31  1  0
  4 32  1  0
  5 33  1  0
  5 34  1  0
  6 35  1  0
  7 36  1  0
  7 37  1  0
  8 38  1  0
  8 39  1  0
  9 40  1  0
  9 41  1  0
 12 42  1  0
 13 43  1  0
 14 44  1  0
 15 45  1  0
 18 46  1  0
 18 47  1  0
 18 48  1  0
 20 49  1  0
 21 50  1  0
 24 51  1  0
M  CHG  2   9   1  17   1
M  END
>  <UniqueID>  (2) 
2

>  <SMILES>  (2) 
CCOCCNCC[NH2+]c1c2ccccc2[n+](C)c2ccc(Cl)cc12

>  <Energy>  (2) 
75.17169601529052

>  <Genealogy>  (2) 
CCOCCNCC[NH2+]c1c2ccccc2[n+](C)c2ccc(Cl)cc12 (protonated)
CCOCCNCC[NH2+]c1c2ccccc2[n+](C)c2ccc(Cl)cc12 (3D coordinates assigned)
CCOCCNCC[NH2+]c1c2ccccc2[n+](C)c2ccc(Cl)cc12 (optimized conformer: 75.17169601529052 kcal/mol)

>  <smiles>  (2) 
CCOCCNCCNc1c2ccccc2[n+](C)c2ccc(Cl)cc12

>  <score_type>  (2) 
oracle

>  <origin>  (2) 
adg

>  <m_score__min__energy>  (2) 
-3.4300000000000002

>  <m_primary>  (2) 
energy

$$$$
2:0
     RDKit          3D

 35 37  0  0  0  0  0  0  0  0999 V2000
   59.1190   29.7100   48.0070 C   0  0  0  0  0  0  0  0  0  0  0  0
   58.6850   29.0930   46.6830 C   0  0  0  0  0  0  0  0  0  0  0  0
   57.5260   29.7520   46.1730 O   0  0  0  0  0  0  0  0  0  0  0  0
   57.3460   30.2010   44.8530 C   0  0  0  0  0  0  0  0  0  0  0  0
   56.7990   29.3880   43.8950 N   0  0  0  0  0  0  0  0  0  0  0  0
   56.6290   29.8050   42.6130 C   0  0  0  0  0  0  0  0  0  0  0  0
   57.0160   31.0860   42.2330 C   0  0  0  0  0  0  0  0  0  0  0  0
   57.5770   31.9380   43.1800 C   0  0  0  0  0  0  0  0  0  0  0  0
   57.7510   31.5140   44.5070 C   0  0  0  0  0  0  0  0  0  0  0  0
   58.3420   32.4390   45.5120 C   0  0  0  0  0  0  0  0  0  0  0  0
   59.5420   32.2460   46.1030 N   0  0  0  0  0  0  0  0  0  0  0  0
   59.8670   33.2270   46.9920 C   0  0  0  0  0  0  0  0  0  0  0  0
   61.1520   33.1930   47.7390 C   0  0  0  0  0  0  0  0  0  0  0  0
   61.2810   33.7720   49.0170 C   0  0  0  0  0  0  0  0  0  0  0  0
   62.5020   33.7240   49.6990 C   0  0  0  0  0  0  0  0  0  0  0  0
   63.6070   33.0960   49.1200 C   0  0  0  0  0  0  0  0  0  0  0  0
   65.2710   33.0320   50.0550 Br  0  0  0  0  0  0  0  0  0  0  0  0
   63.4920   32.5130   47.8560 C   0  0  0  0  0  0  0  0  0  0  0  0
   62.2750   32.5590   47.1690 C   0  0  0  0  0  0  0  0  0  0  0  0
   58.9040   34.2310   47.1140 C   0  0  0  0  0  0  0  0  0  0  0  0
   57.6330   33.8560   46.0810 S   0  0  0  0  0  0  0  0  0  0  0  0
   58.7050   29.1214   48.8390 H   0  0  0  0  0  0  0  0  0  0  0  0
   60.2173   29.7103   48.0689 H   0  0  0  0  0  0  0  0  0  0  0  0
   58.7480   30.7437   48.0689 H   0  0  0  0  0  0  0  0  0  0  0  0
   59.5040   29.1885   45.9549 H   0  0  0  0  0  0  0  0  0  0  0  0
   58.4433   28.0330   46.8501 H   0  0  0  0  0  0  0  0  0  0  0  0
   56.5030   28.4150   44.1230 H   0  0  0  0  0  0  0  0  0  0  0  0
   56.1829   29.1259   41.8715 H   0  0  0  0  0  0  0  0  0  0  0  0
   56.8800   31.4223   41.1945 H   0  0  0  0  0  0  0  0  0  0  0  0
   57.8866   32.9518   42.8862 H   0  0  0  0  0  0  0  0  0  0  0  0
   60.4151   34.2657   49.4823 H   0  0  0  0  0  0  0  0  0  0  0  0
   62.5918   34.1826   50.6948 H   0  0  0  0  0  0  0  0  0  0  0  0
   64.3611   32.0164   47.3998 H   0  0  0  0  0  0  0  0  0  0  0  0
   62.1930   32.0962   46.1745 H   0  0  0  0  0  0  0  0  0  0  0  0
   58.9665   35.1116   47.7703 H   0  0  0  0  0  0  0  0  0  0  0  0
  1  2  1  0
  2  3  1  0
  3  4  1  0
  4  5  2  0
  5  6  1  0
  6  7  2  0
  7  8  1  0
  8  9  2  0
  9 10  1  0
 10 11  2  0
 11 12  1  0
 12 13  1  0
 13 14  2  0
 14 15  1  0
 15 16  2  0
 16 17  1  0
 16 18  1  0
 18 19  2  0
 12 20  2  0
 20 21  1  0
  9  4  1  0
 21 10  1  0
 19 13  1  0
  1 22  1  0
  1 23  1  0
  1 24  1  0
  2 25  1  0
  2 26  1  0
  5 27  1  0
  6 28  1  0
  7 29  1  0
  8 30  1  0
 14 31  1  0
 15 32  1  0
 18 33  1  0
 19 34  1  0
 20 35  1  0
M  CHG  1   5   1
M  END
>  <UniqueID>  (3) 
3

>  <SMILES>  (3) 
CCOc1[nH+]cccc1-c1nc(-c2ccc(Br)cc2)cs1

>  <Energy>  (3) 
69.01819314820077

>  <Genealogy>  (3) 
CCOc1[nH+]cccc1-c1nc(-c2ccc(Br)cc2)cs1 (protonated)
CCOc1[nH+]cccc1-c1nc(-c2ccc(Br)cc2)cs1 (3D coordinates assigned)
CCOc1[nH+]cccc1-c1nc(-c2ccc(Br)cc2)cs1 (optimized conformer: 69.01819314820077 kcal/mol)

>  <smiles>  (3) 
CCOc1ncccc1-c1nc(-c2ccc(Br)cc2)cs1

>  <score_type>  (3) 
oracle

>  <origin>  (3) 
adg

>  <m_score__min__energy>  (3) 
-5.9299999999999997

>  <m_primary>  (3) 
energy

$$$$
3:0
     RDKit          3D

 68 71  0  0  0  0  0  0  0  0999 V2000
   58.0790   32.6080   51.7930 C   0  0  0  0  0  0  0  0  0  0  0  0
   57.6160   31.1450   51.8830 C   0  0  0  0  0  0  0  0  0  0  0  0
   56.0850   31.0530   52.0010 C   0  0  0  0  0  0  0  0  0  0  0  0
   58.1530   30.3090   50.7840 N   0  0  0  0  0  0  0  0  0  0  0  0
   59.2990   29.4570   51.1610 C   0  0  0  0  0  0  0  0  0  0  0  0
   60.1680   29.1330   49.9420 C   0  0  0  0  0  0  0  0  0  0  0  0
   59.7000   29.8630   48.8150 O   0  0  0  0  0  0  0  0  0  0  0  0
   59.3230   29.2280   47.6350 C   0  0  0  0  0  0  0  0  0  0  0  0
   59.8030   27.9330   47.3280 C   0  0  0  0  0  0  0  0  0  0  0  0
   59.4620   27.3160   46.1110 C   0  0  0  0  0  0  0  0  0  0  0  0
   58.6340   28.0170   45.2340 C   0  0  0  0  0  0  0  0  0  0  0  0
   58.1610   27.6800   43.9830 C   0  0  0  0  0  0  0  0  0  0  0  0
   57.3920   28.7670   43.5740 C   0  0  0  0  0  0  0  0  0  0  0  0
   57.3830   29.7260   44.5310 N   0  0  0  0  0  0  0  0  0  0  0  0
   56.7000   31.0190   44.4600 C   0  0  0  0  0  0  0  0  0  0  0  0
   57.7200   32.1630   44.4840 C   0  0  0  0  0  0  0  0  0  0  0  0
   57.1870   33.3280   45.2280 N   0  0  0  0  0  0  0  0  0  0  0  0
   57.8210   34.5980   44.8170 C   0  0  0  0  0  0  0  0  0  0  0  0
   59.3260   34.6280   45.1350 C   0  0  0  0  0  0  0  0  0  0  0  0
   59.6440   34.0640   46.4970 C   0  0  0  0  0  0  0  0  0  0  0  0
   60.9450   34.2010   47.0050 C   0  0  0  0  0  0  0  0  0  0  0  0
   61.3090   33.6260   48.2400 C   0  0  0  0  0  0  0  0  0  0  0  0
   62.6630   33.7520   48.7490 N   0  0  0  0  0  0  0  0  0  0  0  0
   63.8130   33.4370   47.8910 C   0  0  0  0  0  0  0  0  0  0  0  0
   62.9080   34.2160   50.1210 C   0  0  0  0  0  0  0  0  0  0  0  0
   60.3300   32.9140   48.9600 C   0  0  0  0  0  0  0  0  0  0  0  0
   59.0370   32.7660   48.4550 C   0  0  0  0  0  0  0  0  0  0  0  0
   58.6910   33.3150   47.2140 C   0  0  0  0  0  0  0  0  0  0  0  0
   57.2800   33.1600   46.6960 C   0  0  0  0  0  0  0  0  0  0  0  0
   58.1510   29.2630   45.5370 C   0  0  0  0  0  0  0  0  0  0  0  0
   58.4820   29.9030   46.7320 C   0  0  0  0  0  0  0  0  0  0  0  0
   58.2078   33.0149   52.8068 H   0  0  0  0  0  0  0  0  0  0  0  0
   59.0366   32.6570   51.2539 H   0  0  0  0  0  0  0  0  0  0  0  0
   57.3240   33.1990   51.2539 H   0  0  0  0  0  0  0  0  0  0  0  0
   58.0398   30.7263   52.8077 H   0  0  0  0  0  0  0  0  0  0  0  0
   55.7995   31.0358   53.0632 H   0  0  0  0  0  0  0  0  0  0  0  0
   55.6265   31.9252   51.5121 H   0  0  0  0  0  0  0  0  0  0  0  0
   55.7342   30.1322   51.5121 H   0  0  0  0  0  0  0  0  0  0  0  0
   58.4470   30.9470   50.0060 H   0  0  0  0  0  0  0  0  0  0  0  0
   57.3810   29.7070   50.4140 H   0  0  0  0  0  0  0  0  0  0  0  0
   59.9098   29.9857   51.9076 H   0  0  0  0  0  0  0  0  0  0  0  0
   58.9127   28.5143   51.5759 H   0  0  0  0  0  0  0  0  0  0  0  0
   61.2112   29.4121   50.1515 H   0  0  0  0  0  0  0  0  0  0  0  0
   60.1109   28.0554   49.7287 H   0  0  0  0  0  0  0  0  0  0  0  0
   60.4475   27.4050   48.0462 H   0  0  0  0  0  0  0  0  0  0  0  0
   59.8362   26.3128   45.8588 H   0  0  0  0  0  0  0  0  0  0  0  0
   58.3507   26.7503   43.4265 H   0  0  0  0  0  0  0  0  0  0  0  0
   56.8663   28.8369   42.6103 H   0  0  0  0  0  0  0  0  0  0  0  0
   56.1184   31.0712   43.5278 H   0  0  0  0  0  0  0  0  0  0  0  0
   56.0316   31.1181   45.3280 H   0  0  0  0  0  0  0  0  0  0  0  0
   58.6417   31.8141   44.9726 H   0  0  0  0  0  0  0  0  0  0  0  0
   57.9283   32.4712   43.4488 H   0  0  0  0  0  0  0  0  0  0  0  0
   57.6857   34.7265   43.7329 H   0  0  0  0  0  0  0  0  0  0  0  0
   57.3413   35.4118   45.3805 H   0  0  0  0  0  0  0  0  0  0  0  0
   59.8580   34.0359   44.3758 H   0  0  0  0  0  0  0  0  0  0  0  0
   59.6464   35.6803   45.1279 H   0  0  0  0  0  0  0  0  0  0  0  0
   61.6933   34.7664   46.4302 H   0  0  0  0  0  0  0  0  0  0  0  0
   64.6843   33.1983   48.5186 H   0  0  0  0  0  0  0  0  0  0  0  0
   63.5707   32.5722   47.2559 H   0  0  0  0  0  0  0  0  0  0  0  0
   64.0452   34.3046   47.2559 H   0  0  0  0  0  0  0  0  0  0  0  0
   62.5169   33.4752   50.8339 H   0  0  0  0  0  0  0  0  0  0  0  0
   63.9895   34.3407   50.2782 H   0  0  0  0  0  0  0  0  0  0  0  0
   62.4011   35.1795   50.2782 H   0  0  0  0  0  0  0  0  0  0  0  0
   60.5875   32.4690   49.9324 H   0  0  0  0  0  0  0  0  0  0  0  0
   58.2840   32.2138   49.0364 H   0  0  0  0  0  0  0  0  0  0  0  0
   56.9174   32.1552   46.9586 H   0  0  0  0  0  0  0  0  0  0  0  0
   56.6682   33.9481   47.1593 H   0  0  0  0  0  0  0  0  0  0  0  0
   58.0960   30.9072   46.9614 H   0  0  0  0  0  0  0  0  0  0  0  0
  1  2  1  0
  2  3  1  0
  2  4  1  0
  4  5  1  0
  5  6  1  0
  6  7  1  0
  7  8  1  0
  8  9  2  0
  9 10  1  0
 10 11  2  0
 11 12  1  0
 12 13  2  0
 13 14  1  0
 14 15  1  0
 15 16  1  0
 16 17  1  0
 17 18  1  0
 18 19  1  0
 19 20  1  0
 20 21  2  0
 21 22  1  0
 22 23  1  0
 23 24  1  0
 23 25  1  0
 22 26  2  0
 26 27  1  0
 27 28  2  0
 28 29  1  0
 14 30  1  0
 30 31  2  0
 31  8  1  0
 30 11  1  0
 29 17  1  0
 28 20  1  0
  1 32  1  0
  1 33  1  0
  1 34  1  0
  2 35  1  0
  3 36  1  0
  3 37  1  0
  3 38  1  0
  4 39  1  0
  4 40  1  0
  5 41  1  0
  5 42  1  0
  6 43  1  0
  6 44  1  0
  9 45  1  0
 10 46  1  0
 12 47  1  0
 13 48  1  0
 15 49  1  0
 15 50  1  0
 16 51  1  0
 16 52  1  0
 18 53  1  0
 18 54  1  0
 19 55  1  0
 19 56  1  0
 21 57  1  0
 24 58  1  0
 24 59  1  0
 24 60  1  0
 25 61  1  0
 25 62  1  0
 25 63  1  0
 26 64  1  0
 27 65  1  0
 29 66  1  0
 29 67  1  0
 31 68  1  0
M  CHG  1   4   1
M  END
>  <UniqueID>  (4) 
4

>  <SMILES>  (4) 
CC(C)[NH2+]CCOc1ccc2ccn(CCN3CCc4cc(N(C)C)ccc4C3)c2c1

>  <Energy>  (4) 
108.17598666767014

>  <Genealogy>  (4) 
CC(C)[NH2+]CCOc1ccc2ccn(CCN3CCc4cc(N(C)C)ccc4C3)c2c1 (protonated)
CC(C)[NH2+]CCOc1ccc2ccn(CCN3CCc4cc(N(C)C)ccc4C3)c2c1 (3D coordinates assigned)
CC(C)[NH2+]CCOc1ccc2ccn(CCN3CCc4cc(N(C)C)ccc4C3)c2c1 (nonaromatic ring conformer: 108.17598666767014 kcal/mol)

>  <smiles>  (4) 
CC(C)NCCOc1ccc2ccn(CCN3CCc4cc(N(C)C)ccc4C3)c2c1

>  <score_type>  (4) 
oracle

>  <origin>  (4) 
adg

>  <m_score__min__energy>  (4) 
-7.1200000000000001

>  <m_primary>  (4) 
energy

$$$$
4:0
     RDKit          3D

 62 65  0  0  0  0  0  0  0  0999 V2000
   58.5410   30.0760   50.4740 C   0  0  0  0  0  0  0  0  0  0  0  0
   58.7110   31.5000   49.9410 C   0  0  0  0  0  0  0  0  0  0  0  0
   60.0620   31.9190   50.0330 O   0  0  0  0  0  0  0  0  0  0  0  0
   60.3140   32.5130   51.2980 C   0  0  0  0  0  0  0  0  0  0  0  0
   61.5050   33.4780   51.2250 C   0  0  0  0  0  0  0  0  0  0  0  0
   62.3240   33.1250   50.1240 O   0  0  0  0  0  0  0  0  0  0  0  0
   63.6880   33.1180   50.5010 C   0  0  0  0  0  0  0  0  0  0  0  0
   64.5810   32.5190   49.4010 C   0  0  0  0  0  0  0  0  0  0  0  0
   63.8160   31.7270   48.5070 O   0  0  0  0  0  0  0  0  0  0  0  0
   63.7400   32.3250   47.2310 C   0  0  0  0  0  0  0  0  0  0  0  0
   62.4330   33.1120   47.1230 C   0  0  0  0  0  0  0  0  0  0  0  0
   61.3220   32.5000   47.8870 N   0  0  0  0  0  0  0  0  0  0  0  0
   60.2900   31.9680   47.0130 C   0  0  0  0  0  0  0  0  0  0  0  0
   60.0710   30.5870   46.9360 C   0  0  0  0  0  0  0  0  0  0  0  0
   59.1460   30.0550   46.0590 C   0  0  0  0  0  0  0  0  0  0  0  0
   58.2890   30.8480   45.3340 N   0  0  0  0  0  0  0  0  0  0  0  0
   57.1440   30.2330   44.6370 C   0  0  0  0  0  0  0  0  0  0  0  0
   58.5010   32.2200   45.3260 C   0  0  0  0  0  0  0  0  0  0  0  0
   57.7720   33.0810   44.4630 C   0  0  0  0  0  0  0  0  0  0  0  0
   57.9580   34.4630   44.4960 C   0  0  0  0  0  0  0  0  0  0  0  0
   58.8860   35.0260   45.3590 C   0  0  0  0  0  0  0  0  0  0  0  0
   59.6550   34.2100   46.1880 C   0  0  0  0  0  0  0  0  0  0  0  0
   59.4920   32.8050   46.1850 C   0  0  0  0  0  0  0  0  0  0  0  0
   59.2270   28.5870   46.1510 C   0  0  0  0  0  0  0  0  0  0  0  0
   58.6940   27.5690   45.3460 C   0  0  0  0  0  0  0  0  0  0  0  0
   59.0240   26.2350   45.6390 C   0  0  0  0  0  0  0  0  0  0  0  0
   59.9000   25.9320   46.6940 C   0  0  0  0  0  0  0  0  0  0  0  0
   60.4720   26.9620   47.4530 C   0  0  0  0  0  0  0  0  0  0  0  0
   60.1270   28.2840   47.1560 C   0  0  0  0  0  0  0  0  0  0  0  0
   60.7310   29.5100   47.7530 C   0  0  0  0  0  0  0  0  0  0  0  0
   58.5431   30.0935   51.5739 H   0  0  0  0  0  0  0  0  0  0  0  0
   57.5870   29.6618   50.1157 H   0  0  0  0  0  0  0  0  0  0  0  0
   59.3707   29.4489   50.1157 H   0  0  0  0  0  0  0  0  0  0  0  0
   58.3961   31.5297   48.8875 H   0  0  0  0  0  0  0  0  0  0  0  0
   58.0919   32.1774   50.5475 H   0  0  0  0  0  0  0  0  0  0  0  0
   59.4203   33.0682   51.6191 H   0  0  0  0  0  0  0  0  0  0  0  0
   60.5521   31.7163   52.0181 H   0  0  0  0  0  0  0  0  0  0  0  0
   61.1376   34.5067   51.0953 H   0  0  0  0  0  0  0  0  0  0  0  0
   62.0890   33.4152   52.1551 H   0  0  0  0  0  0  0  0  0  0  0  0
   64.0088   34.1519   50.6965 H   0  0  0  0  0  0  0  0  0  0  0  0
   63.7908   32.4954   51.4020 H   0  0  0  0  0  0  0  0  0  0  0  0
   65.0594   33.3356   48.8404 H   0  0  0  0  0  0  0  0  0  0  0  0
   65.3427   31.8814   49.8735 H   0  0  0  0  0  0  0  0  0  0  0  0
   64.5925   33.0062   47.0923 H   0  0  0  0  0  0  0  0  0  0  0  0
   63.7682   31.5460   46.4549 H   0  0  0  0  0  0  0  0  0  0  0  0
   62.6037   34.1286   47.5069 H   0  0  0  0  0  0  0  0  0  0  0  0
   62.1391   33.1162   46.0630 H   0  0  0  0  0  0  0  0  0  0  0  0
   60.8950   33.2190   48.5100 H   0  0  0  0  0  0  0  0  0  0  0  0
   61.6760   31.7700   48.5450 H   0  0  0  0  0  0  0  0  0  0  0  0
   56.4275   29.8482   45.3777 H   0  0  0  0  0  0  0  0  0  0  0  0
   56.6502   30.9873   44.0067 H   0  0  0  0  0  0  0  0  0  0  0  0
   57.5002   29.4048   44.0067 H   0  0  0  0  0  0  0  0  0  0  0  0
   57.0478   32.6502   43.7560 H   0  0  0  0  0  0  0  0  0  0  0  0
   57.3648   35.1103   43.8333 H   0  0  0  0  0  0  0  0  0  0  0  0
   59.0157   36.1179   45.3897 H   0  0  0  0  0  0  0  0  0  0  0  0
   60.4008   34.6665   46.8554 H   0  0  0  0  0  0  0  0  0  0  0  0
   58.0309   27.8104   44.5022 H   0  0  0  0  0  0  0  0  0  0  0  0
   58.5927   25.4215   45.0372 H   0  0  0  0  0  0  0  0  0  0  0  0
   60.1379   24.8832   46.9253 H   0  0  0  0  0  0  0  0  0  0  0  0
   61.1778   26.7351   48.2656 H   0  0  0  0  0  0  0  0  0  0  0  0
   60.4818   29.6036   48.8203 H   0  0  0  0  0  0  0  0  0  0  0  0
   61.8304   29.5316   47.7254 H   0  0  0  0  0  0  0  0  0  0  0  0
  1  2  1  0
  2  3  1  0
  3  4  1  0
  4  5  1  0
  5  6  1  0
  6  7  1  0
  7  8  1  0
  8  9  1  0
  9 10  1  0
 10 11  1  0
 11 12  1  0
 12 13  1  0
 13 14  2  0
 14 15  1  0
 15 16  2  0
 16 17  1  0
 16 18  1  0
 18 19  2  0
 19 20  1  0
 20 21  2  0
 21 22  1  0
 22 23  2  0
 15 24  1  0
 24 25  2  0
 25 26  1  0
 26 27  2  0
 27 28  1  0
 28 29  2  0
 29 30  1  0
 23 13  1  0
 29 24  1  0
 30 14  1  0
 23 18  1  0
  1 31  1  0
  1 32  1  0
  1 33  1  0
  2 34  1  0
  2 35  1  0
  4 36  1  0
  4 37  1  0
  5 38  1  0
  5 39  1  0
  7 40  1  0
  7 41  1  0
  8 42  1  0
  8 43  1  0
 10 44  1  0
 10 45  1  0
 11 46  1  0
 11 47  1  0
 12 48  1  0
 12 49  1  0
 17 50  1  0
 17 51  1  0
 17 52  1  0
 19 53  1  0
 20 54  1  0
 21 55  1  0
 22 56  1  0
 25 57  1  0
 26 58  1  0
 27 59  1  0
 28 60  1  0
 30 61  1  0
 30 62  1  0
M  CHG  2  12   1  16   1
M  END
>  <UniqueID>  (5) 
5

>  <SMILES>  (5) 
CCOCCOCCOCC[NH2+]c1c2c([n+](C)c3ccccc13)-c1ccccc1C2

>  <Energy>  (5) 
111.55342914248664

>  <Genealogy>  (5) 
CCOCCOCCOCC[NH2+]c1c2c([n+](C)c3ccccc13)-c1ccccc1C2 (protonated)
CCOCCOCCOCC[NH2+]c1c2c([n+](C)c3ccccc13)-c1ccccc1C2 (3D coordinates assigned)
CCOCCOCCOCC[NH2+]c1c2c([n+](C)c3ccccc13)-c1ccccc1C2 (nonaromatic ring conformer: 111.55342914248664 kcal/mol)

>  <smiles>  (5) 
CCOCCOCCOCCNc1c2c([n+](C)c3ccccc13)-c1ccccc1C2

>  <score_type>  (5) 
oracle

>  <origin>  (5) 
adg

>  <m_score__min__energy>  (5) 
-3.4700000000000002

>  <m_primary>  (5) 
energy

$$$$
5:0
     RDKit          3D

 52 54  0  0  0  0  0  0  0  0999 V2000
   59.5501   31.4815   44.9943 H   0  0  0  0  0  0  0  0  0  0  0  0
   58.5840   30.9560   44.9710 C   0  0  0  0  0  0  0  0  0  0  0  0
   57.3870   31.6800   44.9360 C   0  0  0  0  0  0  0  0  0  0  0  0
   57.3750   33.1830   44.8600 C   0  0  0  0  0  0  0  0  0  0  0  0
   57.0491   33.5752   45.8347 H   0  0  0  0  0  0  0  0  0  0  0  0
   56.6909   33.4529   44.0419 H   0  0  0  0  0  0  0  0  0  0  0  0
   58.7400   33.8080   44.5200 C   0  0  0  0  0  0  0  0  0  0  0  0
   58.6705   34.2630   43.5209 H   0  0  0  0  0  0  0  0  0  0  0  0
   59.4786   32.9944   44.5710 H   0  0  0  0  0  0  0  0  0  0  0  0
   59.2100   34.8900   45.5100 C   0  0  0  0  0  0  0  0  0  0  0  0
   58.3691   35.1408   46.1733 H   0  0  0  0  0  0  0  0  0  0  0  0
   59.5453   35.7478   44.9085 H   0  0  0  0  0  0  0  0  0  0  0  0
   60.4090   34.4620   46.3860 C   0  0  0  0  0  0  0  0  0  0  0  0
   60.7353   35.3348   46.9705 H   0  0  0  0  0  0  0  0  0  0  0  0
   61.1811   34.0903   45.6963 H   0  0  0  0  0  0  0  0  0  0  0  0
   60.1170   33.3360   47.3460 C   0  0  0  0  0  0  0  0  0  0  0  0
   58.9940   33.2390   48.0950 N   0  0  0  0  0  0  0  0  0  0  0  0
   59.1520   32.1780   48.8690 N   0  0  0  0  0  0  0  0  0  0  0  0
   58.4530   31.8380   49.5650 H   0  0  0  0  0  0  0  0  0  0  0  0
   60.3560   31.6450   48.6050 C   0  0  0  0  0  0  0  0  0  0  0  0
   61.0290   30.2120   49.4540 S   0  0  0  0  0  0  0  0  0  0  0  0
   60.4080   29.0210   48.2210 C   0  0  0  0  0  0  0  0  0  0  0  0
   60.7828   28.0162   48.4660 H   0  0  0  0  0  0  0  0  0  0  0  0
   60.7608   29.3215   47.2234 H   0  0  0  0  0  0  0  0  0  0  0  0
   58.8880   29.0040   48.2240 C   0  0  0  0  0  0  0  0  0  0  0  0
   58.5234   28.9999   49.2618 H   0  0  0  0  0  0  0  0  0  0  0  0
   58.5103   29.8980   47.7062 H   0  0  0  0  0  0  0  0  0  0  0  0
   58.5304   28.1018   47.7062 H   0  0  0  0  0  0  0  0  0  0  0  0
   60.9980   32.3550   47.6560 N   0  0  0  0  0  0  0  0  0  0  0  0
   62.3500   32.1460   47.1320 C   0  0  0  0  0  0  0  0  0  0  0  0
   62.7254   31.1727   47.4809 H   0  0  0  0  0  0  0  0  0  0  0  0
   62.3095   32.1694   46.0330 H   0  0  0  0  0  0  0  0  0  0  0  0
   63.2910   33.2440   47.6090 C   0  0  0  0  0  0  0  0  0  0  0  0
   63.3062   33.2617   48.7088 H   0  0  0  0  0  0  0  0  0  0  0  0
   64.3053   33.0473   47.2314 H   0  0  0  0  0  0  0  0  0  0  0  0
   62.9413   34.2162   47.2314 H   0  0  0  0  0  0  0  0  0  0  0  0
   56.2100   31.0020   44.8690 N   0  0  0  0  0  0  0  0  0  0  0  0
   56.1670   29.6690   44.8660 N   0  0  0  0  0  0  0  0  0  0  0  0
   57.2960   28.9110   44.9100 C   0  0  0  0  0  0  0  0  0  0  0  0
   57.1690   27.6140   44.9320 N   0  0  0  0  0  0  0  0  0  0  0  0
   56.5840   26.7960   45.9540 C   0  0  0  0  0  0  0  0  0  0  0  0
   55.3280   26.7020   46.0040 O   0  0  0  0  0  0  0  0  0  0  0  0
   57.4520   25.9720   46.8780 C   0  0  0  0  0  0  0  0  0  0  0  0
   56.7815   26.0594   47.7457 H   0  0  0  0  0  0  0  0  0  0  0  0
   58.2190   24.8460   46.1980 C   0  0  0  0  0  0  0  0  0  0  0  0
   58.3605   23.8860   46.7160 H   0  0  0  0  0  0  0  0  0  0  0  0
   58.1329   24.3156   45.2382 H   0  0  0  0  0  0  0  0  0  0  0  0
   58.9580   26.0860   46.6790 C   0  0  0  0  0  0  0  0  0  0  0  0
   59.6335   26.0224   47.5448 H   0  0  0  0  0  0  0  0  0  0  0  0
   59.6271   26.8231   46.2110 H   0  0  0  0  0  0  0  0  0  0  0  0
   58.5410   29.5640   44.9760 C   0  0  0  0  0  0  0  0  0  0  0  0
   59.4717   28.9802   45.0310 H   0  0  0  0  0  0  0  0  0  0  0  0
  1  2  1  0
  2  3  1  0
  3  4  1  0
  4  5  1  0
  4  6  1  0
  4  7  1  0
  7  8  1  0
  7  9  1  0
  7 10  1  0
 10 11  1  0
 10 12  1  0
 10 13  1  0
 13 14  1  0
 13 15  1  0
 13 16  1  0
 16 17  2  0
 17 18  1  0
 18 19  1  0
 18 20  2  0
 20 21  1  0
 21 22  1  0
 22 23  1  0
 22 24  1  0
 22 25  1  0
 25 26  1  0
 25 27  1  0
 25 28  1  0
 20 29  1  0
 29 30  1  0
 30 31  1  0
 30 32  1  0
 30 33  1  0
 33 34  1  0
 33 35  1  0
 33 36  1  0
  3 37  2  0
 37 38  1  0
 38 39  1  0
 39 40  2  0
 40 41  1  0
 41 42  2  0
 41 43  1  0
 43 44  1  0
 43 45  1  0
 45 46  1  0
 45 47  1  0
 45 48  1  0
 48 49  1  0
 48 50  1  0
 39 51  1  0
 51 52  1  0
 51  2  2  0
 29 16  1  0
 48 43  1  0
M  CHG  2  18   1  38  -1
M  END
>  <UniqueID>  (6) 
6

>  <SMILES>  (6) 
CCSc1[nH+]nc(CCCCc2cc/c(=N\C(=O)C3CC3)[n-]n2)n1CC

>  <Energy>  (6) 
347.0151899654385

>  <Genealogy>  (6) 
CCSc1[nH+]nc(CCCCc2ccc(=NC(=O)C3CC3)[n-]n2)n1CC (protonated)
CCSc1[nH+]nc(CCCCc2cc/c(=N\C(=O)C3CC3)[n-]n2)n1CC (cis-trans isomerization)
CCSc1[nH+]nc(CCCCc2cc/c(=N\C(=O)C3CC3)[n-]n2)n1CC (3D coordinates assigned)
CCSc1[nH+]nc(CCCCc2cc/c(=N\C(=O)C3CC3)[n-]n2)n1CC (nonaromatic ring conformer: 347.0151899654385 kcal/mol)

>  <smiles>  (6) 
CCSc1nnc(CCCCc2ccc(=NC(=O)C3CC3)[nH]n2)n1CC

>  <score_type>  (6) 
oracle

>  <origin>  (6) 
adg

>  <m_score__min__energy>  (6) 
-9.5899999999999999

>  <m_primary>  (6) 
energy

$$$$
6:0
     RDKit          3D

 69 71  0  0  0  0  0  0  0  0999 V2000
   63.2620   33.8360   46.3730 C   0  0  0  0  0  0  0  0  0  0  0  0
   63.2260   33.8320   47.8980 C   0  0  0  0  0  0  0  0  0  0  0  0
   63.3890   32.4560   48.4210 N   0  0  0  0  0  0  0  0  0  0  0  0
   63.0270   31.4660   47.3890 C   0  0  0  0  0  0  0  0  0  0  0  0
   62.5620   32.2420   49.6290 C   0  0  0  0  0  0  0  0  0  0  0  0
   61.4970   33.3470   49.7760 C   0  0  0  0  0  0  0  0  0  0  0  0
   60.1510   32.8270   49.5250 N   0  0  0  0  0  0  0  0  0  0  0  0
   59.7650   32.3200   48.2360 C   0  0  0  0  0  0  0  0  0  0  0  0
   59.5380   33.2010   47.1630 C   0  0  0  0  0  0  0  0  0  0  0  0
   59.8450   34.5740   47.2750 C   0  0  0  0  0  0  0  0  0  0  0  0
   59.6520   35.4370   46.1990 C   0  0  0  0  0  0  0  0  0  0  0  0
   59.1760   34.9460   44.9900 C   0  0  0  0  0  0  0  0  0  0  0  0
   58.8800   33.5900   44.8500 C   0  0  0  0  0  0  0  0  0  0  0  0
   59.0330   32.6920   45.9380 C   0  0  0  0  0  0  0  0  0  0  0  0
   58.7290   31.3480   45.8210 N   0  0  0  0  0  0  0  0  0  0  0  0
   57.9270   30.8690   44.6720 C   0  0  0  0  0  0  0  0  0  0  0  0
   59.1670   30.4570   46.7820 C   0  0  0  0  0  0  0  0  0  0  0  0
   59.1460   29.0580   46.5640 C   0  0  0  0  0  0  0  0  0  0  0  0
   59.5560   28.1490   47.5530 C   0  0  0  0  0  0  0  0  0  0  0  0
   59.5210   26.7260   47.3180 N   0  0  0  0  0  0  0  0  0  0  0  0
   59.4890   26.1020   45.9930 C   0  0  0  0  0  0  0  0  0  0  0  0
   58.2250   25.2490   45.7980 C   0  0  0  0  0  0  0  0  0  0  0  0
   56.9260   26.0630   45.9180 C   0  0  0  0  0  0  0  0  0  0  0  0
   55.8140   25.2320   46.4300 N   0  0  0  0  0  0  0  0  0  0  0  0
   56.3060   24.2910   47.4480 C   0  0  0  0  0  0  0  0  0  0  0  0
   55.1680   24.4820   45.3380 C   0  0  0  0  0  0  0  0  0  0  0  0
   60.0060   28.6330   48.7910 C   0  0  0  0  0  0  0  0  0  0  0  0
   60.4160   27.7100   49.7670 O   0  0  0  0  0  0  0  0  0  0  0  0
   61.1880   28.0320   50.9190 C   0  0  0  0  0  0  0  0  0  0  0  0
   60.0590   30.0180   49.0130 C   0  0  0  0  0  0  0  0  0  0  0  0
   59.6670   30.9330   48.0190 C   0  0  0  0  0  0  0  0  0  0  0  0
   64.3011   33.9514   46.0311 H   0  0  0  0  0  0  0  0  0  0  0  0
   62.8546   32.8871   45.9941 H   0  0  0  0  0  0  0  0  0  0  0  0
   62.6563   34.6724   45.9941 H   0  0  0  0  0  0  0  0  0  0  0  0
   64.0421   34.4628   48.2803 H   0  0  0  0  0  0  0  0  0  0  0  0
   62.2534   34.2241   48.2302 H   0  0  0  0  0  0  0  0  0  0  0  0
   62.6879   30.5385   47.8736 H   0  0  0  0  0  0  0  0  0  0  0  0
   62.2181   31.8691   46.7620 H   0  0  0  0  0  0  0  0  0  0  0  0
   63.9051   31.2522   46.7620 H   0  0  0  0  0  0  0  0  0  0  0  0
   62.0593   31.2666   49.5520 H   0  0  0  0  0  0  0  0  0  0  0  0
   63.2185   32.2702   50.5111 H   0  0  0  0  0  0  0  0  0  0  0  0
   61.5397   33.7519   50.7979 H   0  0  0  0  0  0  0  0  0  0  0  0
   61.7086   34.1331   49.0362 H   0  0  0  0  0  0  0  0  0  0  0  0
   59.4560   32.8080   50.3050 H   0  0  0  0  0  0  0  0  0  0  0  0
   60.2412   34.9670   48.2229 H   0  0  0  0  0  0  0  0  0  0  0  0
   59.8767   36.5084   46.3067 H   0  0  0  0  0  0  0  0  0  0  0  0
   59.0319   35.6289   44.1398 H   0  0  0  0  0  0  0  0  0  0  0  0
   58.5225   33.2110   43.8812 H   0  0  0  0  0  0  0  0  0  0  0  0
   57.0376   30.3378   45.0417 H   0  0  0  0  0  0  0  0  0  0  0  0
   57.6133   31.7278   44.0604 H   0  0  0  0  0  0  0  0  0  0  0  0
   58.5344   30.1856   44.0604 H   0  0  0  0  0  0  0  0  0  0  0  0
   58.7992   28.6728   45.5938 H   0  0  0  0  0  0  0  0  0  0  0  0
   59.5950   26.0790   48.1360 H   0  0  0  0  0  0  0  0  0  0  0  0
   59.5087   26.8909   45.2266 H   0  0  0  0  0  0  0  0  0  0  0  0
   60.3652   25.4432   45.9024 H   0  0  0  0  0  0  0  0  0  0  0  0
   58.2613   24.7923   44.7980 H   0  0  0  0  0  0  0  0  0  0  0  0
   58.2132   24.4914   46.5955 H   0  0  0  0  0  0  0  0  0  0  0  0
   57.0924   26.9030   46.6084 H   0  0  0  0  0  0  0  0  0  0  0  0
   56.6527   26.4288   44.9172 H   0  0  0  0  0  0  0  0  0  0  0  0
   56.0961   24.6925   48.4504 H   0  0  0  0  0  0  0  0  0  0  0  0
   55.7990   23.3223   47.3274 H   0  0  0  0  0  0  0  0  0  0  0  0
   57.3908   24.1546   47.3274 H   0  0  0  0  0  0  0  0  0  0  0  0
   54.5058   23.7132   45.7629 H   0  0  0  0  0  0  0  0  0  0  0  0
   54.5775   25.1727   44.7181 H   0  0  0  0  0  0  0  0  0  0  0  0
   55.9385   24.0004   44.7181 H   0  0  0  0  0  0  0  0  0  0  0  0
   60.6123   27.7919   51.8250 H   0  0  0  0  0  0  0  0  0  0  0  0
   62.1198   27.4475   50.9110 H   0  0  0  0  0  0  0  0  0  0  0  0
   61.4284   29.1054   50.9110 H   0  0  0  0  0  0  0  0  0  0  0  0
   60.4140   30.3953   49.9833 H   0  0  0  0  0  0  0  0  0  0  0  0
  1  2  1  0
  2  3  1  0
  3  4  1  0
  3  5  1  0
  5  6  1  0
  6  7  1  0
  7  8  1  0
  8  9  2  0
  9 10  1  0
 10 11  2  0
 11 12  1  0
 12 13  2  0
 13 14  1  0
 14 15  2  0
 15 16  1  0
 15 17  1  0
 17 18  2  0
 18 19  1  0
 19 20  1  0
 20 21  1  0
 21 22  1  0
 22 23  1  0
 23 24  1  0
 24 25  1  0
 24 26  1  0
 19 27  2  0
 27 28  1  0
 28 29  1  0
 27 30  1  0
 30 31  2  0
 31  8  1  0
 14  9  1  0
 31 17  1  0
  1 32  1  0
  1 33  1  0
  1 34  1  0
  2 35  1  0
  2 36  1  0
  4 37  1  0
  4 38  1  0
  4 39  1  0
  5 40  1  0
  5 41  1  0
  6 42  1  0
  6 43  1  0
  7 44  1  0
 10 45  1  0
 11 46  1  0
 12 47  1  0
 13 48  1  0
 16 49  1  0
 16 50  1  0
 16 51  1  0
 18 52  1  0
 20 53  1  0
 21 54  1  0
 21 55  1  0
 22 56  1  0
 22 57  1  0
 23 58  1  0
 23 59  1  0
 25 60  1  0
 25 61  1  0
 25 62  1  0
 26 63  1  0
 26 64  1  0
 26 65  1  0
 29 66  1  0
 29 67  1  0
 29 68  1  0
 30 69  1  0
M  CHG  1  15   1
M  END
>  <UniqueID>  (7) 
7

>  <SMILES>  (7) 
CCN(C)CCNc1c2ccccc2[n+](C)c2cc(NCCCN(C)C)c(OC)cc12

>  <Energy>  (7) 
92.59455424958418

>  <Genealogy>  (7) 
CCN(C)CCNc1c2ccccc2[n+](C)c2cc(NCCCN(C)C)c(OC)cc12 (3D coordinates assigned)
CCN(C)CCNc1c2ccccc2[n+](C)c2cc(NCCCN(C)C)c(OC)cc12 (optimized conformer: 92.59455424958418 kcal/mol)

>  <smiles>  (7) 
CCN(C)CCNc1c2ccccc2[n+](C)c2cc(NCCCN(C)C)c(OC)cc12

>  <score_type>  (7) 
oracle

>  <origin>  (7) 
adg

>  <m_score__min__energy>  (7) 
-5.6299999999999999

>  <m_primary>  (7) 
energy

$$$$
7:0
     RDKit          3D

 38 40  0  0  0  0  0  0  0  0999 V2000
   56.2720   29.7280   42.6330 C   0  0  0  0  0  0  0  0  0  0  0  0
   55.7210   29.9450   44.0370 C   0  0  0  0  0  0  0  0  0  0  0  0
   56.1290   31.2150   44.5460 O   0  0  0  0  0  0  0  0  0  0  0  0
   57.3920   31.7680   44.3120 C   0  0  0  0  0  0  0  0  0  0  0  0
   57.6730   32.2600   43.1840 O   0  0  0  0  0  0  0  0  0  0  0  0
   58.4080   31.7510   45.3820 C   0  0  0  0  0  0  0  0  0  0  0  0
   58.9230   30.6460   46.0740 C   0  0  0  0  0  0  0  0  0  0  0  0
   58.6700   29.2160   45.8040 C   0  0  0  0  0  0  0  0  0  0  0  0
   58.8480   28.7150   44.5060 C   0  0  0  0  0  0  0  0  0  0  0  0
   58.5850   27.3710   44.2260 C   0  0  0  0  0  0  0  0  0  0  0  0
   58.1270   26.5110   45.2290 C   0  0  0  0  0  0  0  0  0  0  0  0
   57.8810   25.1700   44.8990 O   0  0  0  0  0  0  0  0  0  0  0  0
   57.2400   24.7420   43.7010 C   0  0  0  0  0  0  0  0  0  0  0  0
   57.9250   27.0180   46.5270 C   0  0  0  0  0  0  0  0  0  0  0  0
   58.1870   28.3620   46.8090 C   0  0  0  0  0  0  0  0  0  0  0  0
   59.7230   31.0500   47.0440 O   0  0  0  0  0  0  0  0  0  0  0  0
   59.7710   32.3590   47.0090 C   0  0  0  0  0  0  0  0  0  0  0  0
   60.4890   33.2000   47.8550 C   0  0  0  0  0  0  0  0  0  0  0  0
   60.3780   34.5870   47.6540 C   0  0  0  0  0  0  0  0  0  0  0  0
   59.5540   35.0960   46.6260 C   0  0  0  0  0  0  0  0  0  0  0  0
   58.8380   34.2230   45.7870 C   0  0  0  0  0  0  0  0  0  0  0  0
   58.9810   32.8490   46.0000 C   0  0  0  0  0  0  0  0  0  0  0  0
   57.2937   29.3256   42.6982 H   0  0  0  0  0  0  0  0  0  0  0  0
   55.6309   29.0152   42.0936 H   0  0  0  0  0  0  0  0  0  0  0  0
   56.2891   30.6865   42.0936 H   0  0  0  0  0  0  0  0  0  0  0  0
   54.6222   29.9046   44.0044 H   0  0  0  0  0  0  0  0  0  0  0  0
   56.1113   29.1563   44.6970 H   0  0  0  0  0  0  0  0  0  0  0  0
   59.1963   29.3830   43.7045 H   0  0  0  0  0  0  0  0  0  0  0  0
   58.7398   26.9863   43.2072 H   0  0  0  0  0  0  0  0  0  0  0  0
   56.3497   24.1475   43.9538 H   0  0  0  0  0  0  0  0  0  0  0  0
   56.9389   25.6209   43.1121 H   0  0  0  0  0  0  0  0  0  0  0  0
   57.9364   24.1271   43.1121 H   0  0  0  0  0  0  0  0  0  0  0  0
   57.5591   26.3531   47.3233 H   0  0  0  0  0  0  0  0  0  0  0  0
   58.0141   28.7525   47.8227 H   0  0  0  0  0  0  0  0  0  0  0  0
   61.1233   32.7919   48.6557 H   0  0  0  0  0  0  0  0  0  0  0  0
   60.9361   35.2797   48.3010 H   0  0  0  0  0  0  0  0  0  0  0  0
   59.4715   36.1832   46.4804 H   0  0  0  0  0  0  0  0  0  0  0  0
   58.1866   34.6091   44.9891 H   0  0  0  0  0  0  0  0  0  0  0  0
  1  2  1  0
  2  3  1  0
  3  4  1  0
  4  5  2  0
  4  6  1  0
  6  7  2  0
  7  8  1  0
  8  9  2  0
  9 10  1  0
 10 11  2  0
 11 12  1  0
 12 13  1  0
 11 14  1  0
 14 15  2  0
  7 16  1  0
 16 17  1  0
 17 18  2  0
 18 19  1  0
 19 20  2  0
 20 21  1  0
 21 22  2  0
 22  6  1  0
 15  8  1  0
 22 17  1  0
  1 23  1  0
  1 24  1  0
  1 25  1  0
  2 26  1  0
  2 27  1  0
  9 28  1  0
 10 29  1  0
 13 30  1  0
 13 31  1  0
 13 32  1  0
 14 33  1  0
 15 34  1  0
 18 35  1  0
 19 36  1  0
 20 37  1  0
 21 38  1  0
M  END
>  <UniqueID>  (8) 
8

>  <SMILES>  (8) 
CCOC(=O)c1c(-c2ccc(OC)cc2)oc2ccccc12

>  <Energy>  (8) 
76.00949110963474

>  <Genealogy>  (8) 
CCOC(=O)c1c(-c2ccc(OC)cc2)oc2ccccc12 (3D coordinates assigned)
CCOC(=O)c1c(-c2ccc(OC)cc2)oc2ccccc12 (optimized conformer: 76.00949110963474 kcal/mol)

>  <smiles>  (8) 
CCOC(=O)c1c(-c2ccc(OC)cc2)oc2ccccc12

>  <score_type>  (8) 
oracle

>  <origin>  (8) 
adg

>  <m_score__min__energy>  (8) 
-6.96

>  <m_primary>  (8) 
energy

$$$$
8:0
     RDKit          3D

 37 39  0  0  1  0  0  0  0  0999 V2000
   57.0270   34.2050   45.2770 C   0  0  0  0  0  0  0  0  0  0  0  0
   58.4110   33.6480   45.1930 C   0  0  0  0  0  0  0  0  0  0  0  0
   59.3070   34.5530   46.0360 C   0  0  0  0  0  0  0  0  0  0  0  0
   58.5110   32.3000   45.6590 N   0  0  0  0  0  0  0  0  0  0  0  0
   59.4130   31.8740   46.5600 C   0  0  0  0  0  0  0  0  0  0  0  0
   59.2010   30.5660   46.7450 N   0  0  0  0  0  0  0  0  0  0  0  0
   58.1960   30.1810   45.9830 C   0  0  0  0  0  0  0  0  0  0  0  0
   57.6020   28.9560   45.8130 C   0  0  0  0  0  0  0  0  0  0  0  0
   58.0350   27.9690   46.4660 N   0  0  0  0  0  0  0  0  0  0  0  0
   59.0290   27.0130   46.1330 C   0  0  0  0  0  0  0  0  0  0  0  0
   58.4600   25.8110   45.4390 C   0  0  0  0  0  0  0  0  0  0  0  0
   57.7930   25.9250   44.2170 C   0  0  0  0  0  0  0  0  0  0  0  0
   57.2630   24.8300   43.5660 C   0  0  0  0  0  0  0  0  0  0  0  0
   57.3760   23.5800   44.1030 C   0  0  0  0  0  0  0  0  0  0  0  0
   56.6510   22.0720   43.2130 Br  0  0  0  0  0  0  0  0  0  0  0  0
   58.0250   23.4300   45.3020 C   0  0  0  0  0  0  0  0  0  0  0  0
   58.5550   24.5400   45.9510 C   0  0  0  0  0  0  0  0  0  0  0  0
   56.5700   28.8220   44.9570 N   0  0  0  0  0  0  0  0  0  0  0  0
   56.1070   29.8940   44.2550 C   0  0  0  0  0  0  0  0  0  0  0  0
   56.7080   31.0920   44.4370 N   0  0  0  0  0  0  0  0  0  0  0  0
   57.7350   31.2630   45.2780 C   0  0  0  0  0  0  0  0  0  0  0  0
   56.7415   34.3199   46.3331 H   0  0  0  0  0  0  0  0  0  0  0  0
   56.9957   35.1858   44.7799 H   0  0  0  0  0  0  0  0  0  0  0  0
   56.3250   33.5194   44.7799 H   0  0  0  0  0  0  0  0  0  0  0  0
   58.7159   33.6225   44.1364 H   0  0  0  0  0  0  0  0  0  0  0  0
   59.1194   34.3635   47.1032 H   0  0  0  0  0  0  0  0  0  0  0  0
   60.3617   34.3418   45.8060 H   0  0  0  0  0  0  0  0  0  0  0  0
   59.0852   35.6056   45.8060 H   0  0  0  0  0  0  0  0  0  0  0  0
   60.1820   32.4866   47.0533 H   0  0  0  0  0  0  0  0  0  0  0  0
   59.7665   27.4875   45.4690 H   0  0  0  0  0  0  0  0  0  0  0  0
   59.4907   26.6703   47.0707 H   0  0  0  0  0  0  0  0  0  0  0  0
   57.6869   26.9195   43.7591 H   0  0  0  0  0  0  0  0  0  0  0  0
   56.7446   24.9655   42.6053 H   0  0  0  0  0  0  0  0  0  0  0  0
   58.1264   22.4308   45.7507 H   0  0  0  0  0  0  0  0  0  0  0  0
   59.0704   24.3944   46.9118 H   0  0  0  0  0  0  0  0  0  0  0  0
   56.1330   27.8810   44.8440 H   0  0  0  0  0  0  0  0  0  0  0  0
   55.2640   29.7877   43.5564 H   0  0  0  0  0  0  0  0  0  0  0  0
  1  2  1  0
  2  3  1  0
  2  4  1  0
  4  5  1  0
  5  6  2  0
  6  7  1  0
  7  8  1  0
  8  9  2  0
  9 10  1  0
 10 11  1  0
 11 12  2  0
 12 13  1  0
 13 14  2  0
 14 15  1  0
 14 16  1  0
 16 17  2  0
  8 18  1  0
 18 19  1  0
 19 20  2  0
 20 21  1  0
 21  4  1  0
 21  7  2  0
 17 11  1  0
  1 22  1  0
  1 23  1  0
  1 24  1  0
  2 25  1  0
  3 26  1  0
  3 27  1  0
  3 28  1  0
  5 29  1  0
 10 30  1  0
 10 31  1  0
 12 32  1  0
 13 33  1  0
 16 34  1  0
 17 35  1  0
 18 36  1  0
 19 37  1  0
M  END
>  <smiles>  (9) 
CC(C)n1cnc2c(=NCc3ccc(Br)cc3)[nH]cnc21

>  <score_type>  (9) 
oracle

>  <origin>  (9) 
adg

>  <m_score__min__energy>  (9) 
-7.3899999999999997

>  <m_primary>  (9) 
energy

$$$$
9:0
     RDKit          3D

 24 24  0  0  0  0  0  0  0  0999 V2000
   55.7058   29.9294   42.5579 H   0  0  0  0  0  0  0  0  0  0  0  0
   56.1820   30.1200   43.5310 C   0  0  0  0  0  0  0  0  0  0  0  0
   55.5550   29.7790   44.6140 N   0  0  0  0  0  0  0  0  0  0  0  0
   55.7750   28.5720   45.2390 O   0  0  0  0  0  0  0  0  0  0  0  0
   57.0750   28.2120   45.6770 C   0  0  0  0  0  0  0  0  0  0  0  0
   56.9986   27.6039   46.5904 H   0  0  0  0  0  0  0  0  0  0  0  0
   57.6550   29.1223   45.8891 H   0  0  0  0  0  0  0  0  0  0  0  0
   57.7730   27.4090   44.5910 C   0  0  0  0  0  0  0  0  0  0  0  0
   58.4273   26.6562   45.0549 H   0  0  0  0  0  0  0  0  0  0  0  0
   57.0205   26.9057   43.9662 H   0  0  0  0  0  0  0  0  0  0  0  0
   58.3762   28.0841   43.9662 H   0  0  0  0  0  0  0  0  0  0  0  0
   57.4770   30.7380   43.5610 N   0  0  0  0  0  0  0  0  0  0  0  0
   58.1590   30.4540   42.8220 H   0  0  0  0  0  0  0  0  0  0  0  0
   57.8540   31.7930   44.4630 C   0  0  0  0  0  0  0  0  0  0  0  0
   58.1680   31.5290   45.8100 C   0  0  0  0  0  0  0  0  0  0  0  0
   58.1362   30.4964   46.1878 H   0  0  0  0  0  0  0  0  0  0  0  0
   58.5200   32.5740   46.6690 C   0  0  0  0  0  0  0  0  0  0  0  0
   58.7756   32.3602   47.7173 H   0  0  0  0  0  0  0  0  0  0  0  0
   58.5480   33.8900   46.1990 C   0  0  0  0  0  0  0  0  0  0  0  0
   58.8880   34.9020   47.0340 F   0  0  0  0  0  0  0  0  0  0  0  0
   58.2140   34.1630   44.8700 C   0  0  0  0  0  0  0  0  0  0  0  0
   58.2278   35.1996   44.5022 H   0  0  0  0  0  0  0  0  0  0  0  0
   57.8620   33.1200   44.0060 C   0  0  0  0  0  0  0  0  0  0  0  0
   57.5902   33.3413   42.9633 H   0  0  0  0  0  0  0  0  0  0  0  0
  1  2  1  0
  2  3  2  0
  3  4  1  0
  4  5  1  0
  5  6  1  0
  5  7  1  0
  5  8  1  0
  8  9  1  0
  8 10  1  0
  8 11  1  0
  2 12  1  0
 12 13  1  0
 12 14  1  0
 14 15  2  0
 15 16  1  0
 15 17  1  0
 17 18  1  0
 17 19  2  0
 19 20  1  0
 19 21  1  0
 21 22  1  0
 21 23  2  0
 23 24  1  0
 23 14  1  0
M  END
>  <UniqueID>  (10) 
9

>  <SMILES>  (10) 
CCO/N=C\Nc1ccc(F)cc1

>  <Energy>  (10) 
20.73631689594355

>  <Genealogy>  (10) 
CCO/N=C\Nc1ccc(F)cc1 (cis-trans isomerization)
CCO/N=C\Nc1ccc(F)cc1 (3D coordinates assigned)
CCO/N=C\Nc1ccc(F)cc1 (optimized conformer: 20.73631689594355 kcal/mol)

>  <smiles>  (10) 
CCON=CNc1ccc(F)cc1

>  <score_type>  (10) 
oracle

>  <origin>  (10) 
adg

>  <m_score__min__energy>  (10) 
-5.5199999999999996

>  <m_primary>  (10) 
energy

$$$$
10:0
     RDKit          3D

 37 39  0  0  0  0  0  0  0  0999 V2000
   65.2580   32.7990   49.3810 C   0  0  0  0  0  0  0  0  0  0  0  0
   63.8010   33.1360   49.2650 C   0  0  0  0  0  0  0  0  0  0  0  0
   63.1790   33.1610   48.0080 C   0  0  0  0  0  0  0  0  0  0  0  0
   61.8300   33.5110   47.8960 C   0  0  0  0  0  0  0  0  0  0  0  0
   61.0860   33.8410   49.0400 C   0  0  0  0  0  0  0  0  0  0  0  0
   59.6350   34.2250   48.9120 C   0  0  0  0  0  0  0  0  0  0  0  0
   59.3670   34.7760   47.6220 O   0  0  0  0  0  0  0  0  0  0  0  0
   58.9320   34.0490   46.5030 C   0  0  0  0  0  0  0  0  0  0  0  0
   59.2910   34.5130   45.2330 C   0  0  0  0  0  0  0  0  0  0  0  0
   58.8950   33.8290   44.0810 C   0  0  0  0  0  0  0  0  0  0  0  0
   58.1210   32.6580   44.1820 C   0  0  0  0  0  0  0  0  0  0  0  0
   57.6930   31.9240   43.0520 C   0  0  0  0  0  0  0  0  0  0  0  0
   58.0390   32.3450   41.6470 C   0  0  0  0  0  0  0  0  0  0  0  0
   56.9250   30.7690   43.2520 C   0  0  0  0  0  0  0  0  0  0  0  0
   56.6020   30.3750   44.5530 C   0  0  0  0  0  0  0  0  0  0  0  0
   55.9130   29.3400   44.7430 O   0  0  0  0  0  0  0  0  0  0  0  0
   57.0190   31.0850   45.5940 O   0  0  0  0  0  0  0  0  0  0  0  0
   57.7520   32.1880   45.4650 C   0  0  0  0  0  0  0  0  0  0  0  0
   58.1530   32.8820   46.6110 C   0  0  0  0  0  0  0  0  0  0  0  0
   61.7170   33.8460   50.2930 C   0  0  0  0  0  0  0  0  0  0  0  0
   63.0670   33.4970   50.4040 C   0  0  0  0  0  0  0  0  0  0  0  0
   65.5360   32.7347   50.4433 H   0  0  0  0  0  0  0  0  0  0  0  0
   65.4508   31.8325   48.8924 H   0  0  0  0  0  0  0  0  0  0  0  0
   65.8556   33.5826   48.8924 H   0  0  0  0  0  0  0  0  0  0  0  0
   63.7549   32.9042   47.1067 H   0  0  0  0  0  0  0  0  0  0  0  0
   61.3493   33.5279   46.9068 H   0  0  0  0  0  0  0  0  0  0  0  0
   59.0113   33.3309   49.0587 H   0  0  0  0  0  0  0  0  0  0  0  0
   59.4030   34.9836   49.6740 H   0  0  0  0  0  0  0  0  0  0  0  0
   59.8932   35.4288   45.1402 H   0  0  0  0  0  0  0  0  0  0  0  0
   59.1894   34.2073   43.0909 H   0  0  0  0  0  0  0  0  0  0  0  0
   58.7371   33.1944   41.6802 H   0  0  0  0  0  0  0  0  0  0  0  0
   58.5101   31.5037   41.1176 H   0  0  0  0  0  0  0  0  0  0  0  0
   57.1223   32.6442   41.1176 H   0  0  0  0  0  0  0  0  0  0  0  0
   56.5792   30.1773   42.3916 H   0  0  0  0  0  0  0  0  0  0  0  0
   57.8573   32.5130   47.6042 H   0  0  0  0  0  0  0  0  0  0  0  0
   61.1478   34.1255   51.1918 H   0  0  0  0  0  0  0  0  0  0  0  0
   63.5553   33.5058   51.3897 H   0  0  0  0  0  0  0  0  0  0  0  0
  1  2  1  0
  2  3  2  0
  3  4  1  0
  4  5  2  0
  5  6  1  0
  6  7  1  0
  7  8  1  0
  8  9  2  0
  9 10  1  0
 10 11  2  0
 11 12  1  0
 12 13  1  0
 12 14  2  0
 14 15  1  0
 15 16  2  0
 15 17  1  0
 17 18  1  0
 18 19  2  0
  5 20  1  0
 20 21  2  0
 21  2  1  0
 19  8  1  0
 18 11  1  0
  1 22  1  0
  1 23  1  0
  1 24  1  0
  3 25  1  0
  4 26  1  0
  6 27  1  0
  6 28  1  0
  9 29  1  0
 10 30  1  0
 13 31  1  0
 13 32  1  0
 13 33  1  0
 14 34  1  0
 19 35  1  0
 20 36  1  0
 21 37  1  0
M  END
>  <UniqueID>  (11) 
10

>  <SMILES>  (11) 
Cc1ccc(COc2ccc3c(C)cc(=O)oc3c2)cc1

>  <Energy>  (11) 
43.619694800711045

>  <Genealogy>  (11) 
Cc1ccc(COc2ccc3c(C)cc(=O)oc3c2)cc1 (3D coordinates assigned)
Cc1ccc(COc2ccc3c(C)cc(=O)oc3c2)cc1 (optimized conformer: 43.619694800711045 kcal/mol)

>  <smiles>  (11) 
Cc1ccc(COc2ccc3c(C)cc(=O)oc3c2)cc1

>  <score_type>  (11) 
oracle

>  <origin>  (11) 
adg

>  <m_score__min__energy>  (11) 
-8.2599999999999998

>  <m_primary>  (11) 
energy

$$$$
11:0
     RDKit          3D

 28 28  0  0  0  0  0  0  0  0999 V2000
   56.5920   26.2870   46.2740 C   0  0  0  0  0  0  0  0  0  0  0  0
   57.0520   27.6150   45.6870 C   0  0  0  0  0  0  0  0  0  0  0  0
   55.8980   28.3970   45.2410 N   0  0  0  0  0  0  0  0  0  0  0  0
   56.3890   29.7400   44.2490 S   0  0  0  0  0  0  0  0  0  0  0  0
   56.2520   29.3510   42.8040 O   0  0  0  0  0  0  0  0  0  0  0  0
   55.5140   30.9330   44.5160 O   0  0  0  0  0  0  0  0  0  0  0  0
   58.0910   30.1710   44.5770 C   0  0  0  0  0  0  0  0  0  0  0  0
   58.1860   31.5850   45.0750 C   0  0  0  0  0  0  0  0  0  0  0  0
   57.9010   32.6580   44.2160 C   0  0  0  0  0  0  0  0  0  0  0  0
   58.0340   33.9740   44.6650 C   0  0  0  0  0  0  0  0  0  0  0  0
   58.4530   34.2310   45.9730 C   0  0  0  0  0  0  0  0  0  0  0  0
   58.7320   33.1680   46.8460 C   0  0  0  0  0  0  0  0  0  0  0  0
   59.2290   33.4420   48.2350 C   0  0  0  0  0  0  0  0  0  0  0  0
   58.6140   31.8480   46.3880 C   0  0  0  0  0  0  0  0  0  0  0  0
   56.6121   26.3450   47.3723 H   0  0  0  0  0  0  0  0  0  0  0  0
   55.5672   26.0724   45.9368 H   0  0  0  0  0  0  0  0  0  0  0  0
   57.2645   25.4845   45.9368 H   0  0  0  0  0  0  0  0  0  0  0  0
   57.6000   28.1812   46.4545 H   0  0  0  0  0  0  0  0  0  0  0  0
   57.7074   27.4190   44.8256 H   0  0  0  0  0  0  0  0  0  0  0  0
   58.4969   29.4900   45.3396 H   0  0  0  0  0  0  0  0  0  0  0  0
   58.6680   30.0813   43.6448 H   0  0  0  0  0  0  0  0  0  0  0  0
   57.5716   32.4617   43.1850 H   0  0  0  0  0  0  0  0  0  0  0  0
   57.8083   34.8103   43.9870 H   0  0  0  0  0  0  0  0  0  0  0  0
   58.5645   35.2691   46.3194 H   0  0  0  0  0  0  0  0  0  0  0  0
   58.5097   33.0454   48.9667 H   0  0  0  0  0  0  0  0  0  0  0  0
   60.2044   32.9542   48.3783 H   0  0  0  0  0  0  0  0  0  0  0  0
   59.3372   34.5272   48.3783 H   0  0  0  0  0  0  0  0  0  0  0  0
   58.8580   31.0125   47.0607 H   0  0  0  0  0  0  0  0  0  0  0  0
  1  2  1  0
  2  3  1  0
  3  4  1  0
  4  5  2  0
  4  6  2  0
  4  7  1  0
  7  8  1  0
  8  9  2  0
  9 10  1  0
 10 11  2  0
 11 12  1  0
 12 13  1  0
 12 14  2  0
 14  8  1  0
  1 15  1  0
  1 16  1  0
  1 17  1  0
  2 18  1  0
  2 19  1  0
  7 20  1  0
  7 21  1  0
  9 22  1  0
 10 23  1  0
 11 24  1  0
 13 25  1  0
 13 26  1  0
 13 27  1  0
 14 28  1  0
M  CHG  1   3  -1
M  END
>  <UniqueID>  (12) 
11

>  <SMILES>  (12) 
CC[N-]S(=O)(=O)Cc1cccc(C)c1

>  <Energy>  (12) 
16.31488873398076

>  <Genealogy>  (12) 
CC[N-]S(=O)(=O)Cc1cccc(C)c1 (protonated)
CC[N-]S(=O)(=O)Cc1cccc(C)c1 (3D coordinates assigned)
CC[N-]S(=O)(=O)Cc1cccc(C)c1 (optimized conformer: 16.31488873398076 kcal/mol)

>  <smiles>  (12) 
CCNS(=O)(=O)Cc1cccc(C)c1

>  <score_type>  (12) 
oracle

>  <origin>  (12) 
adg

>  <m_score__min__energy>  (12) 
-7.9800000000000004

>  <m_primary>  (12) 
energy

$$$$
12:0
     RDKit          3D

 47 47  0  0  0  0  0  0  0  0999 V2000
   59.9660   29.5050   48.4860 C   0  0  0  0  0  0  0  0  0  0  0  0
   59.2740   30.7830   48.0000 C   0  0  0  0  0  0  0  0  0  0  0  0
   59.3110   30.9150   46.5280 N   0  0  0  0  0  0  0  0  0  0  0  0
   59.7960   29.6990   45.8480 C   0  0  0  0  0  0  0  0  0  0  0  0
   58.9920   29.3860   44.5690 C   0  0  0  0  0  0  0  0  0  0  0  0
   57.5010   29.2210   44.8710 C   0  0  0  0  0  0  0  0  0  0  0  0
   56.8750   30.4890   44.8830 O   0  0  0  0  0  0  0  0  0  0  0  0
   57.0100   31.1280   43.6270 C   0  0  0  0  0  0  0  0  0  0  0  0
   57.8320   32.4090   43.7830 C   0  0  0  0  0  0  0  0  0  0  0  0
   57.4000   33.2010   45.0240 C   0  0  0  0  0  0  0  0  0  0  0  0
   58.4680   33.2830   45.9500 O   0  0  0  0  0  0  0  0  0  0  0  0
   59.5560   33.9920   45.3920 C   0  0  0  0  0  0  0  0  0  0  0  0
   60.0520   35.0190   46.4070 C   0  0  0  0  0  0  0  0  0  0  0  0
   60.5160   34.3460   47.6780 C   0  0  0  0  0  0  0  0  0  0  0  0
   59.6290   34.2530   48.7680 C   0  0  0  0  0  0  0  0  0  0  0  0
   60.0230   33.6200   49.9490 C   0  0  0  0  0  0  0  0  0  0  0  0
   61.3040   33.0750   50.0590 C   0  0  0  0  0  0  0  0  0  0  0  0
   62.1910   33.1500   48.9820 C   0  0  0  0  0  0  0  0  0  0  0  0
   61.8070   33.7830   47.7920 C   0  0  0  0  0  0  0  0  0  0  0  0
   62.9700   33.8400   46.4690 Cl  0  0  0  0  0  0  0  0  0  0  0  0
   59.9750   29.4884   49.5858 H   0  0  0  0  0  0  0  0  0  0  0  0
   59.4201   28.6269   48.1105 H   0  0  0  0  0  0  0  0  0  0  0  0
   60.9997   29.4822   48.1105 H   0  0  0  0  0  0  0  0  0  0  0  0
   58.2240   30.7633   48.3273 H   0  0  0  0  0  0  0  0  0  0  0  0
   59.8119   31.6413   48.4288 H   0  0  0  0  0  0  0  0  0  0  0  0
   58.3510   31.1400   46.1730 H   0  0  0  0  0  0  0  0  0  0  0  0
   59.9220   31.7280   46.2750 H   0  0  0  0  0  0  0  0  0  0  0  0
   60.8522   29.8426   45.5761 H   0  0  0  0  0  0  0  0  0  0  0  0
   59.6720   28.8531   46.5401 H   0  0  0  0  0  0  0  0  0  0  0  0
   59.1227   30.2113   43.8536 H   0  0  0  0  0  0  0  0  0  0  0  0
   59.3659   28.4408   44.1486 H   0  0  0  0  0  0  0  0  0  0  0  0
   57.0383   28.5919   44.0964 H   0  0  0  0  0  0  0  0  0  0  0  0
   57.3787   28.7445   45.8549 H   0  0  0  0  0  0  0  0  0  0  0  0
   57.5190   30.4506   42.9255 H   0  0  0  0  0  0  0  0  0  0  0  0
   56.0123   31.3816   43.2394 H   0  0  0  0  0  0  0  0  0  0  0  0
   58.8950   32.1431   43.8798 H   0  0  0  0  0  0  0  0  0  0  0  0
   57.6673   33.0375   42.8954 H   0  0  0  0  0  0  0  0  0  0  0  0
   57.1030   34.2161   44.7216 H   0  0  0  0  0  0  0  0  0  0  0  0
   56.5520   32.6867   45.4999 H   0  0  0  0  0  0  0  0  0  0  0  0
   60.3681   33.2907   45.1498 H   0  0  0  0  0  0  0  0  0  0  0  0
   59.2346   34.5030   44.4725 H   0  0  0  0  0  0  0  0  0  0  0  0
   60.8914   35.5797   45.9701 H   0  0  0  0  0  0  0  0  0  0  0  0
   59.2214   35.6969   46.6532 H   0  0  0  0  0  0  0  0  0  0  0  0
   58.6191   34.6818   48.6887 H   0  0  0  0  0  0  0  0  0  0  0  0
   59.3227   33.5506   50.7944 H   0  0  0  0  0  0  0  0  0  0  0  0
   61.6150   32.5863   50.9941 H   0  0  0  0  0  0  0  0  0  0  0  0
   63.1955   32.7101   49.0685 H   0  0  0  0  0  0  0  0  0  0  0  0
  1  2  1  0
  2  3  1  0
  3  4  1  0
  4  5  1  0
  5  6  1  0
  6  7  1  0
  7  8  1  0
  8  9  1  0
  9 10  1  0
 10 11  1  0
 11 12  1  0
 12 13  1  0
 13 14  1  0
 14 15  2  0
 15 16  1  0
 16 17  2  0
 17 18  1  0
 18 19  2  0
 19 20  1  0
 19 14  1  0
  1 21  1  0
  1 22  1  0
  1 23  1  0
  2 24  1  0
  2 25  1  0
  3 26  1  0
  3 27  1  0
  4 28  1  0
  4 29  1  0
  5 30  1  0
  5 31  1  0
  6 32  1  0
  6 33  1  0
  8 34  1  0
  8 35  1  0
  9 36  1  0
  9 37  1  0
 10 38  1  0
 10 39  1  0
 12 40  1  0
 12 41  1  0
 13 42  1  0
 13 43  1  0
 15 44  1  0
 16 45  1  0
 17 46  1  0
 18 47  1  0
M  CHG  1   3   1
M  END
>  <UniqueID>  (13) 
12

>  <SMILES>  (13) 
CC[NH2+]CCCOCCCOCCc1ccccc1Cl

>  <Energy>  (13) 
39.32926090267381

>  <Genealogy>  (13) 
CC[NH2+]CCCOCCCOCCc1ccccc1Cl (protonated)
CC[NH2+]CCCOCCCOCCc1ccccc1Cl (3D coordinates assigned)
CC[NH2+]CCCOCCCOCCc1ccccc1Cl (optimized conformer: 39.32926090267381 kcal/mol)

>  <smiles>  (13) 
CCNCCCOCCCOCCc1ccccc1Cl

>  <score_type>  (13) 
oracle

>  <origin>  (13) 
adg

>  <m_score__min__energy>  (13) 
-3.6699999999999999

>  <m_primary>  (13) 
energy

$$$$
13:0
     RDKit          3D

 43 45  0  0  0  0  0  0  0  0999 V2000
   57.8340   27.0910   42.9750 C   0  0  0  0  0  0  0  0  0  0  0  0
   57.6960   28.4850   43.5130 C   0  0  0  0  0  0  0  0  0  0  0  0
   56.7270   29.3530   42.9860 C   0  0  0  0  0  0  0  0  0  0  0  0
   56.6220   30.6630   43.4600 C   0  0  0  0  0  0  0  0  0  0  0  0
   57.4930   31.1290   44.4590 C   0  0  0  0  0  0  0  0  0  0  0  0
   57.3870   32.5530   44.9560 C   0  0  0  0  0  0  0  0  0  0  0  0
   58.4970   32.9070   45.8740 N   0  0  0  0  0  0  0  0  0  0  0  0
   59.2770   34.0390   45.3050 C   0  0  0  0  0  0  0  0  0  0  0  0
   60.1160   34.7980   46.3570 C   0  0  0  0  0  0  0  0  0  0  0  0
   60.3310   33.9720   47.5500 N   0  0  0  0  0  0  0  0  0  0  0  0
   61.6470   33.8160   48.1160 C   0  0  0  0  0  0  0  0  0  0  0  0
   62.7080   33.3310   47.3300 C   0  0  0  0  0  0  0  0  0  0  0  0
   63.9810   33.1660   47.8850 C   0  0  0  0  0  0  0  0  0  0  0  0
   64.2070   33.4790   49.2280 C   0  0  0  0  0  0  0  0  0  0  0  0
   65.4420   33.3180   49.7620 F   0  0  0  0  0  0  0  0  0  0  0  0
   63.1580   33.9520   50.0190 C   0  0  0  0  0  0  0  0  0  0  0  0
   61.8830   34.1170   49.4700 C   0  0  0  0  0  0  0  0  0  0  0  0
   59.1670   33.3720   48.2100 C   0  0  0  0  0  0  0  0  0  0  0  0
   57.9930   33.2370   47.2260 C   0  0  0  0  0  0  0  0  0  0  0  0
   58.4740   30.2650   44.9710 C   0  0  0  0  0  0  0  0  0  0  0  0
   58.5780   28.9540   44.4970 C   0  0  0  0  0  0  0  0  0  0  0  0
   57.9044   26.3804   43.8117 H   0  0  0  0  0  0  0  0  0  0  0  0
   56.9556   26.8469   42.3595 H   0  0  0  0  0  0  0  0  0  0  0  0
   58.7432   27.0239   42.3595 H   0  0  0  0  0  0  0  0  0  0  0  0
   56.0473   29.0003   42.1963 H   0  0  0  0  0  0  0  0  0  0  0  0
   55.8530   31.3334   43.0487 H   0  0  0  0  0  0  0  0  0  0  0  0
   57.4107   33.2331   44.0918 H   0  0  0  0  0  0  0  0  0  0  0  0
   56.4431   32.6484   45.5128 H   0  0  0  0  0  0  0  0  0  0  0  0
   59.1420   32.0830   45.9470 H   0  0  0  0  0  0  0  0  0  0  0  0
   59.9573   33.6422   44.5371 H   0  0  0  0  0  0  0  0  0  0  0  0
   58.5528   34.7553   44.8899 H   0  0  0  0  0  0  0  0  0  0  0  0
   61.0908   35.0597   45.9197 H   0  0  0  0  0  0  0  0  0  0  0  0
   59.5710   35.7067   46.6522 H   0  0  0  0  0  0  0  0  0  0  0  0
   62.5354   33.0801   46.2730 H   0  0  0  0  0  0  0  0  0  0  0  0
   64.8062   32.7890   47.2630 H   0  0  0  0  0  0  0  0  0  0  0  0
   63.3354   34.1954   51.0770 H   0  0  0  0  0  0  0  0  0  0  0  0
   61.0596   34.4842   50.1002 H   0  0  0  0  0  0  0  0  0  0  0  0
   59.4394   32.3748   48.5859 H   0  0  0  0  0  0  0  0  0  0  0  0
   58.8581   34.0224   49.0416 H   0  0  0  0  0  0  0  0  0  0  0  0
   57.3211   32.4365   47.5691 H   0  0  0  0  0  0  0  0  0  0  0  0
   57.4476   34.1913   47.1836 H   0  0  0  0  0  0  0  0  0  0  0  0
   59.1646   30.6216   45.7494 H   0  0  0  0  0  0  0  0  0  0  0  0
   59.3555   28.2871   44.8979 H   0  0  0  0  0  0  0  0  0  0  0  0
  1  2  1  0
  2  3  2  0
  3  4  1  0
  4  5  2  0
  5  6  1  0
  6  7  1  0
  7  8  1  0
  8  9  1  0
  9 10  1  0
 10 11  1  0
 11 12  2  0
 12 13  1  0
 13 14  2  0
 14 15  1  0
 14 16  1  0
 16 17  2  0
 10 18  1  0
 18 19  1  0
  5 20  1  0
 20 21  2  0
 21  2  1  0
 19  7  1  0
 17 11  1  0
  1 22  1  0
  1 23  1  0
  1 24  1  0
  3 25  1  0
  4 26  1  0
  6 27  1  0
  6 28  1  0
  7 29  1  0
  8 30  1  0
  8 31  1  0
  9 32  1  0
  9 33  1  0
 12 34  1  0
 13 35  1  0
 16 36  1  0
 17 37  1  0
 18 38  1  0
 18 39  1  0
 19 40  1  0
 19 41  1  0
 20 42  1  0
 21 43  1  0
M  CHG  1   7   1
M  END
>  <UniqueID>  (14) 
13

>  <SMILES>  (14) 
Cc1ccc(C[NH+]2CCN(c3ccc(F)cc3)CC2)cc1

>  <Energy>  (14) 
54.628158365062745

>  <Genealogy>  (14) 
Cc1ccc(C[NH+]2CCN(c3ccc(F)cc3)CC2)cc1 (protonated)
Cc1ccc(C[NH+]2CCN(c3ccc(F)cc3)CC2)cc1 (3D coordinates assigned)
Cc1ccc(C[NH+]2CCN(c3ccc(F)cc3)CC2)cc1 (nonaromatic ring conformer: 54.628158365062745 kcal/mol)

>  <smiles>  (14) 
Cc1ccc(CN2CCN(c3ccc(F)cc3)CC2)cc1

>  <score_type>  (14) 
oracle

>  <origin>  (14) 
adg

>  <m_score__min__energy>  (14) 
-5.6699999999999999

>  <m_primary>  (14) 
energy

$$$$
14:0
     RDKit          3D

 23 22  0  0  0  0  0  0  0  0999 V2000
   58.1560   27.0890   42.9460 C   0  0  0  0  0  0  0  0  0  0  0  0
   57.7730   27.9610   44.1520 C   0  0  0  0  0  0  0  0  0  0  0  0
   58.2410   29.3720   44.0680 N   0  0  0  0  0  0  0  0  0  0  0  0
   59.1510   29.7010   45.1970 C   0  0  0  0  0  0  0  0  0  0  0  0
   60.4630   28.9070   45.1480 C   0  0  0  0  0  0  0  0  0  0  0  0
   57.1300   30.3580   43.9730 C   0  0  0  0  0  0  0  0  0  0  0  0
   55.7680   29.7160   43.6690 C   0  0  0  0  0  0  0  0  0  0  0  0
   55.1760   29.2470   44.8290 F   0  0  0  0  0  0  0  0  0  0  0  0
   58.5747   26.1358   43.3010 H   0  0  0  0  0  0  0  0  0  0  0  0
   57.2614   26.8924   42.3369 H   0  0  0  0  0  0  0  0  0  0  0  0
   58.9061   27.6147   42.3369 H   0  0  0  0  0  0  0  0  0  0  0  0
   56.6763   27.9674   44.2367 H   0  0  0  0  0  0  0  0  0  0  0  0
   58.2699   27.5185   45.0280 H   0  0  0  0  0  0  0  0  0  0  0  0
   58.7950   29.4360   43.1800 H   0  0  0  0  0  0  0  0  0  0  0  0
   59.3873   30.7746   45.1577 H   0  0  0  0  0  0  0  0  0  0  0  0
   58.6342   29.4332   46.1304 H   0  0  0  0  0  0  0  0  0  0  0  0
   60.8049   28.7001   46.1729 H   0  0  0  0  0  0  0  0  0  0  0  0
   60.2974   27.9574   44.6180 H   0  0  0  0  0  0  0  0  0  0  0  0
   61.2274   29.4942   44.6180 H   0  0  0  0  0  0  0  0  0  0  0  0
   57.0567   30.8939   44.9308 H   0  0  0  0  0  0  0  0  0  0  0  0
   57.3650   31.0320   43.1360 H   0  0  0  0  0  0  0  0  0  0  0  0
   55.1105   30.4669   43.2067 H   0  0  0  0  0  0  0  0  0  0  0  0
   55.9223   28.8689   42.9844 H   0  0  0  0  0  0  0  0  0  0  0  0
  1  2  1  0
  2  3  1  0
  3  4  1  0
  4  5  1  0
  3  6  1  0
  6  7  1  0
  7  8  1  0
  1  9  1  0
  1 10  1  0
  1 11  1  0
  2 12  1  0
  2 13  1  0
  3 14  1  0
  4 15  1  0
  4 16  1  0
  5 17  1  0
  5 18  1  0
  5 19  1  0
  6 20  1  0
  6 21  1  0
  7 22  1  0
  7 23  1  0
M  CHG  1   3   1
M  END
>  <UniqueID>  (15) 
14

>  <SMILES>  (15) 
CC[NH+](CC)CCF

>  <Energy>  (15) 
20.527310175637115

>  <Genealogy>  (15) 
CC[NH+](CC)CCF (protonated)
CC[NH+](CC)CCF (3D coordinates assigned)
CC[NH+](CC)CCF (optimized conformer: 20.527310175637115 kcal/mol)

>  <smiles>  (15) 
CCN(CC)CCF

>  <score_type>  (15) 
oracle

>  <origin>  (15) 
adg

>  <m_score__min__energy>  (15) 
-1.75

>  <m_primary>  (15) 
energy

$$$$
15:0
     RDKit          3D

 40 41  0  0  0  0  0  0  0  0999 V2000
   59.0273   35.8135   46.5815 H   0  0  0  0  0  0  0  0  0  0  0  0
   59.3940   34.7770   46.6170 C   0  0  0  0  0  0  0  0  0  0  0  0
   60.7560   34.5250   46.7990 C   0  0  0  0  0  0  0  0  0  0  0  0
   61.4596   35.3636   46.9072 H   0  0  0  0  0  0  0  0  0  0  0  0
   61.2270   33.2090   46.8440 C   0  0  0  0  0  0  0  0  0  0  0  0
   62.2983   33.0161   47.0022 H   0  0  0  0  0  0  0  0  0  0  0  0
   60.3380   32.1320   46.6880 C   0  0  0  0  0  0  0  0  0  0  0  0
   58.9620   32.3930   46.5230 C   0  0  0  0  0  0  0  0  0  0  0  0
   58.4970   33.7150   46.4800 C   0  0  0  0  0  0  0  0  0  0  0  0
   57.4249   33.9161   46.3383 H   0  0  0  0  0  0  0  0  0  0  0  0
   58.0480   31.2980   46.3680 N   0  0  0  0  0  0  0  0  0  0  0  0
   57.0200   31.4860   46.3530 H   0  0  0  0  0  0  0  0  0  0  0  0
   58.5190   29.9140   46.4350 C   0  0  1  0  0  0  0  0  0  0  0  0
   58.4304   29.5556   47.4712 H   0  0  0  0  0  0  0  0  0  0  0  0
   57.6710   29.0340   45.5510 C   0  0  0  0  0  0  0  0  0  0  0  0
   56.4860   29.4420   45.2050 N   0  0  0  0  0  0  0  0  0  0  0  0
   56.2830   30.6200   44.5200 O   0  0  0  0  0  0  0  0  0  0  0  0
   56.6720   30.7360   43.1620 C   0  0  0  0  0  0  0  0  0  0  0  0
   57.0407   29.7641   42.8022 H   0  0  0  0  0  0  0  0  0  0  0  0
   55.8063   31.0469   42.5587 H   0  0  0  0  0  0  0  0  0  0  0  0
   57.7750   31.7740   43.0360 C   0  0  0  0  0  0  0  0  0  0  0  0
   58.1037   32.0833   44.0391 H   0  0  0  0  0  0  0  0  0  0  0  0
   58.6253   31.3409   42.4888 H   0  0  0  0  0  0  0  0  0  0  0  0
   57.3943   32.6490   42.4888 H   0  0  0  0  0  0  0  0  0  0  0  0
   58.1790   27.6680   45.1480 C   0  0  0  0  0  0  0  0  0  0  0  0
   57.5277   26.9010   45.5924 H   0  0  0  0  0  0  0  0  0  0  0  0
   59.2130   27.5683   45.5099 H   0  0  0  0  0  0  0  0  0  0  0  0
   58.1890   27.4880   43.6240 C   0  0  0  0  0  0  0  0  0  0  0  0
   59.2059   27.6829   43.2527 H   0  0  0  0  0  0  0  0  0  0  0  0
   57.4605   28.1946   43.1997 H   0  0  0  0  0  0  0  0  0  0  0  0
   57.7730   26.0810   43.1970 C   0  0  0  0  0  0  0  0  0  0  0  0
   57.5910   25.4655   44.0903 H   0  0  0  0  0  0  0  0  0  0  0  0
   56.8530   26.1370   42.5966 H   0  0  0  0  0  0  0  0  0  0  0  0
   58.5755   25.6277   42.5966 H   0  0  0  0  0  0  0  0  0  0  0  0
   60.0010   29.8370   46.0170 C   0  0  0  0  0  0  0  0  0  0  0  0
   60.3685   28.8129   46.1786 H   0  0  0  0  0  0  0  0  0  0  0  0
   60.0821   30.1099   44.9545 H   0  0  0  0  0  0  0  0  0  0  0  0
   60.8170   30.7730   46.8080 N   0  0  0  0  0  0  0  0  0  0  0  0
   60.7910   30.4960   47.8170 H   0  0  0  0  0  0  0  0  0  0  0  0
   61.8050   30.7120   46.4690 H   0  0  0  0  0  0  0  0  0  0  0  0
  1  2  1  0
  2  3  2  0
  3  4  1  0
  3  5  1  0
  5  6  1  0
  5  7  2  0
  7  8  1  0
  8  9  2  0
  9 10  1  0
  8 11  1  0
 11 12  1  0
 11 13  1  0
 13 14  1  1
 13 15  1  0
 15 16  2  0
 16 17  1  0
 17 18  1  0
 18 19  1  0
 18 20  1  0
 18 21  1  0
 21 22  1  0
 21 23  1  0
 21 24  1  0
 15 25  1  0
 25 26  1  0
 25 27  1  0
 25 28  1  0
 28 29  1  0
 28 30  1  0
 28 31  1  0
 31 32  1  0
 31 33  1  0
 31 34  1  0
 13 35  1  0
 35 36  1  0
 35 37  1  0
 35 38  1  0
 38 39  1  0
 38 40  1  0
  9  2  1  0
 38  7  1  0
M  CHG  1  38   1
M  END
>  <UniqueID>  (16) 
15

>  <SMILES>  (16) 
CCC/C(=N\OCC)[C@H]1C[NH2+]c2ccccc2N1

>  <Energy>  (16) 
28.14150540771335

>  <Genealogy>  (16) 
CCCC(=NOCC)C1C[NH2+]c2ccccc2N1 (protonated)
CCCC(=NOCC)[C@H]1C[NH2+]c2ccccc2N1 (chirality)
CCC/C(=N\OCC)[C@H]1C[NH2+]c2ccccc2N1 (cis-trans isomerization)
CCC/C(=N\OCC)[C@H]1C[NH2+]c2ccccc2N1 (3D coordinates assigned)
CCC/C(=N\OCC)[C@H]1C[NH2+]c2ccccc2N1 (nonaromatic ring conformer: 28.14150540771335 kcal/mol)

>  <smiles>  (16) 
CCCC(=NOCC)C1CNc2ccccc2N1

>  <score_type>  (16) 
oracle

>  <origin>  (16) 
adg

>  <m_score__min__energy>  (16) 
-4.8099999999999996

>  <m_primary>  (16) 
energy

$$$$
16:0
     RDKit          3D

 64 68  0  0  0  0  0  0  0  0999 V2000
   59.4640   29.7480   44.4830 C   0  0  0  0  0  0  0  0  0  0  0  0
   58.0030   29.7400   44.4160 N   0  0  0  0  0  0  0  0  0  0  0  0
   57.1950   30.7940   44.1800 C   0  0  0  0  0  0  0  0  0  0  0  0
   57.7390   32.4120   43.6150 S   0  0  0  0  0  0  0  0  0  0  0  0
   58.7540   32.8130   45.0880 C   0  0  0  0  0  0  0  0  0  0  0  0
   58.3560   34.1700   45.6960 C   0  0  0  0  0  0  0  0  0  0  0  0
   58.9430   34.3870   47.0980 C   0  0  0  0  0  0  0  0  0  0  0  0
   59.9620   33.3640   47.4040 N   0  0  0  0  0  0  0  0  0  0  0  0
   59.3930   32.1650   48.1540 C   0  0  0  0  0  0  0  0  0  0  0  0
   59.6470   32.1490   49.7220 C   0  0  1  0  0  0  0  0  0  0  0  0
   60.3440   30.8590   50.3230 C   0  0  0  0  0  0  0  0  0  0  0  0
   61.7420   30.6660   50.0210 O   0  0  0  0  0  0  0  0  0  0  0  0
   62.6420   31.5490   50.7210 C   0  0  0  0  0  0  0  0  0  0  0  0
   62.9820   32.8670   49.8840 C   0  0  0  0  0  0  0  0  0  0  0  0
   64.1720   32.6300   48.9370 C   0  0  0  0  0  0  0  0  0  0  0  0
   65.4220   32.9460   49.7480 C   0  0  0  0  0  0  0  0  0  0  0  0
   64.9760   33.8120   50.9240 C   0  0  0  0  0  0  0  0  0  0  0  0
   63.4700   34.0070   50.7830 C   0  0  0  0  0  0  0  0  0  0  0  0
   61.6900   33.2250   49.1320 C   0  0  1  0  0  0  0  0  0  0  0  0
   60.4880   33.3320   50.0880 C   0  0  0  0  0  0  0  0  0  0  0  0
   61.2790   33.9510   47.8700 C   0  0  0  0  0  0  0  0  0  0  0  0
   55.9050   30.4940   44.4210 N   0  0  0  0  0  0  0  0  0  0  0  0
   55.8740   29.2430   44.8550 N   0  0  0  0  0  0  0  0  0  0  0  0
   57.1440   28.7940   44.8570 C   0  0  0  0  0  0  0  0  0  0  0  0
   57.5150   27.4560   45.3500 C   0  0  0  0  0  0  0  0  0  0  0  0
   57.7400   26.3960   44.4560 C   0  0  0  0  0  0  0  0  0  0  0  0
   58.0660   25.1240   44.9410 C   0  0  0  0  0  0  0  0  0  0  0  0
   58.1560   24.9010   46.3170 C   0  0  0  0  0  0  0  0  0  0  0  0
   57.9130   25.9470   47.2130 C   0  0  0  0  0  0  0  0  0  0  0  0
   57.5860   27.2180   46.7320 C   0  0  0  0  0  0  0  0  0  0  0  0
   59.7828   29.7497   45.5358 H   0  0  0  0  0  0  0  0  0  0  0  0
   59.8590   28.8520   43.9818 H   0  0  0  0  0  0  0  0  0  0  0  0
   59.8491   30.6483   43.9818 H   0  0  0  0  0  0  0  0  0  0  0  0
   58.6120   32.0271   45.8445 H   0  0  0  0  0  0  0  0  0  0  0  0
   59.8071   32.8707   44.7757 H   0  0  0  0  0  0  0  0  0  0  0  0
   58.7181   34.9713   45.0351 H   0  0  0  0  0  0  0  0  0  0  0  0
   57.2600   34.1833   45.7893 H   0  0  0  0  0  0  0  0  0  0  0  0
   59.4070   35.3833   47.1444 H   0  0  0  0  0  0  0  0  0  0  0  0
   58.1313   34.3077   47.8361 H   0  0  0  0  0  0  0  0  0  0  0  0
   58.3058   32.1473   47.9876 H   0  0  0  0  0  0  0  0  0  0  0  0
   59.9198   31.2851   47.7561 H   0  0  0  0  0  0  0  0  0  0  0  0
   58.6372   32.1654   50.1578 H   0  0  0  0  0  0  0  0  0  0  0  0
   60.2452   30.9085   51.4174 H   0  0  0  0  0  0  0  0  0  0  0  0
   59.8304   30.0104   49.8475 H   0  0  0  0  0  0  0  0  0  0  0  0
   62.1760   31.8458   51.6722 H   0  0  0  0  0  0  0  0  0  0  0  0
   63.5840   31.0048   50.8840 H   0  0  0  0  0  0  0  0  0  0  0  0
   64.1896   31.5832   48.5996 H   0  0  0  0  0  0  0  0  0  0  0  0
   64.1041   33.2607   48.0383 H   0  0  0  0  0  0  0  0  0  0  0  0
   65.8808   32.0160   50.1148 H   0  0  0  0  0  0  0  0  0  0  0  0
   66.1701   33.4685   49.1337 H   0  0  0  0  0  0  0  0  0  0  0  0
   65.2049   33.3071   51.8741 H   0  0  0  0  0  0  0  0  0  0  0  0
   65.5005   34.7789   50.9228 H   0  0  0  0  0  0  0  0  0  0  0  0
   62.9832   33.9529   51.7679 H   0  0  0  0  0  0  0  0  0  0  0  0
   63.2283   34.9910   50.3549 H   0  0  0  0  0  0  0  0  0  0  0  0
   62.1856   32.4848   48.4866 H   0  0  0  0  0  0  0  0  0  0  0  0
   60.8132   33.2742   51.1372 H   0  0  0  0  0  0  0  0  0  0  0  0
   59.9495   34.2867   49.9955 H   0  0  0  0  0  0  0  0  0  0  0  0
   61.1570   35.0241   48.0788 H   0  0  0  0  0  0  0  0  0  0  0  0
   62.0479   33.8335   47.0922 H   0  0  0  0  0  0  0  0  0  0  0  0
   57.6598   26.5660   43.3722 H   0  0  0  0  0  0  0  0  0  0  0  0
   58.2516   24.2989   44.2376 H   0  0  0  0  0  0  0  0  0  0  0  0
   58.4181   23.9022   46.6960 H   0  0  0  0  0  0  0  0  0  0  0  0
   57.9792   25.7694   48.2965 H   0  0  0  0  0  0  0  0  0  0  0  0
   57.3833   28.0356   47.4394 H   0  0  0  0  0  0  0  0  0  0  0  0
  1  2  1  0
  2  3  1  0
  3  4  1  0
  4  5  1  0
  5  6  1  0
  6  7  1  0
  7  8  1  0
  8  9  1  0
  9 10  1  0
 10 11  1  0
 11 12  1  0
 12 13  1  0
 13 14  1  0
 14 15  1  0
 15 16  1  0
 16 17  1  0
 17 18  1  0
 14 19  1  0
 19 20  1  0
 19 21  1  0
  3 22  2  0
 22 23  1  0
 23 24  2  0
 24 25  1  0
 25 26  2  0
 26 27  1  0
 27 28  2  0
 28 29  1  0
 29 30  2  0
 24  2  1  0
 30 25  1  0
 21  8  1  0
 20 10  1  0
 18 14  1  0
  1 31  1  0
  1 32  1  0
  1 33  1  0
  5 34  1  0
  5 35  1  0
  6 36  1  0
  6 37  1  0
  7 38  1  0
  7 39  1  0
  9 40  1  0
  9 41  1  0
 10 42  1  1
 11 43  1  0
 11 44  1  0
 13 45  1  0
 13 46  1  0
 15 47  1  0
 15 48  1  0
 16 49  1  0
 16 50  1  0
 17 51  1  0
 17 52  1  0
 18 53  1  0
 18 54  1  0
 19 55  1  6
 20 56  1  0
 20 57  1  0
 21 58  1  0
 21 59  1  0
 26 60  1  0
 27 61  1  0
 28 62  1  0
 29 63  1  0
 30 64  1  0
M  END
>  <UniqueID>  (17) 
16

>  <SMILES>  (17) 
Cn1c(SCCCN2C[C@H]3COCC4(CCCC4)[C@@H](C3)C2)nnc1-c1ccccc1

>  <Energy>  (17) 
196.61819829618278

>  <Genealogy>  (17) 
Cn1c(SCCCN2C[C@H]3COCC4(CCCC4)[C@@H](C3)C2)nnc1-c1ccccc1 (chirality)
Cn1c(SCCCN2C[C@H]3COCC4(CCCC4)[C@@H](C3)C2)nnc1-c1ccccc1 (3D coordinates assigned)
Cn1c(SCCCN2C[C@H]3COCC4(CCCC4)[C@@H](C3)C2)nnc1-c1ccccc1 (nonaromatic ring conformer: 196.61819829618278 kcal/mol)

>  <smiles>  (17) 
Cn1c(SCCCN2CC3COCC4(CCCC4)C(C3)C2)nnc1-c1ccccc1

>  <score_type>  (17) 
oracle

>  <origin>  (17) 
adg

>  <m_score__min__energy>  (17) 
-8.3900000000000006

>  <m_primary>  (17) 
energy

$$$$
17:0
     RDKit          3D

 44 45  0  0  0  0  0  0  0  0999 V2000
   58.9050   29.7500   48.0570 C   0  0  0  0  0  0  0  0  0  0  0  0
   59.8870   28.9770   47.1780 C   0  0  0  0  0  0  0  0  0  0  0  0
   60.3170   29.7740   45.9350 C   0  0  0  0  0  0  0  0  0  0  0  0
   59.5070   29.4270   44.6730 C   0  0  0  0  0  0  0  0  0  0  0  0
   58.1080   29.8470   44.7880 N   0  0  0  0  0  0  0  0  0  0  0  0
   57.0250   29.0600   44.9330 C   0  0  0  0  0  0  0  0  0  0  0  0
   55.8870   29.7790   44.8690 N   0  0  0  0  0  0  0  0  0  0  0  0
   56.2330   31.0420   44.6640 N   0  0  0  0  0  0  0  0  0  0  0  0
   57.5770   31.0730   44.6070 C   0  0  0  0  0  0  0  0  0  0  0  0
   58.5120   32.5670   44.2750 S   0  0  0  0  0  0  0  0  0  0  0  0
   57.7590   33.4860   45.6550 C   0  0  0  0  0  0  0  0  0  0  0  0
   58.8170   33.8990   46.6270 C   0  0  0  0  0  0  0  0  0  0  0  0
   58.8900   35.1030   46.9930 O   0  0  0  0  0  0  0  0  0  0  0  0
   59.7150   32.9200   47.1700 N   0  0  0  0  0  0  0  0  0  0  0  0
   60.6670   33.2410   48.1930 C   0  0  0  0  0  0  0  0  0  0  0  0
   60.3150   33.1520   49.5600 C   0  0  0  0  0  0  0  0  0  0  0  0
   58.9380   32.7220   49.9910 C   0  0  0  0  0  0  0  0  0  0  0  0
   61.2740   33.4490   50.5400 C   0  0  0  0  0  0  0  0  0  0  0  0
   62.5510   33.8740   50.1750 C   0  0  0  0  0  0  0  0  0  0  0  0
   62.8900   34.0010   48.8280 C   0  0  0  0  0  0  0  0  0  0  0  0
   61.9580   33.6830   47.8290 C   0  0  0  0  0  0  0  0  0  0  0  0
   62.3420   33.8200   46.3790 C   0  0  0  0  0  0  0  0  0  0  0  0
   59.1382   29.5665   49.1162 H   0  0  0  0  0  0  0  0  0  0  0  0
   58.9905   30.8258   47.8438 H   0  0  0  0  0  0  0  0  0  0  0  0
   57.8794   29.4143   47.8438 H   0  0  0  0  0  0  0  0  0  0  0  0
   60.7818   28.7403   47.7724 H   0  0  0  0  0  0  0  0  0  0  0  0
   59.3792   28.0648   46.8314 H   0  0  0  0  0  0  0  0  0  0  0  0
   60.1891   30.8458   46.1471 H   0  0  0  0  0  0  0  0  0  0  0  0
   61.3653   29.5118   45.7291 H   0  0  0  0  0  0  0  0  0  0  0  0
   59.9606   29.9344   43.8088 H   0  0  0  0  0  0  0  0  0  0  0  0
   59.5252   28.3345   44.5464 H   0  0  0  0  0  0  0  0  0  0  0  0
   57.0641   27.9711   45.0841 H   0  0  0  0  0  0  0  0  0  0  0  0
   57.2528   34.3811   45.2643 H   0  0  0  0  0  0  0  0  0  0  0  0
   57.0295   32.8402   46.1656 H   0  0  0  0  0  0  0  0  0  0  0  0
   59.5620   31.9130   46.9380 H   0  0  0  0  0  0  0  0  0  0  0  0
   58.8860   32.7058   51.0897 H   0  0  0  0  0  0  0  0  0  0  0  0
   58.1932   33.4303   49.5991 H   0  0  0  0  0  0  0  0  0  0  0  0
   58.7287   31.7157   49.5991 H   0  0  0  0  0  0  0  0  0  0  0  0
   61.0166   33.3458   51.6045 H   0  0  0  0  0  0  0  0  0  0  0  0
   63.2933   34.1098   50.9518 H   0  0  0  0  0  0  0  0  0  0  0  0
   63.8939   34.3525   48.5475 H   0  0  0  0  0  0  0  0  0  0  0  0
   63.3758   34.1888   46.3067 H   0  0  0  0  0  0  0  0  0  0  0  0
   62.2671   32.8397   45.8857 H   0  0  0  0  0  0  0  0  0  0  0  0
   61.6635   34.5315   45.8857 H   0  0  0  0  0  0  0  0  0  0  0  0
  1  2  1  0
  2  3  1  0
  3  4  1  0
  4  5  1  0
  5  6  1  0
  6  7  2  0
  7  8  1  0
  8  9  2  0
  9 10  1  0
 10 11  1  0
 11 12  1  0
 12 13  2  0
 12 14  1  0
 14 15  1  0
 15 16  2  0
 16 17  1  0
 16 18  1  0
 18 19  2  0
 19 20  1  0
 20 21  2  0
 21 22  1  0
  9  5  1  0
 21 15  1  0
  1 23  1  0
  1 24  1  0
  1 25  1  0
  2 26  1  0
  2 27  1  0
  3 28  1  0
  3 29  1  0
  4 30  1  0
  4 31  1  0
  6 32  1  0
 11 33  1  0
 11 34  1  0
 14 35  1  0
 17 36  1  0
 17 37  1  0
 17 38  1  0
 18 39  1  0
 19 40  1  0
 20 41  1  0
 22 42  1  0
 22 43  1  0
 22 44  1  0
M  END
>  <UniqueID>  (18) 
17

>  <SMILES>  (18) 
CCCCn1cnnc1SCC(=O)Nc1c(C)cccc1C

>  <Energy>  (18) 
71.08217138023934

>  <Genealogy>  (18) 
CCCCn1cnnc1SCC(=O)Nc1c(C)cccc1C (3D coordinates assigned)
CCCCn1cnnc1SCC(=O)Nc1c(C)cccc1C (optimized conformer: 71.08217138023934 kcal/mol)

>  <smiles>  (18) 
CCCCn1cnnc1SCC(=O)Nc1c(C)cccc1C

>  <score_type>  (18) 
oracle

>  <origin>  (18) 
adg

>  <m_score__min__energy>  (18) 
-8.1300000000000008

>  <m_primary>  (18) 
energy

$$$$
18:0
     RDKit          3D

 56 58  0  0  0  0  0  0  0  0999 V2000
   62.1320   33.0610   47.8160 C   0  0  0  0  0  0  0  0  0  0  0  0
   60.8330   32.4630   47.4310 N   0  0  0  0  0  0  0  0  0  0  0  0
   60.5100   31.1850   47.8510 C   0  0  0  0  0  0  0  0  0  0  0  0
   61.2490   30.5190   48.8620 C   0  0  0  0  0  0  0  0  0  0  0  0
   60.9450   29.2090   49.2340 C   0  0  0  0  0  0  0  0  0  0  0  0
   59.8910   28.5370   48.6280 C   0  0  0  0  0  0  0  0  0  0  0  0
   59.1160   29.1800   47.6670 C   0  0  0  0  0  0  0  0  0  0  0  0
   59.4000   30.5070   47.2800 C   0  0  0  0  0  0  0  0  0  0  0  0
   58.5860   31.1710   46.3470 C   0  0  0  0  0  0  0  0  0  0  0  0
   57.4680   30.4910   45.7600 N   0  0  0  0  0  0  0  0  0  0  0  0
   57.3370   30.3890   44.3040 C   0  0  0  0  0  0  0  0  0  0  0  0
   56.2700   29.3620   43.9270 C   0  0  0  0  0  0  0  0  0  0  0  0
   55.9460   28.5490   45.1080 N   0  0  0  0  0  0  0  0  0  0  0  0
   57.0820   27.7280   45.5370 C   0  0  0  0  0  0  0  0  0  0  0  0
   56.5920   26.5800   46.4210 C   0  0  0  0  0  0  0  0  0  0  0  0
   55.3040   26.1560   45.9960 O   0  0  0  0  0  0  0  0  0  0  0  0
   55.2080   24.7880   45.6070 C   0  0  0  0  0  0  0  0  0  0  0  0
   55.6550   23.9670   46.8300 C   0  0  0  0  0  0  0  0  0  0  0  0
   53.7500   24.3930   45.2780 C   0  0  0  0  0  0  0  0  0  0  0  0
   56.1560   24.4380   44.4350 C   0  0  0  0  0  0  0  0  0  0  0  0
   58.8480   32.5130   46.0290 C   0  0  0  0  0  0  0  0  0  0  0  0
   58.0240   33.2140   45.1230 C   0  0  0  0  0  0  0  0  0  0  0  0
   58.2460   34.5630   44.8580 C   0  0  0  0  0  0  0  0  0  0  0  0
   59.2830   35.2350   45.4950 C   0  0  0  0  0  0  0  0  0  0  0  0
   60.1290   34.5550   46.3700 C   0  0  0  0  0  0  0  0  0  0  0  0
   59.9590   33.1690   46.6250 C   0  0  0  0  0  0  0  0  0  0  0  0
   62.2087   33.0963   48.9128 H   0  0  0  0  0  0  0  0  0  0  0  0
   62.9516   32.4496   47.4106 H   0  0  0  0  0  0  0  0  0  0  0  0
   62.2005   34.0813   47.4106 H   0  0  0  0  0  0  0  0  0  0  0  0
   62.0763   31.0444   49.3615 H   0  0  0  0  0  0  0  0  0  0  0  0
   61.5418   28.7068   50.0096 H   0  0  0  0  0  0  0  0  0  0  0  0
   59.6688   27.4966   48.9076 H   0  0  0  0  0  0  0  0  0  0  0  0
   58.2723   28.6475   47.2038 H   0  0  0  0  0  0  0  0  0  0  0  0
   56.6550   30.2690   46.3800 H   0  0  0  0  0  0  0  0  0  0  0  0
   57.0524   31.3708   43.8976 H   0  0  0  0  0  0  0  0  0  0  0  0
   58.3014   30.0665   43.8844 H   0  0  0  0  0  0  0  0  0  0  0  0
   55.3655   29.8818   43.5782 H   0  0  0  0  0  0  0  0  0  0  0  0
   56.6479   28.7133   43.1230 H   0  0  0  0  0  0  0  0  0  0  0  0
   55.1470   27.9150   44.8660 H   0  0  0  0  0  0  0  0  0  0  0  0
   57.5886   27.3158   44.6519 H   0  0  0  0  0  0  0  0  0  0  0  0
   57.7830   28.3522   46.1106 H   0  0  0  0  0  0  0  0  0  0  0  0
   57.2956   25.7376   46.3476 H   0  0  0  0  0  0  0  0  0  0  0  0
   56.5328   26.9264   47.4634 H   0  0  0  0  0  0  0  0  0  0  0  0
   55.3675   24.4951   47.7511 H   0  0  0  0  0  0  0  0  0  0  0  0
   55.1697   22.9801   46.8064 H   0  0  0  0  0  0  0  0  0  0  0  0
   56.7473   23.8391   46.8064 H   0  0  0  0  0  0  0  0  0  0  0  0
   53.1912   24.2416   46.2133 H   0  0  0  0  0  0  0  0  0  0  0  0
   53.2758   25.1951   44.6933 H   0  0  0  0  0  0  0  0  0  0  0  0
   53.7456   23.4613   44.6933 H   0  0  0  0  0  0  0  0  0  0  0  0
   57.1174   24.0830   44.8345 H   0  0  0  0  0  0  0  0  0  0  0  0
   55.7011   23.6485   43.8187 H   0  0  0  0  0  0  0  0  0  0  0  0
   56.3233   25.3336   43.8187 H   0  0  0  0  0  0  0  0  0  0  0  0
   57.1977   32.6894   44.6209 H   0  0  0  0  0  0  0  0  0  0  0  0
   57.6009   35.0968   44.1447 H   0  0  0  0  0  0  0  0  0  0  0  0
   59.4367   36.3080   45.3078 H   0  0  0  0  0  0  0  0  0  0  0  0
   60.9416   35.1015   46.8710 H   0  0  0  0  0  0  0  0  0  0  0  0
  1  2  1  0
  2  3  2  0
  3  4  1  0
  4  5  2  0
  5  6  1  0
  6  7  2  0
  7  8  1  0
  8  9  2  0
  9 10  1  0
 10 11  1  0
 11 12  1  0
 12 13  1  0
 13 14  1  0
 14 15  1  0
 15 16  1  0
 16 17  1  0
 17 18  1  0
 17 19  1  0
 17 20  1  0
  9 21  1  0
 21 22  2  0
 22 23  1  0
 23 24  2  0
 24 25  1  0
 25 26  2  0
 26  2  1  0
  8  3  1  0
 26 21  1  0
  1 27  1  0
  1 28  1  0
  1 29  1  0
  4 30  1  0
  5 31  1  0
  6 32  1  0
  7 33  1  0
 10 34  1  0
 11 35  1  0
 11 36  1  0
 12 37  1  0
 12 38  1  0
 13 39  1  0
 14 40  1  0
 14 41  1  0
 15 42  1  0
 15 43  1  0
 18 44  1  0
 18 45  1  0
 18 46  1  0
 19 47  1  0
 19 48  1  0
 19 49  1  0
 20 50  1  0
 20 51  1  0
 20 52  1  0
 22 53  1  0
 23 54  1  0
 24 55  1  0
 25 56  1  0
M  CHG  1   2   1
M  END
>  <UniqueID>  (19) 
18

>  <SMILES>  (19) 
C[n+]1c2ccccc2c(NCCNCCOC(C)(C)C)c2ccccc21

>  <Energy>  (19) 
81.25438680210998

>  <Genealogy>  (19) 
C[n+]1c2ccccc2c(NCCNCCOC(C)(C)C)c2ccccc21 (3D coordinates assigned)
C[n+]1c2ccccc2c(NCCNCCOC(C)(C)C)c2ccccc21 (optimized conformer: 81.25438680210998 kcal/mol)

>  <smiles>  (19) 
C[n+]1c2ccccc2c(NCCNCCOC(C)(C)C)c2ccccc21

>  <score_type>  (19) 
oracle

>  <origin>  (19) 
adg

>  <m_score__min__energy>  (19) 
-7.21

>  <m_primary>  (19) 
energy

$$$$
19:0
     RDKit          3D

 63 65  0  0  0  0  0  0  0  0999 V2000
   56.7030   21.3040   46.9990 C   0  0  0  0  0  0  0  0  0  0  0  0
   56.5120   20.2710   45.8850 C   0  0  0  0  0  0  0  0  0  0  0  0
   57.5890   20.3380   44.8770 N   0  0  0  0  0  0  0  0  0  0  0  0
   57.7780   21.6970   44.3200 C   0  0  0  0  0  0  0  0  0  0  0  0
   56.6660   22.1020   43.3330 C   0  0  0  0  0  0  0  0  0  0  0  0
   56.3530   23.6040   43.3810 C   0  0  0  0  0  0  0  0  0  0  0  0
   55.6300   24.0280   44.6720 C   0  0  0  0  0  0  0  0  0  0  0  0
   56.5660   24.5410   45.7830 C   0  0  0  0  0  0  0  0  0  0  0  0
   56.4550   26.0580   46.0540 C   0  0  0  0  0  0  0  0  0  0  0  0
   57.1530   26.8630   45.0460 N   0  0  0  0  0  0  0  0  0  0  0  0
   57.8410   28.0840   45.3740 C   0  0  0  0  0  0  0  0  0  0  0  0
   57.6390   29.2440   44.6100 C   0  0  0  0  0  0  0  0  0  0  0  0
   58.2710   30.4570   44.9960 C   0  0  0  0  0  0  0  0  0  0  0  0
   59.0250   30.5080   46.1620 N   0  0  0  0  0  0  0  0  0  0  0  0
   59.4830   31.8200   46.6980 C   0  0  0  0  0  0  0  0  0  0  0  0
   58.3370   32.5470   47.3980 C   0  0  0  0  0  0  0  0  0  0  0  0
   59.3040   29.3430   46.8640 C   0  0  0  0  0  0  0  0  0  0  0  0
   60.1350   29.3280   48.0190 C   0  0  0  0  0  0  0  0  0  0  0  0
   60.4460   28.1360   48.6750 C   0  0  0  0  0  0  0  0  0  0  0  0
   59.9470   26.9290   48.2050 C   0  0  0  0  0  0  0  0  0  0  0  0
   59.1070   26.9120   47.0990 C   0  0  0  0  0  0  0  0  0  0  0  0
   58.7500   28.1070   46.4400 C   0  0  0  0  0  0  0  0  0  0  0  0
   58.0500   31.7200   44.1550 C   0  0  0  0  0  0  0  0  0  0  0  0
   57.3810   31.5080   42.7940 C   0  0  0  0  0  0  0  0  0  0  0  0
   56.2730   30.4770   42.8880 C   0  0  0  0  0  0  0  0  0  0  0  0
   56.8780   29.1420   43.2980 C   0  0  0  0  0  0  0  0  0  0  0  0
   56.6116   20.8094   47.9773 H   0  0  0  0  0  0  0  0  0  0  0  0
   57.7005   21.7590   46.9100 H   0  0  0  0  0  0  0  0  0  0  0  0
   55.9342   22.0856   46.9100 H   0  0  0  0  0  0  0  0  0  0  0  0
   56.5050   19.2654   46.3307 H   0  0  0  0  0  0  0  0  0  0  0  0
   55.5598   20.4891   45.3794 H   0  0  0  0  0  0  0  0  0  0  0  0
   58.4730   19.9920   45.3130 H   0  0  0  0  0  0  0  0  0  0  0  0
   57.3720   19.6730   44.0970 H   0  0  0  0  0  0  0  0  0  0  0  0
   57.7894   22.4180   45.1506 H   0  0  0  0  0  0  0  0  0  0  0  0
   58.7274   21.6964   43.7645 H   0  0  0  0  0  0  0  0  0  0  0  0
   56.9874   21.8414   42.3138 H   0  0  0  0  0  0  0  0  0  0  0  0
   55.7520   21.5617   43.6206 H   0  0  0  0  0  0  0  0  0  0  0  0
   57.2987   24.1613   43.3099 H   0  0  0  0  0  0  0  0  0  0  0  0
   55.6803   23.8264   42.5396 H   0  0  0  0  0  0  0  0  0  0  0  0
   54.9201   24.8302   44.4218 H   0  0  0  0  0  0  0  0  0  0  0  0
   55.1359   23.1280   45.0667 H   0  0  0  0  0  0  0  0  0  0  0  0
   56.3235   24.0058   46.7129 H   0  0  0  0  0  0  0  0  0  0  0  0
   57.5947   24.3554   45.4405 H   0  0  0  0  0  0  0  0  0  0  0  0
   55.3915   26.3390   46.0547 H   0  0  0  0  0  0  0  0  0  0  0  0
   56.9279   26.2584   47.0267 H   0  0  0  0  0  0  0  0  0  0  0  0
   57.0450   26.6200   44.0370 H   0  0  0  0  0  0  0  0  0  0  0  0
   60.2971   31.6514   47.4183 H   0  0  0  0  0  0  0  0  0  0  0  0
   59.8362   32.4401   45.8609 H   0  0  0  0  0  0  0  0  0  0  0  0
   58.4633   32.4669   48.4878 H   0  0  0  0  0  0  0  0  0  0  0  0
   58.3422   33.6073   47.1052 H   0  0  0  0  0  0  0  0  0  0  0  0
   57.3800   32.0905   47.1052 H   0  0  0  0  0  0  0  0  0  0  0  0
   60.5407   30.2756   48.4028 H   0  0  0  0  0  0  0  0  0  0  0  0
   61.0887   28.1531   49.5675 H   0  0  0  0  0  0  0  0  0  0  0  0
   60.2162   25.9881   48.7073 H   0  0  0  0  0  0  0  0  0  0  0  0
   58.7143   25.9524   46.7315 H   0  0  0  0  0  0  0  0  0  0  0  0
   57.4186   32.4068   44.7377 H   0  0  0  0  0  0  0  0  0  0  0  0
   59.0543   32.1113   43.9355 H   0  0  0  0  0  0  0  0  0  0  0  0
   56.9561   32.4623   42.4494 H   0  0  0  0  0  0  0  0  0  0  0  0
   58.1385   31.1448   42.0839 H   0  0  0  0  0  0  0  0  0  0  0  0
   55.5352   30.7948   43.6395 H   0  0  0  0  0  0  0  0  0  0  0  0
   55.7725   30.3767   41.9136 H   0  0  0  0  0  0  0  0  0  0  0  0
   56.0693   28.4051   43.4122 H   0  0  0  0  0  0  0  0  0  0  0  0
   57.5871   28.8342   42.5154 H   0  0  0  0  0  0  0  0  0  0  0  0
  1  2  1  0
  2  3  1  0
  3  4  1  0
  4  5  1  0
  5  6  1  0
  6  7  1  0
  7  8  1  0
  8  9  1  0
  9 10  1  0
 10 11  1  0
 11 12  2  0
 12 13  1  0
 13 14  2  0
 14 15  1  0
 15 16  1  0
 14 17  1  0
 17 18  2  0
 18 19  1  0
 19 20  2  0
 20 21  1  0
 21 22  2  0
 13 23  1  0
 23 24  1  0
 24 25  1  0
 25 26  1  0
 22 11  1  0
 26 12  1  0
 22 17  1  0
  1 27  1  0
  1 28  1  0
  1 29  1  0
  2 30  1  0
  2 31  1  0
  3 32  1  0
  3 33  1  0
  4 34  1  0
  4 35  1  0
  5 36  1  0
  5 37  1  0
  6 38  1  0
  6 39  1  0
  7 40  1  0
  7 41  1  0
  8 42  1  0
  8 43  1  0
  9 44  1  0
  9 45  1  0
 10 46  1  0
 15 47  1  0
 15 48  1  0
 16 49  1  0
 16 50  1  0
 16 51  1  0
 18 52  1  0
 19 53  1  0
 20 54  1  0
 21 55  1  0
 23 56  1  0
 23 57  1  0
 24 58  1  0
 24 59  1  0
 25 60  1  0
 25 61  1  0
 26 62  1  0
 26 63  1  0
M  CHG  2   3   1  14   1
M  END
>  <UniqueID>  (20) 
19

>  <SMILES>  (20) 
CC[NH2+]CCCCCCNc1c2c([n+](CC)c3ccccc13)CCCC2

>  <Energy>  (20) 
82.17442699708265

>  <Genealogy>  (20) 
CC[NH2+]CCCCCCNc1c2c([n+](CC)c3ccccc13)CCCC2 (protonated)
CC[NH2+]CCCCCCNc1c2c([n+](CC)c3ccccc13)CCCC2 (3D coordinates assigned)
CC[NH2+]CCCCCCNc1c2c([n+](CC)c3ccccc13)CCCC2 (nonaromatic ring conformer: 82.17442699708265 kcal/mol)

>  <smiles>  (20) 
CCNCCCCCCNc1c2c([n+](CC)c3ccccc13)CCCC2

>  <score_type>  (20) 
oracle

>  <origin>  (20) 
adg

>  <m_score__min__energy>  (20) 
-5.4000000000000004

>  <m_primary>  (20) 
energy

$$$$
20:0
     RDKit          3D

 84 88  0  0  0  0  0  0  0  0999 V2000
   59.7270   35.3200   46.0570 C   0  0  0  0  0  0  0  0  0  0  0  0
   59.5570   34.6350   47.4100 C   0  0  0  0  0  0  0  0  0  0  0  0
   59.3830   33.1910   47.2240 N   0  0  0  0  0  0  0  0  0  0  0  0
   57.9900   32.8040   47.4700 C   0  0  0  0  0  0  0  0  0  0  0  0
   57.0810   33.4520   46.4220 C   0  0  0  0  0  0  0  0  0  0  0  0
   57.4000   32.9560   45.0060 C   0  0  0  0  0  0  0  0  0  0  0  0
   56.6990   31.7460   44.7100 O   0  0  0  0  0  0  0  0  0  0  0  0
   57.2300   30.4490   44.8150 C   0  0  0  0  0  0  0  0  0  0  0  0
   57.0220   29.4640   43.8360 C   0  0  0  0  0  0  0  0  0  0  0  0
   57.5660   28.1880   43.9950 C   0  0  0  0  0  0  0  0  0  0  0  0
   58.3230   27.8740   45.1310 C   0  0  0  0  0  0  0  0  0  0  0  0
   58.5130   28.8430   46.1430 C   0  0  0  0  0  0  0  0  0  0  0  0
   57.9830   30.1360   45.9530 C   0  0  0  0  0  0  0  0  0  0  0  0
   59.2850   28.4660   47.3670 C   0  0  0  0  0  0  0  0  0  0  0  0
   59.2090   29.2100   48.5620 C   0  0  0  0  0  0  0  0  0  0  0  0
   59.9160   28.8030   49.6970 C   0  0  0  0  0  0  0  0  0  0  0  0
   60.6920   27.6400   49.6760 C   0  0  0  0  0  0  0  0  0  0  0  0
   61.3980   27.2350   50.8620 N   0  0  0  0  0  0  0  0  0  0  0  0
   60.7510   26.8610   52.0930 C   0  0  0  0  0  0  0  0  0  0  0  0
   60.6010   25.5010   52.4220 C   0  0  0  0  0  0  0  0  0  0  0  0
   59.9040   25.1200   53.5680 C   0  0  0  0  0  0  0  0  0  0  0  0
   59.3300   26.0880   54.3910 C   0  0  0  0  0  0  0  0  0  0  0  0
   59.4570   27.4410   54.0720 C   0  0  0  0  0  0  0  0  0  0  0  0
   60.1700   27.8470   52.9260 C   0  0  0  0  0  0  0  0  0  0  0  0
   60.3450   29.2460   52.6220 N   0  0  0  0  0  0  0  0  0  0  0  0
   61.6460   29.8710   52.3830 C   0  0  0  0  0  0  0  0  0  0  0  0
   61.4880   31.1020   51.4820 C   0  0  0  0  0  0  0  0  0  0  0  0
   62.2280   30.9290   50.1480 C   0  0  0  0  0  0  0  0  0  0  0  0
   61.6330   31.7950   49.1030 N   0  0  0  0  0  0  0  0  0  0  0  0
   61.9800   33.2240   49.2560 C   0  0  0  0  0  0  0  0  0  0  0  0
   63.4130   33.5470   48.7850 C   0  0  0  0  0  0  0  0  0  0  0  0
   63.7060   33.0270   47.4350 N   0  0  0  0  0  0  0  0  0  0  0  0
   63.1110   33.8540   46.3710 C   0  0  0  0  0  0  0  0  0  0  0  0
   63.3540   31.6000   47.3090 C   0  0  0  0  0  0  0  0  0  0  0  0
   61.9050   31.3190   47.7350 C   0  0  0  0  0  0  0  0  0  0  0  0
   60.7860   26.9000   48.4860 C   0  0  0  0  0  0  0  0  0  0  0  0
   60.0690   27.2900   47.3450 C   0  0  0  0  0  0  0  0  0  0  0  0
   60.1850   26.4870   46.0740 C   0  0  0  0  0  0  0  0  0  0  0  0
   58.8570   26.4750   45.3120 C   0  0  0  0  0  0  0  0  0  0  0  0
   59.9893   36.3770   46.2116 H   0  0  0  0  0  0  0  0  0  0  0  0
   60.5288   34.8220   45.4921 H   0  0  0  0  0  0  0  0  0  0  0  0
   58.7854   35.2547   45.4921 H   0  0  0  0  0  0  0  0  0  0  0  0
   60.4503   34.8178   48.0254 H   0  0  0  0  0  0  0  0  0  0  0  0
   58.6675   35.0437   47.9118 H   0  0  0  0  0  0  0  0  0  0  0  0
   59.9780   32.7020   47.9340 H   0  0  0  0  0  0  0  0  0  0  0  0
   57.8981   31.7097   47.4071 H   0  0  0  0  0  0  0  0  0  0  0  0
   57.6895   33.1432   48.4723 H   0  0  0  0  0  0  0  0  0  0  0  0
   56.0349   33.2070   46.6578 H   0  0  0  0  0  0  0  0  0  0  0  0
   57.2485   34.5388   46.4493 H   0  0  0  0  0  0  0  0  0  0  0  0
   57.1043   33.7282   44.2806 H   0  0  0  0  0  0  0  0  0  0  0  0
   58.4799   32.7563   44.9428 H   0  0  0  0  0  0  0  0  0  0  0  0
   56.4281   29.6986   42.9403 H   0  0  0  0  0  0  0  0  0  0  0  0
   57.3988   27.4233   43.2221 H   0  0  0  0  0  0  0  0  0  0  0  0
   58.1643   30.9116   46.7117 H   0  0  0  0  0  0  0  0  0  0  0  0
   58.5887   30.1176   48.6015 H   0  0  0  0  0  0  0  0  0  0  0  0
   59.8613   29.4041   50.6166 H   0  0  0  0  0  0  0  0  0  0  0  0
   62.4400   27.3170   50.8620 H   0  0  0  0  0  0  0  0  0  0  0  0
   61.0378   24.7312   51.7689 H   0  0  0  0  0  0  0  0  0  0  0  0
   59.8069   24.0544   53.8230 H   0  0  0  0  0  0  0  0  0  0  0  0
   58.7767   25.7853   55.2923 H   0  0  0  0  0  0  0  0  0  0  0  0
   58.9955   28.1988   54.7222 H   0  0  0  0  0  0  0  0  0  0  0  0
   59.5050   29.8620   52.5480 H   0  0  0  0  0  0  0  0  0  0  0  0
   62.0828   30.1788   53.3445 H   0  0  0  0  0  0  0  0  0  0  0  0
   62.3053   29.1452   51.8846 H   0  0  0  0  0  0  0  0  0  0  0  0
   60.4186   31.2597   51.2784 H   0  0  0  0  0  0  0  0  0  0  0  0
   61.9219   31.9671   52.0048 H   0  0  0  0  0  0  0  0  0  0  0  0
   63.2852   31.2010   50.2836 H   0  0  0  0  0  0  0  0  0  0  0  0
   62.1418   29.8798   49.8292 H   0  0  0  0  0  0  0  0  0  0  0  0
   61.2724   33.8225   48.6635 H   0  0  0  0  0  0  0  0  0  0  0  0
   61.9223   33.4650   50.3277 H   0  0  0  0  0  0  0  0  0  0  0  0
   63.5413   34.6395   48.7756 H   0  0  0  0  0  0  0  0  0  0  0  0
   64.1077   33.0587   49.4842 H   0  0  0  0  0  0  0  0  0  0  0  0
   62.5254   34.6679   46.8234 H   0  0  0  0  0  0  0  0  0  0  0  0
   63.9107   34.2804   45.7475 H   0  0  0  0  0  0  0  0  0  0  0  0
   62.4526   33.2313   45.7475 H   0  0  0  0  0  0  0  0  0  0  0  0
   63.4799   31.2956   46.2595 H   0  0  0  0  0  0  0  0  0  0  0  0
   64.0180   31.0288   47.9744 H   0  0  0  0  0  0  0  0  0  0  0  0
   61.2240   31.8300   47.0385 H   0  0  0  0  0  0  0  0  0  0  0  0
   61.7485   30.2304   47.7151 H   0  0  0  0  0  0  0  0  0  0  0  0
   61.4273   26.0070   48.4483 H   0  0  0  0  0  0  0  0  0  0  0  0
   60.9623   26.9329   45.4360 H   0  0  0  0  0  0  0  0  0  0  0  0
   60.4495   25.4518   46.3353 H   0  0  0  0  0  0  0  0  0  0  0  0
   59.0142   26.0196   44.3231 H   0  0  0  0  0  0  0  0  0  0  0  0
   58.1257   25.8940   45.8930 H   0  0  0  0  0  0  0  0  0  0  0  0
  1  2  1  0
  2  3  1  0
  3  4  1  0
  4  5  1  0
  5  6  1  0
  6  7  1  0
  7  8  1  0
  8  9  2  0
  9 10  1  0
 10 11  2  0
 11 12  1  0
 12 13  2  0
 12 14  1  0
 14 15  2  0
 15 16  1  0
 16 17  2  0
 17 18  1  0
 18 19  1  0
 19 20  2  0
 20 21  1  0
 21 22  2  0
 22 23  1  0
 23 24  2  0
 24 25  1  0
 25 26  1  0
 26 27  1  0
 27 28  1  0
 28 29  1  0
 29 30  1  0
 30 31  1  0
 31 32  1  0
 32 33  1  0
 32 34  1  0
 34 35  1  0
 17 36  1  0
 36 37  2  0
 37 38  1  0
 38 39  1  0
 13  8  1  0
 37 14  1  0
 39 11  1  0
 24 19  1  0
 35 29  1  0
  1 40  1  0
  1 41  1  0
  1 42  1  0
  2 43  1  0
  2 44  1  0
  3 45  1  0
  4 46  1  0
  4 47  1  0
  5 48  1  0
  5 49  1  0
  6 50  1  0
  6 51  1  0
  9 52  1  0
 10 53  1  0
 13 54  1  0
 15 55  1  0
 16 56  1  0
 18 57  1  0
 20 58  1  0
 21 59  1  0
 22 60  1  0
 23 61  1  0
 25 62  1  0
 26 63  1  0
 26 64  1  0
 27 65  1  0
 27 66  1  0
 28 67  1  0
 28 68  1  0
 30 69  1  0
 30 70  1  0
 31 71  1  0
 31 72  1  0
 33 73  1  0
 33 74  1  0
 33 75  1  0
 34 76  1  0
 34 77  1  0
 35 78  1  0
 35 79  1  0
 36 80  1  0
 38 81  1  0
 38 82  1  0
 39 83  1  0
 39 84  1  0
M  END
>  <UniqueID>  (21) 
20

>  <SMILES>  (21) 
CCNCCCOc1ccc2c(c1)-c1ccc(Nc3ccccc3NCCCN3CCN(C)CC3)cc1CC2

>  <Energy>  (21) 
97.15596392707259

>  <Genealogy>  (21) 
CCNCCCOc1ccc2c(c1)-c1ccc(Nc3ccccc3NCCCN3CCN(C)CC3)cc1CC2 (3D coordinates assigned)
CCNCCCOc1ccc2c(c1)-c1ccc(Nc3ccccc3NCCCN3CCN(C)CC3)cc1CC2 (nonaromatic ring conformer: 97.15596392707259 kcal/mol)

>  <smiles>  (21) 
CCNCCCOc1ccc2c(c1)-c1ccc(Nc3ccccc3NCCCN3CCN(C)CC3)cc1CC2

>  <score_type>  (21) 
oracle

>  <origin>  (21) 
adg

>  <m_score__min__energy>  (21) 
-9.4399999999999995

>  <m_primary>  (21) 
energy

$$$$
21:0
     RDKit          3D

 66 69  0  0  0  0  0  0  0  0999 V2000
   57.0830   31.2020   42.5600 C   0  0  0  0  0  0  0  0  0  0  0  0
   56.2480   30.4180   43.5780 C   0  0  0  0  0  0  0  0  0  0  0  0
   56.7470   30.5800   44.9550 N   0  0  0  0  0  0  0  0  0  0  0  0
   58.1210   30.0840   45.1270 C   0  0  0  0  0  0  0  0  0  0  0  0
   58.3410   28.7680   44.3700 C   0  0  0  0  0  0  0  0  0  0  0  0
   58.9940   27.8010   45.1740 O   0  0  0  0  0  0  0  0  0  0  0  0
   58.1140   26.7630   45.5710 C   0  0  0  0  0  0  0  0  0  0  0  0
   58.6250   26.1430   46.8690 C   0  0  0  0  0  0  0  0  0  0  0  0
   60.0480   26.4520   47.0510 N   0  0  0  0  0  0  0  0  0  0  0  0
   60.2460   27.2980   48.2360 C   0  0  0  0  0  0  0  0  0  0  0  0
   60.1890   28.7850   47.8580 C   0  0  0  0  0  0  0  0  0  0  0  0
   58.9190   29.4820   48.3780 C   0  0  0  0  0  0  0  0  0  0  0  0
   59.2290   30.6380   49.2440 N   0  0  0  0  0  0  0  0  0  0  0  0
   60.1810   31.5440   48.6280 C   0  0  0  0  0  0  0  0  0  0  0  0
   61.5220   31.5790   49.0460 C   0  0  0  0  0  0  0  0  0  0  0  0
   62.4360   32.4510   48.4700 C   0  0  0  0  0  0  0  0  0  0  0  0
   62.1150   33.2160   47.3800 N   0  0  0  0  0  0  0  0  0  0  0  0
   63.1810   33.8510   46.5870 C   0  0  0  0  0  0  0  0  0  0  0  0
   60.7860   33.3150   47.0070 C   0  0  0  0  0  0  0  0  0  0  0  0
   60.3620   34.2630   46.0440 C   0  0  0  0  0  0  0  0  0  0  0  0
   59.0330   34.3300   45.6360 C   0  0  0  0  0  0  0  0  0  0  0  0
   58.0880   33.4710   46.1820 C   0  0  0  0  0  0  0  0  0  0  0  0
   58.4570   32.5510   47.1580 C   0  0  0  0  0  0  0  0  0  0  0  0
   59.7980   32.4610   47.6050 C   0  0  0  0  0  0  0  0  0  0  0  0
   63.7320   32.3140   49.1820 C   0  0  0  0  0  0  0  0  0  0  0  0
   64.9010   33.0900   49.1520 C   0  0  0  0  0  0  0  0  0  0  0  0
   65.9560   32.7550   50.0170 C   0  0  0  0  0  0  0  0  0  0  0  0
   65.8220   31.6920   50.9290 C   0  0  0  0  0  0  0  0  0  0  0  0
   64.6230   30.9690   50.9990 C   0  0  0  0  0  0  0  0  0  0  0  0
   63.5950   31.3080   50.1220 C   0  0  0  0  0  0  0  0  0  0  0  0
   62.2340   30.8060   50.0760 C   0  0  0  0  0  0  0  0  0  0  0  0
   61.7740   29.8870   50.8010 O   0  0  0  0  0  0  0  0  0  0  0  0
   57.7851   31.8612   43.0916 H   0  0  0  0  0  0  0  0  0  0  0  0
   57.6464   30.4990   41.9288 H   0  0  0  0  0  0  0  0  0  0  0  0
   56.4169   31.8086   41.9288 H   0  0  0  0  0  0  0  0  0  0  0  0
   55.2089   30.7764   43.5340 H   0  0  0  0  0  0  0  0  0  0  0  0
   56.3168   29.3512   43.3188 H   0  0  0  0  0  0  0  0  0  0  0  0
   56.1160   30.0760   45.6210 H   0  0  0  0  0  0  0  0  0  0  0  0
   58.8242   30.8385   44.7446 H   0  0  0  0  0  0  0  0  0  0  0  0
   58.2903   29.8992   46.1981 H   0  0  0  0  0  0  0  0  0  0  0  0
   57.3646   28.3699   44.0568 H   0  0  0  0  0  0  0  0  0  0  0  0
   58.9804   28.9771   43.4997 H   0  0  0  0  0  0  0  0  0  0  0  0
   57.1069   27.1753   45.7314 H   0  0  0  0  0  0  0  0  0  0  0  0
   58.0701   25.9941   44.7856 H   0  0  0  0  0  0  0  0  0  0  0  0
   58.0533   26.5500   47.7161 H   0  0  0  0  0  0  0  0  0  0  0  0
   58.4975   25.0515   46.8206 H   0  0  0  0  0  0  0  0  0  0  0  0
   60.3560   27.0010   46.2130 H   0  0  0  0  0  0  0  0  0  0  0  0
   59.4558   27.0816   48.9700 H   0  0  0  0  0  0  0  0  0  0  0  0
   61.2355   27.0801   48.6643 H   0  0  0  0  0  0  0  0  0  0  0  0
   61.0677   29.2905   48.2850 H   0  0  0  0  0  0  0  0  0  0  0  0
   60.1767   28.8484   46.7599 H   0  0  0  0  0  0  0  0  0  0  0  0
   58.3302   29.8324   47.5175 H   0  0  0  0  0  0  0  0  0  0  0  0
   58.3566   28.7523   48.9790 H   0  0  0  0  0  0  0  0  0  0  0  0
   59.6120   30.2980   50.1540 H   0  0  0  0  0  0  0  0  0  0  0  0
   58.3490   31.1290   49.5110 H   0  0  0  0  0  0  0  0  0  0  0  0
   63.9262   34.2949   47.2634 H   0  0  0  0  0  0  0  0  0  0  0  0
   63.6662   33.0946   45.9526 H   0  0  0  0  0  0  0  0  0  0  0  0
   62.7469   34.6378   45.9526 H   0  0  0  0  0  0  0  0  0  0  0  0
   61.0959   34.9586   45.6109 H   0  0  0  0  0  0  0  0  0  0  0  0
   58.7297   35.0667   44.8776 H   0  0  0  0  0  0  0  0  0  0  0  0
   57.0432   33.5184   45.8412 H   0  0  0  0  0  0  0  0  0  0  0  0
   57.6962   31.8836   47.5890 H   0  0  0  0  0  0  0  0  0  0  0  0
   64.9895   33.9441   48.4644 H   0  0  0  0  0  0  0  0  0  0  0  0
   66.8942   33.3282   49.9810 H   0  0  0  0  0  0  0  0  0  0  0  0
   66.6610   31.4273   51.5894 H   0  0  0  0  0  0  0  0  0  0  0  0
   64.4971   30.1548   51.7278 H   0  0  0  0  0  0  0  0  0  0  0  0
  1  2  1  0
  2  3  1  0
  3  4  1  0
  4  5  1  0
  5  6  1  0
  6  7  1  0
  7  8  1  0
  8  9  1  0
  9 10  1  0
 10 11  1  0
 11 12  1  0
 12 13  1  0
 13 14  1  0
 14 15  2  0
 15 16  1  0
 16 17  2  0
 17 18  1  0
 17 19  1  0
 19 20  2  0
 20 21  1  0
 21 22  2  0
 22 23  1  0
 23 24  2  0
 16 25  1  0
 25 26  2  0
 26 27  1  0
 27 28  2  0
 28 29  1  0
 29 30  2  0
 30 31  1  0
 31 32  2  0
 24 14  1  0
 30 25  1  0
 31 15  1  0
 24 19  1  0
  1 33  1  0
  1 34  1  0
  1 35  1  0
  2 36  1  0
  2 37  1  0
  3 38  1  0
  4 39  1  0
  4 40  1  0
  5 41  1  0
  5 42  1  0
  7 43  1  0
  7 44  1  0
  8 45  1  0
  8 46  1  0
  9 47  1  0
 10 48  1  0
 10 49  1  0
 11 50  1  0
 11 51  1  0
 12 52  1  0
 12 53  1  0
 13 54  1  0
 13 55  1  0
 18 56  1  0
 18 57  1  0
 18 58  1  0
 20 59  1  0
 21 60  1  0
 22 61  1  0
 23 62  1  0
 26 63  1  0
 27 64  1  0
 28 65  1  0
 29 66  1  0
M  CHG  2  13   1  17   1
M  END
>  <UniqueID>  (22) 
21

>  <SMILES>  (22) 
CCNCCOCCNCCC[NH2+]c1c2c([n+](C)c3ccccc13)-c1ccccc1C2=O

>  <Energy>  (22) 
118.48272308494528

>  <Genealogy>  (22) 
CCNCCOCCNCCC[NH2+]c1c2c([n+](C)c3ccccc13)-c1ccccc1C2=O (protonated)
CCNCCOCCNCCC[NH2+]c1c2c([n+](C)c3ccccc13)-c1ccccc1C2=O (3D coordinates assigned)
CCNCCOCCNCCC[NH2+]c1c2c([n+](C)c3ccccc13)-c1ccccc1C2=O (nonaromatic ring conformer: 118.48272308494528 kcal/mol)

>  <smiles>  (22) 
CCNCCOCCNCCCNc1c2c([n+](C)c3ccccc13)-c1ccccc1C2=O

>  <score_type>  (22) 
oracle

>  <origin>  (22) 
adg

>  <m_score__min__energy>  (22) 
-4.7599999999999998

>  <m_primary>  (22) 
energy

$$$$
22:0
     RDKit          3D

 55 57  0  0  0  0  0  0  0  0999 V2000
   55.7460   22.9570   45.1970 C   0  0  0  0  0  0  0  0  0  0  0  0
   55.2270   23.9360   46.2470 C   0  0  0  0  0  0  0  0  0  0  0  0
   54.4870   25.1160   45.6150 C   0  0  0  0  0  0  0  0  0  0  0  0
   55.1160   26.3780   45.9960 N   0  0  0  0  0  0  0  0  0  0  0  0
   56.5340   26.6050   46.0170 C   0  0  0  0  0  0  0  0  0  0  0  0
   57.0080   27.4490   46.8280 O   0  0  0  0  0  0  0  0  0  0  0  0
   57.4620   25.9190   45.0510 C   0  0  0  0  0  0  0  0  0  0  0  0
   58.8470   25.7390   45.6780 C   0  0  0  0  0  0  0  0  0  0  0  0
   59.4940   27.0470   45.8500 N   0  0  0  0  0  0  0  0  0  0  0  0
   60.0660   27.2270   47.1950 C   0  0  0  0  0  0  0  0  0  0  0  0
   60.0190   28.6850   47.6900 C   0  0  0  0  0  0  0  0  0  0  0  0
   58.7210   29.3040   47.4200 N   0  0  0  0  0  0  0  0  0  0  0  0
   58.6450   30.5980   46.7970 C   0  0  0  0  0  0  0  0  0  0  0  0
   58.1480   30.7180   45.4870 C   0  0  0  0  0  0  0  0  0  0  0  0
   57.6300   29.5960   44.8040 C   0  0  0  0  0  0  0  0  0  0  0  0
   57.0840   29.7280   43.5300 C   0  0  0  0  0  0  0  0  0  0  0  0
   57.0320   30.9760   42.9210 C   0  0  0  0  0  0  0  0  0  0  0  0
   57.5450   32.0980   43.5720 C   0  0  0  0  0  0  0  0  0  0  0  0
   58.1440   31.9910   44.8540 C   0  0  0  0  0  0  0  0  0  0  0  0
   58.7010   33.0850   45.4890 N   0  0  0  0  0  0  0  0  0  0  0  0
   58.9670   34.3250   44.7270 C   0  0  0  0  0  0  0  0  0  0  0  0
   59.0400   33.0080   46.8270 C   0  0  0  0  0  0  0  0  0  0  0  0
   59.3780   34.1620   47.5790 C   0  0  0  0  0  0  0  0  0  0  0  0
   59.7860   34.0620   48.9100 C   0  0  0  0  0  0  0  0  0  0  0  0
   59.8530   32.8200   49.5310 C   0  0  0  0  0  0  0  0  0  0  0  0
   59.4830   31.6740   48.8340 C   0  0  0  0  0  0  0  0  0  0  0  0
   59.0520   31.7500   47.4910 C   0  0  0  0  0  0  0  0  0  0  0  0
   56.2048   22.0916   45.6976 H   0  0  0  0  0  0  0  0  0  0  0  0
   54.9101   22.6163   44.5684 H   0  0  0  0  0  0  0  0  0  0  0  0
   56.4971   23.4577   44.5684 H   0  0  0  0  0  0  0  0  0  0  0  0
   54.5378   23.4035   46.9189 H   0  0  0  0  0  0  0  0  0  0  0  0
   56.0923   24.3335   46.7976 H   0  0  0  0  0  0  0  0  0  0  0  0
   54.5128   25.0148   44.5200 H   0  0  0  0  0  0  0  0  0  0  0  0
   53.4464   25.1154   45.9716 H   0  0  0  0  0  0  0  0  0  0  0  0
   57.0505   24.9324   44.7917 H   0  0  0  0  0  0  0  0  0  0  0  0
   57.5573   26.5383   44.1469 H   0  0  0  0  0  0  0  0  0  0  0  0
   58.7424   25.2524   46.6590 H   0  0  0  0  0  0  0  0  0  0  0  0
   59.4649   25.1145   45.0161 H   0  0  0  0  0  0  0  0  0  0  0  0
   58.8030   27.8060   45.6510 H   0  0  0  0  0  0  0  0  0  0  0  0
   59.5007   26.6008   47.9009 H   0  0  0  0  0  0  0  0  0  0  0  0
   61.1257   26.9374   47.1385 H   0  0  0  0  0  0  0  0  0  0  0  0
   60.2029   28.6999   48.7744 H   0  0  0  0  0  0  0  0  0  0  0  0
   60.7907   29.2558   47.1527 H   0  0  0  0  0  0  0  0  0  0  0  0
   57.9110   29.0170   48.0200 H   0  0  0  0  0  0  0  0  0  0  0  0
   57.6581   28.6066   45.2838 H   0  0  0  0  0  0  0  0  0  0  0  0
   56.6935   28.8437   43.0051 H   0  0  0  0  0  0  0  0  0  0  0  0
   56.5845   31.0795   41.9215 H   0  0  0  0  0  0  0  0  0  0  0  0
   57.4842   33.0818   43.0836 H   0  0  0  0  0  0  0  0  0  0  0  0
   59.1450   35.1546   45.4271 H   0  0  0  0  0  0  0  0  0  0  0  0
   59.8551   34.1828   44.0937 H   0  0  0  0  0  0  0  0  0  0  0  0
   58.0987   34.5596   44.0937 H   0  0  0  0  0  0  0  0  0  0  0  0
   59.3176   35.1529   47.1051 H   0  0  0  0  0  0  0  0  0  0  0  0
   60.0556   34.9696   49.4699 H   0  0  0  0  0  0  0  0  0  0  0  0
   60.1983   32.7433   50.5726 H   0  0  0  0  0  0  0  0  0  0  0  0
   59.5267   30.6959   49.3355 H   0  0  0  0  0  0  0  0  0  0  0  0
  1  2  1  0
  2  3  1  0
  3  4  1  0
  4  5  1  0
  5  6  2  0
  5  7  1  0
  7  8  1  0
  8  9  1  0
  9 10  1  0
 10 11  1  0
 11 12  1  0
 12 13  1  0
 13 14  2  0
 14 15  1  0
 15 16  2  0
 16 17  1  0
 17 18  2  0
 18 19  1  0
 19 20  2  0
 20 21  1  0
 20 22  1  0
 22 23  2  0
 23 24  1  0
 24 25  2  0
 25 26  1  0
 26 27  2  0
 27 13  1  0
 19 14  1  0
 27 22  1  0
  1 28  1  0
  1 29  1  0
  1 30  1  0
  2 31  1  0
  2 32  1  0
  3 33  1  0
  3 34  1  0
  7 35  1  0
  7 36  1  0
  8 37  1  0
  8 38  1  0
  9 39  1  0
 10 40  1  0
 10 41  1  0
 11 42  1  0
 11 43  1  0
 12 44  1  0
 15 45  1  0
 16 46  1  0
 17 47  1  0
 18 48  1  0
 21 49  1  0
 21 50  1  0
 21 51  1  0
 23 52  1  0
 24 53  1  0
 25 54  1  0
 26 55  1  0
M  CHG  2   4  -1  20   1
M  END
>  <UniqueID>  (23) 
22

>  <SMILES>  (23) 
CCC[N-]C(=O)CCNCCNc1c2ccccc2[n+](C)c2ccccc12

>  <Energy>  (23) 
69.90775761114011

>  <Genealogy>  (23) 
CCC[N-]C(=O)CCNCCNc1c2ccccc2[n+](C)c2ccccc12 (protonated)
CCC[N-]C(=O)CCNCCNc1c2ccccc2[n+](C)c2ccccc12 (3D coordinates assigned)
CCC[N-]C(=O)CCNCCNc1c2ccccc2[n+](C)c2ccccc12 (optimized conformer: 69.90775761114011 kcal/mol)

>  <smiles>  (23) 
CCCNC(=O)CCNCCNc1c2ccccc2[n+](C)c2ccccc12

>  <score_type>  (23) 
oracle

>  <origin>  (23) 
adg

>  <m_score__min__energy>  (23) 
-8.4499999999999993

>  <m_primary>  (23) 
energy

$$$$
23:0
     RDKit          3D

 37 38  0  0  0  0  0  0  0  0999 V2000
   62.7650   33.5080   46.6910 C   0  0  0  0  0  0  0  0  0  0  0  0
   63.5390   33.8420   47.9640 C   0  0  0  0  0  0  0  0  0  0  0  0
   63.0760   33.0140   49.1750 C   0  0  0  0  0  0  0  0  0  0  0  0
   62.3420   33.8350   50.1550 N   0  0  0  0  0  0  0  0  0  0  0  0
   61.4130   33.0350   50.9760 C   0  0  0  0  0  0  0  0  0  0  0  0
   59.9430   33.1740   50.5400 C   0  0  0  0  0  0  0  0  0  0  0  0
   59.7830   34.1750   49.5340 O   0  0  0  0  0  0  0  0  0  0  0  0
   59.4260   33.9430   48.1950 C   0  0  0  0  0  0  0  0  0  0  0  0
   59.6110   34.9830   47.2780 C   0  0  0  0  0  0  0  0  0  0  0  0
   59.2800   34.8160   45.9310 C   0  0  0  0  0  0  0  0  0  0  0  0
   58.7520   33.5990   45.4810 C   0  0  0  0  0  0  0  0  0  0  0  0
   58.4170   33.4190   44.1300 C   0  0  0  0  0  0  0  0  0  0  0  0
   57.8890   32.2000   43.6930 C   0  0  0  0  0  0  0  0  0  0  0  0
   57.4350   31.9620   41.8530 Br  0  0  0  0  0  0  0  0  0  0  0  0
   57.6920   31.1560   44.6010 C   0  0  0  0  0  0  0  0  0  0  0  0
   58.0220   31.3220   45.9480 C   0  0  0  0  0  0  0  0  0  0  0  0
   58.5540   32.5400   46.3990 C   0  0  0  0  0  0  0  0  0  0  0  0
   58.8890   32.7180   47.7510 C   0  0  0  0  0  0  0  0  0  0  0  0
   61.7852   33.0852   46.9579 H   0  0  0  0  0  0  0  0  0  0  0  0
   62.6202   34.4237   46.0990 H   0  0  0  0  0  0  0  0  0  0  0  0
   63.3319   32.7744   46.0990 H   0  0  0  0  0  0  0  0  0  0  0  0
   64.6066   33.6430   47.7891 H   0  0  0  0  0  0  0  0  0  0  0  0
   63.3553   34.9014   48.1962 H   0  0  0  0  0  0  0  0  0  0  0  0
   62.4168   32.2069   48.8227 H   0  0  0  0  0  0  0  0  0  0  0  0
   63.9696   32.6083   49.6719 H   0  0  0  0  0  0  0  0  0  0  0  0
   61.7730   34.5510   49.6450 H   0  0  0  0  0  0  0  0  0  0  0  0
   63.0130   34.3400   50.7780 H   0  0  0  0  0  0  0  0  0  0  0  0
   61.7017   31.9763   50.8990 H   0  0  0  0  0  0  0  0  0  0  0  0
   61.4842   33.4093   52.0079 H   0  0  0  0  0  0  0  0  0  0  0  0
   59.5967   32.2091   50.1411 H   0  0  0  0  0  0  0  0  0  0  0  0
   59.3516   33.4726   51.4181 H   0  0  0  0  0  0  0  0  0  0  0  0
   60.0220   35.9438   47.6215 H   0  0  0  0  0  0  0  0  0  0  0  0
   59.4344   35.6425   45.2218 H   0  0  0  0  0  0  0  0  0  0  0  0
   58.5702   34.2390   43.4129 H   0  0  0  0  0  0  0  0  0  0  0  0
   57.2752   30.1993   44.2533 H   0  0  0  0  0  0  0  0  0  0  0  0
   57.8645   30.4960   46.6572 H   0  0  0  0  0  0  0  0  0  0  0  0
   58.7316   31.8977   48.4667 H   0  0  0  0  0  0  0  0  0  0  0  0
  1  2  1  0
  2  3  1  0
  3  4  1  0
  4  5  1  0
  5  6  1  0
  6  7  1  0
  7  8  1  0
  8  9  2  0
  9 10  1  0
 10 11  2  0
 11 12  1  0
 12 13  2  0
 13 14  1  0
 13 15  1  0
 15 16  2  0
 16 17  1  0
 17 18  2  0
 18  8  1  0
 17 11  1  0
  1 19  1  0
  1 20  1  0
  1 21  1  0
  2 22  1  0
  2 23  1  0
  3 24  1  0
  3 25  1  0
  4 26  1  0
  4 27  1  0
  5 28  1  0
  5 29  1  0
  6 30  1  0
  6 31  1  0
  9 32  1  0
 10 33  1  0
 12 34  1  0
 15 35  1  0
 16 36  1  0
 18 37  1  0
M  CHG  1   4   1
M  END
>  <UniqueID>  (24) 
23

>  <SMILES>  (24) 
CCC[NH2+]CCOc1ccc2cc(Br)ccc2c1

>  <Energy>  (24) 
35.168424751439446

>  <Genealogy>  (24) 
CCC[NH2+]CCOc1ccc2cc(Br)ccc2c1 (protonated)
CCC[NH2+]CCOc1ccc2cc(Br)ccc2c1 (3D coordinates assigned)
CCC[NH2+]CCOc1ccc2cc(Br)ccc2c1 (optimized conformer: 35.168424751439446 kcal/mol)

>  <smiles>  (24) 
CCCNCCOc1ccc2cc(Br)ccc2c1

>  <score_type>  (24) 
oracle

>  <origin>  (24) 
adg

>  <m_score__min__energy>  (24) 
-5.6900000000000004

>  <m_primary>  (24) 
energy

$$$$
24:0
     RDKit          3D

 46 48  0  0  0  0  0  0  0  0999 V2000
   57.0070   24.4530   44.6200 C   0  0  0  0  0  0  0  0  0  0  0  0
   55.7220   24.6430   45.4180 C   0  0  0  0  0  0  0  0  0  0  0  0
   55.8650   25.7010   46.3660 O   0  0  0  0  0  0  0  0  0  0  0  0
   56.8920   26.6600   46.3720 C   0  0  0  0  0  0  0  0  0  0  0  0
   56.9790   27.6920   45.4200 C   0  0  0  0  0  0  0  0  0  0  0  0
   58.0250   28.6180   45.4730 C   0  0  0  0  0  0  0  0  0  0  0  0
   59.0150   28.5270   46.4730 C   0  0  0  0  0  0  0  0  0  0  0  0
   60.1130   29.4620   46.5790 N   0  0  0  0  0  0  0  0  0  0  0  0
   60.0580   30.9250   46.4310 C   0  0  2  0  0  0  0  0  0  0  0  0
   61.2330   31.6230   47.1590 C   0  0  0  0  0  0  0  0  0  0  0  0
   60.8300   32.9930   47.7190 C   0  0  0  0  0  0  0  0  0  0  0  0
   59.8720   33.6970   46.7500 C   0  0  0  0  0  0  0  0  0  0  0  0
   58.5800   32.9680   46.6160 N   0  0  1  0  0  0  0  0  0  0  0  0
   57.9470   33.2650   45.3440 C   0  0  0  0  0  0  0  0  0  0  0  0
   57.8920   34.4570   44.9280 O   0  0  0  0  0  0  0  0  0  0  0  0
   57.4240   32.2000   44.4650 C   0  0  0  0  0  0  0  0  0  0  0  0
   57.7830   31.9430   43.1520 C   0  0  0  0  0  0  0  0  0  0  0  0
   57.0160   30.8680   42.7590 C   0  0  0  0  0  0  0  0  0  0  0  0
   56.2370   30.5340   43.8460 C   0  0  0  0  0  0  0  0  0  0  0  0
   56.5000   31.3450   44.8440 O   0  0  0  0  0  0  0  0  0  0  0  0
   58.6730   31.4950   46.8160 C   0  0  0  0  0  0  0  0  0  0  0  0
   58.9160   27.4960   47.4210 C   0  0  0  0  0  0  0  0  0  0  0  0
   57.8700   26.5720   47.3670 C   0  0  0  0  0  0  0  0  0  0  0  0
   57.8531   24.3279   45.3117 H   0  0  0  0  0  0  0  0  0  0  0  0
   56.9162   23.5585   43.9862 H   0  0  0  0  0  0  0  0  0  0  0  0
   57.1789   25.3355   43.9862 H   0  0  0  0  0  0  0  0  0  0  0  0
   54.9013   24.8864   44.7272 H   0  0  0  0  0  0  0  0  0  0  0  0
   55.5029   23.7113   45.9602 H   0  0  0  0  0  0  0  0  0  0  0  0
   56.2190   27.7709   44.6287 H   0  0  0  0  0  0  0  0  0  0  0  0
   58.0762   29.4253   44.7275 H   0  0  0  0  0  0  0  0  0  0  0  0
   61.0700   29.0570   46.6910 H   0  0  0  0  0  0  0  0  0  0  0  0
   60.1876   31.1529   45.3627 H   0  0  0  0  0  0  0  0  0  0  0  0
   61.5658   30.9837   47.9900 H   0  0  0  0  0  0  0  0  0  0  0  0
   62.0405   31.7789   46.4285 H   0  0  0  0  0  0  0  0  0  0  0  0
   60.3307   32.8568   48.6896 H   0  0  0  0  0  0  0  0  0  0  0  0
   61.7319   33.6099   47.8456 H   0  0  0  0  0  0  0  0  0  0  0  0
   59.6704   34.7116   47.1241 H   0  0  0  0  0  0  0  0  0  0  0  0
   60.3504   33.7263   45.7599 H   0  0  0  0  0  0  0  0  0  0  0  0
   57.9700   33.3400   47.3810 H   0  0  0  0  0  0  0  0  0  0  0  0
   58.5261   32.4847   42.5484 H   0  0  0  0  0  0  0  0  0  0  0  0
   57.0238   30.3753   41.7755 H   0  0  0  0  0  0  0  0  0  0  0  0
   55.5059   29.7125   43.8730 H   0  0  0  0  0  0  0  0  0  0  0  0
   58.4831   31.2715   47.8762 H   0  0  0  0  0  0  0  0  0  0  0  0
   57.9265   31.0236   46.1599 H   0  0  0  0  0  0  0  0  0  0  0  0
   59.6717   27.4150   48.2162 H   0  0  0  0  0  0  0  0  0  0  0  0
   57.8152   25.7671   48.1148 H   0  0  0  0  0  0  0  0  0  0  0  0
  1  2  1  0
  2  3  1  0
  3  4  1  0
  4  5  2  0
  5  6  1  0
  6  7  2  0
  7  8  1  0
  8  9  1  0
  9 10  1  0
 10 11  1  0
 11 12  1  0
 12 13  1  0
 13 14  1  0
 14 15  2  0
 14 16  1  0
 16 17  2  0
 17 18  1  0
 18 19  2  0
 19 20  1  0
 13 21  1  0
  7 22  1  0
 22 23  2  0
 23  4  1  0
 21  9  1  0
 20 16  1  0
  1 24  1  0
  1 25  1  0
  1 26  1  0
  2 27  1  0
  2 28  1  0
  5 29  1  0
  6 30  1  0
  8 31  1  0
  9 32  1  6
 10 33  1  0
 10 34  1  0
 11 35  1  0
 11 36  1  0
 12 37  1  0
 12 38  1  0
 13 39  1  1
 17 40  1  0
 18 41  1  0
 19 42  1  0
 21 43  1  0
 21 44  1  0
 22 45  1  0
 23 46  1  0
M  CHG  1  13   1
M  END
>  <UniqueID>  (25) 
24

>  <SMILES>  (25) 
CCOc1ccc(N[C@@H]2CCC[N@@H+](C(=O)c3ccco3)C2)cc1

>  <Energy>  (25) 
84.86698159163187

>  <Genealogy>  (25) 
CCOc1ccc(NC2CCC[NH+](C(=O)c3ccco3)C2)cc1 (protonated)
CCOc1ccc(N[C@@H]2CCC[N@@H+](C(=O)c3ccco3)C2)cc1 (chirality)
CCOc1ccc(N[C@@H]2CCC[N@@H+](C(=O)c3ccco3)C2)cc1 (3D coordinates assigned)
CCOc1ccc(N[C@@H]2CCC[N@@H+](C(=O)c3ccco3)C2)cc1 (nonaromatic ring conformer: 84.86698159163187 kcal/mol)

>  <smiles>  (25) 
CCOc1ccc(NC2CCCN(C(=O)c3ccco3)C2)cc1

>  <score_type>  (25) 
oracle

>  <origin>  (25) 
adg

>  <m_score__min__energy>  (25) 
-5.6600000000000001

>  <m_primary>  (25) 
energy

$$$$
25:0
     RDKit          3D

 63 65  0  0  0  0  0  0  0  0999 V2000
   60.3240   29.5660   50.3250 C   0  0  0  0  0  0  0  0  0  0  0  0
   58.9060   29.8970   49.8730 C   0  0  0  0  0  0  0  0  0  0  0  0
   58.7710   31.3430   49.6620 N   0  0  0  0  0  0  0  0  0  0  0  0
   57.8370   31.9480   50.6290 C   0  0  0  0  0  0  0  0  0  0  0  0
   58.6210   32.5370   51.8040 C   0  0  0  0  0  0  0  0  0  0  0  0
   59.3910   33.8020   51.3890 C   0  0  0  0  0  0  0  0  0  0  0  0
   60.8330   33.4820   50.9920 C   0  0  0  0  0  0  0  0  0  0  0  0
   60.9230   33.3970   49.5850 O   0  0  0  0  0  0  0  0  0  0  0  0
   61.9710   34.2170   49.1020 C   0  0  0  0  0  0  0  0  0  0  0  0
   63.3320   33.5310   49.2880 C   0  0  0  0  0  0  0  0  0  0  0  0
   63.8750   33.1170   48.0480 O   0  0  0  0  0  0  0  0  0  0  0  0
   62.8450   32.7750   47.1440 C   0  0  0  0  0  0  0  0  0  0  0  0
   62.4020   31.3440   47.4190 C   0  0  0  0  0  0  0  0  0  0  0  0
   60.9770   31.3010   47.7420 N   0  0  0  0  0  0  0  0  0  0  0  0
   59.9830   31.1560   46.7120 C   0  0  0  0  0  0  0  0  0  0  0  0
   59.3410   32.2910   46.1830 C   0  0  0  0  0  0  0  0  0  0  0  0
   59.6460   33.5840   46.6630 C   0  0  0  0  0  0  0  0  0  0  0  0
   59.0650   34.7130   46.0930 C   0  0  0  0  0  0  0  0  0  0  0  0
   58.1830   34.5770   45.0290 C   0  0  0  0  0  0  0  0  0  0  0  0
   57.8550   33.3110   44.5460 C   0  0  0  0  0  0  0  0  0  0  0  0
   58.3950   32.1360   45.1340 C   0  0  0  0  0  0  0  0  0  0  0  0
   58.0390   30.8720   44.6970 N   0  0  0  0  0  0  0  0  0  0  0  0
   56.8760   30.7040   43.7940 C   0  0  0  0  0  0  0  0  0  0  0  0
   58.7490   29.7650   45.1250 C   0  0  0  0  0  0  0  0  0  0  0  0
   58.5730   28.4850   44.5320 C   0  0  0  0  0  0  0  0  0  0  0  0
   59.2340   27.3620   45.0280 C   0  0  0  0  0  0  0  0  0  0  0  0
   60.0910   27.4800   46.1160 C   0  0  0  0  0  0  0  0  0  0  0  0
   60.3260   28.7290   46.6860 C   0  0  0  0  0  0  0  0  0  0  0  0
   59.6950   29.8860   46.1790 C   0  0  0  0  0  0  0  0  0  0  0  0
   60.3656   29.5563   51.4242 H   0  0  0  0  0  0  0  0  0  0  0  0
   60.6106   28.5768   49.9385 H   0  0  0  0  0  0  0  0  0  0  0  0
   61.0189   30.3261   49.9385 H   0  0  0  0  0  0  0  0  0  0  0  0
   58.6914   29.3699   48.9317 H   0  0  0  0  0  0  0  0  0  0  0  0
   58.1957   29.5776   50.6498 H   0  0  0  0  0  0  0  0  0  0  0  0
   59.7110   31.7870   49.7900 H   0  0  0  0  0  0  0  0  0  0  0  0
   57.2648   32.7466   50.1342 H   0  0  0  0  0  0  0  0  0  0  0  0
   57.1475   31.1761   51.0015 H   0  0  0  0  0  0  0  0  0  0  0  0
   57.9179   32.7945   52.6098 H   0  0  0  0  0  0  0  0  0  0  0  0
   59.3486   31.7859   52.1451 H   0  0  0  0  0  0  0  0  0  0  0  0
   58.8799   34.2654   50.5323 H   0  0  0  0  0  0  0  0  0  0  0  0
   59.4162   34.4860   52.2501 H   0  0  0  0  0  0  0  0  0  0  0  0
   61.4992   34.2784   51.3552 H   0  0  0  0  0  0  0  0  0  0  0  0
   61.1334   32.5227   51.4386 H   0  0  0  0  0  0  0  0  0  0  0  0
   61.8102   34.4143   48.0319 H   0  0  0  0  0  0  0  0  0  0  0  0
   61.9711   35.1590   49.6700 H   0  0  0  0  0  0  0  0  0  0  0  0
   64.0269   34.2378   49.7650 H   0  0  0  0  0  0  0  0  0  0  0  0
   63.1879   32.6406   49.9176 H   0  0  0  0  0  0  0  0  0  0  0  0
   61.9932   33.4577   47.2794 H   0  0  0  0  0  0  0  0  0  0  0  0
   63.2129   32.8591   46.1108 H   0  0  0  0  0  0  0  0  0  0  0  0
   62.5892   30.7294   46.5261 H   0  0  0  0  0  0  0  0  0  0  0  0
   62.9722   30.9539   48.2750 H   0  0  0  0  0  0  0  0  0  0  0  0
   60.6760   31.6240   48.6900 H   0  0  0  0  0  0  0  0  0  0  0  0
   60.3521   33.7002   47.4984 H   0  0  0  0  0  0  0  0  0  0  0  0
   59.3043   35.7125   46.4851 H   0  0  0  0  0  0  0  0  0  0  0  0
   57.7415   35.4716   44.5655 H   0  0  0  0  0  0  0  0  0  0  0  0
   57.1653   33.2203   43.6939 H   0  0  0  0  0  0  0  0  0  0  0  0
   55.9628   30.5721   44.3929 H   0  0  0  0  0  0  0  0  0  0  0  0
   56.7726   31.5965   43.1594 H   0  0  0  0  0  0  0  0  0  0  0  0
   57.0294   29.8187   43.1594 H   0  0  0  0  0  0  0  0  0  0  0  0
   57.9031   28.3786   43.6660 H   0  0  0  0  0  0  0  0  0  0  0  0
   59.0769   26.3803   44.5572 H   0  0  0  0  0  0  0  0  0  0  0  0
   60.5838   26.5866   46.5270 H   0  0  0  0  0  0  0  0  0  0  0  0
   61.0117   28.8151   47.5418 H   0  0  0  0  0  0  0  0  0  0  0  0
  1  2  1  0
  2  3  1  0
  3  4  1  0
  4  5  1  0
  5  6  1  0
  6  7  1  0
  7  8  1  0
  8  9  1  0
  9 10  1  0
 10 11  1  0
 11 12  1  0
 12 13  1  0
 13 14  1  0
 14 15  1  0
 15 16  2  0
 16 17  1  0
 17 18  2  0
 18 19  1  0
 19 20  2  0
 20 21  1  0
 21 22  2  0
 22 23  1  0
 22 24  1  0
 24 25  2  0
 25 26  1  0
 26 27  2  0
 27 28  1  0
 28 29  2  0
 29 15  1  0
 21 16  1  0
 29 24  1  0
  1 30  1  0
  1 31  1  0
  1 32  1  0
  2 33  1  0
  2 34  1  0
  3 35  1  0
  4 36  1  0
  4 37  1  0
  5 38  1  0
  5 39  1  0
  6 40  1  0
  6 41  1  0
  7 42  1  0
  7 43  1  0
  9 44  1  0
  9 45  1  0
 10 46  1  0
 10 47  1  0
 12 48  1  0
 12 49  1  0
 13 50  1  0
 13 51  1  0
 14 52  1  0
 17 53  1  0
 18 54  1  0
 19 55  1  0
 20 56  1  0
 23 57  1  0
 23 58  1  0
 23 59  1  0
 25 60  1  0
 26 61  1  0
 27 62  1  0
 28 63  1  0
M  CHG  1  22   1
M  END
>  <UniqueID>  (26) 
25

>  <SMILES>  (26) 
CCNCCCCOCCOCCNc1c2ccccc2[n+](C)c2ccccc12

>  <Energy>  (26) 
81.91887931882302

>  <Genealogy>  (26) 
CCNCCCCOCCOCCNc1c2ccccc2[n+](C)c2ccccc12 (3D coordinates assigned)
CCNCCCCOCCOCCNc1c2ccccc2[n+](C)c2ccccc12 (optimized conformer: 81.91887931882302 kcal/mol)

>  <smiles>  (26) 
CCNCCCCOCCOCCNc1c2ccccc2[n+](C)c2ccccc12

>  <score_type>  (26) 
oracle

>  <origin>  (26) 
adg

>  <m_score__min__energy>  (26) 
-6.0499999999999998

>  <m_primary>  (26) 
energy

$$$$
